data_functionalizedCrystal
_audit_creation_method	'MofGen! by Chris Wilmer'
_symmetry_space_group_name_H-M	'P1'
_symmetry_Int_Tables_number	1
_symmetry_cell_setting	triclinic
loop_
_symmetry_equiv_pos_as_xyz
  x,y,z
_cell_length_a	16.994747
_cell_length_b	12.759401
_cell_length_c	12.759393
_cell_angle_alpha	90.020938
_cell_angle_beta	89.989525
_cell_angle_gamma	89.987417
loop_
_atom_site_label
_atom_site_type_symbol
_atom_site_fract_x
_atom_site_fract_y
_atom_site_fract_z
Zn1	Zn	0.313958	1.606293	0.594166
Zn2	Zn	0.445882	1.606195	0.418548
Zn3	Zn	0.314000	1.430592	0.418501
Zn4	Zn	0.445827	1.430595	0.594185
O5	O	0.379917	1.518419	0.506350
O6	O	0.331463	1.753301	0.570882
O7	O	0.428428	1.582859	0.271521
O8	O	0.203613	1.453938	0.441777
O9	O	0.428388	1.753229	0.441856
O10	O	0.203582	1.583025	0.570837
O11	O	0.331535	1.453844	0.271486
O12	O	0.331481	1.283571	0.441795
O13	O	0.428294	1.453944	0.741204
O14	O	0.428334	1.283573	0.570869
O15	O	0.331410	1.583028	0.741190
O16	O	0.556256	1.582862	0.441874
O17	O	0.556216	1.453849	0.570914
C18	C	0.379907	1.245451	0.506329
C19	C	0.379922	1.128675	0.506345
C20	C	0.430430	1.073841	0.573448
C21	C	0.430433	0.964117	0.573469
C22	C	0.329418	0.964070	0.439275
C23	C	0.329411	1.073792	0.439260
C24	C	0.458737	0.814224	0.697343
C25	C	0.509257	0.759387	0.764437
C26	C	0.586236	0.794991	0.780420
C27	C	0.612709	0.885431	0.729295
C28	C	0.562193	0.940262	0.662193
C29	C	0.485204	0.904659	0.646230
C30	C	0.301116	1.223687	0.315385
C31	C	0.250603	1.278520	0.248277
C32	C	0.173623	1.242918	0.232283
C33	C	0.147152	1.152475	0.283390
C34	C	0.197665	1.097642	0.350498
C35	C	0.274644	1.133252	0.366494
C36	C	0.584857	1.518358	0.506397
C37	C	0.674179	1.518365	0.506394
C38	C	0.174177	1.518485	0.506297
C39	C	0.084855	1.518517	0.506274
Zn40	Zn	0.945086	1.430622	0.418472
Zn41	Zn	0.945023	1.606340	0.594120
Zn42	Zn	0.813219	1.430631	0.594167
Zn43	Zn	0.813137	1.606214	0.418513
O44	O	0.879116	1.518452	0.506318
O45	O	1.055459	1.453980	0.441735
O46	O	0.927546	1.583088	0.741147
O47	O	0.830773	1.283608	0.570863
O48	O	1.055412	1.583079	0.570783
O49	O	0.927655	1.283602	0.441781
O50	O	0.830711	1.453995	0.741182
O51	O	0.702827	1.453873	0.570904
O52	O	0.830633	1.582866	0.271487
O53	O	0.702767	1.582874	0.441852
O54	O	0.927575	1.453858	0.271456
O55	O	0.927467	1.753344	0.570823
O56	O	0.830571	1.753252	0.441806
C57	C	0.379841	1.518497	0.780384
C58	C	0.379809	1.518531	0.897160
C59	C	0.379927	1.792452	0.506372
C60	C	0.379931	1.909229	0.506381
C61	C	0.379935	1.518401	0.233383
C62	C	0.379745	1.518571	0.116607
C63	C	0.329353	1.585750	0.952017
C64	C	0.329319	1.585768	1.061741
C65	C	0.430203	1.451344	1.061742
C66	C	0.430232	1.451322	0.952020
C67	C	0.236255	1.623372	1.211676
C68	C	0.185806	1.690608	1.266536
C69	C	0.173710	1.793120	1.230939
C70	C	0.212075	1.828417	1.140483
C71	C	0.262529	1.761186	1.085629
C72	C	0.274610	1.658660	1.121224
C73	C	0.523298	1.413728	0.802084
C74	C	0.573757	1.346503	0.747227
C75	C	0.585861	1.243989	0.782822
C76	C	0.547510	1.208696	0.873281
C77	C	0.497051	1.275922	0.928137
C78	C	0.484946	1.378434	0.892535
C79	C	0.879005	1.791419	0.506317
C80	C	0.878981	1.908196	0.506346
C81	C	0.879102	1.518347	0.232285
C82	C	0.879096	1.518302	0.115508
C83	C	0.879230	1.244418	0.506323
C84	C	0.879278	1.127642	0.506325
C85	C	0.879176	1.518481	0.779286
C86	C	0.879333	1.518232	0.896062
C87	C	0.929454	1.963071	0.573478
C88	C	0.929429	2.072795	0.573500
C89	C	0.828451	2.072759	0.439256
C90	C	0.828481	1.963037	0.439229
C91	C	1.022440	2.222767	0.610943
C92	C	1.072906	2.277646	0.678091
C93	C	1.085093	2.242050	0.780580
C94	C	1.046802	2.151577	0.815942
C95	C	0.996330	2.096704	0.748800
C96	C	0.984158	2.132298	0.646296
C97	C	0.735469	1.813063	0.401796
C98	C	0.684992	1.758188	0.334658
C99	C	0.672797	1.793781	0.232168
C100	C	0.711075	1.884258	0.196810
C101	C	0.761551	1.939133	0.263948
C102	C	0.773747	1.903532	0.366437
C103	C	0.828623	1.451401	0.950892
C104	C	0.828773	1.451174	1.060616
C105	C	0.930344	1.584617	1.060669
C106	C	0.930197	1.584839	0.950947
C107	C	0.800164	1.327230	1.210346
C108	C	0.749442	1.260408	1.265180
C109	C	0.672349	1.245062	1.229733
C110	C	0.645962	1.296553	1.139454
C111	C	0.696680	1.363383	1.084626
C112	C	0.773784	1.378709	1.120071
C113	C	0.958798	1.708784	0.801215
C114	C	1.009512	1.775620	0.746385
C115	C	1.086607	1.790977	0.781829
C116	C	1.112991	1.739504	0.872112
C117	C	1.062277	1.672668	0.926942
C118	C	0.985183	1.657310	0.891490
H119	H	0.396052	0.785233	0.684346
O120	O	0.634781	1.178546	0.729546
C121	C	0.647857	1.015914	0.635064
C122	C	0.592378	1.089921	0.695392
H123	H	0.613592	0.944254	0.607415
H124	H	0.697829	0.989962	0.688710
H125	H	0.673215	1.058784	0.564337
H126	H	0.566962	1.047120	0.766120
H127	H	0.542450	1.115874	0.641674
H128	H	0.471258	1.396627	1.106423
O129	O	0.699317	1.918695	0.097181
C130	C	0.709557	1.879617	-0.087100
C131	C	0.722934	1.840498	0.025674
H132	H	0.728629	1.816407	-0.144944
H133	H	0.745609	1.953675	-0.100917
H134	H	0.644468	1.897712	-0.098923
H135	H	0.788002	1.822344	0.037577
H136	H	0.686832	1.766476	0.039437
O137	O	0.280430	0.910592	0.374144
C138	C	0.235631	0.741538	0.314743
C139	C	0.291164	0.801967	0.388541
H140	H	0.244279	0.653705	0.326373
H141	H	0.249402	0.762987	0.229973
H142	H	0.172053	0.763198	0.333302
H143	H	0.354761	0.780340	0.370076
H144	H	0.277326	0.780514	0.473288
O145	O	0.375948	1.258095	0.330895
C146	C	0.514275	1.219047	0.316740
C147	C	0.429570	1.179941	0.299153
H148	H	0.557652	1.155888	0.291064
H149	H	0.523393	1.237121	0.403398
H150	H	0.524486	1.293127	0.268704
H151	H	0.419300	1.105839	0.347125
H152	H	0.420493	1.161939	0.212473
O153	O	0.459668	1.241713	1.015943
C154	C	0.335342	1.209187	1.100721
C155	C	0.377577	1.247976	1.001229
H156	H	0.268964	1.214217	1.088851
H157	H	0.353102	1.260162	1.170195
H158	H	0.352700	1.124386	1.116749
H159	H	0.360240	1.332763	0.985103
H160	H	0.359814	1.196927	0.931811
H161	H	0.176103	1.024004	0.392119
O162	O	0.623189	1.180083	1.283096
C163	C	0.607171	1.064411	1.430807
C164	C	0.662926	1.137954	1.370457
H165	H	0.639271	1.030346	1.501464
H166	H	0.587357	0.998043	1.377110
H167	H	0.553582	1.110465	1.458564
H168	H	0.716552	1.091990	1.342693
H169	H	0.682676	1.204322	1.424194
H170	H	0.154569	1.661860	1.340185
O171	O	0.875107	1.342021	1.244629
C172	C	1.013318	1.327015	1.205172
C173	C	0.928486	1.310185	1.166220
H174	H	1.056498	1.301305	1.141789
H175	H	1.023519	1.278712	1.279082
H176	H	1.022735	1.413570	1.223462
H177	H	0.919009	1.223658	1.147870
H178	H	0.918325	1.358555	1.092344
O179	O	0.623766	1.740324	0.167069
C180	C	0.536981	1.592439	0.146372
C181	C	0.592495	1.652862	0.220200
H182	H	0.511669	1.521726	0.189306
H183	H	0.571148	1.564792	0.074601
H184	H	0.486980	1.646121	0.120568
H185	H	0.642506	1.599242	0.246084
H186	H	0.558271	1.680524	0.291916
H187	H	1.056721	2.122610	0.899404
H188	H	0.132633	1.847863	1.275614
H189	H	0.770934	1.218484	1.338686
H190	H	0.132499	1.287569	0.177629
H191	H	0.084474	1.123475	0.270350
O192	O	0.559345	1.109181	0.908010
C193	C	0.604428	0.999214	1.049276
C194	C	0.591077	1.111968	1.010068
H195	H	0.630070	1.001430	1.131803
H196	H	0.647113	0.957196	0.994603
H197	H	0.545923	0.955536	1.050470
H198	H	0.649542	1.155734	1.008876
H199	H	0.548357	1.153906	1.064752
O200	O	1.110233	2.365455	0.643811
C201	C	1.234505	2.450258	0.611090
C202	C	1.192334	2.350762	0.649955
H203	H	1.300890	2.438405	0.616024
H204	H	1.216740	2.519735	0.662082
H205	H	1.217094	2.466271	0.526312
H206	H	1.209723	2.334652	0.734718
H207	H	1.210100	2.281342	0.598889
H208	H	1.012531	2.251749	0.527485
H209	H	0.787334	2.117424	0.384613
H210	H	1.083765	1.630759	1.000457
O211	O	0.747187	1.778550	0.501410
C212	C	0.688205	1.737809	0.668242
C213	C	0.674829	1.776930	0.555468
H214	H	0.629712	1.736466	0.711974
H215	H	0.730818	1.792573	0.710219
H216	H	0.713987	1.655346	0.665995
H217	H	0.649021	1.859377	0.557620
H218	H	0.632244	1.722094	0.513536
H219	H	0.792717	2.012805	0.235151
H220	H	0.971755	1.638847	1.105370
O221	O	0.276311	1.366274	0.198442
C222	C	0.300498	1.451014	0.032797
C223	C	0.271392	1.351564	0.089112
H224	H	0.296516	1.439162	-0.055605
H225	H	0.364212	1.467085	0.055649
H226	H	0.262258	1.520455	0.056669
H227	H	0.309574	1.282060	0.065270
H228	H	0.207666	1.335584	0.066258
H229	H	0.246092	1.539897	1.240662
O230	O	0.280440	1.650989	0.898563
C231	C	0.235728	1.710475	0.729531
C232	C	0.291181	1.636561	0.789933
H233	H	0.244381	1.698821	0.641694
H234	H	0.249573	1.795216	0.751041
H235	H	0.172129	1.692056	0.751154
H236	H	0.354799	1.654885	0.768342
H237	H	0.277269	1.551842	0.768418
O238	O	0.779306	1.386543	0.897621
C239	C	0.740046	1.208257	0.863777
C240	C	0.795957	1.281593	0.924149
H241	H	0.753478	1.123390	0.885220
H242	H	0.748653	1.219802	0.775925
H243	H	0.676570	1.227300	0.885549
H244	H	0.859454	1.262595	0.902465
H245	H	0.787282	1.270035	1.011987
H246	H	1.175767	1.752013	0.900975
O247	O	0.959234	2.008808	0.783284
C248	C	0.938654	1.889566	0.927103
C249	C	0.980716	1.989122	0.888179
H250	H	0.955993	1.873632	1.011921
H251	H	0.956514	1.820088	0.876172
H252	H	0.872264	1.901320	0.922045
H253	H	1.047113	1.977471	0.893237
H254	H	0.962792	2.058565	0.939116
H255	H	0.293768	1.789926	1.011985
O256	O	0.610972	1.380625	0.659261
C257	C	0.631002	1.356352	0.473867
C258	C	0.588826	1.317587	0.573413
H259	H	0.613100	1.305419	0.404430
H260	H	0.697393	1.351216	0.485573
H261	H	0.613695	1.441183	0.457895
H262	H	0.606070	1.232748	0.589442
H263	H	0.522444	1.322802	0.561658
H264	H	0.513441	1.497201	0.773088
O265	O	1.135779	1.855906	0.728419
C266	C	1.151766	1.971697	0.580795
C267	C	1.096001	1.898182	0.641162
H268	H	1.119622	2.005915	0.510249
H269	H	1.205344	1.925701	0.552899
H270	H	1.171604	2.037961	0.634602
H271	H	1.076103	1.831904	0.587418
H272	H	1.042465	1.944251	0.669073
H273	H	0.988020	1.817543	0.672880
H274	H	0.675194	1.405310	1.011126
O275	O	0.200216	1.928021	1.106029
C276	C	0.134167	2.092686	1.134714
C277	C	0.147515	1.979903	1.173839
H278	H	0.091571	2.134673	1.189532
H279	H	0.108416	2.090581	1.052243
H280	H	0.192688	2.136325	1.133437
H281	H	0.089026	1.936199	1.175183
H282	H	0.173303	1.982085	1.256287
H283	H	0.471557	1.118524	0.628076
H284	H	0.583748	1.013895	0.620567
O285	O	0.483675	0.671503	0.814160
C286	C	0.515634	0.531223	0.933174
C287	C	0.544707	0.630718	0.876909
H288	H	0.564959	0.498232	0.983936
H289	H	0.497382	0.470217	0.872577
H290	H	0.463009	0.551611	0.984720
H291	H	0.597352	0.610431	0.825365
H292	H	0.562908	0.691696	0.937560
O293	O	1.134054	2.295522	0.845754
C294	C	1.161484	2.459108	0.932804
C295	C	1.105978	2.398678	0.858971
H296	H	1.138797	2.542514	0.943530
H297	H	1.223087	2.461428	0.897498
H298	H	1.163635	2.418084	1.012109
H299	H	1.103760	2.439655	0.779649
H300	H	1.044404	2.396351	0.894362
H301	H	0.675397	0.914406	0.742306
H302	H	0.627370	0.750335	0.835051
H303	H	0.970575	1.918422	0.628129
H304	H	0.653820	1.684522	0.363459
H305	H	0.583181	1.284062	1.110608
H306	H	0.896028	1.696258	0.772327
