data_functionalizedCrystal
_audit_creation_method	'MofGen! by Chris Wilmer'
_symmetry_space_group_name_H-M	'P1'
_symmetry_Int_Tables_number	1
_symmetry_cell_setting	triclinic
loop_
_symmetry_equiv_pos_as_xyz
  x,y,z
_cell_length_a	6.817900
_cell_length_b	17.982783
_cell_length_c	16.305550
_cell_angle_alpha	95.663698
_cell_angle_beta	103.455250
_cell_angle_gamma	102.448572
loop_
_atom_site_label
_atom_site_type_symbol
_atom_site_fract_x
_atom_site_fract_y
_atom_site_fract_z
V1	V	-4.021167	-0.106056	-0.263384
V2	V	-3.521167	0.393944	0.236616
O3	O	-4.014054	0.004435	-0.258010
O4	O	-3.514054	0.504435	0.241990
O5	O	-3.967657	-0.209654	-0.261929
O6	O	-3.467657	0.290346	0.238071
O7	O	-3.972637	-0.104715	-0.378096
O8	O	-3.472637	0.395285	0.121904
O9	O	-4.009039	-0.101231	-0.141038
O10	O	-3.509039	0.398769	0.358962
V11	V	-4.505474	-0.092806	-0.248708
V12	V	-4.005474	0.407194	0.251292
O13	O	-4.280706	-0.135121	-0.295576
O14	O	-3.780706	0.364879	0.204424
O15	O	-4.696132	-0.063740	-0.216516
O16	O	-4.196132	0.436260	0.283484
O17	O	-4.335777	0.010793	-0.250163
O18	O	-3.835777	0.510793	0.249837
O19	O	-4.629984	-0.203296	-0.254082
O20	O	-4.129984	0.296704	0.245918
O21	O	-4.634999	-0.097630	-0.371054
O22	O	-4.134999	0.402370	0.128946
O23	O	-4.330797	-0.094147	-0.133995
O24	O	-3.830797	0.405853	0.366005
C25	C	-3.811419	-0.234900	-0.257863
C26	C	-3.311419	0.265100	0.242137
C27	C	-3.848954	-0.319596	-0.257439
C28	C	-3.348954	0.180404	0.242561
C29	C	-3.827008	-0.348316	-0.179947
C30	C	-3.327008	0.151684	0.320053
C31	C	-3.862296	-0.427897	-0.179551
C32	C	-3.362296	0.072103	0.320449
C33	C	-3.919515	-0.478756	-0.256647
C34	C	-3.419515	0.021244	0.243353
C35	C	-3.941467	-0.450030	-0.334144
C36	C	-3.441467	0.049970	0.165856
C37	C	-3.906194	-0.370451	-0.334540
C38	C	-3.406194	0.129549	0.165460
C39	C	-4.083724	-0.770965	-0.332550
C40	C	-3.583724	-0.270965	0.167450
C41	C	-4.118991	-0.850548	-0.332148
C42	C	-3.618991	-0.350548	0.167852
C43	C	-4.039827	-0.828410	-0.177561
C44	C	-3.539827	-0.328410	0.322439
C45	C	-4.004554	-0.748831	-0.177957
C46	C	-3.504554	-0.248831	0.322043
C47	C	-4.026519	-0.720113	-0.255454
C48	C	-3.526519	-0.220113	0.244546
C49	C	-3.988259	-0.633822	-0.255883
C50	C	-3.488259	-0.133822	0.244117
C51	C	-3.957760	-0.565045	-0.256218
C52	C	-3.457760	-0.065045	0.243782
C53	C	-3.817771	-0.101038	-0.406045
C54	C	-3.317771	0.398962	0.093955
C55	C	-3.859342	-0.100628	-0.499826
C56	C	-3.359342	0.399372	0.000174
C57	C	-4.010505	-0.099035	-0.840566
C58	C	-3.510505	0.400965	-0.340566
C59	C	-3.774684	-0.094308	-0.799622
C60	C	-3.274684	0.405692	-0.299622
C61	C	-3.731454	-0.095050	-0.702129
C62	C	-3.231454	0.404950	-0.202129
C63	C	-3.935510	-0.099825	-0.671521
C64	C	-3.435510	0.400175	-0.171521
C65	C	-4.098940	-0.175069	-0.722397
C66	C	-3.598940	0.324931	-0.222397
C67	C	-4.140824	-0.174644	-0.819945
C68	C	-3.640824	0.325356	-0.319945
C69	C	-4.068609	-0.029119	-0.794490
C70	C	-3.568609	0.470881	-0.294490
C71	C	-4.020708	-0.028524	-0.696646
C72	C	-3.520708	0.471476	-0.196646
C73	C	-3.893139	-0.100274	-0.575984
C74	C	-3.393139	0.399726	-0.075984
C75	C	-4.052885	-0.098591	-0.936103
C76	C	-3.552885	0.401409	-0.436103
C77	C	-4.155357	0.036035	-0.254226
C78	C	-3.655357	0.536035	0.245774
C79	C	-4.097060	0.120730	-0.254656
C80	C	-3.597060	0.620730	0.245344
C81	C	-4.149005	-0.097825	-0.106042
C82	C	-3.649005	0.402175	0.393958
C83	C	-4.086673	-0.098232	-0.012261
C84	C	-3.586673	0.401768	0.487739
H85	H	-3.957953	-0.707425	-0.115177
H86	H	-3.457953	-0.207425	0.384823
Cl87	Cl	-4.334051	-0.033429	-0.835909
Cl88	Cl	-3.834051	0.466571	-0.335909
Cl89	Cl	-3.837934	0.057406	-0.643289
Cl90	Cl	-3.337934	0.557406	-0.143289
Cl91	Cl	-4.012227	-0.864518	-0.080134
Cl92	Cl	-3.512227	-0.364518	0.419866
Cl93	Cl	-3.755062	-0.284386	-0.083020
Cl94	Cl	-3.255062	0.215614	0.416980
H95	H	-3.727188	-0.144539	-0.831301
H96	H	-3.227188	0.355461	-0.331301
H97	H	-3.844429	-0.451277	-0.116450
H98	H	-3.344429	0.048723	0.383550
H99	H	-3.979937	0.027893	-0.807669
H100	H	-3.479937	0.527893	-0.307669
H101	H	-4.314344	-0.181243	-0.847959
H102	H	-3.814344	0.318757	-0.347959
Cl103	Cl	-4.081106	-0.256360	-0.867127
Cl104	Cl	-3.581106	0.243640	-0.367127
H105	H	-3.607548	-0.040950	-0.666926
H106	H	-3.107548	0.459050	-0.166926
Cl107	Cl	-4.248173	-0.027072	-0.663676
Cl108	Cl	-3.748173	0.472928	-0.163676
Cl109	Cl	-4.190923	-0.914485	-0.429077
Cl110	Cl	-3.690923	-0.414485	0.070923
Cl111	Cl	-4.111321	-0.734872	-0.429975
Cl112	Cl	-3.611321	-0.234872	0.070025
Cl113	Cl	-3.625159	-0.173504	-0.677229
Cl114	Cl	-3.125159	0.326496	-0.177229
H115	H	-3.988072	-0.491446	-0.396917
H116	H	-3.488072	0.008554	0.103083
Cl117	Cl	-3.933797	-0.334346	-0.431962
Cl118	Cl	-3.433797	0.165654	0.068038
H119	H	-3.671148	-0.039951	-0.811805
H120	H	-3.171148	0.460049	-0.311805
H121	H	-4.251798	-0.181284	-0.703505
H122	H	-3.751798	0.318716	-0.203505
H123	H	-4.040971	-0.228012	-0.705760
H124	H	-3.540971	0.271988	-0.205760
