data_functionalizedCrystal
_audit_creation_method	'MofGen! by Chris Wilmer'
_symmetry_space_group_name_H-M	'P1'
_symmetry_Int_Tables_number	1
_symmetry_cell_setting	triclinic
loop_
_symmetry_equiv_pos_as_xyz
  x,y,z
_cell_length_a	14.971506
_cell_length_b	15.021413
_cell_length_c	14.971486
_cell_angle_alpha	90.003812
_cell_angle_beta	96.381742
_cell_angle_gamma	90.007631
loop_
_atom_site_label
_atom_site_type_symbol
_atom_site_fract_x
_atom_site_fract_y
_atom_site_fract_z
O1	O	1.186939	0.074039	-0.116637
O2	O	1.520272	0.407372	0.216696
O3	O	1.853605	0.740705	0.550030
O4	O	0.926541	0.074039	-0.130577
O5	O	1.259874	0.407373	0.202757
O6	O	1.593207	0.740706	0.536090
O7	O	1.063719	0.074033	0.006593
O8	O	1.397052	0.407366	0.339926
O9	O	1.730386	0.740699	0.673259
O10	O	1.049760	0.074045	-0.253806
O11	O	1.383094	0.407379	0.079527
O12	O	1.716427	0.740712	0.412860
O13	O	1.063697	-0.074032	0.006573
O14	O	1.397030	0.259302	0.339907
O15	O	1.730364	0.592635	0.673240
O16	O	0.926519	-0.074025	-0.130596
O17	O	1.259852	0.259308	0.202737
O18	O	1.593186	0.592642	0.536070
O19	O	1.186917	-0.074025	-0.116656
O20	O	1.520250	0.259308	0.216677
O21	O	1.853583	0.592641	0.550010
Zn22	Zn	1.056714	-0.097534	-0.123629
Zn23	Zn	1.390048	0.235800	0.209704
Zn24	Zn	1.723381	0.569133	0.543037
Zn25	Zn	1.056743	0.097547	-0.123604
Zn26	Zn	1.390076	0.430881	0.209730
Zn27	Zn	1.723410	0.764214	0.543063
O28	O	1.049738	-0.074019	-0.253826
O29	O	1.383072	0.259314	0.079507
O30	O	1.716405	0.592648	0.412841
C31	C	0.893205	0.000007	-0.129960
C32	C	1.226539	0.333340	0.203373
C33	C	1.559872	0.666674	0.536707
C34	C	0.793909	0.000007	-0.128082
C35	C	1.127243	0.333340	0.205251
C36	C	1.460576	0.666674	0.538585
N37	N	1.056701	-0.230671	-0.123647
N38	N	1.390035	0.102662	0.209687
N39	N	1.723368	0.435995	0.543020
C40	C	0.355627	0.000020	-0.201500
C41	C	0.688960	0.333353	0.131833
C42	C	1.022294	0.666687	0.465167
C43	C	0.448927	0.000024	-0.203258
C44	C	0.782260	0.333357	0.130076
C45	C	1.115594	0.666690	0.463409
C46	C	0.506147	0.000016	-0.122665
C47	C	0.839480	0.333349	0.210668
C48	C	1.172814	0.666683	0.544001
C49	C	0.470062	0.000013	-0.040310
C50	C	0.803396	0.333346	0.293023
C51	C	1.136729	0.666680	0.626357
C52	C	0.376764	0.000016	-0.038553
C53	C	0.710097	0.333349	0.294780
C54	C	1.043431	0.666682	0.628113
C55	C	0.664525	0.000006	-0.043977
C56	C	0.997859	0.333339	0.289356
C57	C	1.331192	0.666672	0.622690
C58	C	0.757831	0.000002	-0.045733
C59	C	1.091164	0.333335	0.287600
C60	C	1.424497	0.666668	0.620934
C61	C	0.736689	0.000014	-0.208681
C62	C	1.070022	0.333347	0.124652
C63	C	1.403355	0.666681	0.457986
C64	C	0.643390	0.000017	-0.206924
C65	C	0.976723	0.333350	0.126409
C66	C	1.310057	0.666683	0.459742
C67	C	0.607312	0.000012	-0.124569
C68	C	0.940645	0.333345	0.208764
C69	C	1.273979	0.666679	0.542098
C70	C	0.993260	-0.470351	-0.187044
C71	C	1.326594	-0.137018	0.146289
C72	C	1.659927	0.196315	0.479623
C73	C	1.074101	-0.529685	-0.204497
C74	C	1.407435	-0.196352	0.128837
C75	C	1.740768	0.136982	0.462170
C76	C	1.056724	-0.412278	-0.123624
C77	C	1.390057	-0.078945	0.209709
C78	C	1.723391	0.254389	0.543042
C79	C	0.975905	-0.529686	-0.106192
C80	C	1.309238	-0.196353	0.227142
C81	C	1.642572	0.136980	0.560475
C82	C	1.056739	-0.587702	-0.123605
C83	C	1.390072	-0.254369	0.209729
C84	C	1.723406	0.078964	0.543062
C85	C	1.137606	-0.470305	-0.141117
C86	C	1.470939	-0.136972	0.192216
C87	C	1.804273	0.196361	0.525549
C88	C	1.039356	-0.470301	-0.042777
C89	C	1.372690	-0.136968	0.290556
C90	C	1.706023	0.196365	0.623890
C91	C	1.120256	-0.529608	-0.060195
C92	C	1.453589	-0.196275	0.273138
C93	C	1.786923	0.137059	0.606471
C94	C	1.056714	-0.311221	-0.123638
C95	C	1.390048	0.022113	0.209696
C96	C	1.723381	0.355446	0.543029
C97	C	1.056758	-0.688757	-0.123590
C98	C	1.390091	-0.355424	0.209743
C99	C	1.723425	-0.022091	0.543076
C100	C	1.220252	0.000009	-0.117273
C101	C	1.553585	0.333342	0.216060
C102	C	1.886919	0.666675	0.549393
C103	C	1.319548	0.000014	-0.119151
C104	C	1.652881	0.333348	0.214182
C105	C	1.986215	0.666681	0.547515
C106	C	1.063084	0.000001	0.039908
C107	C	1.396417	0.333334	0.373241
C108	C	1.729751	0.666667	0.706574
C109	C	1.061213	0.000002	0.139205
C110	C	1.394546	0.333335	0.472538
C111	C	1.727880	0.666668	0.805872
N112	N	1.056763	0.230685	-0.123580
N113	N	1.390097	0.564018	0.209754
N114	N	1.723430	0.897352	0.543087
C115	C	1.050374	0.000015	-0.287141
C116	C	1.383707	0.333348	0.046192
C117	C	1.717040	0.666682	0.379526
C118	C	1.052244	0.000020	-0.386438
C119	C	1.385578	0.333353	-0.053105
C120	C	1.718911	0.666687	0.280229
C121	C	1.141802	0.000001	0.196424
C122	C	1.475135	0.333334	0.529758
C123	C	1.808468	0.666667	0.863091
C124	C	1.140038	0.000010	0.289724
C125	C	1.473372	0.333343	0.623057
C126	C	1.806705	0.666676	0.956391
C127	C	1.057686	0.000013	0.325802
C128	C	1.391019	0.333346	0.659136
C129	C	1.724353	0.666680	0.992469
C130	C	0.977091	0.000017	0.268575
C131	C	1.310425	0.333350	0.601909
C132	C	1.643758	0.666683	0.935242
C133	C	0.978855	0.000014	0.175278
C134	C	1.312189	0.333347	0.508611
C135	C	1.645522	0.666681	0.841944
C136	C	0.973420	0.000020	0.463038
C137	C	1.306754	0.333353	0.796372
C138	C	1.640087	0.666687	1.129705
C139	C	0.971656	0.000021	0.556342
C140	C	1.304989	0.333354	0.889676
C141	C	1.638323	0.666687	1.223009
C142	C	1.134603	0.000016	0.577485
C143	C	1.467937	0.333349	0.910818
C144	C	1.801270	0.666682	1.244151
C145	C	1.136367	0.000013	0.484187
C146	C	1.469701	0.333346	0.817520
C147	C	1.803034	0.666680	1.150853
C148	C	1.055772	0.000015	0.426966
C149	C	1.389106	0.333348	0.760300
C150	C	1.722439	0.666681	1.093633
H151	H	0.309044	0.000020	-0.267128
H152	H	0.642377	0.333353	0.066205
H153	H	0.975711	0.666686	0.399539
H154	H	0.907551	-0.555772	-0.091456
H155	H	1.240885	-0.222439	0.241877
H156	H	1.574218	0.110895	0.575211
H157	H	0.910038	0.000025	0.297958
H158	H	1.243372	0.333358	0.631291
H159	H	1.576705	0.666692	0.964624
H160	H	0.804417	0.000003	0.019892
H161	H	1.137751	0.333336	0.353226
H162	H	1.471084	0.666669	0.686559
H163	H	1.088805	-0.555769	-0.272859
H164	H	1.422138	-0.222435	0.060475
H165	H	1.755471	0.110898	0.393808
H166	H	1.205975	-0.444331	-0.155935
H167	H	1.539308	-0.110998	0.177398
H168	H	1.872641	0.222335	0.510732
H169	H	1.208862	-0.000007	0.167057
H170	H	1.542196	0.333326	0.500391
H171	H	1.875529	0.666659	0.833724
H172	H	1.173990	-0.555463	-0.006552
H173	H	1.507323	-0.222130	0.326781
H174	H	1.840657	0.111204	0.660115
H175	H	0.635155	0.000007	0.023086
H176	H	0.968488	0.333340	0.356419
H177	H	1.301821	0.666673	0.689752
H178	H	0.478297	0.000037	-0.270314
H179	H	0.811631	0.333370	0.063019
H180	H	1.144964	0.666703	0.396353
H181	H	0.516658	0.000012	0.025310
H182	H	0.849992	0.333345	0.358643
H183	H	1.183325	0.666679	0.691976
H184	H	1.024628	-0.444197	0.025563
H185	H	1.357961	-0.110863	0.358897
H186	H	1.691294	0.222470	0.692230
H187	H	1.205662	0.000007	0.336309
H188	H	1.538995	0.333341	0.669642
H189	H	1.872329	0.666674	1.002976
H190	H	1.203426	0.000004	0.454815
H191	H	1.536759	0.333337	0.788149
H192	H	1.870093	0.666671	1.121482
H193	H	1.200227	0.000017	0.624078
H194	H	1.533560	0.333350	0.957412
H195	H	1.866894	0.666684	1.290745
H196	H	0.904597	0.000009	0.585714
H197	H	1.237931	0.333343	0.919047
H198	H	1.571264	0.666676	1.252381
H199	H	0.907791	0.000024	0.416451
H200	H	1.241124	0.333357	0.749784
H201	H	1.574458	0.666690	1.083118
H202	H	0.596803	0.000017	-0.272550
H203	H	0.930137	0.333350	0.060783
H204	H	1.263470	0.666684	0.394117
H205	H	0.766067	0.000017	-0.275738
H206	H	1.099401	0.333350	0.057596
H207	H	1.432734	0.666684	0.390929
H208	H	0.347391	0.000013	0.028503
H209	H	0.680724	0.333346	0.361837
H210	H	1.014057	0.666679	0.695170
H211	H	0.913232	0.000015	0.128690
H212	H	1.246565	0.333348	0.462023
H213	H	1.579898	0.666682	0.795356
H214	H	0.939645	-0.444333	-0.240719
H215	H	1.272979	-0.111000	0.092614
H216	H	1.606312	0.222333	0.425947
