data_functionalizedCrystal
_audit_creation_method	'MofGen! by Chris Wilmer'
_symmetry_space_group_name_H-M	'P1'
_symmetry_Int_Tables_number	1
_symmetry_cell_setting	triclinic
loop_
_symmetry_equiv_pos_as_xyz
  x,y,z
_cell_length_a	11.792241
_cell_length_b	17.038272
_cell_length_c	10.268362
_cell_angle_alpha	89.994496
_cell_angle_beta	89.999626
_cell_angle_gamma	87.652486
loop_
_atom_site_label
_atom_site_type_symbol
_atom_site_fract_x
_atom_site_fract_y
_atom_site_fract_z
O1	O	1.516303	0.107207	-0.108175
O2	O	1.186930	0.118256	-0.108205
O3	O	1.349659	-0.001093	-0.108180
O4	O	1.353574	0.226556	-0.108200
O5	O	1.349643	-0.001098	0.108421
O6	O	1.186914	0.118251	0.108396
O7	O	1.516287	0.107202	0.108426
Cu8	Cu	1.351600	0.112726	0.128188
Cu9	Cu	1.351618	0.112732	-0.127967
O10	O	1.353558	0.226551	0.108401
C11	C	1.144571	0.117559	0.000092
C12	C	1.018375	0.115482	0.000080
C13	C	0.787328	0.111662	0.000118
C14	C	0.915899	0.113785	0.000097
C15	C	1.346090	-0.030239	0.000120
C16	C	1.335466	-0.117079	0.000119
C17	C	1.433006	-0.166762	0.000129
C18	C	1.423017	-0.248357	0.000116
C19	C	1.315487	-0.280267	0.000102
C20	C	1.217940	-0.230577	0.000087
C21	C	1.227930	-0.148984	0.000091
C22	C	1.280194	-0.526181	0.000081
C23	C	1.270211	-0.607780	0.000080
C24	C	1.475289	-0.625554	0.000107
C25	C	1.485270	-0.543958	0.000118
C26	C	1.387723	-0.494276	0.000097
C27	C	1.305274	-0.363669	0.000092
C28	C	1.397937	-0.410875	0.000097
C29	C	1.558647	0.107899	0.000127
C30	C	1.684843	0.109976	0.000130
C31	C	1.357127	0.255697	0.000098
C32	C	1.367751	0.342537	0.000091
N33	N	1.351595	0.112721	0.308354
N34	N	1.351631	0.112730	-0.308133
C35	C	1.351612	0.112730	0.574025
C36	C	1.351599	0.112728	0.426187
H37	H	1.502445	-0.288806	0.000127
C38	C	1.153356	-0.642276	-0.000018
C39	C	1.070065	-0.581303	-0.000076
C40	C	0.962413	-0.613051	-0.000185
H41	H	1.145022	-0.673729	0.075493
H42	H	1.145158	-0.673710	-0.075584
H43	H	1.078260	-0.549882	0.075483
H44	H	1.078362	-0.549844	-0.075580
H45	H	0.954215	-0.644485	-0.075751
H46	H	0.954091	-0.644504	0.075327
H47	H	0.905887	-0.571687	-0.000236
H48	H	1.148503	-0.108532	0.000083
H49	H	1.520568	-0.140788	0.000149
C50	C	1.174324	-0.472212	-0.000202
C51	C	1.174052	-0.424860	-0.111657
C52	C	1.076529	-0.375139	-0.111969
H53	H	1.173843	-0.439942	0.075242
H54	H	1.108829	-0.502881	-0.000276
H55	H	1.239530	-0.394194	-0.111570
H56	H	1.174516	-0.457108	-0.187118
H57	H	1.011034	-0.405808	-0.112044
H58	H	1.076057	-0.342875	-0.036521
H59	H	1.076327	-0.343010	-0.187596
H60	H	1.485487	-0.384890	0.000080
H61	H	1.130387	-0.256565	0.000067
H62	H	1.554706	-0.666014	0.000121
C63	C	1.602051	-0.509365	-0.000134
C64	C	1.661486	-0.534551	-0.111578
C65	C	1.769064	-0.502692	-0.111855
H66	H	1.642672	-0.526375	0.075317
H67	H	1.594086	-0.453651	-0.000199
H68	H	1.669456	-0.590252	-0.111501
H69	H	1.620899	-0.517541	-0.187047
H70	H	1.761099	-0.446979	-0.111920
H71	H	1.809675	-0.519706	-0.036399
H72	H	1.809400	-0.519771	-0.187474
H73	H	1.217723	-0.389660	0.000083
