data_functionalizedCrystal
_audit_creation_method	'MofGen! by Chris Wilmer'
_symmetry_space_group_name_H-M	'P1'
_symmetry_Int_Tables_number	1
_symmetry_cell_setting	triclinic
loop_
_symmetry_equiv_pos_as_xyz
  x,y,z
_cell_length_a	14.519731
_cell_length_b	14.519731
_cell_length_c	10.868271
_cell_angle_alpha	89.995592
_cell_angle_beta	89.999692
_cell_angle_gamma	96.311147
loop_
_atom_site_label
_atom_site_type_symbol
_atom_site_fract_x
_atom_site_fract_y
_atom_site_fract_z
O1	O	-0.120984	1.223864	-0.102310
O2	O	0.129016	1.473864	0.147690
O3	O	0.379016	1.723864	0.397690
O4	O	0.629016	1.973864	0.647690
O5	O	-0.135200	0.955391	-0.102310
O6	O	0.114800	1.205391	0.147690
O7	O	0.364800	1.455391	0.397690
O8	O	0.614800	1.705391	0.647690
O9	O	0.006145	1.096736	-0.102318
O10	O	0.256145	1.346736	0.147682
O11	O	0.506145	1.596736	0.397682
O12	O	0.756145	1.846736	0.647682
O13	O	-0.262329	1.082520	-0.102301
O14	O	-0.012329	1.332520	0.147699
O15	O	0.237671	1.582520	0.397699
O16	O	0.487671	1.832520	0.647699
O17	O	0.006150	1.096724	0.102326
O18	O	0.256150	1.346724	0.352326
O19	O	0.506150	1.596724	0.602326
O20	O	0.756150	1.846724	0.852326
O21	O	-0.135195	0.955380	0.102335
O22	O	0.114805	1.205380	0.352335
O23	O	0.364805	1.455380	0.602335
O24	O	0.614805	1.705380	0.852335
O25	O	-0.120979	1.223853	0.102335
O26	O	0.129021	1.473853	0.352335
O27	O	0.379021	1.723853	0.602335
O28	O	0.629021	1.973853	0.852335
Zn29	Zn	-0.128086	1.089614	0.134827
Zn30	Zn	0.121914	1.339614	0.384827
Zn31	Zn	0.371914	1.589614	0.634827
Zn32	Zn	0.621914	1.839614	0.884827
Zn33	Zn	-0.128093	1.089630	-0.134801
Zn34	Zn	0.121907	1.339630	0.115199
Zn35	Zn	0.371907	1.589630	0.365199
Zn36	Zn	0.621907	1.839630	0.615199
O37	O	-0.262323	1.082508	0.102344
O38	O	-0.012323	1.332508	0.352344
O39	O	0.237677	1.582508	0.602344
O40	O	0.487677	1.832508	0.852344
C41	C	-0.134531	0.921026	0.000012
C42	C	0.115469	1.171026	0.250012
C43	C	0.365469	1.421026	0.500012
C44	C	0.615469	1.671026	0.750012
C45	C	-0.132535	0.818645	0.000012
C46	C	0.117465	1.068645	0.250012
C47	C	0.367465	1.318645	0.500012
C48	C	0.617465	1.568645	0.750012
C49	C	-0.130913	0.735501	0.000007
C50	C	0.119087	0.985501	0.250007
C51	C	0.369087	1.235501	0.500007
C52	C	0.619087	1.485501	0.750007
C53	C	-0.128887	0.631192	0.000006
C54	C	0.121113	0.881192	0.250006
C55	C	0.371113	1.131192	0.500006
C56	C	0.621113	1.381192	0.750006
C57	C	-0.127278	0.548053	0.000006
C58	C	0.122722	0.798053	0.250006
C59	C	0.372722	1.048053	0.500006
C60	C	0.622722	1.298053	0.750006
C61	C	-0.125252	0.443738	0.000003
C62	C	0.124748	0.693738	0.250003
C63	C	0.374748	0.943738	0.500003
C64	C	0.624748	1.193738	0.750003
C65	C	-0.296685	1.083180	0.000024
C66	C	-0.046685	1.333180	0.250024
C67	C	0.203315	1.583180	0.500024
C68	C	0.453315	1.833180	0.750024
C69	C	-0.399066	1.085176	0.000030
C70	C	-0.149066	1.335176	0.250030
C71	C	0.100934	1.585176	0.500030
C72	C	0.350934	1.835176	0.750030
C73	C	-0.482210	1.086798	0.000025
C74	C	-0.232210	1.336798	0.250025
C75	C	0.017790	1.586798	0.500025
C76	C	0.267790	1.836798	0.750025
C77	C	-0.586519	1.088825	0.000014
C78	C	-0.336519	1.338825	0.250014
C79	C	-0.086519	1.588825	0.500014
C80	C	0.163481	1.838825	0.750014
C81	C	-0.669658	1.090433	0.000004
C82	C	-0.419658	1.340433	0.250004
C83	C	-0.169658	1.590433	0.500004
C84	C	0.080342	1.840433	0.750004
C85	C	-0.773974	1.092459	-0.000006
C86	C	-0.523974	1.342459	0.249994
C87	C	-0.273974	1.592459	0.499994
C88	C	-0.023974	1.842459	0.749994
C89	C	0.040507	1.096064	-0.000001
C90	C	0.290507	1.346064	0.249999
C91	C	0.540507	1.596064	0.499999
C92	C	0.790507	1.846064	0.749999
C93	C	0.142887	1.094068	-0.000016
C94	C	0.392887	1.344068	0.249984
C95	C	0.642887	1.594068	0.499984
C96	C	0.892887	1.844068	0.749984
C97	C	-0.121648	1.258218	0.000010
C98	C	0.128352	1.508218	0.250010
C99	C	0.378352	1.758218	0.500010
C100	C	0.628352	2.008218	0.750010
C101	C	-0.123643	1.360598	0.000003
C102	C	0.126357	1.610598	0.250003
C103	C	0.376357	1.860598	0.500003
C104	C	0.626357	2.110598	0.750003
N105	N	-0.128080	1.089611	0.318841
N106	N	0.121920	1.339611	0.568841
N107	N	0.371920	1.589611	0.818841
N108	N	0.621920	1.839611	1.068841
N109	N	-0.128091	1.089641	-0.318815
N110	N	0.121909	1.339641	-0.068815
N111	N	0.371909	1.589641	0.181185
N112	N	0.621909	1.839641	0.431185
C113	C	-0.128091	1.089625	0.569847
C114	C	0.121909	1.339625	0.819847
C115	C	0.371909	1.589625	1.069847
C116	C	0.621909	1.839625	1.319847
C117	C	-0.128088	1.089614	0.430169
C118	C	0.121912	1.339614	0.680169
C119	C	0.371912	1.589614	0.930169
C120	C	0.621912	1.839614	1.180169
