data_functionalizedCrystal
_audit_creation_method	'MofGen! by Chris Wilmer'
_symmetry_space_group_name_H-M	'P1'
_symmetry_Int_Tables_number	1
_symmetry_cell_setting	triclinic
loop_
_symmetry_equiv_pos_as_xyz
  x,y,z
_cell_length_a	10.654544
_cell_length_b	17.666332
_cell_length_c	10.654545
_cell_angle_alpha	89.999268
_cell_angle_beta	84.485139
_cell_angle_gamma	90.007664
loop_
_atom_site_label
_atom_site_type_symbol
_atom_site_fract_x
_atom_site_fract_y
_atom_site_fract_z
O1	O	1.667847	0.062963	0.176392
O2	O	2.167847	0.562963	0.676392
O3	O	1.302369	0.062960	0.193198
O4	O	1.802369	0.562960	0.693198
O5	O	1.493510	0.062961	0.002056
O6	O	1.993510	0.562961	0.502056
O7	O	1.476706	0.062962	0.367534
O8	O	1.976706	0.562962	0.867534
O9	O	1.493485	-0.062936	0.002062
O10	O	1.993485	0.437064	0.502062
O11	O	1.302343	-0.062937	0.193204
O12	O	1.802343	0.437063	0.693204
O13	O	1.667822	-0.062934	0.176398
O14	O	2.167822	0.437066	0.676398
Cu15	Cu	1.485080	-0.074431	0.184802
Cu16	Cu	1.985080	0.425569	0.684802
Cu17	Cu	1.485110	0.074457	0.184794
Cu18	Cu	1.985110	0.574457	0.684794
O19	O	1.476680	-0.062935	0.367540
O20	O	1.976680	0.437065	0.867540
C21	C	1.255558	0.000011	0.191967
C22	C	1.755558	0.500011	0.691967
C23	C	1.116115	0.000010	0.188275
C24	C	1.616115	0.500010	0.688275
C25	C	1.116062	-0.137246	0.188297
C26	C	1.616062	0.362754	0.688297
C27	C	1.050526	-0.205872	0.186576
C28	C	1.550526	0.294128	0.686576
C29	C	0.919507	-0.205869	0.183105
C30	C	1.419507	0.294131	0.683105
C31	C	0.854022	-0.137232	0.181351
C32	C	1.354022	0.362768	0.681351
C33	C	0.919558	-0.068606	0.183071
C34	C	1.419558	0.431394	0.683071
C35	C	1.050580	-0.068617	0.186546
C36	C	1.550580	0.431383	0.686546
C37	C	0.919612	0.068649	0.183041
C38	C	1.419612	0.568649	0.683041
C39	C	1.050630	0.068647	0.186521
C40	C	1.550630	0.568647	0.686521
C41	C	0.854127	0.137285	0.181286
C42	C	1.354127	0.637285	0.681286
C43	C	0.919663	0.205913	0.183016
C44	C	1.419663	0.705913	0.683016
C45	C	1.050689	0.205906	0.186488
C46	C	1.550689	0.705906	0.686488
C47	C	1.116166	0.137273	0.188241
C48	C	1.616166	0.637273	0.688241
N49	N	1.485068	-0.179150	0.184806
N50	N	1.985068	0.320850	0.684806
C51	C	1.561964	-0.781198	0.261649
C52	C	2.061964	-0.281198	0.761649
C53	C	1.561951	-0.701951	0.261661
C54	C	2.061951	-0.201951	0.761661
C55	C	1.485122	-0.662331	0.184782
C56	C	1.985122	-0.162331	0.684782
C57	C	1.408275	-0.701966	0.107908
C58	C	1.908275	-0.201966	0.607908
C59	C	1.408281	-0.781212	0.107907
C60	C	1.908281	-0.281212	0.607907
N61	N	1.480786	-0.537907	0.074727
N62	N	1.980786	-0.037907	0.574727
N63	N	1.480788	-0.462627	0.074731
N64	N	1.980788	0.037373	0.574731
C65	C	1.485099	-0.423567	0.184781
C66	C	1.985099	0.076433	0.684781
N67	N	1.489433	-0.462633	0.294828
N68	N	1.989433	0.037367	0.794828
N69	N	1.489437	-0.537920	0.294823
N70	N	1.989437	-0.037920	0.794823
C71	C	1.485107	-0.576402	0.184774
C72	C	1.985107	-0.076402	0.684774
C73	C	1.561921	-0.298013	0.261670
C74	C	2.061921	0.201987	0.761670
C75	C	1.561900	-0.218764	0.261685
C76	C	2.061900	0.281236	0.761685
C77	C	1.408231	-0.218781	0.107920
C78	C	1.908231	0.281219	0.607920
C79	C	1.408245	-0.298028	0.107917
C80	C	1.908245	0.201972	0.607917
C81	C	1.485097	-0.337640	0.184790
C82	C	1.985097	0.162360	0.684790
C83	C	1.714633	0.000017	0.177629
C84	C	2.214633	0.500017	0.677629
C85	C	1.854076	0.000023	0.181321
C86	C	2.354076	0.500023	0.681321
C87	C	1.492263	0.000014	-0.044739
C88	C	1.992263	0.500014	0.455261
C89	C	1.488571	0.000019	-0.184182
C90	C	1.988571	0.500019	0.315818
N91	N	1.485132	0.179176	0.184780
N92	N	1.985132	0.679176	0.684780
C93	C	1.488614	0.137275	-0.184198
C94	C	1.988614	0.637275	0.315802
C95	C	1.486905	0.205903	-0.249715
C96	C	1.986905	0.705903	0.250285
C97	C	1.483436	0.205904	-0.380734
C98	C	1.983436	0.705904	0.119266
C99	C	1.481672	0.137269	-0.446238
C100	C	1.981672	0.637269	0.053762
C101	C	1.483380	0.068641	-0.380720
C102	C	1.983380	0.568641	0.119280
C103	C	1.486853	0.068648	-0.249699
C104	C	1.986853	0.568648	0.250301
C105	C	1.483328	-0.068613	-0.380704
C106	C	1.983328	0.431387	0.119296
C107	C	1.486807	-0.068616	-0.249686
C108	C	1.986807	0.431384	0.250314
C109	C	1.481564	-0.137248	-0.446208
C110	C	1.981564	0.362752	0.053792
C111	C	1.483282	-0.205877	-0.380691
C112	C	1.983282	0.294123	0.119309
C113	C	1.486752	-0.205875	-0.249665
C114	C	1.986752	0.294125	0.250335
C115	C	1.488515	-0.137244	-0.184169
C116	C	1.988515	0.362756	0.315831
C117	C	1.477927	0.000014	0.414335
C118	C	1.977927	0.500014	0.914335
C119	C	1.481620	0.000014	0.553778
C120	C	1.981620	0.500014	1.053778
H121	H	0.866147	-0.261750	0.181714
H122	H	1.366147	0.238250	0.681714
F123	F	1.488563	-0.278920	-0.179945
F124	F	1.988563	0.221080	0.320055
F125	F	1.492327	0.137280	-0.044758
F126	F	1.992327	0.637280	0.455242
F127	F	1.255607	0.137260	0.191943
F128	F	1.755607	0.637260	0.691943
H129	H	1.491347	-0.137236	-0.077487
H130	H	1.991347	0.362764	0.422513
H131	H	1.222742	-0.137256	0.191140
H132	H	1.722742	0.362744	0.691140
H133	H	0.747342	-0.137236	0.178509
H134	H	1.247342	0.362764	0.678509
H135	H	1.345718	-0.669703	0.045315
H136	H	1.845718	-0.169703	0.545315
H137	H	1.345713	-0.813475	0.045310
H138	H	1.845713	-0.313475	0.545310
H139	H	1.478832	0.137276	-0.552918
H140	H	1.978832	0.637276	-0.052918
F141	F	0.849966	0.278952	0.181120
F142	F	1.349966	0.778952	0.681120
H143	H	1.488340	0.261784	-0.196367
H144	H	1.988340	0.761784	0.303633
H145	H	1.482033	0.261787	-0.434077
H146	H	1.982033	0.761787	0.065923
H147	H	1.481836	-0.261754	-0.434034
H148	H	1.981836	0.238246	0.065966
H149	H	1.624493	-0.330266	0.324270
H150	H	2.124493	0.169734	0.824270
F151	F	1.643655	-0.176592	0.343527
F152	F	2.143655	0.323408	0.843527
F153	F	1.643749	-0.823351	0.343472
F154	F	2.143749	-0.323351	0.843472
H155	H	1.345687	-0.330292	0.045316
H156	H	1.845687	0.169708	0.545316
H157	H	0.747446	0.137283	0.178451
H158	H	1.247446	0.637283	0.678451
F159	F	1.120429	0.278949	0.188310
F160	F	1.620429	0.778949	0.688310
F161	F	1.643744	-0.659770	0.343464
F162	F	2.143744	-0.159770	0.843464
F163	F	1.326454	-0.176620	0.026106
F164	F	1.826454	0.323380	0.526106
F165	F	1.477860	-0.137245	-0.585649
F166	F	1.977860	0.362755	-0.085649
H167	H	1.103858	-0.261754	0.188001
H168	H	1.603858	0.238246	0.688001
