data_functionalizedCrystal
_audit_creation_method	'MofGen! by Chris Wilmer'
_symmetry_space_group_name_H-M	'P1'
_symmetry_Int_Tables_number	1
_symmetry_cell_setting	triclinic
loop_
_symmetry_equiv_pos_as_xyz
  x,y,z
_cell_length_a	19.288859
_cell_length_b	19.288864
_cell_length_c	17.766277
_cell_angle_alpha	90.023209
_cell_angle_beta	89.993887
_cell_angle_gamma	96.865014
loop_
_atom_site_label
_atom_site_type_symbol
_atom_site_fract_x
_atom_site_fract_y
_atom_site_fract_z
O1	O	0.086649	-0.921351	-0.062835
O2	O	0.586649	-0.421351	0.437165
O3	O	0.098338	-0.719090	-0.062784
O4	O	0.598338	-0.219090	0.437216
O5	O	-0.008637	-0.826067	-0.062806
O6	O	0.491363	-0.326067	0.437194
O7	O	0.193624	-0.814374	-0.062812
O8	O	0.693624	-0.314374	0.437188
O9	O	-0.008643	-0.826049	0.062382
O10	O	0.491357	-0.326049	0.562382
O11	O	0.098332	-0.719072	0.062405
O12	O	0.598332	-0.219072	0.562405
O13	O	0.086644	-0.921332	0.062353
O14	O	0.586644	-0.421332	0.562353
Cu15	Cu	0.092487	-0.820200	0.073810
Cu16	Cu	0.592487	-0.320200	0.573810
Cu17	Cu	0.092494	-0.820222	-0.074240
Cu18	Cu	0.592494	-0.320222	0.425760
O19	O	0.193619	-0.814355	0.062376
O20	O	0.693619	-0.314355	0.562376
C21	C	0.097959	-0.693204	-0.000183
C22	C	0.597959	-0.193204	0.499817
C23	C	0.096830	-0.616101	-0.000163
C24	C	0.596830	-0.116101	0.499837
C25	C	-0.034516	-0.825682	-0.000213
C26	C	0.465484	-0.325682	0.499787
C27	C	-0.111620	-0.824555	-0.000214
C28	C	0.388380	-0.324555	0.499786
C29	C	0.087022	-0.947218	-0.000249
C30	C	0.587022	-0.447218	0.499751
C31	C	0.088151	-1.024322	-0.000274
C32	C	0.588151	-0.524322	0.499726
C33	C	-0.675661	-0.879698	-0.000248
C34	C	-0.175661	-0.379698	0.499752
C35	C	-0.603214	-0.880764	-0.000241
C36	C	-0.103214	-0.380764	0.499759
C37	C	-0.558508	-0.817994	-0.000225
C38	C	-0.058508	-0.317994	0.499775
C39	C	-0.586253	-0.754155	-0.000197
C40	C	-0.086253	-0.254155	0.499803
C41	C	-0.658698	-0.753092	-0.000196
C42	C	-0.158698	-0.253092	0.499804
C43	C	-0.437232	-0.771188	-0.044071
C44	C	0.062768	-0.271188	0.455929
C45	C	-0.364788	-0.772254	-0.044077
C46	C	0.135212	-0.272254	0.455923
C47	C	-0.335062	-0.821272	-0.000225
C48	C	0.164938	-0.321272	0.499775
C49	C	-0.377789	-0.869235	0.043622
C50	C	0.122211	-0.369235	0.543622
C51	C	-0.450235	-0.868172	0.043623
C52	C	0.049765	-0.368172	0.543623
C53	C	-0.479952	-0.819141	-0.000226
C54	C	0.020048	-0.319141	0.499774
C55	C	-0.228770	-0.886262	-0.000242
C56	C	0.271230	-0.386262	0.499758
C57	C	-0.156322	-0.887325	-0.000231
C58	C	0.343678	-0.387325	0.499769
C59	C	-0.139362	-0.760715	-0.000194
C60	C	0.360638	-0.260715	0.499806
C61	C	-0.211809	-0.759654	-0.000197
C62	C	0.288191	-0.259654	0.499803
C63	C	-0.256509	-0.822430	-0.000225
C64	C	0.243491	-0.322430	0.499775
C65	C	0.219498	-0.814740	-0.000219
C66	C	0.719498	-0.314740	0.499781
C67	C	0.296602	-0.815868	-0.000223
C68	C	0.796602	-0.315868	0.499777
N69	N	0.092483	-0.820190	0.177940
N70	N	0.592483	-0.320190	0.677940
C71	C	0.159598	-0.571403	-0.000177
C72	C	0.659598	-0.071403	0.499823
C73	C	0.158537	-0.498956	-0.000185
C74	C	0.658537	0.001044	0.499815
C75	C	0.094705	-0.471210	-0.000195
C76	C	0.594705	0.028790	0.499805
C77	C	0.031929	-0.515918	-0.000177
C78	C	0.531929	-0.015918	0.499823
C79	C	0.032991	-0.588363	-0.000161
C80	C	0.532991	-0.088363	0.499839
C81	C	0.044528	-0.362956	-0.044078
C82	C	0.544528	0.137044	0.455922
C83	C	0.043468	-0.290511	-0.044098
C84	C	0.543468	0.209489	0.455902
C85	C	0.091425	-0.247765	-0.000240
C86	C	0.591425	0.252235	0.499760
C87	C	0.140455	-0.277470	0.043629
C88	C	0.640455	0.222530	0.543629
C89	C	0.141517	-0.349915	0.043644
C90	C	0.641517	0.150085	0.543644
C91	C	0.093546	-0.392656	-0.000211
C92	C	0.593546	0.107344	0.499789
C93	C	0.153048	-0.124511	-0.000262
C94	C	0.653048	0.375489	0.499738
C95	C	0.151984	-0.052063	-0.000265
C96	C	0.651984	0.447937	0.499735
C97	C	0.025374	-0.069026	-0.000265
C98	C	0.525374	0.430974	0.499735
C99	C	0.026439	-0.141472	-0.000254
C100	C	0.526439	0.358528	0.499746
C101	C	0.090278	-0.169210	-0.000256
C102	C	0.590278	0.330790	0.499744
N103	N	0.092493	-0.820238	-0.178370
N104	N	0.592493	-0.320238	0.321630
C105	C	0.045137	-0.867574	0.217317
C106	C	0.545137	-0.367574	0.717317
C107	C	0.045134	-0.867578	0.296119
C108	C	0.545134	-0.367578	0.796119
C109	C	0.092488	-0.820204	0.335541
C110	C	0.592488	-0.320204	0.835541
C111	C	0.139837	-0.772811	0.296154
C112	C	0.639837	-0.272811	0.796154
C113	C	0.139834	-0.772804	0.217354
C114	C	0.639834	-0.272804	0.717354
C115	C	0.155776	-0.810904	0.460378
C116	C	0.655776	-0.310904	0.960378
C117	C	0.155780	-0.810916	0.539177
C118	C	0.655780	-0.310916	1.039177
C119	C	0.092496	-0.820223	0.578587
C120	C	0.592496	-0.320223	1.078587
C121	C	0.029207	-0.829532	0.539188
C122	C	0.529207	-0.329532	1.039188
C123	C	0.029204	-0.829525	0.460388
C124	C	0.529204	-0.329525	0.960388
C125	C	0.092496	-0.820207	0.420986
C126	C	0.592496	-0.320207	0.920986
C127	C	0.045144	-0.867615	0.703410
C128	C	0.545144	-0.367615	1.203410
C129	C	0.045139	-0.867614	0.782213
C130	C	0.545139	-0.367614	1.282213
C131	C	0.139849	-0.772849	0.782247
C132	C	0.639849	-0.272849	1.282247
C133	C	0.139847	-0.772847	0.703445
C134	C	0.639847	-0.272847	1.203445
C135	C	0.092495	-0.820233	0.664031
C136	C	0.592495	-0.320233	1.164031
H137	H	-0.712052	-0.930816	-0.000266
H138	H	-0.212052	-0.430816	0.499734
H139	H	0.178392	-0.734237	0.328256
H140	H	0.678392	-0.234237	0.828256
H141	H	0.003548	-0.266331	-0.079822
H142	H	0.503548	0.233669	0.420178
N143	N	0.226241	-0.450737	-0.000212
N144	N	0.726241	0.049263	0.499788
H145	H	0.215879	-0.400634	-0.000224
H146	H	0.715879	0.099366	0.499776
H147	H	0.254076	-0.459665	0.046195
H148	H	0.754076	0.040335	0.546195
N149	N	0.224037	-0.800872	0.417878
N150	N	0.724037	-0.300872	0.917878
H151	H	0.214433	-0.802278	0.361981
H152	H	0.714433	-0.302278	0.861981
H153	H	0.250483	-0.754224	0.431673
H154	H	0.750483	-0.254224	0.931673
N155	N	-0.091147	-0.693015	-0.000177
N156	N	0.408853	-0.193015	0.499823
H157	H	-0.100041	-0.665159	-0.046575
H158	H	0.399959	-0.165159	0.453425
H159	H	-0.100073	-0.665205	0.046270
H160	H	0.399927	-0.165205	0.546270
N161	N	-0.007200	-0.409056	-0.091388
N162	N	0.492800	0.090944	0.408612
H163	H	0.000910	-0.459457	-0.084720
H164	H	0.500910	0.040543	0.415280
H165	H	-0.056235	-0.402927	-0.074994
H166	H	0.443765	0.097073	0.425006
N167	N	-0.469291	-0.718317	-0.091373
N168	N	0.030709	-0.218317	0.408627
H169	H	-0.431233	-0.688101	-0.119155
H170	H	0.068767	-0.188101	0.380845
H171	H	-0.502769	-0.743445	-0.128840
H172	H	-0.002769	-0.243445	0.371160
H173	H	0.006579	-0.906157	0.185228
H174	H	0.506579	-0.406157	0.685228
H175	H	-0.580626	-0.932744	-0.000261
H176	H	-0.080626	-0.432744	0.499739
N177	N	-0.318707	-0.720530	-0.091372
N178	N	0.181293	-0.220530	0.408628
H179	H	-0.348530	-0.689310	-0.119144
H180	H	0.151470	-0.189310	0.380856
H181	H	-0.284660	-0.691187	-0.057720
H182	H	0.215340	-0.191187	0.442280
N183	N	-0.036919	-0.485994	-0.000195
N184	N	0.463081	0.014006	0.499805
H185	H	-0.076523	-0.525306	-0.000184
H186	H	0.423477	-0.025306	0.499816
H187	H	-0.040119	-0.456277	0.046206
H188	H	0.459881	0.043723	0.546206
H189	H	0.179506	-0.242666	0.079343
H190	H	0.679506	0.257334	0.579343
H191	H	0.006581	-0.906198	0.814274
H192	H	0.506581	-0.406198	1.314274
N193	N	0.221901	-0.154429	-0.000254
N194	N	0.721901	0.345571	0.499746
H195	H	0.225160	-0.184087	0.046158
H196	H	0.725160	0.315913	0.546158
H197	H	0.225126	-0.184097	-0.046688
H198	H	0.725126	0.315903	0.453312
N199	N	-0.005929	-0.918687	0.338608
N200	N	0.494071	-0.418687	0.838608
H201	H	-0.055211	-0.910853	0.324911
H202	H	0.444789	-0.410853	0.824911
H203	H	0.002010	-0.967932	0.324852
H204	H	0.502010	-0.467932	0.824852
N205	N	0.219702	-0.003872	-0.000268
N206	N	0.719702	0.496128	0.499732
H207	H	0.222102	0.026547	-0.046676
H208	H	0.722102	0.526547	0.453324
H209	H	0.222051	0.026537	0.046169
H210	H	0.722051	0.526537	0.546169
H211	H	0.207314	-0.803341	0.571249
H212	H	0.707314	-0.303341	1.071249
N213	N	-0.538038	-0.686453	-0.000164
N214	N	-0.038038	-0.186453	0.499836
H215	H	-0.487935	-0.696812	-0.000167
H216	H	0.012065	-0.196812	0.499833
H217	H	-0.546990	-0.658620	-0.046559
H218	H	-0.046990	-0.158620	0.453441
N219	N	0.190899	-0.721691	0.174878
N220	N	0.690899	-0.221691	0.674878
H221	H	0.220897	-0.691677	0.211806
H222	H	0.720897	-0.191677	0.711806
H223	H	0.221540	-0.748179	0.142164
H224	H	0.721540	-0.248179	0.642164
N225	N	-0.034711	-0.636578	-0.000143
N226	N	0.465289	-0.136578	0.499857
H227	H	-0.075312	-0.608011	-0.000146
H228	H	0.424688	-0.108011	0.499854
H229	H	-0.037028	-0.667031	-0.046546
H230	H	0.462972	-0.167031	0.453454
H231	H	-0.485021	-0.907224	0.079327
H232	H	0.014979	-0.407224	0.579327
N233	N	-0.039051	-0.839562	0.417892
N234	N	0.460949	-0.339562	0.917892
H235	H	-0.079144	-0.845460	0.454810
H236	H	0.420856	-0.345460	0.954810
H237	H	-0.042999	-0.797377	0.385222
H238	H	0.457001	-0.297377	0.885222
N239	N	-0.043476	-0.039111	-0.000267
N240	N	0.456524	0.460889	0.499733
H241	H	-0.034626	0.013566	-0.000276
H242	H	0.465374	0.513566	0.499724
H243	H	-0.070933	-0.055501	-0.046672
H244	H	0.429067	0.444499	0.453328
N245	N	0.194391	-0.381957	0.090959
N246	N	0.694391	0.118043	0.590959
H247	H	0.224613	-0.343889	0.118742
H248	H	0.724613	0.156111	0.618742
H249	H	0.169266	-0.415417	0.128426
H250	H	0.669266	0.084583	0.628426
H251	H	-0.022324	-0.837110	0.571274
H252	H	0.477676	-0.337110	1.071274
N253	N	-0.126402	-0.956175	-0.000248
N254	N	0.373598	-0.456175	0.499752
H255	H	-0.165715	-0.995778	-0.000266
H256	H	0.334285	-0.495778	0.499734
H257	H	-0.096706	-0.959376	-0.046656
H258	H	0.403294	-0.459376	0.453344
H259	H	0.178403	-0.734274	0.814344
H260	H	0.678403	-0.234274	1.314344
N261	N	-0.345740	-0.922113	0.090919
N262	N	0.154260	-0.422113	0.590919
H263	H	-0.293364	-0.915510	0.084269
H264	H	0.206636	-0.415510	0.584269
H265	H	-0.357541	-0.915430	0.145628
H266	H	0.142459	-0.415430	0.645628
N267	N	-0.688620	-0.684243	-0.000164
N268	N	-0.188620	-0.184243	0.499836
H269	H	-0.649308	-0.644638	-0.000148
H270	H	-0.149308	-0.144638	0.499852
H271	H	-0.718304	-0.681045	-0.046571
H272	H	-0.218304	-0.181045	0.453429
H273	H	0.211581	-0.593982	-0.000180
H274	H	0.711581	-0.093982	0.499820
H275	H	-0.234392	-0.707676	-0.000183
H276	H	0.265608	-0.207676	0.499817
H277	H	-0.024674	-0.177866	-0.000247
H278	H	0.475326	0.322134	0.499753
N279	N	-0.276989	-0.953966	-0.000269
N280	N	0.223011	-0.453966	0.499731
H281	H	-0.248421	-0.994566	-0.000277
H282	H	0.251579	-0.494566	0.499723
H283	H	-0.307423	-0.956277	0.046137
H284	H	0.192577	-0.456277	0.546137
N285	N	-0.005927	-0.918719	0.660892
N286	N	0.494073	-0.418719	1.160892
H287	H	-0.035926	-0.948735	0.697798
H288	H	0.464074	-0.448735	1.197798
H289	H	-0.036566	-0.892225	0.628213
H290	H	0.463434	-0.392225	1.128213
H291	H	0.178403	-0.734265	0.671383
H292	H	0.678403	-0.234265	1.171383
