data_functionalizedCrystal
_audit_creation_method	'MofGen! by Chris Wilmer'
_symmetry_space_group_name_H-M	'P1'
_symmetry_Int_Tables_number	1
_symmetry_cell_setting	triclinic
loop_
_symmetry_equiv_pos_as_xyz
  x,y,z
_cell_length_a	14.044191
_cell_length_b	19.188930
_cell_length_c	13.101039
_cell_angle_alpha	93.345801
_cell_angle_beta	86.337551
_cell_angle_gamma	88.168279
loop_
_atom_site_label
_atom_site_type_symbol
_atom_site_fract_x
_atom_site_fract_y
_atom_site_fract_z
O1	O	1.262238	0.164780	-0.085186
O2	O	1.762238	0.664780	0.414814
O3	O	0.986294	0.158702	-0.085198
O4	O	1.486294	0.658702	0.414802
O5	O	1.132228	0.060600	-0.085172
O6	O	1.632228	0.560600	0.414828
O7	O	1.116304	0.262881	-0.085213
O8	O	1.616304	0.762881	0.414787
O9	O	1.121757	0.067651	0.085256
O10	O	1.621757	0.567651	0.585256
O11	O	0.975824	0.165753	0.085229
O12	O	1.475824	0.665753	0.585229
O13	O	1.251767	0.171831	0.085242
O14	O	1.751767	0.671831	0.585242
Zn15	Zn	1.112133	0.169912	0.112295
Zn16	Zn	1.612133	0.669912	0.612295
Zn17	Zn	1.125929	0.160621	-0.112251
Zn18	Zn	1.625929	0.660621	0.387749
O19	O	1.105834	0.269933	0.085215
O20	O	1.605834	0.769933	0.585215
C21	C	0.945756	0.159568	0.000014
C22	C	1.445756	0.659568	0.500014
C23	C	0.840563	0.151637	0.000010
C24	C	1.340563	0.651637	0.500010
C25	C	0.590103	0.193385	0.000012
C26	C	1.090103	0.693385	0.500012
C27	C	0.647965	0.137150	0.000022
C28	C	1.147965	0.637150	0.500022
C29	C	0.755136	0.145213	0.000016
C30	C	1.255136	0.645213	0.500016
C31	C	0.482922	0.185324	0.000019
C32	C	0.982922	0.685324	0.500019
C33	C	1.126477	0.038081	0.000045
C34	C	1.626477	0.538081	0.500045
C35	C	1.124928	-0.039523	0.000054
C36	C	1.624928	0.460477	0.500054
C37	C	1.292306	0.170964	0.000027
C38	C	1.792306	0.670964	0.500027
C39	C	1.397499	0.178895	0.000024
C40	C	1.897499	0.678895	0.500024
C41	C	1.210558	-0.078919	0.000062
C42	C	1.710558	0.421081	0.500062
C43	C	1.209104	-0.151837	0.000046
C44	C	1.709104	0.348163	0.500046
C45	C	1.122015	-0.185356	0.000041
C46	C	1.622015	0.314644	0.500041
C47	C	1.036374	-0.145951	0.000027
C48	C	1.536374	0.354049	0.500027
C49	C	1.037831	-0.073034	0.000033
C50	C	1.537831	0.426966	0.500033
N51	N	1.051882	-0.295258	0.058038
N52	N	1.551882	0.204742	0.558038
N53	N	1.050504	-0.364526	0.058034
N54	N	1.550504	0.135474	0.558034
C55	C	1.117621	-0.405049	0.000020
C56	C	1.617621	0.094951	0.500020
N57	N	1.186182	-0.373687	-0.057977
N58	N	1.686182	0.126313	0.442023
N59	N	1.187562	-0.304413	-0.057969
N60	N	1.687562	0.195587	0.442031
C61	C	1.120426	-0.264421	0.000034
C62	C	1.620426	0.235579	0.500034
C63	C	1.201681	-0.523512	0.000010
C64	C	1.701681	-0.023512	0.500010
C65	C	1.200224	-0.596432	-0.000013
C66	C	1.700224	-0.096432	0.499987
C67	C	1.027491	-0.590543	-0.000022
C68	C	1.527491	-0.090543	0.499978
C69	C	1.028951	-0.517625	-0.000009
C70	C	1.528951	-0.017625	0.499991
C71	C	1.116048	-0.484114	0.000011
C72	C	1.616048	0.015886	0.500011
C73	C	1.111585	0.292451	-0.000004
C74	C	1.611585	0.792451	0.499996
C75	C	1.113134	0.370055	-0.000019
C76	C	1.613134	0.870055	0.499981
N77	N	1.102725	0.176252	0.265541
N78	N	1.602725	0.676252	0.765541
N79	N	1.135344	0.154275	-0.265498
N80	N	1.635344	0.654275	0.234502
C81	C	1.089925	0.184885	0.474582
C82	C	1.589925	0.684885	0.974582
C83	C	1.148141	0.145645	0.525468
C84	C	1.648141	0.645645	1.025468
C85	C	1.141019	0.150448	0.641785
C86	C	1.641019	0.650448	1.141785
C87	C	1.097046	0.180082	0.358254
C88	C	1.597046	0.680082	0.858254
H89	H	1.281479	-0.051639	0.000076
H90	H	1.781479	0.448361	0.500076
N91	N	0.631102	0.265173	-0.000019
N92	N	1.131102	0.765173	0.499981
H93	H	0.612782	0.288774	-0.063206
H94	H	1.112782	0.788774	0.436794
H95	H	0.605022	0.293961	0.063191
H96	H	1.105022	0.793961	0.563191
H97	H	0.617018	0.082947	-0.000039
H98	H	1.117018	0.582947	0.499961
N99	N	1.301465	-0.194338	0.000077
N100	N	1.801465	0.305662	0.500077
H101	H	1.287324	-0.245615	0.000074
H102	H	1.787324	0.254385	0.500074
H103	H	1.343329	-0.185489	-0.063092
H104	H	1.843329	0.314511	0.436908
N105	N	0.942442	-0.182097	0.000016
N106	N	1.442442	0.317903	0.500016
H107	H	0.954511	-0.234268	0.000017
H108	H	1.454511	0.265732	0.500017
H109	H	0.901099	-0.165459	0.063193
H110	H	1.401099	0.334541	0.563193
H111	H	1.034739	0.222085	0.518369
H112	H	1.534739	0.722085	1.018369
H113	H	1.203332	0.108443	0.481676
H114	H	1.703332	0.608443	0.981676
N115	N	0.945470	-0.030537	0.000023
N116	N	1.445470	0.469463	0.500023
H117	H	0.890076	-0.062832	0.000014
H118	H	1.390076	0.437168	0.500014
H119	H	0.938430	0.002449	0.063207
H120	H	1.438430	0.502449	0.563207
N121	N	1.295615	-0.487361	0.000028
N122	N	1.795615	0.012639	0.500028
H123	H	1.349643	-0.523386	0.000022
H124	H	1.849643	-0.023386	0.500022
H125	H	1.303862	-0.459838	-0.063146
H126	H	1.803862	0.040162	0.436854
H127	H	0.956582	-0.617833	-0.000031
H128	H	1.456582	-0.117833	0.499969
N129	N	1.292586	-0.638928	-0.000008
N130	N	1.792586	-0.138928	0.499992
H131	H	1.347978	-0.606631	0.000009
H132	H	1.847978	-0.106631	0.500009
H133	H	1.291854	-0.666705	0.063168
H134	H	1.791854	-0.166705	0.563168
H135	H	0.959222	-0.485548	-0.000011
H136	H	1.459222	0.014452	0.499989
