data_functionalizedCrystal
_audit_creation_method	'MofGen! by Chris Wilmer'
_symmetry_space_group_name_H-M	'P1'
_symmetry_Int_Tables_number	1
_symmetry_cell_setting	triclinic
loop_
_symmetry_equiv_pos_as_xyz
  x,y,z
_cell_length_a	18.426585
_cell_length_b	21.606444
_cell_length_c	21.606444
_cell_angle_alpha	60.001331
_cell_angle_beta	90.001433
_cell_angle_gamma	60.000201
loop_
_atom_site_label
_atom_site_type_symbol
_atom_site_fract_x
_atom_site_fract_y
_atom_site_fract_z
Zr1	Zr	0.699097	0.677476	-0.081216
O2	O	0.583214	0.806595	-0.180036
O3	O	0.734623	0.548358	-0.050925
O4	O	0.734614	0.677482	-0.180044
O5	O	0.583229	0.677466	0.050936
O6	O	0.854040	0.677486	-0.180046
O7	O	0.583223	0.677471	-0.050918
O8	O	0.854056	0.446507	0.050923
O9	O	0.583212	0.908446	-0.180033
O10	O	0.838899	0.601469	-0.038005
O11	O	0.749778	0.601463	0.038010
O12	O	0.749767	0.753490	-0.114011
O13	O	0.660645	0.753483	-0.037996
Zr14	Zr	0.889578	0.677476	0.081225
Zr15	Zr	0.889568	0.677483	-0.081220
Zr16	Zr	0.699107	0.677469	0.081230
Zr17	Zr	0.699095	0.839917	-0.081211
Zr18	Zr	0.889580	0.515036	0.081220
O19	O	0.854052	0.806595	0.050935
O20	O	0.854038	0.806604	-0.180042
O21	O	0.583227	0.806585	0.050941
O22	O	1.005461	0.548358	0.180046
O23	O	1.005448	0.548368	-0.050931
O24	O	0.734637	0.548348	0.180051
O25	O	1.005446	0.677486	-0.050927
O26	O	0.854061	0.677471	0.180053
O27	O	0.734635	0.677466	0.180056
O28	O	1.005452	0.677482	0.050927
O29	O	0.734611	0.908451	-0.180036
O30	O	0.854064	0.446502	0.180046
O31	O	1.005463	0.446507	0.180042
O32	O	1.005455	0.446513	0.050920
O33	O	0.583220	0.908440	-0.050910
O34	O	0.734619	0.908445	-0.050914
O35	O	0.838908	0.601463	0.114020
O36	O	0.928030	0.601469	0.038006
O37	O	0.838897	0.753490	-0.038000
O38	O	0.749776	0.753483	0.038014
C39	C	0.794340	0.474288	-0.000002
C40	C	0.794341	0.405328	-0.000004
C41	C	0.840860	0.372934	-0.039684
C42	C	0.840863	0.308134	-0.039679
C43	C	0.794342	0.275734	0.000002
C44	C	0.747822	0.308131	0.039687
C45	C	0.747824	0.372925	0.039686
C46	C	0.747811	0.046821	0.039693
C47	C	0.747810	-0.017976	0.039690
C48	C	0.840850	-0.017970	-0.039671
C49	C	0.840852	0.046825	-0.039673
C50	C	0.794336	0.079213	0.000015
C51	C	0.794335	0.149475	0.000010
C52	C	0.794337	0.205477	0.000003
C53	C	0.556088	0.677468	0.000010
C54	C	0.475228	0.677465	0.000012
C55	C	0.179114	0.677491	-0.000002
C56	C	0.261500	0.677487	0.000000
C57	C	0.327168	0.677478	0.000004
C58	C	0.409560	0.677474	0.000007
C59	C	1.032587	0.677485	-0.000000
C60	C	1.113447	0.677488	-0.000002
C61	C	0.794325	0.677485	-0.203190
C62	C	0.794321	0.677488	-0.272152
C63	C	0.794335	0.880664	0.000011
C64	C	0.794334	0.949624	0.000014
C65	C	0.747795	0.756840	-0.344225
C66	C	0.747802	0.756838	-0.409020
C67	C	0.794332	0.677482	-0.401740
C68	C	0.840865	0.598124	-0.329660
C69	C	0.840862	0.598127	-0.264867
C70	C	0.840879	0.598108	-0.590963
C71	C	0.840876	0.598111	-0.655764
C72	C	0.747819	0.756819	-0.735116
C73	C	0.747816	0.756823	-0.670323
C74	C	0.794352	0.677465	-0.598248
C75	C	0.794345	0.677468	-0.527991
C76	C	0.794335	0.677478	-0.471996
C77	C	0.794350	0.677468	0.203199
C78	C	0.794354	0.677465	0.272162
C79	C	1.032590	0.474297	-0.000007
C80	C	1.113450	0.405340	-0.000011
C81	C	0.794352	0.474279	0.203193
C82	C	0.794357	0.405316	0.272153
C83	C	1.032602	0.474288	0.203188
C84	C	1.113466	0.405328	0.272146
C85	C	0.556073	0.880664	-0.203178
C86	C	0.475209	0.949625	-0.272136
C87	C	0.556086	0.880656	0.000017
C88	C	0.475225	0.949613	0.000021
C89	C	0.794323	0.880673	-0.203183
C90	C	0.794318	0.949636	-0.272143
C91	C	1.104898	0.372957	-0.039696
C92	C	1.180868	0.308173	-0.039715
C93	C	1.265389	0.275769	-0.000044
C94	C	1.273940	0.308158	0.039643
C95	C	1.197971	0.372945	0.039657
C96	C	0.840885	0.372931	0.344221
C97	C	0.840886	0.308141	0.409023
C98	C	0.794364	0.275735	0.401754
C99	C	0.747831	0.308127	0.329679
C100	C	0.747825	0.372919	0.264879
C101	C	1.197970	0.372947	0.264851
C102	C	1.273958	0.308160	0.329638
C103	C	1.265441	0.275752	0.401720
C104	C	1.180929	0.308139	0.409014
C105	C	1.104942	0.372929	0.344227
C106	C	0.390705	0.982014	-0.264841
C107	C	0.314717	1.046820	-0.329629
C108	C	0.323234	1.079232	-0.401711
C109	C	0.407747	1.046840	-0.409005
C110	C	0.483733	0.982040	-0.344218
C111	C	0.483777	0.982003	0.039699
C112	C	0.407807	1.046804	0.039700
C113	C	0.323286	1.079210	0.000027
C114	C	0.314736	1.046818	-0.039657
C115	C	0.390705	0.982022	-0.039662
C116	C	0.840849	0.982022	-0.264851
C117	C	0.840861	1.046812	-0.329640
C118	C	0.794338	1.079218	-0.401721
C119	C	0.747806	1.046826	-0.409012
C120	C	0.747799	0.982033	-0.344223
H121	H	0.709948	0.281741	0.072000
H122	H	1.174007	0.281743	0.467712
N123	N	1.206699	0.406029	0.191232
N124	N	1.282163	0.377101	0.184743
H125	H	1.288337	0.400463	0.132751
H126	H	0.709917	0.821455	-0.467703
N127	N	0.700253	0.079951	0.080186
N128	N	0.700234	0.137822	0.080163
H129	H	0.666630	0.161236	0.108750
H130	H	0.552592	0.955622	0.072011
H131	H	0.878748	0.533510	-0.206182
H132	H	0.261435	1.131971	0.000037
H133	H	0.245911	1.073182	-0.323675
N134	N	0.700275	0.837890	-0.677773
N135	N	0.658735	0.908737	-0.742130
H136	H	0.625158	0.965994	-0.747395
H137	H	0.261354	1.131997	-0.454458
H138	H	1.342767	0.281766	0.071942
N139	N	0.700285	0.837877	-0.808747
N140	N	0.700290	0.837869	-0.866595
H141	H	0.666717	0.895114	-0.918595
N142	N	0.416423	1.079966	-0.482643
N143	N	0.348564	1.137821	-0.540475
H144	H	0.354688	1.161216	-0.592485
N145	N	0.888401	1.079881	-0.322169
N146	N	0.929925	1.050941	-0.257804
H147	H	0.963500	1.074294	-0.252524
H148	H	0.878769	0.399309	0.350153
N149	N	1.018635	0.405970	0.351706
N150	N	0.996010	0.355310	0.385526
H151	H	0.935058	0.378638	0.390816
N152	N	0.888371	0.079916	-0.080215
N153	N	0.929904	0.050983	-0.115641
H154	H	0.963467	0.074351	-0.144274
H155	H	0.709899	0.821461	-0.350162
H156	H	0.878769	0.533486	-0.649828
N157	N	0.700308	0.406002	0.080227
N158	N	0.658776	0.377067	0.115655
H159	H	0.625219	0.400423	0.144292
N160	N	0.888360	-0.051063	-0.080210
N161	N	0.888354	-0.108913	-0.080207
H162	H	0.921904	-0.132282	-0.108840
H163	H	0.709925	-0.044355	0.072005
H164	H	0.709927	1.073222	-0.467709
N165	N	0.700334	0.275002	0.322261
N166	N	0.720073	0.238832	0.288470
H167	H	0.686534	0.215432	0.283232
N168	N	0.888390	0.517042	-0.517353
N169	N	0.929910	0.446197	-0.510868
H170	H	0.963458	0.388939	-0.458877
N171	N	0.888425	0.275072	0.482633
N172	N	0.929965	0.304011	0.489105
H173	H	0.963541	0.280658	0.541091
H174	H	1.036083	0.399339	-0.072011
N175	N	0.794361	1.145401	-0.467889
N176	N	0.835913	1.174305	-0.461359
H177	H	0.835932	1.221047	-0.508088
N178	N	0.416570	1.079875	0.080241
N179	N	0.492044	1.050922	0.115665
H180	H	0.498235	1.074276	0.144297
H181	H	0.878755	0.533511	-0.323737
N182	N	0.381944	0.948936	-0.080185
N183	N	0.342293	0.912795	-0.063351
H184	H	0.336098	0.889431	-0.091973
H185	H	1.327321	0.222996	0.454468
H186	H	1.173888	0.281809	-0.072033
N187	N	1.342976	0.209517	0.000004
N188	N	1.335317	0.180564	-0.035384
H189	H	1.390110	0.133744	-0.035324
N190	N	0.381976	0.948921	-0.191222
N191	N	0.306512	0.977861	-0.184733
H192	H	0.300339	0.954496	-0.132742
N193	N	0.794399	0.209539	0.467959
N194	N	0.866063	0.137239	0.514588
H195	H	0.866094	0.090485	0.561349
N196	N	1.206714	0.406025	0.080192
N197	N	1.246355	0.442176	0.063370
H198	H	1.252536	0.465537	0.091999
N199	N	0.700318	0.405991	0.191259
N200	N	0.700318	0.463834	0.133401
H201	H	0.666765	0.487189	0.081406
H202	H	0.552537	0.955669	-0.350167
H203	H	0.878738	0.399314	-0.072001
N204	N	1.360271	0.275096	0.322164
N205	N	1.367855	0.304037	0.257798
H206	H	1.428811	0.280687	0.252516
H207	H	0.245908	1.073213	-0.071958
H208	H	0.709904	0.955672	-0.350172
N209	N	0.888391	0.275049	-0.080210
N210	N	0.929921	0.303987	-0.115638
H211	H	0.963492	0.280620	-0.144265
N212	N	0.888380	0.948937	-0.191233
N213	N	0.929924	0.977867	-0.184747
H214	H	0.963500	0.954501	-0.132756
