data_functionalizedCrystal
_audit_creation_method	'MofGen! by Chris Wilmer'
_symmetry_space_group_name_H-M	'P1'
_symmetry_Int_Tables_number	1
_symmetry_cell_setting	triclinic
loop_
_symmetry_equiv_pos_as_xyz
  x,y,z
_cell_length_a	16.625548
_cell_length_b	12.759399
_cell_length_c	12.759393
_cell_angle_alpha	89.969069
_cell_angle_beta	89.979500
_cell_angle_gamma	90.016184
loop_
_atom_site_label
_atom_site_type_symbol
_atom_site_fract_x
_atom_site_fract_y
_atom_site_fract_z
Zn1	Zn	1.232721	-0.418185	-0.594067
Zn2	Zn	1.232642	-0.593901	-0.418386
Zn3	Zn	1.097883	-0.418240	-0.418397
Zn4	Zn	1.097871	-0.593826	-0.594018
O5	O	1.165279	-0.506038	-0.506217
O6	O	1.345543	-0.441503	-0.570779
O7	O	1.214738	-0.570653	-0.271366
O8	O	1.115808	-0.271212	-0.441725
O9	O	1.345485	-0.570600	-0.441707
O10	O	1.214873	-0.271171	-0.570789
O11	O	1.115731	-0.441596	-0.271374
O12	O	0.985049	-0.441523	-0.441677
O13	O	1.115787	-0.570473	-0.741045
O14	O	0.985040	-0.570526	-0.570705
O15	O	1.214861	-0.441430	-0.741082
O16	O	1.214726	-0.740912	-0.441659
O17	O	1.115710	-0.740857	-0.570695
C18	C	0.955788	-0.506023	-0.506188
C19	C	0.866167	-0.506042	-0.506200
C20	C	1.165230	-0.779005	-0.506193
C21	C	1.165282	-0.895782	-0.506218
C22	C	1.216899	-0.950638	-0.439105
C23	C	1.216950	-1.060362	-0.439141
C24	C	1.113763	-1.060365	-0.573404
C25	C	1.113716	-0.950643	-0.573373
C26	C	1.312123	-1.210238	-0.401757
C27	C	1.363732	-1.265098	-0.334628
C28	C	1.376139	-1.229557	-0.232118
C29	C	1.336926	-1.139159	-0.196717
C30	C	1.285310	-1.084305	-0.263840
C31	C	1.272918	-1.119844	-0.366364
C32	C	1.018542	-0.800764	-0.610746
C33	C	0.966922	-0.745908	-0.677865
C34	C	0.954507	-0.781447	-0.780377
C35	C	0.993706	-0.871848	-0.815774
C36	C	1.045326	-0.926704	-0.748655
C37	C	1.057743	-0.891158	-0.646145
C38	C	0.537992	-0.506049	-0.506245
C39	C	0.629300	-0.506044	-0.506229
C40	C	0.702076	-0.506046	-0.506222
C41	C	0.793391	-0.506040	-0.506207
C42	C	1.375588	-0.506054	-0.506247
C43	C	1.465209	-0.506061	-0.506260
C44	C	1.165331	-0.505937	-0.780250
C45	C	1.165354	-0.505894	-0.897027
C46	C	1.165351	-0.232005	-0.506264
C47	C	1.165381	-0.115228	-0.506284
C48	C	1.113783	-0.573055	-0.951872
C49	C	1.113812	-0.573016	-1.061596
C50	C	1.216984	-0.438646	-1.061621
C51	C	1.216958	-0.438691	-0.951899
C52	C	1.085003	-0.696857	-1.211528
C53	C	1.033420	-0.764009	-1.266377
C54	C	0.954732	-0.780146	-1.230758
C55	C	0.927611	-0.729116	-1.140292
C56	C	0.979190	-0.661956	-1.085449
C57	C	1.057889	-0.645839	-1.121067
C58	C	1.245759	-0.314849	-0.801965
C59	C	1.297334	-0.247683	-0.747120
C60	C	1.376023	-0.231535	-0.782737
C61	C	1.403141	-0.282547	-0.873206
C62	C	1.351566	-0.349712	-0.928051
C63	C	1.272878	-0.365862	-0.892426
C64	C	1.165274	-0.506063	-0.233250
C65	C	1.165408	-0.505810	-0.116474
H66	H	1.253385	-1.010704	-0.235018
H67	H	1.418012	-0.176830	-0.738080
O68	O	1.348990	-1.104462	-0.097198
C69	C	1.381484	-1.002420	-0.100071
H70	H	1.365571	-0.963710	-0.177889
H71	H	1.449673	-1.006771	-0.091755
C72	C	1.365907	-0.984916	0.086255
C73	C	1.346356	-0.937367	-0.009319
H74	H	1.344242	-0.944788	0.142237
H75	H	1.344018	-1.053665	0.088192
H76	H	1.422731	-0.988538	0.093170
H77	H	1.289533	-0.933757	-0.016238
H78	H	1.368235	-0.868616	-0.011256
O79	O	1.426337	-1.282677	-0.166856
C80	C	1.489485	-1.216135	-0.135053
H81	H	1.469668	-1.130972	-0.142946
H82	H	1.544396	-1.230423	-0.186638
C83	C	1.535396	-1.343788	-0.010272
C84	C	1.511054	-1.239189	-0.019959
H85	H	1.548704	-1.358011	0.060722
H86	H	1.492854	-1.388621	-0.031701
H87	H	1.581152	-1.355682	-0.053266
H88	H	1.465293	-1.227300	0.023025
H89	H	1.553589	-1.194354	0.001480
O90	O	1.377960	-0.399102	-1.016000
C91	C	1.400967	-0.323853	-1.091223
H92	H	1.416125	-0.246983	-1.050233
H93	H	1.349367	-0.310605	-1.148536
C94	C	1.456710	-0.457803	-1.201690
C95	C	1.475334	-0.363392	-1.151344
H96	H	1.502580	-0.482193	-1.238779
H97	H	1.441207	-0.508500	-1.151013
H98	H	1.413708	-0.446750	-1.249443
H99	H	1.518328	-0.374448	-1.103583
H100	H	1.490846	-0.312697	-1.202014
O101	O	0.928883	-0.657998	-0.643641
C102	C	0.951482	-0.572164	-0.706764
H103	H	0.973122	-0.601843	-0.786169
H104	H	1.002054	-0.526986	-0.666789
C105	C	0.852046	-0.462884	-0.624927
C106	C	0.878618	-0.499337	-0.722457
H107	H	0.807102	-0.417957	-0.634604
H108	H	0.836822	-0.520711	-0.582397
H109	H	0.894196	-0.425243	-0.591624
H110	H	0.836472	-0.536988	-0.755752
H111	H	0.893833	-0.441514	-0.764994
O112	O	1.169329	-0.330385	-0.767247
C113	C	1.156458	-0.270969	-0.675629
H114	H	1.200779	-0.202819	-0.673390
H115	H	1.165826	-0.322785	-0.603849
C116	C	1.015439	-0.311832	-0.678288
C117	C	1.069870	-0.228124	-0.675543
H118	H	0.962026	-0.285407	-0.678231
H119	H	1.024110	-0.351865	-0.740010
H120	H	1.023256	-0.355006	-0.618470
H121	H	1.062059	-0.184960	-0.735366
H122	H	1.061195	-0.188083	-0.613830
O123	O	0.851148	-0.744913	-1.105834
C124	C	0.811428	-0.815097	-1.173662
H125	H	0.857797	-0.864671	-1.216931
H126	H	0.774166	-0.768991	-1.232821
C127	C	0.698787	-0.826189	-1.056247
C128	C	0.755738	-0.887083	-1.109385
H129	H	0.664432	-0.870591	-1.016600
H130	H	0.725545	-0.778902	-1.010552
H131	H	0.667743	-0.787771	-1.105556
H132	H	0.786787	-0.925490	-1.060076
H133	H	0.728984	-0.934379	-1.155071
O134	O	0.904739	-0.845445	-1.284134
C135	C	0.945539	-0.886996	-1.371633
H136	H	1.013171	-0.883561	-1.357349
H137	H	0.930004	-0.839118	-1.444320
C138	C	0.836668	-1.005918	-1.405862
C139	C	0.919735	-1.001708	-1.388315
H140	H	0.820749	-1.076676	-1.416157
H141	H	0.809178	-0.977923	-1.346915
H142	H	0.823733	-0.966014	-1.466433
H143	H	0.932667	-1.041600	-1.327738
H144	H	0.947226	-1.029713	-1.447252
O145	O	1.479617	-0.266786	-0.907641
C146	C	1.519317	-0.196549	-0.839849
H147	H	1.488847	-0.197779	-0.759805
H148	H	1.516308	-0.113990	-0.873830
C149	C	1.645333	-0.228176	-0.926332
C150	C	1.607913	-0.229694	-0.828017
H151	H	1.699984	-0.248617	-0.919036
H152	H	1.618586	-0.275493	-0.972008
H153	H	1.642818	-0.159374	-0.954639
H154	H	1.610421	-0.298496	-0.799718
H155	H	1.634663	-0.182388	-0.782336
O156	O	1.266878	-0.897297	-0.373768
C157	C	1.220976	-0.833917	-0.305854
H158	H	1.157488	-0.867057	-0.299296
H159	H	1.218149	-0.750737	-0.338310
C160	C	1.338392	-0.791575	-0.204737
C161	C	1.260418	-0.832284	-0.196675
H162	H	1.362723	-0.790563	-0.137391
H163	H	1.369318	-0.834272	-0.250494
H164	H	1.336025	-0.722262	-0.231788
H165	H	1.262786	-0.901600	-0.169638
H166	H	1.229493	-0.789598	-0.150911
H167	H	1.395660	-1.338700	-0.363462
H168	H	1.071778	-1.105046	-0.628078
O169	O	1.083381	-1.014467	-0.783226
C170	C	1.061344	-1.034089	-0.888092
H171	H	1.040074	-0.958129	-0.926114
H172	H	1.010662	-1.094257	-0.890096
C173	C	1.160589	-1.170152	-0.901878
C174	C	1.134472	-1.076854	-0.948579
H175	H	1.205696	-1.196535	-0.939189
H176	H	1.175435	-1.156935	-0.831226
H177	H	1.118348	-1.220280	-0.903551
H178	H	1.176710	-1.026723	-0.946893
H179	H	1.119636	-1.090063	-1.019232
O180	O	0.981735	-0.906232	-0.915423
C181	C	1.005904	-0.827924	-0.986808
H182	H	1.051073	-0.773541	-0.947327
H183	H	0.951149	-0.780811	-1.012721
C184	C	0.989776	-0.946285	-1.131606
C185	C	1.045258	-0.879495	-1.083117
H186	H	1.014049	-0.978095	-1.191017
H187	H	0.973490	-0.999042	-1.083514
H188	H	0.944151	-0.907013	-1.153191
H189	H	1.090877	-0.918769	-1.061522
H190	H	1.061553	-0.826746	-1.131208
O191	O	0.904278	-0.728296	-0.845579
C192	C	0.841154	-0.794845	-0.877445
H193	H	0.833420	-0.860521	-0.817673
H194	H	0.856009	-0.829928	-0.957292
C195	C	0.772077	-0.650770	-0.958549
C196	C	0.762575	-0.731429	-0.885131
H197	H	0.723606	-0.611652	-0.963295
H198	H	0.814607	-0.605934	-0.937084
H199	H	0.784459	-0.680017	-1.025080
H200	H	0.750203	-0.702180	-0.818599
H201	H	0.720041	-0.776258	-0.906584
H202	H	1.275245	-0.206139	-0.673461
H203	H	1.028653	-0.771814	-0.527275
H204	H	0.957108	-0.620405	-1.011797
H205	H	1.071758	-0.627770	-0.907199
H206	H	1.302034	-1.239177	-0.485232
H207	H	1.055509	-0.805557	-1.340035
H208	H	1.149080	-0.683735	-1.240531
H209	H	1.258998	-0.383930	-1.106311
