data_functionalizedCrystal
_audit_creation_method	'MofGen! by Chris Wilmer'
_symmetry_space_group_name_H-M	'P1'
_symmetry_Int_Tables_number	1
_symmetry_cell_setting	triclinic
loop_
_symmetry_equiv_pos_as_xyz
  x,y,z
_cell_length_a	12.837943
_cell_length_b	10.654550
_cell_length_c	11.295483
_cell_angle_alpha	94.136004
_cell_angle_beta	85.461227
_cell_angle_gamma	89.656922
loop_
_atom_site_label
_atom_site_type_symbol
_atom_site_fract_x
_atom_site_fract_y
_atom_site_fract_z
O1	O	1.384729	0.319125	-0.098998
O2	O	1.082808	0.302983	-0.099005
O3	O	1.240710	0.129073	-0.098997
O4	O	1.226827	0.493035	-0.099006
O5	O	1.226841	0.144321	0.099053
O6	O	1.068938	0.318232	0.099045
O7	O	1.370860	0.334374	0.099052
Cu8	Cu	1.218633	0.327695	0.117132
Cu9	Cu	1.235034	0.309662	-0.117085
O10	O	1.212958	0.508284	0.099044
C11	C	1.037213	0.305155	0.000019
C12	C	0.922019	0.288892	0.000016
C13	C	1.232756	0.089788	0.000027
C14	C	1.229706	-0.049989	0.000022
C15	C	0.682466	0.484398	0.000028
C16	C	0.574230	0.469123	0.000026
C17	C	0.597310	0.243071	0.000019
C18	C	0.705546	0.258345	0.000021
C19	C	0.748119	0.379012	0.000024
C20	C	0.856358	0.394285	0.000017
C21	C	0.879435	0.168234	0.000018
C22	C	0.771199	0.152960	0.000017
C23	C	1.322676	-0.119329	0.000028
C24	C	1.319805	-0.250663	0.000020
C25	C	1.130985	-0.243306	0.000005
C26	C	1.133858	-0.111974	0.000005
C27	C	1.418525	-0.057343	0.000046
C28	C	1.511502	-0.126683	0.000053
C29	C	1.508631	-0.258018	0.000045
C30	C	1.412782	-0.320013	0.000029
C31	C	1.416454	0.332202	0.000025
C32	C	1.531648	0.348464	0.000020
C33	C	1.220912	0.547569	0.000018
C34	C	1.223962	0.687345	0.000014
N35	N	1.207104	0.340379	0.281868
N36	N	1.246571	0.296969	-0.281821
C37	C	1.329560	0.205592	0.531164
C38	C	1.320855	0.215188	0.655827
C39	C	1.180985	0.369157	0.655860
C40	C	1.189690	0.359562	0.531196
C41	C	1.263981	0.277778	0.468853
C42	C	1.272690	0.268191	0.344187
C43	C	1.132816	0.422153	0.344222
C44	C	1.124111	0.431748	0.468886
H45	H	0.891019	0.492538	0.000021
H46	H	1.333184	0.201602	0.293428
O47	O	1.409849	-0.447575	0.000174
C48	C	1.349944	-0.481549	0.102757
H49	H	1.294076	-0.401090	0.136958
H50	H	1.303227	-0.569379	0.079680
H51	H	1.404084	-0.501652	0.174581
O52	O	1.598863	-0.325502	0.000202
C53	C	1.595675	-0.393778	0.102784
H54	H	1.510880	-0.407630	0.136974
H55	H	1.635229	-0.489462	0.079713
H56	H	1.638339	-0.339455	0.174616
H57	H	0.932903	0.082422	0.000007
O58	O	1.401604	0.126105	0.470451
C59	C	1.350544	0.036302	0.398356
H60	H	1.271009	0.075127	0.379715
H61	H	1.399828	0.014928	0.310676
H62	H	1.339509	-0.053764	0.446376
O63	O	1.384595	0.145255	0.716486
C64	C	1.444072	0.225815	0.788558
H65	H	1.402156	0.320638	0.807247
H66	H	1.453987	0.182071	0.876216
H67	H	1.524165	0.239879	0.740493
H68	H	1.079420	0.480936	0.293475
H69	H	1.120493	0.435734	0.706636
H70	H	1.420873	0.049596	0.000056
O71	O	1.051898	0.511021	0.529585
C72	C	0.982355	0.441555	0.601686
H73	H	1.021660	0.349605	0.620347
H74	H	0.960201	0.498788	0.689355
H75	H	0.908969	0.420102	0.553660
O76	O	0.723719	0.601656	-0.000134
C77	C	0.697459	0.658772	-0.102725
H78	H	0.624547	0.612915	-0.136921
H79	H	0.681588	0.763423	-0.079661
H80	H	0.765004	0.646164	-0.174548
H81	H	0.520778	0.554940	0.000033
O82	O	1.604658	-0.066598	0.000219
C83	C	1.654196	-0.093015	0.102805
H84	H	1.622870	-0.184693	0.136998
H85	H	1.742080	-0.102651	0.079736
H86	H	1.637698	-0.013064	0.174632
H87	H	0.736520	0.054717	0.000028
O88	O	0.555983	0.125853	0.000231
C89	C	0.582296	0.068705	0.102783
H90	H	0.600284	0.144551	0.174476
H91	H	0.513941	0.010043	0.137215
H92	H	0.653940	0.005312	0.079587
H93	H	1.058153	-0.055516	0.000001
O94	O	1.037968	-0.303717	0.000052
C95	C	1.055371	-0.434505	0.000025
H96	H	1.133490	-0.452715	0.037523
H97	H	0.989960	-0.477644	0.057524
H98	H	1.056736	-0.478916	-0.094989
