data_functionalizedCrystal
_audit_creation_method	'MofGen! by Chris Wilmer'
_symmetry_space_group_name_H-M	'P1'
_symmetry_Int_Tables_number	1
_symmetry_cell_setting	triclinic
loop_
_symmetry_equiv_pos_as_xyz
  x,y,z
_cell_length_a	16.109301
_cell_length_b	10.654550
_cell_length_c	15.186229
_cell_angle_alpha	89.997420
_cell_angle_beta	89.999362
_cell_angle_gamma	83.973192
loop_
_atom_site_label
_atom_site_type_symbol
_atom_site_fract_x
_atom_site_fract_y
_atom_site_fract_z
O1	O	1.104090	0.161419	-0.073171
O2	O	0.862148	0.181507	-0.073184
O3	O	0.988682	-0.011352	-0.073174
O4	O	0.977556	0.354278	-0.073181
O5	O	0.988673	-0.011354	0.073283
O6	O	0.862139	0.181505	0.073273
O7	O	1.104082	0.161416	0.073287
Zn8	Zn	0.983109	0.171460	0.096533
Zn9	Zn	0.983120	0.171463	-0.096431
O10	O	0.977548	0.354275	0.073276
C11	C	0.831164	0.180692	0.000043
C12	C	0.738854	0.178253	0.000037
C13	C	0.987861	-0.058140	0.000054
C14	C	0.985417	-0.197550	0.000050
C15	C	0.517228	0.287019	0.000045
C16	C	0.430494	0.284717	0.000051
C17	C	0.449008	0.055896	0.000052
C18	C	0.535741	0.058199	0.000052
C19	C	0.569848	0.173764	0.000045
C20	C	0.396382	0.169159	0.000050
C21	C	0.302341	0.166662	0.000056
C22	C	0.663895	0.176262	0.000040
C23	C	1.059918	-0.278046	0.000057
C24	C	1.057616	-0.409036	0.000051
C25	C	0.906306	-0.379020	0.000035
C26	C	0.908608	-0.248033	0.000035
C27	C	1.136726	-0.227564	0.000073
C28	C	1.211233	-0.308061	0.000081
C29	C	1.208932	-0.439051	0.000075
C30	C	1.132123	-0.489543	0.000061
C31	C	1.135066	0.162231	0.000058
C32	C	1.227376	0.164671	0.000057
C33	C	0.978369	0.401063	0.000047
C34	C	0.980813	0.540473	0.000044
N35	N	0.983108	0.171457	0.228226
N36	N	0.983129	0.171457	-0.228123
C37	C	1.039156	0.086088	0.453953
C38	C	1.039159	0.086085	0.546143
C39	C	0.927074	0.256830	0.546143
C40	C	0.927068	0.256826	0.453955
C41	C	0.983114	0.171456	0.407862
C42	C	0.983122	0.171457	0.592240
C43	C	0.983125	0.171455	0.692196
C44	C	0.983111	0.171457	0.307900
H45	H	0.544995	0.381119	0.000046
O46	O	0.415736	-0.056248	0.000013
C47	C	0.327900	-0.033999	0.000032
H48	H	0.308100	0.064013	-0.027694
H49	H	0.300851	-0.107938	-0.042490
H50	H	0.303724	-0.040082	0.070295
H51	H	1.084793	0.016568	0.583668
O52	O	0.872719	0.339715	0.591055
C53	C	0.884728	0.321396	0.682307
H54	H	0.950555	0.274486	0.694894
H55	H	0.876030	0.416500	0.717337
H56	H	0.837310	0.258394	0.708478
H57	H	1.130255	-0.596205	0.000046
O58	O	0.872709	0.339935	0.409217
C59	C	0.886926	0.464260	0.431749
H60	H	0.953492	0.464905	0.457087
H61	H	0.877722	0.527276	0.371119
H62	H	0.841060	0.501131	0.485261
O63	O	0.379499	0.394848	0.000010
C64	C	0.428206	0.497335	0.000027
H65	H	0.492745	0.465435	-0.027702
H66	H	0.396672	0.576688	-0.042495
H67	H	0.434586	0.532757	0.070289
O68	O	0.586742	-0.051939	0.000012
C69	C	0.538042	-0.154433	0.000033
H70	H	0.473502	-0.122540	-0.027697
H71	H	0.569580	-0.233780	-0.042486
H72	H	0.531663	-0.189860	0.070296
H73	H	1.138609	-0.120907	0.000081
H74	H	1.273768	-0.266942	0.000070
O75	O	1.281282	-0.517297	-0.000079
C76	C	1.284479	-0.593976	-0.075922
H77	H	1.242246	-0.545982	-0.128942
H78	H	1.351367	-0.608728	-0.101375
H79	H	1.262410	-0.689221	-0.058780
O80	O	0.831771	-0.428274	0.000067
C81	C	0.845715	-0.561148	0.000048
H82	H	0.910417	-0.591933	0.027779
H83	H	0.796522	-0.601348	0.042566
H84	H	0.841480	-0.597606	-0.070215
H85	H	0.847943	-0.182490	0.000030
H86	H	1.084791	0.016573	0.416427
