data_functionalizedCrystal
_audit_creation_method	'MofGen! by Chris Wilmer'
_symmetry_space_group_name_H-M	'P1'
_symmetry_Int_Tables_number	1
_symmetry_cell_setting	triclinic
loop_
_symmetry_equiv_pos_as_xyz
  x,y,z
_cell_length_a	12.759401
_cell_length_b	25.639239
_cell_length_c	12.759393
_cell_angle_alpha	89.964022
_cell_angle_beta	89.979062
_cell_angle_gamma	90.040211
loop_
_atom_site_label
_atom_site_type_symbol
_atom_site_fract_x
_atom_site_fract_y
_atom_site_fract_z
Zn1	Zn	1.606091	-0.208104	-0.593980
Zn2	Zn	1.605909	-0.295549	-0.418283
Zn3	Zn	1.430390	-0.208132	-0.418315
Zn4	Zn	1.430308	-0.295513	-0.593921
O5	O	1.518175	-0.251825	-0.506125
O6	O	1.753088	-0.219708	-0.570685
O7	O	1.582584	-0.283980	-0.271266
O8	O	1.453808	-0.134963	-0.441656
O9	O	1.752954	-0.283953	-0.441601
O10	O	1.582895	-0.134943	-0.570716
O11	O	1.453631	-0.219755	-0.271290
O12	O	1.283358	-0.219720	-0.441598
O13	O	1.453669	-0.283891	-0.740950
O14	O	1.283298	-0.283918	-0.570615
O15	O	1.582816	-0.219672	-0.740993
O16	O	1.582505	-0.368710	-0.441544
O17	O	1.453492	-0.368683	-0.570584
C18	C	1.245207	-0.251818	-0.506104
C19	C	1.128431	-0.251828	-0.506120
C20	C	1.073565	-0.285307	-0.573193
C21	C	0.963841	-0.285309	-0.573214
C22	C	0.963858	-0.218352	-0.439079
C23	C	1.073580	-0.218347	-0.439065
C24	C	0.813929	-0.304070	-0.697071
C25	C	0.759060	-0.337557	-0.764135
C26	C	0.794614	-0.388581	-0.780073
C27	C	0.885037	-0.406129	-0.728931
C28	C	0.939901	-0.372645	-0.661860
C29	C	0.904348	-0.321613	-0.645942
C30	C	1.223494	-0.199592	-0.315206
C31	C	1.278359	-0.166110	-0.248129
C32	C	1.242807	-0.115085	-0.232180
C33	C	1.152381	-0.097539	-0.283303
C34	C	1.097515	-0.131021	-0.350380
C35	C	1.133075	-0.182046	-0.366331
C36	C	1.517998	-0.387667	-0.506077
C37	C	1.518018	-0.445781	-0.506091
C38	C	1.585527	-0.806146	-0.439048
C39	C	1.585568	-0.860750	-0.439062
O40	O	1.642783	-0.888988	-0.382007
N41	N	1.518359	-0.888064	-0.506194
C42	C	1.451113	-0.860770	-0.573324
O43	O	1.393952	-0.889017	-0.630428
C44	C	1.451079	-0.806167	-0.573315
C45	C	1.518284	-0.778856	-0.506171
C46	C	1.652728	-0.778835	-0.371910
C47	C	1.652685	-0.724234	-0.371895
C48	C	1.585442	-0.696945	-0.439018
C49	C	1.518242	-0.724255	-0.506156
C50	C	1.383839	-0.778874	-0.640449
C51	C	1.383810	-0.724267	-0.640435
C52	C	1.451016	-0.696957	-0.573291
C53	C	1.450956	-0.642365	-0.573263
N54	N	1.518165	-0.615052	-0.506131
C55	C	1.585408	-0.642341	-0.439008
C56	C	1.451192	-0.975441	-0.573341
C57	C	1.451221	-1.030043	-0.573346
C58	C	1.585677	-1.030019	-0.439085
C59	C	1.585642	-0.975416	-0.439075
C60	C	1.518401	-0.948127	-0.506208
C61	C	1.585313	-0.527676	-0.438981
C62	C	1.585261	-0.473071	-0.438969
C63	C	1.450810	-0.473100	-0.573233
C64	C	1.450857	-0.527700	-0.573242
C65	C	1.518117	-0.554987	-0.506112
O66	O	1.393774	-0.614093	-0.630292
O67	O	1.642569	-0.614088	-0.381925
C68	C	1.792208	-0.251831	-0.506146
C69	C	1.908984	-0.251834	-0.506156
C70	C	1.518253	-0.251774	-0.780158
C71	C	1.518287	-0.251753	-0.896935
C72	C	1.518381	-0.115452	-0.506196
C73	C	1.518468	-0.057337	-0.506226
C74	C	1.585539	-0.218309	-0.951821
C75	C	1.585556	-0.218286	-1.061546
C76	C	1.451068	-0.285156	-1.061487
C77	C	1.451045	-0.285176	-0.951765
C78	C	1.623220	-0.156599	-1.211536
C79	C	1.690489	-0.123160	-1.266426
C80	C	1.793008	-0.115142	-1.230836
C81	C	1.828280	-0.140572	-1.140358
C82	C	1.761018	-0.174015	-1.085473
C83	C	1.658484	-0.182023	-1.121061
C84	C	1.413392	-0.346864	-0.801773
C85	C	1.346134	-0.380310	-0.746887
C86	C	1.243613	-0.388333	-0.782474
C87	C	1.208344	-0.362913	-0.872956
C88	C	1.275603	-0.329466	-0.927843
C89	C	1.378123	-0.321443	-0.892247
C90	C	1.518157	-0.251837	-0.233157
C91	C	1.518327	-0.251711	-0.116381
H92	H	1.023890	-0.116729	-0.392014
H93	H	1.496871	-0.340330	-0.772783
H94	H	1.911766	-0.134045	-1.111393
Br95	Br	1.808876	-0.208527	-0.962691
H96	H	1.287484	-0.087826	-0.177550
H97	H	1.396136	-0.549938	-0.627919
H98	H	0.784979	-0.262520	-0.684111
H99	H	1.188856	-0.415573	-0.737781
Br100	Br	1.884300	-0.069763	-1.305335
H101	H	1.013520	-0.386932	-0.620221
H102	H	1.118221	-0.312568	-0.627796
Br103	Br	1.359920	-0.938412	-0.664452
Br104	Br	0.636350	-0.313742	-0.833540
H105	H	0.913972	-0.447681	-0.741905
H106	H	1.124864	-0.369447	-0.901935
H107	H	1.661760	-0.102455	-1.340093
H108	H	1.123421	-0.055993	-0.270300
H109	H	1.640085	-0.549887	-0.384320
Br110	Br	0.889411	-0.172916	-0.348080
Br111	Br	1.401069	-0.189927	-0.178726
H112	H	1.539738	-0.163120	-1.240516
H113	H	1.640288	-0.191092	-0.907182
Br114	Br	0.720151	-0.434026	-0.871093
Br115	Br	1.744001	-0.815860	-0.280805
H116	H	1.252456	-0.241140	-0.328196
H117	H	1.396324	-0.312369	-1.106143
Br118	Br	1.227739	-0.294966	-1.050642
Br119	Br	1.676473	-0.436009	-0.347836
H120	H	1.374863	-0.401014	-0.673218
H121	H	1.707412	-0.702001	-0.317224
H122	H	1.640367	-0.953182	-0.384401
Br123	Br	1.359995	-1.067101	-0.664458
Br124	Br	1.292637	-0.815925	-0.731591
H125	H	1.640434	-1.052248	-0.384433
Br126	Br	1.292553	-0.687236	-0.731554
H127	H	1.396058	-0.450872	-0.627881
