data_functionalizedCrystal
_audit_creation_method	'MofGen! by Chris Wilmer'
_symmetry_space_group_name_H-M	'P1'
_symmetry_Int_Tables_number	1
_symmetry_cell_setting	triclinic
loop_
_symmetry_equiv_pos_as_xyz
  x,y,z
_cell_length_a	17.699083
_cell_length_b	12.376897
_cell_length_c	17.699083
_cell_angle_alpha	77.312465
_cell_angle_beta	83.283015
_cell_angle_gamma	77.316470
loop_
_atom_site_label
_atom_site_type_symbol
_atom_site_fract_x
_atom_site_fract_y
_atom_site_fract_z
O1	O	0.991179	0.093844	0.082800
O2	O	1.324512	0.427177	0.416133
O3	O	1.657845	0.760511	0.749467
O4	O	0.770795	0.093881	0.095247
O5	O	1.104129	0.427215	0.428581
O6	O	1.437462	0.760548	0.761914
O7	O	0.887215	0.093852	-0.021164
O8	O	1.220548	0.427185	0.312169
O9	O	1.553881	0.760518	0.645503
O10	O	0.874759	0.093874	0.199211
O11	O	1.208093	0.427207	0.532545
O12	O	1.541426	0.760540	0.865878
O13	O	0.913042	-0.094149	0.004698
O14	O	1.246375	0.239184	0.338031
O15	O	1.579708	0.572518	0.671364
O16	O	0.796622	-0.094119	0.121109
O17	O	1.129956	0.239214	0.454442
O18	O	1.463289	0.572547	0.787776
O19	O	1.017006	-0.094157	0.108662
O20	O	1.350339	0.239177	0.441995
O21	O	1.683673	0.572510	0.775328
Zn22	Zn	0.910915	-0.123987	0.118991
Zn23	Zn	1.244248	0.209346	0.452325
Zn24	Zn	1.577581	0.542680	0.785658
Zn25	Zn	0.876886	0.123712	0.084918
Zn26	Zn	1.210220	0.457045	0.418251
Zn27	Zn	1.543553	0.790378	0.751584
O28	O	0.900586	-0.094127	0.225073
O29	O	1.233920	0.239207	0.558406
O30	O	1.567253	0.572540	0.891740
C31	C	0.755511	-0.000114	0.107731
C32	C	1.088844	0.333219	0.441065
C33	C	1.422178	0.666552	0.774398
C34	C	0.671491	-0.000100	0.106391
C35	C	1.004824	0.333233	0.439724
C36	C	1.338158	0.666566	0.773058
N37	N	0.934144	-0.293035	0.142245
N38	N	1.267477	0.040299	0.475579
N39	N	1.600810	0.373632	0.808912
C40	C	0.622869	-0.000094	0.174723
C41	C	0.956203	0.333239	0.508057
C42	C	1.289536	0.666573	0.841390
C43	C	0.543928	-0.000109	0.173463
C44	C	0.877261	0.333225	0.506796
C45	C	1.210595	0.666558	0.840130
C46	C	0.513609	-0.000122	0.103869
C47	C	0.846942	0.333212	0.437202
C48	C	1.180276	0.666545	0.770535
C49	C	0.562238	-0.000132	0.035531
C50	C	0.895571	0.333202	0.368865
C51	C	1.228904	0.666535	0.702198
C52	C	0.641178	-0.000125	0.036793
C53	C	0.974512	0.333208	0.370127
C54	C	1.307845	0.666542	0.703460
C55	C	0.243878	-0.000160	0.030440
C56	C	0.577212	0.333173	0.363773
C57	C	0.910545	0.666507	0.697107
C58	C	0.164931	-0.000163	0.029182
C59	C	0.498264	0.333170	0.362516
C60	C	0.831598	0.666503	0.695849
C61	C	0.146628	-0.000144	0.167110
C62	C	0.479961	0.333190	0.500443
C63	C	0.813295	0.666523	0.833776
C64	C	0.225569	-0.000137	0.168372
C65	C	0.558902	0.333196	0.501705
C66	C	0.892236	0.666530	0.835038
C67	C	0.274191	-0.000153	0.100036
C68	C	0.607525	0.333180	0.433369
C69	C	0.940858	0.666514	0.766702
C70	C	0.359789	-0.000139	0.101403
C71	C	0.693122	0.333194	0.434737
C72	C	1.026455	0.666528	0.768070
C73	C	0.428012	-0.000128	0.102499
C74	C	0.761345	0.333206	0.435832
C75	C	1.094679	0.666539	0.769166
C76	C	0.799714	-0.648081	0.007672
C77	C	1.133047	-0.314747	0.341005
C78	C	1.466380	0.018586	0.674338
C79	C	0.783443	-0.529748	-0.008606
C80	C	1.116777	-0.196415	0.324728
C81	C	1.450110	0.136918	0.658061
C82	C	0.821117	-0.470564	0.029106
C83	C	1.154450	-0.137231	0.362439
C84	C	1.487784	0.196103	0.695773
C85	C	0.875064	-0.529724	0.083097
C86	C	1.208397	-0.196391	0.416431
C87	C	1.541730	0.136943	0.749764
C88	C	0.891340	-0.648068	0.099372
C89	C	1.224673	-0.314735	0.432705
C90	C	1.558007	0.018599	0.766038
C91	C	0.912743	-0.470551	0.120806
C92	C	1.246077	-0.137218	0.454139
C93	C	1.579410	0.196115	0.787473
C94	C	0.966690	-0.529711	0.174797
C95	C	1.300023	-0.196378	0.508130
C96	C	1.633357	0.136955	0.841464
C97	C	0.982963	-0.648044	0.191069
C98	C	1.316297	-0.314710	0.524403
C99	C	1.649630	0.018623	0.857736
C100	C	0.945290	-0.707228	0.153358
C101	C	1.278623	-0.373895	0.486691
C102	C	1.611956	-0.040561	0.820024
C103	C	0.896467	-0.352207	0.104531
C104	C	1.229800	-0.018874	0.437865
C105	C	1.563134	0.314459	0.771198
C106	C	0.988093	-0.352195	0.196231
C107	C	1.321427	-0.018861	0.529565
C108	C	1.654760	0.314472	0.862898
C109	C	1.004364	-0.470527	0.212509
C110	C	1.337697	-0.137194	0.545842
C111	C	1.671030	0.196140	0.879175
C112	C	1.032290	-0.000158	0.096177
C113	C	1.365623	0.333175	0.429511
C114	C	1.698956	0.666508	0.762844
C115	C	1.116309	-0.000165	0.097517
C116	C	1.449642	0.333168	0.430850
C117	C	1.782975	0.666502	0.764184
C118	C	0.899682	-0.000149	-0.036430
C119	C	1.233015	0.333185	0.296903
C120	C	1.566349	0.666518	0.630237
C121	C	0.898344	-0.000149	-0.120448
C122	C	1.231677	0.333184	0.212885
C123	C	1.565010	0.666518	0.546219
N124	N	0.853663	0.292759	0.061658
N125	N	1.186997	0.626093	0.394991
N126	N	1.520330	0.959426	0.728324
C127	C	0.966679	-0.000162	-0.169067
C128	C	1.300012	0.333171	0.164266
C129	C	1.633345	0.666505	0.497599
C130	C	0.965415	-0.000152	-0.248012
C131	C	1.298748	0.333181	0.085321
C132	C	1.632082	0.666515	0.418655
C133	C	0.895816	-0.000137	-0.278335
C134	C	1.229150	0.333197	0.054998
C135	C	1.562483	0.666530	0.388332
C136	C	0.827476	-0.000120	-0.229710
C137	C	1.160809	0.333213	0.103623
C138	C	1.494142	0.666547	0.436957
C139	C	0.828739	-0.000122	-0.150768
C140	C	1.162072	0.333211	0.182565
C141	C	1.495406	0.666544	0.515899
C142	C	0.822379	-0.000110	-0.548074
C143	C	1.155712	0.333223	-0.214741
C144	C	1.489046	0.666557	0.118592
C145	C	0.821121	-0.000111	-0.627022
C146	C	1.154455	0.333222	-0.293689
C147	C	1.487788	0.666555	0.039644
C148	C	0.959055	-0.000140	-0.645318
C149	C	1.292388	0.333194	-0.311985
C150	C	1.625722	0.666527	0.021348
C151	C	0.960318	-0.000142	-0.566376
C152	C	1.293652	0.333191	-0.233043
C153	C	1.626985	0.666525	0.100290
C154	C	0.891977	-0.000119	-0.517759
C155	C	1.225310	0.333214	-0.184426
C156	C	1.558644	0.666547	0.148907
C157	C	0.893348	-0.000128	-0.432159
C158	C	1.226681	0.333205	-0.098826
C159	C	1.560014	0.666538	0.234508
C160	C	0.894446	-0.000136	-0.363933
C161	C	1.227779	0.333198	-0.030599
C162	C	1.561113	0.666531	0.302734
C163	C	0.888119	-0.000124	0.240339
C164	C	1.221452	0.333209	0.573672
C165	C	1.554785	0.666543	0.907006
C166	C	0.889456	-0.000116	0.324356
C167	C	1.222789	0.333217	0.657689
C168	C	1.556123	0.666550	0.991023
H169	H	0.647548	-0.000082	0.231395
H170	H	0.980881	0.333251	0.564729
H171	H	1.314215	0.666584	0.898062
H172	H	0.773093	-0.000111	-0.111182
H173	H	1.106427	0.333222	0.222151
H174	H	1.439760	0.666555	0.555484
H175	H	0.504342	-0.000102	0.229106
H176	H	0.837676	0.333231	0.562440
H177	H	1.171009	0.666565	0.895773
H178	H	0.107031	-0.000137	0.222753
H179	H	0.440364	0.333196	0.556086
H180	H	0.773697	0.666530	0.889420
H181	H	1.023355	-0.000182	-0.144384
H182	H	1.356688	0.333152	0.188949
H183	H	1.690022	0.666485	0.522283
H184	H	0.769051	-0.696279	-0.023032
H185	H	1.102384	-0.362946	0.310301
H186	H	1.435717	-0.029612	0.643635
H187	H	0.250249	-0.000121	0.225042
H188	H	0.583582	0.333212	0.558375
H189	H	0.916916	0.666545	0.891709
H190	H	0.807866	-0.374212	0.015850
H191	H	1.141199	-0.040879	0.349183
H192	H	1.474533	0.292454	0.682517
H193	H	0.140249	-0.000176	-0.027493
H194	H	0.473582	0.333158	0.305840
H195	H	0.806916	0.666491	0.639174
H196	H	0.283458	-0.000174	-0.025204
H197	H	0.616791	0.333159	0.308130
H198	H	0.950125	0.666493	0.641463
H199	H	0.764443	-0.000101	-0.651707
H200	H	1.097776	0.333232	-0.318374
H201	H	1.431109	0.666566	0.014960
H202	H	0.537548	-0.000159	-0.021132
H203	H	0.870881	0.333175	0.312202
H204	H	1.204215	0.666508	0.645535
H205	H	0.680766	-0.000130	-0.018850
H206	H	1.014099	0.333204	0.314483
H207	H	1.347433	0.666537	0.647816
H208	H	0.852543	-0.304051	0.060572
H209	H	1.185876	0.029283	0.393906
H210	H	1.519209	0.362616	0.727239
H211	H	0.739522	-0.481589	-0.052567
H212	H	1.072855	-0.148255	0.280766
H213	H	1.406189	0.185078	0.614100
H214	H	0.766731	-0.000092	-0.508499
H215	H	1.100064	0.333241	-0.175166
H216	H	1.433398	0.666575	0.158167
H217	H	1.016993	-0.000160	-0.541692
H218	H	1.350327	0.333173	-0.208358
H219	H	1.683660	0.666507	0.124975
H220	H	0.958531	-0.803584	0.166612
H221	H	1.291864	-0.470251	0.499945
H222	H	1.625198	-0.136917	0.833278
H223	H	1.026897	-0.696208	0.235025
H224	H	1.360230	-0.362875	0.568359
H225	H	1.693564	-0.029542	0.901692
H226	H	1.048288	-0.518712	0.256469
H227	H	1.381621	-0.185378	0.589803
H228	H	1.714955	0.147955	0.923136
H229	H	0.770806	-0.000100	-0.254406
H230	H	1.104139	0.333233	0.078927
H231	H	1.437473	0.666566	0.412261
H232	H	1.018771	-0.304007	0.226939
H233	H	1.352105	0.029326	0.560272
H234	H	1.685438	0.362659	0.893605
H235	H	1.021061	-0.000165	-0.287595
H236	H	1.354394	0.333168	0.045739
H237	H	1.687728	0.666502	0.379072
H238	H	1.014701	-0.000152	-0.684913
H239	H	1.348034	0.333181	-0.351580
H240	H	1.681368	0.666514	-0.018247
