data_functionalizedCrystal
_audit_creation_method	'MofGen! by Chris Wilmer'
_symmetry_space_group_name_H-M	'P1'
_symmetry_Int_Tables_number	1
_symmetry_cell_setting	triclinic
loop_
_symmetry_equiv_pos_as_xyz
  x,y,z
_cell_length_a	17.019282
_cell_length_b	17.038272
_cell_length_c	10.268362
_cell_angle_alpha	89.994496
_cell_angle_beta	93.876638
_cell_angle_gamma	87.241387
loop_
_atom_site_label
_atom_site_type_symbol
_atom_site_fract_x
_atom_site_fract_y
_atom_site_fract_z
O1	O	1.053361	0.099546	0.009875
O2	O	0.824549	0.112259	-0.015798
O3	O	0.937595	-0.007912	-0.003104
O4	O	0.940315	0.219716	-0.002819
O5	O	0.937584	-0.007917	0.213496
O6	O	0.824538	0.112254	0.200801
O7	O	1.053350	0.099541	0.226475
Cu8	Cu	0.938943	0.105897	0.233415
Cu9	Cu	0.938956	0.105903	-0.022739
O10	O	0.940304	0.219711	0.213780
C11	C	0.795122	0.111776	0.089201
C12	C	0.707455	0.110336	0.079364
C13	C	0.666268	0.109656	0.192815
C14	C	0.583896	0.108290	0.183576
C15	C	0.542713	0.107612	0.060886
C16	C	0.583906	0.108290	-0.052573
C17	C	0.666277	0.109650	-0.043333
C18	C	0.294008	0.103501	0.027082
C19	C	0.211632	0.102144	0.017850
C20	C	0.211627	0.102143	0.254000
C21	C	0.293999	0.103507	0.263229
C22	C	0.335185	0.104181	0.149770
C23	C	0.458516	0.106219	0.051440
C24	C	0.419381	0.105569	0.159218
C25	C	0.935116	-0.037040	0.104918
C26	C	0.927736	-0.123827	0.104090
C27	C	0.995496	-0.174002	0.111694
C28	C	0.988556	-0.255547	0.110903
C29	C	0.913856	-0.286913	0.102517
C30	C	0.846091	-0.236731	0.094908
C31	C	0.853031	-0.155188	0.095690
C32	C	0.889339	-0.532649	0.099748
C33	C	0.882404	-0.614198	0.098971
C34	C	1.024869	-0.633008	0.114963
C35	C	1.031803	-0.551463	0.115752
C36	C	0.964038	-0.501288	0.108137
C37	C	0.906762	-0.370264	0.101713
C38	C	0.971133	-0.417938	0.108932
C39	C	1.082777	0.100023	0.121473
C40	C	1.170444	0.101463	0.131301
C41	C	0.942783	0.248840	0.105755
C42	C	0.950164	0.335626	0.106575
N43	N	0.938940	0.105892	0.413581
N44	N	0.938965	0.105901	-0.202904
C45	C	0.938952	0.105901	0.679253
C46	C	0.938943	0.105898	0.531414
H47	H	0.178084	0.101592	0.346372
F48	F	1.060677	-0.308945	0.118999
H49	H	0.550369	0.107732	-0.152469
F50	F	0.710111	0.110372	-0.164083
F51	F	0.827262	-0.403655	0.092782
H52	H	0.785269	-0.262276	0.088072
F53	F	0.463213	0.106288	0.289789
F54	F	0.337831	0.104220	-0.093673
H55	H	0.834159	-0.491806	0.093548
H56	H	0.424976	0.105666	-0.048455
F57	F	0.710090	0.110383	0.323399
F58	F	0.540064	0.107576	0.304326
F59	F	1.096984	-0.686413	0.123066
F60	F	1.075002	-0.140628	0.120632
H61	H	0.178102	0.101594	-0.082064
H62	H	1.031954	-0.392396	0.115731
H63	H	1.092631	-0.525931	0.122581
F64	F	0.780912	-0.101787	0.087593
F65	F	0.337823	0.104233	0.393813
F66	F	0.802894	-0.647578	0.090052
