data_functionalizedCrystal
_audit_creation_method	'MofGen! by Chris Wilmer'
_symmetry_space_group_name_H-M	'P1'
_symmetry_Int_Tables_number	1
_symmetry_cell_setting	triclinic
loop_
_symmetry_equiv_pos_as_xyz
  x,y,z
_cell_length_a	17.639617
_cell_length_b	12.645330
_cell_length_c	17.640968
_cell_angle_alpha	78.768500
_cell_angle_beta	70.333968
_cell_angle_gamma	101.198358
loop_
_atom_site_label
_atom_site_type_symbol
_atom_site_fract_x
_atom_site_fract_y
_atom_site_fract_z
Zn1	Zn	1.354368	0.140214	-0.721240
Zn2	Zn	1.326428	-0.082013	-0.583403
Zn3	Zn	1.188669	0.050377	-0.555514
Zn4	Zn	1.216517	-0.081909	-0.693286
O5	O	1.271495	0.006667	-0.638361
O6	O	1.466005	0.148289	-0.726327
O7	O	1.284806	-0.102091	-0.464360
O8	O	1.210687	0.210659	-0.577525
O9	O	1.445478	-0.014980	-0.625059
O10	O	1.332426	0.276662	-0.699283
O11	O	1.183595	-0.004825	-0.443870
O12	O	1.077019	-0.004725	-0.550418
O13	O	1.258151	-0.014804	-0.812338
O14	O	1.097479	-0.101915	-0.651639
O15	O	1.359429	0.148389	-0.832876
O16	O	1.311810	-0.230364	-0.597952
O17	O	1.231059	-0.230288	-0.678683
C18	C	1.057342	-0.063058	-0.594970
C19	C	0.965730	-0.092906	-0.576426
C20	C	0.717916	0.233507	-0.779437
C21	C	0.631829	0.205429	-0.761996
C22	C	0.610445	0.035592	-0.656394
C23	C	0.696532	0.063654	-0.673829
C24	C	0.750261	0.162613	-0.735351
C25	C	0.728877	-0.007240	-0.629742
C26	C	0.814956	0.020822	-0.647173
C27	C	0.868690	0.119779	-0.708690
C28	C	0.836340	0.190676	-0.752782
C29	C	0.675146	-0.106195	-0.568216
C30	C	0.707491	-0.177089	-0.524130
C31	C	0.793573	-0.149031	-0.541564
C32	C	0.847306	-0.050074	-0.603082
C33	C	0.825923	-0.219928	-0.497473
C34	C	0.912002	-0.191865	-0.514904
C35	C	0.933385	-0.022012	-0.620513
C36	C	1.271450	-0.268782	-0.638333
C37	C	1.271512	-0.386587	-0.638364
C38	C	1.322184	-0.554230	-0.587426
C39	C	1.322422	-0.431552	-0.587625
C40	C	1.312633	-0.394986	-0.730014
C41	C	1.313069	-0.517530	-0.729777
C42	C	1.179867	-0.589535	-0.598502
C43	C	1.179891	-0.467430	-0.596639
C44	C	1.486485	0.076664	-0.681922
C45	C	1.578101	0.106492	-0.700485
C46	C	1.315013	0.076825	-0.853350
C47	C	1.333558	0.106722	-0.944966
C48	C	1.271567	0.283206	-0.638411
C49	C	1.271597	0.401050	-0.638433
C50	C	1.130930	-0.219778	-1.192819
C51	C	1.148373	-0.191666	-1.278909
C52	C	1.253825	-0.021748	-1.300283
C53	C	1.236388	-0.049843	-1.214193
C54	C	1.174940	-0.148860	-1.160467
C55	C	1.280398	0.021075	-1.181840
C56	C	1.262965	-0.007021	-1.095758
C57	C	1.201522	-0.106035	-1.042027
C58	C	1.157507	-0.176956	-1.074384
C59	C	1.341850	0.120088	-1.235568
C60	C	1.385860	0.191006	-1.203216
C61	C	1.368423	0.162915	-1.117131
C62	C	1.306980	0.063900	-1.063401
C63	C	1.412438	0.233836	-1.084774
C64	C	1.395006	0.205740	-0.998691
C65	C	1.289548	0.035804	-0.977318
C66	C	1.228194	-0.063126	-0.424217
C67	C	1.209809	-0.092672	-0.332635
H68	H	1.294660	-0.427342	-0.520220
N69	N	1.068171	-0.320925	-1.137922
N70	N	1.052622	-0.345997	-1.061066
H71	H	1.008303	-0.417430	-1.022294
H72	H	0.977135	0.058568	-0.670613
N73	N	0.772795	0.334592	-0.842289
N74	N	0.743909	0.397883	-0.881652
H75	H	0.782666	0.469274	-0.926038
N76	N	0.771045	-0.321002	-0.434621
N77	N	0.765263	-0.335501	-0.360520
H78	H	0.726506	-0.406886	-0.316127
N79	N	1.137195	-0.662608	-0.514962
N80	N	1.063226	-0.666542	-0.473080
H81	H	1.033095	-0.718148	-0.414077
H82	H	1.389389	-0.559288	-0.615002
H83	H	1.435893	0.271624	-1.246971
H84	H	1.112529	-0.249424	-1.305246
N85	N	0.956622	0.148460	-0.726517
N86	N	1.004584	0.236815	-0.781450
H87	H	1.066687	0.257072	-0.794043
N88	N	0.891230	0.291770	-0.815615
N89	N	0.933401	0.365598	-0.796424
H90	H	0.972169	0.436994	-0.840797
H91	H	1.239491	-0.044807	-0.933567
H92	H	1.141960	-0.618791	-0.635437
H93	H	1.277670	-0.364520	-0.769793
H94	H	0.938337	-0.249594	-0.479004
H95	H	0.605498	0.263171	-0.797897
H96	H	1.107451	-0.257567	-1.030633
H97	H	1.379549	-0.337420	-0.761955
N98	N	1.475199	0.334984	-1.139645
N99	N	1.514485	0.398300	-1.110747
H100	H	1.558810	0.469740	-1.149498
H101	H	1.278797	-0.545557	-0.770046
N102	N	1.141402	-0.464448	-0.511918
N103	N	1.181245	-0.403039	-0.482324
H104	H	1.154066	-0.400928	-0.422489
N105	N	1.183713	-0.134717	-0.954095
N106	N	1.158723	-0.070161	-0.912200
H107	H	1.146144	-0.090415	-0.850097
N108	N	0.652616	-0.278169	-0.461282
N109	N	0.646831	-0.292678	-0.387180
H110	H	0.608077	-0.364068	-0.342792
H111	H	1.390007	-0.376305	-0.615436
H112	H	1.303858	0.058870	-1.344039
N113	N	1.397840	-0.519531	-0.769637
N114	N	1.456270	-0.430588	-0.797435
H115	H	1.516142	-0.431995	-0.825586
H116	H	1.138742	-0.439006	-0.629646
H117	H	1.294568	-0.609577	-0.519871
N118	N	1.359675	0.148782	-1.323504
N119	N	1.384663	0.084227	-1.365400
H120	H	1.397255	0.104491	-1.427505
H121	H	1.430842	0.263490	-0.972350
H122	H	0.566687	-0.044978	-0.606300
N123	N	0.587214	-0.134880	-0.550390
N124	N	0.535780	-0.146095	-0.478339
H125	H	0.473677	-0.166355	-0.465747
