data_functionalizedCrystal
_audit_creation_method	'MofGen! by Chris Wilmer'
_symmetry_space_group_name_H-M	'P1'
_symmetry_Int_Tables_number	1
_symmetry_cell_setting	triclinic
loop_
_symmetry_equiv_pos_as_xyz
  x,y,z
_cell_length_a	14.446369
_cell_length_b	14.446369
_cell_length_c	14.446369
_cell_angle_alpha	90.002030
_cell_angle_beta	59.999699
_cell_angle_gamma	59.996622
loop_
_atom_site_label
_atom_site_type_symbol
_atom_site_fract_x
_atom_site_fract_y
_atom_site_fract_z
Zr1	Zr	1.013199	-0.121494	0.891773
O2	O	1.206335	-0.269317	0.743958
O3	O	0.820075	-0.076172	0.937086
O4	O	1.013205	-0.269301	0.937077
O5	O	1.013197	0.076149	0.743975
O6	O	1.013197	-0.269296	1.089414
O7	O	1.013205	-0.076188	0.743966
O8	O	0.667723	0.076178	1.089429
O9	O	1.358671	-0.269324	0.743959
O10	O	0.899500	-0.056846	1.070100
O11	O	0.899500	0.056838	0.956418
O12	O	1.126885	-0.170548	0.956408
O13	O	1.126885	-0.056864	0.842727
Zr14	Zr	1.013173	0.121475	1.134746
Zr15	Zr	1.013186	-0.121485	1.134733
Zr16	Zr	1.013186	0.121466	0.891786
Zr17	Zr	1.256157	-0.121505	0.891776
Zr18	Zr	0.770215	0.121486	1.134744
O19	O	1.206297	0.076153	1.089434
O20	O	1.206316	-0.269305	1.089416
O21	O	1.206316	0.076141	0.743976
O22	O	0.820037	0.269299	1.282562
O23	O	0.820056	-0.076159	1.282544
O24	O	0.820056	0.269286	0.937104
O25	O	1.013176	-0.076168	1.282545
O26	O	1.013167	0.269283	1.089443
O27	O	1.013176	0.269277	0.937106
O28	O	1.013167	0.076169	1.282553
O29	O	1.358660	-0.269317	0.937080
O30	O	0.667712	0.269299	1.089440
O31	O	0.667702	0.269306	1.282561
O32	O	0.667712	0.076185	1.282550
O33	O	1.358660	-0.076204	0.743969
O34	O	1.358649	-0.076196	0.937090
O35	O	0.899487	0.170529	1.070112
O36	O	0.899487	0.056846	1.183793
O37	O	1.126873	-0.056856	1.070102
O38	O	1.126873	0.056827	0.956420
C39	C	0.709283	0.000005	1.013257
C40	C	0.606141	0.000009	1.013256
C41	C	1.013203	-0.000020	0.709354
C42	C	1.013208	-0.000024	0.606211
C43	C	1.013169	0.303897	1.013276
C44	C	1.013164	0.407040	1.013282
C45	C	0.459131	0.072038	0.941901
C46	C	0.566751	0.071747	0.941513
C47	C	0.655147	-0.123534	0.960943
C48	C	0.547914	-0.123160	0.960407
C49	C	0.372673	0.050462	1.136975
C50	C	0.478824	0.052982	1.136793
C51	C	1.317089	-0.000023	1.013263
C52	C	1.420231	-0.000028	1.013264
C53	C	1.013203	-0.303915	1.013244
C54	C	1.013208	-0.407058	1.013238
C55	C	0.869767	0.625418	1.084615
C56	C	0.869670	0.518186	1.085024
C57	C	1.084393	0.410370	1.065580
C58	C	1.083482	0.518139	1.066095
C59	C	1.086445	0.516753	0.889535
C60	C	1.083743	0.410784	0.889738
C61	C	1.156605	-0.071375	0.387839
C62	C	1.156702	-0.071776	0.495071
C63	C	0.941980	-0.052322	0.602884
C64	C	0.942890	-0.052845	0.495115
C65	C	0.939927	0.123715	0.496488
C66	C	0.942630	0.123520	0.602457
C67	C	1.013169	0.000002	1.317166
C68	C	1.013164	0.000006	1.420309
C69	C	0.709266	0.000016	1.317163
C70	C	0.606118	0.000024	1.420305
C71	C	0.709266	0.303911	1.013273
C72	C	0.606118	0.407058	1.013278
C73	C	0.709249	0.303922	1.317179
C74	C	0.606096	0.407073	1.420327
C75	C	1.317123	-0.303940	0.709340
C76	C	1.420276	-0.407092	0.606193
C77	C	1.317106	-0.000034	0.709357
C78	C	1.420254	-0.000043	0.606215
C79	C	1.317106	-0.303929	1.013246
C80	C	1.420254	-0.407077	1.013242
C81	C	0.459789	0.071367	1.638677
C82	C	0.566718	0.071769	1.531446
C83	C	0.479257	0.052329	1.423635
C84	C	0.371874	0.052852	1.531403
C85	C	0.546862	-0.123717	1.530022
C86	C	0.655340	-0.123521	1.424054
C87	C	0.459800	0.482049	0.941232
C88	C	0.566732	0.374710	0.941531
C89	C	0.479251	0.481627	1.136814
C90	C	0.371864	0.588496	1.136431
C91	C	0.546846	0.590068	0.962826
C92	C	0.655328	0.481385	0.960313
C93	C	0.459738	0.625452	1.495324
C94	C	0.566694	0.518211	1.387985
C95	C	0.479243	0.410393	1.494870
C96	C	0.371833	0.518171	1.601739
C97	C	0.546777	0.516824	1.603355
C98	C	0.655282	0.410846	1.494673
H99	H	0.530034	0.162720	0.976604
H100	H	0.341868	0.491521	1.680321
F101	F	1.015850	0.411472	0.838673
F102	F	0.250167	0.167562	1.194084
F103	F	0.338725	-0.017820	1.206799
F104	F	0.428850	0.414176	1.189999
F105	F	0.505809	0.026715	0.823347
H106	H	0.586423	0.594180	0.873235
F107	F	1.229746	-0.025926	0.492966
F108	F	0.796622	0.520292	1.039178
H109	H	1.212631	-0.162081	0.332850
F110	F	0.428845	0.170189	1.420856
F111	F	1.220694	0.307450	0.814457
F112	F	1.230223	-0.191056	0.491863
F113	F	0.342582	0.189933	1.710540
H114	H	0.656070	0.036689	1.533058
H115	H	0.836474	-0.002835	0.681154
H116	H	0.745831	0.429955	0.869304
F117	F	0.332688	0.691217	1.210437
F118	F	0.697325	0.514741	1.021782
H119	H	0.993516	-0.143879	0.444766
F120	F	0.428865	0.407591	1.427401
F121	F	0.514367	0.480952	1.705588
F122	F	0.342599	0.480701	0.986562
H123	H	0.813472	0.679376	1.049713
F124	F	1.224564	0.480863	0.819699
F125	F	0.683476	0.520328	1.317056
H126	H	0.745831	-0.162594	1.424573
F127	F	0.517769	0.304401	0.987287
F128	F	0.508480	0.478988	0.822027
F129	F	0.697281	0.307382	1.528033
F130	F	0.253239	0.588146	1.189243
H131	H	1.212898	-0.036473	0.333886
H132	H	0.496960	0.679419	1.493003
F133	F	0.801808	0.193555	0.532373
H134	H	0.586434	-0.167408	1.580038
F135	F	0.508326	0.308091	1.530459
H136	H	0.370074	0.680428	1.494281
H137	H	0.522048	0.668290	1.015068
H138	H	0.529246	0.520656	1.334184
H139	H	0.497029	0.036463	1.692632
F140	F	0.805337	0.010704	0.529951
H141	H	0.991460	-0.142491	0.605015
H142	H	0.655559	0.036744	0.850260
F143	F	0.598474	0.582215	1.608760
F144	F	0.508318	0.517224	1.210043
F145	F	0.519186	-0.197144	1.023966
F146	F	0.517744	0.191050	1.534661
H147	H	0.500325	0.005953	1.194444
F148	F	0.999901	0.180826	0.431105
H149	H	0.813743	0.680408	1.175318
H150	H	0.994565	0.162590	0.601941
H151	H	0.837942	0.181178	0.681618
F152	F	0.514468	-0.193552	1.494141
H153	H	0.813425	0.520649	1.176280
F154	F	0.253215	0.583972	1.601372
H155	H	0.687473	-0.181174	1.344893
F156	F	1.026454	0.582126	0.832427
F157	F	0.332719	-0.010704	1.496566
F158	F	0.342972	0.191252	0.987539
F159	F	0.601114	-0.175988	0.841419
F160	F	0.508338	-0.012343	1.321330
H161	H	1.188723	0.491479	1.017463
H162	H	0.281110	0.143885	1.581755
F163	F	0.692830	-0.196769	1.025583
H164	H	0.656091	0.320431	0.850563
F165	F	0.773553	0.411534	1.427482
H166	H	0.747461	-0.164229	0.870779
H167	H	0.439216	0.143998	1.175875
H168	H	1.189899	0.332096	1.016099
F169	F	1.017308	0.583962	1.185076
H170	H	1.034912	0.408247	1.155749
