data_functionalizedCrystal
_audit_creation_method	'MofGen! by Chris Wilmer'
_symmetry_space_group_name_H-M	'P1'
_symmetry_Int_Tables_number	1
_symmetry_cell_setting	triclinic
loop_
_symmetry_equiv_pos_as_xyz
  x,y,z
_cell_length_a	24.447405
_cell_length_b	24.446649
_cell_length_c	24.443239
_cell_angle_alpha	60.006064
_cell_angle_beta	60.011844
_cell_angle_gamma	59.992812
loop_
_atom_site_label
_atom_site_type_symbol
_atom_site_fract_x
_atom_site_fract_y
_atom_site_fract_z
O1	O	0.075907	-0.799232	0.668277
O2	O	0.028634	-0.622262	0.538455
O3	O	0.140702	-0.734230	0.538349
O4	O	-0.036160	-0.687265	0.668384
O5	O	0.177886	-0.697056	0.575424
O6	O	0.065818	-0.585088	0.575530
O7	O	0.113091	-0.762059	0.705353
Cu8	Cu	0.092850	-0.670179	0.643827
Cu9	Cu	0.048876	-0.714142	0.599981
O10	O	0.001024	-0.650091	0.705459
N11	N	0.123780	-0.639263	0.674669
N12	N	0.017951	-0.745064	0.569139
C13	C	0.170236	-0.489965	0.721065
C14	C	0.170249	-0.592837	0.721058
C15	C	0.195989	-0.567121	0.746758
C16	C	0.308182	-0.547773	0.687664
C17	C	0.378316	-0.571143	0.664253
C18	C	0.378353	-0.684626	0.707525
C19	C	0.308220	-0.661254	0.730938
C20	C	0.187125	-0.454882	0.652117
C21	C	0.163710	-0.384741	0.628763
C22	C	0.106523	-0.384772	0.743308
C23	C	0.129938	-0.454913	0.766662
C24	C	0.101291	-0.575906	0.738041
C25	C	0.077897	-0.599283	0.714670
C26	C	0.192412	-0.656523	0.657348
C27	C	0.215809	-0.633146	0.680711
C28	C	0.101393	-0.575928	0.859014
C29	C	0.078071	-0.599328	0.929152
C30	C	0.192636	-0.656582	0.929078
C31	C	0.215955	-0.633184	0.858938
C32	C	0.170332	-0.592855	0.823908
C33	C	0.273137	-0.592827	0.721004
C34	C	-0.131205	-0.791294	0.522327
C35	C	-0.028388	-0.791420	0.522551
C36	C	-0.054056	-0.817099	0.496741
C37	C	-0.073479	-0.929255	0.555734
C38	C	-0.050156	-0.999396	0.579142
C39	C	0.063326	-0.999525	0.536064
C40	C	0.040001	-0.929386	0.512654
C41	C	-0.166365	-0.808188	0.591256
C42	C	-0.236499	-0.784726	0.614512
C43	C	-0.236309	-0.727482	0.499907
C44	C	-0.166175	-0.750944	0.476651
C45	C	-0.045285	-0.722468	0.505590
C46	C	-0.021951	-0.699130	0.529061
C47	C	0.035176	-0.813691	0.586439
C48	C	0.011842	-0.837031	0.562976
C49	C	-0.045097	-0.722476	0.384488
C50	C	-0.021613	-0.699140	0.314350
C51	C	0.035607	-0.813706	0.314419
C52	C	0.012124	-0.837041	0.384558
C53	C	-0.028229	-0.791425	0.419591
C54	C	-0.028402	-0.894253	0.522492
N55	N	0.412405	-0.639229	0.674505
O56	O	0.626552	-0.645384	0.514503
O57	O	0.626802	-0.775625	0.691288
O58	O	0.626698	-0.775326	0.579168
O59	O	0.626656	-0.645683	0.626623
O60	O	0.515277	-0.738265	0.616407
O61	O	0.515382	-0.738564	0.728527
O62	O	0.515131	-0.608323	0.551742
Cu63	Cu	0.505083	-0.670059	0.643535
Cu64	Cu	0.636850	-0.713889	0.599495
O65	O	0.515236	-0.608622	0.663862
N66	N	0.729529	-0.744719	0.568518
N67	N	0.123755	-0.350686	0.674680
O68	O	-0.036153	-0.136410	0.668391
O69	O	0.140633	-0.136380	0.538141
O70	O	0.028472	-0.136412	0.538488
O71	O	0.076007	-0.136377	0.668044
O72	O	0.065663	-0.247842	0.575621
O73	O	0.177823	-0.247810	0.575274
O74	O	0.001037	-0.247840	0.705524
Cu75	Cu	0.092826	-0.258000	0.643789
Cu76	Cu	0.048844	-0.126220	0.599875
O77	O	0.113198	-0.247808	0.705177
N78	N	0.017907	-0.033534	0.568986
N79	N	0.124013	-0.639306	0.963182
O80	O	0.117754	-0.799195	1.177439
O81	O	-0.012458	-0.622342	1.177485
O82	O	-0.012155	-0.734480	1.177444
O83	O	0.117450	-0.687057	1.177480
O84	O	0.024954	-0.697317	1.066020
O85	O	0.024650	-0.585179	1.066061
O86	O	0.154862	-0.762032	1.066014
Cu87	Cu	0.093145	-0.670212	1.055863
Cu88	Cu	0.049259	-0.714162	1.187636
O89	O	0.154559	-0.649894	1.066055
N90	N	0.018389	-0.745075	1.280318
C91	C	0.042795	-0.581375	0.539107
C92	C	0.181576	-0.720034	0.538975
C93	C	0.098930	-0.802946	0.704700
C94	C	-0.039851	-0.664287	0.704832
C95	C	0.571122	-0.775030	0.732180
C96	C	0.570995	-0.774660	0.593332
C97	C	0.570808	-0.608917	0.510851
C98	C	0.570939	-0.609288	0.649698
C99	C	0.181453	-0.191954	0.538725
C100	C	0.042602	-0.192131	0.539201
C101	C	-0.039829	-0.192128	0.704893
C102	C	0.099069	-0.192090	0.704464
C103	C	-0.011836	-0.581480	1.121779
C104	C	-0.011453	-0.720342	1.121706
C105	C	0.154240	-0.802894	1.121720
C106	C	0.153865	-0.664024	1.121769
H107	H	0.021932	-0.585534	0.957726
O108	O	-0.132120	-0.734501	0.409667
C109	C	-0.178025	-0.693842	0.374340
H110	H	-0.228052	-0.702723	0.407708
H111	H	-0.185442	-0.638916	0.359215
C112	C	-0.089126	-0.700718	0.270124
C113	C	-0.150569	-0.711631	0.311105
H114	H	-0.072190	-0.711688	0.231116
H115	H	-0.058199	-0.728108	0.293924
H116	H	-0.095316	-0.654946	0.257527
H117	H	-0.144377	-0.757403	0.323709
H118	H	-0.181495	-0.684248	0.287306
H119	H	-0.090599	-0.192138	0.745784
O120	O	0.570955	-0.560637	0.661685
C121	C	0.570848	-0.502798	0.604179
H122	H	0.591905	-0.517414	0.558110
H123	H	0.517371	-0.466390	0.609636
C124	C	0.588663	-0.451105	0.652805
C125	C	0.614530	-0.469057	0.596221
H126	H	0.615605	-0.430290	0.647898
H127	H	0.588732	-0.490071	0.691550
H128	H	0.544099	-0.420768	0.657347
H129	H	0.659090	-0.499400	0.591685
H130	H	0.614469	-0.430096	0.557476
O131	O	-0.100423	-0.652473	0.753613
C132	C	-0.100461	-0.710089	0.811342
H133	H	-0.060815	-0.756069	0.796570
H134	H	-0.088760	-0.704707	0.847739
C135	C	-0.218559	-0.661710	0.863336
C136	C	-0.169869	-0.718184	0.845191
H137	H	-0.261373	-0.666702	0.884218
H138	H	-0.218533	-0.622891	0.824444
H139	H	-0.208799	-0.657231	0.893664
H140	H	-0.179624	-0.722657	0.814858
H141	H	-0.169898	-0.757004	0.884079
O142	O	0.030564	-0.192112	0.490557
C143	C	0.088074	-0.192123	0.432734
H144	H	0.120073	-0.171015	0.433284
H145	H	0.118321	-0.245581	0.431929
C146	C	0.027513	-0.174358	0.369243
C147	C	0.066811	-0.148428	0.369915
H148	H	0.014397	-0.147407	0.330492
H149	H	-0.011233	-0.174353	0.408199
H150	H	0.052724	-0.218906	0.368575
H151	H	0.041597	-0.103884	0.370591
H152	H	0.105551	-0.148424	0.330957
H153	H	0.571186	-0.815915	0.782955
H154	H	0.032695	-0.530537	0.498334
O155	O	0.242171	-0.732080	0.490279
C156	C	0.254142	-0.786289	0.474796
H157	H	0.222840	-0.818480	0.519102
H158	H	0.239739	-0.766381	0.428848
C159	C	0.367404	-0.789372	0.405685
C160	C	0.328963	-0.828914	0.460105
H161	H	0.413557	-0.815664	0.396620
H162	H	0.359339	-0.752849	0.416114
H163	H	0.355393	-0.772785	0.367401
H164	H	0.340967	-0.845493	0.498389
H165	H	0.337032	-0.865441	0.449682
H166	H	0.195123	-0.853684	1.121698
H167	H	0.571013	-0.815386	0.583175
O168	O	0.111332	-0.192121	0.752964
C169	C	0.177182	-0.192094	0.728535
H170	H	0.208854	-0.213179	0.685520
H171	H	0.176182	-0.138633	0.709852
C172	C	0.168778	-0.209901	0.838025
C173	C	0.207680	-0.235804	0.785197
H174	H	0.187590	-0.236860	0.872976
H175	H	0.124413	-0.209917	0.854483
H176	H	0.167948	-0.165351	0.822447
H177	H	0.208503	-0.280350	0.800773
H178	H	0.252046	-0.235796	0.768742
H179	H	0.570727	-0.568026	0.460082
O180	O	0.241921	-0.191541	0.489880
C181	C	0.283601	-0.191415	0.513936
H182	H	0.251382	-0.170541	0.557101
H183	H	0.317695	-0.244801	0.532296
C184	C	0.366169	-0.172999	0.404088
C185	C	0.326597	-0.147355	0.457100
H186	H	0.392694	-0.145823	0.369028
H187	H	0.338090	-0.173086	0.387881
H188	H	0.394574	-0.217486	0.419396
H189	H	0.298187	-0.102872	0.441793
H190	H	0.354672	-0.147259	0.473303
O191	O	0.111074	-0.863640	0.753262
C192	C	0.176920	-0.905188	0.728953
H193	H	0.194583	-0.886929	0.671887
H194	H	0.211585	-0.903342	0.745899
C195	C	0.156464	-1.000161	0.826686
C196	C	0.178156	-0.977737	0.756596
H197	H	0.157228	-1.044913	0.843739
H198	H	0.112103	-0.972169	0.843065
H199	H	0.185355	-0.998616	0.840798
H200	H	0.149261	-0.979274	0.742485
H201	H	0.222513	-1.005732	0.740215
O202	O	-0.060545	-0.520859	1.121824
C203	C	-0.036425	-0.479164	1.121824
H204	H	0.006590	-0.511384	1.142916
H205	H	-0.017838	-0.445325	1.068374
C206	C	-0.146125	-0.396233	1.139630
C207	C	-0.093296	-0.435806	1.165541
H208	H	-0.181205	-0.369485	1.166594
H209	H	-0.162375	-0.424322	1.139627
H210	H	-0.130626	-0.368039	1.095088
H211	H	-0.108793	-0.464004	1.210079
H212	H	-0.077050	-0.407720	1.165552
H213	H	-0.052152	-0.730472	1.121651
H214	H	0.194582	-0.653876	1.121771
H215	H	0.064236	-0.543084	0.830495
O216	O	-0.084190	-0.678141	0.418494
C217	C	-0.048763	-0.637640	0.401423
H218	H	0.007347	-0.664780	0.382223
H219	H	-0.063626	-0.588359	0.360675
C220	C	-0.134695	-0.589977	0.487337
C221	C	-0.065781	-0.623312	0.463760
H222	H	-0.145194	-0.581135	0.525788
H223	H	-0.158565	-0.617260	0.498837
H224	H	-0.147073	-0.548913	0.453375
H225	H	-0.053406	-0.664378	0.497719
H226	H	-0.041909	-0.596035	0.452267
O227	O	0.236982	-0.695840	0.963070
C228	C	0.277551	-0.754647	0.945891
H229	H	0.250451	-0.764408	0.926635
H230	H	0.326798	-0.748255	0.905154
C231	C	0.325231	-0.802348	1.031820
C232	C	0.291944	-0.814339	1.008174
H233	H	0.334113	-0.839169	1.070237
H234	H	0.297902	-0.762727	1.043392
H235	H	0.366267	-0.797020	0.997866
H236	H	0.250905	-0.819659	1.042125
H237	H	0.319267	-0.853963	0.996608
O238	O	0.057006	-0.536652	0.777129
C239	C	0.016405	-0.477832	0.741751
H240	H	0.043449	-0.468066	0.685633
H241	H	-0.032867	-0.484211	0.756704
C242	C	-0.031135	-0.430153	0.827637
C243	C	0.002084	-0.418154	0.758712
H244	H	-0.039972	-0.393340	0.838101
H245	H	-0.003783	-0.469782	0.851473
H246	H	-0.072191	-0.435470	0.840090
H247	H	0.043143	-0.412846	0.746262
H248	H	-0.025261	-0.378523	0.734873
O249	O	0.010907	-0.582924	0.731279
C250	C	-0.018165	-0.606922	0.801533
H251	H	0.021804	-0.650177	0.824108
H252	H	-0.040305	-0.564853	0.822322
C253	C	-0.123095	-0.578409	0.791969
C254	C	-0.074006	-0.631539	0.819695
H255	H	-0.157542	-0.593592	0.803173
H256	H	-0.103510	-0.562239	0.744638
H257	H	-0.141537	-0.543356	0.809296
H258	H	-0.055558	-0.666587	0.802361
H259	H	-0.093589	-0.647716	0.867024
H260	H	0.068452	-0.850855	0.285902
O261	O	0.236706	-0.695576	0.618062
C262	C	0.277220	-0.660139	0.559246
H263	H	0.250107	-0.604028	0.549521
H264	H	0.326504	-0.675060	0.565599
C265	C	0.324825	-0.745988	0.511500
C266	C	0.291522	-0.677071	0.499552
H267	H	0.333651	-0.756433	0.474678
H268	H	0.297532	-0.769864	0.551126
H269	H	0.365892	-0.758413	0.516795
H270	H	0.250453	-0.664648	0.494266
H271	H	0.318809	-0.653193	0.459924
O272	O	0.274280	-0.705109	0.763283
C273	C	0.320288	-0.770517	0.767039
H274	H	0.370261	-0.767841	0.725596
H275	H	0.327791	-0.797295	0.817855
C276	C	0.231525	-0.812694	0.809379
C277	C	0.292902	-0.809407	0.758475
H278	H	0.214632	-0.836685	0.804100
H279	H	0.200528	-0.768628	0.806852
H280	H	0.237786	-0.835007	0.851721
H281	H	0.286639	-0.787086	0.716135
H282	H	0.323897	-0.853470	0.760995
H283	H	0.406920	-0.740344	0.715602
O284	O	0.412328	-0.527334	0.631764
C285	C	0.395127	-0.479710	0.573966
H286	H	0.375831	-0.501324	0.557862
H287	H	0.354413	-0.432434	0.585450
C288	C	0.481097	-0.435806	0.536853
C289	C	0.457404	-0.462355	0.517070
H290	H	0.519511	-0.425098	0.501757
H291	H	0.492685	-0.467890	0.575794
H292	H	0.447163	-0.396412	0.546423
H293	H	0.491334	-0.501753	0.507509
H294	H	0.445823	-0.430278	0.478126
O295	O	0.226234	-0.488829	0.607736
C296	C	0.236125	-0.442821	0.541871
H297	H	0.193827	-0.392830	0.542024
H298	H	0.286082	-0.435350	0.521746
C299	C	0.288533	-0.531586	0.496712
C300	C	0.236579	-0.470188	0.496900
H301	H	0.288817	-0.548468	0.468970
H302	H	0.281872	-0.562584	0.541086
H303	H	0.330159	-0.525352	0.479943
H304	H	0.194954	-0.476424	0.513676
H305	H	0.243233	-0.439192	0.452527
H306	H	0.272095	-0.646975	0.830359
H307	H	0.271959	-0.646925	0.666876
H308	H	0.279622	-0.492055	0.679573
O309	O	0.067368	-0.350821	0.787690
C310	C	0.057508	-0.396828	0.853556
H311	H	0.065351	-0.446827	0.853431
H312	H	0.094868	-0.404280	0.873615
C313	C	-0.023955	-0.308066	0.898733
C314	C	-0.014328	-0.369474	0.898580
H315	H	-0.068266	-0.291192	0.926507
H316	H	-0.017311	-0.277070	0.854358
H317	H	0.007182	-0.314284	0.915447
H318	H	-0.045460	-0.363253	0.881858
H319	H	-0.020979	-0.400469	0.942953
O320	O	0.180141	-0.350584	0.561798
C321	C	0.215452	-0.310018	0.544834
H322	H	0.202831	-0.299522	0.591054
H323	H	0.271584	-0.337037	0.525554
C324	C	0.210746	-0.256275	0.433145
C325	C	0.195241	-0.243380	0.489911
H326	H	0.198282	-0.215170	0.399264
H327	H	0.186959	-0.283607	0.444573
H328	H	0.257523	-0.278793	0.417087
H329	H	0.148464	-0.220870	0.505973
H330	H	0.219019	-0.216042	0.478485
O331	O	0.028548	-0.904044	0.418552
C332	C	0.069209	-0.939298	0.372589
H333	H	0.060345	-0.905847	0.322546
H334	H	0.124127	-0.954485	0.365237
C335	C	0.062296	-1.043564	0.461378
C336	C	0.051405	-1.002481	0.399916
H337	H	0.051317	-1.082540	0.478235
H338	H	0.034904	-1.019813	0.492345
H339	H	0.108061	-1.056212	0.455243
H340	H	0.005639	-0.989826	0.406053
H341	H	0.078789	-1.026231	0.368950
H342	H	-0.035357	-0.642993	0.285778
O343	O	0.028226	-0.904023	0.579541
C344	C	0.004130	-0.933141	0.649781
H345	H	-0.002770	-0.899917	0.674381
H346	H	-0.045993	-0.938287	0.665537
C347	C	0.063312	-1.043682	0.641778
C348	C	0.054843	-1.002878	0.671992
H349	H	0.094592	-1.086700	0.655480
H350	H	0.079544	-1.024065	0.594456
H351	H	0.021539	-1.047963	0.654912
H352	H	0.096613	-0.998591	0.658852
H353	H	0.038619	-1.022496	0.719313
O354	O	0.083878	-0.895487	0.480402
C355	C	0.149255	-0.941540	0.476729
H356	H	0.146522	-0.991515	0.518157
H357	H	0.176087	-0.949031	0.425908
C358	C	0.191471	-0.852839	0.434525
C359	C	0.188115	-0.914217	0.485411
H360	H	0.215443	-0.835984	0.439877
H361	H	0.147426	-0.821811	0.436997
H362	H	0.213830	-0.859089	0.392179
H363	H	0.165749	-0.907964	0.527755
H364	H	0.232157	-0.945243	0.482947
O365	O	-0.094048	-1.033295	0.611525
C366	C	-0.159429	-0.987245	0.615217
H367	H	-0.162109	-0.937240	0.610548
H368	H	-0.172528	-0.979828	0.572736
C369	C	-0.206240	-1.075925	0.688674
C370	C	-0.209534	-1.014511	0.682946
H371	H	-0.237148	-1.092745	0.730451
H372	H	-0.162192	-1.106951	0.686185
H373	H	-0.217155	-1.069736	0.653270
H374	H	-0.198611	-1.020702	0.718345
H375	H	-0.253581	-0.983487	0.685442
H376	H	0.116177	-0.483478	0.822809
H377	H	-0.078038	-0.685325	0.472673
H378	H	-0.035712	-0.642984	0.515253
H379	H	0.119026	-1.028132	0.528057
O380	O	-0.132497	-0.847351	0.635713
C381	C	-0.178572	-0.857238	0.701541
H382	H	-0.228534	-0.814906	0.701329
H383	H	-0.186071	-0.907174	0.721613
C384	C	-0.089917	-0.909760	0.746879
C385	C	-0.151279	-0.857764	0.746619
H386	H	-0.073081	-0.910088	0.774687
H387	H	-0.058875	-0.903102	0.702530
H388	H	-0.096174	-0.951368	0.763604
H389	H	-0.145020	-0.816157	0.729887
H390	H	-0.182320	-0.864415	0.790967
H391	H	-0.129177	-0.900656	0.563750
O392	O	-0.270685	-0.801022	0.681468
C393	C	-0.311265	-0.742067	0.698380
H394	H	-0.290073	-0.699970	0.658875
H395	H	-0.364395	-0.727249	0.700607
C396	C	-0.338480	-0.806252	0.815732
C397	C	-0.312448	-0.754550	0.767214
H398	H	-0.339213	-0.813951	0.858194
H399	H	-0.311142	-0.845972	0.804339
H400	H	-0.382752	-0.793897	0.817580
H401	H	-0.268174	-0.766908	0.765362
H402	H	-0.339779	-0.714832	0.778609
H403	H	0.067938	-0.850836	0.619346
H404	H	-0.264783	-0.694634	0.462714
