data_functionalizedCrystal
_audit_creation_method	'MofGen! by Chris Wilmer'
_symmetry_space_group_name_H-M	'P1'
_symmetry_Int_Tables_number	1
_symmetry_cell_setting	triclinic
loop_
_symmetry_equiv_pos_as_xyz
  x,y,z
_cell_length_a	27.731993
_cell_length_b	27.732048
_cell_length_c	11.892095
_cell_angle_alpha	93.851775
_cell_angle_beta	86.145793
_cell_angle_gamma	82.631525
loop_
_atom_site_label
_atom_site_type_symbol
_atom_site_fract_x
_atom_site_fract_y
_atom_site_fract_z
O1	O	0.644049	0.054287	-0.093709
O2	O	0.503254	0.063058	-0.093780
O3	O	0.578023	-0.011724	-0.093721
O4	O	0.569279	0.129069	-0.093768
O5	O	0.571789	-0.005499	0.094282
O6	O	0.497020	0.069284	0.094223
O7	O	0.637815	0.060513	0.094293
Zn8	Zn	0.566427	0.065887	0.124108
Zn9	Zn	0.574641	0.057684	-0.123594
O10	O	0.563045	0.135295	0.094234
C11	C	0.482130	0.065990	0.000213
C12	C	0.428474	0.065447	0.000187
C13	C	0.048710	0.058125	-0.102237
C14	C	0.250369	0.060191	-0.102269
O15	O	0.279332	0.057552	-0.189426
N16	N	0.272191	0.063843	0.000209
C17	C	0.243596	0.066976	0.102702
O18	O	0.266785	0.070124	0.189865
C19	C	0.041939	0.064906	0.102732
C20	C	0.020119	0.061259	0.000248
C21	C	0.026890	0.054477	-0.204714
C22	C	-0.023522	0.053963	-0.204705
C23	C	-0.052114	0.057097	-0.102220
C24	C	-0.030293	0.060745	0.000257
C25	C	0.013345	0.068035	0.205224
C26	C	-0.037072	0.067516	0.205222
C27	C	-0.058892	0.063869	0.102738
C28	C	-0.109297	0.063365	0.102750
N29	N	-0.131119	0.059713	0.000273
C30	C	-0.102528	0.056579	-0.102212
C31	C	0.349468	0.068063	0.102679
C32	C	0.399882	0.068581	0.102672
C33	C	0.406652	0.061795	-0.102299
C34	C	0.356237	0.061281	-0.102291
C35	C	0.327646	0.064411	0.000201
C36	C	-0.208397	0.055501	-0.102186
C37	C	-0.258814	0.054989	-0.102168
C38	C	-0.265579	0.061772	0.102802
C39	C	-0.215167	0.062287	0.102785
C40	C	-0.186576	0.059149	0.000282
O41	O	-0.138289	0.065996	0.189862
O42	O	-0.125724	0.053420	-0.189362
C43	C	0.099122	0.058639	-0.102246
C44	C	0.120943	0.062286	0.000230
C45	C	0.092351	0.065420	0.102715
C46	C	0.171356	0.062805	0.000223
C47	C	0.199948	0.059671	-0.102262
C48	C	0.178126	0.056018	-0.204740
C49	C	0.127714	0.055505	-0.204731
C50	C	0.114173	0.069072	0.205193
C51	C	0.164585	0.069586	0.205175
C52	C	0.193177	0.066453	0.102690
C53	C	0.574723	-0.026618	0.000284
C54	C	0.574169	-0.080273	0.000293
C55	C	0.614876	-0.419097	0.000255
C56	C	0.612825	-0.620757	0.000238
O57	O	0.650048	-0.652021	0.000207
N58	N	0.568489	-0.639873	0.000217
C59	C	0.524663	-0.608570	0.000193
O60	O	0.486907	-0.629457	0.000162
C61	C	0.526715	-0.406912	0.000201
C62	C	0.571053	-0.387798	0.000234
C63	C	0.659210	-0.399983	0.000286
C64	C	0.659722	-0.349571	0.000297
C65	C	0.615899	-0.318273	0.000276
C66	C	0.571565	-0.337386	0.000244
C67	C	0.482890	-0.375610	0.000169
C68	C	0.483406	-0.325193	0.000168
C69	C	0.527745	-0.306080	0.000201
C70	C	0.528254	-0.255676	0.000234
N71	N	0.572590	-0.236560	0.000255
C72	C	0.616412	-0.267858	0.000276
C73	C	0.523589	-0.714444	0.000190
C74	C	0.523076	-0.764858	0.000190
C75	C	0.611238	-0.777042	0.000234
C76	C	0.611751	-0.726626	0.000242
C77	C	0.567925	-0.695328	0.000211
C78	C	0.617484	-0.161989	0.000299
C79	C	0.617992	-0.111571	0.000314
C80	C	0.529831	-0.099393	0.000264
C81	C	0.529322	-0.149805	0.000255
C82	C	0.573153	-0.181103	0.000268
O83	O	0.491052	-0.224384	0.000252
O84	O	0.654165	-0.246963	0.000281
C85	C	0.614364	-0.469509	0.000245
C86	C	0.570029	-0.488623	0.000213
C87	C	0.526206	-0.457324	0.000192
C88	C	0.569516	-0.539037	0.000213
C89	C	0.613339	-0.570336	0.000234
C90	C	0.657674	-0.551220	0.000255
C91	C	0.658186	-0.500808	0.000266
C92	C	0.481871	-0.476440	0.000171
C93	C	0.481362	-0.526853	0.000162
C94	C	0.525185	-0.558151	0.000183
C95	C	0.658939	0.057580	0.000298
C96	C	0.712595	0.058123	0.000317
C97	C	0.566346	0.150189	0.000228
C98	C	0.566899	0.203843	0.000211
N99	N	0.560825	0.071484	0.293157
N100	N	0.580247	0.052082	-0.292644
C101	C	0.619229	0.013103	0.529851
C102	C	0.615317	0.017019	0.648190
C103	C	0.549086	0.083230	0.648176
C104	C	0.552999	0.079314	0.529837
C105	C	0.588072	0.044250	0.470679
C106	C	0.591986	0.040336	0.352338
C107	C	0.525754	0.106545	0.352326
C108	C	0.521841	0.110461	0.470665
H109	H	-0.276577	0.052020	-0.185627
H110	H	0.493218	-0.165367	0.000260
O111	O	0.657044	-0.024721	0.466025
H112	H	0.682170	-0.006332	0.412093
H113	H	0.694898	-0.425462	0.000299
H114	H	-0.185124	0.052946	-0.185654
O115	O	0.648927	-0.016568	0.712017
H116	H	0.673974	-0.041604	0.650995
O117	O	0.104192	0.051554	-0.315278
H118	H	0.110940	0.082978	-0.364448
O119	O	0.208969	0.052630	-0.315282
H120	H	0.247691	0.053595	-0.298058
O121	O	0.492146	0.140139	0.288495
H122	H	0.497276	0.178529	0.311193
O123	O	0.188116	0.073532	0.315719
H124	H	0.159760	0.075624	0.386978
O125	O	0.434599	-0.442689	0.000162
H126	H	0.435253	-0.421960	-0.076463
H127	H	0.520528	0.111776	0.696358
O128	O	0.083336	0.072459	0.315735
H129	H	0.106984	0.075089	0.386984
H130	H	-0.288867	0.064326	0.186243
O131	O	0.629809	0.002516	0.288523
H132	H	0.650813	-0.018488	0.349556
H133	H	0.693356	-0.576712	0.000277
O134	O	0.484017	0.148282	0.534471
H135	H	0.486532	0.145776	0.626701
O136	O	0.665816	-0.090956	0.000331
H137	H	0.696202	-0.121193	0.000327
O138	O	0.482565	-0.065631	0.000240
H139	H	0.490375	-0.027365	0.000239
H140	H	0.653176	-0.187466	0.000305
O141	O	0.707545	-0.328960	0.000299
H142	H	0.737928	-0.359200	0.000294
H143	H	-0.041283	0.050991	-0.288158
H144	H	0.694291	-0.485251	0.000292
H145	H	0.050165	0.051923	-0.288174
H146	H	0.338475	0.058311	-0.185743
H147	H	0.417643	0.071559	0.186125
O148	O	0.437495	0.058406	-0.212842
H149	H	0.476217	0.059374	-0.195619
O150	O	0.475252	-0.785467	0.000176
H151	H	0.482252	-0.825781	0.000191
O152	O	0.318632	0.071447	0.213230
H153	H	0.342280	0.074079	0.284478
H154	H	0.646921	-0.802534	0.000251
O155	O	0.036870	0.071983	0.315762
H156	H	0.008512	0.074074	0.387015
H157	H	-0.060349	0.070070	0.288686
H158	H	0.647855	-0.711068	0.000267
O159	O	-0.191627	0.066222	0.213317
H160	H	-0.219980	0.068313	0.284582
H161	H	0.446785	-0.391163	0.000135
O162	O	0.476317	-0.680688	0.000182
H163	H	0.445405	-0.702455	0.000183
O164	O	0.436135	-0.291437	0.000152
H165	H	0.417438	-0.300725	-0.076483
O166	O	0.433537	-0.547466	0.000129
H167	H	0.403154	-0.517228	0.000106
