data_functionalizedCrystal
_audit_creation_method	'MofGen! by Chris Wilmer'
_symmetry_space_group_name_H-M	'P1'
_symmetry_Int_Tables_number	1
_symmetry_cell_setting	triclinic
loop_
_symmetry_equiv_pos_as_xyz
  x,y,z
_cell_length_a	13.339070
_cell_length_b	15.995350
_cell_length_c	11.804365
_cell_angle_alpha	101.833003
_cell_angle_beta	74.875130
_cell_angle_gamma	99.560835
loop_
_atom_site_label
_atom_site_type_symbol
_atom_site_fract_x
_atom_site_fract_y
_atom_site_fract_z
O1	O	1.362724	0.407602	-0.099048
O2	O	1.068197	0.352506	-0.099044
O3	O	1.223511	0.260037	-0.099045
O4	O	1.207410	0.500071	-0.099047
O5	O	1.182623	0.284347	0.099011
O6	O	1.027308	0.376816	0.099012
O7	O	1.321836	0.431912	0.099008
Cu8	Cu	1.170839	0.406583	0.117094
Cu9	Cu	1.219194	0.377835	-0.117130
O10	O	1.166521	0.524381	0.099009
C11	C	1.010063	0.355354	-0.000015
C12	C	0.897761	0.327613	-0.000014
C13	C	0.532972	0.543314	-0.000035
C14	C	0.638486	0.569380	-0.000040
C15	C	0.703310	0.508941	-0.000033
C16	C	0.662610	0.422430	-0.000022
C17	C	0.557088	0.396360	-0.000026
C18	C	0.727425	0.361987	-0.000024
C19	C	0.686725	0.275476	-0.000013
C20	C	0.581213	0.249410	-0.000017
C21	C	0.516389	0.309850	-0.000024
C22	C	0.832947	0.388057	-0.000020
C23	C	0.857062	0.241103	-0.000012
C24	C	0.751549	0.215036	-0.000007
C25	C	1.202402	0.240842	-0.000019
C26	C	1.200408	0.147427	-0.000026
C27	C	1.193240	-0.191985	-0.000022
C28	C	1.082719	-0.170302	-0.000464
C29	C	1.084623	-0.073093	-0.000018
C30	C	1.196795	-0.023599	-0.000025
C31	C	1.228004	-0.038120	0.113072
C32	C	1.225206	-0.135389	0.113167
C33	C	1.273989	-0.162861	-0.112060
C34	C	1.274271	-0.066105	-0.113555
C35	C	1.198810	0.071567	-0.000022
C36	C	1.191227	-0.287149	-0.000016
C37	C	1.379970	0.429063	-0.000023
C38	C	1.492274	0.456804	-0.000032
C39	C	1.187631	0.543575	-0.000019
C40	C	1.189627	0.636989	-0.000020
N41	N	1.136835	0.426805	0.281835
N42	N	1.253205	0.357608	-0.281871
C43	C	1.334859	0.309033	0.655782
C44	C	1.360581	0.293731	0.531121
C45	C	1.304647	0.326998	0.468793
C46	C	1.222986	0.375570	0.531140
C47	C	1.197267	0.390878	0.655814
C48	C	1.167054	0.408844	0.468824
C49	C	1.085394	0.457415	0.531171
C50	C	1.059678	0.472721	0.655833
C51	C	1.115613	0.439454	0.718160
C52	C	1.192774	0.393535	0.344150
C53	C	1.055181	0.475380	0.344182
C54	C	1.029459	0.490682	0.468843
H55	H	0.909843	0.191887	-0.000011
H56	H	1.058474	-0.064585	-0.081090
N57	N	0.817112	0.537052	-0.000031
H58	H	0.833059	0.601027	-0.000034
H59	H	0.832021	0.523441	0.073400
H60	H	1.094667	0.451909	0.819670
N61	N	0.537309	0.156104	-0.000014
H62	H	0.576105	0.119505	-0.073430
H63	H	0.545784	0.137608	0.073458
H64	H	0.718397	0.144597	-0.000007
N65	N	1.046322	-0.221640	-0.107889
H66	H	1.101118	-0.259455	-0.157313
H67	H	0.978538	-0.258701	-0.080797
N68	N	0.682387	0.662678	-0.000069
H69	H	0.625314	0.697011	-0.000076
H70	H	0.710487	0.685716	0.073347
H71	H	0.430470	0.288631	-0.000019
N72	N	1.005235	-0.036259	0.107564
H73	H	1.041759	0.010862	0.159094
H74	H	0.951911	-0.011831	0.080702
H75	H	1.022054	-0.190222	0.080189
N76	N	0.994848	0.511270	0.276974
H77	H	1.023529	0.494200	0.188538
H78	H	0.918588	0.487569	0.298782
N79	N	0.971601	0.525104	0.723082
H80	H	0.940063	0.543851	0.664685
H81	H	0.916220	0.488977	0.774811
N82	N	1.149391	-0.158138	0.225154
H83	H	1.118097	-0.105010	0.273992
H84	H	1.091844	-0.203216	0.203145
N85	N	1.331367	-0.152290	0.119967
H86	H	1.379772	-0.096578	0.122895
H87	H	1.324159	-0.177195	0.194097
H88	H	0.962970	0.530230	0.519622
H89	H	1.259262	0.353989	0.293399
N90	N	1.336031	0.006601	0.118625
H91	H	1.365847	0.036782	0.047715
H92	H	1.331645	0.050169	0.194416
H93	H	1.172735	-0.008211	0.197240
N94	N	1.448650	0.241347	0.463882
H95	H	1.456460	0.236702	0.375449
H96	H	1.515913	0.270408	0.485663
H97	H	1.255521	-0.202324	-0.197781
N98	N	1.384498	-0.021703	-0.122615
H99	H	1.385781	0.026811	-0.052941
H100	H	1.432015	-0.064437	-0.121647
N101	N	0.463063	0.608493	-0.000057
H102	H	0.390045	0.578849	-0.000062
H103	H	0.461072	0.654151	0.073362
N104	N	0.876826	0.481361	-0.000022
H105	H	0.904907	0.504468	0.073398
H106	H	0.935186	0.486376	-0.073489
H107	H	1.251655	-0.058393	-0.197221
H108	H	1.355701	-0.175769	-0.112825
H109	H	1.325593	0.314538	0.367288
N110	N	1.395191	0.273166	0.723003
H111	H	1.366508	0.290238	0.811439
H112	H	1.388010	0.208371	0.701227
