data_functionalizedCrystal
_audit_creation_method	'MofGen! by Chris Wilmer'
_symmetry_space_group_name_H-M	'P1'
_symmetry_Int_Tables_number	1
_symmetry_cell_setting	triclinic
loop_
_symmetry_equiv_pos_as_xyz
  x,y,z
_cell_length_a	19.188925
_cell_length_b	10.489741
_cell_length_c	9.565339
_cell_angle_alpha	89.999484
_cell_angle_beta	89.998503
_cell_angle_gamma	96.159139
loop_
_atom_site_label
_atom_site_type_symbol
_atom_site_fract_x
_atom_site_fract_y
_atom_site_fract_z
O1	O	0.927213	-0.159193	-0.116192
O2	O	0.724045	-0.180636	-0.116210
O3	O	0.830252	0.015787	-0.116192
O4	O	0.821006	-0.355616	-0.116210
O5	O	0.830244	0.015775	0.116328
O6	O	0.724037	-0.180648	0.116310
O7	O	0.927205	-0.159205	0.116328
Zn8	Zn	0.825620	-0.169928	0.153237
Zn9	Zn	0.825631	-0.169912	-0.153119
O10	O	0.820998	-0.355628	0.116310
C11	C	0.698025	-0.179949	0.000048
C12	C	0.620507	-0.177868	0.000042
C13	C	0.829550	0.063297	0.000067
C14	C	0.827460	0.204880	0.000064
C15	C	0.953225	-0.159892	0.000067
C16	C	1.030744	-0.161973	0.000064
C17	C	1.591835	-0.060653	0.000065
C18	C	1.518999	-0.058687	0.000058
C19	C	1.474836	-0.173941	0.000055
C20	C	1.503516	-0.291171	0.000023
C21	C	1.576351	-0.293134	0.000017
N22	N	1.354716	-0.257385	0.079202
N23	N	1.285527	-0.255512	0.079212
C24	C	1.255388	-0.168033	0.000072
N25	N	1.297053	-0.082478	-0.079060
N26	N	1.366250	-0.084348	-0.079063
C27	C	1.395858	-0.171825	0.000061
C28	C	1.147739	-0.048679	0.000086
C29	C	1.074901	-0.046717	0.000070
C30	C	1.059419	-0.279205	0.000049
C31	C	1.132256	-0.281163	0.000051
C32	C	1.176412	-0.165896	0.000076
C33	C	0.821700	-0.403138	0.000048
C34	C	0.823790	-0.544720	0.000042
N35	N	0.825617	-0.169938	0.362316
C36	C	0.759884	0.271506	0.000048
C37	C	0.791802	0.364338	0.114695
C38	C	0.791827	0.364325	-0.114551
C39	C	0.859407	0.295847	0.114806
C40	C	0.859422	0.295824	-0.114544
C41	C	0.891389	0.388629	0.000132
N42	N	0.825639	-0.169892	-0.362198
C43	C	0.776485	-0.260748	0.453511
C44	C	0.839700	-0.285142	0.546694
C45	C	0.762429	-0.145553	0.546688
C46	C	0.888865	-0.194390	0.453447
C47	C	0.811552	-0.054752	0.453433
C48	C	0.874812	-0.079097	0.546574
H49	H	1.627783	0.033206	0.000084
Br50	Br	0.744143	0.414949	0.276241
Br51	Br	0.944152	0.048941	0.614264
H52	H	1.155600	-0.376612	0.000038
H53	H	0.734973	-0.337612	0.412649
Br54	Br	0.907021	0.245527	0.276534
H55	H	0.887994	0.265424	-0.211470
Br56	Br	0.984076	0.473086	0.000236
H57	H	0.799621	0.042608	0.412437
H58	H	1.183692	0.045178	0.000094
H59	H	0.763229	0.394653	-0.211486
H60	H	0.708983	-0.124949	0.587649
Br61	Br	1.035988	0.112374	0.000063
Br62	Br	0.859557	-0.447463	0.614970
H63	H	1.495649	0.036766	0.000077
H64	H	1.467554	-0.385012	0.000018
H65	H	0.942323	-0.215112	0.412663
H66	H	1.599694	-0.388587	-0.000000
H67	H	1.023463	-0.373048	0.000043
Br68	Br	0.667279	0.186679	0.000219
