data_functionalizedCrystal
_audit_creation_method	'MofGen! by Chris Wilmer'
_symmetry_space_group_name_H-M	'P1'
_symmetry_Int_Tables_number	1
_symmetry_cell_setting	triclinic
loop_
_symmetry_equiv_pos_as_xyz
  x,y,z
_cell_length_a	10.654553
_cell_length_b	15.944493
_cell_length_c	9.730223
_cell_angle_alpha	90.004543
_cell_angle_beta	89.999314
_cell_angle_gamma	83.980611
loop_
_atom_site_label
_atom_site_type_symbol
_atom_site_fract_x
_atom_site_fract_y
_atom_site_fract_z
O1	O	1.666268	0.117988	-0.114286
O2	O	1.300642	0.129226	-0.114283
O3	O	1.493477	0.001387	-0.114296
O4	O	1.473433	0.245827	-0.114273
O5	O	1.493475	0.001390	0.114284
O6	O	1.300639	0.129229	0.114297
O7	O	1.666266	0.117991	0.114294
Zn8	Zn	1.483452	0.123611	0.150588
Zn9	Zn	1.483455	0.123606	-0.150576
O10	O	1.473430	0.245830	0.114307
C11	C	1.253853	0.128402	0.000007
C12	C	1.114443	0.125931	0.000007
C13	C	0.917948	0.122446	0.124596
C14	C	1.048938	0.124772	0.124604
C15	C	1.048950	0.124773	-0.124606
C16	C	0.917961	0.122454	-0.124613
C17	C	0.917943	0.122442	0.268476
C18	C	1.048933	0.124768	0.268484
C19	C	1.492657	-0.029911	-0.000012
C20	C	1.490201	-0.123174	-0.000029
C21	C	1.603708	-0.358276	-0.000004
C22	C	1.542499	-0.409200	-0.112705
C23	C	1.485650	-0.293921	-0.000012
C24	C	1.542469	-0.409173	0.112657
C25	C	1.481262	-0.458856	0.000010
C26	C	1.424472	-0.343617	-0.112806
C27	C	1.424460	-0.343587	0.112657
C28	C	1.363164	-0.394479	-0.000071
C29	C	1.488181	-0.198907	-0.000026
C30	C	1.478722	-0.553868	0.000014
C31	C	1.713054	0.118815	0.000001
C32	C	1.852465	0.121286	-0.000008
C33	C	1.474251	0.277128	0.000020
C34	C	1.476707	0.370391	0.000028
N35	N	1.483460	0.123613	0.356124
N36	N	1.483458	0.123597	-0.356113
C37	C	1.568869	0.067025	0.428044
C38	C	1.568866	0.067015	0.571927
C39	C	1.398040	0.180188	0.571957
C40	C	1.398038	0.180193	0.428076
C41	C	1.667498	0.001689	0.428029
C42	C	1.667495	0.001678	0.571911
H43	H	0.870889	0.180490	0.323727
O44	O	1.314895	0.235064	0.641795
C45	C	1.096526	0.282946	0.685766
C46	C	1.190549	0.220738	0.606617
H47	H	0.995971	0.271397	0.657332
H48	H	1.111084	0.273220	0.800972
H49	H	1.112927	0.350324	0.657516
H50	H	1.174204	0.153336	0.634752
H51	H	1.175967	0.230538	0.491431
O52	O	1.241704	-0.413537	0.000046
C53	C	1.041653	-0.400409	0.117821
C54	C	1.179162	-0.378745	0.117851
H55	H	0.991055	-0.372305	0.213071
H56	H	0.991467	-0.373186	0.021743
H57	H	1.040667	-0.471834	0.118668
H58	H	1.180264	-0.307332	0.117053
H59	H	1.229290	-0.406027	0.213922
O60	O	1.642862	-0.075366	0.381649
C61	C	1.598142	-0.215805	0.441699
C62	C	1.626002	-0.128578	0.494410
H63	H	1.584530	-0.258857	0.532840
H64	H	1.508655	-0.208741	0.376665
H65	H	1.680716	-0.244411	0.376553
H66	H	1.543506	-0.099924	0.559613
H67	H	1.715533	-0.135696	0.559370
O68	O	1.365212	-0.309426	0.226469
C69	C	1.360442	-0.304253	0.473937
C70	C	1.427664	-0.342991	0.345147
H71	H	1.410891	-0.331388	0.569920
H72	H	1.362159	-0.232888	0.472386
H73	H	1.258442	-0.319848	0.474842
H74	H	1.529690	-0.327461	0.344158
H75	H	1.425845	-0.414347	0.346748
H76	H	1.374644	-0.315088	-0.208188
O77	O	1.602142	-0.443252	0.226286
C78	C	1.796355	-0.463899	0.354612
C79	C	1.728911	-0.425247	0.225899
H80	H	1.898866	-0.449371	0.354327
H81	H	1.747141	-0.435873	0.450707
H82	H	1.792999	-0.535128	0.354040
H83	H	1.732246	-0.354020	0.226337
H84	H	1.778143	-0.453339	0.129861
H85	H	1.102293	0.125726	-0.226056
H86	H	1.758410	0.022147	0.383404
H87	H	1.763815	0.016071	0.610963
H88	H	1.328480	0.226264	0.369520
H89	H	0.864648	0.121519	-0.226077
H90	H	1.637790	-0.059334	0.616521
H91	H	0.889181	0.061180	0.313109
O92	O	1.083034	0.197883	0.321858
C93	C	1.012921	0.332947	0.421956
C94	C	0.974126	0.250176	0.361581
H95	H	0.924891	0.375256	0.454062
H96	H	1.075990	0.318300	0.515388
H97	H	1.066616	0.366585	0.341014
H98	H	0.920383	0.216497	0.442422
H99	H	0.911118	0.264879	0.268120
H100	H	1.705401	-0.342058	-0.000118
O101	O	1.104879	0.055448	0.334351
C102	C	1.075201	-0.073134	0.454512
C103	C	1.011682	0.005319	0.379934
H104	H	0.999879	-0.113675	0.491411
H105	H	1.142099	-0.111263	0.380900
H106	H	1.130660	-0.052507	0.546527
H107	H	0.956158	-0.015233	0.287922
H108	H	0.944857	0.043431	0.453636
H109	H	1.592358	-0.437858	-0.207987
