data_functionalizedCrystal
_audit_creation_method	'MofGen! by Chris Wilmer'
_symmetry_space_group_name_H-M	'P1'
_symmetry_Int_Tables_number	1
_symmetry_cell_setting	triclinic
loop_
_symmetry_equiv_pos_as_xyz
  x,y,z
_cell_length_a	14.853566
_cell_length_b	13.330367
_cell_length_c	14.853567
_cell_angle_alpha	90.001398
_cell_angle_beta	96.365328
_cell_angle_gamma	90.004843
loop_
_atom_site_label
_atom_site_type_symbol
_atom_site_fract_x
_atom_site_fract_y
_atom_site_fract_z
O1	O	1.196370	0.083349	-0.117695
O2	O	1.696370	0.583349	0.382305
O3	O	0.933910	0.083364	-0.131718
O4	O	1.433910	0.583364	0.368282
O5	O	1.072151	0.083359	0.006523
O6	O	1.572151	0.583359	0.506523
O7	O	1.058129	0.083354	-0.255936
O8	O	1.558129	0.583354	0.244064
O9	O	1.072130	-0.083488	0.006520
O10	O	1.572130	0.416512	0.506520
O11	O	0.933889	-0.083483	-0.131721
O12	O	1.433889	0.416517	0.368279
O13	O	1.196349	-0.083499	-0.117698
O14	O	1.696349	0.416501	0.382302
Cu15	Cu	1.065117	-0.098725	-0.124710
Cu16	Cu	1.565117	0.401275	0.375290
Cu17	Cu	1.065142	0.098591	-0.124706
Cu18	Cu	1.565142	0.598591	0.375294
O19	O	1.058108	-0.083493	-0.255939
O20	O	1.558108	0.416507	0.244061
C21	C	0.900311	-0.000057	-0.131084
C22	C	1.400311	0.499943	0.368916
C23	C	0.800227	-0.000051	-0.129181
C24	C	1.300227	0.499949	0.370819
C25	C	0.377054	0.090880	-0.121128
C26	C	0.877054	0.590880	0.378872
C27	C	0.377052	-0.091023	-0.121132
C28	C	0.877052	0.408977	0.378868
C29	C	0.471086	-0.091020	-0.122920
C30	C	0.971086	0.408980	0.377080
C31	C	0.518108	-0.000066	-0.123813
C32	C	1.018108	0.499934	0.376187
C33	C	0.471096	0.090886	-0.122919
C34	C	0.971096	0.590886	0.377081
C35	C	0.518104	-0.181970	-0.123823
C36	C	1.018104	0.318030	0.376177
C37	C	0.612144	-0.181971	-0.125611
C38	C	1.112144	0.318029	0.374389
C39	C	0.659169	-0.091015	-0.126498
C40	C	1.159169	0.408985	0.373502
C41	C	0.612151	-0.000060	-0.125603
C42	C	1.112151	0.499940	0.374397
C43	C	0.659173	0.090895	-0.126496
C44	C	1.159173	0.590895	0.373504
C45	C	0.612158	0.181851	-0.125595
C46	C	1.112158	0.681851	0.374405
C47	C	0.518121	0.181841	-0.123806
C48	C	1.018121	0.681841	0.376194
C49	C	0.753205	-0.091006	-0.128287
C50	C	1.253205	0.408994	0.371713
C51	C	0.753215	0.090900	-0.128287
C52	C	1.253215	0.590900	0.371713
N53	N	1.065106	-0.237507	-0.124711
N54	N	1.565106	0.262493	0.375289
C55	C	1.010366	-0.290027	-0.069932
C56	C	1.510366	0.209973	0.430068
C57	C	1.119858	-0.290014	-0.179486
C58	C	1.619858	0.209986	0.320514
C59	C	1.119868	-0.395033	-0.179486
C60	C	1.619868	0.104967	0.320514
C61	C	1.065128	-0.447553	-0.124707
C62	C	1.565128	0.052447	0.375293
C63	C	1.010377	-0.395055	-0.069928
C64	C	1.510377	0.104945	0.430072
C65	C	1.174625	-0.447538	-0.234257
C66	C	1.674625	0.052462	0.265743
C67	C	1.174639	-0.552563	-0.234257
C68	C	1.674639	-0.052563	0.265743
C69	C	1.119893	-0.605086	-0.179482
C70	C	1.619893	-0.105086	0.320518
C71	C	1.065139	-0.552581	-0.124702
C72	C	1.565139	-0.052581	0.375298
C73	C	1.010398	-0.605102	-0.069923
C74	C	1.510398	-0.105102	0.430077
C75	C	0.955639	-0.552599	-0.015147
C76	C	1.455639	-0.052599	0.484853
C77	C	0.955631	-0.447578	-0.015153
C78	C	1.455631	0.052422	0.484847
C79	C	1.119901	-0.710107	-0.179477
C80	C	1.619901	-0.210107	0.320523
C81	C	1.010409	-0.710130	-0.069919
C82	C	1.510409	-0.210130	0.430081
C83	C	1.229948	-0.000075	-0.118332
C84	C	1.729948	0.499925	0.381668
C85	C	1.330032	-0.000075	-0.120235
C86	C	1.830032	0.499925	0.379765
C87	C	1.071505	-0.000062	0.040111
C88	C	1.571505	0.499938	0.540111
C89	C	1.069601	-0.000053	0.140194
C90	C	1.569601	0.499947	0.640194
N91	N	1.065160	0.237372	-0.124697
N92	N	1.565160	0.737372	0.375303
C93	C	1.058754	-0.000071	-0.289526
C94	C	1.558754	0.499929	0.210474
C95	C	1.060658	-0.000073	-0.389610
C96	C	1.560658	0.499927	0.110390
C97	C	0.979435	-0.000067	0.552728
C98	C	1.479435	0.499933	1.052728
C99	C	1.143668	-0.000076	0.574009
C100	C	1.643668	0.499924	1.074009
C101	C	1.145458	-0.000070	0.479976
C102	C	1.645458	0.499930	0.979976
C103	C	1.064236	-0.000064	0.422313
C104	C	1.564236	0.499936	0.922313
C105	C	0.981223	-0.000064	0.458685
C106	C	1.481223	0.499936	0.958685
C107	C	1.228470	-0.000081	0.443597
C108	C	1.728470	0.499919	0.943597
C109	C	1.230263	-0.000076	0.349558
C110	C	1.730263	0.499924	0.849558
C111	C	1.149040	-0.000063	0.291894
C112	C	1.649040	0.499937	0.791894
C113	C	1.066023	-0.000061	0.328271
C114	C	1.566023	0.499939	0.828271
C115	C	0.984801	-0.000055	0.270608
C116	C	1.484801	0.499945	0.770608
C117	C	0.901784	-0.000047	0.306984
C118	C	1.401784	0.499953	0.806984
C119	C	0.899999	-0.000050	0.401021
C120	C	1.399999	0.499950	0.901021
C121	C	1.150824	-0.000059	0.197856
C122	C	1.650824	0.499941	0.697856
C123	C	0.986588	-0.000052	0.176566
C124	C	1.486588	0.499948	0.676566
H125	H	0.479833	0.255893	-0.123070
H126	H	0.979833	0.755893	0.376930
H127	H	1.219198	-0.404768	-0.278848
H128	H	1.719198	0.095232	0.221152
Cl129	Cl	0.317956	0.205219	-0.119969
Cl130	Cl	0.817956	0.705219	0.380031
H131	H	0.338761	-0.165074	-0.120411
H132	H	0.838761	0.334926	0.379589
H133	H	0.479811	-0.256020	-0.123102
H134	H	0.979811	0.243980	0.376898
H135	H	0.965828	-0.752885	-0.025314
H136	H	1.465828	-0.252885	0.474686
H137	H	0.835653	-0.000048	0.260023
H138	H	1.335653	0.499952	0.760023
H139	H	0.791480	-0.165061	-0.129030
H140	H	1.291480	0.334939	0.370970
H141	H	0.911073	-0.595375	0.029458
H142	H	1.411073	-0.095375	0.529458
H143	H	0.650416	-0.256033	-0.126344
H144	H	1.150416	0.243967	0.373656
Cl145	Cl	0.886800	-0.381569	0.053705
Cl146	Cl	1.386800	0.118431	0.553705
Cl147	Cl	0.812322	0.205250	-0.129402
Cl148	Cl	1.312322	0.705250	0.370598
H149	H	1.219226	-0.595302	-0.278860
H150	H	1.719226	-0.095302	0.221140
H151	H	0.650455	0.255906	-0.126328
H152	H	1.150455	0.755906	0.373672
H153	H	0.965779	-0.247275	-0.025338
H154	H	1.465779	0.252725	0.474662
H155	H	1.164488	-0.752850	-0.224071
H156	H	1.664488	-0.252850	0.275929
Cl157	Cl	0.884473	-0.000037	0.104083
Cl158	Cl	1.384473	0.499963	0.604083
H159	H	1.297861	-0.000082	0.319950
H160	H	1.797861	0.499918	0.819950
Cl161	Cl	1.245771	-0.000101	0.646499
Cl162	Cl	1.745771	0.499899	1.146499
H163	H	0.832411	-0.000044	0.430646
H164	H	1.332411	0.499956	0.930646
Cl165	Cl	0.875077	-0.000046	0.598454
Cl166	Cl	1.375077	0.499954	1.098454
Cl167	Cl	1.330571	-0.000111	0.516089
Cl168	Cl	1.830571	0.499889	1.016089
Cl169	Cl	1.188676	-0.223988	-0.248342
Cl170	Cl	1.688676	0.276012	0.251658
H171	H	1.218415	-0.000073	0.168244
H172	H	1.718415	0.499927	0.668244
