data_functionalizedCrystal
_audit_creation_method	'MofGen! by Chris Wilmer'
_symmetry_space_group_name_H-M	'P1'
_symmetry_Int_Tables_number	1
_symmetry_cell_setting	triclinic
loop_
_symmetry_equiv_pos_as_xyz
  x,y,z
_cell_length_a	13.339070
_cell_length_b	10.540539
_cell_length_c	11.804365
_cell_angle_alpha	101.953828
_cell_angle_beta	74.875130
_cell_angle_gamma	100.077393
loop_
_atom_site_label
_atom_site_type_symbol
_atom_site_fract_x
_atom_site_fract_y
_atom_site_fract_z
O1	O	1.367200	0.619505	-0.099049
O2	O	1.072067	0.535766	-0.099045
O3	O	1.226367	0.395225	-0.099046
O4	O	1.212901	0.760047	-0.099049
O5	O	1.185745	0.432172	0.099010
O6	O	1.031446	0.572714	0.099011
O7	O	1.326579	0.656453	0.099007
Cu8	Cu	1.175303	0.617957	0.117093
Cu9	Cu	1.223343	0.574262	-0.117131
O10	O	1.172279	0.796994	0.099007
C11	C	1.013965	0.540095	-0.000017
C12	C	0.901358	0.497931	-0.000015
C13	C	0.538938	0.825770	-0.000037
C14	C	0.644738	0.865388	-0.000042
C15	C	0.708898	0.773527	-0.000035
C16	C	0.667248	0.642042	-0.000023
C17	C	0.561440	0.602418	-0.000028
C18	C	0.731400	0.550175	-0.000026
C19	C	0.689750	0.418690	-0.000014
C20	C	0.583951	0.379073	-0.000018
C21	C	0.519791	0.470934	-0.000025
C22	C	0.837208	0.589799	-0.000021
C23	C	0.859710	0.366447	-0.000012
C24	C	0.753910	0.326829	-0.000007
C25	C	1.205047	0.366051	-0.000020
C26	C	1.202026	0.224072	-0.000026
C27	C	1.086340	0.001099	-0.000469
C28	C	1.089311	0.148845	-0.000023
C29	C	1.233073	0.202001	0.113073
C30	C	1.229207	0.054163	0.113168
C31	C	1.277693	0.012410	-0.112059
C32	C	1.279038	0.159467	-0.113554
C33	C	1.384682	0.652124	-0.000024
C34	C	1.497290	0.694286	-0.000034
C35	C	1.193600	0.826168	-0.000021
C36	C	1.196622	0.968145	-0.000023
N37	N	1.141522	0.648691	0.281834
N38	N	1.257132	0.543521	-0.281872
C39	C	1.338253	0.469692	0.655781
C40	C	1.363807	0.446436	0.531120
C41	C	1.308237	0.496997	0.468792
C42	C	1.227110	0.570820	0.531138
C43	C	1.201559	0.594087	0.655812
C44	C	1.171544	0.621392	0.468823
C45	C	1.090417	0.695214	0.531169
C46	C	1.064869	0.718477	0.655831
C47	C	1.120438	0.667916	0.718159
C48	C	1.197095	0.598125	0.344149
C49	C	1.060402	0.722520	0.344180
C50	C	1.034847	0.745776	0.468842
H51	H	0.795045	0.805792	-0.000042
H52	H	1.015154	0.763695	0.293434
C53	C	1.337291	0.027980	0.120117
N54	N	1.418697	0.008265	0.125358
C55	C	1.343723	0.271401	0.118772
N56	N	1.427061	0.323685	0.123067
H57	H	0.968792	0.805885	0.519620
C58	C	0.690542	1.010020	-0.000038
N59	N	0.725041	1.118966	-0.000029
H60	H	0.871108	0.696856	-0.000026
C61	C	1.252159	-0.068613	-0.227866
N62	N	1.232914	-0.129640	-0.315086
H63	H	0.719985	0.219769	-0.000008
H64	H	1.058450	-0.057807	-0.081574
H65	H	0.911950	0.291645	-0.000012
C66	C	0.468358	0.926800	-0.000047
N67	N	0.415194	1.002903	-0.000053
C68	C	0.403403	0.427360	-0.000018
N69	N	0.315738	0.394543	-0.000014
C70	C	1.054105	0.166316	-0.109545
N71	N	1.027580	0.179468	-0.192037
C72	C	0.538140	0.234435	-0.000004
N73	N	0.503635	0.125494	0.000012
H74	H	1.029674	0.191100	0.081187
H75	H	1.025454	-0.029177	0.080183
H76	H	1.171778	0.028072	0.197713
H77	H	1.256509	0.171189	-0.197222
C78	C	1.336344	0.471401	0.331660
N79	N	1.357512	0.452111	0.228367
C80	C	1.158843	0.263400	0.226779
N81	N	1.102926	0.309640	0.312420
H82	H	1.362617	0.210424	-0.120385
H83	H	1.359263	-0.007208	-0.112821
C84	C	1.453038	0.365226	0.462548
N85	N	1.520250	0.304050	0.410899
C86	C	1.399371	0.414086	0.724350
N87	N	1.445408	0.372199	0.775997
H88	H	1.263149	0.538019	0.293398
H89	H	1.099630	0.686846	0.819669
H90	H	0.998818	0.778600	0.706594
