data_functionalizedCrystal
_audit_creation_method	'MofGen! by Chris Wilmer'
_symmetry_space_group_name_H-M	'P1'
_symmetry_Int_Tables_number	1
_symmetry_cell_setting	triclinic
loop_
_symmetry_equiv_pos_as_xyz
  x,y,z
_cell_length_a	17.699083
_cell_length_b	17.699083
_cell_length_c	16.176319
_cell_angle_alpha	89.999455
_cell_angle_beta	90.008460
_cell_angle_gamma	96.717152
loop_
_atom_site_label
_atom_site_type_symbol
_atom_site_fract_x
_atom_site_fract_y
_atom_site_fract_z
O1	O	0.095712	-1.004072	0.068734
O2	O	0.595712	-0.504072	0.568734
O3	O	0.108165	-0.783694	0.068739
O4	O	0.608165	-0.283694	0.568739
O5	O	-0.008251	-0.900109	0.068729
O6	O	0.491749	-0.400109	0.568729
O7	O	0.212128	-0.887657	0.068744
O8	O	0.712128	-0.387657	0.568744
O9	O	-0.008262	-0.900107	-0.068764
O10	O	0.491738	-0.400107	0.431236
O11	O	0.108154	-0.783692	-0.068754
O12	O	0.608154	-0.283692	0.431246
O13	O	0.095701	-1.004070	-0.068759
O14	O	0.595701	-0.504070	0.431241
Cu15	Cu	0.101927	-0.893881	-0.081311
Cu16	Cu	0.601927	-0.393881	0.418689
Cu17	Cu	0.101939	-0.893883	0.081291
Cu18	Cu	0.601939	-0.393883	0.581291
O19	O	0.212117	-0.887655	-0.068749
O20	O	0.712117	-0.387655	0.431251
C21	C	0.107713	-0.755496	-0.000007
C22	C	0.607713	-0.255496	0.499993
C23	C	0.106375	-0.671478	-0.000005
C24	C	0.606375	-0.171478	0.499995
C25	C	0.105739	-0.632009	-0.074954
C26	C	0.605739	-0.132009	0.425046
C27	C	0.104469	-0.553067	-0.074954
C28	C	0.604469	-0.053067	0.425046
C29	C	0.103841	-0.513594	-0.000006
C30	C	0.603841	-0.013594	0.499994
C31	C	0.104476	-0.553068	0.074948
C32	C	0.604476	-0.053068	0.574948
C33	C	0.105740	-0.632010	0.074948
C34	C	0.605740	-0.132010	0.574948
C35	C	0.099376	-0.234705	0.074950
C36	C	0.599376	0.265295	0.574950
C37	C	0.098114	-0.155758	0.074945
C38	C	0.598114	0.344242	0.574945
C39	C	0.098106	-0.155763	-0.074952
C40	C	0.598106	0.344237	0.425048
C41	C	0.099370	-0.234704	-0.074952
C42	C	0.599370	0.265296	0.425048
C43	C	0.100000	-0.274172	0.000001
C44	C	0.600000	0.225828	0.500001
C45	C	0.101375	-0.359771	0.000001
C46	C	0.601375	0.140229	0.500001
C47	C	0.102472	-0.427996	-0.000005
C48	C	0.602472	0.072004	0.499995
C49	C	-0.036453	-0.899662	-0.000017
C50	C	0.463547	-0.399662	0.499983
C51	C	-0.120471	-0.898323	-0.000018
C52	C	0.379529	-0.398323	0.499982
C53	C	-0.169092	-0.966657	-0.000020
C54	C	0.330908	-0.466657	0.499980
C55	C	-0.248036	-0.965395	-0.000013
C56	C	0.251964	-0.465395	0.499987
C57	C	-0.278356	-0.895798	-0.000009
C58	C	0.221644	-0.395798	0.499991
C59	C	-0.229729	-0.827459	-0.000004
C60	C	0.270271	-0.327459	0.499996
C61	C	-0.150787	-0.828722	-0.000005
C62	C	0.349213	-0.328722	0.499995
C63	C	-0.548092	-0.822364	0.000003
C64	C	-0.048092	-0.322364	0.500003
C65	C	-0.627040	-0.821106	0.000002
C66	C	-0.127040	-0.321106	0.500002
C67	C	-0.645341	-0.959036	-0.000005
C68	C	-0.145341	-0.459036	0.499995
C69	C	-0.566399	-0.960299	-0.000006
C70	C	-0.066399	-0.460299	0.499994
C71	C	-0.517778	-0.891961	0.000003
C72	C	-0.017778	-0.391961	0.500003
C73	C	-0.432179	-0.893331	-0.000003
C74	C	0.067821	-0.393331	0.499997
C75	C	-0.363954	-0.894428	-0.000009
C76	C	0.136046	-0.394428	0.499991
C77	C	0.240319	-0.888102	-0.000001
C78	C	0.740319	-0.388102	0.499999
C79	C	0.324337	-0.889441	0.000005
C80	C	0.824337	-0.389441	0.500005
C81	C	0.096148	-0.032269	-0.000010
C82	C	0.596148	0.467731	0.499990
C83	C	0.097472	-0.116289	-0.000004
C84	C	0.597472	0.383711	0.499996
N85	N	0.101943	-0.893885	0.195656
N86	N	0.601943	-0.393885	0.695656
N87	N	0.101917	-0.893884	-0.195676
N88	N	0.601917	-0.393884	0.304324
C89	C	0.050495	-0.945530	0.238916
C90	C	0.550495	-0.445530	0.738916
C91	C	0.050493	-0.945533	0.325463
C92	C	0.550493	-0.445533	0.825463
C93	C	0.101936	-0.893887	0.368749
C94	C	0.601936	-0.393887	0.868749
C95	C	0.153389	-0.842240	0.325483
C96	C	0.653389	-0.342240	0.825483
C97	C	0.153394	-0.842242	0.238937
C98	C	0.653394	-0.342242	0.738937
C99	C	0.153372	-0.842235	0.674511
C100	C	0.653372	-0.342235	1.174511
C101	C	0.153362	-0.842236	0.761063
C102	C	0.653362	-0.342236	1.261063
C103	C	0.050471	-0.945526	0.761037
C104	C	0.550471	-0.445526	1.261037
C105	C	0.050476	-0.945527	0.674491
C106	C	0.550476	-0.445527	1.174491
C107	C	0.101932	-0.893883	0.631233
C108	C	0.601932	-0.393883	1.131233
C109	C	0.101934	-0.893882	0.537389
C110	C	0.601934	-0.393882	1.037389
C111	C	0.101931	-0.893884	0.462591
C112	C	0.601931	-0.393884	0.962591
H113	H	0.097589	-0.123619	-0.135983
H114	H	0.597589	0.376381	0.364017
C115	C	-0.006108	-1.002339	0.626881
C116	C	0.493892	-0.502339	1.126881
H117	H	-0.036745	-1.033103	0.665041
H118	H	0.463255	-0.533103	1.165041
H119	H	-0.037638	-0.975243	0.593109
H120	H	0.462362	-0.475243	1.093109
H121	H	0.021155	-1.033735	0.593130
H122	H	0.521155	-0.533735	1.093130
C123	C	-0.006118	-1.002346	0.808623
C124	C	0.493882	-0.502346	1.308623
H125	H	0.001251	-0.994958	0.866366
H126	H	0.501251	-0.494958	1.366366
H127	H	-0.056649	-0.994323	0.794431
H128	H	0.443351	-0.494323	1.294431
H129	H	0.002146	-1.052813	0.794436
H130	H	0.502146	-0.552813	1.294436
C131	C	-0.135747	-1.043214	-0.000025
C132	C	0.364253	-0.543214	0.499975
H133	H	-0.176013	-1.083729	-0.000018
H134	H	0.323987	-0.583729	0.499982
H135	H	-0.105339	-1.046576	-0.047972
H136	H	0.394661	-0.546576	0.452028
H137	H	-0.105326	-1.046574	0.047928
H138	H	0.394674	-0.546574	0.547928
H139	H	-0.111200	-0.773078	-0.000003
H140	H	0.388800	-0.273078	0.499997
C141	C	0.106445	-0.675424	0.157391
C142	C	0.606445	-0.175424	0.657391
H143	H	0.105898	-0.640610	0.202028
H144	H	0.605898	-0.140610	0.702028
H145	H	0.062820	-0.712076	0.160505
H146	H	0.562820	-0.212076	0.660505
H147	H	0.151064	-0.700361	0.160508
H148	H	0.651064	-0.200361	0.660508
C149	C	0.209979	-0.785431	0.373091
C150	C	0.709979	-0.285431	0.873091
H151	H	0.240625	-0.754679	0.334929
H152	H	0.740625	-0.254679	0.834929
H153	H	0.182726	-0.754035	0.406845
H154	H	0.682726	-0.254035	0.906845
H155	H	0.241509	-0.812536	0.406859
H156	H	0.741509	-0.312536	0.906859
H157	H	0.099885	-0.266839	-0.135983
H158	H	0.599885	0.233161	0.364017
C159	C	-0.698825	-1.034208	-0.000002
C160	C	-0.198825	-0.534208	0.499998
H161	H	-0.750183	-1.023492	0.000010
H162	H	-0.250183	-0.523492	0.500010
H163	H	-0.689657	-1.062752	-0.047950
H164	H	-0.189657	-0.562752	0.452050
H165	H	-0.689637	-1.062751	0.047950
H166	H	-0.189637	-0.562751	0.547950
H167	H	0.097603	-0.123621	0.135981
H168	H	0.597603	0.376379	0.635981
C169	C	0.100078	-0.278109	0.157396
C170	C	0.600078	0.221891	0.657396
H171	H	0.099532	-0.243291	0.202030
H172	H	0.599532	0.256709	0.702030
H173	H	0.056453	-0.314760	0.160514
H174	H	0.556453	0.185240	0.660514
H175	H	0.144696	-0.303046	0.160514
H176	H	0.644696	0.196954	0.660514
C177	C	-0.006094	-1.002340	0.191309
C178	C	0.493906	-0.502340	0.691309
H179	H	-0.036729	-1.033102	0.229472
H180	H	0.463271	-0.533102	0.729472
H181	H	-0.037623	-0.975242	0.157539
H182	H	0.462377	-0.475242	0.657539
H183	H	0.021165	-1.033738	0.157556
H184	H	0.521165	-0.533738	0.657556
C185	C	-0.263080	-0.750905	-0.000002
C186	C	0.236920	-0.250905	0.499998
H187	H	-0.317058	-0.759938	-0.000010
H188	H	0.182942	-0.259938	0.499990
H189	H	-0.246376	-0.722773	0.047945
H190	H	0.253624	-0.222773	0.547945
H191	H	-0.246386	-0.722777	-0.047955
H192	H	0.253614	-0.222777	0.452045
H193	H	0.195289	-0.800188	0.203716
H194	H	0.695289	-0.300188	0.703716
H195	H	-0.541717	-1.016972	-0.000014
H196	H	-0.041717	-0.516972	0.499986
C197	C	0.209957	-0.785429	0.808676
C198	C	0.709957	-0.285429	1.308676
H199	H	0.240609	-0.754677	0.770518
H200	H	0.740609	-0.254677	1.270518
H201	H	0.182706	-0.754032	0.842430
H202	H	0.682706	-0.254032	1.342430
H203	H	0.241483	-0.812540	0.842445
H204	H	0.741483	-0.312540	1.342445
H205	H	0.103959	-0.520923	0.135973
H206	H	0.603959	-0.020923	0.635973
H207	H	0.195267	-0.800183	0.639297
H208	H	0.695267	-0.300183	1.139297
H209	H	0.106256	-0.664142	-0.135986
H210	H	0.606256	-0.164142	0.364014
H211	H	-0.287620	-1.021039	-0.000017
H212	H	0.212380	-0.521039	0.499983
C213	C	-0.660395	-0.744549	0.000013
C214	C	-0.160395	-0.244549	0.500013
H215	H	-0.714373	-0.753587	0.000004
H216	H	-0.214373	-0.253587	0.500004
H217	H	-0.643694	-0.716422	0.047964
H218	H	-0.143694	-0.216422	0.547964
H219	H	-0.643704	-0.716414	-0.047936
H220	H	-0.143704	-0.216414	0.452064
C221	C	0.103775	-0.509654	-0.157397
C222	C	0.603775	-0.009654	0.342603
H223	H	0.104340	-0.544467	-0.202033
H224	H	0.604340	-0.044467	0.297967
H225	H	0.059163	-0.484715	-0.160523
H226	H	0.559163	0.015285	0.339477
H227	H	0.147407	-0.473003	-0.160505
H228	H	0.647407	0.026997	0.339495
H229	H	-0.508514	-0.766719	0.000011
H230	H	-0.008514	-0.266719	0.500011
C231	C	-0.006103	-1.002337	0.373045
C232	C	0.493897	-0.502337	0.873045
H233	H	-0.036747	-1.033088	0.334871
H234	H	0.463253	-0.533088	0.834871
H235	H	0.021143	-1.033735	0.406814
H236	H	0.521143	-0.533735	0.906814
H237	H	-0.037636	-0.975229	0.406798
H238	H	0.462364	-0.475229	0.906798
