data_functionalizedCrystal
_audit_creation_method	'MofGen! by Chris Wilmer'
_symmetry_space_group_name_H-M	'P1'
_symmetry_Int_Tables_number	1
_symmetry_cell_setting	triclinic
loop_
_symmetry_equiv_pos_as_xyz
  x,y,z
_cell_length_a	12.811457
_cell_length_b	12.811415
_cell_length_c	16.053802
_cell_angle_alpha	87.154093
_cell_angle_beta	92.831403
_cell_angle_gamma	84.559489
loop_
_atom_site_label
_atom_site_type_symbol
_atom_site_fract_x
_atom_site_fract_y
_atom_site_fract_z
O1	O	1.391681	0.142957	0.025122
O2	O	1.087696	0.156807	0.001055
O3	O	1.246610	-0.002115	0.025125
O4	O	1.232767	0.301878	0.001053
O5	O	1.237862	0.006596	0.162662
O6	O	1.078948	0.165518	0.138592
O7	O	1.382933	0.151668	0.162659
Zn8	Zn	1.229552	0.159976	0.172463
Zn9	Zn	1.241077	0.148498	-0.008748
O10	O	1.224020	0.310589	0.138590
C11	C	1.044397	0.160119	0.066955
C12	C	0.928412	0.156999	0.058409
C13	C	1.241192	-0.036686	0.096761
C14	C	1.238070	-0.152674	0.105304
C15	C	0.700927	0.160614	0.192310
C16	C	0.591948	0.157682	0.184285
C17	C	0.601475	0.148196	0.034333
C18	C	0.710453	0.151128	0.042359
C19	C	0.760175	0.157338	0.121350
C20	C	0.869155	0.160278	0.129374
C21	C	0.878680	0.150784	-0.020576
C22	C	0.769702	0.147852	-0.028602
C23	C	1.241721	-0.380114	-0.028605
C24	C	1.238788	-0.489096	-0.020582
C25	C	1.229262	-0.479619	0.129371
C26	C	1.232195	-0.370638	0.121348
C27	C	1.238427	-0.320890	0.042358
C28	C	1.241368	-0.211907	0.034336
C29	C	1.231834	-0.202431	0.184287
C30	C	1.228901	-0.311413	0.192310
C31	C	1.426233	0.148355	0.096757
C32	C	1.542218	0.151475	0.105298
C33	C	1.229437	0.345160	0.066952
C34	C	1.232560	0.461148	0.058404
N35	N	1.221694	0.167808	0.296135
N36	N	1.248943	0.140658	-0.132419
C37	C	1.289337	0.100211	0.350070
C38	C	1.283850	0.105700	0.436646
C39	C	1.210725	0.178792	0.469284
C40	C	1.143074	0.246391	0.415342
C41	C	1.148557	0.240897	0.328768
C42	C	1.186775	0.202763	0.727065
C43	C	1.181300	0.208255	0.813645
C44	C	1.322076	0.067562	0.834944
C45	C	1.327556	0.062078	0.748367
C46	C	1.259902	0.129674	0.694432
N47	N	1.205117	0.184406	0.557778
N48	N	1.265506	0.124053	0.605940
H49	H	0.741409	0.165685	0.256627
O50	O	1.242033	-0.546475	-0.089597
C51	C	1.248125	-0.479187	-0.161035
H52	H	1.281845	-0.404140	-0.141974
H53	H	1.301217	-0.520161	-0.206865
H54	H	1.166243	-0.458849	-0.192032
H55	H	1.246445	-0.171404	-0.029981
O56	O	1.247974	-0.331763	-0.105297
C57	C	1.340253	-0.279996	-0.106739
H58	H	1.399773	-0.317841	-0.056406
H59	H	1.374828	-0.286651	-0.170561
H60	H	1.320781	-0.193638	-0.094416
O61	O	0.534544	0.160922	0.253297
C62	C	0.601807	0.167004	0.324735
H63	H	0.676866	0.200715	0.305673
H64	H	0.560822	0.220098	0.370555
H65	H	0.622125	0.085118	0.355745
H66	H	1.223823	-0.351933	0.256622
H67	H	0.560974	0.143122	-0.029977
H68	H	1.121749	0.267779	0.840214
O69	O	1.228452	-0.144835	0.253187
C70	C	1.139576	-0.070483	0.245365
H71	H	1.078269	-0.098313	0.199878
H72	H	1.105090	-0.061366	0.309014
H73	H	1.163501	0.008350	0.220880
H74	H	1.083528	0.305900	0.441920
O75	O	1.121018	0.268537	0.674798
C76	C	1.055288	0.334210	0.722174
H77	H	1.094225	0.339720	0.787000
H78	H	1.041693	0.415897	0.689700
H79	H	0.976798	0.300120	0.728130
H80	H	1.377155	0.012527	0.878865
O81	O	0.721324	0.142009	-0.105327
C82	C	0.647549	0.230326	-0.122109
H83	H	0.669998	0.297018	-0.082501
H84	H	0.646827	0.256418	-0.191084
H85	H	0.566165	0.208957	-0.106313
H86	H	1.224180	-0.520142	0.193680
H87	H	1.348888	0.040697	0.323503
O88	O	1.349680	0.040002	0.488921
C89	C	1.415390	-0.025696	0.441549
H90	H	1.420853	0.013229	0.376703
H91	H	1.497086	-0.039215	0.473996
H92	H	1.381367	-0.104224	0.435642
O93	O	0.936328	0.147749	-0.089465
C94	C	0.988620	0.239486	-0.096989
H95	H	0.997144	0.274150	-0.033247
H96	H	1.069743	0.219236	-0.121357
H97	H	0.941260	0.299253	-0.142448
O98	O	0.917483	0.166492	0.206069
C99	C	0.969255	0.258767	0.207531
H100	H	0.931427	0.318318	0.157209
H101	H	0.962583	0.293302	0.271361
H102	H	1.055615	0.239298	0.195206
O103	O	1.082804	0.306672	0.276490
C104	C	1.017069	0.372346	0.323859
H105	H	1.055999	0.377862	0.388686
H106	H	1.003474	0.454031	0.291382
H107	H	0.938579	0.338255	0.329812
H108	H	1.387101	0.002561	0.721796
