data_functionalizedCrystal
_audit_creation_method	'MofGen! by Chris Wilmer'
_symmetry_space_group_name_H-M	'P1'
_symmetry_Int_Tables_number	1
_symmetry_cell_setting	triclinic
loop_
_symmetry_equiv_pos_as_xyz
  x,y,z
_cell_length_a	17.077404
_cell_length_b	19.805405
_cell_length_c	17.077396
_cell_angle_alpha	89.968350
_cell_angle_beta	89.980499
_cell_angle_gamma	90.026635
loop_
_atom_site_label
_atom_site_type_symbol
_atom_site_fract_x
_atom_site_fract_y
_atom_site_fract_z
Zn1	Zn	1.200035	-0.269459	-0.443825
Zn2	Zn	1.700035	0.230541	0.056175
Zn3	Zn	1.199934	-0.382652	-0.312552
Zn4	Zn	1.699934	0.117348	0.187448
Zn5	Zn	1.068767	-0.269483	-0.312573
Zn6	Zn	1.568767	0.230517	0.187427
Zn7	Zn	1.068727	-0.382612	-0.443776
Zn8	Zn	1.568727	0.117388	0.056224
O9	O	1.134366	-0.326052	-0.378182
O10	O	1.634366	0.173948	0.121818
O11	O	1.309869	-0.284481	-0.426424
O12	O	1.809869	0.215519	0.073576
O13	O	1.182509	-0.367667	-0.202708
O14	O	1.682509	0.132333	0.297292
O15	O	1.086239	-0.174763	-0.330014
O16	O	1.586239	0.325237	0.169986
O17	O	1.309795	-0.367644	-0.329978
O18	O	1.809795	0.132356	0.170022
O19	O	1.182681	-0.174746	-0.426444
O20	O	1.682681	0.325254	0.073556
O21	O	1.086141	-0.284522	-0.202724
O22	O	1.586141	0.215478	0.297276
O23	O	0.958915	-0.284483	-0.329966
O24	O	1.458915	0.215517	0.170034
O25	O	1.086171	-0.367575	-0.553629
O26	O	1.586171	0.132425	-0.053629
O27	O	0.958886	-0.367598	-0.426360
O28	O	1.458886	0.132402	0.073640
O29	O	1.182643	-0.284442	-0.553666
O30	O	1.682643	0.215558	-0.053666
O31	O	1.182470	-0.477363	-0.329930
O32	O	1.682470	0.022637	0.170070
O33	O	1.086073	-0.477334	-0.426339
O34	O	1.586073	0.022666	0.073661
C35	C	0.930418	-0.326039	-0.378160
C36	C	1.430418	0.173961	0.121840
C37	C	0.843168	-0.326050	-0.378169
C38	C	1.343168	0.173950	0.121831
C39	C	0.802183	-0.369394	-0.428281
C40	C	1.302183	0.130606	0.071719
C41	C	0.720203	-0.369395	-0.428294
C42	C	1.220203	0.130605	0.071706
C43	C	0.679209	-0.326056	-0.378190
C44	C	1.179209	0.173944	0.121810
C45	C	0.720200	-0.282708	-0.328076
C46	C	1.220200	0.217292	0.171924
C47	C	0.802179	-0.282703	-0.328068
C48	C	1.302179	0.217297	0.171932
C49	C	0.549330	-0.282721	-0.328095
C50	C	1.049330	0.217279	0.171905
C51	C	0.467345	-0.282726	-0.328102
C52	C	0.967345	0.217274	0.171898
C53	C	0.467354	-0.369413	-0.428321
C54	C	0.967354	0.130587	0.071679
C55	C	0.549333	-0.369409	-0.428313
C56	C	1.049333	0.130591	0.071687
C57	C	0.590318	-0.326061	-0.378197
C58	C	1.090318	0.173939	0.121803
C59	C	1.134278	-0.501908	-0.378144
C60	C	1.634278	-0.001908	0.121856
C61	C	1.134312	-0.577140	-0.378154
C62	C	1.634312	-0.077140	0.121846
C63	C	1.184555	-0.612477	-0.328006
C64	C	1.684555	-0.112477	0.171994
C65	C	1.184588	-0.683165	-0.328023
C66	C	1.684588	-0.183165	0.171977
C67	C	1.134374	-0.718515	-0.378185
C68	C	1.634374	-0.218515	0.121815
C69	C	1.084129	-0.683173	-0.428338
C70	C	1.584129	-0.183173	0.071662
C71	C	1.084100	-0.612486	-0.428324
C72	C	1.584100	-0.112486	0.071676
C73	C	1.084245	-0.968246	-0.428397
C74	C	1.584245	-0.468246	0.071603
C75	C	1.084276	-1.038938	-0.428405
C76	C	1.584276	-0.538938	0.071595
C77	C	1.184733	-1.038925	-0.328095
C78	C	1.684733	-0.538925	0.171905
C79	C	1.184704	-0.968238	-0.328081
C80	C	1.684704	-0.468238	0.171919
C81	C	1.134462	-0.932902	-0.378237
C82	C	1.634462	-0.432902	0.121763
C83	C	1.134427	-0.856254	-0.378219
C84	C	1.634427	-0.356254	0.121781
C85	C	1.134404	-0.795162	-0.378200
C86	C	1.634404	-0.295162	0.121800
C87	C	1.339110	-0.326064	-0.378204
C88	C	1.839110	0.173936	0.121796
C89	C	1.426360	-0.326070	-0.378213
C90	C	1.926360	0.173930	0.121787
C91	C	1.134414	-0.326002	-0.582926
C92	C	1.634414	0.173998	-0.082926
C93	C	1.134434	-0.325980	-0.670176
C94	C	1.634434	0.174020	-0.170176
C95	C	1.134476	-0.149509	-0.378237
C96	C	1.634476	0.350491	0.121763
C97	C	1.134523	-0.074277	-0.378261
C98	C	1.634523	0.425723	0.121739
C99	C	1.184668	-0.282690	-0.711186
C100	C	1.684668	0.217310	-0.211186
C101	C	1.184678	-0.282667	-0.793167
C102	C	1.684678	0.217333	-0.293167
C103	C	1.134456	-0.325939	-0.834135
C104	C	1.634456	0.174061	-0.334135
C105	C	1.084216	-0.369232	-0.793119
C106	C	1.584216	0.130768	-0.293119
C107	C	1.084203	-0.369251	-0.711140
C108	C	1.584203	0.130749	-0.211140
C109	C	1.084248	-0.369191	-0.963989
C110	C	1.584248	0.130809	-0.463989
C111	C	1.084261	-0.369174	-1.045974
C112	C	1.584261	0.130826	-0.545974
C113	C	1.184722	-0.282608	-1.046016
C114	C	1.684722	0.217392	-0.546016
C115	C	1.184709	-0.282626	-0.964037
C116	C	1.684709	0.217374	-0.464037
C117	C	1.134470	-0.325920	-0.923026
C118	C	1.634470	0.174080	-0.423026
C119	C	1.134364	-0.326052	-0.174234
C120	C	1.634364	0.173948	0.325766
C121	C	1.134496	-0.325883	-0.086984
C122	C	1.634496	0.174117	0.413016
H123	H	0.582697	-0.247417	-0.287293
H124	H	1.082697	0.252583	0.212707
F125	F	0.845805	-0.415525	-0.481605
F126	F	1.345805	0.084475	0.018395
H127	H	1.043364	-0.404408	-1.079328
H128	H	1.543364	0.095592	-0.579328
F129	F	1.030763	-0.415283	-0.836723
F130	F	1.530763	0.084717	-0.336723
F131	F	1.030775	-0.415268	-0.920345
F132	F	1.530775	0.084732	-0.420345
F133	F	1.030772	-0.930648	-0.481776
F134	F	1.530772	-0.430648	0.018224
H135	H	1.225586	-0.247417	-0.826554
H136	H	1.725586	0.252583	-0.326554
H137	H	1.043188	-0.583715	-0.469161
H138	H	1.543188	-0.083715	0.030839
H139	H	1.225645	-1.067704	-0.287259
H140	H	1.725645	-0.567704	0.212741
F141	F	0.423718	-0.236603	-0.274773
F142	F	0.923718	0.263397	0.225227
F143	F	0.676569	-0.236579	-0.274757
F144	F	1.176569	0.263421	0.225243
F145	F	1.030691	-0.720797	-0.481729
F146	F	1.530691	-0.220797	0.018271
F147	F	0.845797	-0.236570	-0.274734
F148	F	1.345797	0.263430	0.225266
H149	H	1.225500	-0.711933	-0.287187
H150	H	1.725500	-0.211933	0.212813
H151	H	1.043386	-1.067719	-0.469259
H152	H	1.543386	-0.567719	0.030741
F153	F	1.238126	-0.236636	-0.667592
F154	F	1.738126	0.263364	-0.167592
F155	F	1.238166	-0.236575	-0.920437
F156	F	1.738166	0.263425	-0.420437
H157	H	1.043289	-0.404496	-0.677751
H158	H	1.543289	0.095504	-0.177751
H159	H	1.225590	-0.939458	-0.287232
H160	H	1.725590	-0.439458	0.212768
H161	H	0.686837	-0.404691	-0.469099
H162	H	1.186837	0.095309	0.030901
F163	F	0.592960	-0.415539	-0.481633
F164	F	1.092960	0.084461	0.018367
F165	F	0.423734	-0.415539	-0.481666
F166	F	0.923734	0.084461	0.018334
F167	F	1.237995	-0.574861	-0.274611
F168	F	1.737995	-0.074861	0.225389
F169	F	1.238192	-0.236531	-1.089663
F170	F	1.738192	0.263469	-0.589663
