data_functionalizedCrystal
_audit_creation_method	'MofGen! by Chris Wilmer'
_symmetry_space_group_name_H-M	'P1'
_symmetry_Int_Tables_number	1
_symmetry_cell_setting	triclinic
loop_
_symmetry_equiv_pos_as_xyz
  x,y,z
_cell_length_a	16.625548
_cell_length_b	13.032721
_cell_length_c	16.625539
_cell_angle_alpha	82.844953
_cell_angle_beta	90.017055
_cell_angle_gamma	97.205603
loop_
_atom_site_label
_atom_site_type_symbol
_atom_site_fract_x
_atom_site_fract_y
_atom_site_fract_z
Zn1	Zn	1.191890	-0.416032	0.496666
Zn2	Zn	1.525224	-0.082698	0.829999
Zn3	Zn	1.858557	0.250635	1.163333
Zn4	Zn	1.174679	-0.590793	0.378954
Zn5	Zn	1.508012	-0.257460	0.712287
Zn6	Zn	1.841346	0.075873	1.045620
Zn7	Zn	1.057057	-0.416066	0.361850
Zn8	Zn	1.390390	-0.082732	0.695183
Zn9	Zn	1.723724	0.250601	1.028516
Zn10	Zn	1.039905	-0.590739	0.513738
Zn11	Zn	1.373238	-0.257406	0.847072
Zn12	Zn	1.706572	0.075928	1.180405
O13	O	1.115883	-0.503407	0.437802
O14	O	1.449216	-0.170074	0.771135
O15	O	1.782550	0.163259	1.104469
O16	O	1.302439	-0.439223	0.481064
O17	O	1.635772	-0.105889	0.814398
O18	O	1.969106	0.227444	1.147731
O19	O	1.159051	-0.567652	0.263856
O20	O	1.492385	-0.234319	0.597189
O21	O	1.825718	0.099014	0.930523
O22	O	1.089324	-0.269821	0.365431
O23	O	1.422658	0.063512	0.698764
O24	O	1.755991	0.396845	1.032097
O25	O	1.289794	-0.567619	0.394582
O26	O	1.623127	-0.234286	0.727915
O27	O	1.956460	0.099047	1.061248
O28	O	1.188386	-0.269796	0.464479
O29	O	1.521719	0.063537	0.797813
O30	O	1.855052	0.396870	1.131146
O31	O	1.072635	-0.439281	0.251290
O32	O	1.405968	-0.105947	0.584623
O33	O	1.739302	0.227386	0.917957
O34	O	0.941950	-0.439228	0.381985
O35	O	1.275284	-0.105895	0.715318
O36	O	1.608617	0.227439	1.048652
O37	O	1.060091	-0.567527	0.624302
O38	O	1.393424	-0.234193	0.957636
O39	O	1.726758	0.099140	1.290969
O40	O	0.929349	-0.567560	0.493577
O41	O	1.262682	-0.234227	0.826910
O42	O	1.596015	0.099107	1.160243
O43	O	1.171754	-0.439170	0.611759
O44	O	1.505087	-0.105837	0.945093
O45	O	1.838421	0.227497	1.278426
O46	O	1.142420	-0.737026	0.411136
O47	O	1.475753	-0.403693	0.744469
O48	O	1.809086	-0.070359	1.077803
O49	O	1.043402	-0.736986	0.510162
O50	O	1.376735	-0.403653	0.843495
O51	O	1.710069	-0.070320	1.176828
C52	C	1.089204	-0.774925	0.464375
C53	C	1.422537	-0.441591	0.797708
C54	C	1.755871	-0.108258	1.131042
C55	C	1.077864	-0.891081	0.475770
C56	C	1.411198	-0.557747	0.809103
C57	C	1.744531	-0.224414	1.142437
C58	C	0.906394	-0.503393	0.437778
C59	C	1.239727	-0.170059	0.771111
C60	C	1.573060	0.163274	1.104445
C61	C	0.816771	-0.503411	0.437789
C62	C	1.150104	-0.170078	0.771123
C63	C	1.483437	0.163255	1.104456
C64	C	1.121844	-0.942852	0.431891
C65	C	1.455177	-0.609519	0.765224
C66	C	1.788511	-0.276185	1.098558
C67	C	1.110125	-1.062905	0.443667
C68	C	1.443458	-0.729572	0.777001
C69	C	1.776792	-0.396239	1.110334
C70	C	0.488594	-0.503418	0.437824
C71	C	0.821928	-0.170085	0.771158
C72	C	1.155261	0.163248	1.104491
C73	C	0.579903	-0.503413	0.437812
C74	C	0.913237	-0.170080	0.771145
C75	C	1.246570	0.163253	1.104478
C76	C	0.652679	-0.503415	0.437806
C77	C	0.986013	-0.170082	0.771140
C78	C	1.319346	0.163251	1.104473
C79	C	0.743994	-0.503409	0.437795
C80	C	1.077328	-0.170076	0.771128
C81	C	1.410661	0.163257	1.104461
C82	C	1.326190	-0.503423	0.437827
C83	C	1.659524	-0.170090	0.771160
C84	C	1.992857	0.163243	1.104493
C85	C	1.415811	-0.503430	0.437837
C86	C	1.749144	-0.170097	0.771170
C87	C	2.082477	0.163237	1.104504
C88	C	1.115929	-0.503338	0.648104
C89	C	1.449263	-0.170005	0.981437
C90	C	1.782596	0.163328	1.314771
C91	C	1.115949	-0.503309	0.737722
C92	C	1.449282	-0.169976	1.071056
C93	C	1.782616	0.163358	1.404389
C94	C	1.142688	-0.230830	0.411143
C95	C	1.476022	0.102503	0.744476
C96	C	1.809355	0.435837	1.077809
C97	C	1.154111	-0.114674	0.399782
C98	C	1.487444	0.218659	0.733115
C99	C	1.820778	0.551993	1.066449
C100	C	1.115891	-0.503401	0.228310
C101	C	1.449224	-0.170067	0.561644
C102	C	1.782557	0.163266	0.894977
C103	C	1.116056	-0.503136	0.138664
C104	C	1.449389	-0.169802	0.471997
C105	C	1.782723	0.163531	0.805330
C106	C	1.115964	-0.503286	0.810503
C107	C	1.449298	-0.169953	1.143836
C108	C	1.782631	0.163381	1.477169
C109	C	1.115987	-0.503247	0.901807
C110	C	1.449320	-0.169914	1.235141
C111	C	1.782654	0.163420	1.568474
C112	C	1.116010	-0.503210	0.974580
C113	C	1.449343	-0.169877	1.307914
C114	C	1.782676	0.163456	1.641247
C115	C	1.116033	-0.503173	1.065891
C116	C	1.449367	-0.169839	1.399224
C117	C	1.782700	0.163494	1.732558
H118	H	1.063796	-1.107457	0.489958
H119	H	1.397130	-0.774124	0.823292
H120	H	1.730463	-0.440790	1.156625
N121	N	1.215490	-1.055675	0.338472
N122	N	1.548823	-0.722341	0.671805
N123	N	1.882157	-0.389008	1.005138
H124	H	1.215165	-0.978276	0.338749
H125	H	1.548498	-0.644942	0.672083
H126	H	1.881831	-0.311609	1.005416
H127	H	1.201127	-1.074759	0.282733
H128	H	1.534461	-0.741426	0.616066
H129	H	1.867794	-0.408092	0.949400
N130	N	1.016488	-0.950090	0.537074
N131	N	1.349821	-0.616757	0.870408
N132	N	1.683155	-0.283423	1.203741
H133	H	0.988747	-0.899047	0.564738
H134	H	1.322080	-0.565713	0.898071
H135	H	1.655413	-0.232380	1.231405
H136	H	1.044900	-0.995311	0.578825
H137	H	1.378234	-0.661978	0.912158
H138	H	1.711567	-0.328644	1.245492
N139	N	1.183221	-0.883847	0.370585
N140	N	1.516554	-0.550513	0.703919
N141	N	1.849887	-0.217180	1.037252
H142	H	1.182894	-0.806448	0.370865
H143	H	1.516228	-0.473115	0.704198
H144	H	1.849561	-0.139781	1.037532
H145	H	1.168859	-0.902929	0.314846
H146	H	1.502193	-0.569595	0.648179
H147	H	1.835526	-0.236262	0.981512
