data_functionalizedCrystal
_audit_creation_method	'MofGen! by Chris Wilmer'
_symmetry_space_group_name_H-M	'P1'
_symmetry_Int_Tables_number	1
_symmetry_cell_setting	triclinic
loop_
_symmetry_equiv_pos_as_xyz
  x,y,z
_cell_length_a	19.188930
_cell_length_b	16.109301
_cell_length_c	14.586319
_cell_angle_alpha	89.994786
_cell_angle_beta	89.982618
_cell_angle_gamma	83.303130
loop_
_atom_site_label
_atom_site_type_symbol
_atom_site_fract_x
_atom_site_fract_y
_atom_site_fract_z
O1	O	0.926386	0.103796	-0.076538
O2	O	1.259720	0.437130	0.256795
O3	O	1.593053	0.770463	0.590129
O4	O	0.723108	0.117769	-0.076476
O5	O	1.056441	0.451103	0.256858
O6	O	1.389774	0.784436	0.590191
O7	O	0.830331	-0.010267	-0.076499
O8	O	1.163665	0.323067	0.256834
O9	O	1.496998	0.656400	0.590168
O10	O	0.819163	0.231832	-0.076514
O11	O	1.152496	0.565166	0.256819
O12	O	1.485830	0.898499	0.590152
O13	O	0.830324	-0.010268	0.075982
O14	O	1.163657	0.323065	0.409315
O15	O	1.496991	0.656398	0.742648
O16	O	0.723100	0.117767	0.076005
O17	O	1.056434	0.451101	0.409339
O18	O	1.389767	0.784434	0.742672
O19	O	0.926379	0.103795	0.075943
O20	O	1.259712	0.437128	0.409276
O21	O	1.593046	0.770461	0.742609
Cu22	Cu	0.824739	0.110781	0.089897
Cu23	Cu	1.158072	0.444114	0.423230
Cu24	Cu	1.491406	0.777448	0.756563
Cu25	Cu	0.824748	0.110783	-0.090429
Cu26	Cu	1.158081	0.444116	0.242904
Cu27	Cu	1.491415	0.777450	0.576237
O28	O	0.819155	0.231830	0.075966
O29	O	1.152489	0.565164	0.409300
O30	O	1.485822	0.898497	0.742633
C31	C	0.829875	-0.041241	-0.000258
C32	C	1.163209	0.292092	0.333075
C33	C	1.496542	0.625426	0.666409
C34	C	0.828519	-0.133532	-0.000256
C35	C	1.161852	0.199802	0.333077
C36	C	1.495186	0.533135	0.666410
C37	C	0.697092	0.117316	-0.000227
C38	C	1.030425	0.450649	0.333106
C39	C	1.363759	0.783983	0.666440
C40	C	0.619584	0.115958	-0.000203
C41	C	0.952918	0.449291	0.333130
C42	C	1.286251	0.782624	0.666464
C43	C	0.888990	-0.356005	-0.000290
C44	C	1.222323	-0.022671	0.333044
C45	C	1.555656	0.310662	0.666377
C46	C	0.887710	-0.442721	-0.000297
C47	C	1.221043	-0.109387	0.333037
C48	C	1.554376	0.223946	0.666370
C49	C	0.760493	-0.422425	-0.000254
C50	C	1.093826	-0.089091	0.333079
C51	C	1.427159	0.244242	0.666413
C52	C	0.761773	-0.335710	-0.000253
C53	C	1.095106	-0.002377	0.333080
C54	C	1.428440	0.330956	0.666413
C55	C	0.826024	-0.302503	-0.000267
C56	C	1.159357	0.030831	0.333067
C57	C	1.492690	0.364164	0.666400
C58	C	0.823463	-0.475933	-0.000274
C59	C	1.156797	-0.142600	0.333059
C60	C	1.490130	0.190733	0.666392
C61	C	0.822075	-0.569955	-0.000282
C62	C	1.155408	-0.236621	0.333051
C63	C	1.488742	0.096712	0.666385
C64	C	0.827412	-0.208475	-0.000261
C65	C	1.160746	0.124858	0.333073
C66	C	1.494079	0.458191	0.666406
C67	C	0.574836	0.191085	-0.000222
C68	C	0.908169	0.524418	0.333111
C69	C	1.241503	0.857752	0.666445
C70	C	0.502009	0.189809	-0.000232
C71	C	0.835343	0.523142	0.333101
C72	C	1.168676	0.856475	0.666435
C73	C	0.473934	0.113401	-0.000241
C74	C	0.807267	0.446734	0.333092
C75	C	1.140601	0.780068	0.666425
C76	C	0.518692	0.038264	-0.000217
C77	C	0.852026	0.371597	0.333116
C78	C	1.185359	0.704931	0.666450
C79	C	0.591517	0.039542	-0.000198
C80	C	0.924851	0.372875	0.333136
C81	C	1.258184	0.706209	0.666469
N82	N	0.365820	0.054998	-0.052170
N83	N	0.699153	0.388331	0.281163
N84	N	1.032487	0.721664	0.614496
N85	N	0.296638	0.053788	-0.052191
N86	N	0.629972	0.387122	0.281143
N87	N	0.963305	0.720455	0.614476
C88	C	0.254516	0.109545	-0.000297
C89	C	0.587850	0.442878	0.333036
C90	C	0.921183	0.776212	0.666370
N91	N	0.284188	0.166569	0.051606
N92	N	0.617521	0.499903	0.384939
N93	N	0.950855	0.833236	0.718272
N94	N	0.353375	0.167781	0.051622
N95	N	0.686709	0.501114	0.384955
N96	N	1.020042	0.834448	0.718289
C97	C	0.394968	0.112007	-0.000262
C98	C	0.728302	0.445340	0.333072
C99	C	1.061635	0.778673	0.666405
C100	C	0.130800	0.183294	-0.000326
C101	C	0.464134	0.516627	0.333008
C102	C	0.797467	0.849961	0.666341
C103	C	0.057973	0.182015	-0.000330
C104	C	0.391306	0.515348	0.333003
C105	C	0.724639	0.848681	0.666337
C106	C	0.074657	0.030468	-0.000324
C107	C	0.407991	0.363801	0.333009
C108	C	0.741324	0.697134	0.666342
C109	C	0.147483	0.031749	-0.000311
C110	C	0.480817	0.365082	0.333023
C111	C	0.814150	0.698416	0.666356
C112	C	0.175550	0.108165	-0.000316
C113	C	0.508884	0.441498	0.333017
C114	C	0.842217	0.774831	0.666351
C115	C	0.952395	0.104248	-0.000308
C116	C	1.285728	0.437581	0.333026
C117	C	1.619061	0.770915	0.666359
C118	C	1.029903	0.105606	-0.000338
C119	C	1.363236	0.438940	0.332995
C120	C	1.696569	0.772273	0.666329
C121	C	0.819612	0.262805	-0.000277
C122	C	1.152945	0.596138	0.333057
C123	C	1.486278	0.929471	0.666390
C124	C	0.820968	0.355096	-0.000284
C125	C	1.154301	0.688429	0.333049
C126	C	1.487635	1.021762	0.666382
N127	N	0.824738	0.110779	0.216728
N128	N	1.158071	0.444112	0.550062
N129	N	1.491405	0.777445	0.883395
N130	N	0.824754	0.110778	-0.217261
N131	N	1.158088	0.444112	0.116072
N132	N	1.491421	0.777445	0.449405
C133	C	0.872232	0.054103	0.451724
C134	C	1.205566	0.387437	0.785058
C135	C	1.538899	0.720770	1.118391
C136	C	0.872234	0.054101	0.547706
C137	C	1.205568	0.387435	0.881039
C138	C	1.538901	0.720768	1.214372
C139	C	0.777255	0.167457	0.547736
C140	C	1.110588	0.500790	0.881069
C141	C	1.443922	0.834123	1.214403
C142	C	0.777250	0.167454	0.451757
C143	C	1.110584	0.500787	0.785090
C144	C	1.443917	0.834121	1.118423
C145	C	0.824743	0.110778	0.403753
C146	C	1.158076	0.444112	0.737087
C147	C	1.491409	0.777445	1.070420
C148	C	0.824750	0.110779	0.595714
C149	C	1.158083	0.444112	0.929047
C150	C	1.491416	0.777446	1.262381
C151	C	0.824751	0.110777	0.699781
C152	C	1.158085	0.444110	1.033114
C153	C	1.491418	0.777444	1.366448
C154	C	0.824740	0.110779	0.299679
C155	C	1.158074	0.444112	0.633013
C156	C	1.491407	0.777445	0.966346
H157	H	0.941306	-0.328970	-0.000302
H158	H	1.274640	0.004363	0.333031
H159	H	1.607973	0.337697	0.666365
F160	F	0.726714	0.227774	0.598831
F161	F	1.060048	0.561108	0.932164
F162	F	1.393381	0.894441	1.265497
H163	H	0.597683	0.253308	-0.000228
H164	H	0.931016	0.586642	0.333105
H165	H	1.264350	0.919975	0.666439
H166	H	0.938983	-0.486279	-0.000317
H167	H	1.272316	-0.152946	0.333016
H168	H	1.605650	0.180388	0.666349
F169	F	0.454376	0.269773	-0.000250
F170	F	0.787709	0.603106	0.333083
F171	F	1.121043	0.936439	0.666417
F172	F	0.694753	-0.278766	-0.000236
F173	F	1.028086	0.054568	0.333098
F174	F	1.361419	0.387901	0.666431
F175	F	0.488812	-0.043055	-0.000223
F176	F	0.822145	0.290279	0.333111
F177	F	1.155478	0.623612	0.666444
H178	H	0.627952	-0.021638	-0.000183
H179	H	0.961286	0.311696	0.333151
H180	H	1.294619	0.645029	0.666484
H181	H	0.738575	0.213606	0.412696
H182	H	1.071909	0.546939	0.746029
H183	H	1.405242	0.880273	1.079362
H184	H	0.051799	-0.031745	-0.000389
H185	H	0.385133	0.301588	0.332945
H186	H	0.718466	0.634922	0.666278
F187	F	0.922777	-0.006221	0.598757
F188	F	1.256111	0.327112	0.932090
F189	F	1.589444	0.660445	1.265424
F190	F	0.160674	0.264621	-0.000324
F191	F	0.494007	0.597954	0.333009
F192	F	0.827340	0.931287	0.666342
H193	H	0.183919	-0.029428	-0.000300
H194	H	0.517252	0.303905	0.333033
H195	H	0.850585	0.637239	0.666366
H196	H	0.708182	-0.449473	-0.000242
H197	H	1.041515	-0.116140	0.333092
H198	H	1.374849	0.217193	0.666425
F199	F	0.010347	0.261980	-0.000346
F200	F	0.343681	0.595313	0.332988
F201	F	0.677014	0.928647	0.666321
F202	F	0.922776	-0.006218	0.400639
F203	F	1.256110	0.327115	0.733973
F204	F	1.589443	0.660448	1.067306
