data_functionalizedCrystal
_audit_creation_method	'MofGen! by Chris Wilmer'
_symmetry_space_group_name_H-M	'P1'
_symmetry_Int_Tables_number	1
_symmetry_cell_setting	triclinic
loop_
_symmetry_equiv_pos_as_xyz
  x,y,z
_cell_length_a	14.519709
_cell_length_b	15.455313
_cell_length_c	16.992695
_cell_angle_alpha	87.152573
_cell_angle_beta	92.825816
_cell_angle_gamma	87.319402
loop_
_atom_site_label
_atom_site_type_symbol
_atom_site_fract_x
_atom_site_fract_y
_atom_site_fract_z
O1	O	1.235028	-0.072018	-0.099376
O2	O	1.735028	0.427982	0.400624
O3	O	0.967421	-0.072044	-0.111480
O4	O	1.467421	0.427956	0.388520
O5	O	1.100152	-0.072024	0.008716
O6	O	1.600152	0.427976	0.508716
O7	O	1.102298	-0.072038	-0.219572
O8	O	1.602298	0.427962	0.280428
O9	O	1.092559	0.072237	0.001871
O10	O	1.592559	0.572237	0.501871
O11	O	0.959829	0.072217	-0.118325
O12	O	1.459829	0.572217	0.381675
O13	O	1.227436	0.072243	-0.106221
O14	O	1.727436	0.572243	0.393779
Cu15	Cu	1.092939	0.085402	-0.112898
Cu16	Cu	1.592939	0.585402	0.387102
Cu17	Cu	1.101918	-0.085203	-0.104803
Cu18	Cu	1.601918	0.414797	0.395197
O19	O	1.094706	0.072223	-0.226417
O20	O	1.594706	0.572223	0.273583
C21	C	0.929225	0.000083	-0.114338
C22	C	1.429225	0.500083	0.385662
C23	C	0.826723	0.000073	-0.112647
C24	C	1.326723	0.500073	0.387353
N25	N	1.086631	0.205397	-0.118591
N26	N	1.586631	0.705397	0.381409
N27	N	1.108233	-0.205198	-0.099104
N28	N	1.608233	0.294802	0.400896
C29	C	0.451378	0.000113	-0.106425
C30	C	0.951378	0.500113	0.393575
C31	C	0.555811	0.000101	-0.108153
C32	C	1.055811	0.500101	0.391847
C33	C	0.639047	0.000092	-0.109536
C34	C	1.139047	0.500092	0.390464
C35	C	0.743487	0.000082	-0.111264
C36	C	1.243487	0.500082	0.388736
C37	C	1.265632	0.000114	-0.103363
C38	C	1.765632	0.500114	0.396637
C39	C	1.368134	0.000118	-0.105053
C40	C	1.868134	0.500118	0.394947
C41	C	1.093595	0.000106	0.034510
C42	C	1.593595	0.500106	0.534510
C43	C	1.085360	0.000105	0.121566
C44	C	1.585360	0.500105	0.621566
C45	C	1.143042	0.250799	-0.067546
C46	C	1.643042	0.750799	0.432454
C47	C	1.138280	0.341606	-0.071859
C48	C	1.638280	0.841606	0.428141
C49	C	1.077111	0.387009	-0.127221
C50	C	1.577111	0.887009	0.372779
C51	C	1.020694	0.341600	-0.178268
C52	C	1.520694	0.841600	0.321732
C53	C	1.025452	0.250795	-0.173951
C54	C	1.525452	0.750795	0.326049
C55	C	1.056574	0.658588	-0.145834
C56	C	1.556574	1.158588	0.354166
C57	C	1.051822	0.749400	-0.150148
C58	C	1.551822	1.249400	0.349852
C59	C	1.169407	0.749399	-0.043738
C60	C	1.669407	1.249399	0.456262
C61	C	1.174163	0.658592	-0.039429
C62	C	1.674163	1.158592	0.460571
C63	C	1.117743	0.613191	-0.090473
C64	C	1.617743	1.113191	0.409527
N65	N	1.072245	0.479829	-0.131632
N66	N	1.572245	0.979829	0.368368
N67	N	1.122606	0.520373	-0.086058
N68	N	1.622606	1.020373	0.413942
C69	C	1.101262	0.000091	-0.252211
C70	C	1.601262	0.500091	0.247789
C71	C	1.109498	0.000086	-0.339266
C72	C	1.609498	0.500086	0.160734
C73	C	1.164819	0.000114	0.171694
C74	C	1.664819	0.500114	0.671694
C75	C	1.157076	0.000105	0.253492
C76	C	1.657076	0.500105	0.753492
C77	C	1.069873	0.000093	0.285159
C78	C	1.569873	0.500093	0.785159
C79	C	0.990408	0.000082	0.235025
C80	C	1.490408	0.500082	0.735025
C81	C	0.998152	0.000084	0.153229
C82	C	1.498152	0.500084	0.653229
C83	C	1.037776	0.000078	0.528803
C84	C	1.537776	0.500078	1.028803
C85	C	1.030038	0.000078	0.610605
C86	C	1.530038	0.500078	1.110605
C87	C	1.196708	0.000099	0.629067
C88	C	1.696708	0.500099	1.129067
C89	C	1.204444	0.000107	0.547269
C90	C	1.704444	0.500107	1.047269
C91	C	1.124979	0.000091	0.497141
C92	C	1.624979	0.500091	0.997141
N93	N	1.061956	0.000087	0.368770
N94	N	1.561956	0.500087	0.868770
N95	N	1.132897	0.000091	0.413533
N96	N	1.632897	0.500091	0.913533
H97	H	1.184213	0.378573	-0.030294
H98	H	1.684213	0.878573	0.469706
N99	N	0.940966	0.000071	0.642972
N100	N	1.440966	0.500071	1.142972
N101	N	0.914859	0.060881	0.683674
N102	N	1.414859	0.560881	1.183674
H103	H	0.851957	0.060880	0.706537
H104	H	1.351957	0.560880	1.206537
N105	N	1.236818	0.612231	0.016992
N106	N	1.736818	1.112231	0.516992
N107	N	1.287292	0.652780	0.062475
N108	N	1.787292	1.152780	0.562475
H109	H	1.331608	0.620038	0.102272
H110	H	1.831608	1.120038	0.602272
H111	H	1.261404	0.000110	0.669890
H112	H	1.761404	0.500110	1.169890
H113	H	1.275454	0.000117	0.521492
H114	H	1.775454	0.500117	1.021492
N115	N	0.956598	0.000068	0.477617
N116	N	1.456598	0.500068	0.977617
N117	N	0.878745	0.000064	0.505905
N118	N	1.378745	0.500064	1.005905
H119	H	0.821408	0.000060	0.469752
H120	H	1.321408	0.500060	0.969752
N121	N	0.958197	0.387964	-0.234814
N122	N	1.458197	0.887964	0.265186
N123	N	0.873400	0.377831	-0.233089
N124	N	1.373400	0.877831	0.266911
H125	H	0.829258	0.410574	-0.273026
H126	H	1.329258	0.910574	0.226974
N127	N	1.227015	0.795776	0.008415
N128	N	1.727015	1.295776	0.508415
N129	N	1.220936	0.785646	0.081382
N130	N	1.720936	1.285646	0.581382
H131	H	1.261621	0.818400	0.118221
H132	H	1.761621	1.318400	0.618221
N133	N	0.916995	0.000088	0.102009
N134	N	1.416995	0.500088	0.602009
N135	N	0.923920	0.000091	0.028979
N136	N	1.423920	0.500091	0.528979
H137	H	0.866601	0.000091	-0.007196
H138	H	1.366601	0.500091	0.492804
N139	N	0.989325	0.795766	-0.206701
N140	N	1.489325	1.295766	0.293299
N141	N	0.938950	0.755220	-0.252268
N142	N	1.438950	1.255220	0.247732
H143	H	0.894811	0.787966	-0.292205
H144	H	1.394811	1.287966	0.207795
N145	N	0.967846	0.204414	-0.226105
N146	N	1.467846	0.704414	0.273895
N147	N	1.003350	0.153732	-0.272428
N148	N	1.503350	0.653732	0.227572
H149	H	0.962663	0.120976	-0.309263
H150	H	1.462663	0.620976	0.190737
H151	H	0.919405	0.000067	0.260815
H152	H	1.419405	0.500067	0.760815
H153	H	1.192855	0.213838	-0.022468
H154	H	1.692855	0.713838	0.477532
H155	H	1.235830	0.000128	0.145917
H156	H	1.735830	0.500128	0.645917
N157	N	0.998934	0.612233	-0.197975
N158	N	1.498934	1.112233	0.302025
N159	N	0.944324	0.652785	-0.247400
N160	N	1.444324	1.152785	0.252600
H161	H	0.903612	0.620045	-0.284227
H162	H	1.403612	1.120045	0.215773
H163	H	1.221781	0.000114	0.294304
H164	H	1.721781	0.500114	0.794304
