data_functionalizedCrystal
_audit_creation_method	'MofGen! by Chris Wilmer'
_symmetry_space_group_name_H-M	'P1'
_symmetry_Int_Tables_number	1
_symmetry_cell_setting	triclinic
loop_
_symmetry_equiv_pos_as_xyz
  x,y,z
_cell_length_a	20.453700
_cell_length_b	13.167930
_cell_length_c	11.102300
_cell_angle_alpha	82.075380
_cell_angle_beta	108.605850
_cell_angle_gamma	74.245432
loop_
_atom_site_label
_atom_site_type_symbol
_atom_site_fract_x
_atom_site_fract_y
_atom_site_fract_z
V1	V	1.369126	-0.148894	0.413815
O2	O	1.356921	0.007155	0.387869
O3	O	1.360024	-0.295232	0.428363
O4	O	1.361407	-0.146603	0.586366
O5	O	1.355528	-0.142502	0.228772
V6	V	1.528333	-0.130229	0.389572
O7	O	1.460525	-0.189838	0.466996
O8	O	1.586999	-0.089285	0.336391
O9	O	1.463033	0.016109	0.375024
O10	O	1.579670	-0.286278	0.415518
O11	O	1.581063	-0.136621	0.574615
O12	O	1.461650	-0.132519	0.217021
V13	V	1.035792	-0.148894	0.413815
O14	O	1.023587	0.007155	0.387869
O15	O	1.026690	-0.295232	0.428363
O16	O	1.028074	-0.146603	0.586366
O17	O	1.022195	-0.142502	0.228772
V18	V	1.195000	-0.130229	0.389572
O19	O	1.127192	-0.189838	0.466996
O20	O	1.253666	-0.089285	0.336391
O21	O	1.129700	0.016109	0.375024
O22	O	1.246337	-0.286278	0.415518
O23	O	1.247730	-0.136621	0.574615
O24	O	1.128316	-0.132519	0.217021
C25	C	1.309796	-0.330906	0.426319
C26	C	1.329506	-0.450539	0.439363
V27	V	1.702459	-0.148894	0.413815
O28	O	1.690254	0.007155	0.387869
O29	O	1.693357	-0.295232	0.428363
O30	O	1.694741	-0.146603	0.586366
O31	O	1.688861	-0.142502	0.228772
V32	V	1.861667	-0.130229	0.389572
O33	O	1.793859	-0.189838	0.466996
O34	O	1.920333	-0.089285	0.336391
O35	O	1.796366	0.016109	0.375024
O36	O	1.913004	-0.286278	0.415518
O37	O	1.914397	-0.136621	0.574615
O38	O	1.794983	-0.132519	0.217021
C39	C	1.326724	-0.644607	0.227454
C40	C	1.345242	-0.757012	0.239705
C41	C	1.385065	-0.787757	0.476113
C42	C	1.366547	-0.675352	0.463863
C43	C	1.337375	-0.603780	0.339529
C44	C	1.318852	-0.491372	0.327280
C45	C	1.358680	-0.522120	0.563688
C46	C	1.377199	-0.634525	0.575938
C47	C	1.311560	-0.141314	0.627866
C48	C	1.332390	-0.140410	0.769042
C49	C	1.401042	0.051778	0.377066
C50	C	1.374412	0.171410	0.364030
C51	C	1.399277	-0.137812	0.175515
C52	C	1.371526	-0.138711	0.034337
C53	C	0.976462	-0.330906	0.426319
C54	C	0.996172	-0.450539	0.439363
C55	C	1.403464	-0.145360	0.842474
C56	C	1.423031	-0.144506	0.975122
C57	C	1.300446	-0.133757	0.960894
C58	C	1.280878	-0.134603	0.828246
C59	C	0.978227	-0.141314	0.627866
C60	C	0.999057	-0.140410	0.769042
C61	C	1.067708	0.051778	0.377066
C62	C	1.041078	0.171410	0.364030
C63	C	1.065944	-0.137812	0.175515
C64	C	1.038193	-0.138711	0.034337
C65	C	1.643129	-0.330906	0.426319
C66	C	1.662839	-0.450539	0.439363
C67	C	1.644893	-0.141314	0.627866
C68	C	1.665724	-0.140410	0.769042
C69	C	1.734375	0.051778	0.377066
C70	C	1.707745	0.171410	0.364030
C71	C	1.732611	-0.137812	0.175515
C72	C	1.704859	-0.138711	0.034337
C73	C	1.066722	-0.512207	0.452486
C74	C	1.085255	-0.624619	0.464762
C75	C	1.033234	-0.675358	0.463907
C76	C	0.962679	-0.613682	0.450786
C77	C	0.944149	-0.501274	0.438519
C78	C	1.085525	0.233077	0.350910
C79	C	1.060507	0.345488	0.338640
C80	C	0.991045	0.396227	0.339499
C81	C	0.946596	0.334552	0.352616
C82	C	0.971611	0.222145	0.364876
C83	C	1.733389	-0.512207	0.452486
C84	C	1.751921	-0.624619	0.464762
C85	C	1.699901	-0.675358	0.463907
C86	C	1.629346	-0.613682	0.450786
C87	C	1.610816	-0.501274	0.438519
C88	C	1.752191	0.233077	0.350910
C89	C	1.727174	0.345488	0.338640
C90	C	1.657712	0.396227	0.339499
C91	C	1.613262	0.334552	0.352616
C92	C	1.638278	0.222145	0.364876
C93	C	1.070130	-0.145360	0.842474
C94	C	1.089698	-0.144506	0.975122
C95	C	0.967113	-0.133757	0.960894
C96	C	0.947545	-0.134603	0.828246
C97	C	1.736797	-0.145360	0.842474
C98	C	1.756365	-0.144506	0.975122
C99	C	1.633780	-0.133757	0.960894
C100	C	1.614211	-0.134603	0.828246
H101	H	1.295095	-0.433099	0.226041
C102	C	0.963535	0.519883	0.325995
N103	N	0.942817	0.613021	0.315821
C104	C	1.577102	-0.127267	1.026001
N105	N	1.534403	-0.122343	1.075027
C106	C	1.790626	-0.456417	0.453440
N107	N	1.833743	-0.414404	0.454168
C108	C	1.161935	0.177287	0.349952
N109	N	1.219487	0.135274	0.349220
H110	H	1.109088	-0.470909	0.453177
C111	C	0.870187	0.390384	0.353557
N112	N	0.812637	0.432439	0.354271
C113	C	0.910435	-0.127267	1.026001
N114	N	0.867736	-0.122343	1.075027
H115	H	1.809373	-0.674820	0.475441
C116	C	0.922713	0.154320	0.379325
N117	N	0.885879	0.103239	0.390209
C118	C	1.720294	-0.799011	0.477393
N119	N	1.735658	-0.892147	0.487546
H120	H	1.112076	-0.150086	0.794274
H121	H	1.147571	-0.148536	1.034905
C122	C	1.294631	-0.565875	0.090688
N123	N	1.270459	-0.506576	-0.012327
H124	H	1.586996	-0.655012	0.450092
H125	H	0.889665	-0.130564	0.768452
H126	H	1.048332	-0.766889	0.473896
H127	H	1.814237	-0.148536	1.034905
C128	C	1.533201	-0.433448	0.424064
N129	N	1.474737	-0.382366	0.413173
H130	H	1.637351	0.487758	0.329514
C131	C	1.109426	0.413303	0.324268
N132	N	1.146276	0.464376	0.313461
C133	C	1.536854	0.390384	0.353557
N134	N	1.479304	0.432439	0.354271
H135	H	1.222998	-0.130564	0.768452
C136	C	1.589380	0.154320	0.379325
N137	N	1.552546	0.103239	0.390209
C138	C	1.243768	-0.127267	1.026001
N139	N	1.201070	-0.122343	1.075027
H140	H	1.778742	-0.150086	0.794274
C141	C	1.536023	-0.129163	0.747467
N142	N	1.477134	-0.125066	0.686624
H143	H	1.336567	-0.790248	0.148441
H144	H	1.408829	-0.846050	0.577340
H145	H	1.142706	-0.674820	0.475441
H146	H	0.920329	-0.655012	0.450092
H147	H	0.886699	-0.451071	0.427828
H148	H	1.808753	0.191780	0.350210
C149	C	1.409280	-0.713264	0.712696
N150	N	1.433438	-0.772570	0.815705
H151	H	1.445409	-0.150086	0.794274
C152	C	1.370398	-0.477202	0.686978
N153	N	1.379222	-0.443369	0.779838
H154	H	1.763377	0.395689	0.327963
H155	H	1.480904	-0.148536	1.034905
