data_functionalizedCrystal
_audit_creation_method	'MofGen! by Chris Wilmer'
_symmetry_space_group_name_H-M	'P1'
_symmetry_Int_Tables_number	1
_symmetry_cell_setting	triclinic
loop_
_symmetry_equiv_pos_as_xyz
  x,y,z
_cell_length_a	11.169417
_cell_length_b	16.120531
_cell_length_c	11.169409
_cell_angle_alpha	92.857236
_cell_angle_beta	90.019513
_cell_angle_gamma	87.066627
loop_
_atom_site_label
_atom_site_type_symbol
_atom_site_fract_x
_atom_site_fract_y
_atom_site_fract_z
Zn1	Zn	1.810560	0.331810	0.702666
Zn2	Zn	2.143893	0.665143	1.035999
Zn3	Zn	2.477227	0.998477	1.369332
Zn4	Zn	1.800194	0.471253	0.512124
Zn5	Zn	2.133528	0.804586	0.845458
Zn6	Zn	2.466861	1.137920	1.178791
Zn7	Zn	1.609842	0.331862	0.502005
Zn8	Zn	1.943175	0.665195	0.835338
Zn9	Zn	2.276509	0.998529	1.168672
Zn10	Zn	1.599603	0.471186	0.712766
Zn11	Zn	1.932937	0.804520	1.046099
Zn12	Zn	2.266270	1.137853	1.379432
O13	O	1.705050	0.401528	0.607390
O14	O	2.038383	0.734861	0.940723
O15	O	2.371717	1.068195	1.274057
O16	O	1.977134	0.350314	0.677398
O17	O	2.310467	0.683647	1.010732
O18	O	2.643801	1.016981	1.344065
O19	O	1.774891	0.452812	0.342836
O20	O	2.108224	0.786146	0.676169
O21	O	2.441557	1.119479	1.009503
O22	O	1.645091	0.215190	0.520161
O23	O	1.978424	0.548523	0.853494
O24	O	2.311757	0.881857	1.186828
O25	O	1.969518	0.452762	0.537408
O26	O	2.302852	0.786095	0.870742
O27	O	2.636185	1.119429	1.204075
O28	O	1.792557	0.215152	0.667586
O29	O	2.125891	0.548485	1.000919
O30	O	2.459224	0.881819	1.334252
O31	O	1.635040	0.350402	0.335401
O32	O	1.968373	0.683735	0.668734
O33	O	2.301706	1.017069	1.002068
O34	O	1.440535	0.350337	0.529955
O35	O	1.773868	0.683670	0.863288
O36	O	2.107201	1.017004	1.196621
O37	O	1.627640	0.452648	0.879372
O38	O	1.960973	0.785981	1.212705
O39	O	2.294307	1.119315	1.546039
O40	O	1.433012	0.452698	0.684799
O41	O	1.766346	0.786031	1.018133
O42	O	2.099679	1.119365	1.351466
O43	O	1.782629	0.350249	0.871952
O44	O	2.115963	0.683582	1.205285
O45	O	2.449296	1.016916	1.538618
O46	O	1.764962	0.587909	0.547202
O47	O	2.098296	0.921243	0.880535
O48	O	2.431629	1.254576	1.213868
O49	O	1.617589	0.587860	0.694612
O50	O	1.950922	0.921194	1.027945
O51	O	2.284256	1.254527	1.361279
C52	C	1.393226	0.401517	0.607376
C53	C	1.726559	0.734850	0.940709
C54	C	2.059893	1.068183	1.274042
C55	C	1.259825	0.401532	0.607399
C56	C	1.593158	0.734865	0.940733
C57	C	1.926492	1.068199	1.274066
C58	C	1.689072	0.618135	0.623127
C59	C	2.022406	0.951468	0.956460
C60	C	2.355739	1.284801	1.289794
C61	C	1.682347	0.710800	0.629900
C62	C	2.015680	1.044133	0.963233
C63	C	2.349014	1.377467	1.296566
C64	C	1.670075	0.880461	0.642289
C65	C	2.003408	1.213794	0.975622
C66	C	2.336742	1.547127	1.308956
C67	C	1.740070	0.921755	0.572423
C68	C	2.073403	1.255088	0.905757
C69	C	2.406737	1.588421	1.239090
C70	C	1.733242	1.016160	0.579317
C71	C	2.066575	1.349493	0.912650
C72	C	2.399908	1.682826	1.245984
C73	C	1.676902	0.786047	0.635397
C74	C	2.010235	1.119381	0.968730
C75	C	2.343568	1.452714	1.302064
C76	C	2.018091	0.401540	0.607406
C77	C	2.351425	0.734873	0.940739
C78	C	2.684758	1.068206	1.274072
C79	C	2.151491	0.401545	0.607412
C80	C	2.484824	0.734878	0.940745
C81	C	2.818158	1.068211	1.274079
C82	C	1.705149	0.401435	0.920426
C83	C	2.038482	0.734769	1.253759
C84	C	2.371815	1.068102	1.587093
C85	C	1.705191	0.401396	1.053823
C86	C	2.038524	0.734729	1.387157
C87	C	2.371858	1.068062	1.720490
C88	C	1.721080	1.184075	0.591596
C89	C	2.054413	1.517408	0.924929
C90	C	2.387746	1.850742	1.258263
C91	C	1.727802	1.091410	0.584809
C92	C	2.061135	1.424743	0.918142
C93	C	2.394468	1.758076	1.251476
C94	C	1.705025	0.401560	0.295568
C95	C	2.038358	0.734893	0.628901
C96	C	2.371691	1.068227	0.962234
C97	C	1.705232	0.401364	0.162154
C98	C	2.038566	0.734698	0.495487
C99	C	2.371899	1.068031	0.828821
H100	H	1.805122	0.886207	0.507432
H101	H	2.138455	1.219540	0.840765
H102	H	2.471788	1.552873	1.174098
H103	H	1.605026	0.916006	0.707274
H104	H	1.938360	1.249339	1.040607
H105	H	2.271693	1.582673	1.373941
