data_functionalizedCrystal
_audit_creation_method	'MofGen! by Chris Wilmer'
_symmetry_space_group_name_H-M	'P1'
_symmetry_Int_Tables_number	1
_symmetry_cell_setting	triclinic
loop_
_symmetry_equiv_pos_as_xyz
  x,y,z
_cell_length_a	11.792254
_cell_length_b	11.792241
_cell_length_c	9.798715
_cell_angle_alpha	89.996704
_cell_angle_beta	89.996361
_cell_angle_gamma	84.196007
loop_
_atom_site_label
_atom_site_type_symbol
_atom_site_fract_x
_atom_site_fract_y
_atom_site_fract_z
O1	O	1.506899	0.155634	-0.113490
O2	O	1.176560	0.171652	-0.113493
O3	O	1.349746	-0.001527	-0.113482
O4	O	1.333713	0.328813	-0.113502
O5	O	1.349733	-0.001528	0.113500
O6	O	1.176547	0.171651	0.113489
O7	O	1.506886	0.155633	0.113492
Zn8	Zn	1.341715	0.163642	0.149529
Zn9	Zn	1.341732	0.163643	-0.149530
O10	O	1.333700	0.328812	0.113481
C11	C	1.134263	0.170642	-0.000003
C12	C	1.008250	0.167622	-0.000004
C13	C	1.348732	-0.043819	0.000008
C14	C	1.345718	-0.169832	0.000007
C15	C	0.905913	0.165168	-0.000009
C16	C	0.777527	0.162100	-0.000010
C17	C	1.340175	-0.400545	-0.000016
C18	C	1.343255	-0.272160	-0.000003
C19	C	1.549183	0.156643	-0.000002
C20	C	1.675196	0.159663	-0.000010
C21	C	1.334714	0.371104	-0.000013
C22	C	1.337728	0.497118	-0.000021
N23	N	1.341711	0.163641	0.353628
N24	N	1.341744	0.163635	-0.353630
C25	C	1.414428	0.090608	0.421410
C26	C	1.414446	0.090604	0.578573
H27	H	1.476667	0.028080	0.363091
C28	C	1.479329	-0.105529	0.622818
C29	C	1.498492	0.006187	0.657249
H30	H	1.531223	-0.157645	0.671388
H31	H	1.403443	-0.118123	0.646194
H32	H	1.490346	-0.116587	0.527522
H33	H	1.487467	0.017248	0.752545
H34	H	1.574397	0.018787	0.633884
H35	H	1.279489	0.226169	0.588090
H36	H	1.279465	0.226161	0.411949
