data_functionalizedCrystal
_audit_creation_method	'MofGen! by Chris Wilmer'
_symmetry_space_group_name_H-M	'P1'
_symmetry_Int_Tables_number	1
_symmetry_cell_setting	triclinic
loop_
_symmetry_equiv_pos_as_xyz
  x,y,z
_cell_length_a	12.594516
_cell_length_b	14.908780
_cell_length_c	14.908308
_cell_angle_alpha	90.212689
_cell_angle_beta	93.271498
_cell_angle_gamma	86.694491
loop_
_atom_site_label
_atom_site_type_symbol
_atom_site_fract_x
_atom_site_fract_y
_atom_site_fract_z
Zn1	Zn	-0.372328	-1.345335	-0.587893
Zn2	Zn	-0.539514	-1.353926	-0.437546
Zn3	Zn	-0.371171	-1.203648	-0.428861
Zn4	Zn	-0.559890	-1.194953	-0.579165
O5	O	-0.460726	-1.274465	-0.508366
O6	O	-0.386463	-1.472302	-0.575237
O7	O	-0.508172	-1.341225	-0.310570
O8	O	-0.222377	-1.222487	-0.449975
O9	O	-0.509294	-1.478613	-0.464778
O10	O	-0.223227	-1.326584	-0.566815
O11	O	-0.384491	-1.230817	-0.304189
O12	O	-0.404248	-1.076668	-0.441511
O13	O	-0.544021	-1.207667	-0.706147
O14	O	-0.542899	-1.070279	-0.551939
O15	O	-0.406220	-1.318152	-0.712559
O16	O	-0.691165	-1.332794	-0.456314
O17	O	-0.706135	-1.215997	-0.560361
C18	C	-0.475660	-1.040848	-0.494836
C19	C	-0.482076	-0.940904	-0.489069
C20	C	-0.366427	-0.746515	-0.593430
C21	C	-0.372451	-0.652608	-0.588014
C22	C	-0.500144	-0.659184	-0.472819
C23	C	-0.494119	-0.753090	-0.478234
C24	C	-0.427259	-0.796752	-0.538543
C25	C	-0.421241	-0.890660	-0.543962
C26	C	-0.548927	-0.897233	-0.428763
C27	C	-0.554951	-0.803327	-0.423347
C28	C	-0.737270	-1.274407	-0.508354
C29	C	-0.855574	-1.274463	-0.508384
C30	C	-0.933005	-1.210933	-0.564932
C31	C	-0.999363	-1.193764	-0.481621
C32	C	-1.000011	-1.291714	-0.591713
C33	C	-0.920373	-1.257252	-0.425027
C34	C	-0.921016	-1.355237	-0.535177
C35	C	-0.987336	-1.338101	-0.451811
C36	C	-0.183102	-1.274547	-0.508400
C37	C	-0.064795	-1.274582	-0.508414
C38	C	-0.477522	-1.260981	-0.742890
C39	C	-0.484680	-1.255235	-0.842830
C40	C	-0.445725	-0.508996	-0.521943
C41	C	-0.439309	-0.608939	-0.527712
C42	C	-0.354614	-1.359483	-1.037306
C43	C	-0.361335	-1.354087	-1.131209
C44	C	-0.504839	-1.239042	-1.124539
C45	C	-0.498117	-1.244439	-1.030636
C46	C	-0.423003	-1.304662	-0.987024
C47	C	-0.416288	-1.310062	-0.893119
C48	C	-0.559785	-1.195014	-0.886451
C49	C	-0.566507	-1.189617	-0.980354
C50	C	-0.443915	-1.287949	-0.274758
C51	C	-0.436446	-1.293869	-0.174829
H52	H	-0.322912	-0.611709	-0.632707
N53	N	-0.643217	-1.128104	-1.024921
N54	N	-0.649207	-1.123289	-1.108762
H55	H	-0.703386	-1.079845	-1.140238
N56	N	-0.902728	-1.143421	-0.624810
N57	N	-0.847006	-1.081773	-0.595682
H58	H	-0.825621	-1.034090	-0.637966
N59	N	-0.623228	-0.758724	-0.361736
N60	N	-0.584940	-0.709610	-0.301465
H61	H	-0.633163	-0.678110	-0.257950
N62	N	-0.298123	-0.791122	-0.655018
N63	N	-0.224620	-0.845336	-0.626496
H64	H	-0.176377	-0.876841	-0.669993
N65	N	-1.042382	-1.108146	-0.453182
N66	N	-1.015372	-1.078367	-0.377298
H67	H	-1.045751	-1.017898	-0.357215
N68	N	-0.568418	-0.614561	-0.411218
N69	N	-0.573778	-0.530717	-0.406390
H70	H	-0.621997	-0.499200	-0.362883
H71	H	-0.598470	-0.938147	-0.384077
H72	H	-0.615476	-1.150376	-0.845501
H73	H	-0.565992	-1.190011	-1.160065
N74	N	-0.339563	-1.371584	-0.848582
N75	N	-0.278506	-1.420525	-0.893493
H76	H	-0.224314	-1.463976	-0.862041
H77	H	-0.366801	-0.926208	-0.593070
N78	N	-1.017359	-1.405578	-0.391782
N79	N	-0.988573	-1.486126	-0.404005
H80	H	-1.009780	-1.533780	-0.361608
N81	N	-0.877984	-1.440839	-0.563632
N82	N	-0.903758	-1.469991	-0.640046
H83	H	-0.873366	-1.530448	-0.660152
H84	H	-0.885671	-1.242630	-0.354544
N85	N	-0.291464	-1.410073	-1.182573
N86	N	-0.192880	-1.404730	-1.171749
H87	H	-0.143528	-1.444270	-1.208025
H88	H	-1.034845	-1.306257	-0.662173
H89	H	-0.293458	-1.408524	-1.001796
