data_functionalizedCrystal
_audit_creation_method	'MofGen! by Chris Wilmer'
_symmetry_space_group_name_H-M	'P1'
_symmetry_Int_Tables_number	1
_symmetry_cell_setting	triclinic
loop_
_symmetry_equiv_pos_as_xyz
  x,y,z
_cell_length_a	12.759401
_cell_length_b	19.077068
_cell_length_c	12.759393
_cell_angle_alpha	87.738768
_cell_angle_beta	90.018496
_cell_angle_gamma	92.327081
loop_
_atom_site_label
_atom_site_type_symbol
_atom_site_fract_x
_atom_site_fract_y
_atom_site_fract_z
Zn1	Zn	1.589361	-0.280156	0.610733
Zn2	Zn	1.582157	-0.397871	0.442092
Zn3	Zn	1.413661	-0.280192	0.435075
Zn4	Zn	1.406557	-0.397817	0.617730
O5	O	1.497934	-0.339009	0.526408
O6	O	1.735426	-0.295778	0.588371
O7	O	1.559764	-0.382299	0.294142
O8	O	1.442956	-0.181697	0.452511
O9	O	1.730133	-0.382263	0.464471
O10	O	1.572043	-0.181670	0.581567
O11	O	1.435971	-0.295841	0.288987
O12	O	1.265698	-0.295788	0.459296
O13	O	1.430848	-0.382171	0.763821
O14	O	1.260479	-0.382207	0.593492
O15	O	1.565154	-0.295726	0.758680
O16	O	1.552875	-0.496355	0.471256
O17	O	1.423862	-0.496315	0.600297
C18	C	1.224968	-0.338996	0.526393
C19	C	1.108190	-0.339007	0.526412
C20	C	1.050634	-0.384078	0.596181
C21	C	0.940909	-0.384086	0.596193
C22	C	0.946308	-0.293953	0.456658
C23	C	1.056030	-0.293941	0.456652
C24	C	1.047516	-0.436117	0.676738
C25	C	0.937791	-0.436126	0.676750
C26	C	1.486845	-0.521872	0.537320
C27	C	1.482197	-0.600102	0.542023
C28	C	1.547235	-0.636852	0.477104
C29	C	1.542870	-0.710357	0.481534
C30	C	1.473460	-0.747111	0.550879
C31	C	1.408418	-0.710356	0.615805
C32	C	1.412790	-0.636852	0.611380
C33	C	1.453182	-0.966943	0.571318
C34	C	1.448813	-1.040452	0.575736
C35	C	1.583267	-1.040448	0.441466
C36	C	1.587627	-0.966943	0.437042
C37	C	1.522590	-0.930195	0.501972
N38	N	1.468994	-0.822245	0.555406
N39	N	1.527062	-0.855062	0.497450
C40	C	1.771967	-0.339023	0.526423
C41	C	1.888743	-0.339028	0.526430
C42	C	1.498012	-0.338938	0.800437
C43	C	1.498045	-0.338908	0.917212
C44	C	1.509096	-0.155432	0.515476
C45	C	1.513852	-0.077202	0.510817
C46	C	1.497920	-0.339029	0.253441
C47	C	1.498102	-0.338861	0.136655
C48	C	1.567988	-0.293891	0.969398
C49	C	1.568014	-0.293866	1.079121
C50	C	1.428152	-0.383879	1.084461
C51	C	1.428122	-0.383901	0.974740
C52	C	1.648739	-0.241925	0.966316
C53	C	1.648766	-0.241900	1.076039
H54	H	1.603752	-0.606931	0.420632
C55	C	1.590643	-0.126091	1.033373
C56	C	1.613700	-0.171984	1.117833
H57	H	1.569000	-0.082929	1.059179
H58	H	1.535895	-0.146463	0.992686
H59	H	1.651405	-0.117749	0.990983
H60	H	1.552935	-0.180330	1.160219
H61	H	1.668453	-0.151607	1.158537
H62	H	1.078409	-0.487869	0.650548
C63	C	0.780506	-0.253955	0.394702
C64	C	0.888969	-0.244427	0.379967
H65	H	0.745111	-0.223383	0.347347
H66	H	0.763175	-0.243707	0.464697
H67	H	0.759672	-0.301238	0.382036
H68	H	0.909804	-0.197146	0.392640
H69	H	0.906307	-0.254671	0.309956
H70	H	0.904967	-0.416669	0.752938
H71	H	1.595830	-0.740275	0.428669
H72	H	1.371221	-0.420509	1.131314
C73	C	1.004335	-0.404590	0.851397
C74	C	1.088950	-0.416488	0.785453
H75	H	1.029918	-0.392468	0.918508
H76	H	0.960484	-0.445959	0.858191
H77	H	0.965228	-0.367266	0.822220
H78	H	1.128053	-0.453817	0.814627
H79	H	1.132819	-0.375115	0.778662
H80	H	1.644147	-0.937020	0.380577
C81	C	1.382404	-1.153132	0.642124
C82	C	1.372511	-1.080855	0.651964
H83	H	1.335294	-1.178073	0.689174
H84	H	1.452264	-1.165128	0.658283
H85	H	1.366346	-1.165212	0.572242
H86	H	1.388577	-1.068774	0.721844
H87	H	1.302635	-1.068854	0.635812
H88	H	0.904709	-0.490623	0.658076
H89	H	1.729256	-0.256498	1.106690
C90	C	1.362874	-0.614154	0.787871
C91	C	1.341300	-0.596453	0.682742
H92	H	1.318736	-0.589215	0.831929
H93	H	1.434168	-0.602060	0.802566
H94	H	1.350329	-0.663190	0.800416
H95	H	1.353852	-0.547417	0.670195
H96	H	1.269988	-0.608542	0.668041
C97	C	1.636288	-1.153122	0.388647
C98	C	1.654771	-1.080844	0.370117
H99	H	1.680444	-1.178059	0.344605
H100	H	1.564999	-1.165216	0.373924
H101	H	1.650903	-1.165110	0.459980
H102	H	1.640148	-1.068855	0.298786
H103	H	1.726076	-1.068745	0.384833
C104	C	1.765754	-0.337107	0.959930
C105	C	1.751465	-0.268295	0.921940
H106	H	1.829176	-0.353385	0.932538
H107	H	1.708527	-0.366620	0.938684
H108	H	1.769266	-0.337982	1.034337
H109	H	1.747945	-0.267422	0.847533
H110	H	1.808706	-0.238775	0.943180
H111	H	1.400224	-0.937029	0.624184
H112	H	1.371164	-0.420555	0.932254
H113	H	1.630257	-0.187418	0.933301
C114	C	1.342008	-0.823032	0.682199
C115	C	1.332118	-0.750754	0.692028
H116	H	1.294894	-0.847969	0.729251
H117	H	1.411867	-0.835029	0.698363
H118	H	1.325951	-0.835116	0.612318
H119	H	1.348182	-0.738669	0.761907
H120	H	1.262243	-0.738752	0.675872
H121	H	1.102889	-0.257236	0.399846
