data_functionalizedCrystal
_audit_creation_method	'MofGen! by Chris Wilmer'
_symmetry_space_group_name_H-M	'P1'
_symmetry_Int_Tables_number	1
_symmetry_cell_setting	triclinic
loop_
_symmetry_equiv_pos_as_xyz
  x,y,z
_cell_length_a	18.215407
_cell_length_b	18.101395
_cell_length_c	18.215399
_cell_angle_alpha	89.973573
_cell_angle_beta	89.980167
_cell_angle_gamma	90.031552
loop_
_atom_site_label
_atom_site_type_symbol
_atom_site_fract_x
_atom_site_fract_y
_atom_site_fract_z
Zn1	Zn	1.125040	-0.294828	-0.416124
Zn2	Zn	1.625040	0.205172	0.083876
Zn3	Zn	1.124935	-0.418675	-0.293061
Zn4	Zn	1.624935	0.081325	0.206939
Zn5	Zn	1.001973	-0.294853	-0.293071
Zn6	Zn	1.501973	0.205147	0.206929
Zn7	Zn	1.001925	-0.418634	-0.416086
Zn8	Zn	1.501925	0.081366	0.083914
O9	O	1.063468	-0.356747	-0.354585
O10	O	1.563468	0.143253	0.145415
O11	O	1.228010	-0.311264	-0.399811
O12	O	1.728010	0.188736	0.100189
O13	O	1.108600	-0.402277	-0.190078
O14	O	1.608600	0.097723	0.309922
O15	O	1.018362	-0.191216	-0.309415
O16	O	1.518362	0.308784	0.190585
O17	O	1.227933	-0.402253	-0.309397
O18	O	1.727933	0.097747	0.190603
O19	O	1.108779	-0.191199	-0.399821
O20	O	1.608779	0.308801	0.100179
O21	O	1.018260	-0.311305	-0.190085
O22	O	1.518260	0.188695	0.309915
O23	O	0.898982	-0.311265	-0.309378
O24	O	1.398982	0.188735	0.190622
O25	O	1.018281	-0.402183	-0.519075
O26	O	1.518281	0.097817	-0.019075
O27	O	0.898947	-0.402207	-0.399756
O28	O	1.398947	0.097793	0.100244
O29	O	1.108733	-0.311224	-0.519103
O30	O	1.608733	0.188776	-0.019103
O31	O	1.108554	-0.522302	-0.309360
O32	O	1.608554	-0.022302	0.190640
O33	O	1.018179	-0.522272	-0.399746
O34	O	1.518179	-0.022272	0.100254
C35	C	0.872262	-0.356735	-0.354564
C36	C	1.372262	0.143265	0.145436
C37	C	0.790463	-0.356747	-0.354572
C38	C	1.290463	0.143253	0.145428
C39	C	0.602270	-0.404175	-0.401573
C40	C	1.102270	0.095825	0.098427
C41	C	0.525412	-0.404177	-0.401583
C42	C	1.025412	0.095823	0.098417
C43	C	0.525418	-0.309333	-0.307613
C44	C	1.025418	0.190667	0.192387
C45	C	0.602276	-0.309328	-0.307608
C46	C	1.102276	0.190672	0.192392
C47	C	0.640700	-0.356753	-0.354587
C48	C	1.140700	0.143247	0.145413
C49	C	0.486984	-0.356761	-0.354601
C50	C	0.986984	0.143239	0.145399
C51	C	0.403650	-0.356763	-0.354611
C52	C	0.903650	0.143237	0.145389
C53	C	0.724039	-0.356750	-0.354579
C54	C	1.224039	0.143250	0.145421
C55	C	1.063370	-0.549158	-0.354564
C56	C	1.563370	-0.049158	0.145436
C57	C	1.063395	-0.631472	-0.354579
C58	C	1.563395	-0.131472	0.145421
C59	C	1.063557	-0.930563	-0.354619
C60	C	1.563557	-0.430563	0.145381
C61	C	1.006827	-0.899249	-0.411628
C62	C	1.506827	-0.399249	0.088372
C63	C	1.006557	-0.813632	-0.411450
C64	C	1.506557	-0.313632	0.088550
C65	C	1.063476	-0.782180	-0.354600
C66	C	1.563476	-0.282180	0.145400
C67	C	1.042479	-0.813331	-0.277038
C68	C	1.542479	-0.313331	0.222962
C69	C	1.042113	-0.898976	-0.277380
C70	C	1.542113	-0.398976	0.222620
C71	C	1.141408	-0.898906	-0.374487
C72	C	1.641408	-0.398906	0.125513
C73	C	1.140950	-0.813255	-0.376188
C74	C	1.640950	-0.313255	0.123812
C75	C	1.063432	-0.698321	-0.354584
C76	C	1.563432	-0.198321	0.145416
C77	C	1.063599	-1.014422	-0.354629
C78	C	1.563599	-0.514422	0.145371
C79	C	1.255421	-0.356761	-0.354607
C80	C	1.755421	0.143239	0.145393
C81	C	1.337220	-0.356766	-0.354616
C82	C	1.837220	0.143234	0.145384
C83	C	1.063513	-0.356696	-0.546538
C84	C	1.563513	0.143304	-0.046538
C85	C	1.063532	-0.356675	-0.628337
C86	C	1.563532	0.143325	-0.128337
C87	C	1.063587	-0.163585	-0.354623
C88	C	1.563587	0.336415	0.145377
C89	C	1.063638	-0.081271	-0.354639
C90	C	1.563638	0.418729	0.145361
C91	C	1.110648	-0.309268	-0.816547
C92	C	1.610648	0.190732	-0.316547
C93	C	1.110656	-0.309246	-0.893406
C94	C	1.610656	0.190754	-0.393406
C95	C	1.016469	-0.403967	-0.893365
C96	C	1.516469	0.096033	-0.393365
C97	C	1.016457	-0.403984	-0.816508
C98	C	1.516457	0.096016	-0.316508
C99	C	1.063551	-0.356636	-0.778101
C100	C	1.563551	0.143364	-0.278101
C101	C	1.063571	-0.356597	-0.931817
C102	C	1.563571	0.143403	-0.431817
C103	C	1.063580	-0.356574	-1.015151
C104	C	1.563580	0.143426	-0.515151
C105	C	1.063541	-0.356657	-0.694762
C106	C	1.563541	0.143343	-0.194762
C107	C	1.063466	-0.356745	-0.163379
C108	C	1.563466	0.143255	0.336621
C109	C	1.063590	-0.356558	-0.081580
C110	C	1.563590	0.143442	0.418420
H111	H	1.019834	-0.919798	-0.469325
H112	H	1.519834	-0.419798	0.030675
H113	H	0.633566	-0.270707	-0.269346
H114	H	1.133566	0.229293	0.230654
O115	O	1.164376	-0.924565	-0.440784
O116	O	1.664376	-0.424565	0.059216
C117	C	1.260117	-0.924249	-0.532106
C118	C	1.760117	-0.424249	-0.032106
C119	C	1.234214	-0.895147	-0.457006
C120	C	1.734214	-0.395147	0.042994
H121	H	1.316577	-0.900465	-0.545252
H122	H	1.816577	-0.400465	-0.045252
H123	H	1.263498	-0.987113	-0.530377
H124	H	1.763498	-0.487113	-0.030377
H125	H	1.219419	-0.906674	-0.576313
H126	H	1.719419	-0.406674	-0.076313
H127	H	1.274887	-0.912668	-0.412758
H128	H	1.774887	-0.412668	0.087242
H129	H	1.230812	-0.832287	-0.458797
H130	H	1.730812	-0.332287	0.041203
H131	H	1.148992	-0.270712	-0.785278
H132	H	1.648992	0.229288	-0.285278
O133	O	0.970627	-0.449896	-0.779124
O134	O	1.470627	0.050104	-0.279124
C135	C	0.871280	-0.459872	-0.692292
C136	C	1.371280	0.040128	-0.192292
C137	C	0.923124	-0.407799	-0.734596
C138	C	1.423124	0.092201	-0.234596
H139	H	0.832871	-0.425859	-0.656269
H140	H	1.332871	0.074141	-0.156269
H141	H	0.837574	-0.493702	-0.732910
H142	H	1.337574	0.006298	-0.232910
H143	H	0.905056	-0.498618	-0.656338
H144	H	1.405056	0.001382	-0.156338
H145	H	0.889405	-0.369009	-0.770550
H146	H	1.389405	0.130991	-0.270550
H147	H	0.956833	-0.374022	-0.693938
H148	H	1.456833	0.125978	-0.193938
H149	H	1.019695	-0.792568	-0.468960
H150	H	1.519695	-0.292568	0.031040
H151	H	1.156785	-0.792893	-0.433269
H152	H	1.656785	-0.292893	0.066731
H153	H	1.149006	-0.270673	-0.924705
H154	H	1.649006	0.229327	-0.424705
O155	O	0.488049	-0.450139	-0.447302
O156	O	0.988049	0.049861	0.052698
C157	C	0.401282	-0.460238	-0.546624
C158	C	0.901282	0.039762	-0.046624
C159	C	0.443562	-0.408100	-0.494902
C160	C	0.943562	0.091900	0.005098
H161	H	0.365293	-0.426271	-0.585112
H162	H	0.865293	0.073729	-0.085112
H163	H	0.441917	-0.494117	-0.580253
H164	H	0.941917	0.005883	-0.080253
H165	H	0.365298	-0.498934	-0.512758
H166	H	0.865298	0.001066	-0.012758
H167	H	0.479547	-0.369360	-0.528711
H168	H	0.979547	0.130640	-0.028711
H169	H	0.402888	-0.374273	-0.461271
H170	H	0.902888	0.125727	0.038729
H171	H	0.978129	-0.442518	-0.924646
H172	H	1.478129	0.057482	-0.424646
H173	H	0.633553	-0.442789	-0.439829
H174	H	1.133553	0.057211	0.060171
O175	O	0.487978	-0.263338	-0.262002
O176	O	0.987978	0.236662	0.237998
C177	C	0.369579	-0.221276	-0.220399
C178	C	0.869579	0.278724	0.279601
C179	C	0.411885	-0.273417	-0.272079
C180	C	0.911885	0.226583	0.227921
H181	H	0.308050	-0.229395	-0.228538
H182	H	0.808050	0.270605	0.271462
H183	H	0.384604	-0.234203	-0.161017
H184	H	0.884604	0.265797	0.338983
H185	H	0.384769	-0.161586	-0.233419
H186	H	0.884769	0.338414	0.266581
H187	H	0.396717	-0.333125	-0.259125
H188	H	0.896717	0.166875	0.240875
H189	H	0.396857	-0.260427	-0.331445
H190	H	0.896857	0.239573	0.168555
H191	H	1.081640	-0.919692	-0.233455
H192	H	1.581640	-0.419692	0.266545
H193	H	0.949472	-0.920836	-0.398633
H194	H	1.449472	-0.420836	0.101367
H195	H	1.082498	-0.792959	-0.233404
H196	H	1.582498	-0.292959	0.266596
O197	O	0.937701	-0.789226	-0.395874
O198	O	1.437701	-0.289226	0.104126
C199	C	0.833574	-0.718321	-0.436916
C200	C	1.333574	-0.218321	0.063084
C201	C	0.911546	-0.745921	-0.454660
C202	C	1.411546	-0.245921	0.045340
H203	H	0.812410	-0.683291	-0.484426
H204	H	1.312410	-0.183291	0.015574
H205	H	0.795577	-0.767651	-0.428378
H206	H	1.295577	-0.267651	0.071622
H207	H	0.835032	-0.683545	-0.384773
H208	H	1.335032	-0.183545	0.115227
H209	H	0.910159	-0.780685	-0.506809
H210	H	1.410159	-0.280685	-0.006809
H211	H	0.949511	-0.696559	-0.463150
H212	H	1.449511	-0.196559	0.036850
O213	O	0.974173	-0.922768	-0.257324
O214	O	1.474173	-0.422768	0.242676
C215	C	0.851745	-0.888416	-0.220670
C216	C	1.351745	-0.388416	0.279330
C217	C	0.928652	-0.861376	-0.243387
C218	C	1.428652	-0.361376	0.256613
H219	H	0.814924	-0.838795	-0.209381
H220	H	1.314924	-0.338795	0.290619
H221	H	0.827102	-0.922933	-0.266843
H222	H	1.327102	-0.422933	0.233157
H223	H	0.856292	-0.923547	-0.168913
H224	H	1.356292	-0.423547	0.331087
H225	H	0.924168	-0.826216	-0.295127
H226	H	1.424168	-0.326216	0.204873
H227	H	0.953266	-0.826899	-0.197171
H228	H	1.453266	-0.326899	0.302829
H229	H	0.986172	-0.791946	-0.259906
H230	H	1.486172	-0.291946	0.240094
H231	H	1.185453	-0.791842	-0.337692
H232	H	1.685453	-0.291842	0.162308
H233	H	1.183674	-0.919155	-0.332965
H234	H	1.683674	-0.419155	0.167035
