data_functionalizedCrystal
_audit_creation_method	'MofGen! by Chris Wilmer'
_symmetry_space_group_name_H-M	'P1'
_symmetry_Int_Tables_number	1
_symmetry_cell_setting	triclinic
loop_
_symmetry_equiv_pos_as_xyz
  x,y,z
_cell_length_a	16.959455
_cell_length_b	17.640280
_cell_length_c	16.959447
_cell_angle_alpha	101.226742
_cell_angle_beta	90.014322
_cell_angle_gamma	78.797529
loop_
_atom_site_label
_atom_site_type_symbol
_atom_site_fract_x
_atom_site_fract_y
_atom_site_fract_z
Zn1	Zn	1.272058	-0.314718	0.383358
Zn2	Zn	1.298725	-0.446906	0.224487
Zn3	Zn	1.139892	-0.314743	0.251191
Zn4	Zn	1.166584	-0.446847	0.356638
O5	O	1.219315	-0.380803	0.303918
O6	O	1.386210	-0.332268	0.362291
O7	O	1.277645	-0.429409	0.117412
O8	O	1.135093	-0.204133	0.291081
O9	O	1.405802	-0.429385	0.245569
O10	O	1.232195	-0.204115	0.388184
O11	O	1.160951	-0.332310	0.137030
O12	O	1.032819	-0.332252	0.265171
O13	O	1.180586	-0.429284	0.470800
O14	O	1.052429	-0.429308	0.342643
O15	O	1.258077	-0.332210	0.490432
O16	O	1.303527	-0.557504	0.219659
O17	O	1.206444	-0.557461	0.316750
C18	C	1.013943	-0.380777	0.303906
C19	C	0.926088	-0.380785	0.303915
C20	C	1.260797	-0.586162	0.262425
C21	C	1.278616	-0.674015	0.244700
C22	C	0.544372	-0.330225	0.263693
C23	C	0.564874	-0.431447	0.344176
C24	C	0.647417	-0.431435	0.344174
C25	C	0.678442	-0.380819	0.303929
C26	C	0.626924	-0.330214	0.263687
C27	C	0.698943	-0.482045	0.384408
C28	C	0.781492	-0.482037	0.384406
C29	C	0.812518	-0.431416	0.344166
C30	C	0.760993	-0.380808	0.303923
C31	C	0.792018	-0.330191	0.263679
C32	C	0.740495	-0.279579	0.223440
C33	C	0.657949	-0.279593	0.223447
C34	C	0.895063	-0.431402	0.344159
C35	C	0.874570	-0.330180	0.263673
C36	C	1.084273	-0.962977	0.438860
C37	C	1.101018	-1.045529	0.422179
C38	C	1.202174	-1.045509	0.321181
C39	C	1.185440	-0.962956	0.337856
C40	C	1.126488	-0.921696	0.396695
C41	C	1.227655	-0.921675	0.295692
C42	C	1.210920	-0.839129	0.312362
C43	C	1.151969	-0.797864	0.371197
C44	C	1.109753	-0.839151	0.413366
C45	C	1.286603	-0.962935	0.236849
C46	C	1.328818	-0.921654	0.194684
C47	C	1.312087	-0.839107	0.211358
C48	C	1.253136	-0.797842	0.270193
C49	C	1.354303	-0.797820	0.169190
C50	C	1.337568	-0.715274	0.185860
C51	C	1.236401	-0.715296	0.286864
C52	C	1.425488	-0.380830	0.303932
C53	C	1.513347	-0.380841	0.303937
C54	C	1.219334	-0.380738	0.510100
C55	C	1.219343	-0.380710	0.597962
C56	C	1.177692	-0.174643	0.345592
C57	C	1.159955	-0.086790	0.363350
C58	C	1.219329	-0.380811	0.098551
C59	C	1.219429	-0.380617	0.010734
C60	C	1.179074	-0.431169	0.959236
C61	C	1.259767	-0.330085	0.979674
C62	C	1.259749	-0.330101	0.897124
C63	C	1.219394	-0.380653	0.845627
C64	C	1.179057	-0.431189	0.876679
C65	C	1.300092	-0.279573	0.866065
C66	C	1.300077	-0.279588	0.783511
C67	C	1.259717	-0.330137	0.732013
C68	C	1.219377	-0.380673	0.763069
C69	C	1.179023	-0.431225	0.711572
C70	C	1.138678	-0.481759	0.742628
C71	C	1.138697	-0.481737	0.825180
C72	C	1.259698	-0.330158	0.649460
C73	C	1.179006	-0.431245	0.629014
H74	H	0.765767	-0.238370	0.190669
C75	C	0.664801	-0.537631	0.428779
H76	H	0.707303	-0.567749	0.452769
H77	H	0.626539	-0.507357	0.469359
H78	H	0.639502	-0.572067	0.391610
C79	C	0.601276	-0.223936	0.179177
H80	H	0.547673	-0.231202	0.184935
H81	H	0.604067	-0.170839	0.201551
H82	H	0.617118	-0.235448	0.123722
C83	C	1.094330	-0.537322	0.859343
H84	H	1.100129	-0.530076	0.915882
H85	H	1.038880	-0.525755	0.848158
H86	H	1.116624	-0.590436	0.835072
C87	C	1.393662	-0.967040	0.129965
H88	H	1.416403	-0.930629	0.107238
H89	H	1.434600	-0.999204	0.153737
H90	H	1.369979	-0.999276	0.088981
H91	H	1.250170	-1.079113	0.273272
H92	H	1.402296	-0.831426	0.121277
C93	C	1.171560	-0.669902	0.351590
H94	H	1.167645	-0.614829	0.355481
H95	H	1.121208	-0.683471	0.337240
H96	H	1.185837	-0.683393	0.401988
H97	H	1.292548	-0.289017	0.624177
C98	C	1.094311	-0.537382	0.685975
H99	H	1.070296	-0.567484	0.716288
H100	H	1.053763	-0.507166	0.659869
H101	H	1.131520	-0.571830	0.646821
H102	H	1.300229	-1.030149	0.223279
H103	H	0.502418	-0.289015	0.230934
C104	C	1.134701	-0.486753	0.993393
H105	H	1.140492	-0.479507	1.049933
H106	H	1.079254	-0.475185	0.982200
H107	H	1.156997	-0.539867	0.969124
C108	C	1.304148	-0.274478	1.036318
H109	H	1.298376	-0.281700	1.089932
H110	H	1.359591	-0.286047	1.020451
H111	H	1.281842	-0.221372	1.033529
C112	C	0.838159	-0.537699	0.428674
H113	H	0.807857	-0.567841	0.452648
H114	H	0.877310	-0.572096	0.391435
H115	H	0.864260	-0.507493	0.469268
C116	C	1.344446	-0.223999	0.749357
H117	H	1.368476	-0.193886	0.791852
H118	H	1.384983	-0.254241	0.711034
H119	H	1.307239	-0.189560	0.724125
H120	H	0.539609	-0.472661	0.376936
H121	H	0.937010	-0.472612	0.376918
C122	C	1.044917	-0.793760	0.478099
H123	H	1.022170	-0.830167	0.500827
H124	H	1.068603	-0.761522	0.519070
H125	H	1.003970	-0.761597	0.454328
H126	H	1.138338	-0.730650	0.384764
H127	H	1.036274	-0.929383	0.486779
C128	C	1.054582	-1.090936	0.468570
H129	H	1.017082	-1.054538	0.506003
H130	H	1.026700	-1.123180	0.431794
H131	H	1.091323	-1.123094	0.496547
H132	H	1.371943	-0.681663	0.151525
C133	C	1.134628	-0.486865	0.572370
H134	H	1.110614	-0.516962	0.602690
H135	H	1.094077	-0.456645	0.546270
H136	H	1.171828	-0.521318	0.533211
C137	C	1.344466	-0.223961	0.922712
H138	H	1.338685	-0.231178	0.976327
H139	H	1.399911	-0.235528	0.906855
H140	H	1.322160	-0.170857	0.919916
H141	H	0.899822	-0.288956	0.230907
