data_functionalizedCrystal
_audit_creation_method	'MofGen! by Chris Wilmer'
_symmetry_space_group_name_H-M	'P1'
_symmetry_Int_Tables_number	1
_symmetry_cell_setting	triclinic
loop_
_symmetry_equiv_pos_as_xyz
  x,y,z
_cell_length_a	18.215407
_cell_length_b	18.215405
_cell_length_c	21.395356
_cell_angle_alpha	89.973989
_cell_angle_beta	89.978290
_cell_angle_gamma	90.017245
loop_
_atom_site_label
_atom_site_type_symbol
_atom_site_fract_x
_atom_site_fract_y
_atom_site_fract_z
Zn1	Zn	1.125111	-0.293111	-0.354237
Zn2	Zn	1.458445	0.040223	-0.020904
Zn3	Zn	1.791778	0.373556	0.312429
Zn4	Zn	1.125016	-0.416179	-0.249463
Zn5	Zn	1.458349	-0.082845	0.083871
Zn6	Zn	1.791683	0.250488	0.417204
Zn7	Zn	1.002035	-0.293119	-0.249477
Zn8	Zn	1.335369	0.040215	0.083856
Zn9	Zn	1.668702	0.373548	0.417189
Zn10	Zn	1.002014	-0.416128	-0.354206
Zn11	Zn	1.335348	-0.082795	-0.020873
Zn12	Zn	1.668681	0.250538	0.312460
O13	O	1.063544	-0.354634	-0.301846
O14	O	1.396878	-0.021301	0.031487
O15	O	1.730211	0.312033	0.364821
O16	O	1.228083	-0.309454	-0.340345
O17	O	1.561416	0.023880	-0.007012
O18	O	1.894749	0.357213	0.326321
O19	O	1.108671	-0.399879	-0.161787
O20	O	1.442005	-0.066546	0.171547
O21	O	1.775338	0.266788	0.504880
O22	O	1.018410	-0.190133	-0.263393
O23	O	1.351744	0.143200	0.069940
O24	O	1.685077	0.476533	0.403274
O25	O	1.228013	-0.399871	-0.263368
O26	O	1.561346	-0.066538	0.069965
O27	O	1.894679	0.266796	0.403299
O28	O	1.108834	-0.190127	-0.340360
O29	O	1.442167	0.143206	-0.007026
O30	O	1.775500	0.476539	0.326307
O31	O	1.018318	-0.309467	-0.161798
O32	O	1.351651	0.023866	0.171536
O33	O	1.684985	0.357199	0.504869
O34	O	0.899048	-0.309418	-0.263363
O35	O	1.232382	0.023915	0.069970
O36	O	1.565715	0.357248	0.403304
O37	O	1.018374	-0.399785	-0.441888
O38	O	1.351708	-0.066452	-0.108555
O39	O	1.685041	0.266881	0.224778
O40	O	0.899033	-0.399793	-0.340307
O41	O	1.232366	-0.066460	-0.006974
O42	O	1.565700	0.266874	0.326360
O43	O	1.108813	-0.309405	-0.441911
O44	O	1.442147	0.023929	-0.108578
O45	O	1.775480	0.357262	0.224756
O46	O	1.108651	-0.519156	-0.263338
O47	O	1.441984	-0.185823	0.069995
O48	O	1.775317	0.147510	0.403328
O49	O	1.018282	-0.519119	-0.340293
O50	O	1.351615	-0.185786	-0.006960
O51	O	1.684949	0.147547	0.326374
C52	C	0.872338	-0.354602	-0.301834
C53	C	1.205671	-0.021268	0.031500
C54	C	1.539005	0.312065	0.364833
C55	C	0.790539	-0.354606	-0.301843
C56	C	1.123872	-0.021272	0.031490
C57	C	1.457206	0.312061	0.364823
C58	C	0.525512	-0.307644	-0.341992
C59	C	0.858846	0.025689	-0.008659
C60	C	1.192179	0.359022	0.324675
C61	C	0.602371	-0.307632	-0.341990
C62	C	0.935704	0.025701	-0.008657
C63	C	1.269038	0.359034	0.324677
C64	C	0.602317	-0.401648	-0.261714
C65	C	0.935651	-0.068314	0.071620
C66	C	1.268984	0.265019	0.404953
C67	C	0.525460	-0.401663	-0.261719
C68	C	0.858793	-0.068329	0.071614
C69	C	1.192127	0.265004	0.404947
C70	C	0.487059	-0.354657	-0.301857
C71	C	0.820393	-0.021324	0.031476
C72	C	1.153726	0.312010	0.364809
C73	C	0.640776	-0.354630	-0.301850
C74	C	0.974109	-0.021297	0.031483
C75	C	1.307442	0.312037	0.364817
C76	C	0.724109	-0.354617	-0.301847
C77	C	1.057443	-0.021284	0.031486
C78	C	1.390776	0.312049	0.364819
C79	C	0.403720	-0.354670	-0.301861
C80	C	0.737054	-0.021337	0.031472
C81	C	1.070387	0.311996	0.364806
C82	C	1.063474	-0.545840	-0.301824
C83	C	1.396807	-0.212507	0.031509
C84	C	1.730140	0.120826	0.364842
C85	C	1.063511	-0.627639	-0.301836
C86	C	1.396844	-0.294306	0.031497
C87	C	1.730177	0.039027	0.364831
C88	C	1.110617	-0.815769	-0.341967
C89	C	1.443950	-0.482436	-0.008634
C90	C	1.777283	-0.149102	0.324700
C91	C	1.110643	-0.892628	-0.341979
C92	C	1.443977	-0.559294	-0.008645
C93	C	1.777310	-0.225961	0.324688
C94	C	1.016563	-0.892747	-0.261764
C95	C	1.349896	-0.559414	0.071569
C96	C	1.683229	-0.226080	0.404903
C97	C	1.016533	-0.815890	-0.261756
C98	C	1.349866	-0.482556	0.071578
C99	C	1.683200	-0.149223	0.404911
C100	C	1.063564	-0.777403	-0.301856
C101	C	1.396897	-0.444069	0.031477
C102	C	1.730231	-0.110736	0.364810
C103	C	1.063621	-0.931119	-0.301876
C104	C	1.396954	-0.597785	0.031457
C105	C	1.730287	-0.264452	0.364790
C106	C	1.063649	-1.014452	-0.301889
C107	C	1.396983	-0.681119	0.031445
C108	C	1.730316	-0.347786	0.364778
C109	C	1.063535	-0.694064	-0.301845
C110	C	1.396868	-0.360730	0.031488
C111	C	1.730201	-0.027397	0.364822
C112	C	1.255497	-0.354667	-0.301859
C113	C	1.588830	-0.021334	0.031475
C114	C	1.922164	0.312000	0.364808
C115	C	1.337296	-0.354681	-0.301864
C116	C	1.670629	-0.021348	0.031469
C117	C	2.003963	0.311985	0.364803
C118	C	1.063602	-0.354588	-0.465269
C119	C	1.396935	-0.021255	-0.131936
C120	C	1.730269	0.312078	0.201397
C121	C	1.063627	-0.354569	-0.534911
C122	C	1.396960	-0.021236	-0.201577
C123	C	1.730293	0.312098	0.131756
C124	C	1.063635	-0.162681	-0.301881
C125	C	1.396968	0.170652	0.031452
C126	C	1.730302	0.503986	0.364785
C127	C	1.063674	-0.080882	-0.301896
C128	C	1.397007	0.252451	0.031437
C129	C	1.730340	0.585784	0.364770
C130	C	1.016592	-0.307486	-0.567619
C131	C	1.349926	0.025847	-0.234286
C132	C	1.683259	0.359180	0.099047
C133	C	1.016590	-0.307473	-0.633055
C134	C	1.349923	0.025861	-0.299722
C135	C	1.683257	0.359194	0.033612
C136	C	1.063635	-0.354534	-0.665779
C137	C	1.396968	-0.021201	-0.332446
C138	C	1.730302	0.312133	0.000888
C139	C	1.110673	-0.401626	-0.633062
C140	C	1.444006	-0.068292	-0.299729
C141	C	1.777339	0.265041	0.033604
C142	C	1.110668	-0.401643	-0.567628
C143	C	1.444002	-0.068310	-0.234295
C144	C	1.777335	0.265023	0.099039
C145	C	1.129943	-0.360326	-0.769464
C146	C	1.463276	-0.026993	-0.436130
C147	C	1.796609	0.306340	-0.102797
C148	C	1.129948	-0.360304	-0.834897
C149	C	1.463281	-0.026970	-0.501563
C150	C	1.796615	0.306363	-0.168230
C151	C	1.063647	-0.354484	-0.867600
C152	C	1.396980	-0.021151	-0.534266
C153	C	1.730314	0.312182	-0.200933
C154	C	0.997339	-0.348672	-0.834862
C155	C	1.330672	-0.015339	-0.501529
C156	C	1.664005	0.317994	-0.168195
C157	C	0.997335	-0.348690	-0.769428
C158	C	1.330668	-0.015356	-0.436095
C159	C	1.664001	0.317977	-0.102761
C160	C	1.063644	-0.354521	-0.736731
C161	C	1.396978	-0.021187	-0.403398
C162	C	1.730311	0.312146	-0.070065
C163	C	1.016606	-0.307384	-0.971261
C164	C	1.349939	0.025949	-0.637928
C165	C	1.683273	0.359282	-0.304595
C166	C	1.016602	-0.307376	-1.036698
C167	C	1.349936	0.025957	-0.703365
C168	C	1.683269	0.359291	-0.370031
C169	C	1.110691	-0.401525	-1.036704
C170	C	1.444025	-0.068192	-0.703371
C171	C	1.777358	0.265142	-0.370037
C172	C	1.110689	-0.401537	-0.971269
C173	C	1.444022	-0.068204	-0.637935
C174	C	1.777355	0.265129	-0.304602
C175	C	1.063647	-0.354463	-0.938551
C176	C	1.396980	-0.021130	-0.605218
C177	C	1.730314	0.312204	-0.271884
C178	C	1.063529	-0.354626	-0.139058
C179	C	1.396862	-0.021293	0.194275
C180	C	1.730196	0.312040	0.527608
C181	C	1.063647	-0.354439	-0.069417
C182	C	1.396980	-0.021105	0.263916
C183	C	1.730313	0.312228	0.597249
H184	H	0.633676	-0.269351	-0.374672
H185	H	0.967009	0.063983	-0.041339
H186	H	1.300343	0.397316	0.291995
H187	H	1.183940	-0.365033	-0.861547
H188	H	1.517274	-0.031699	-0.528213
H189	H	1.850607	0.301634	-0.194880
H190	H	0.978214	-0.784650	-0.229093
H191	H	1.311547	-0.451316	0.104240
H192	H	1.644880	-0.117983	0.437574
H193	H	1.148911	-0.784435	-0.374620
H194	H	1.482244	-0.451101	-0.041287
H195	H	1.815578	-0.117768	0.292047
H196	H	0.943350	-0.343929	-0.861488
H197	H	1.276684	-0.010595	-0.528154
H198	H	1.610017	0.322738	-0.194821
H199	H	0.633592	-0.439917	-0.229033
H200	H	0.966926	-0.106583	0.104300
H201	H	1.300259	0.226750	0.437633
H202	H	1.148991	-0.439875	-0.944637
H203	H	1.482324	-0.106542	-0.611303
H204	H	1.815658	0.226791	-0.277970
H205	H	1.148957	-0.923862	-0.374642
H206	H	1.482290	-0.590529	-0.041309
H207	H	1.815623	-0.257196	0.292025
H208	H	0.978285	-0.269158	-0.540985
H209	H	1.311618	0.064176	-0.207652
H210	H	1.644951	0.397509	0.125682
H211	H	0.978273	-0.924093	-0.229114
H212	H	1.311606	-0.590759	0.104219
H213	H	1.644940	-0.257426	0.437552
H214	H	1.148977	-0.439944	-0.659710
H215	H	1.482310	-0.106610	-0.326377
H216	H	1.815643	0.226723	0.006956
H217	H	0.494151	-0.439950	-0.229037
H218	H	0.827484	-0.106617	0.104297
H219	H	1.160817	0.226717	0.437630
H220	H	1.183938	-0.365059	-0.742842
H221	H	1.517271	-0.031725	-0.409509
H222	H	1.850604	0.301608	-0.076175
H223	H	1.148973	-0.439983	-0.540997
H224	H	1.482306	-0.106650	-0.207664
H225	H	1.815639	0.226684	0.125670
H226	H	0.978290	-0.269129	-0.659692
H227	H	1.311624	0.064205	-0.326358
H228	H	1.644957	0.397538	0.006975
H229	H	0.943344	-0.343959	-0.742775
H230	H	1.276677	-0.010626	-0.409442
H231	H	1.610011	0.322708	-0.076109
H232	H	0.978301	-0.269054	-0.944621
H233	H	1.311635	0.064279	-0.611288
H234	H	1.644968	0.397612	-0.277955
H235	H	0.978296	-0.269038	-1.063328
H236	H	1.311629	0.064295	-0.729995
H237	H	1.644963	0.397629	-0.396662
H238	H	0.494249	-0.269369	-0.374675
H239	H	0.827582	0.063964	-0.041342
H240	H	1.160916	0.397298	0.291992
H241	H	1.148998	-0.439842	-1.063347
H242	H	1.482331	-0.106508	-0.730014
H243	H	1.815665	0.226825	-0.396681
