data_functionalizedCrystal
_audit_creation_method	'MofGen! by Chris Wilmer'
_symmetry_space_group_name_H-M	'P1'
_symmetry_Int_Tables_number	1
_symmetry_cell_setting	triclinic
loop_
_symmetry_equiv_pos_as_xyz
  x,y,z
_cell_length_a	14.853567
_cell_length_b	14.044220
_cell_length_c	13.330367
_cell_angle_alpha	89.994700
_cell_angle_beta	89.995418
_cell_angle_gamma	88.411904
loop_
_atom_site_label
_atom_site_type_symbol
_atom_site_fract_x
_atom_site_fract_y
_atom_site_fract_z
O1	O	1.206175	0.123767	-0.083357
O2	O	0.944883	0.138510	-0.083374
O3	O	1.071607	-0.006851	-0.083356
O4	O	1.079451	0.269128	-0.083375
O5	O	1.071587	-0.006854	0.083491
O6	O	0.944863	0.138507	0.083473
O7	O	1.206154	0.123764	0.083490
Cu8	Cu	1.075507	0.131135	0.098716
Cu9	Cu	1.075531	0.131139	-0.098600
O10	O	1.079431	0.269125	0.083472
C11	C	0.911231	0.137841	0.000047
C12	C	0.810989	0.135839	0.000041
C13	C	1.068163	-0.042172	0.000068
C14	C	1.057921	-0.147411	0.000069
C15	C	0.390944	0.041029	0.000070
C16	C	0.383345	0.213721	0.000057
C17	C	0.477528	0.215604	0.000054
C18	C	0.528423	0.130197	0.000057
C19	C	0.485135	0.042908	0.000064
C20	C	0.520822	0.302891	0.000037
C21	C	0.615011	0.304777	0.000032
C22	C	0.665908	0.219369	0.000043
C23	C	0.622615	0.132077	0.000051
C24	C	0.673510	0.046670	0.000054
C25	C	0.630218	-0.040623	0.000069
C26	C	0.536032	-0.042499	0.000074
C27	C	0.760094	0.221246	0.000038
C28	C	0.767702	0.048550	0.000048
C29	C	1.039197	-0.340097	0.000053
C30	C	1.111836	-0.397635	0.000055
C31	C	1.101418	-0.504852	0.000046
C32	C	1.049614	-0.232870	0.000062
C33	C	1.239806	0.124433	0.000067
C34	C	1.340048	0.126435	0.000067
C35	C	1.082874	0.304446	0.000046
C36	C	1.093116	0.409685	0.000039
N37	N	1.075496	0.131132	0.237498
N38	N	1.075548	0.131135	-0.237381
C39	C	1.019413	0.195480	0.710112
C40	C	1.131672	0.066791	0.710097
C41	C	1.131662	0.066788	0.605078
C42	C	1.075527	0.131133	0.552572
C43	C	1.019403	0.195481	0.605084
C44	C	1.187792	0.002448	0.552558
C45	C	1.187785	0.002443	0.447534
C46	C	1.131644	0.066784	0.395025
C47	C	1.075517	0.131134	0.447544
C48	C	1.019382	0.195479	0.395038
C49	C	0.963249	0.259825	0.447555
C50	C	0.963262	0.259822	0.552576
C51	C	1.131631	0.066787	0.290004
C52	C	1.019372	0.195480	0.290010
H53	H	0.809134	-0.021000	0.000054
O54	O	0.958809	0.264871	0.233386
H55	H	0.968222	0.254058	0.151534
H56	H	1.233500	-0.049936	0.595312
O57	O	1.204577	-0.356227	0.000063
H58	H	1.256182	-0.414918	0.000055
H59	H	0.650251	0.375856	0.000020
O60	O	0.806791	0.315384	0.000028
H61	H	0.755577	0.374456	0.000031
H62	H	0.969191	-0.371358	0.000046
H63	H	0.917548	0.312219	0.404792
H64	H	0.500776	-0.113569	0.000110
O65	O	0.902733	0.329230	0.609215
H66	H	0.912183	0.318428	0.691064
O67	O	0.685114	-0.132741	0.000080
H68	H	0.757879	-0.116761	0.000077
H69	H	0.973708	0.247867	0.752874
O70	O	1.192217	-0.002607	0.766720
H71	H	1.182793	0.008200	0.848571
H72	H	0.355691	-0.030044	0.000086
H73	H	1.233490	-0.049952	0.404781
H74	H	1.177338	0.014402	0.247250
H75	H	0.479377	0.372424	0.000024
H76	H	0.341900	0.283255	0.000046
