data_functionalizedCrystal
_audit_creation_method	'MofGen! by Chris Wilmer'
_symmetry_space_group_name_H-M	'P1'
_symmetry_Int_Tables_number	1
_symmetry_cell_setting	triclinic
loop_
_symmetry_equiv_pos_as_xyz
  x,y,z
_cell_length_a	16.120530
_cell_length_b	21.295417
_cell_length_c	16.120297
_cell_angle_alpha	87.131911
_cell_angle_beta	89.871860
_cell_angle_gamma	87.125028
loop_
_atom_site_label
_atom_site_type_symbol
_atom_site_fract_x
_atom_site_fract_y
_atom_site_fract_z
Zn1	Zn	1.247396	-0.318916	0.534531
Zn2	Zn	1.580730	0.014418	0.867865
Zn3	Zn	1.914063	0.347751	1.201198
Zn4	Zn	1.254333	-0.419126	0.395463
Zn5	Zn	1.587667	-0.085792	0.728797
Zn6	Zn	1.921000	0.247541	1.062130
Zn7	Zn	1.115388	-0.308279	0.388451
Zn8	Zn	1.448721	0.025055	0.721784
Zn9	Zn	1.782055	0.358388	1.055117
Zn10	Zn	1.108290	-0.418546	0.527433
Zn11	Zn	1.441623	-0.085213	0.860766
Zn12	Zn	1.774956	0.248121	1.194099
O13	O	1.181352	-0.366216	0.461470
O14	O	1.514685	-0.032883	0.794803
O15	O	1.848018	0.300450	1.128136
O16	O	1.364682	-0.336903	0.521989
O17	O	1.698015	-0.003570	0.855323
O18	O	2.031349	0.329764	1.188656
O19	O	1.241776	-0.400212	0.278168
O20	O	1.575109	-0.066879	0.611501
O21	O	1.908442	0.266454	0.944835
O22	O	1.132967	-0.221604	0.407864
O23	O	1.466300	0.111729	0.741198
O24	O	1.799633	0.445062	1.074531
O25	O	1.369779	-0.410527	0.419817
O26	O	1.703112	-0.077194	0.753150
O27	O	2.036445	0.256140	1.086483
O28	O	1.229953	-0.229419	0.515189
O29	O	1.563286	0.103914	0.848523
O30	O	1.896619	0.437247	1.181856
O31	O	1.139693	-0.318774	0.273016
O32	O	1.473027	0.014560	0.606349
O33	O	1.806360	0.347893	0.939682
O34	O	0.998081	-0.318211	0.400981
O35	O	1.331414	0.015122	0.734314
O36	O	1.664747	0.348455	1.067648
O37	O	1.120869	-0.409539	0.644739
O38	O	1.454202	-0.076206	0.978073
O39	O	1.787535	0.257128	1.311406
O40	O	0.992866	-0.399224	0.503091
O41	O	1.326199	-0.065891	0.836424
O42	O	1.659532	0.267442	1.169757
O43	O	1.223070	-0.336341	0.649955
O44	O	1.556403	-0.003008	0.983288
O45	O	1.889736	0.330326	1.316621
O46	O	1.234893	-0.507134	0.412933
O47	O	1.568226	-0.173801	0.746267
O48	O	1.901559	0.159532	1.079600
O49	O	1.127595	-0.506708	0.509891
O50	O	1.460928	-0.173375	0.843224
O51	O	1.794262	0.159958	1.176557
C52	C	0.965301	-0.357501	0.450505
C53	C	1.298634	-0.024168	0.783838
C54	C	1.631968	0.309165	1.117172
C55	C	0.872872	-0.353789	0.445834
C56	C	1.206206	-0.020455	0.779168
C57	C	1.539539	0.312878	1.112501
C58	C	1.181248	-0.529762	0.461422
C59	C	1.514581	-0.196429	0.794755
C60	C	1.847915	0.136904	1.128089
C61	C	1.181278	-0.599732	0.461433
C62	C	1.514612	-0.266399	0.794767
C63	C	1.847945	0.066935	1.128100
C64	C	0.703644	-0.346996	0.437314
C65	C	1.036977	-0.013663	0.770647
C66	C	1.370310	0.319671	1.103980
C67	C	0.659897	-0.385485	0.485686
C68	C	0.993231	-0.052152	0.819020
C69	C	1.326564	0.281181	1.152353
C70	C	0.565733	-0.381706	0.480945
C71	C	0.899066	-0.048373	0.814279
C72	C	1.232399	0.284961	1.147612
C73	C	0.797817	-0.350775	0.442053
C74	C	1.131150	-0.017441	0.775387
C75	C	1.464484	0.315892	1.108720
C76	C	1.231746	-0.636611	0.517354
C77	C	1.565080	-0.303278	0.850687
C78	C	1.898413	0.030056	1.184021
C79	C	1.231775	-0.702355	0.517376
C80	C	1.565108	-0.369022	0.850709
C81	C	1.898441	-0.035689	1.184043
C82	C	1.181344	-0.731218	0.461463
C83	C	1.514678	-0.397885	0.794796
C84	C	1.848011	-0.064552	1.128130
C85	C	1.130866	-0.694331	0.405538
C86	C	1.464199	-0.360997	0.738871
C87	C	1.797533	-0.027664	1.072205
C88	C	1.130833	-0.628588	0.405523
C89	C	1.464166	-0.295254	0.738857
C90	C	1.797500	0.038079	1.072190
N91	N	1.178754	-0.831581	0.388371
N92	N	1.512087	-0.498248	0.721705
N93	N	1.845420	-0.164915	1.055038
N94	N	1.178790	-0.894035	0.388388
N95	N	1.512123	-0.560701	0.721721
N96	N	1.845456	-0.227368	1.055055
C97	C	1.181440	-0.929298	0.461505
C98	C	1.514773	-0.595965	0.794839
C99	C	1.848106	-0.262631	1.128172
N100	N	1.184068	-0.899749	0.534608
N101	N	1.517401	-0.566416	0.867942
N102	N	1.850735	-0.233083	1.201275
N103	N	1.184036	-0.837290	0.534591
N104	N	1.517369	-0.503957	0.867924
N105	N	1.850703	-0.170624	1.201257
C106	C	1.181374	-0.802505	0.461473
C107	C	1.514707	-0.469172	0.794807
C108	C	1.848041	-0.135838	1.128140
C109	C	1.231941	-1.037465	0.517455
C110	C	1.565274	-0.704132	0.850788
C111	C	1.898608	-0.370798	1.184121
C112	C	1.231963	-1.103210	0.517478
C113	C	1.565297	-0.769877	0.850811
C114	C	1.898630	-0.436544	1.184144
C115	C	1.131059	-1.095184	0.405633
C116	C	1.464393	-0.761851	0.738966
C117	C	1.797726	-0.428518	1.072299
C118	C	1.131032	-1.029440	0.405617
C119	C	1.464366	-0.696107	0.738950
C120	C	1.797699	-0.362774	1.072283
C121	C	1.181478	-1.000585	0.461527
C122	C	1.514811	-0.667251	0.794860
C123	C	1.848144	-0.333918	1.128193
C124	C	1.398246	-0.374966	0.472477
C125	C	1.731580	-0.041633	0.805811
C126	C	2.064913	0.291700	1.139144
C127	C	1.490674	-0.378695	0.477168
C128	C	1.824007	-0.045362	0.810501
C129	C	2.157340	0.287972	1.143835
C130	C	1.170404	-0.374062	0.678363
C131	C	1.503737	-0.040729	1.011696
C132	C	1.837070	0.292605	1.345030
C133	C	1.165738	-0.377405	0.770790
C134	C	1.499071	-0.044072	1.104123
C135	C	1.832405	0.289262	1.437457
C136	C	1.181478	-0.202034	0.461536
C137	C	1.514811	0.131300	0.794870
C138	C	1.848144	0.464633	1.128203
C139	C	1.181531	-0.132069	0.461565
C140	C	1.514865	0.201265	0.794898
C141	C	1.848198	0.534598	1.128232
C142	C	1.192305	-0.358358	0.245422
C143	C	1.525639	-0.025025	0.578756
C144	C	1.858972	0.308308	0.912089
C145	C	1.197132	-0.354844	0.153004
C146	C	1.530465	-0.021511	0.486337
C147	C	1.863799	0.311823	0.819671
C148	C	1.157190	-0.383494	0.940014
C149	C	1.490523	-0.050160	1.273347
C150	C	1.823856	0.283173	1.606681
C151	C	1.205678	-0.348757	0.983785
C152	C	1.539011	-0.015424	1.317119
C153	C	1.872345	0.317909	1.650452
C154	C	1.200922	-0.352145	1.077947
C155	C	1.534255	-0.018812	1.411281
C156	C	1.867588	0.314522	1.744614
C157	C	1.161945	-0.380107	0.845843
C158	C	1.495278	-0.046773	1.179177
C159	C	1.828612	0.286560	1.512510
H160	H	0.693165	-0.421275	0.530661
H161	H	1.026498	-0.087941	0.863994
H162	H	1.359831	0.245392	1.197328
H163	H	1.272864	-0.732388	0.562923
H164	H	1.606198	-0.399055	0.896256
H165	H	1.939531	-0.065721	1.229589
H166	H	0.670378	-0.311209	0.392343
H167	H	1.003712	0.022124	0.725676
H168	H	1.337045	0.355457	1.059009
H169	H	1.089803	-0.717835	0.360015
H170	H	1.423137	-0.384502	0.693349
H171	H	1.756470	-0.051168	1.026682
H172	H	1.272820	-0.613119	0.562881
H173	H	1.606153	-0.279785	0.896214
H174	H	1.939486	0.053548	1.229548
F175	F	1.077114	-0.589337	0.346003
F176	F	1.410448	-0.256004	0.679337
F177	F	1.743781	0.077330	1.012670
F178	F	1.264621	-0.306572	0.940336
F179	F	1.597955	0.026761	1.273669
F180	F	1.931288	0.360095	1.607003
F181	F	1.285625	-1.006752	0.576961
F182	F	1.618959	-0.673419	0.910294
F183	F	1.952292	-0.340086	1.243627
H184	H	1.273060	-1.133237	0.563019
H185	H	1.606394	-0.799903	0.896352
H186	H	1.939727	-0.466570	1.229685
F187	F	1.098267	-0.425689	0.983464
F188	F	1.431600	-0.092356	1.316797
F189	F	1.764933	0.240977	1.650130
F190	F	1.077385	-1.125898	0.346127
F191	F	1.410718	-0.792565	0.679461
F192	F	1.744051	-0.459231	1.012794
F193	F	1.077317	-0.990189	0.346097
F194	F	1.410650	-0.656856	0.679430
F195	F	1.743984	-0.323523	1.012764
