data_functionalizedCrystal
_audit_creation_method	'MofGen! by Chris Wilmer'
_symmetry_space_group_name_H-M	'P1'
_symmetry_Int_Tables_number	1
_symmetry_cell_setting	triclinic
loop_
_symmetry_equiv_pos_as_xyz
  x,y,z
_cell_length_a	18.101397
_cell_length_b	21.395362
_cell_length_c	21.395355
_cell_angle_alpha	90.043940
_cell_angle_beta	89.980066
_cell_angle_gamma	89.963657
loop_
_atom_site_label
_atom_site_type_symbol
_atom_site_fract_x
_atom_site_fract_y
_atom_site_fract_z
Zn1	Zn	-0.294601	-0.957904	-0.354579
Zn2	Zn	0.038732	-0.624571	-0.021246
Zn3	Zn	0.372065	-0.291237	0.312087
Zn4	Zn	-0.418425	-0.957825	-0.249799
Zn5	Zn	-0.085091	-0.624492	0.083534
Zn6	Zn	0.248242	-0.291159	0.416867
Zn7	Zn	-0.294636	-0.853119	-0.249781
Zn8	Zn	0.038697	-0.519786	0.083553
Zn9	Zn	0.372031	-0.186452	0.416886
Zn10	Zn	-0.418440	-0.853107	-0.354504
Zn11	Zn	-0.085107	-0.519774	-0.021171
Zn12	Zn	0.248227	-0.186440	0.312163
O13	O	-0.356526	-0.905489	-0.302166
O14	O	-0.023192	-0.572155	0.031167
O15	O	0.310141	-0.238822	0.364501
O16	O	-0.311006	-1.045572	-0.340720
O17	O	0.022327	-0.712238	-0.007386
O18	O	0.355661	-0.378905	0.325947
O19	O	-0.402012	-0.943908	-0.162119
O20	O	-0.068679	-0.610575	0.171214
O21	O	0.264655	-0.277241	0.504548
O22	O	-0.190998	-0.867057	-0.263706
O23	O	0.142335	-0.533724	0.069627
O24	O	0.475668	-0.200390	0.402960
O25	O	-0.401979	-1.045514	-0.263738
O26	O	-0.068645	-0.712180	0.069595
O27	O	0.264688	-0.378847	0.402929
O28	O	-0.190973	-0.944042	-0.340701
O29	O	0.142360	-0.610709	-0.007368
O30	O	0.475694	-0.277375	0.325965
O31	O	-0.311065	-0.866981	-0.162105
O32	O	0.022268	-0.533647	0.171228
O33	O	0.355602	-0.200314	0.504561
O34	O	-0.311080	-0.765439	-0.263633
O35	O	0.022254	-0.432106	0.069700
O36	O	0.355587	-0.098773	0.403033
O37	O	-0.402005	-0.867036	-0.442192
O38	O	-0.068671	-0.533703	-0.108859
O39	O	0.264662	-0.200370	0.224475
O40	O	-0.402038	-0.765431	-0.340573
O41	O	-0.068705	-0.432097	-0.007240
O42	O	0.264629	-0.098764	0.326094
O43	O	-0.311021	-0.944030	-0.442247
O44	O	0.022312	-0.610697	-0.108914
O45	O	0.355646	-0.277364	0.224419
O46	O	-0.522060	-0.943896	-0.263665
O47	O	-0.188726	-0.610563	0.069668
O48	O	0.144607	-0.277229	0.403002
O49	O	-0.522071	-0.866960	-0.340591
O50	O	-0.188738	-0.533627	-0.007258
O51	O	0.144596	-0.200293	0.326076
C52	C	-0.356565	-0.742701	-0.302093
C53	C	-0.023231	-0.409368	0.031240
C54	C	0.310102	-0.076034	0.364573
C55	C	-0.356599	-0.673060	-0.302077
C56	C	-0.023266	-0.339727	0.031256
C57	C	0.310067	-0.006393	0.364590
C58	C	-0.548936	-0.905435	-0.302136
C59	C	-0.215603	-0.572102	0.031198
C60	C	0.117731	-0.238769	0.364531
C61	C	-0.631250	-0.905470	-0.302144
C62	C	-0.297917	-0.572136	0.031190
C63	C	0.035416	-0.238803	0.364523
C64	C	-0.356511	-0.905541	-0.465589
C65	C	-0.023177	-0.572207	-0.132256
C66	C	0.310156	-0.238874	0.201077
C67	C	-0.356504	-0.905563	-0.535231
C68	C	-0.023171	-0.572230	-0.201897
C69	C	0.310163	-0.238896	0.131436
C70	C	-0.930341	-0.905550	-0.302201
C71	C	-0.597008	-0.572216	0.031133
C72	C	-0.263674	-0.238883	0.364466
C73	C	-0.898978	-0.953821	-0.253671
C74	C	-0.565645	-0.620487	0.079662
C75	C	-0.232311	-0.287154	0.412996
C76	C	-0.813359	-0.953988	-0.253797
C77	C	-0.480026	-0.620655	0.079536
C78	C	-0.146693	-0.287321	0.412870
C79	C	-0.781959	-0.905510	-0.302172
C80	C	-0.448625	-0.572177	0.031162
C81	C	-0.115292	-0.238843	0.364495
C82	C	-0.812974	-0.923415	-0.368221
C83	C	-0.479641	-0.590082	-0.034887
C84	C	-0.146308	-0.256748	0.298446
C85	C	-0.898619	-0.923789	-0.367956
C86	C	-0.565286	-0.590455	-0.034623
C87	C	-0.231953	-0.257122	0.298710
C88	C	-0.898868	-0.839245	-0.285253
C89	C	-0.565535	-0.505911	0.048080
C90	C	-0.232201	-0.172578	0.381414
C91	C	-0.813218	-0.839572	-0.283779
C92	C	-0.479885	-0.506239	0.049554
C93	C	-0.146552	-0.172905	0.382888
C94	C	-0.698099	-0.905486	-0.302159
C95	C	-0.364766	-0.572153	0.031174
C96	C	-0.031432	-0.238820	0.364507
C97	C	-1.014201	-0.905575	-0.302217
C98	C	-0.680867	-0.572241	0.031116
C99	C	-0.347534	-0.238908	0.364449
C100	C	-0.163364	-0.905560	-0.302210
C101	C	0.169970	-0.572226	0.031123
C102	C	0.503303	-0.238893	0.364457
C103	C	-0.081050	-0.905590	-0.302229
C104	C	0.252284	-0.572257	0.031104
C105	C	0.585617	-0.238923	0.364438
C106	C	-0.356487	-1.068912	-0.302239
C107	C	-0.023153	-0.735579	0.031094
C108	C	0.310180	-0.402245	0.364427
C109	C	-0.356470	-1.138553	-0.302271
C110	C	-0.023137	-0.805220	0.031063
C111	C	0.310196	-0.471887	0.364396
C112	C	-0.404024	-0.640359	-0.342080
C113	C	-0.070691	-0.307025	-0.008746
C114	C	0.262643	0.026308	0.324587
C115	C	-0.404006	-0.574923	-0.342107
C116	C	-0.070673	-0.241590	-0.008774
C117	C	0.262661	0.091744	0.324559
C118	C	-0.356571	-0.542192	-0.302122
C119	C	-0.023237	-0.208858	0.031212
C120	C	0.310096	0.124475	0.364545
C121	C	-0.309137	-0.574901	-0.262116
C122	C	0.024197	-0.241567	0.071217
C123	C	0.357530	0.091766	0.404550
C124	C	-0.309151	-0.640335	-0.262094
C125	C	0.024182	-0.307002	0.071239
C126	C	0.357516	0.026332	0.404573
C127	C	-0.350605	-0.438466	-0.245717
C128	C	-0.017271	-0.105133	0.087617
C129	C	0.316062	0.228201	0.420950
C130	C	-0.350596	-0.373033	-0.245738
C131	C	-0.017262	-0.039700	0.087596
C132	C	0.316071	0.293634	0.420929
C133	C	-0.356522	-0.340371	-0.302191
C134	C	-0.023189	-0.007038	0.031143
C135	C	0.310144	0.326296	0.364476
C136	C	-0.362474	-0.373150	-0.358624
C137	C	-0.029140	-0.039816	-0.025291
C138	C	0.304193	0.293517	0.308042
C139	C	-0.362488	-0.438584	-0.358602
C140	C	-0.029155	-0.105251	-0.025269
C141	C	0.304179	0.228083	0.308065
C142	C	-0.356550	-0.471239	-0.302142
C143	C	-0.023216	-0.137906	0.031192
C144	C	0.310117	0.195427	0.364525
C145	C	-0.403930	-0.236717	-0.342227
C146	C	-0.070597	0.096616	-0.008894
C147	C	0.262737	0.429950	0.324440
C148	C	-0.403907	-0.171280	-0.342256
C149	C	-0.070573	0.162053	-0.008923
C150	C	0.262760	0.495386	0.324411
C151	C	-0.309042	-0.171259	-0.262259
C152	C	0.024292	0.162074	0.071074
C153	C	0.357625	0.495407	0.404407
C154	C	-0.309061	-0.236695	-0.262236
C155	C	0.024272	0.096639	0.071097
C156	C	0.357606	0.429972	0.404431
C157	C	-0.356509	-0.269420	-0.302219
C158	C	-0.023176	0.063914	0.031114
C159	C	0.310157	0.397247	0.364448
C160	C	-0.309127	-0.945652	-0.567974
C161	C	0.024206	-0.612319	-0.234640
C162	C	0.357540	-0.278985	0.098693
C163	C	-0.309095	-0.945651	-0.633409
C164	C	0.024238	-0.612318	-0.300076
C165	C	0.357572	-0.278985	0.033258
C166	C	-0.356454	-0.905568	-0.666099
C167	C	-0.023120	-0.572235	-0.332766
C168	C	0.310213	-0.238901	0.000568
C169	C	-0.403834	-0.865471	-0.633348
C170	C	-0.070501	-0.532138	-0.300015
C171	C	0.262832	-0.198804	0.033319
C172	C	-0.403859	-0.865469	-0.567914
C173	C	-0.070526	-0.532135	-0.234581
C174	C	0.262807	-0.198802	0.098753
C175	C	-0.423137	-0.900602	-0.769761
C176	C	-0.089803	-0.567269	-0.436428
C177	C	0.243530	-0.233935	-0.103095
C178	C	-0.423113	-0.900609	-0.835194
C179	C	-0.089779	-0.567275	-0.501861
C180	C	0.243554	-0.233942	-0.168528
C181	C	-0.356375	-0.905572	-0.867920
C182	C	-0.023042	-0.572238	-0.534586
C183	C	0.310291	-0.238905	-0.201253
C184	C	-0.289660	-0.910541	-0.835204
C185	C	0.043673	-0.577208	-0.501871
C186	C	0.377007	-0.243874	-0.168538
C187	C	-0.289685	-0.910539	-0.769770
C188	C	0.043648	-0.577205	-0.436437
C189	C	0.376981	-0.243872	-0.103103
C190	C	-0.356431	-0.905566	-0.737051
C191	C	-0.023098	-0.572232	-0.403718
C192	C	0.310235	-0.238899	-0.070385
C193	C	-0.308960	-0.945662	-0.971615
C194	C	0.024374	-0.612329	-0.638282
C195	C	0.357707	-0.278995	-0.304949
C196	C	-0.308927	-0.945657	-1.037052
C197	C	0.024407	-0.612323	-0.703719
C198	C	0.357740	-0.278990	-0.370385
C199	C	-0.403672	-0.865480	-1.036990
C200	C	-0.070339	-0.532147	-0.703657
C201	C	0.262994	-0.198813	-0.370323
C202	C	-0.403699	-0.865482	-0.971555
C203	C	-0.070365	-0.532148	-0.638221
C204	C	0.262968	-0.198815	-0.304888
C205	C	-0.356344	-0.905576	-0.938871
C206	C	-0.023010	-0.572243	-0.605538
C207	C	0.310323	-0.238910	-0.272204
C208	C	-0.356487	-0.905473	-0.139378
C209	C	-0.023154	-0.572140	0.193955
C210	C	0.310180	-0.238806	0.527288
C211	C	-0.356285	-0.905572	-0.069737
C212	C	-0.022951	-0.572239	0.263596
C213	C	0.310382	-0.238906	0.596929
H214	H	-0.792391	-0.942785	-0.204823
H215	H	-0.459057	-0.609452	0.128510
H216	H	-0.125724	-0.276119	0.461843
H217	H	-0.477436	-0.896566	-0.861826
H218	H	-0.144103	-0.563233	-0.528493
H219	H	0.189230	-0.229900	-0.195160
Br220	Br	-0.244782	-0.684719	-0.207802
Br221	Br	0.088551	-0.351385	0.125532
Br222	Br	0.421884	-0.018052	0.458865
Br223	Br	-0.931802	-1.004568	-0.391879
Br224	Br	-0.598469	-0.671235	-0.058546
Br225	Br	-0.265135	-0.337901	0.274788
H226	H	-0.442283	-0.832841	-0.944895
H227	H	-0.108950	-0.499507	-0.611562
H228	H	0.224384	-0.166174	-0.278228
Br229	Br	-0.244857	-1.000063	-0.523620
Br230	Br	0.088477	-0.666730	-0.190287
Br231	Br	0.421810	-0.333396	0.143046
Br232	Br	-0.777109	-1.003291	-0.392551
Br233	Br	-0.443776	-0.669958	-0.059218
Br234	Br	-0.110443	-0.336624	0.274116
Br235	Br	-0.513719	-0.893885	-0.725355
Br236	Br	-0.180386	-0.560552	-0.392022
Br237	Br	0.152948	-0.227218	-0.058688
H238	H	-0.919365	-0.890171	-0.405362
H239	H	-0.586032	-0.556837	-0.072028
H240	H	-0.252698	-0.223504	0.261305
Br241	Br	-0.934733	-1.035237	-0.272146
Br242	Br	-0.601400	-0.701904	0.061187
Br243	Br	-0.268066	-0.368570	0.394521
Br244	Br	-0.468102	-0.811067	-0.677711
Br245	Br	-0.134769	-0.477734	-0.344378
Br246	Br	0.198565	-0.144401	-0.011044
H247	H	-0.442439	-0.832820	-0.541255
H248	H	-0.109105	-0.499487	-0.207922
H249	H	0.224228	-0.166154	0.125412
Br250	Br	-0.779089	-1.035849	-0.272492
Br251	Br	-0.445756	-0.702516	0.060841
Br252	Br	-0.112423	-0.369182	0.394174
Br253	Br	-0.468371	-0.530533	-0.396402
Br254	Br	-0.135038	-0.197199	-0.063068
Br255	Br	0.198296	0.136134	0.270265
Br256	Br	-0.934963	-0.812095	-0.206370
Br257	Br	-0.601630	-0.478762	0.126964
Br258	Br	-0.268296	-0.145428	0.460297
Br259	Br	-0.779088	-0.866603	-0.430111
Br260	Br	-0.445754	-0.533270	-0.096778
Br261	Br	-0.112421	-0.199936	0.236556
Br262	Br	-0.199082	-0.917282	-0.879608
Br263	Br	0.134252	-0.583949	-0.546275
Br264	Br	0.467585	-0.250615	-0.212942
H265	H	-0.792953	-0.826071	-0.235172
H266	H	-0.459620	-0.492738	0.098161
H267	H	-0.126287	-0.159404	0.431494
H268	H	-0.270513	-0.548247	-0.229561
H269	H	0.062820	-0.214913	0.103773
H270	H	0.396153	0.118420	0.437106
Br271	Br	-0.933375	-0.935380	-0.171797
Br272	Br	-0.600041	-0.602047	0.161536
Br273	Br	-0.266708	-0.268713	0.494869
Br274	Br	-0.244695	-0.281078	-0.207943
Br275	Br	0.088638	0.052255	0.125390
Br276	Br	0.421971	0.385588	0.458723
H277	H	-0.270415	-0.144610	-0.229705
H278	H	0.062918	0.188723	0.103628
H279	H	0.396251	0.522057	0.436962
H280	H	-0.270511	-0.978295	-0.660073
H281	H	0.062822	-0.644962	-0.326740
H282	H	0.396156	-0.311628	0.006593
H283	H	-0.235363	-0.914583	-0.743136
H284	H	0.097970	-0.581250	-0.409802
H285	H	0.431303	-0.247916	-0.076469
H286	H	-0.791852	-0.801671	-0.316535
H287	H	-0.458519	-0.468338	0.016798
H288	H	-0.125186	-0.135004	0.350131
Br289	Br	-0.342521	-0.328554	-0.169151
Br290	Br	-0.009187	0.004779	0.164182
Br291	Br	0.324146	0.338113	0.497516
Br292	Br	-0.468416	-0.684768	-0.396343
Br293	Br	-0.135082	-0.351435	-0.063010
Br294	Br	0.198251	-0.018101	0.270323
Br295	Br	-0.370562	-0.483068	-0.435186
Br296	Br	-0.037228	-0.149735	-0.101853
Br297	Br	0.296105	0.183599	0.231481
Br298	Br	-0.932678	-0.779299	-0.344163
Br299	Br	-0.599344	-0.445965	-0.010830
Br300	Br	-0.266011	-0.112632	0.322503
H301	H	-0.367299	-0.346558	-0.404594
H302	H	-0.033965	-0.013224	-0.071261
H303	H	0.299368	0.320109	0.262073
H304	H	-0.442561	-0.263363	-0.374787
H305	H	-0.109228	0.069970	-0.041453
H306	H	0.224105	0.403304	0.291880
H307	H	-0.442524	-0.144656	-0.374835
H308	H	-0.109191	0.188677	-0.041501
H309	H	0.224142	0.522011	0.291832
Br310	Br	-0.342562	-0.482786	-0.169095
Br311	Br	-0.009228	-0.149453	0.164239
Br312	Br	0.324105	0.183880	0.497572
H313	H	-0.270396	-0.978306	-0.945003
H314	H	0.062937	-0.644972	-0.611670
H315	H	0.396271	-0.311639	-0.278337
Br316	Br	-0.244634	-1.000078	-1.081491
Br317	Br	0.088699	-0.666745	-0.748157
Br318	Br	0.422032	-0.333411	-0.414824
H319	H	-0.442225	-0.832837	-1.063605
H320	H	-0.108892	-0.499504	-0.730272
H321	H	0.224442	-0.166170	-0.396939
