data_functionalizedCrystal
_audit_creation_method	'MofGen! by Chris Wilmer'
_symmetry_space_group_name_H-M	'P1'
_symmetry_Int_Tables_number	1
_symmetry_cell_setting	triclinic
loop_
_symmetry_equiv_pos_as_xyz
  x,y,z
_cell_length_a	10.723023
_cell_length_b	10.723024
_cell_length_c	14.586319
_cell_angle_alpha	89.997376
_cell_angle_beta	89.996956
_cell_angle_gamma	84.467709
loop_
_atom_site_label
_atom_site_type_symbol
_atom_site_fract_x
_atom_site_fract_y
_atom_site_fract_z
O1	O	1.657187	0.175021	-0.076228
O2	O	1.294035	0.191775	-0.076232
O3	O	1.483988	0.001822	-0.076227
O4	O	1.467235	0.364974	-0.076234
O5	O	1.483975	0.001819	0.076254
O6	O	1.294022	0.191772	0.076249
O7	O	1.657174	0.175018	0.076252
Cu8	Cu	1.475597	0.183395	0.090173
Cu9	Cu	1.475612	0.183398	-0.090153
O10	O	1.467221	0.364971	0.076247
C11	C	1.247529	0.190555	0.000008
C12	C	1.108974	0.186908	0.000006
C13	C	1.047195	0.185280	0.078995
C14	C	0.903992	0.181510	0.078996
C15	C	1.482762	-0.044679	0.000012
C16	C	1.479114	-0.183233	0.000009
C17	C	1.585402	-0.258216	0.000009
C18	C	1.581634	-0.401420	0.000006
C19	C	1.703680	0.176239	0.000010
C20	C	1.842235	0.179886	0.000006
C21	C	1.468447	0.411473	0.000006
C22	C	1.472095	0.550027	0.000003
N23	N	1.475595	0.183392	0.217005
N24	N	1.475624	0.183392	-0.216985
C25	C	1.559734	0.099309	0.452014
C26	C	1.559738	0.099306	0.547995
C27	C	1.391476	0.267478	0.548000
C28	C	1.391467	0.267474	0.452020
C29	C	1.475603	0.183391	0.404030
C30	C	1.475616	0.183392	0.595990
C31	C	1.475619	0.183390	0.700058
C32	C	1.475599	0.183392	0.299956
H33	H	1.055849	0.185507	-0.067619
H34	H	0.850863	0.180118	0.146621
H35	H	1.322952	0.335945	0.412949
F36	F	1.649278	0.009812	0.599060
F37	F	1.700570	-0.485634	0.000012
H38	H	1.385328	-0.225055	0.000002
H39	H	1.322976	0.335939	0.587083
H40	H	1.100322	0.186670	0.146620
F41	F	1.707992	-0.203559	0.000005
F42	F	1.649276	0.009817	0.400942
F43	F	0.911664	0.181724	-0.088392
H44	H	1.381099	-0.385548	0.000009
