data_functionalizedCrystal
_audit_creation_method	'MofGen! by Chris Wilmer'
_symmetry_space_group_name_H-M	'P1'
_symmetry_Int_Tables_number	1
_symmetry_cell_setting	triclinic
loop_
_symmetry_equiv_pos_as_xyz
  x,y,z
_cell_length_a	25.639239
_cell_length_b	12.759401
_cell_length_c	25.639234
_cell_angle_alpha	89.990571
_cell_angle_beta	90.021106
_cell_angle_gamma	89.965344
loop_
_atom_site_label
_atom_site_type_symbol
_atom_site_fract_x
_atom_site_fract_y
_atom_site_fract_z
Zn1	Zn	-0.208258	-1.605969	0.295598
Zn2	Zn	0.291742	-1.105969	0.795598
Zn3	Zn	-0.295681	-1.605823	0.208162
Zn4	Zn	0.204319	-1.105823	0.708162
Zn5	Zn	-0.208255	-1.430304	0.208178
Zn6	Zn	0.291745	-0.930304	0.708178
Zn7	Zn	-0.295659	-1.430186	0.295568
Zn8	Zn	0.204341	-0.930186	0.795568
O9	O	-0.251963	-1.518071	0.251877
O10	O	0.248037	-1.018071	0.751877
O11	O	-0.219866	-1.752971	0.284006
O12	O	0.280134	-1.252971	0.784006
O13	O	-0.284092	-1.582528	0.134999
O14	O	0.215908	-1.082528	0.634999
O15	O	-0.135090	-1.453717	0.219793
O16	O	0.364910	-0.953717	0.719793
O17	O	-0.284095	-1.752863	0.219767
O18	O	0.215905	-1.252863	0.719767
O19	O	-0.135093	-1.582777	0.284021
O20	O	0.364907	-1.082777	0.784021
O21	O	-0.219860	-1.453575	0.135011
O22	O	0.280140	-0.953575	0.635011
O23	O	-0.219839	-1.283267	0.219764
O24	O	0.280161	-0.783267	0.719764
O25	O	-0.284057	-1.453516	0.368737
O26	O	0.215943	-0.953516	0.868737
O27	O	-0.284054	-1.283181	0.283970
O28	O	0.215946	-0.783181	0.783970
O29	O	-0.219844	-1.582663	0.368759
O30	O	0.280156	-1.082663	0.868759
O31	O	-0.368843	-1.582414	0.219738
O32	O	0.131157	-1.082414	0.719738
O33	O	-0.368827	-1.453374	0.283955
O34	O	0.131173	-0.953374	0.783955
C35	C	-0.251944	-1.245103	0.251866
C36	C	0.248056	-0.745103	0.751866
C37	C	-0.251948	-1.128327	0.251873
C38	C	0.248052	-0.628327	0.751873
C39	C	-0.218566	-1.073514	0.285374
C40	C	0.281434	-0.573514	0.785374
C41	C	-0.218573	-0.963790	0.285375
C42	C	0.281427	-0.463790	0.785375
C43	C	-0.285349	-0.963701	0.218375
C44	C	0.214651	-0.463701	0.718375
C45	C	-0.285339	-1.073423	0.218371
C46	C	0.214661	-0.573423	0.718371
C47	C	-0.180014	-1.073564	0.324057
C48	C	0.319986	-0.573564	0.824057
C49	C	-0.180022	-0.963840	0.324059
C50	C	0.319978	-0.463840	0.824059
C51	C	-0.387806	-1.517894	0.251853
C52	C	0.112194	-1.017894	0.751853
C53	C	-0.445920	-1.517915	0.251860
C54	C	0.054080	-1.017915	0.751860
C55	C	-0.806279	-1.585437	0.218496
C56	C	-0.306279	-1.085437	0.718496
C57	C	-0.860883	-1.585477	0.218503
C58	C	-0.360883	-1.085477	0.718503
O59	O	-0.889116	-1.642704	0.190110
O60	O	-0.389116	-1.142704	0.690110
N61	N	-0.888202	-1.518255	0.251911
N62	N	-0.388202	-1.018255	0.751911
C63	C	-0.860914	-1.450996	0.285318
C64	C	-0.360914	-0.950996	0.785318
O65	O	-0.889165	-1.393822	0.313736
O66	O	-0.389165	-0.893822	0.813736
C67	C	-0.806311	-1.450961	0.285314
C68	C	-0.306311	-0.950961	0.785314
C69	C	-0.778995	-1.518180	0.251900
C70	C	-0.278995	-1.018180	0.751900
C71	C	-0.778963	-1.652651	0.185085
C72	C	-0.278963	-1.152651	0.685085
C73	C	-0.724362	-1.652609	0.185077
C74	C	-0.224362	-1.152609	0.685077
C75	C	-0.697078	-1.585352	0.218481
C76	C	-0.197078	-1.085352	0.718481
C77	C	-0.724394	-1.518138	0.251892
C78	C	-0.224394	-1.018138	0.751892
C79	C	-0.779024	-1.383707	0.318723
C80	C	-0.279024	-0.883707	0.818723
C81	C	-0.724417	-1.383679	0.318716
C82	C	-0.224417	-0.883679	0.818716
C83	C	-0.697101	-1.450898	0.285302
C84	C	-0.197101	-0.950898	0.785302
C85	C	-0.642509	-1.450838	0.285288
C86	C	-0.142509	-0.950838	0.785288
N87	N	-0.615190	-1.518061	0.251880
N88	N	-0.115190	-1.018061	0.751880
C89	C	-0.642474	-1.585317	0.218476
C90	C	-0.142474	-1.085317	0.718476
C91	C	-0.975585	-1.451075	0.285327
C92	C	-0.475585	-0.951075	0.785327
C93	C	-1.030187	-1.451103	0.285329
C94	C	-0.530187	-0.951103	0.785329
C95	C	-1.030152	-1.585587	0.218514
C96	C	-0.530152	-1.085587	0.718514
C97	C	-0.975549	-1.585552	0.218509
C98	C	-0.475549	-1.085552	0.718509
C99	C	-0.948266	-1.518297	0.251918
C100	C	-0.448266	-1.018297	0.751918
C101	C	-0.527809	-1.585223	0.218463
C102	C	-0.027809	-1.085223	0.718463
C103	C	-0.473204	-1.585171	0.218456
C104	C	0.026796	-1.085171	0.718456
C105	C	-0.473244	-1.450692	0.285273
C106	C	0.026756	-0.950692	0.785273
C107	C	-0.527844	-1.450739	0.285277
C108	C	-0.027844	-0.950739	0.785277
C109	C	-0.555126	-1.518013	0.251870
C110	C	-0.055126	-1.018013	0.751870
O111	O	-0.614241	-1.393644	0.313668
O112	O	-0.114241	-0.893644	0.813668
O113	O	-0.614217	-1.642491	0.190069
O114	O	-0.114217	-1.142491	0.690069
C115	C	-0.115590	-1.518277	0.251912
C116	C	0.384410	-1.018277	0.751912
C117	C	-0.057476	-1.518364	0.251927
C118	C	0.442524	-1.018364	0.751927
C119	C	-0.251948	-1.518093	0.388250
C120	C	0.248052	-1.018093	0.888250
C121	C	-0.251942	-1.518103	0.446364
C122	C	0.248058	-1.018103	0.946364
C123	C	-0.251977	-0.792104	0.251885
C124	C	0.248023	-0.292104	0.751885
C125	C	-0.251965	-0.908881	0.251879
C126	C	0.248035	-0.408881	0.751879
C127	C	-0.251940	-1.518109	0.116034
C128	C	0.248060	-1.018109	0.616034
C129	C	-0.251799	-1.518303	0.057920
C130	C	0.248201	-1.018303	0.557920
C131	C	-0.285312	-1.450926	0.697540
C132	C	0.214688	-0.950926	1.197540
C133	C	-0.285324	-1.450908	0.642936
C134	C	0.214676	-0.950908	1.142936
O135	O	-0.313748	-1.393691	0.614684
O136	O	0.186252	-0.893691	1.114684
N137	N	-0.251900	-1.518143	0.615638
N138	N	0.248100	-1.018143	1.115638
C139	C	-0.218459	-1.585393	0.642947
C140	C	0.281541	-1.085393	1.142947
O141	O	-0.190030	-1.642579	0.614714
O142	O	0.309970	-1.142579	1.114714
C143	C	-0.218445	-1.585405	0.697550
C144	C	0.281555	-1.085405	1.197550
C145	C	-0.251874	-1.518173	0.724845
C146	C	0.248126	-1.018173	1.224845
C147	C	-0.318738	-1.383699	0.724835
C148	C	0.181262	-0.883699	1.224835
C149	C	-0.318727	-1.383719	0.779436
C150	C	0.181273	-0.883719	1.279436
C151	C	-0.285289	-1.450966	0.806741
C152	C	0.214711	-0.950966	1.306741
C153	C	-0.251863	-1.518193	0.779446
C154	C	0.248137	-1.018193	1.279446
C155	C	-0.185001	-1.652650	0.724858
C156	C	0.314999	-1.152650	1.224858
C157	C	-0.184989	-1.652656	0.779465
C158	C	0.315011	-1.152656	1.279465
C159	C	-0.218419	-1.585424	0.806761
C160	C	0.281581	-1.085424	1.306761
C161	C	-0.218414	-1.585461	0.861352
C162	C	0.281586	-1.085461	1.361352
N163	N	-0.251838	-1.518226	0.888650
N164	N	0.248162	-1.018226	1.388650
C165	C	-0.285275	-1.450978	0.861345
C166	C	0.214725	-0.950978	1.361345
C167	C	-0.218490	-1.585361	0.528276
C168	C	0.281510	-1.085361	1.028276
C169	C	-0.218506	-1.585355	0.473674
C170	C	0.281494	-1.085355	0.973674
C171	C	-0.285371	-1.450867	0.473667
C172	C	0.214629	-0.950867	0.973667
C173	C	-0.285357	-1.450880	0.528270
C174	C	0.214643	-0.950880	1.028270
C175	C	-0.251914	-1.518126	0.555574
C176	C	0.248086	-1.018126	1.055574
C177	C	-0.285250	-1.451026	0.976010
C178	C	0.214750	-0.951026	1.476010
C179	C	-0.285237	-1.451055	1.030615
C180	C	0.214763	-0.951055	1.530615
C181	C	-0.218371	-1.585538	1.030618
C182	C	0.281629	-1.085538	1.530618
C183	C	-0.218385	-1.585514	0.976017
C184	C	0.281615	-1.085514	1.476017
C185	C	-0.251826	-1.518249	0.948714
C186	C	0.248174	-1.018249	1.448714
O187	O	-0.190003	-1.642645	0.889638
O188	O	0.309997	-1.142645	1.389638
O189	O	-0.313694	-1.393792	0.889584
O190	O	0.186306	-0.893792	1.389584
H191	H	-0.450965	-1.639909	0.191245
H192	H	0.049035	-1.139909	0.691245
H193	H	-0.801256	-1.328965	0.345930
H194	H	-0.301256	-0.828965	0.845930
Br195	Br	-0.938483	-1.676780	0.173160
Br196	Br	-0.438483	-1.176780	0.673160
H197	H	-0.157753	-1.707412	0.801694
H198	H	0.342247	-1.207412	1.301694
Br199	Br	-0.173024	-1.676773	0.938972
Br200	Br	0.326976	-1.176773	1.438972
Br201	Br	-0.330612	-1.359812	1.067655
Br202	Br	0.169388	-0.859812	1.567655
H203	H	-0.191148	-1.640293	1.052859
H204	H	0.308852	-1.140293	1.552859
Br205	Br	-0.115878	-0.907153	0.300007
Br206	Br	0.384122	-0.407153	0.800007
H207	H	-0.190928	-0.934070	0.364534
H208	H	0.309072	-0.434070	0.864534
H209	H	-0.194574	-1.107602	0.362494
H210	H	0.305426	-0.607602	0.862494
H211	H	-0.550016	-1.640006	0.191261
H212	H	-0.050016	-1.140006	0.691261
Br213	Br	-0.364099	-1.292471	0.816471
Br214	Br	0.135901	-0.792471	1.316471
Br215	Br	-0.564918	-1.359487	0.330613
Br216	Br	-0.064918	-0.859487	0.830613
H217	H	-0.312517	-1.118048	0.191087
H218	H	0.187483	-0.618048	0.691087
Br219	Br	-0.687298	-1.743855	0.139735
Br220	Br	-0.187298	-1.243855	0.639735
Br221	Br	-0.330634	-1.359738	0.938965
Br222	Br	0.169366	-0.859738	1.438965
Br223	Br	-0.815981	-1.743943	0.139747
Br224	Br	-0.315981	-1.243943	0.639747
Br225	Br	-0.330726	-1.359632	0.565308
Br226	Br	0.169274	-0.859632	1.065308
Br227	Br	-0.139629	-1.743899	0.687829
Br228	Br	0.360371	-1.243899	1.187829
Br229	Br	-1.067191	-1.676861	0.173178
Br230	Br	-0.567191	-1.176861	0.673178
Br231	Br	-1.067253	-1.359858	0.330671
Br232	Br	-0.567253	-0.859858	0.830671
Br233	Br	-0.938563	-1.359784	0.330668
Br234	Br	-0.438563	-0.859784	0.830668
Br235	Br	-0.687393	-1.292403	0.364061
Br236	Br	-0.187393	-0.792403	0.864061
H237	H	-0.451020	-1.395929	0.312468
H238	H	0.048980	-0.895929	0.812468
H239	H	-0.191257	-1.640129	0.550504
H240	H	0.308743	-1.140129	1.050504
Br241	Br	-0.364123	-1.292419	0.687789
Br242	Br	0.135877	-0.792419	1.187789
H243	H	-0.312535	-0.918986	0.191099
H244	H	0.187465	-0.418986	0.691099
Br245	Br	-0.173145	-1.676620	0.436637
Br246	Br	0.326855	-1.176620	0.936637
Br247	Br	-0.112493	-1.123251	0.306107
Br248	Br	0.387507	-0.623251	0.806107
Br249	Br	-0.330752	-1.359605	0.436599
Br250	Br	0.169248	-0.859605	0.936599
