data_functionalizedCrystal
_audit_creation_method	'MofGen! by Chris Wilmer'
_symmetry_space_group_name_H-M	'P1'
_symmetry_Int_Tables_number	1
_symmetry_cell_setting	triclinic
loop_
_symmetry_equiv_pos_as_xyz
  x,y,z
_cell_length_a	13.101039
_cell_length_b	10.654550
_cell_length_c	10.654551
_cell_angle_alpha	95.514868
_cell_angle_beta	86.602350
_cell_angle_gamma	86.606231
loop_
_atom_site_label
_atom_site_type_symbol
_atom_site_fract_x
_atom_site_fract_y
_atom_site_fract_z
O1	O	0.085293	-1.674697	0.169521
O2	O	0.085275	-1.309217	0.186328
O3	O	0.085285	-1.500359	-0.004815
O4	O	0.085283	-1.483555	0.360664
O5	O	-0.085146	-1.486645	0.008922
O6	O	-0.085155	-1.295503	0.200065
O7	O	-0.085138	-1.660983	0.183258
Zn8	Zn	-0.112206	-1.476065	0.193843
Zn9	Zn	0.112343	-1.494134	0.175743
O10	O	-0.085147	-1.469840	0.374401
C11	C	0.000058	-1.255562	0.191963
C12	C	0.000052	-1.116118	0.188272
N13	N	-0.265455	-1.463743	0.206194
C14	C	0.000072	-1.492268	-0.044744
C15	C	0.000079	-1.488576	-0.184188
C16	C	-0.474499	-1.446978	0.223011
C17	C	-0.525371	-1.523227	0.146570
C18	C	-0.641689	-1.513899	0.155926
C19	C	-0.358169	-1.456305	0.213655
N20	N	0.265593	-1.506467	0.163382
C21	C	0.000082	-1.714638	0.177623
C22	C	0.000095	-1.854082	0.181314
C23	C	0.000066	-1.036634	0.300812
C24	C	0.000084	-0.905615	0.297334
C25	C	0.000077	-0.933577	0.068765
C26	C	0.000052	-1.064593	0.072245
C27	C	0.000074	-1.020490	0.432774
C28	C	0.000092	-0.889470	0.429296
C29	C	0.092978	-1.494320	-0.257188
C30	C	0.092974	-1.490839	-0.388208
C31	C	-0.092839	-1.475877	-0.373216
C32	C	-0.092833	-1.479348	-0.242198
C33	C	0.200256	-1.502963	-0.265845
C34	C	0.200251	-1.499483	-0.396865
C35	C	0.000068	-1.477932	0.414330
C36	C	0.000068	-1.481624	0.553773
H37	H	-0.481565	-1.595513	0.074100
H38	H	0.233544	-1.410565	-0.429116
O39	O	0.240081	-1.615315	-0.233610
C40	C	0.371238	-1.722292	-0.126432
C41	C	0.326229	-1.594965	-0.162825
H42	H	0.440909	-1.705885	-0.069220
H43	H	0.310950	-1.767806	-0.067399
H44	H	0.395214	-1.787467	-0.215827
H45	H	0.302258	-1.529694	-0.073499
H46	H	0.386547	-1.549553	-0.221907
H47	H	0.241445	-1.589588	-0.446477
H48	H	-0.168485	-1.468361	-0.420464
H49	H	-0.518299	-1.374699	0.295477
O50	O	0.000071	-1.141627	-0.037197
C51	C	-0.000019	-1.155523	-0.264266
C52	C	-0.000013	-1.068140	-0.140416
H53	H	-0.000109	-1.096142	-0.347749
H54	H	0.071308	-1.223307	-0.274205
H55	H	-0.071342	-1.211818	-0.262518
H56	H	0.071261	-1.011762	-0.142077
H57	H	-0.071388	-1.000437	-0.130524
H58	H	0.241446	-1.419488	-0.222884
O59	O	0.087803	-1.070314	0.475761
C60	C	0.182029	-1.258264	0.525668
C61	C	0.082636	-1.202007	0.476940
H62	H	0.177876	-1.364742	0.526662
H63	H	0.250295	-1.238076	0.460957
H64	H	0.191470	-1.213595	0.625554
H65	H	0.073097	-1.246643	0.377071
H66	H	0.014421	-1.222182	0.541738
H67	H	-0.071255	-1.044081	0.490134
O68	O	0.000129	-0.883318	-0.043834
C69	C	0.000096	-0.693868	-0.150490
C70	C	0.000059	-0.750616	-0.022886
H71	H	0.000018	-0.586570	-0.133596
H72	H	0.071432	-0.732194	-0.211935
H73	H	-0.071217	-0.720839	-0.200410
H74	H	0.071324	-0.723667	0.027141
H75	H	-0.071325	-0.712292	0.038467
H76	H	-0.073487	-0.837878	0.475108
O77	O	0.085259	-0.846737	0.481743
C78	C	0.240343	-0.900485	0.580953
C79	C	0.143956	-0.949054	0.521561
H80	H	0.287816	-0.983179	0.613187
H81	H	0.287983	-0.853360	0.508044
H82	H	0.216544	-0.828931	0.665685
H83	H	0.167664	-1.020652	0.436843
H84	H	0.096339	-0.996103	0.594551
O85	O	-0.183167	-1.473814	-0.171479
C86	C	-0.367468	-1.458538	-0.170432
C87	C	-0.265235	-1.464820	-0.250674
H88	H	-0.433847	-1.451238	-0.234425
H89	H	-0.372179	-1.547545	-0.119485
H90	H	-0.372058	-1.372082	-0.097956
H91	H	-0.260577	-1.551220	-0.323216
H92	H	-0.260568	-1.375753	-0.301532
