data_functionalizedCrystal
_audit_creation_method	'MofGen! by Chris Wilmer'
_symmetry_space_group_name_H-M	'P1'
_symmetry_Int_Tables_number	1
_symmetry_cell_setting	triclinic
loop_
_symmetry_equiv_pos_as_xyz
  x,y,z
_cell_length_a	16.109301
_cell_length_b	9.198806
_cell_length_c	16.109301
_cell_angle_alpha	90.004871
_cell_angle_beta	83.461532
_cell_angle_gamma	90.001596
loop_
_atom_site_label
_atom_site_type_symbol
_atom_site_fract_x
_atom_site_fract_y
_atom_site_fract_z
O1	O	1.103131	0.120817	0.106867
O2	O	0.861069	0.120838	0.120166
O3	O	0.988750	0.120812	-0.007515
O4	O	0.975451	0.120843	0.234547
O5	O	0.988740	-0.120973	-0.007516
O6	O	0.861059	-0.120947	0.120165
O7	O	1.103121	-0.120968	0.106866
Cu8	Cu	0.982089	-0.143034	0.113515
Cu9	Cu	0.982101	0.142905	0.113516
O10	O	0.975441	-0.120942	0.234546
C11	C	0.830089	-0.000052	0.119627
C12	C	0.737794	-0.000044	0.118011
N13	N	0.982087	-0.344148	0.113514
C14	C	0.428796	-0.000061	0.188494
C15	C	0.515516	-0.000052	0.190020
C16	C	0.535389	-0.000052	0.038531
C17	C	0.448671	-0.000050	0.037007
C18	C	0.395376	-0.000062	0.111991
C19	C	0.568815	-0.000055	0.115041
C20	C	0.662841	-0.000046	0.116694
C21	C	0.301344	-0.000068	0.110338
C22	C	1.030143	-0.416344	0.161299
C23	C	1.030156	-0.583756	0.161298
C24	C	1.134101	-0.000075	0.107405
C25	C	1.226396	-0.000073	0.109020
C26	C	0.988206	-0.000081	-0.038490
C27	C	0.986591	-0.000083	-0.130785
N28	N	0.982110	0.344019	0.113511
C29	C	1.058599	-0.000066	-0.353058
C30	C	1.057075	-0.000054	-0.439778
C31	C	0.905586	-0.000046	-0.419904
C32	C	0.907111	-0.000048	-0.333185
C33	C	0.983620	-0.000065	-0.299765
C34	C	0.980571	-0.000052	-0.473204
C35	C	0.978918	-0.000038	-0.567230
C36	C	0.985273	-0.000076	-0.205733
C37	C	0.975984	-0.000046	0.265522
C38	C	0.977599	-0.000034	0.357817
H39	H	0.385405	-0.000069	0.249551
H40	H	1.120897	-0.000077	-0.325850
H41	H	1.118130	-0.000051	-0.483167
N42	N	0.823069	-0.000034	-0.455951
H43	H	0.833479	-0.000039	-0.518974
H44	H	0.790259	-0.089667	-0.436456
N45	N	1.084640	-0.334064	0.215487
H46	H	1.076909	-0.226133	0.207805
H47	H	1.068376	-0.360584	0.275991
N48	N	0.826232	-0.000059	-0.275705
H49	H	0.823489	-0.089689	-0.239287
H50	H	0.823535	0.089630	-0.239332
N51	N	0.551563	-0.000035	0.272534
H52	H	0.504640	-0.000037	0.319801
H53	H	0.587114	-0.089661	0.276466
N54	N	0.592868	-0.000056	-0.042344
H55	H	0.629296	0.089568	-0.045086
H56	H	0.629231	-0.089751	-0.045042
N57	N	0.412617	-0.000044	-0.045512
H58	H	0.459537	-0.000047	-0.092783
H59	H	0.377067	-0.089674	-0.049446
H60	H	1.071294	-0.645843	0.202213
N61	N	0.927605	-0.426433	0.059313
H62	H	0.887024	-0.489594	0.095628
H63	H	0.895589	-0.355160	0.027431
N64	N	0.927611	-0.573756	0.059313
H65	H	0.943858	-0.600176	-0.001213
H66	H	0.867152	-0.600214	0.075913
