data_functionalizedCrystal
_audit_creation_method	'MofGen! by Chris Wilmer'
_symmetry_space_group_name_H-M	'P1'
_symmetry_Int_Tables_number	1
_symmetry_cell_setting	triclinic
loop_
_symmetry_equiv_pos_as_xyz
  x,y,z
_cell_length_a	14.908783
_cell_length_b	19.121111
_cell_length_c	14.908308
_cell_angle_alpha	84.443416
_cell_angle_beta	89.788727
_cell_angle_gamma	84.104767
loop_
_atom_site_label
_atom_site_type_symbol
_atom_site_fract_x
_atom_site_fract_y
_atom_site_fract_z
Zn1	Zn	1.331007	0.246865	-0.600515
Zn2	Zn	1.333162	0.357730	-0.455853
Zn3	Zn	1.189365	0.246102	-0.441448
Zn4	Zn	1.173405	0.371245	-0.598169
O5	O	1.256735	0.305486	-0.523996
O6	O	1.457430	0.256235	-0.588336
O7	O	1.321669	0.336946	-0.327811
O8	O	1.213931	0.147433	-0.457502
O9	O	1.459014	0.337687	-0.482053
O10	O	1.317995	0.147994	-0.574368
O11	O	1.216021	0.254934	-0.317228
O12	O	1.061111	0.268039	-0.455226
O13	O	1.186730	0.360722	-0.724610
O14	O	1.049385	0.359981	-0.570369
O15	O	1.302520	0.269341	-0.726335
O16	O	1.306193	0.458293	-0.479778
O17	O	1.188820	0.468223	-0.584337
C18	C	1.022542	0.315394	-0.510980
C19	C	0.922351	0.319651	-0.505434
C20	C	0.732412	0.242967	-0.605868
C21	C	0.638274	0.246964	-0.600660
C22	C	0.639934	0.331640	-0.489806
C23	C	0.734072	0.327642	-0.495014
C24	C	0.780308	0.283305	-0.553048
C25	C	0.874448	0.279312	-0.558260
C26	C	0.876107	0.363983	-0.447402
C27	C	0.781968	0.367980	-0.442194
C28	C	1.246032	0.488868	-0.533387
C29	C	1.241533	0.567318	-0.537439
C30	C	1.300572	0.598981	-0.484954
C31	C	1.296346	0.672693	-0.488771
C32	C	1.233077	0.714741	-0.545068
C33	C	1.174036	0.683073	-0.597558
C34	C	1.178266	0.609362	-0.593746
C35	C	1.217248	0.937560	-0.559304
C36	C	1.213021	1.011276	-0.563110
C37	C	1.335333	1.000891	-0.454324
C38	C	1.339554	0.927179	-0.450513
C39	C	1.280516	0.895517	-0.503006
C40	C	1.228755	0.790087	-0.548968
C41	C	1.284843	0.820173	-0.499110
C42	C	1.491842	0.295539	-0.537063
C43	C	1.592031	0.291300	-0.542632
C44	C	1.242604	0.316624	-0.759091
C45	C	1.236582	0.321371	-0.859275
C46	C	1.267495	1.121388	-0.514601
C47	C	1.272059	1.042939	-0.510626
C48	C	1.345837	0.235118	-1.049326
C49	C	1.340182	0.239575	-1.143457
C50	C	1.219614	0.334739	-1.141670
C51	C	1.225269	0.330281	-1.047538
C52	C	1.288383	0.280470	-1.001370
C53	C	1.294042	0.276017	-0.907237
C54	C	1.173470	0.371176	-0.905451
C55	C	1.167815	0.375633	-0.999583
C56	C	1.270866	0.294337	-0.289816
C57	C	1.277073	0.289385	-0.189633
H58	H	0.915113	0.396835	-0.404399
C59	C	0.589791	0.379676	-0.426647
C60	C	0.618915	0.358997	-0.337970
C61	C	0.572737	0.403227	-0.279762
H62	H	0.601634	0.427102	-0.442905
H63	H	0.526861	0.376269	-0.431046
H64	H	0.681830	0.362411	-0.333575
H65	H	0.607071	0.311578	-0.321684
H66	H	0.509808	0.399820	-0.284161
H67	H	0.584584	0.450651	-0.296028
H68	H	0.592485	0.389199	-0.219588
C69	C	1.099153	0.429630	-1.049651
C70	C	1.012239	0.416948	-1.021029
C71	C	0.948965	0.466673	-1.067138
H72	H	1.110382	0.475796	-1.037416
H73	H	1.103949	0.425788	-1.112586
H74	H	1.007445	0.420797	-0.958108
H75	H	1.000981	0.370792	-1.033265
H76	H	0.953762	0.462830	-1.130073
H77	H	0.960203	0.512835	-1.054899
H78	H	0.889987	0.458071	-1.047730
C79	C	1.160196	0.835829	-0.610147
C80	C	1.205287	0.878685	-0.672963
C81	C	1.142162	0.920842	-0.729327
H82	H	1.125601	0.806506	-0.640949
H83	H	1.121389	0.864690	-0.574964
H84	H	1.244077	0.849827	-0.708141
H85	H	1.239878	0.908023	-0.642186
H86	H	1.103356	0.949702	-0.694145
H87	H	1.107570	0.891513	-0.760123
H88	H	1.172746	0.949929	-0.771949
H89	H	1.168228	0.375292	-1.179276
H90	H	0.744310	0.404076	-0.394941
C91	C	1.399334	1.035231	-0.397186
C92	C	1.386157	1.013963	-0.305975
C93	C	1.445096	1.045591	-0.253315
H94	H	1.459824	1.021192	-0.413052
H95	H	1.387750	1.085156	-0.407459
H96	H	1.397748	0.964049	-0.295707
H97	H	1.325680	1.028002	-0.290082
H98	H	1.433512	1.095516	-0.263589
H99	H	1.505582	1.031550	-0.269189
H100	H	1.436158	1.031170	-0.191423
H101	H	1.126689	0.408107	-0.866396
H102	H	1.345435	0.235459	-0.869648
C103	C	0.924525	0.231229	-0.621407
C104	C	0.895369	0.251884	-0.710079
C105	C	0.941468	0.207599	-0.768273
H106	H	0.987459	0.234586	-0.617068
H107	H	0.912623	0.183817	-0.605078
H108	H	0.907277	0.299284	-0.726404
H109	H	0.832441	0.248523	-0.714447
H110	H	0.929567	0.160186	-0.751944
H111	H	1.004401	0.210959	-0.763926
H112	H	0.921687	0.221603	-0.828442
C113	C	0.782493	0.194891	-0.669021
C114	C	0.753339	0.215556	-0.757692
C115	C	0.799444	0.171281	-0.815893
H116	H	0.845426	0.198250	-0.664678
H117	H	0.770594	0.147477	-0.652703
H118	H	0.765245	0.262959	-0.774005
H119	H	0.690412	0.212194	-0.762063
H120	H	0.787545	0.123866	-0.799575
H121	H	0.862375	0.174643	-0.811542
H122	H	0.779664	0.185292	-0.876061
C123	C	1.105481	0.728810	-0.658746
C124	C	1.150569	0.771669	-0.721561
C125	C	1.087442	0.813817	-0.777933
H126	H	1.070894	0.699481	-0.689549
H127	H	1.066666	0.757669	-0.623568
H128	H	1.189367	0.742813	-0.756735
H129	H	1.185151	0.801013	-0.690784
H130	H	1.048628	0.842676	-0.742755
H131	H	1.052859	0.784482	-0.808729
H132	H	1.118025	0.842906	-0.820554
H133	H	0.599281	0.214115	-0.643669
H134	H	1.352089	0.564750	-0.439107
C135	C	1.414390	0.180973	-0.999355
C136	C	1.463487	0.142199	-1.061500
C137	C	1.526638	0.092308	-1.015501
H138	H	1.454374	0.204491	-0.966193
H139	H	1.383935	0.149901	-0.959165
H140	H	1.493940	0.173266	-1.101674
H141	H	1.423527	0.118665	-1.094664
H142	H	1.496183	0.061236	-0.975311
H143	H	1.566616	0.115832	-0.982340
H144	H	1.559952	0.065989	-1.057658
H145	H	1.391073	0.892944	-0.404671
C146	C	1.360491	0.706937	-0.431680
C147	C	1.416784	0.654336	-0.381540
C148	C	1.475880	0.685854	-0.328927
H149	H	1.396105	0.735620	-0.469758
H150	H	1.326773	0.735307	-0.391909
H151	H	1.450499	0.625978	-0.421306
H152	H	1.381194	0.625650	-0.343444
H153	H	1.442162	0.714225	-0.289156
H154	H	1.511488	0.714536	-0.367012
H155	H	1.514076	0.650170	-0.294894
C156	C	1.144435	1.056898	-0.624396
C157	C	1.159683	1.042343	-0.713752
C158	C	1.096532	1.084364	-0.770230
H159	H	1.085324	1.046839	-0.607296
H160	H	1.150378	1.105340	-0.619203
H161	H	1.153732	0.993912	-0.718942
H162	H	1.218782	1.052405	-0.730880
H163	H	1.102475	1.132806	-0.765037
H164	H	1.037425	1.074302	-0.753122
H165	H	1.106874	1.074498	-0.830865
C166	C	1.402599	0.190454	-1.195650
C167	C	1.454777	0.230529	-1.254962
C168	C	1.512276	0.185299	-1.303065
H169	H	1.441076	0.160135	-1.154778
H170	H	1.367726	0.162914	-1.228936
H171	H	1.489646	0.258057	-1.221678
H172	H	1.416324	0.260845	-1.295852
H173	H	1.477404	0.157759	-1.336351
H174	H	1.550747	0.154983	-1.262186
H175	H	1.547680	0.212483	-1.343319
C176	C	1.114062	0.575115	-0.650768
C177	C	1.057733	0.627714	-0.700871
C178	C	0.998572	0.596194	-0.753409
H179	H	1.147702	0.546736	-0.690566
H180	H	1.078485	0.546441	-0.612615
H181	H	1.093306	0.656376	-0.739022
H182	H	1.024073	0.656097	-0.661096
H183	H	0.962995	0.567519	-0.715255
H184	H	1.032220	0.567815	-0.793201
H185	H	0.960341	0.631876	-0.787404
H186	H	1.336360	0.785935	-0.453277
H187	H	1.169176	0.911787	-0.602045
