data_functionalizedCrystal
_audit_creation_method	'MofGen! by Chris Wilmer'
_symmetry_space_group_name_H-M	'P1'
_symmetry_Int_Tables_number	1
_symmetry_cell_setting	triclinic
loop_
_symmetry_equiv_pos_as_xyz
  x,y,z
_cell_length_a	13.635800
_cell_length_b	13.167930
_cell_length_c	9.582880
_cell_angle_alpha	83.023828
_cell_angle_beta	111.207034
_cell_angle_gamma	74.245432
loop_
_atom_site_label
_atom_site_type_symbol
_atom_site_fract_x
_atom_site_fract_y
_atom_site_fract_z
V1	V	2.069924	-0.148420	0.487212
O2	O	2.050599	0.007599	0.456664
O3	O	2.056842	-0.294741	0.504339
O4	O	2.065116	-0.145932	0.690367
O5	O	2.042267	-0.142240	0.269348
V6	V	2.307784	-0.129783	0.458668
O7	O	2.209110	-0.189303	0.549824
O8	O	2.393697	-0.088900	0.396055
O9	O	2.209263	0.016539	0.441540
O10	O	2.385808	-0.285802	0.489216
O11	O	2.394139	-0.135963	0.676531
O12	O	2.200989	-0.132271	0.255513
V13	V	2.569924	-0.148420	0.487212
O14	O	2.550599	0.007599	0.456664
O15	O	2.556842	-0.294741	0.504339
O16	O	2.565116	-0.145932	0.690367
O17	O	2.542267	-0.142240	0.269348
V18	V	2.807784	-0.129783	0.458668
O19	O	2.709110	-0.189303	0.549824
O20	O	2.893697	-0.088900	0.396055
O21	O	2.709263	0.016539	0.441540
O22	O	2.885808	-0.285802	0.489216
O23	O	2.894139	-0.135963	0.676531
O24	O	2.700989	-0.132271	0.255513
C25	C	1.981420	-0.330418	0.501933
C26	C	2.011496	-0.450036	0.517291
C27	C	1.999009	-0.644346	0.267797
C28	C	2.027267	-0.756738	0.282220
C29	C	2.096278	-0.787212	0.560559
C30	C	2.068020	-0.674820	0.546136
C31	C	2.019384	-0.603391	0.399750
C32	C	1.991118	-0.490998	0.385328
C33	C	2.060136	-0.521474	0.663666
C34	C	2.088394	-0.633865	0.678089
C35	C	1.991974	-0.140595	0.739228
C36	C	2.028758	-0.139529	0.905443
C37	C	2.116356	0.052209	0.443944
C38	C	2.075900	0.171827	0.428596
C39	C	2.105802	-0.137611	0.206645
C40	C	2.058636	-0.138671	0.040427
C41	C	2.481420	-0.330418	0.501933
C42	C	2.511496	-0.450036	0.517291
C43	C	2.491974	-0.140595	0.739228
C44	C	2.528758	-0.139529	0.905443
C45	C	2.616356	0.052209	0.443944
C46	C	2.575900	0.171827	0.428596
C47	C	2.605802	-0.137611	0.206645
C48	C	2.558636	-0.138671	0.040427
C49	C	2.617836	-0.511689	0.532741
C50	C	2.646116	-0.624086	0.547195
C51	C	2.568052	-0.674827	0.546187
C52	C	2.461705	-0.613166	0.530740
C53	C	2.433429	-0.500772	0.516297
C54	C	2.642054	0.233479	0.413149
C55	C	2.604047	0.345876	0.398703
C56	C	2.499888	0.396616	0.399714
C57	C	2.433728	0.334956	0.415157
C58	C	2.471732	0.222563	0.429592
H59	H	1.951511	-0.432840	0.266132
H60	H	2.468955	0.488135	0.387958
H61	H	2.348918	0.376286	0.415976
H62	H	2.657933	0.396064	0.386132
C63	C	2.253988	-0.501289	0.501443
C64	C	2.316526	-0.433007	0.499288
H65	H	2.181813	-0.459454	0.490933
H66	H	2.290922	-0.555085	0.596445
H67	H	2.246801	-0.535621	0.418394
H68	H	2.323720	-0.398680	0.582344
H69	H	2.279583	-0.379191	0.404274
C70	C	2.047479	-0.362722	0.765158
C71	C	2.082548	-0.476456	0.808723
H72	H	2.061322	-0.334932	0.854711
H73	H	1.969689	-0.334549	0.700365
H74	H	2.087660	-0.341554	0.710874
H75	H	2.042361	-0.497623	0.862998
H76	H	2.160352	-0.504640	0.873542
C77	C	2.817466	-0.771166	0.704190
C78	C	2.763009	-0.691849	0.564146
H79	H	2.889630	-0.812992	0.714650
H80	H	2.775033	-0.817470	0.705664
H81	H	2.824683	-0.736823	0.787233
H82	H	2.755784	-0.726192	0.481102
H83	H	2.805452	-0.645538	0.562658
H84	H	2.591091	-0.766346	0.557949
H85	H	2.726870	0.192181	0.412325
H86	H	2.681411	-0.470390	0.533555
C87	C	2.296537	0.193030	0.316857
C88	C	2.399009	0.154801	0.446592
H89	H	2.251635	0.151204	0.327360
H90	H	2.309456	0.186578	0.226830
H91	H	2.259018	0.267233	0.308414
H92	H	2.436532	0.080600	0.455029
H93	H	2.386093	0.161244	0.536644
C94	C	1.933643	-0.625509	-0.005881
C95	C	1.945558	-0.565825	0.106897
H96	H	1.900654	-0.577032	-0.105212
H97	H	1.887107	-0.666469	0.000254
H98	H	2.005094	-0.673490	0.010820
H99	H	1.874106	-0.517849	0.090203
H100	H	1.992094	-0.524847	0.100757
H101	H	2.010675	-0.790078	0.174770
H102	H	2.135895	-0.845389	0.679740
H103	H	2.398152	-0.654497	0.529922
C104	C	2.162348	-0.819685	0.823787
C105	C	2.141848	-0.712386	0.838989
H106	H	2.195339	-0.868156	0.923124
H107	H	2.211793	-0.835340	0.774258
H108	H	2.093808	-0.828330	0.763689
H109	H	2.210389	-0.703738	0.899078
H110	H	2.092401	-0.696725	0.888542
