data_functionalizedCrystal
_audit_creation_method	'MofGen! by Chris Wilmer'
_symmetry_space_group_name_H-M	'P1'
_symmetry_Int_Tables_number	1
_symmetry_cell_setting	triclinic
loop_
_symmetry_equiv_pos_as_xyz
  x,y,z
_cell_length_a	15.625950
_cell_length_b	10.540535
_cell_length_c	14.750779
_cell_angle_alpha	77.226941
_cell_angle_beta	120.090508
_cell_angle_gamma	84.377552
loop_
_atom_site_label
_atom_site_type_symbol
_atom_site_fract_x
_atom_site_fract_y
_atom_site_fract_z
O1	O	1.286486	0.039094	0.367842
O2	O	0.999947	0.093169	0.268130
O3	O	1.149758	-0.119429	0.320272
O4	O	1.136674	0.251691	0.315700
O5	O	1.192108	-0.179521	0.494663
O6	O	1.042297	0.033076	0.442520
O7	O	1.328835	-0.020999	0.542233
Zn8	Zn	1.192290	-0.003502	0.520065
Zn9	Zn	1.136492	0.075672	0.290298
O10	O	1.179024	0.191599	0.490090
C11	C	0.984431	0.066624	0.342557
C12	C	0.875104	0.077043	0.304513
C13	C	0.630840	-0.052360	0.654562
C14	C	0.528096	-0.042528	0.618765
C15	C	0.481979	0.022978	0.428669
C16	C	0.584720	0.013158	0.464450
C17	C	0.659144	-0.024513	0.577398
C18	C	0.613024	0.041004	0.387287
C19	C	0.715757	0.031178	0.423066
C20	C	0.790186	-0.006495	0.536009
C21	C	0.761877	-0.034340	0.613178
C22	C	0.538600	0.078666	0.274340
C23	C	0.566903	0.106513	0.197176
C24	C	0.669637	0.096696	0.232954
C25	C	0.744067	0.059023	0.345897
C26	C	0.697947	0.124540	0.155786
C27	C	0.800680	0.114714	0.191565
C28	C	0.846800	0.049196	0.381677
C29	C	1.169954	-0.196651	0.407127
C30	C	1.167022	-0.337219	0.406108
C31	C	1.057642	-0.359679	0.368038
C32	C	1.054456	-0.505736	0.366550
C33	C	1.192809	-0.518772	0.324068
C34	C	1.195121	-0.372287	0.324813
C35	C	1.244873	-0.440970	0.523688
C36	C	1.240127	-0.587104	0.523215
C37	C	1.344351	0.005547	0.467803
C38	C	1.453677	-0.004870	0.505840
C39	C	1.158828	0.268822	0.403233
C40	C	1.161758	0.409392	0.404245
N41	N	1.230378	-0.057539	0.676877
N42	N	1.098412	0.129698	0.133488
C43	C	0.992038	0.280557	0.945740
C44	C	1.018735	0.242700	1.055531
C45	C	1.151421	0.054505	1.101676
C46	C	1.124732	0.092343	0.991885
C47	C	1.045041	0.205371	0.913926
C48	C	1.177735	0.017157	0.960071
C49	C	1.151051	0.054996	0.850291
C50	C	1.071365	0.168022	0.772326
C51	C	1.018357	0.243211	0.804146
C52	C	1.257430	-0.095865	1.038034
C53	C	1.310433	-0.171052	1.006219
C54	C	1.283745	-0.133218	0.896436
C55	C	1.204059	-0.020192	0.818471
C56	C	1.336753	-0.208406	0.864616
C57	C	1.310069	-0.170567	0.754837
C58	C	1.177375	0.017647	0.708692
H59	H	0.454948	0.086672	0.245211
C60	C	0.960429	0.325407	1.090528
H61	H	0.987737	0.286692	1.167076
H62	H	0.890249	0.325553	1.049653
H63	H	0.967350	0.415004	1.076462
H64	H	0.953458	0.335241	0.740664
C65	C	0.903193	-0.017309	0.575375
H66	H	0.943462	-0.043742	0.653693
H67	H	0.910943	0.067366	0.545934
H68	H	0.924897	-0.082248	0.550799
H69	H	1.375321	-0.263078	1.069707
H70	H	0.505056	-0.065177	0.681609
C71	C	0.972934	-0.503277	0.249548
H72	H	0.941644	-0.412906	0.202739
H73	H	0.922673	-0.544976	0.252199
H74	H	1.004199	-0.550415	0.221510
H75	H	0.927139	0.372588	0.882258
C76	C	1.239072	-0.069822	1.187433
H77	H	1.247370	-0.081597	1.257370
H78	H	1.300506	-0.057571	1.192325
H79	H	1.223401	-0.147015	1.165514
C80	C	1.424410	-0.332725	0.950378
H81	H	1.432708	-0.344494	1.020315
H82	H	1.485841	-0.320466	0.955266
H83	H	1.408746	-0.409925	0.928467
C84	C	0.978497	-0.260600	0.252487
H85	H	0.912623	-0.274847	0.230114
H86	H	0.995516	-0.274629	0.201423
H87	H	0.978514	-0.171190	0.254645
C88	C	1.042008	0.209655	0.651569
H89	H	0.986962	0.287743	0.609700
H90	H	1.021930	0.138737	0.621848
H91	H	1.099023	0.228198	0.648661
C92	C	0.843752	-0.075815	0.737420
H93	H	0.812186	-0.091011	0.778258
H94	H	0.877829	-0.006231	0.752921
H95	H	0.891746	-0.155827	0.757732
H96	H	1.353231	-0.231791	0.728935
H97	H	1.279156	-0.126666	1.127423
H98	H	1.274277	-0.358212	0.348484
H99	H	0.421371	0.053644	0.336706
C100	C	0.485037	0.147973	0.072939
H101	H	0.516610	0.163150	0.032109
H102	H	0.437029	0.227969	0.052614
H103	H	0.450975	0.078366	0.057447
C104	C	0.712715	-0.093836	0.778805
H105	H	0.681149	-0.109031	0.819642
H106	H	0.746792	-0.024252	0.794306
H107	H	0.760709	-0.173848	0.799116
C108	C	0.616079	0.165986	0.031551
H109	H	0.647651	0.181161	-0.009283
H110	H	0.568066	0.245979	0.011218
H111	H	0.582025	0.096370	0.016069
C112	C	0.831818	0.145355	0.106688
H113	H	0.772779	0.169213	0.034297
H114	H	0.877916	0.068085	0.119124
H115	H	0.863954	0.217695	0.114270
C116	C	1.298316	-0.595005	0.356545
H117	H	1.324426	-0.671507	0.419438
H118	H	1.343638	-0.537663	0.373315
H119	H	1.291968	-0.622901	0.296917
H120	H	0.907399	0.018541	0.473649
H121	H	1.136916	-0.519160	0.236643
H122	H	1.028583	-0.554015	0.422748
H123	H	1.032944	-0.336818	0.424683
H124	H	1.139742	-0.301569	0.237269
C125	C	1.353902	-0.425565	0.562830
H126	H	1.352037	-0.356265	0.507837
H127	H	1.395427	-0.507656	0.575416
H128	H	1.381496	-0.403236	0.629376
C129	C	1.223491	-0.412731	0.609450
H130	H	1.271308	-0.476453	0.679821
H131	H	1.156308	-0.419445	0.588645
H132	H	1.229678	-0.324867	0.612801
C133	C	1.210022	-0.652975	0.603673
H134	H	1.149947	-0.682498	0.564935
H135	H	1.197633	-0.589472	0.635107
H136	H	1.263916	-0.727632	0.660609
H137	H	1.112476	0.109678	0.645210
H138	H	1.319906	-0.648474	0.556745
