data_functionalizedCrystal
_audit_creation_method	'MofGen! by Chris Wilmer'
_symmetry_space_group_name_H-M	'P1'
_symmetry_Int_Tables_number	1
_symmetry_cell_setting	triclinic
loop_
_symmetry_equiv_pos_as_xyz
  x,y,z
_cell_length_a	23.532407
_cell_length_b	23.532407
_cell_length_c	22.610064
_cell_angle_alpha	90.000603
_cell_angle_beta	89.997161
_cell_angle_gamma	97.151322
loop_
_atom_site_label
_atom_site_type_symbol
_atom_site_fract_x
_atom_site_fract_y
_atom_site_fract_z
O1	O	0.755263	-0.069127	-0.049117
O2	O	0.589400	-0.079130	-0.049135
O3	O	0.677333	0.008803	-0.049114
O4	O	0.667330	-0.157060	-0.049137
O5	O	0.677318	0.008790	0.049255
O6	O	0.589385	-0.079143	0.049234
O7	O	0.755248	-0.069140	0.049252
Zn8	Zn	0.672314	-0.074144	0.064862
Zn9	Zn	0.672334	-0.074127	-0.064744
O10	O	0.667315	-0.157073	0.049232
C11	C	0.568176	-0.078882	0.000048
C12	C	0.504959	-0.078116	0.000041
C13	C	0.105856	-0.125350	0.000061
C14	C	0.046456	-0.124638	0.000065
O15	O	0.009711	-0.168424	0.000081
N16	N	0.023830	-0.072362	0.000071
C17	C	0.060607	-0.020794	0.000080
O18	O	0.035908	0.023737	0.000086
C19	C	0.120006	-0.021506	0.000080
C20	C	0.142629	-0.073785	0.000068
C21	C	0.128479	-0.177625	0.000050
C22	C	0.187876	-0.178336	0.000045
C23	C	0.224649	-0.126772	0.000052
C24	C	0.202025	-0.074497	0.000063
C25	C	0.156783	0.030062	0.000093
C26	C	0.216185	0.029345	0.000094
C27	C	0.238808	-0.022934	0.000082
C28	C	0.298194	-0.023643	0.000065
N29	N	0.320820	-0.075920	0.000059
C30	C	0.284048	-0.127484	0.000052
C31	C	-0.064135	-0.019302	0.000080
C32	C	-0.123533	-0.018589	0.000075
C33	C	-0.137680	-0.122434	0.000061
C34	C	-0.078281	-0.123146	0.000062
C35	C	-0.041509	-0.071578	0.000074
C36	C	0.408784	-0.128974	0.000042
C37	C	0.468186	-0.129680	0.000034
C38	C	0.482329	-0.025836	0.000051
C39	C	0.422932	-0.025129	0.000055
C40	C	0.386160	-0.076702	0.000052
O41	O	0.334974	0.020119	0.000052
O42	O	0.308755	-0.172007	0.000054
C43	C	0.677071	0.030013	0.000072
C44	C	0.676305	0.093230	0.000076
C45	C	0.776472	-0.069388	0.000069
C46	C	0.839689	-0.070154	0.000071
C47	C	0.667577	-0.178283	0.000045
C48	C	0.668343	-0.241500	0.000036
N49	N	0.672304	-0.074155	0.153314
C50	C	0.723539	0.492333	0.000049
C51	C	0.722827	0.551733	0.000044
O52	O	0.766613	0.588478	0.000027
N53	N	0.670551	0.574359	0.000039
C54	C	0.618983	0.537582	0.000032
O55	O	0.574452	0.562281	0.000027
C56	C	0.619695	0.478182	0.000033
C57	C	0.671974	0.455560	0.000044
C58	C	0.775814	0.469710	0.000060
C59	C	0.776525	0.410313	0.000065
C60	C	0.724961	0.373540	0.000060
C61	C	0.672685	0.396164	0.000050
C62	C	0.568127	0.441406	0.000022
C63	C	0.568844	0.382004	0.000021
C64	C	0.621123	0.359381	0.000033
C65	C	0.621832	0.299995	0.000050
N66	N	0.674109	0.277368	0.000056
C67	C	0.725673	0.314141	0.000061
C68	C	0.617491	0.662324	0.000031
C69	C	0.616778	0.721722	0.000034
C70	C	0.720623	0.735869	0.000045
C71	C	0.721335	0.676470	0.000046
C72	C	0.669767	0.639698	0.000036
C73	C	0.727163	0.189405	0.000073
C74	C	0.727869	0.130003	0.000081
C75	C	0.624025	0.115860	0.000067
C76	C	0.623318	0.175257	0.000062
C77	C	0.674891	0.212029	0.000063
O78	O	0.578070	0.263215	0.000065
O79	O	0.770196	0.289433	0.000058
N80	N	0.672349	-0.074111	-0.153196
C81	C	0.711273	-0.035196	0.561965
C82	C	0.711276	-0.035192	0.623884
O83	O	0.744384	-0.002076	0.655911
N84	N	0.672334	-0.074115	0.654851
C85	C	0.633383	-0.113041	0.623895
O86	O	0.600259	-0.146147	0.655920
C87	C	0.633377	-0.113042	0.561976
C88	C	0.672326	-0.074120	0.531013
C89	C	0.750218	0.003724	0.531001
C90	C	0.750215	0.003719	0.469085
C91	C	0.711268	-0.035206	0.438133
C92	C	0.672323	-0.074125	0.469097
C93	C	0.594424	-0.151965	0.531021
C94	C	0.594422	-0.151962	0.469098
C95	C	0.633370	-0.113040	0.438134
C96	C	0.633374	-0.113054	0.376229
N97	N	0.672316	-0.074131	0.345262
C98	C	0.711263	-0.035207	0.376214
C99	C	0.633396	-0.113035	0.753928
C100	C	0.633403	-0.113037	0.815846
C101	C	0.711296	-0.035187	0.815831
C102	C	0.711291	-0.035188	0.753913
C103	C	0.672338	-0.074112	0.722962
C104	C	0.711255	-0.035220	0.246187
C105	C	0.711251	-0.035230	0.184266
C106	C	0.633357	-0.113078	0.184286
C107	C	0.633363	-0.113071	0.246202
C108	C	0.672314	-0.074137	0.277151
O109	O	0.600281	-0.146152	0.344163
O110	O	0.744376	-0.002101	0.344182
H111	H	0.246123	0.071339	0.000104
O112	O	0.490231	-0.180430	0.000099
C113	C	0.524158	-0.183967	0.051046
H114	H	0.539200	-0.138997	0.068041
H115	H	0.562932	-0.206439	0.039577
H116	H	0.497776	-0.209323	0.086718
O117	O	0.556664	-0.189826	0.561117
C118	C	0.586951	-0.224806	0.596945
H119	H	0.631858	-0.225548	0.578288
H120	H	0.563450	-0.270189	0.597645
H121	H	0.590036	-0.206968	0.643873
O122	O	0.573990	0.080053	0.000035
C123	C	0.585835	0.022777	0.000054
H124	H	0.630560	0.020751	-0.018559
H125	H	0.552956	-0.004321	-0.028512
H126	H	0.583566	0.005585	0.047247
H127	H	0.404512	0.017441	0.000056
H128	H	-0.167632	-0.164421	0.000059
O129	O	0.788111	0.041558	0.560970
C130	C	0.822467	0.075913	0.520351
H131	H	0.822962	0.052560	0.476216
H132	H	0.868002	0.084831	0.538225
H133	H	0.804220	0.118129	0.513768
O134	O	0.556527	-0.189698	0.439007
C135	C	0.521575	-0.159379	0.403180
H136	H	0.520873	-0.114466	0.421834
H137	H	0.476177	-0.182844	0.402486
H138	H	0.539411	-0.156311	0.356250
H139	H	0.098544	-0.219617	0.000046
O140	O	0.595474	-0.150900	0.276192
C141	C	0.561109	-0.185266	0.235592
H142	H	0.560606	-0.161926	0.191450
H143	H	0.515577	-0.194176	0.253480
H144	H	0.579353	-0.227485	0.229015
O145	O	0.517357	0.463401	0.000109
C146	C	0.513820	0.497351	0.051042
H147	H	0.543488	0.483474	0.086663
H148	H	0.467884	0.491761	0.068127
H149	H	0.527226	0.544270	0.039522
O150	O	-0.145437	0.032231	0.000001
C151	C	-0.126626	0.063642	-0.050949
H152	H	-0.085513	0.048358	-0.067940
H153	H	-0.118114	0.111114	-0.039485
H154	H	-0.161038	0.056854	-0.086623
H155	H	0.742973	-0.003516	0.271379
H156	H	0.743005	-0.003494	0.728706
O157	O	0.595602	-0.150909	0.154147
C158	C	0.625895	-0.185901	0.118337
H159	H	0.670590	-0.162998	0.109062
H160	H	0.602074	-0.195024	0.074795
H161	H	0.629516	-0.227978	0.142195
H162	H	0.526850	0.352066	0.000013
H163	H	0.512280	0.016146	0.000054
O164	O	0.787896	0.041695	0.439029
C165	C	0.757464	0.076671	0.403348
H166	H	0.712844	0.053631	0.393991
H167	H	0.781282	0.086034	0.359840
H168	H	0.753660	0.118629	0.427361
H169	H	-0.034198	0.022693	0.000084
O170	O	0.749072	0.002607	0.845996
C171	C	0.740728	-0.005751	0.907286
H172	H	0.695331	-0.027270	0.915741
H173	H	0.747305	0.037412	0.930820
H174	H	0.772800	-0.034150	0.924856
H175	H	0.742969	-0.003535	0.159057
O176	O	-0.056239	-0.173894	0.000131
C177	C	-0.022321	-0.177432	0.051085
H178	H	-0.007277	-0.132462	0.068079
H179	H	0.016453	-0.199909	0.039623
H180	H	-0.048710	-0.202784	0.086754
H181	H	0.601694	-0.144737	0.841052
O182	O	0.825870	0.505484	0.000144
C183	C	0.828568	0.540255	0.051099
H184	H	0.783379	0.543019	0.068076
H185	H	0.850053	0.585016	0.039646
H186	H	0.854452	0.520847	0.086778
O187	O	0.134886	0.080884	0.000031
C188	C	0.153701	0.112302	-0.050914
H189	H	0.194812	0.097015	-0.067908
H190	H	0.162219	0.159772	-0.039441
H191	H	0.119289	0.105524	-0.086588
O192	O	0.778642	0.108001	0.000194
C193	C	0.782151	0.074057	0.051135
H194	H	0.752467	0.087943	0.086740
H195	H	0.828079	0.079645	0.068240
H196	H	0.768745	0.027138	0.039619
O197	O	0.595538	-0.150910	0.723957
C198	C	0.561164	-0.185251	0.764572
H199	H	0.584516	-0.185768	0.808705
H200	H	0.552216	-0.230781	0.746690
H201	H	0.518964	-0.166975	0.771164
H202	H	0.769159	0.219337	0.000071
H203	H	0.378851	-0.170970	0.000041
H204	H	0.819097	0.391900	0.000072
O205	O	0.209752	-0.229171	0.000067
C206	C	0.164549	-0.274524	0.000049
H207	H	0.124283	-0.258788	0.018672
H208	H	0.176754	-0.311047	0.028607
H209	H	0.156057	-0.290410	-0.047145
H210	H	0.763906	0.658056	0.000054
H211	H	0.574207	0.740136	0.000035
O212	O	0.770662	0.771678	0.000017
C213	C	0.758817	0.828954	0.000025
H214	H	0.714098	0.830978	-0.018599
H215	H	0.791705	0.856049	-0.028537
H216	H	0.761072	0.846150	0.047216
H217	H	0.575496	0.632386	0.000028
O218	O	0.572485	0.197142	0.000027
C219	C	0.527126	0.151944	0.000041
H220	H	0.542861	0.111674	-0.018569
H221	H	0.490613	0.164152	-0.028530
H222	H	0.511226	0.143460	0.047232
