data_functionalizedCrystal
_audit_creation_method	'MofGen! by Chris Wilmer'
_symmetry_space_group_name_H-M	'P1'
_symmetry_Int_Tables_number	1
_symmetry_cell_setting	triclinic
loop_
_symmetry_equiv_pos_as_xyz
  x,y,z
_cell_length_a	18.215407
_cell_length_b	19.077068
_cell_length_c	18.215399
_cell_angle_alpha	92.268164
_cell_angle_beta	89.982632
_cell_angle_gamma	92.324400
loop_
_atom_site_label
_atom_site_type_symbol
_atom_site_fract_x
_atom_site_fract_y
_atom_site_fract_z
Zn1	Zn	1.113286	-0.280256	-0.427823
Zn2	Zn	1.613286	0.219744	0.072177
Zn3	Zn	1.108244	-0.397958	-0.309694
Zn4	Zn	1.608244	0.102042	0.190306
Zn5	Zn	0.990217	-0.280273	-0.304776
Zn6	Zn	1.490217	0.219727	0.195224
Zn7	Zn	0.985236	-0.397912	-0.432722
Zn8	Zn	1.485236	0.102088	0.067278
O9	O	1.049246	-0.339100	-0.368754
O10	O	1.549246	0.160900	0.131246
O11	O	1.215601	-0.295882	-0.412161
O12	O	1.715601	0.204118	0.087839
O13	O	1.092562	-0.382373	-0.206058
O14	O	1.592562	0.117627	0.293942
O15	O	1.010737	-0.181780	-0.316991
O16	O	1.510737	0.318220	0.183009
O17	O	1.211896	-0.382356	-0.325372
O18	O	1.711896	0.117644	0.174628
O19	O	1.101155	-0.181768	-0.407392
O20	O	1.601155	0.318232	0.092608
O21	O	1.005849	-0.295910	-0.202446
O22	O	1.505849	0.204090	0.297554
O23	O	0.886573	-0.295866	-0.321741
O24	O	1.386573	0.204134	0.178259
O25	O	1.002247	-0.382279	-0.535056
O26	O	1.502247	0.117721	-0.035056
O27	O	0.882913	-0.382295	-0.415742
O28	O	1.382913	0.117705	0.084258
O29	O	1.096325	-0.295838	-0.531456
O30	O	1.596325	0.204162	-0.031456
O31	O	1.087732	-0.496443	-0.330122
O32	O	1.587732	0.003557	0.169878
O33	O	0.997358	-0.496409	-0.420511
O34	O	1.497358	0.003591	0.079489
C35	C	0.858040	-0.339078	-0.368740
C36	C	1.358040	0.160922	0.131260
C37	C	0.776241	-0.339086	-0.368752
C38	C	1.276241	0.160914	0.131248
C39	C	0.589971	-0.294151	-0.414022
C40	C	1.089971	0.205849	0.085978
C41	C	0.513112	-0.294157	-0.414024
C42	C	1.013112	0.205843	0.085976
C43	C	0.509272	-0.384068	-0.323500
C44	C	1.009272	0.115932	0.176500
C45	C	0.586129	-0.384058	-0.323494
C46	C	1.086129	0.115942	0.176506
C47	C	0.626477	-0.339101	-0.368759
C48	C	1.126477	0.160899	0.131241
C49	C	0.472760	-0.339117	-0.368768
C50	C	0.972760	0.160883	0.131232
C51	C	0.389426	-0.339124	-0.368770
C52	C	0.889426	0.160876	0.131230
C53	C	0.709816	-0.339093	-0.368756
C54	C	1.209816	0.160907	0.131244
C55	C	1.041478	-0.521964	-0.376398
C56	C	1.541478	-0.021964	0.123602
C57	C	1.038222	-0.600193	-0.379692
C58	C	1.538222	-0.100193	0.120308
C59	C	1.083781	-0.636940	-0.334219
C60	C	1.583781	-0.136940	0.165781
C61	C	1.080723	-0.710445	-0.337322
C62	C	1.580723	-0.210445	0.162678
C63	C	1.032101	-0.747203	-0.385895
C64	C	1.532101	-0.247203	0.114105
C65	C	0.986540	-0.710451	-0.431374
C66	C	1.486540	-0.210451	0.068626
C67	C	0.989602	-0.636947	-0.428274
C68	C	1.489602	-0.136947	0.071726
C69	C	1.017897	-0.967037	-0.400212
C70	C	1.517897	-0.467037	0.099788
C71	C	1.014837	-1.040546	-0.403307
C72	C	1.514837	-0.540546	0.096693
C73	C	1.109021	-1.040535	-0.309256
C74	C	1.609021	-0.540535	0.190744
C75	C	1.112076	-0.967030	-0.306157
C76	C	1.612076	-0.467030	0.193843
C77	C	1.066517	-0.930284	-0.351638
C78	C	1.566517	-0.430284	0.148362
N79	N	1.028973	-0.822337	-0.389067
N80	N	1.528973	-0.322337	0.110933
N81	N	1.069650	-0.855151	-0.348470
N82	N	1.569650	-0.355151	0.151530
C83	C	1.241198	-0.339122	-0.368768
C84	C	1.741198	0.160878	0.131232
C85	C	1.322996	-0.339132	-0.368774
C86	C	1.822996	0.160868	0.131226
C87	C	1.049293	-0.339051	-0.560705
C88	C	1.549293	0.160949	-0.060705
C89	C	1.049313	-0.339031	-0.642503
C90	C	1.549313	0.160969	-0.142503
C91	C	1.057064	-0.155522	-0.361096
C92	C	1.557064	0.344478	0.138904
C93	C	1.060396	-0.077292	-0.357833
C94	C	1.560396	0.422708	0.142167
C95	C	1.098317	-0.293978	-0.828822
C96	C	1.598317	0.206022	-0.328822
C97	C	1.098327	-0.293958	-0.905680
C98	C	1.598327	0.206042	-0.405680
C99	C	1.000364	-0.383974	-0.909417
C100	C	1.500364	0.116026	-0.409417
C101	C	1.000352	-0.383990	-0.832560
C102	C	1.500352	0.116010	-0.332560
C103	C	1.049332	-0.338994	-0.792265
C104	C	1.549332	0.161006	-0.292265
C105	C	1.049355	-0.338957	-0.945980
C106	C	1.549355	0.161043	-0.445980
C107	C	1.049365	-0.338935	-1.029312
C108	C	1.549365	0.161065	-0.529312
C109	C	1.049322	-0.339014	-0.708927
C110	C	1.549322	0.160986	-0.208927
C111	C	1.049244	-0.339097	-0.177548
C112	C	1.549244	0.160903	0.322452
C113	C	1.049374	-0.338920	-0.095742
C114	C	1.549374	0.161080	0.404258
H115	H	0.615853	-0.420662	-0.286632
H116	H	1.115853	0.079338	0.213368
O117	O	0.633489	-0.245652	-0.462830
O118	O	1.133489	0.254348	0.037170
H119	H	0.618242	-0.257784	-0.521078
H120	H	1.118242	0.242216	-0.021078
O121	O	0.473741	-0.245675	-0.462847
O122	O	0.973741	0.254325	0.037153
H123	H	0.440238	-0.209825	-0.428471
H124	H	0.940238	0.290175	0.071529
O125	O	0.465750	-0.432560	-0.274686
O126	O	0.965750	0.067440	0.225314
H127	H	0.480989	-0.420412	-0.216439
H128	H	0.980989	0.079588	0.283561
H129	H	0.975252	-1.070471	-0.442874
H130	H	1.475252	-0.570471	0.057126
H131	H	0.960457	-0.420647	-0.802795
H132	H	1.460457	0.079353	-0.302795
H133	H	0.960488	-0.420610	-0.942235
H134	H	1.460488	0.079390	-0.442235
O135	O	1.136227	-0.597295	-0.281832
O136	O	1.636227	-0.097295	0.218168
H137	H	1.167399	-0.635199	-0.250739
H138	H	1.667399	-0.135199	0.249261
H139	H	1.151667	-0.937103	-0.266605
H140	H	1.651667	-0.437103	0.233395
O141	O	1.129857	-0.750082	-0.288272
O142	O	1.629857	-0.250082	0.211728
H143	H	1.164173	-0.712173	-0.253967
H144	H	1.664173	-0.212173	0.246033
O145	O	1.158179	-1.080165	-0.260223
O146	O	1.658179	-0.580165	0.239777
H147	H	1.147894	-1.137452	-0.270547
H148	H	1.647894	-0.637452	0.229453
H149	H	0.980800	-0.937124	-0.437243
H150	H	1.480800	-0.437124	0.062757
O151	O	0.934088	-0.750091	-0.483757
O152	O	1.434088	-0.250091	0.016243
H153	H	0.939602	-0.807377	-0.478266
H154	H	1.439602	-0.307377	0.021734
H155	H	1.138199	-0.257337	-0.796016
H156	H	1.638199	0.242663	-0.296016
O157	O	0.940455	-0.597307	-0.477311
O158	O	1.440455	-0.097307	0.022689
H159	H	0.906124	-0.635214	-0.511601
H160	H	1.406124	-0.135214	-0.011601
H161	H	1.138214	-0.257301	-0.935441
H162	H	1.638214	0.242699	-0.435441
