data_functionalizedCrystal
_audit_creation_method	'MofGen! by Chris Wilmer'
_symmetry_space_group_name_H-M	'P1'
_symmetry_Int_Tables_number	1
_symmetry_cell_setting	triclinic
loop_
_symmetry_equiv_pos_as_xyz
  x,y,z
_cell_length_a	23.096457
_cell_length_b	16.704494
_cell_length_c	16.704494
_cell_angle_alpha	60.174809
_cell_angle_beta	89.998889
_cell_angle_gamma	63.426309
loop_
_atom_site_label
_atom_site_type_symbol
_atom_site_fract_x
_atom_site_fract_y
_atom_site_fract_z
Zr1	Zr	0.595134	0.863911	-0.142488
O2	O	0.513214	1.018036	-0.271916
O3	O	0.615747	0.701128	-0.097156
O4	O	0.627513	0.851427	-0.263768
O5	O	0.497286	0.880603	0.019689
O6	O	0.722794	0.851429	-0.263772
O7	O	0.501448	0.867737	-0.105305
O8	O	0.701747	0.582571	0.034265
O9	O	0.518333	1.149462	-0.278349
O10	O	0.701082	0.771291	-0.084658
O11	O	0.626869	0.780892	0.008627
O12	O	0.640722	0.957851	-0.187537
O13	O	0.566509	0.967452	-0.094252
Zr14	Zr	0.740458	0.884435	0.056855
Zr15	Zr	0.747096	0.863914	-0.142495
Zr16	Zr	0.588496	0.884432	0.056863
Zr17	Zr	0.603299	1.073520	-0.152747
Zr18	Zr	0.732294	0.674826	0.067114
O19	O	0.719845	1.047219	0.011524
O20	O	0.729283	1.018040	-0.271927
O21	O	0.503775	1.047215	0.011534
O22	O	0.822379	0.730310	0.186284
O23	O	0.831817	0.701132	-0.097167
O24	O	0.606309	0.730306	0.186294
O25	O	0.838307	0.867743	-0.105321
O26	O	0.708079	0.896919	0.178135
O27	O	0.612799	0.896917	0.178140
O28	O	0.834145	0.880610	0.019672
O29	O	0.639122	1.149464	-0.278355
O30	O	0.696470	0.598882	0.192722
O31	O	0.817260	0.598884	0.192716
O32	O	0.822536	0.582573	0.034259
O33	O	0.513057	1.165774	-0.119892
O34	O	0.633846	1.165776	-0.119898
O35	O	0.694870	0.790496	0.101904
O36	O	0.769083	0.780895	0.008620
O37	O	0.708723	0.967454	-0.094259
O38	O	0.634510	0.977055	-0.000974
C39	C	0.657584	0.611984	-0.029984
C40	C	0.654118	0.523000	-0.025628
C41	C	0.477715	0.874170	-0.042807
C42	C	0.413204	0.874169	-0.042804
C43	C	0.725099	0.345750	-0.114828
C44	C	0.721845	0.262140	-0.110738
C45	C	0.644358	0.272166	-0.013354
C46	C	0.647613	0.355775	-0.017444
C47	C	0.687984	0.392565	-0.068184
C48	C	0.691234	0.476181	-0.072279
C49	C	0.613752	0.486199	0.025111
C50	C	0.610497	0.402590	0.029200
C51	C	0.414406	0.776789	0.010889
C52	C	0.353790	0.776787	0.010893
C53	C	0.291974	0.874170	-0.042814
C54	C	0.290775	0.971563	-0.096510
C55	C	0.351390	0.971563	-0.096504
N56	N	0.174785	0.942231	-0.125794
N57	N	0.117206	0.942225	-0.125796
C58	C	0.109342	0.874179	-0.042831
N59	N	0.161238	0.806121	0.040137
N60	N	0.218824	0.806124	0.040138
C61	C	0.226243	0.874182	-0.042825
C62	C	0.044820	0.776791	0.010871
C63	C	-0.015799	0.776794	0.010877
C64	C	-0.078814	0.971572	-0.096534
C65	C	-0.018196	0.971567	-0.096532
C66	C	0.043618	0.874173	-0.042831
C67	C	0.857877	0.874177	-0.042826
C68	C	0.922389	0.874178	-0.042829
C69	C	0.676099	0.848505	-0.292173
C70	C	0.678917	0.839793	-0.376803
C71	C	0.678009	1.136362	-0.055649
C72	C	0.681475	1.225346	-0.060004
C73	C	0.621202	1.018208	-0.643247
C74	C	0.623848	1.010028	-0.722767
C75	C	0.686860	0.815253	-0.615364
C76	C	0.684214	0.823433	-0.535844
C77	C	0.651383	0.924914	-0.549791
C78	C	0.648733	0.933094	-0.470269
C79	C	0.711748	0.738320	-0.362868
C80	C	0.714394	0.730139	-0.442388
C81	C	0.659493	0.899842	0.206541
C82	C	0.656675	0.908554	0.291170
C83	C	0.847665	0.611988	-0.029993
C84	C	0.908710	0.523005	-0.025641
C85	C	0.649281	0.637653	0.219373
C86	C	0.642997	0.557380	0.308358
C87	C	0.839361	0.637656	0.219364
C88	C	0.897589	0.557385	0.308345
C89	C	0.496231	1.110690	-0.304996
C90	C	0.438003	1.190961	-0.393978
C91	C	0.487928	1.136359	-0.055640
C92	C	0.426882	1.225342	-0.059992
C93	C	0.686312	1.110693	-0.305006
C94	C	0.692596	1.190966	-0.393991
C95	C	0.901882	0.476203	-0.072296
C96	C	0.959237	0.392604	-0.068225
C97	C	1.023417	0.355802	-0.017495
C98	C	1.030244	0.402612	0.029161
C99	C	0.972891	0.486215	0.025085
C100	C	0.675541	0.524697	0.398845
C101	C	0.669634	0.449285	0.482462
C102	C	0.631186	0.406551	0.475591
C103	C	0.598638	0.439242	0.385095
C104	C	0.604541	0.514658	0.301479
C105	C	0.963678	0.514677	0.301438
C106	C	1.018396	0.439264	0.385038
C107	C	1.007023	0.406555	0.475544
C108	C	0.940927	0.449271	0.482448
C109	C	0.886211	0.524688	0.398850
C110	C	0.371915	1.233680	-0.387071
C111	C	0.317198	1.309118	-0.470672
C112	C	0.328571	1.341832	-0.561178
C113	C	0.394667	1.299110	-0.568083
C114	C	0.449382	1.223679	-0.484483
C115	C	0.433711	1.272151	-0.013346
C116	C	0.376358	1.355771	-0.017439
C117	C	0.312177	1.392576	-0.068173
C118	C	0.305351	1.345763	-0.114825
C119	C	0.362703	1.262149	-0.110737
C120	C	0.731049	1.233676	-0.387089
C121	C	0.736966	1.309091	-0.470691
C122	C	0.704427	1.341799	-0.561195
C123	C	0.665972	1.299081	-0.568094
C124	C	0.660059	1.223662	-0.484493
H125	H	0.724105	0.506137	-0.113596
H126	H	0.357133	1.224039	-0.148719
H127	H	1.072209	0.404491	0.379399
H128	H	0.578041	0.541258	0.227805
C129	C	0.268382	1.424800	-0.653132
H130	H	0.284617	1.438175	-0.708028
H131	H	0.239894	1.397391	-0.651784
H132	H	0.243508	1.490032	-0.656317
H133	H	0.403920	1.325756	-0.641783
C134	C	0.831291	0.516675	-0.128109
H135	H	0.835450	0.476828	-0.155317
H136	H	0.804165	0.507296	-0.085415
H137	H	0.810716	0.590873	-0.178051
H138	H	0.978459	0.524311	0.063083
C139	C	0.630134	1.335133	-0.667652
H140	H	0.606373	1.298914	-0.659800
H141	H	0.599198	1.410670	-0.704499
H142	H	0.662713	1.318060	-0.700075
H143	H	0.706849	0.559483	0.404457
H144	H	0.095151	0.697489	0.054617
C145	C	0.585092	1.129829	-0.658581
H146	H	0.567499	1.184221	-0.725631
H147	H	0.549169	1.137072	-0.629790
H148	H	0.616339	1.137062	-0.629794
H149	H	0.362641	1.207049	-0.313384
H150	H	0.263385	1.343890	-0.465031
C151	C	0.504302	1.231681	0.042466
H152	H	0.500145	1.271550	0.069648
H153	H	0.524881	1.157490	0.092410
H154	H	0.531425	1.241060	-0.000239
H155	H	0.354769	0.697486	0.054617
C156	C	1.067214	0.323588	0.567494
H157	H	1.108201	0.302834	0.550410
H158	H	1.067097	0.354684	0.602134
H159	H	1.063484	0.262046	0.606657
H160	H	0.503194	1.188897	-0.490118
H161	H	0.752069	0.224024	-0.148719
C162	C	0.566090	0.362121	0.085005
H163	H	0.569463	0.305626	0.080755
H164	H	0.581007	0.336102	0.150661
H165	H	0.520393	0.419675	0.058007
H166	H	0.381930	1.393874	0.020555
H167	H	0.696142	0.422678	0.556140
H168	H	0.931676	0.422628	0.556149
H169	H	0.253087	1.375742	-0.156131
H170	H	0.832399	0.559452	0.404487
H171	H	0.350406	1.050864	-0.140225
H172	H	0.265483	1.460660	-0.071494
C173	C	0.766849	1.197707	-0.287546
H174	H	0.790602	1.233944	-0.295422
H175	H	0.734249	1.214813	-0.255167
H176	H	0.797800	1.122167	-0.250643
H177	H	0.768278	1.343865	-0.465055
H178	H	0.709247	1.403211	-0.629261
C179	C	-0.146804	1.078692	-0.155608
H180	H	-0.182733	1.064747	-0.147925
H181	H	-0.151283	1.123239	-0.133619
H182	H	-0.148347	1.114170	-0.221731
H183	H	0.611498	0.242185	0.027968
C184	C	1.100844	0.362113	0.084970
H185	H	1.134017	0.305611	0.080720
H186	H	1.109313	0.419645	0.058001
H187	H	1.102759	0.336071	0.150634
H188	H	0.240440	1.050853	-0.140237
H189	H	0.741127	0.647517	-0.431046
H190	H	0.628744	1.188896	-0.490126
H191	H	-0.019177	1.050863	-0.140261
H192	H	0.953665	0.354501	-0.106219
C193	C	0.624702	0.323588	0.567574
H194	H	0.649599	0.310241	0.622446
H195	H	0.578483	0.350983	0.566253
H196	H	0.642042	0.258344	0.570780
C197	C	0.769505	0.386220	-0.170636
H198	H	0.791147	0.346360	-0.197827
H199	H	0.742078	0.460413	-0.220574
H200	H	0.802698	0.376832	-0.127926
C201	C	0.556351	0.392227	0.377545
H202	H	0.537807	0.422492	0.311679
H203	H	0.584355	0.316276	0.410414
H204	H	0.520794	0.408923	0.405873
H205	H	0.972951	0.541297	0.227752
H206	H	0.713597	0.732632	-0.604026
H207	H	1.070112	0.287725	-0.014182
H208	H	0.583527	0.524329	0.063088
H209	H	0.464734	0.697482	0.054610
H210	H	0.736320	0.662353	-0.286763
H211	H	0.621997	1.015725	-0.481628
C212	C	-0.014479	0.669674	0.069948
H213	H	-0.059432	0.683622	0.062266
H214	H	0.009867	0.625124	0.047961
H215	H	0.006934	0.634197	0.136071
C216	C	0.590648	1.112647	-0.825568
H217	H	0.596928	1.093244	-0.870932
H218	H	0.543687	1.154006	-0.834601
H219	H	0.610856	1.153997	-0.834599
