data_functionalizedCrystal
_audit_creation_method	'MofGen! by Chris Wilmer'
_symmetry_space_group_name_H-M	'P1'
_symmetry_Int_Tables_number	1
_symmetry_cell_setting	triclinic
loop_
_symmetry_equiv_pos_as_xyz
  x,y,z
_cell_length_a	6.817900
_cell_length_b	10.943574
_cell_length_c	10.943881
_cell_angle_alpha	91.770401
_cell_angle_beta	108.843448
_cell_angle_gamma	108.837846
loop_
_atom_site_label
_atom_site_type_symbol
_atom_site_fract_x
_atom_site_fract_y
_atom_site_fract_z
V1	V	-4.115545	-0.178594	-0.402525
O2	O	-4.073257	0.008620	-0.394891
O3	O	-4.093492	-0.354157	-0.399745
O4	O	-4.093531	-0.175830	-0.578092
O5	O	-4.073217	-0.170942	-0.215308
V6	V	-4.592340	-0.156203	-0.380136
O7	O	-4.391562	-0.227710	-0.451638
O8	O	-4.766521	-0.107086	-0.331023
O9	O	-4.391187	0.019361	-0.382916
O10	O	-4.752026	-0.343416	-0.387770
O11	O	-4.752065	-0.163854	-0.567352
O12	O	-4.391148	-0.158966	-0.204568
C13	C	-3.944048	-0.396957	-0.393388
C14	C	-4.007480	-0.540482	-0.392285
C15	C	-3.944097	-0.169480	-0.620886
C16	C	-4.007556	-0.168382	-0.764413
C17	C	-4.236999	-0.174463	-0.855295
C18	C	-4.123546	-0.063483	-0.921049
C19	C	-4.234020	-0.277327	-0.954386
C20	C	-3.893221	-0.057330	-0.828263
C21	C	-4.003769	-0.271270	-0.861608
C22	C	-3.890145	-0.160260	-0.927314
C23	C	-3.890309	-0.703486	-0.384277
C24	C	-4.003701	-0.637677	-0.495235
C25	C	-3.893221	-0.604391	-0.281390
C26	C	-4.234057	-0.730417	-0.501413
C27	C	-4.123503	-0.697122	-0.287470
C28	C	-4.237066	-0.631361	-0.398459
C29	C	-4.203973	0.062154	-0.389269
C30	C	-4.119782	0.205678	-0.390381
C31	C	-4.203924	-0.165320	-0.161768
C32	C	-4.119702	-0.166411	-0.018239
H33	H	-4.174777	0.024380	-0.947595
H34	H	-4.382908	-0.180342	-0.823426
H35	H	-3.748615	0.035727	-0.773676
H36	H	-4.383257	-0.599715	-0.404498
H37	H	-3.952470	-0.611138	-0.583094
H38	H	-3.743912	-0.154213	-0.958914
C39	C	-3.934646	-0.389973	-0.825698
H40	H	-4.055396	-0.468057	-0.869340
H41	H	-3.812673	-0.385749	-0.851605
H42	H	-3.893276	-0.389362	-0.733985
H43	H	-4.378652	-0.784964	-0.594492
C44	C	-4.192643	-0.733033	-0.168781
H45	H	-4.071881	-0.689425	-0.090688
H46	H	-4.314581	-0.707088	-0.173000
H47	H	-4.234071	-0.824751	-0.169415
C48	C	-4.429503	-0.402907	-1.028321
H49	H	-4.553068	-0.407777	-1.003796
H50	H	-4.467832	-0.401675	-1.119676
H51	H	-4.388217	-0.476748	-1.007078
H52	H	-3.744437	-0.735397	-0.378405
C53	C	-3.697720	-0.530515	-0.155792
H54	H	-3.574190	-0.555080	-0.150928
H55	H	-3.659329	-0.439154	-0.156995
H56	H	-3.739022	-0.551764	-0.081962
