data_functionalizedCrystal
_audit_creation_method	'MofGen! by Chris Wilmer'
_symmetry_space_group_name_H-M	'P1'
_symmetry_Int_Tables_number	1
_symmetry_cell_setting	triclinic
loop_
_symmetry_equiv_pos_as_xyz
  x,y,z
_cell_length_a	14.519731
_cell_length_b	9.616153
_cell_length_c	14.519709
_cell_angle_alpha	90.003203
_cell_angle_beta	83.684499
_cell_angle_gamma	90.006961
loop_
_atom_site_label
_atom_site_type_symbol
_atom_site_fract_x
_atom_site_fract_y
_atom_site_fract_z
O1	O	1.223859	0.115652	0.120981
O2	O	1.723859	0.615652	0.620981
O3	O	0.955385	0.115654	0.135197
O4	O	1.455385	0.615654	0.635197
O5	O	1.096740	0.115640	-0.006149
O6	O	1.596740	0.615640	0.493851
O7	O	1.082504	0.115665	0.262327
O8	O	1.582504	0.615665	0.762327
O9	O	1.096721	-0.115651	-0.006146
O10	O	1.596721	0.384349	0.493854
O11	O	0.955365	-0.115637	0.135200
O12	O	1.455365	0.384363	0.635200
O13	O	1.223840	-0.115640	0.120984
O14	O	1.723840	0.384360	0.620984
Zn15	Zn	1.089599	-0.152361	0.128093
Zn16	Zn	1.589599	0.347639	0.628093
Zn17	Zn	1.089625	0.152375	0.128089
Zn18	Zn	1.589625	0.652375	0.628089
O19	O	1.082484	-0.115626	0.262330
O20	O	1.582484	0.384374	0.762330
C21	C	0.921016	0.000009	0.134532
C22	C	1.421016	0.500009	0.634532
C23	C	0.818635	0.000009	0.132536
C24	C	1.318635	0.500009	0.632536
N25	N	1.089589	-0.360336	0.128095
N26	N	1.589589	0.139664	0.628095
C27	C	0.735491	0.000015	0.130915
C28	C	1.235491	0.500015	0.630915
C29	C	0.631182	0.000015	0.128888
C30	C	1.131182	0.500015	0.628888
C31	C	0.548043	0.000015	0.127280
C32	C	1.048043	0.500015	0.627280
C33	C	0.443728	0.000018	0.125253
C34	C	0.943728	0.500018	0.625253
C35	C	1.013746	-0.580698	0.203455
C36	C	1.513746	-0.080698	0.703455
C37	C	1.013909	-0.419531	0.203734
C38	C	1.513909	0.080469	0.703734
C39	C	1.185852	-0.418783	0.149280
C40	C	1.685852	0.081217	0.649280
C41	C	1.185438	-0.580001	0.149812
C42	C	1.685438	-0.080001	0.649812
C43	C	1.070131	-0.580256	0.031297
C44	C	1.570131	-0.080256	0.531297
C45	C	1.067913	-0.419029	0.031942
C46	C	1.567913	0.080971	0.531942
C47	C	1.258209	0.000009	0.121649
C48	C	1.758209	0.500009	0.621649
C49	C	1.360589	0.000017	0.123645
C50	C	1.860589	0.500017	0.623645
C51	C	1.096067	-0.000006	-0.040507
C52	C	1.596067	0.499994	0.459493
C53	C	1.094079	-0.000006	-0.142889
C54	C	1.594079	0.499994	0.357111
N55	N	1.089643	0.360350	0.128079
N56	N	1.589643	0.860350	0.628079
C57	C	1.086759	0.000030	-0.517785
C58	C	1.586759	0.500030	-0.017785
C59	C	1.088792	0.000019	-0.413477
C60	C	1.588792	0.500019	0.086523
C61	C	1.090419	0.000010	-0.330340
C62	C	1.590419	0.500010	0.169660
C63	C	1.092452	0.000003	-0.226025
C64	C	1.592452	0.500003	0.273975
C65	C	1.083157	0.000023	0.296688
C66	C	1.583157	0.500023	0.796688
C67	C	1.085146	0.000033	0.399070
C68	C	1.585146	0.500033	0.899070
H69	H	0.942361	-0.380016	0.191088
H70	H	1.442361	0.119984	0.691088
O71	O	1.028290	-0.629153	0.288651
O72	O	1.528290	-0.129153	0.788651
C73	C	0.966734	-0.759975	0.423063
C74	C	1.466734	-0.259975	0.923063
C75	C	0.950146	-0.705211	0.326587
C76	C	1.450146	-0.205211	0.826587
H77	H	0.903559	-0.821455	0.453772
H78	H	1.403559	-0.321455	0.953772
H79	H	1.030280	-0.830388	0.416564
H80	H	1.530280	-0.330388	0.916564
H81	H	0.978624	-0.668525	0.470308
H82	H	1.478624	-0.168525	0.970308
H83	H	0.938215	-0.796574	0.279291
H84	H	1.438215	-0.296574	0.779291
H85	H	0.886621	-0.634757	0.333158
H86	H	1.386621	-0.134757	0.833158
H87	H	1.202607	-0.617583	0.220400
H88	H	1.702607	-0.117583	0.720400
H89	H	0.941971	-0.619510	0.191012
H90	H	1.441971	-0.119510	0.691012
O91	O	1.129569	-0.371213	-0.038195
O92	O	1.629569	0.128787	0.461805
C93	C	1.246419	-0.430116	-0.162992
C94	C	1.746419	0.069884	0.337008
C95	C	1.176607	-0.484453	-0.083609
C96	C	1.676607	0.015547	0.416391
H97	H	1.284482	-0.521641	-0.199719
H98	H	1.784482	-0.021641	0.300281
H99	H	1.207956	-0.369782	-0.214493
H100	H	1.707956	0.130218	0.285507
H101	H	1.298551	-0.358675	-0.133485
H102	H	1.798551	0.141325	0.366515
H103	H	1.124458	-0.555948	-0.113032
H104	H	1.624458	-0.055948	0.386968
H105	H	1.215133	-0.544707	-0.032120
H106	H	1.715133	-0.044707	0.467880
O107	O	1.028842	-0.373720	0.289450
O108	O	1.528842	0.126280	0.789450
C109	C	1.055697	-0.436519	0.444922
C110	C	1.555697	0.063481	0.944922
C111	C	1.038808	-0.488587	0.347884
C112	C	1.538808	0.011413	0.847884
H113	H	1.063740	-0.529361	0.492199
H114	H	1.563740	-0.029361	0.992199
H115	H	1.121494	-0.370960	0.439577
H116	H	1.621494	0.129040	0.939577
H117	H	0.994289	-0.370669	0.474848
H118	H	1.494289	0.129331	0.974848
H119	H	1.100161	-0.554492	0.317902
H120	H	1.600161	-0.054492	0.817902
H121	H	0.972977	-0.554070	0.353289
H122	H	1.472977	-0.054070	0.853289
H123	H	1.125477	-0.618377	-0.024797
H124	H	1.625477	-0.118377	0.475203
H125	H	1.243679	-0.380436	0.095849
H126	H	1.743679	0.119564	0.595849
O127	O	1.254781	-0.626767	0.086837
O128	O	1.754781	-0.126767	0.586837
C129	C	1.333775	-0.826157	0.015389
C130	C	1.833775	-0.326157	0.515389
C131	C	1.255193	-0.773393	0.086715
C132	C	1.755193	-0.273393	0.586715
H133	H	1.334146	-0.944708	0.015281
H134	H	1.834146	-0.444708	0.515281
H135	H	1.322339	-0.786622	-0.056495
H136	H	1.822339	-0.286622	0.443505
H137	H	1.403065	-0.786187	0.034627
H138	H	1.903065	-0.286187	0.534627
H139	H	1.185869	-0.813342	0.067564
H140	H	1.685869	-0.313342	0.567564
H141	H	1.266710	-0.812915	0.158580
H142	H	1.766710	-0.312915	0.658580
O143	O	1.206978	-0.370682	0.232497
O144	O	1.706978	0.129318	0.732497
C145	C	1.317383	-0.369651	0.344852
C146	C	1.817383	0.130349	0.844852
C147	C	1.293590	-0.424195	0.250581
C148	C	1.793590	0.075805	0.750581
H149	H	1.387399	-0.412916	0.359512
H150	H	1.887399	0.087084	0.859512
H151	H	1.320595	-0.251210	0.343189
H152	H	1.820595	0.248790	0.843189
H153	H	1.261725	-0.404522	0.401681
H154	H	1.761725	0.095478	0.901681
H155	H	1.349221	-0.389425	0.193701
H156	H	1.849221	0.110575	0.693701
H157	H	1.290345	-0.542631	0.252323
H158	H	1.790345	-0.042631	0.752323
O159	O	0.988146	-0.628569	0.007008
O160	O	1.488146	-0.128569	0.507008
C161	C	0.835648	-0.570602	-0.031828
C162	C	1.335648	-0.070602	0.468172
C163	C	0.928461	-0.515697	-0.004360
C164	C	1.428461	-0.015697	0.495640
H165	H	0.787361	-0.479374	-0.041008
H166	H	1.287361	0.020626	0.458992
H167	H	0.848418	-0.630806	-0.099672
H168	H	1.348418	-0.130806	0.400328
H169	H	0.802432	-0.642295	0.024932
H170	H	1.302432	-0.142295	0.524932
H171	H	0.961727	-0.443949	-0.061058
H172	H	1.461727	0.056051	0.438942
H173	H	0.915632	-0.455573	0.063510
H174	H	1.415632	0.044427	0.563510
H175	H	0.997100	-0.380830	0.015868
H176	H	1.497100	0.119170	0.515868
