data_functionalizedCrystal
_audit_creation_method	'MofGen! by Chris Wilmer'
_symmetry_space_group_name_H-M	'P1'
_symmetry_Int_Tables_number	1
_symmetry_cell_setting	triclinic
loop_
_symmetry_equiv_pos_as_xyz
  x,y,z
_cell_length_a	12.759395
_cell_length_b	17.640280
_cell_length_c	12.759387
_cell_angle_alpha	78.768503
_cell_angle_beta	89.979491
_cell_angle_gamma	78.802277
loop_
_atom_site_label
_atom_site_type_symbol
_atom_site_fract_x
_atom_site_fract_y
_atom_site_fract_z
Zn1	Zn	1.690820	-0.314594	-0.509546
Zn2	Zn	1.726239	-0.446788	-0.298376
Zn3	Zn	1.515129	-0.314637	-0.333871
Zn4	Zn	1.550624	-0.446732	-0.474030
O5	O	1.620703	-0.380688	-0.403956
O6	O	1.842541	-0.332135	-0.481542
O7	O	1.698204	-0.429300	-0.156052
O8	O	1.508757	-0.204025	-0.386893
O9	O	1.868563	-0.429258	-0.326397
O10	O	1.637836	-0.203994	-0.515961
O11	O	1.543102	-0.332209	-0.182130
O12	O	1.372815	-0.332154	-0.352455
O13	O	1.569253	-0.429162	-0.625774
O14	O	1.398893	-0.429204	-0.455429
O15	O	1.672254	-0.332081	-0.651867
O16	O	1.732621	-0.557387	-0.291959
O17	O	1.603597	-0.557346	-0.421011
C18	C	1.347733	-0.380678	-0.403940
C19	C	1.230960	-0.380693	-0.403954
C20	C	1.258197	-0.481915	-0.510919
C21	C	1.216957	-0.532532	-0.564404
C22	C	1.107238	-0.532541	-0.564414
C23	C	1.038755	-0.481927	-0.510937
C24	C	1.079995	-0.431310	-0.457453
C25	C	1.189719	-0.431307	-0.457446
C26	C	1.052757	-0.330086	-0.350495
C27	C	1.162477	-0.330079	-0.350477
C28	C	0.984275	-0.279471	-0.297017
C29	C	1.025516	-0.228857	-0.243526
C30	C	1.135242	-0.228850	-0.243516
C31	C	1.203718	-0.279462	-0.296992
C32	C	1.675833	-0.586045	-0.348802
C33	C	1.699514	-0.673898	-0.325242
C34	C	1.441233	-0.962865	-0.583319
C35	C	1.463487	-1.045416	-0.561148
C36	C	1.597922	-1.045394	-0.426902
C37	C	1.575683	-0.962841	-0.449066
C38	C	1.497337	-0.921583	-0.527275
C39	C	1.631787	-0.921559	-0.393021
C40	C	1.609546	-0.839013	-0.415179
C41	C	1.531201	-0.797750	-0.493383
C42	C	1.475095	-0.839038	-0.549433
C43	C	1.710128	-0.962818	-0.314807
C44	C	1.766232	-0.921536	-0.258762
C45	C	1.743997	-0.838989	-0.280925
C46	C	1.665651	-0.797726	-0.359129
C47	C	1.800102	-0.797702	-0.224875
C48	C	1.777861	-0.715156	-0.247033
C49	C	1.643410	-0.715180	-0.381287
C50	C	1.894739	-0.380698	-0.403972
C51	C	2.011517	-0.380703	-0.403979
C52	C	1.620761	-0.380610	-0.678010
C53	C	1.620786	-0.380577	-0.794796
C54	C	1.565386	-0.174529	-0.459348
C55	C	1.541814	-0.086676	-0.482953
C56	C	1.728052	-0.279493	-0.821985
C57	C	1.781697	-0.228939	-0.890443
C58	C	1.781715	-0.228910	-1.000173
C59	C	1.728080	-0.279439	-1.041445
C60	C	1.674435	-0.329993	-0.972987
C61	C	1.674426	-0.330018	-0.863256
C62	C	1.567164	-0.431072	-0.945799
C63	C	1.567151	-0.431106	-0.836068
C64	C	1.513529	-0.481601	-0.987072
C65	C	1.459890	-0.532160	-0.918612
C66	C	1.459875	-0.532188	-0.808876
C67	C	1.513507	-0.481660	-0.767610
C68	C	1.620690	-0.380708	-0.130983
C69	C	1.620809	-0.380518	-0.014258
H70	H	0.949415	-0.481932	-0.510961
H71	H	1.168811	-0.187626	-0.199972
H72	H	0.894936	-0.279479	-0.297035
C73	C	1.824360	-0.946983	-0.074071
C74	C	1.852347	-0.966885	-0.172791
H75	H	1.877524	-0.974981	-0.020996
H76	H	1.819146	-0.891919	-0.079262
H77	H	1.757436	-0.960566	-0.054996
H78	H	1.919268	-0.953298	-0.191870
H79	H	1.857575	-1.021961	-0.167602
C80	C	1.472628	-0.679558	-0.425147
C81	C	1.506750	-0.707014	-0.517744
H82	H	1.457541	-0.623541	-0.440188
H83	H	1.409890	-0.698278	-0.401903
H84	H	1.527324	-0.698225	-0.370556
H85	H	1.452051	-0.688351	-0.572332
H86	H	1.569496	-0.688286	-0.541002
C87	C	1.774973	-0.354731	-0.644595
C88	C	1.728036	-0.279528	-0.701368
H89	H	1.774966	-0.354748	-0.570132
H90	H	1.735352	-0.392046	-0.659380
H91	H	1.846442	-0.368393	-0.665760
H92	H	1.656564	-0.265868	-0.680208
H93	H	1.767656	-0.242200	-0.686575
C94	C	0.845228	-0.183923	-0.196055
C95	C	0.950241	-0.173229	-0.184746
H96	H	0.798757	-0.149584	-0.159758
H97	H	0.824203	-0.172419	-0.269756
H98	H	0.841505	-0.237019	-0.166303
H99	H	0.953966	-0.120134	-0.214505
H100	H	0.971272	-0.184728	-0.111030
H101	H	1.377442	-0.929271	-0.647013
C102	C	1.949282	-0.190467	-0.867039
C103	C	1.840656	-0.173399	-0.845081
H104	H	1.985677	-0.156174	-0.839043
H105	H	1.978888	-0.243572	-0.834781
H106	H	1.956950	-0.183216	-0.942190
H107	H	1.832988	-0.180656	-0.769929
H108	H	1.811042	-0.120281	-0.877336
C109	C	1.894151	-0.622242	-0.257510
C110	C	1.839530	-0.669773	-0.185431
H111	H	1.932216	-0.594221	-0.219474
H112	H	1.942978	-0.654400	-0.294678
H113	H	1.844297	-0.585859	-0.307252
H114	H	1.889385	-0.706159	-0.135694
H115	H	1.790699	-0.637612	-0.148246
H116	H	1.661709	-1.078997	-0.363221
H117	H	1.728088	-0.279405	-1.130796
H118	H	1.293059	-0.279463	-0.296986
C119	C	1.768732	-1.081003	-0.383047
C120	C	1.734593	-1.053555	-0.290450
H121	H	1.783844	-1.137020	-0.368006
H122	H	1.714047	-1.062347	-0.437634
H123	H	1.831472	-1.062268	-0.406286
H124	H	1.671849	-1.072285	-0.267214
H125	H	1.789283	-1.072219	-0.235844
C126	C	1.344445	-0.847343	-0.679945
C127	C	1.388989	-0.793679	-0.635418
H128	H	1.291288	-0.819338	-0.733024
H129	H	1.398865	-0.879496	-0.711531
H130	H	1.312955	-0.879580	-0.625478
H131	H	1.420486	-0.761445	-0.689884
H132	H	1.334559	-0.761512	-0.603833
C133	C	1.286704	-0.666421	-0.579315
C134	C	1.292230	-0.588167	-0.623186
H135	H	1.333167	-0.700765	-0.615613
H136	H	1.307748	-0.677915	-0.505619
H137	H	1.215451	-0.673657	-0.586978
H138	H	1.363482	-0.580930	-0.615516
H139	H	1.271192	-0.576669	-0.696900
C140	C	1.560491	-0.556759	-1.124048
C141	C	1.513546	-0.481573	-1.107687
H142	H	1.560496	-0.556743	-1.198511
H143	H	1.631945	-0.570433	-1.095564
H144	H	1.520857	-0.594090	-1.089177
H145	H	1.553185	-0.444243	-1.142551
H146	H	1.442080	-0.467890	-1.136185
C147	C	1.083906	-0.571209	-0.731848
C148	C	1.061896	-0.588174	-0.623209
H149	H	1.055918	-0.605557	-0.768144
H150	H	1.051679	-0.518123	-0.761591
H151	H	1.159054	-0.578455	-0.739487
H152	H	0.986748	-0.580923	-0.615570
H153	H	1.094120	-0.641273	-0.593458
C154	C	1.353860	-0.632113	-0.793031
C155	C	1.400921	-0.587769	-0.733627
H156	H	1.317473	-0.666432	-0.746574
H157	H	1.304434	-0.597660	-0.845067
H158	H	1.407762	-0.662330	-0.827724
H159	H	1.347018	-0.557547	-0.698941
H160	H	1.450351	-0.622226	-0.681572
H161	H	1.417807	-1.079025	-0.606805
H162	H	1.347539	-0.481918	-0.510907
H163	H	1.579620	-0.681586	-0.444981
H164	H	1.863884	-0.831306	-0.161190
H165	H	1.416218	-0.573293	-0.952227
C166	C	1.455108	-0.536748	-0.595612
C167	C	1.513510	-0.481702	-0.646991
H168	H	1.455122	-0.536776	-0.521146
H169	H	1.383649	-0.523058	-0.624083
H170	H	1.486959	-0.587744	-0.606751
H171	H	1.481654	-0.430704	-0.635860
H172	H	1.584983	-0.495387	-0.618511
H173	H	1.825389	-0.187740	-1.055914
