data_functionalizedCrystal
_audit_creation_method	'MofGen! by Chris Wilmer'
_symmetry_space_group_name_H-M	'P1'
_symmetry_Int_Tables_number	1
_symmetry_cell_setting	triclinic
loop_
_symmetry_equiv_pos_as_xyz
  x,y,z
_cell_length_a	14.971506
_cell_length_b	13.262508
_cell_length_c	13.448316
_cell_angle_alpha	74.083881
_cell_angle_beta	90.008816
_cell_angle_gamma	84.044748
loop_
_atom_site_label
_atom_site_type_symbol
_atom_site_fract_x
_atom_site_fract_y
_atom_site_fract_z
O1	O	1.187319	0.136876	0.045677
O2	O	1.687319	0.636876	0.545677
O3	O	0.926967	0.153233	0.041253
O4	O	1.426967	0.653233	0.541253
O5	O	1.063698	-0.007727	0.084782
O6	O	1.563698	0.492273	0.584782
O7	O	1.050588	0.297836	0.002148
O8	O	1.550588	0.797836	0.502148
O9	O	1.063675	-0.007723	-0.080602
O10	O	1.563675	0.492277	0.419398
O11	O	0.926944	0.153238	-0.124132
O12	O	1.426944	0.653238	0.375868
O13	O	1.187296	0.136880	-0.119708
O14	O	1.687296	0.636880	0.380292
Cu15	Cu	1.057118	0.145059	-0.137021
Cu16	Cu	1.557118	0.645059	0.362979
Cu17	Cu	1.057145	0.145054	0.058566
Cu18	Cu	1.557145	0.645054	0.558566
O19	O	1.050565	0.297840	-0.163237
O20	O	1.550565	0.797840	0.336763
C21	C	0.893629	0.152500	-0.041240
C22	C	1.393629	0.652500	0.458760
C23	C	0.794327	0.150296	-0.040644
C24	C	1.294327	0.650296	0.459356
C25	C	0.356284	0.236448	-0.063932
C26	C	0.856284	0.736448	0.436068
C27	C	0.449590	0.238510	-0.064486
C28	C	0.949590	0.738510	0.435514
C29	C	0.506547	0.143940	-0.038915
C30	C	1.006547	0.643940	0.461085
C31	C	0.470194	0.047301	-0.012779
C32	C	0.970194	0.547301	0.487221
C33	C	0.376890	0.045240	-0.012219
C34	C	0.876890	0.545240	0.487781
C35	C	0.664669	0.051604	-0.013951
C36	C	1.164669	0.551604	0.486049
C37	C	0.757980	0.053665	-0.014513
C38	C	1.257980	0.553665	0.485487
C39	C	0.737369	0.244874	-0.066218
C40	C	1.237369	0.744874	0.433782
C41	C	0.644065	0.242813	-0.065658
C42	C	1.144065	0.742813	0.434342
C43	C	0.607718	0.146174	-0.039524
C44	C	1.107718	0.646174	0.460476
C45	C	1.062954	-0.046829	0.012667
C46	C	1.562954	0.453171	0.512667
C47	C	1.060759	-0.163349	0.044184
C48	C	1.560759	0.336651	0.544184
C49	C	1.054519	-0.491801	-0.227591
C50	C	1.554519	0.008199	0.272409
C51	C	1.056574	-0.382324	-0.257204
C52	C	1.556574	0.117676	0.242796
C53	C	1.057620	-0.327575	-0.181859
C54	C	1.557620	0.172425	0.318141
C55	C	1.056612	-0.382313	-0.076897
C56	C	1.556612	0.117687	0.423103
C57	C	1.054550	-0.491800	-0.047281
C58	C	1.554550	0.008200	0.452719
C59	C	1.057651	-0.327574	-0.001549
C60	C	1.557651	0.172426	0.498451
C61	C	1.056643	-0.382312	0.103413
C62	C	1.556643	0.117688	0.603413
C63	C	1.054582	-0.491787	0.133024
C64	C	1.554582	0.008213	0.633024
C65	C	1.053535	-0.546537	0.057680
C66	C	1.553535	-0.046537	0.557680
C67	C	1.059713	-0.218087	-0.031165
C68	C	1.559713	0.281913	0.468835
C69	C	1.059744	-0.218086	0.149145
C70	C	1.559744	0.281914	0.649145
C71	C	1.057690	-0.327562	0.178758
C72	C	1.557690	0.172438	0.678758
C73	C	1.220634	0.137613	-0.037212
C74	C	1.720634	0.637613	0.462788
C75	C	1.319936	0.139817	-0.037802
C76	C	1.819936	0.639817	0.462198
C77	C	1.051309	0.336943	-0.091120
C78	C	1.551309	0.836943	0.408880
C79	C	1.053504	0.453462	-0.122630
C80	C	1.553504	0.953462	0.377370
N81	N	1.057105	0.145062	-0.274586
N82	N	1.557105	0.645062	0.225414
C83	C	1.117718	0.073799	-0.732532
C84	C	1.617718	0.573799	-0.232532
C85	C	1.117711	0.073806	-0.628431
C86	C	1.617711	0.573806	-0.128431
C87	C	1.057145	0.145053	-0.595665
C88	C	1.557145	0.645053	-0.095665
C89	C	0.996589	0.216305	-0.667008
C90	C	1.496589	0.716305	-0.167008
C91	C	0.996601	0.216302	-0.771109
C92	C	1.496601	0.716302	-0.271109
C93	C	0.996566	0.216304	-0.450028
C94	C	1.496566	0.716304	0.049972
C95	C	0.996552	0.216306	-0.345920
C96	C	1.496552	0.716306	0.154080
C97	C	1.117675	0.073808	-0.307350
C98	C	1.617675	0.573808	0.192650
C99	C	1.117688	0.073805	-0.411451
C100	C	1.617688	0.573805	0.088549
C101	C	1.057130	0.145056	-0.482787
C102	C	1.557130	0.645056	0.017213
N103	N	1.057165	0.145043	0.196133
N104	N	1.557165	0.645043	0.696133
H105	H	0.347298	-0.033447	0.009061
H106	H	0.847298	0.466553	0.509061
H107	H	0.947294	0.274317	-0.829191
H108	H	1.447294	0.774317	-0.329191
H109	H	0.766966	0.323562	-0.087498
H110	H	1.266966	0.823562	0.412502
H111	H	0.597692	0.319821	-0.086486
H112	H	1.097692	0.819821	0.413514
H113	H	0.947278	0.274321	-0.640326
H114	H	1.447278	0.774321	-0.140326
H115	H	1.057404	-0.337766	-0.342664
H116	H	1.557404	0.162234	0.157336
H117	H	1.060527	-0.173529	-0.116627
H118	H	1.560527	0.326471	0.383373
H119	H	0.635080	-0.027090	0.007335
H120	H	1.135080	0.472910	0.507335
H121	H	1.059292	-0.238434	-0.205977
H122	H	1.559292	0.261566	0.294023
H123	H	0.309915	0.313459	-0.084763
H124	H	0.809915	0.813459	0.415237
H125	H	0.804353	-0.023342	0.006317
H126	H	1.304353	0.476658	0.506317
H127	H	0.516576	-0.029699	0.008046
H128	H	1.016576	0.470301	0.508046
H129	H	1.053660	-0.536387	-0.288925
H130	H	1.553660	-0.036387	0.211075
H131	H	0.479178	0.317197	-0.085755
H132	H	0.979178	0.817197	0.414245
H133	H	1.051866	-0.635682	0.081786
H134	H	1.551866	-0.135682	0.581786
H135	H	1.053752	-0.536351	0.218491
H136	H	1.553752	-0.036351	0.718491
H137	H	1.056868	-0.372146	0.264220
H138	H	1.556868	0.127854	0.764220
H139	H	1.167001	0.015786	-0.438126
H140	H	1.667001	0.515786	0.061874
H141	H	1.060590	-0.173508	0.210497
H142	H	1.560590	0.326492	0.710497
H143	H	1.167034	0.015777	-0.759200
H144	H	1.667034	0.515777	-0.259200
H145	H	1.167019	0.015795	-0.570350
H146	H	1.667019	0.515795	-0.070350
H147	H	0.947234	0.274324	-0.319249
H148	H	1.447234	0.774324	0.180751
H149	H	0.947256	0.274327	-0.508110
H150	H	1.447256	0.774327	-0.008110
H151	H	1.166983	0.015794	-0.249262
H152	H	1.666983	0.515794	0.250738
