data_functionalizedCrystal
_audit_creation_method	'MofGen! by Chris Wilmer'
_symmetry_space_group_name_H-M	'P1'
_symmetry_Int_Tables_number	1
_symmetry_cell_setting	triclinic
loop_
_symmetry_equiv_pos_as_xyz
  x,y,z
_cell_length_a	25.639242
_cell_length_b	25.639240
_cell_length_c	19.805399
_cell_angle_alpha	89.962684
_cell_angle_beta	89.983108
_cell_angle_gamma	90.025061
loop_
_atom_site_label
_atom_site_type_symbol
_atom_site_fract_x
_atom_site_fract_y
_atom_site_fract_z
Zn1	Zn	0.799260	-0.208263	-0.382680
Zn2	Zn	0.799188	-0.295699	-0.269476
Zn3	Zn	0.711832	-0.208268	-0.269505
Zn4	Zn	0.711790	-0.295657	-0.382623
O5	O	0.755518	-0.251972	-0.326071
O6	O	0.872415	-0.219877	-0.367676
O7	O	0.787588	-0.284121	-0.174763
O8	O	0.723477	-0.135102	-0.284555
O9	O	0.872363	-0.284116	-0.284505
O10	O	0.787710	-0.135098	-0.367704
O11	O	0.723408	-0.219885	-0.174785
O12	O	0.638661	-0.219845	-0.284498
O13	O	0.723405	-0.284045	-0.477347
O14	O	0.638631	-0.284050	-0.367605
O15	O	0.787669	-0.219837	-0.477389
O16	O	0.787547	-0.368859	-0.284448
O17	O	0.723336	-0.368828	-0.367577
C18	C	0.619675	-0.251944	-0.326049
C19	C	0.561561	-0.251944	-0.326056
C20	C	0.310403	-0.218582	-0.369457
C21	C	0.365007	-0.218577	-0.369453
O22	O	0.393274	-0.190188	-0.406350
N23	N	0.392287	-0.251966	-0.326079
C24	C	0.364960	-0.285366	-0.282710
O25	O	0.393177	-0.313766	-0.245817
C26	C	0.310357	-0.285373	-0.282718
C27	C	0.283079	-0.251978	-0.326090
C28	C	0.283126	-0.185190	-0.412827
C29	C	0.228525	-0.185195	-0.412829
C30	C	0.201202	-0.218591	-0.369463
C31	C	0.228479	-0.251983	-0.326093
C32	C	0.283030	-0.318776	-0.239353
C33	C	0.228423	-0.318780	-0.239365
C34	C	0.201146	-0.285385	-0.282737
C35	C	0.146555	-0.285384	-0.282729
N36	N	0.119275	-0.251995	-0.326104
C37	C	0.146598	-0.218599	-0.369470
C38	C	0.479630	-0.285348	-0.282698
C39	C	0.534233	-0.285339	-0.282686
C40	C	0.534276	-0.218550	-0.369430
C41	C	0.479673	-0.218558	-0.369438
C42	C	0.452351	-0.251959	-0.326072
C43	C	0.031933	-0.218611	-0.369473
C44	C	-0.022672	-0.218617	-0.369470
C45	C	-0.022711	-0.285407	-0.282728
C46	C	0.031890	-0.285399	-0.282728
C47	C	0.059211	-0.251999	-0.326106
O48	O	0.118254	-0.313759	-0.245853
O49	O	0.118374	-0.190209	-0.406364
C50	C	0.755444	-0.387814	-0.326018
C51	C	0.755460	-0.445929	-0.326018
C52	C	0.788980	-0.806251	-0.369445
C53	C	0.788996	-0.860856	-0.369459
O54	O	0.817408	-0.889058	-0.406328
N55	N	0.755590	-0.888211	-0.326136
C56	C	0.722163	-0.860959	-0.282802
O57	O	0.693750	-0.889241	-0.245955
C58	C	0.722146	-0.806356	-0.282792
C59	C	0.755557	-0.779003	-0.326113
C60	C	0.822388	-0.778899	-0.412762
C61	C	0.822373	-0.724298	-0.412748
C62	C	0.788950	-0.697050	-0.369415
C63	C	0.755542	-0.724403	-0.326098
C64	C	0.688717	-0.779105	-0.239462
C65	C	0.688702	-0.724498	-0.239456
C66	C	0.722113	-0.697146	-0.282777
C67	C	0.722104	-0.642554	-0.282751
N68	N	0.755510	-0.615199	-0.326073
C69	C	0.788933	-0.642447	-0.369406
C70	C	0.722202	-0.975630	-0.282827
C71	C	0.722222	-1.030232	-0.282833
C72	C	0.789054	-1.030125	-0.369491
C73	C	0.789036	-0.975521	-0.369481
C74	C	0.755608	-0.948274	-0.326149
C75	C	0.788899	-0.527782	-0.369371
C76	C	0.788883	-0.473176	-0.369350
C77	C	0.722050	-0.473289	-0.282695
C78	C	0.722068	-0.527889	-0.282713
C79	C	0.755494	-0.555134	-0.326056
O80	O	0.693705	-0.614317	-0.245903
O81	O	0.817336	-0.614158	-0.406253
C82	C	0.891891	-0.252001	-0.326093
C83	C	0.950005	-0.252013	-0.326103
C84	C	0.755540	-0.251936	-0.502614
C85	C	0.755550	-0.251920	-0.577846
C86	C	0.755606	-0.115599	-0.326139
C87	C	0.755644	-0.057485	-0.326168
C88	C	0.722141	-0.218470	-0.613201
C89	C	0.722148	-0.218459	-0.683889
C90	C	0.755568	-0.251898	-0.719221
C91	C	0.788978	-0.285352	-0.683862
C92	C	0.788968	-0.285364	-0.613174
C93	C	0.789020	-0.285303	-0.968935
C94	C	0.789029	-0.285287	-1.039627
C95	C	0.722200	-0.218398	-1.039650
C96	C	0.722190	-0.218411	-0.968963
C97	C	0.755598	-0.251866	-0.933609
C98	C	0.755589	-0.251878	-0.856960
C99	C	0.755580	-0.251884	-0.795869
C100	C	0.755525	-0.251970	-0.150215
C101	C	0.755616	-0.251838	-0.074983
H102	H	0.206321	-0.158004	-0.448151
H103	H	0.694930	-0.191237	-0.584438
H104	H	0.694982	-0.953448	-0.247536
H105	H	0.816242	-0.953254	-0.404756
H106	H	-0.044879	-0.191420	-0.404789
H107	H	0.816186	-0.312580	-0.712635
H108	H	0.849605	-0.801078	-0.448053
H109	H	0.661510	-0.801366	-0.204186
N110	N	0.686157	-0.182322	-1.077784
H111	H	0.694299	-0.144968	-1.065509
H112	H	0.691249	-0.187435	-1.127912
N113	N	0.061396	-0.182588	-0.416258
H114	H	0.035824	-0.161438	-0.443729
H115	H	0.084052	-0.158361	-0.388768
H116	H	0.816177	-0.312599	-0.584389
H117	H	0.305230	-0.345969	-0.204034
H118	H	0.694838	-0.451095	-0.247413
H119	H	0.556533	-0.191357	-0.404742
N120	N	-0.052183	-0.321431	-0.235958
H121	H	-0.042694	-0.313266	-0.187615
H122	H	-0.090903	-0.316351	-0.242603
H123	H	0.816268	-1.052320	-0.404775
H124	H	0.694866	-0.550161	-0.247433
N125	N	0.312588	-0.149167	-0.459608
H126	H	0.303088	-0.111803	-0.449185
H127	H	0.351310	-0.154266	-0.453009
N128	N	0.061314	-0.321410	-0.235942
H129	H	0.035717	-0.342565	-0.208468
H130	H	0.083965	-0.345634	-0.263433
N131	N	0.450261	-0.182541	-0.416225
H132	H	0.427610	-0.203821	-0.447545
H133	H	0.427634	-0.158291	-0.388740
N134	N	0.563650	-0.321349	-0.235895
H135	H	0.538050	-0.342503	-0.208425
H136	H	0.586305	-0.345573	-0.263379
N137	N	0.450163	-0.321373	-0.235917
H138	H	0.475734	-0.342520	-0.208440
H139	H	0.427506	-0.300062	-0.204649
H140	H	0.816092	-0.450908	-0.404627
N141	N	0.824945	-0.557163	-0.416125
H142	H	0.846103	-0.531543	-0.443562
H143	H	0.849165	-0.579821	-0.388617
H144	H	0.694941	-0.191223	-0.712672
H145	H	0.661478	-0.702316	-0.204172
N146	N	0.686147	-0.182338	-0.930862
H147	H	0.648786	-0.190447	-0.943153
H148	H	0.691254	-0.187434	-0.880729
N149	N	0.198954	-0.354809	-0.192593
H150	H	0.224523	-0.375961	-0.165119
H151	H	0.176298	-0.333500	-0.161322
N152	N	0.825075	-0.321354	-1.077738
H153	H	0.846237	-0.342552	-1.044616
H154	H	0.803777	-0.345536	-1.107053
N155	N	0.825051	-0.321384	-0.930807
H156	H	0.846225	-0.342563	-0.963916
H157	H	0.849257	-0.300113	-0.901492
N158	N	0.858406	-0.694800	-0.459477
H159	H	0.879577	-0.720354	-0.486928
H160	H	0.837099	-0.672143	-0.490771
H161	H	0.695021	-1.052498	-0.247550
