data_functionalizedCrystal
_audit_creation_method	'MofGen! by Chris Wilmer'
_symmetry_space_group_name_H-M	'P1'
_symmetry_Int_Tables_number	1
_symmetry_cell_setting	triclinic
loop_
_symmetry_equiv_pos_as_xyz
  x,y,z
_cell_length_a	12.645331
_cell_length_b	18.101397
_cell_length_c	12.645323
_cell_angle_alpha	90.032474
_cell_angle_beta	90.022676
_cell_angle_gamma	90.019444
loop_
_atom_site_label
_atom_site_type_symbol
_atom_site_fract_x
_atom_site_fract_y
_atom_site_fract_z
Zn1	Zn	1.620711	-0.294844	0.599390
Zn2	Zn	1.620584	-0.418694	0.422107
Zn3	Zn	1.443425	-0.294869	0.422135
Zn4	Zn	1.443399	-0.418646	0.599322
O5	O	1.532030	-0.356763	0.510738
O6	O	1.769041	-0.311283	0.575890
O7	O	1.597042	-0.402299	0.273763
O8	O	1.467007	-0.191233	0.445688
O9	O	1.768948	-0.402275	0.445641
O10	O	1.597258	-0.191214	0.575917
O11	O	1.466884	-0.311325	0.273784
O12	O	1.295075	-0.311278	0.445622
O13	O	1.466961	-0.402193	0.747679
O14	O	1.295055	-0.402217	0.575801
O15	O	1.597232	-0.311236	0.747729
O16	O	1.597016	-0.522321	0.445575
O17	O	1.466838	-0.522285	0.575774
C18	C	1.256600	-0.356746	0.510708
C19	C	1.138770	-0.356756	0.510720
C20	C	0.971183	-0.299283	0.429276
C21	C	1.093743	-0.299432	0.428917
C22	C	1.094244	-0.434770	0.480190
C23	C	0.971646	-0.434456	0.479635
C24	C	0.971622	-0.336957	0.623008
C25	C	1.094228	-0.335215	0.622384
C26	C	1.531939	-0.549174	0.510687
C27	C	1.531997	-0.631488	0.510701
C28	C	1.532132	-0.930579	0.510797
C29	C	1.613808	-0.899245	0.428660
C30	C	1.614091	-0.813627	0.428873
C31	C	1.532065	-0.782196	0.510748
C32	C	1.562356	-0.813201	0.622490
C33	C	1.562988	-0.898846	0.622043
C34	C	1.419948	-0.899087	0.482160
C35	C	1.420502	-0.813438	0.479666
C36	C	1.532026	-0.698337	0.510728
C37	C	1.532175	-1.014438	0.510826
C38	C	1.808535	-0.356781	0.510770
C39	C	1.926365	-0.356789	0.510783
C40	C	1.532108	-0.356706	0.787244
C41	C	1.532141	-0.356682	0.905074
C42	C	1.532150	-0.163601	0.510813
C43	C	1.532201	-0.081287	0.510845
C44	C	1.532013	-0.356767	0.235309
C45	C	1.532185	-0.356583	0.117479
C46	C	1.449935	-0.413633	1.072607
C47	C	1.450150	-0.413915	0.950047
C48	C	1.643839	-0.377863	0.949590
C49	C	1.643388	-0.378220	1.072188
C50	C	1.503705	-0.278231	1.072287
C51	C	1.501213	-0.278701	0.949680
H52	H	0.940729	-0.281063	0.650770
H53	H	1.123020	-0.312540	0.345755
C54	C	0.932937	-0.457170	0.368801
C55	C	0.964044	-0.410804	0.271595
C56	C	0.925342	-0.433516	0.160758
C57	C	0.855534	-0.502595	0.147127
C58	C	0.824423	-0.548965	0.244336
C59	C	0.863125	-0.526252	0.355173
H60	H	1.015723	-0.359664	0.281683
H61	H	0.948372	-0.399190	0.088798
H62	H	0.826884	-0.519408	0.065079
H63	H	0.772744	-0.600105	0.234249
H64	H	0.840095	-0.560579	0.427134
C65	C	1.671899	-0.784157	0.655818
C66	C	1.762431	-0.838814	0.678343
C67	C	1.871977	-0.809771	0.711664
C68	C	1.890991	-0.726072	0.722460
C69	C	1.800456	-0.671410	0.699934
C70	C	1.690911	-0.700453	0.666613
H71	H	1.748358	-0.900778	0.670352
H72	H	1.938997	-0.850236	0.728339
H73	H	1.972083	-0.704573	0.747126
H74	H	1.814529	-0.609446	0.707925
H75	H	1.623891	-0.659988	0.649938
H76	H	1.367322	-0.400660	0.919947
C77	C	1.728857	-0.323511	0.910239
C78	C	1.844958	-0.333563	0.944073
C79	C	1.929974	-0.279211	0.904720
C80	C	1.898888	-0.214806	0.831532
C81	C	1.782780	-0.204752	0.797694
C82	C	1.697765	-0.259104	0.837047
H83	H	1.867975	-0.381241	0.998255
H84	H	2.015925	-0.286654	0.929770
H85	H	1.961821	-0.174572	0.802401
H86	H	1.759763	-0.157074	0.743513
H87	H	1.611814	-0.251661	0.811997
C88	C	1.133651	-0.494206	0.557858
C89	C	1.099819	-0.575305	0.543254
C90	C	1.139230	-0.634740	0.620922
C91	C	1.212473	-0.613076	0.713193
C92	C	1.246309	-0.531973	0.727801
C93	C	1.206898	-0.472538	0.650133
H94	H	1.045597	-0.591346	0.474946
H95	H	1.114182	-0.694778	0.610108
H96	H	1.241647	-0.657074	0.770687
H97	H	1.300531	-0.515933	0.796109
H98	H	1.231946	-0.412500	0.660947
H99	H	1.366861	-0.400505	1.102083
H100	H	0.942640	-0.378842	0.683738
C101	C	1.677016	-0.454432	0.908130
C102	C	1.699414	-0.517632	0.986460
C103	C	1.732584	-0.594203	0.945003
C104	C	1.743356	-0.607573	0.825215
C105	C	1.720958	-0.544371	0.746877
C106	C	1.687788	-0.467800	0.788334
H107	H	1.691440	-0.507736	1.075141
H108	H	1.749164	-0.640989	1.002995
H109	H	1.767911	-0.664255	0.794526
H110	H	1.728932	-0.554267	0.658196
H111	H	1.671208	-0.421014	0.730343
H112	H	1.696454	-0.920714	0.447390
C113	C	1.135642	-0.457883	0.370542
C114	C	1.102889	-0.532763	0.322819
C115	C	1.144284	-0.555871	0.213169
C116	C	1.218431	-0.504100	0.151241
C117	C	1.251187	-0.429215	0.198964
C118	C	1.209792	-0.406107	0.308614
H119	H	1.047998	-0.571091	0.368662
H120	H	1.120035	-0.611306	0.177842
H121	H	1.249074	-0.521206	0.070071
H122	H	1.306079	-0.390887	0.153121
H123	H	1.234041	-0.350672	0.343941
H124	H	0.941998	-0.478752	0.536411
C125	C	1.389627	-0.786073	0.368579
C126	C	1.368323	-0.842111	0.279403
C127	C	1.337447	-0.814742	0.168317
C128	C	1.327876	-0.731336	0.146406
C129	C	1.349180	-0.675293	0.235584
C130	C	1.380056	-0.702662	0.346671
H131	H	1.375408	-0.903858	0.295621
H132	H	1.321676	-0.856230	0.102302
H133	H	1.305020	-0.711077	0.064173
H134	H	1.342095	-0.613546	0.219367
H135	H	1.395827	-0.661174	0.412686
H136	H	1.423673	-0.258923	1.103195
C137	C	1.588554	-0.785305	0.316929
C138	C	1.583850	-0.701673	0.295187
C139	C	1.558346	-0.673356	0.183230
C140	C	1.537547	-0.728670	0.093016
C141	C	1.542250	-0.812307	0.114756
C142	C	1.567754	-0.840624	0.226712
H143	H	1.599247	-0.660721	0.361971
H144	H	1.554865	-0.611442	0.167138
H145	H	1.518668	-0.707708	0.010139
H146	H	1.526853	-0.853258	0.047972
H147	H	1.571235	-0.902538	0.242805
H148	H	1.356374	-0.792050	0.535110
H149	H	1.123336	-0.277805	0.645405
H150	H	1.595085	-0.919890	0.345557
C151	C	1.390168	-0.257114	0.910376
C152	C	1.327833	-0.310023	0.838117
C153	C	1.216787	-0.288439	0.798807
C154	C	1.168075	-0.213947	0.831756
C155	C	1.230410	-0.161033	0.904019
C156	C	1.341456	-0.182617	0.943329
H157	H	1.363893	-0.365171	0.813723
H158	H	1.170643	-0.327610	0.745313
H159	H	1.085872	-0.197969	0.802656
H160	H	1.194351	-0.105885	0.928413
H161	H	1.387600	-0.143446	0.996822
C162	C	1.729005	-0.324544	1.112302
C163	C	1.797571	-0.281494	1.032777
C164	C	1.883197	-0.227828	1.072885
C165	C	1.900258	-0.217212	1.192518
C166	C	1.831691	-0.260264	1.272050
C167	C	1.746064	-0.313930	1.231942
H168	H	1.784943	-0.289351	0.944211
H169	H	1.933956	-0.195958	1.014010
H170	H	1.963644	-0.177485	1.222208
H171	H	1.844318	-0.252406	1.360615
H172	H	1.695306	-0.345799	1.290817
C173	C	0.931382	-0.220892	0.454833
C174	C	1.011039	-0.158971	0.480070
C175	C	0.971230	-0.080577	0.505625
C176	C	0.851764	-0.064105	0.505942
C177	C	0.772100	-0.126028	0.480704
C178	C	0.811909	-0.204422	0.455149
H179	H	1.099481	-0.171163	0.479836
H180	H	1.030203	-0.034737	0.524308
H181	H	0.822296	-0.006073	0.524860
H182	H	0.683658	-0.113836	0.480938
H183	H	0.752936	-0.250261	0.436466
C184	C	1.726348	-0.785867	0.454484
C185	C	1.816014	-0.841629	0.474813
C186	C	1.928275	-0.813869	0.500432
C187	C	1.950869	-0.730348	0.505722
C188	C	1.861200	-0.674580	0.485393
C189	C	1.748940	-0.702340	0.459774
H190	H	1.799291	-0.903461	0.470897
H191	H	1.994654	-0.855152	0.515481
H192	H	2.033971	-0.709798	0.524687
H193	H	1.877924	-0.612748	0.489309
H194	H	1.682561	-0.661057	0.444725
C195	C	1.486122	-0.926851	0.707541
C196	C	1.424363	-0.871282	0.776010
C197	C	1.347505	-0.899282	0.861512
C198	C	1.332405	-0.982851	0.878545
C199	C	1.394165	-1.038426	0.810075
C200	C	1.471024	-1.010425	0.724573
H201	H	1.435540	-0.809414	0.763403
H202	H	1.301786	-0.858142	0.912198
H203	H	1.275510	-1.003579	0.941839
H204	H	1.382989	-1.100293	0.822682
H205	H	1.516743	-1.051565	0.673886
C206	C	1.484459	-0.785693	0.707397
C207	C	1.365961	-0.804292	0.698297
C208	C	1.288063	-0.776782	0.783201
C209	C	1.328661	-0.730672	0.877207
C210	C	1.447165	-0.712070	0.886311
C211	C	1.525063	-0.739581	0.801406
H212	H	1.335902	-0.838428	0.628705
H213	H	1.200338	-0.790553	0.776461
H214	H	1.270996	-0.710307	0.940059
H215	H	1.477224	-0.677935	0.955903
H216	H	1.612788	-0.725810	0.808147
H217	H	1.644990	-0.918766	0.646300
H218	H	1.124883	-0.374044	0.686362
C219	C	1.382722	-0.928340	0.373986
C220	C	1.453724	-0.981208	0.310270
C221	C	1.416513	-1.010461	0.202091
C222	C	1.308300	-0.986846	0.157629
C223	C	1.237292	-0.933975	0.221346
C224	C	1.274503	-0.904722	0.329525
H225	H	1.533836	-0.998691	0.343183
H226	H	1.469079	-1.049599	0.154924
H227	H	1.280754	-1.008501	0.077549
H228	H	1.157180	-0.916492	0.188433
H229	H	1.221937	-0.865584	0.376692
C230	C	1.584625	-0.220804	1.111495
C231	C	1.651607	-0.177128	1.031324
C232	C	1.732529	-0.119708	1.070538
C233	C	1.746468	-0.105964	1.189924
C234	C	1.679483	-0.149641	1.270102
C235	C	1.598561	-0.207061	1.230888
H236	H	1.641291	-0.187301	0.942941
H237	H	1.782116	-0.087375	1.011184
H238	H	1.806371	-0.063459	1.218952
H239	H	1.689800	-0.139468	1.358485
H240	H	1.548975	-0.239394	1.290242
H241	H	1.556744	-0.233948	0.919067
H242	H	1.123847	-0.241582	0.448055
H243	H	0.940334	-0.312246	0.346603
H244	H	1.359094	-0.919351	0.541984
H245	H	1.468552	-0.471356	1.103415
H246	H	1.667529	-0.435497	1.100788
H247	H	1.468951	-0.472001	0.920722
