data_functionalizedCrystal
_audit_creation_method	'MofGen! by Chris Wilmer'
_symmetry_space_group_name_H-M	'P1'
_symmetry_Int_Tables_number	1
_symmetry_cell_setting	triclinic
loop_
_symmetry_equiv_pos_as_xyz
  x,y,z
_cell_length_a	12.759401
_cell_length_b	12.645330
_cell_length_c	12.759393
_cell_angle_alpha	90.028974
_cell_angle_beta	90.020938
_cell_angle_gamma	90.019217
loop_
_atom_site_label
_atom_site_type_symbol
_atom_site_fract_x
_atom_site_fract_y
_atom_site_fract_z
Zn1	Zn	1.606245	-0.421945	0.594031
Zn2	Zn	1.606126	-0.599246	0.418356
Zn3	Zn	1.430543	-0.422001	0.418366
Zn4	Zn	1.430526	-0.599172	0.593993
O5	O	1.518360	-0.510591	0.506187
O6	O	1.753250	-0.445472	0.570739
O7	O	1.582793	-0.575788	0.271336
O8	O	1.453907	-0.273647	0.441689
O9	O	1.753163	-0.575734	0.441671
O10	O	1.582994	-0.273605	0.570749
O11	O	1.453793	-0.445568	0.271344
O12	O	1.283520	-0.445496	0.441652
O13	O	1.453878	-0.575607	0.741019
O14	O	1.283507	-0.575662	0.570684
O15	O	1.582977	-0.445400	0.741047
O16	O	1.582776	-0.747583	0.441634
O17	O	1.453763	-0.747529	0.570674
C18	C	1.245393	-0.510578	0.506166
C19	C	1.128616	-0.510598	0.506182
C20	C	1.073775	-0.578479	0.573263
C21	C	0.964051	-0.578483	0.573284
C22	C	0.964019	-0.442722	0.439133
C23	C	1.073741	-0.442714	0.439118
C24	C	0.814153	-0.616521	0.697146
C25	C	0.759308	-0.684418	0.764218
C26	C	0.794901	-0.787874	0.780168
C27	C	0.885336	-0.823454	0.729031
C28	C	0.940175	-0.755562	0.661951
C29	C	0.904584	-0.652092	0.646021
C30	C	1.223641	-0.404686	0.315255
C31	C	1.278482	-0.336799	0.248169
C32	C	1.242892	-0.233342	0.232208
C33	C	1.152453	-0.197766	0.283327
C34	C	1.097612	-0.265653	0.350413
C35	C	1.133209	-0.369109	0.366376
C36	C	1.518283	-0.786021	0.506172
C37	C	1.518347	-0.903851	0.506201
C38	C	1.437519	-1.071424	0.587630
C39	C	1.437106	-0.948865	0.587368
C40	C	1.488371	-0.948453	0.395479
C41	C	1.487878	-1.071052	0.395973
C42	C	1.629644	-1.070935	0.534596
C43	C	1.628962	-0.948328	0.537017
C44	C	1.792393	-0.510605	0.506208
C45	C	1.909170	-0.510610	0.506217
C46	C	1.518439	-0.510489	0.780220
C47	C	1.518472	-0.510446	0.896997
C48	C	1.518466	-0.234086	0.506224
C49	C	1.518511	-0.116255	0.506241
C50	C	1.518342	-0.510616	0.233219
C51	C	1.518512	-0.510360	0.116443
C52	C	1.585699	-0.442636	0.951875
C53	C	1.585717	-0.442590	1.061599
C54	C	1.451278	-0.578173	1.061557
C55	C	1.451255	-0.578213	0.951835
C56	C	1.623336	-0.317515	1.211574
C57	C	1.690579	-0.249715	1.266456
C58	C	1.793093	-0.233459	1.230864
C59	C	1.828384	-0.285019	1.140392
C60	C	1.761146	-0.352827	1.085516
C61	C	1.658618	-0.369063	1.121106
C62	C	1.413648	-0.703289	0.801858
C63	C	1.346414	-0.771104	0.746980
C64	C	1.243899	-0.787370	0.782570
C65	C	1.208612	-0.735829	0.873045
C66	C	1.275845	-0.668014	0.927924
C67	C	1.378359	-0.651746	0.892326
H68	H	1.287548	-0.178072	0.177572
H69	H	1.355645	-1.102329	0.569085
H70	H	1.911865	-0.271785	1.111426
H71	H	1.354717	-0.919634	0.568583
H72	H	1.656988	-1.101772	0.613962
H73	H	1.651567	-0.919171	0.618502
H74	H	1.689984	-1.099926	0.475316
H75	H	1.352122	-0.365774	0.206545
H76	H	1.692482	-0.917680	0.482054
H77	H	1.661836	-0.207734	1.340119
H78	H	1.640429	-0.387452	0.907229
H79	H	1.252634	-0.488927	0.328255
H80	H	0.750239	-0.843156	0.834781
H81	H	1.539859	-0.330737	1.240556
H82	H	1.455861	-0.918705	0.669468
H83	H	0.919326	-0.387455	0.384531
H84	H	1.789881	-0.394811	1.011858
H85	H	1.396554	-0.633349	1.106220
H86	H	1.847843	-0.178253	1.275557
H87	H	1.125136	-0.749078	0.902026
H88	H	1.247106	-0.626047	1.001594
H89	H	1.375158	-0.813081	0.673317
H90	H	1.123462	-0.113529	0.270314
H91	H	1.023976	-0.236675	0.392043
H92	H	0.685676	-0.655439	0.805854
H93	H	1.456102	-1.100830	0.669999
H94	H	1.407979	-0.917846	0.371023
H95	H	1.406639	-1.099747	0.371952
H96	H	1.118451	-0.633752	0.627873
H97	H	1.189162	-0.842600	0.737883
H98	H	1.013805	-0.784531	0.620316
H99	H	0.914302	-0.907702	0.742015
H100	H	0.785172	-0.532276	0.684175
H101	H	1.544308	-1.100712	0.333264
H102	H	1.545491	-0.919298	0.333180
H103	H	1.497122	-0.690042	0.772867
