data_functionalizedCrystal
_audit_creation_method	'MofGen! by Chris Wilmer'
_symmetry_space_group_name_H-M	'P1'
_symmetry_Int_Tables_number	1
_symmetry_cell_setting	triclinic
loop_
_symmetry_equiv_pos_as_xyz
  x,y,z
_cell_length_a	15.995343
_cell_length_b	15.995350
_cell_length_c	15.072220
_cell_angle_alpha	89.998899
_cell_angle_beta	89.991823
_cell_angle_gamma	96.509221
loop_
_atom_site_label
_atom_site_type_symbol
_atom_site_fract_x
_atom_site_fract_y
_atom_site_fract_z
O1	O	1.111000	-0.107890	-0.073689
O2	O	1.444333	0.225443	0.259644
O3	O	1.777667	0.558777	0.592978
O4	O	0.867224	-0.121224	-0.073710
O5	O	1.200557	0.212109	0.259624
O6	O	1.533890	0.545442	0.592957
O7	O	0.995776	0.007331	-0.073698
O8	O	1.329109	0.340664	0.259635
O9	O	1.662442	0.673997	0.592969
O10	O	0.982448	-0.236445	-0.073701
O11	O	1.315781	0.096888	0.259633
O12	O	1.649115	0.430222	0.592966
O13	O	0.995744	0.007324	0.073867
O14	O	1.329077	0.340657	0.407200
O15	O	1.662411	0.673990	0.740534
O16	O	0.867192	-0.121231	0.073855
O17	O	1.200525	0.212102	0.407189
O18	O	1.533859	0.545435	0.740522
O19	O	1.110968	-0.107897	0.073876
O20	O	1.444302	0.225436	0.407209
O21	O	1.777635	0.558770	0.740543
Zn22	Zn	0.989075	-0.114565	0.097295
Zn23	Zn	1.322408	0.218768	0.430628
Zn24	Zn	1.655742	0.552101	0.763962
Zn25	Zn	0.989117	-0.114556	-0.097129
Zn26	Zn	1.322450	0.218777	0.236205
Zn27	Zn	1.655784	0.552111	0.569538
O28	O	0.982416	-0.236452	0.073864
O29	O	1.315750	0.096881	0.407198
O30	O	1.649083	0.430215	0.740531
C31	C	0.836013	-0.120678	0.000070
C32	C	1.169346	0.212656	0.333403
C33	C	1.502680	0.545989	0.666737
C34	C	0.743062	-0.119028	0.000062
C35	C	1.076396	0.214305	0.333395
C36	C	1.409729	0.547638	0.666729
C37	C	0.572876	-0.116035	0.000074
C38	C	0.906209	0.217298	0.333407
C39	C	1.239543	0.550632	0.666741
C40	C	0.549530	-0.023238	0.000075
C41	C	0.882864	0.310095	0.333408
C42	C	1.216197	0.643429	0.666741
C43	C	0.452852	-0.021492	0.000415
C44	C	0.786186	0.311841	0.333748
C45	C	1.119519	0.645175	0.667081
C46	C	0.405316	-0.113086	0.000085
C47	C	0.738649	0.220247	0.333418
C48	C	1.071983	0.553580	0.666751
C49	C	0.434389	-0.159750	0.084183
C50	C	0.767723	0.173583	0.417517
C51	C	1.101056	0.506916	0.750850
C52	C	0.531182	-0.160851	0.084249
C53	C	0.864515	0.172482	0.417582
C54	C	1.197849	0.505816	0.750915
C55	C	0.531129	-0.162201	-0.083566
C56	C	0.864462	0.171132	0.249767
C57	C	1.197795	0.504465	0.583100
C58	C	0.434634	-0.158776	-0.084666
C59	C	0.767967	0.174558	0.248667
C60	C	1.101301	0.507891	0.582000
C61	C	0.310618	-0.111425	0.000094
C62	C	0.643951	0.221908	0.333427
C63	C	0.977284	0.555242	0.666760
C64	C	0.667574	-0.117699	0.000071
C65	C	1.000907	0.215634	0.333404
C66	C	1.334240	0.548968	0.666738
C67	C	0.995209	0.038522	0.000083
C68	C	1.328542	0.371855	0.333416
C69	C	1.661875	0.705189	0.666749
C70	C	0.993557	0.131472	0.000078
C71	C	1.326890	0.464806	0.333411
C72	C	1.660224	0.798139	0.666744
C73	C	1.142179	-0.108444	0.000094
C74	C	1.475512	0.224890	0.333428
C75	C	1.808846	0.558223	0.666761
C76	C	1.235130	-0.110093	0.000097
C77	C	1.568463	0.223241	0.333430
C78	C	1.901796	0.556574	0.666763
C79	C	0.982983	-0.267643	0.000082
C80	C	1.316317	0.065690	0.333415
C81	C	1.649650	0.399023	0.666748
C82	C	0.984635	-0.360594	0.000081
C83	C	1.317968	-0.027260	0.333414
C84	C	1.651302	0.306073	0.666748
N85	N	0.989053	-0.114571	0.229984
N86	N	1.322386	0.218762	0.563317
N87	N	1.655719	0.552095	0.896650
C88	C	0.987625	0.469220	0.000080
C89	C	1.320958	0.802553	0.333413
C90	C	1.654291	1.135886	0.666747
C91	C	0.896073	0.421783	-0.000259
C92	C	1.229406	0.755116	0.333075
C93	C	1.562739	1.088450	0.666408
C94	C	0.897725	0.325093	0.000074
C95	C	1.231058	0.658426	0.333407
C96	C	1.564391	0.991759	0.666741
C97	C	0.990567	0.301659	0.000078
C98	C	1.323901	0.634992	0.333412
C99	C	1.657234	0.968326	0.666745
C100	C	1.035706	0.342734	0.084348
C101	C	1.369039	0.676067	0.417681
C102	C	1.702373	1.009400	0.751014
C103	C	1.033406	0.439369	0.084418
C104	C	1.366739	0.772703	0.417751
C105	C	1.700073	1.106036	0.751085
C106	C	1.035333	0.439736	-0.083391
C107	C	1.368667	0.773069	0.249942
C108	C	1.702000	1.106402	0.583276
C109	C	1.035312	0.342790	-0.084505
C110	C	1.368645	0.676124	0.248829
C111	C	1.701979	1.009457	0.582162
C112	C	0.992235	0.206962	0.000080
C113	C	1.325568	0.540295	0.333414
C114	C	1.658902	0.873628	0.666747
C115	C	0.985960	0.563917	0.000084
C116	C	1.319293	0.897251	0.333417
C117	C	1.652626	1.230584	0.666751
N118	N	0.989146	-0.114543	-0.229817
N119	N	1.322479	0.218790	0.103516
N120	N	1.655813	0.552123	0.436849
C121	C	0.989115	-0.114553	0.589185
C122	C	1.322449	0.218781	0.922519
C123	C	1.655782	0.552114	1.255852
C124	C	0.920099	-0.183109	0.551572
C125	C	1.253432	0.150224	0.884905
C126	C	1.586765	0.483557	1.218239
C127	C	0.920257	-0.183360	0.448746
C128	C	1.253590	0.149974	0.782080
C129	C	1.586924	0.483307	1.115413
C130	C	0.989083	-0.114562	0.410981
C131	C	1.322417	0.218771	0.744314
C132	C	1.655750	0.552105	1.077648
C133	C	1.076449	-0.133641	0.448280
C134	C	1.409782	0.199692	0.781613
C135	C	1.743115	0.533025	1.114946
C136	C	1.076062	-0.134128	0.551138
C137	C	1.409395	0.199205	0.884471
C138	C	1.742728	0.532538	1.217804
C139	C	0.971546	-0.026714	0.551285
C140	C	1.304879	0.306620	0.884618
C141	C	1.638212	0.639953	1.217951
C142	C	0.969541	-0.027300	0.448421
C143	C	1.302874	0.306034	0.781754
C144	C	1.636208	0.639367	1.115088
C145	C	0.989071	-0.114565	0.310268
C146	C	1.322404	0.218768	0.643601
C147	C	1.655738	0.552101	0.976934
C148	C	0.989133	-0.114551	0.689899
C149	C	1.322467	0.218782	1.023232
C150	C	1.655800	0.552116	1.356565
H151	H	0.401678	-0.225608	-0.090006
H152	H	0.735011	0.107725	0.243328
H153	H	1.068345	0.441059	0.576661
H154	H	0.859493	0.440317	-0.060690
H155	H	1.192826	0.773650	0.272643
H156	H	1.526160	1.106983	0.605977
H157	H	1.103018	0.327431	-0.089589
H158	H	1.436351	0.660764	0.243744
H159	H	1.769684	0.994097	0.577077
H160	H	0.854949	-0.171929	0.576328
H161	H	1.188282	0.161404	0.909661
H162	H	1.521615	0.494738	1.242995
H163	H	1.103914	0.328610	0.087485
H164	H	1.437248	0.661943	0.420818
H165	H	1.770581	0.995276	0.754151
H166	H	1.016544	0.026107	0.422717
H167	H	1.349877	0.359440	0.756050
H168	H	1.683211	0.692774	1.089384
H169	H	1.092301	-0.196971	0.422511
H170	H	1.425634	0.136362	0.755845
H171	H	1.758967	0.469695	1.089178
H172	H	1.129023	-0.086164	0.576017
H173	H	1.462356	0.247170	0.909350
H174	H	1.795690	0.580503	1.242684
H175	H	0.545142	-0.230506	-0.084378
H176	H	0.878475	0.102828	0.248956
H177	H	1.211809	0.436161	0.582289
H178	H	0.931163	-0.247926	0.577411
H179	H	1.264497	0.085407	0.910744
H180	H	1.597830	0.418740	1.244077
H181	H	1.021876	0.024304	0.575608
H182	H	1.355210	0.357637	0.908941
H183	H	1.688543	0.690971	1.242274
H184	H	0.862241	0.296673	-0.060334
H185	H	1.195575	0.630006	0.273000
H186	H	1.528908	0.963339	0.606333
H187	H	0.861977	0.297224	0.060579
H188	H	1.195310	0.630557	0.393912
H189	H	1.528643	0.963891	0.727245
H190	H	0.909223	-0.008367	0.577270
H191	H	1.242556	0.324967	0.910603
H192	H	1.575889	0.658300	1.243936
H193	H	0.855317	-0.171992	0.423530
H194	H	1.188650	0.161341	0.756863
H195	H	1.521983	0.494674	1.090196
H196	H	0.578502	0.012142	0.060294
H197	H	0.911835	0.345476	0.393627
H198	H	1.245168	0.678809	0.726960
H199	H	1.000464	0.457667	0.147407
H200	H	1.333797	0.791000	0.480741
H201	H	1.667131	1.124334	0.814074
H202	H	1.129033	-0.085036	0.423815
H203	H	1.462366	0.248297	0.757149
H204	H	1.795699	0.581630	1.090482
H205	H	0.416090	-0.124793	-0.146884
H206	H	0.749423	0.208540	0.186450
H207	H	1.082756	0.541874	0.519783
H208	H	0.402543	-0.227161	0.087074
H209	H	0.735876	0.106172	0.420407
H210	H	1.069209	0.439506	0.753741
H211	H	0.433846	0.015036	-0.059858
H212	H	0.767179	0.348369	0.273475
H213	H	1.100512	0.681703	0.606808
H214	H	1.004329	0.314348	0.147055
H215	H	1.337662	0.647682	0.480388
H216	H	1.670995	0.981015	0.813721
H217	H	1.102835	0.471498	-0.083954
H218	H	1.436168	0.804832	0.249379
H219	H	1.769501	1.138165	0.582712
H220	H	0.931476	-0.248543	0.424133
H221	H	1.264810	0.084790	0.757466
H222	H	1.598143	0.418123	1.090799
H223	H	1.100622	0.471619	0.088244
H224	H	1.433955	0.804953	0.421578
H225	H	1.767288	1.138286	0.754911
H226	H	0.859629	0.441373	0.059830
H227	H	1.192963	0.774706	0.393163
H228	H	1.526296	1.108040	0.726497
H229	H	1.005414	0.460278	-0.147262
H230	H	1.338748	0.793611	0.186072
H231	H	1.672081	1.126944	0.519405
H232	H	1.002310	0.315544	-0.146845
H233	H	1.335643	0.648877	0.186489
H234	H	1.668977	0.982211	0.519822
H235	H	0.577551	0.012734	-0.060224
H236	H	0.910884	0.346067	0.273109
H237	H	1.244217	0.679400	0.606443
H238	H	1.091544	-0.198189	0.575120
H239	H	1.424878	0.135145	0.908453
H240	H	1.758211	0.468478	1.241787
H241	H	0.434402	0.014859	0.061054
H242	H	0.767736	0.348192	0.394387
H243	H	1.101069	0.681526	0.727720
H244	H	0.557954	-0.128918	0.147354
H245	H	0.891287	0.204416	0.480687
H246	H	1.224621	0.537749	0.814020
H247	H	0.545755	-0.228901	0.087844
H248	H	0.879088	0.104432	0.421177
H249	H	1.212421	0.437765	0.754511
H250	H	0.559412	-0.132921	-0.147330
H251	H	0.892746	0.200412	0.186003
H252	H	1.226079	0.533746	0.519336
H253	H	0.905274	-0.012820	0.424043
H254	H	1.238608	0.320513	0.757377
H255	H	1.571941	0.653846	1.090710
H256	H	0.414284	-0.127739	0.147008
H257	H	0.747618	0.205595	0.480341
H258	H	1.080951	0.538928	0.813675
