data_functionalizedCrystal
_audit_creation_method	'MofGen! by Chris Wilmer'
_symmetry_space_group_name_H-M	'P1'
_symmetry_Int_Tables_number	1
_symmetry_cell_setting	triclinic
loop_
_symmetry_equiv_pos_as_xyz
  x,y,z
_cell_length_a	10.540539
_cell_length_b	10.540539
_cell_length_c	9.016244
_cell_angle_alpha	89.999933
_cell_angle_beta	89.994699
_cell_angle_gamma	84.525492
loop_
_atom_site_label
_atom_site_type_symbol
_atom_site_fract_x
_atom_site_fract_y
_atom_site_fract_z
O1	O	1.685893	0.178895	-0.123263
O2	O	1.316480	0.195751	-0.123280
O3	O	1.509614	0.002617	-0.123269
O4	O	1.492759	0.372030	-0.123274
O5	O	1.509586	0.002621	0.123411
O6	O	1.316452	0.195755	0.123400
O7	O	1.685865	0.178900	0.123418
Cu8	Cu	1.501156	0.187328	0.145933
Cu9	Cu	1.501189	0.187323	-0.145795
O10	O	1.492730	0.372034	0.123407
C11	C	1.269163	0.194489	0.000058
C12	C	1.128215	0.190707	0.000051
C13	C	0.944788	0.045790	0.000628
C14	C	1.091406	0.049624	0.000057
C15	C	1.066558	0.258600	-0.140811
C16	C	0.920014	0.253785	-0.140914
C17	C	0.919493	0.256660	0.139608
C18	C	1.066475	0.257960	0.141455
C19	C	1.508336	-0.044684	0.000068
C20	C	1.504554	-0.185632	0.000060
C21	C	1.359637	-0.369059	-0.000500
C22	C	1.363471	-0.222441	0.000055
C23	C	1.572434	-0.247287	0.140930
C24	C	1.567619	-0.393832	0.141049
C25	C	1.570520	-0.394355	-0.139473
C26	C	1.571820	-0.247373	-0.141336
C27	C	1.733182	0.180161	0.000077
C28	C	1.874130	0.183943	0.000074
C29	C	1.494008	0.419335	0.000066
C30	C	1.497790	0.560283	0.000064
N31	N	1.501141	0.187331	0.351119
N32	N	1.501213	0.187310	-0.350982
C33	C	1.397510	0.290298	0.586146
C34	C	1.397739	0.290684	0.414255
C35	C	1.633864	0.217464	0.413464
C36	C	1.633298	0.218193	0.585409
C37	C	1.473367	0.053892	0.585663
C38	C	1.470322	0.054757	0.413709
H39	H	1.107425	0.208362	0.245664
C40	C	1.124099	0.194875	-0.282437
N41	N	1.167435	0.146868	-0.389107
H42	H	0.887935	0.211004	0.246381
H43	H	1.540849	-0.025564	0.370737
C44	C	1.508846	-0.436978	-0.283716
N45	N	1.462378	-0.469078	-0.392353
C46	C	1.504787	-0.192105	-0.282127
N47	N	1.454286	-0.150480	-0.388169
C48	C	1.508695	-0.189746	0.282549
N49	N	1.460678	-0.146409	0.389213
H50	H	1.304121	-0.399265	0.099949
H51	H	1.303918	-0.397661	-0.101521
H52	H	1.378630	0.025213	0.629106
C53	C	1.290780	-0.166023	0.136702
N54	N	1.236029	-0.123530	0.239631
H55	H	1.372684	0.031916	0.372962
H56	H	1.548979	-0.022762	0.626319
C57	C	1.666175	0.349700	0.639571
N58	N	1.690928	0.448758	0.680358
H59	H	1.672424	-0.441581	-0.140416
C60	C	0.906141	-0.029507	0.137099
N61	N	0.877022	-0.086222	0.239892
C62	C	1.421928	0.424406	0.358661
N63	N	1.440155	0.525130	0.316789
H64	H	1.415177	0.388722	0.629339
C65	C	1.099222	0.396912	0.152962
N66	N	1.123895	0.501574	0.161626
C67	C	1.740791	0.120829	0.641595
N68	N	1.821767	0.047510	0.683908
C69	C	0.855687	0.394325	0.140897
N70	N	0.807621	0.498009	0.141858
H71	H	0.914592	-0.009712	-0.099828
C72	C	1.710787	-0.214662	-0.152817
N73	N	1.815465	-0.190030	-0.161451
H74	H	1.133163	-0.004177	-0.101092
C75	C	1.291303	-0.164884	-0.136360
N76	N	1.236936	-0.121537	-0.239108
C77	C	1.712395	-0.217064	0.148037
N78	N	1.817811	-0.194288	0.153393
H79	H	1.299123	0.272553	0.372106
H80	H	1.134008	-0.003797	0.101034
H81	H	1.517429	-0.422030	0.246347
C82	C	1.740668	0.118898	0.358208
N83	N	1.821112	0.044656	0.316586
C84	C	1.667494	0.347486	0.355289
N85	N	1.692815	0.445425	0.311479
H86	H	0.891816	0.203602	-0.246209
H87	H	1.669083	-0.441800	0.147444
C88	C	0.855208	0.390856	-0.149584
N89	N	0.806401	0.494095	-0.156131
H90	H	1.298584	0.272446	0.627535
H91	H	1.088912	0.362208	-0.146054
