data_functionalizedCrystal
_audit_creation_method	'MofGen! by Chris Wilmer'
_symmetry_space_group_name_H-M	'P1'
_symmetry_Int_Tables_number	1
_symmetry_cell_setting	triclinic
loop_
_symmetry_equiv_pos_as_xyz
  x,y,z
_cell_length_a	18.215407
_cell_length_b	25.639240
_cell_length_c	18.215399
_cell_angle_alpha	89.962783
_cell_angle_beta	89.980167
_cell_angle_gamma	90.033205
loop_
_atom_site_label
_atom_site_type_symbol
_atom_site_fract_x
_atom_site_fract_y
_atom_site_fract_z
Zn1	Zn	1.125032	-0.208150	-0.416068
Zn2	Zn	1.124923	-0.295586	-0.292982
Zn3	Zn	1.001964	-0.208167	-0.293016
Zn4	Zn	1.001913	-0.295557	-0.416007
O5	O	1.063458	-0.251865	-0.354518
O6	O	1.228002	-0.219754	-0.399752
O7	O	1.108588	-0.284009	-0.190002
O8	O	1.018356	-0.135000	-0.309379
O9	O	1.227922	-0.283992	-0.309322
O10	O	1.108773	-0.134987	-0.399785
O11	O	1.018251	-0.219783	-0.190027
O12	O	0.898973	-0.219754	-0.309319
O13	O	1.018269	-0.283943	-0.519000
O14	O	0.898936	-0.283959	-0.399681
O15	O	1.108724	-0.219725	-0.519045
O16	O	1.108539	-0.368747	-0.309262
O17	O	1.018164	-0.368726	-0.399648
C18	C	0.872252	-0.251856	-0.354497
C19	C	0.790453	-0.251865	-0.354506
C20	C	1.063354	-0.387708	-0.354461
C21	C	1.063377	-0.445822	-0.354461
C22	C	0.602259	-0.285349	-0.401498
C23	C	0.525400	-0.285350	-0.401507
C24	C	0.525409	-0.218391	-0.307555
C25	C	0.602267	-0.218387	-0.307550
C26	C	0.640689	-0.251869	-0.354520
C27	C	0.486973	-0.251874	-0.354535
C28	C	0.403640	-0.251876	-0.354544
C29	C	0.724028	-0.251867	-0.354512
C30	C	1.110562	-0.806140	-0.401678
C31	C	1.110583	-0.860744	-0.401693
O32	O	1.150578	-0.888942	-0.441779
N33	N	1.063560	-0.888104	-0.354590
C34	C	1.016507	-0.860857	-0.307474
O35	O	0.976512	-0.889143	-0.267410
C36	C	1.016482	-0.806254	-0.307463
C37	C	1.063514	-0.778896	-0.354564
C38	C	1.157589	-0.778782	-0.448776
C39	C	1.157568	-0.724182	-0.448760
C40	C	1.110520	-0.696938	-0.401646
C41	C	1.063493	-0.724296	-0.354548
C42	C	0.969426	-0.779008	-0.260351
C43	C	0.969405	-0.724401	-0.260345
C44	C	1.016436	-0.697043	-0.307446
C45	C	1.016424	-0.642452	-0.307418
N46	N	1.063447	-0.615092	-0.354521
C47	C	1.110495	-0.642335	-0.401635
C48	C	1.016562	-0.975528	-0.307500
C49	C	1.016590	-1.030130	-0.307507
C50	C	1.110666	-1.030013	-0.401727
C51	C	1.110641	-0.975410	-0.401717
C52	C	1.063585	-0.948167	-0.354604
C53	C	1.110448	-0.527670	-0.401597
C54	C	1.110425	-0.473065	-0.401575
C55	C	1.016347	-0.473186	-0.307357
C56	C	1.016372	-0.527787	-0.307377
C57	C	1.063425	-0.555027	-0.354503
O58	O	0.976448	-0.614219	-0.267354
O59	O	1.150477	-0.614043	-0.441698
C60	C	1.255411	-0.251874	-0.354540
C61	C	1.337210	-0.251878	-0.354549
C62	C	1.063503	-0.251829	-0.546471
C63	C	1.063522	-0.251814	-0.628270
C64	C	1.063583	-0.115492	-0.354592
C65	C	1.063636	-0.057378	-0.354624
C66	C	1.110639	-0.218344	-0.816489
C67	C	1.110647	-0.218329	-0.893348
C68	C	1.016457	-0.285202	-0.893290
C69	C	1.016446	-0.285214	-0.816432
C70	C	1.063540	-0.251786	-0.778034
C71	C	1.063561	-0.251759	-0.931750
C72	C	1.063570	-0.251742	-1.015084
C73	C	1.063530	-0.251801	-0.694695
C74	C	1.063456	-0.251863	-0.163312
C75	C	1.063579	-0.251731	-0.081514
H76	H	0.494113	-0.312613	-0.439762
H77	H	0.494116	-0.191131	-0.269313
H78	H	1.148999	-0.191096	-0.924655
H79	H	0.633558	-0.191120	-0.269296
O80	O	0.639550	-0.317812	-0.447233
C81	C	0.620793	-0.306457	-0.520611
H82	H	0.599697	-0.264692	-0.524436
H83	H	0.576167	-0.334507	-0.539777
C84	C	0.714993	-0.363876	-0.565010
C85	C	0.689088	-0.312578	-0.569708
H86	H	0.757119	-0.367654	-0.595297
H87	H	0.727629	-0.371528	-0.515574
H88	H	0.677798	-0.387245	-0.580980
H89	H	0.726279	-0.289211	-0.553729
H90	H	0.676460	-0.304923	-0.619142
H91	H	0.931128	-0.801273	-0.221996
O92	O	0.970803	-1.056677	-0.261826
C93	C	0.897444	-1.043354	-0.277828
H94	H	0.893691	-1.028315	-0.336615
H95	H	0.878223	-1.011690	-0.238350
C96	C	0.852952	-1.110362	-0.197022
C97	C	0.848342	-1.091894	-0.269227
H98	H	0.822663	-1.140302	-0.191714
H99	H	0.902375	-1.119337	-0.186239
H100	H	0.836936	-1.083970	-0.164132
H101	H	0.864367	-1.118283	-0.302115
H102	H	0.798921	-1.082924	-0.280016
O103	O	1.156135	-0.446571	-0.447403
C104	C	1.197674	-0.482330	-0.488977
H105	H	1.167542	-0.521269	-0.491505
H106	H	1.253585	-0.488121	-0.462082
C107	C	1.245236	-0.413144	-0.564204
C108	C	1.208223	-0.460968	-0.567314
H109	H	1.251746	-0.399966	-0.612525
H110	H	1.217252	-0.389052	-0.536193
H111	H	1.291824	-0.417976	-0.541788
H112	H	1.161632	-0.456135	-0.589720
H113	H	1.236199	-0.485059	-0.595330
O114	O	1.156276	-0.185843	-0.779109
C115	C	1.114394	-0.152072	-0.734679
H116	H	1.058608	-0.170516	-0.723141
H117	H	1.106341	-0.113322	-0.764325
C118	C	1.223401	-0.119958	-0.675860
C119	C	1.154885	-0.142613	-0.661683
H120	H	1.248378	-0.114121	-0.630833
H121	H	1.251618	-0.142708	-0.705795
H122	H	1.216679	-0.087669	-0.700566
H123	H	1.161608	-0.174904	-0.636986
H124	H	1.126670	-0.119868	-0.631742
H125	H	1.195863	-0.701911	-0.487115
H126	H	0.931084	-0.702223	-0.221981
O127	O	0.970785	-0.317658	-0.930705
C128	C	0.980881	-0.310469	-1.006788
H129	H	1.037692	-0.293345	-1.017306
H130	H	0.937257	-0.282621	-1.028608
C131	C	0.904321	-0.384395	-1.033295
C132	C	0.974100	-0.363368	-1.046214
H133	H	0.900135	-0.417025	-1.057616
H134	H	0.897516	-0.389238	-0.982037
H135	H	0.867976	-0.361184	-1.051478
H136	H	1.010444	-0.386576	-1.028023
H137	H	0.980911	-0.358530	-1.097471
H138	H	0.978087	-0.312446	-0.785121
H139	H	1.148758	-0.549843	-0.439977
H140	H	0.978246	-0.953350	-0.269129
H141	H	1.195901	-0.800958	-0.487146
H142	H	0.978081	-0.550062	-0.269017
O143	O	1.156344	-0.948918	-0.447545
C144	C	1.197886	-0.984679	-0.489113
H145	H	1.167757	-1.023620	-0.491633
H146	H	1.253798	-0.990464	-0.462218
C147	C	1.245440	-0.915498	-0.564355
C148	C	1.208432	-0.963325	-0.567454
H149	H	1.251949	-0.902325	-0.612678
H150	H	1.217455	-0.891404	-0.536348
H151	H	1.292029	-0.920326	-0.541939
H152	H	1.161840	-0.958495	-0.589861
H153	H	1.236410	-0.987417	-0.595466
H154	H	1.148973	-1.052204	-0.440092
H155	H	0.978043	-0.450996	-0.268995
