data_functionalizedCrystal
_audit_creation_method	'MofGen! by Chris Wilmer'
_symmetry_space_group_name_H-M	'P1'
_symmetry_Int_Tables_number	1
_symmetry_cell_setting	triclinic
loop_
_symmetry_equiv_pos_as_xyz
  x,y,z
_cell_length_a	6.817900
_cell_length_b	11.102244
_cell_length_c	17.329378
_cell_angle_alpha	90.443558
_cell_angle_beta	103.025558
_cell_angle_gamma	108.604870
loop_
_atom_site_label
_atom_site_type_symbol
_atom_site_fract_x
_atom_site_fract_y
_atom_site_fract_z
V1	V	-4.032524	-0.149862	-0.245027
O2	O	-3.993066	0.033932	-0.240365
O3	O	-4.009836	-0.322859	-0.243349
O4	O	-3.974850	-0.135828	-0.351893
O5	O	-4.028294	-0.154394	-0.131070
V6	V	-4.514022	-0.129264	-0.231397
O7	O	-4.298225	-0.195045	-0.274926
O8	O	-4.698519	-0.084080	-0.201499
O9	O	-4.313504	0.043734	-0.233075
O10	O	-4.670876	-0.313058	-0.236060
O11	O	-4.635649	-0.124731	-0.345355
O12	O	-4.348489	-0.143298	-0.124532
C13	C	-3.861392	-0.365399	-0.239484
C14	C	-3.924066	-0.506751	-0.238824
C15	C	-3.916542	-0.562648	-0.166550
C16	C	-3.975443	-0.695465	-0.165939
C17	C	-4.049384	-0.716477	-0.309884
C18	C	-3.990497	-0.583663	-0.310493
C19	C	-3.850111	-0.485736	-0.094880
C20	C	-3.842581	-0.541632	-0.022600
C21	C	-3.901483	-0.674449	-0.021990
C22	C	-3.967914	-0.751370	-0.093659
C23	C	-3.816763	-0.126820	-0.377941
C24	C	-3.851062	-0.116490	-0.465304
C25	C	-3.923716	-0.226832	-0.517569
C26	C	-3.955952	-0.217124	-0.599656
C27	C	-3.915517	-0.097073	-0.629476
C28	C	-3.842862	0.013278	-0.577205
C29	C	-3.810642	0.003568	-0.495120
C30	C	-4.009984	-0.061993	-0.876759
C31	C	-4.042204	-0.052292	-0.958851
C32	C	-4.155295	-0.282695	-0.981296
C33	C	-4.123058	-0.292393	-0.899208
C34	C	-4.050417	-0.182044	-0.846944
C35	C	-3.948459	-0.087146	-0.713382
C36	C	-4.017490	-0.191971	-0.763041
C37	C	-4.125291	0.086266	-0.236939
C38	C	-4.041854	0.227618	-0.237604
C39	C	-4.169920	-0.152310	-0.098480
C40	C	-4.114858	-0.162634	-0.011116
H41	H	-4.015120	-0.306977	-0.642208
H42	H	-3.788506	-0.478996	0.035750
H43	H	-4.015887	-0.859518	-0.093157
H44	H	-3.956632	-0.324591	-0.493296
C45	C	-4.239182	-0.519197	-0.929668
C46	C	-4.168261	-0.424382	-0.866450
H47	H	-4.267314	-0.600687	-0.909447
H48	H	-4.132390	-0.507142	-0.958571
H49	H	-4.365963	-0.514074	-0.963852
H50	H	-4.041470	-0.429499	-0.832268
H51	H	-4.275060	-0.436441	-0.837533
C52	C	-3.933051	-0.389393	-0.375335
C53	C	-3.998754	-0.522209	-0.389937
H54	H	-3.938168	-0.351457	-0.424383
H55	H	-3.791315	-0.359445	-0.343361
H56	H	-4.025139	-0.367203	-0.348370
H57	H	-3.906656	-0.544399	-0.416897
H58	H	-4.140513	-0.552168	-0.421924
H59	H	-4.214443	-0.372535	-1.023858
H60	H	-3.802134	-0.377589	-0.095369
C61	C	-4.128130	0.141478	-0.968789
C62	C	-3.997801	0.079672	-0.991640
H63	H	-4.100732	0.222936	-0.989039
H64	H	-4.098525	0.151504	-0.912429
H65	H	-4.273527	0.091915	-0.989415
H66	H	-3.852403	0.129230	-0.971009
H67	H	-4.027391	0.069651	-1.048011
C68	C	-4.172461	-0.929404	-0.372859
C69	C	-4.122376	-0.801025	-0.388658
H70	H	-4.217504	-0.981596	-0.421493
H71	H	-4.283831	-0.950724	-0.345703
H72	H	-4.049996	-0.942959	-0.340676
H73	H	-4.244846	-0.787468	-0.420836
H74	H	-4.010996	-0.779697	-0.415827
C75	C	-4.080523	0.055185	-0.775232
C76	C	-3.930157	0.059311	-0.819326
H77	H	-4.031248	0.130083	-0.739779
H78	H	-4.099961	-0.017681	-0.745717
H79	H	-4.212329	0.050374	-0.810299
H80	H	-3.798355	0.064112	-0.784260
H81	H	-3.910693	0.132196	-0.848843
H82	H	-3.895368	-0.719957	0.036864
C83	C	-3.876638	0.191379	-0.454492
C84	C	-3.730772	0.124861	-0.437668
H85	H	-3.827325	0.266266	-0.419027
H86	H	-4.011464	0.138668	-0.448209
H87	H	-3.890019	0.214333	-0.507648
H88	H	-3.717403	0.101899	-0.384513
H89	H	-3.595909	0.177583	-0.443944
C90	C	-3.584084	0.218243	-0.579557
C91	C	-3.798425	0.145246	-0.609976
H92	H	-3.556657	0.299719	-0.599783
H93	H	-3.495719	0.176297	-0.595068
H94	H	-3.554526	0.228234	-0.523190
H95	H	-3.827979	0.135247	-0.666343
H96	H	-3.886817	0.187202	-0.594470
H97	H	-4.050420	-0.289717	-0.738758
H98	H	-3.915535	0.010600	-0.737671
