data_functionalizedCrystal
_audit_creation_method	'MofGen! by Chris Wilmer'
_symmetry_space_group_name_H-M	'P1'
_symmetry_Int_Tables_number	1
_symmetry_cell_setting	triclinic
loop_
_symmetry_equiv_pos_as_xyz
  x,y,z
_cell_length_a	25.639239
_cell_length_b	16.625547
_cell_length_c	16.625539
_cell_angle_alpha	89.972942
_cell_angle_beta	90.031255
_cell_angle_gamma	89.962128
loop_
_atom_site_label
_atom_site_type_symbol
_atom_site_fract_x
_atom_site_fract_y
_atom_site_fract_z
Zn1	Zn	-0.208161	-1.232590	0.456032
Zn2	Zn	0.125172	-0.899256	0.789366
Zn3	Zn	0.458505	-0.565923	1.122699
Zn4	Zn	-0.295599	-1.232455	0.321193
Zn5	Zn	0.037734	-0.899121	0.654526
Zn6	Zn	0.371068	-0.565788	0.987859
Zn7	Zn	-0.208178	-1.097751	0.321198
Zn8	Zn	0.125155	-0.764418	0.654531
Zn9	Zn	0.458488	-0.431085	0.987864
Zn10	Zn	-0.295566	-1.097684	0.455967
Zn11	Zn	0.037767	-0.764350	0.789301
Zn12	Zn	0.371100	-0.431017	1.122634
O13	O	-0.251876	-1.165120	0.388597
O14	O	0.081457	-0.831787	0.721931
O15	O	0.414791	-0.498453	1.055264
O16	O	-0.219767	-1.345404	0.438171
O17	O	0.113567	-1.012071	0.771504
O18	O	0.446900	-0.678737	1.104837
O19	O	-0.284023	-1.214558	0.208361
O20	O	0.049310	-0.881225	0.541694
O21	O	0.382643	-0.547891	0.875028
O22	O	-0.135011	-1.115723	0.339113
O23	O	0.198323	-0.782390	0.672446
O24	O	0.531656	-0.449056	1.005780
O25	O	-0.284007	-1.345305	0.339105
O26	O	0.049326	-1.011972	0.672438
O27	O	0.382660	-0.678638	1.005771
O28	O	-0.134998	-1.214788	0.438176
O29	O	0.198335	-0.881455	0.771509
O30	O	0.531668	-0.548121	1.104842
O31	O	-0.219796	-1.115592	0.208365
O32	O	0.113538	-0.782259	0.541698
O33	O	0.446871	-0.448925	0.875031
O34	O	-0.219764	-0.984910	0.339050
O35	O	0.113570	-0.651577	0.672383
O36	O	0.446903	-0.318243	1.005717
O37	O	-0.283951	-1.115607	0.568808
O38	O	0.049383	-0.782274	0.902142
O39	O	0.382716	-0.448941	1.235475
O40	O	-0.283967	-0.984860	0.438065
O41	O	0.049366	-0.651527	0.771398
O42	O	0.382699	-0.318194	1.104731
O43	O	-0.219735	-1.214722	0.568856
O44	O	0.113599	-0.881389	0.902190
O45	O	0.446932	-0.548056	1.235523
O46	O	-0.368760	-1.214492	0.339041
O47	O	-0.035427	-0.881159	0.672375
O48	O	0.297907	-0.547826	1.005708
O49	O	-0.368736	-1.115477	0.438060
O50	O	-0.035402	-0.782143	0.771393
O51	O	0.297931	-0.448810	1.104726
C52	C	-0.251864	-0.955629	0.388551
C53	C	0.081469	-0.622296	0.721885
C54	C	0.414802	-0.288962	1.055218
C55	C	-0.251872	-0.866008	0.388551
C56	C	0.081462	-0.532675	0.721884
C57	C	0.414795	-0.199341	1.055217
C58	C	-0.251872	-0.793225	0.388558
C59	C	0.081461	-0.459892	0.721891
C60	C	0.414795	-0.126559	1.055224
C61	C	-0.251874	-0.701917	0.388574
C62	C	0.081459	-0.368584	0.721908
C63	C	0.414793	-0.035250	1.055241
C64	C	-0.251878	-0.629141	0.388592
C65	C	0.081455	-0.295807	0.721925
C66	C	0.414788	0.037526	1.055259
C67	C	-0.251881	-0.537826	0.388608
C68	C	0.081452	-0.204493	0.721941
C69	C	0.414786	0.128840	1.055274
C70	C	-0.387719	-1.164984	0.388561
C71	C	-0.054385	-0.831651	0.721894
C72	C	0.278948	-0.498318	1.055227
C73	C	-0.445833	-1.165000	0.388572
C74	C	-0.112499	-0.831667	0.721905
C75	C	0.220834	-0.498333	1.055238
C76	C	-0.806196	-1.216812	0.337127
C77	C	-0.472862	-0.883479	0.670460
C78	C	-0.139529	-0.550145	1.003793
C79	C	-0.860800	-1.216843	0.337137
C80	C	-0.527467	-0.883510	0.670471
C81	C	-0.194133	-0.550176	1.003804
O82	O	-0.889037	-1.260755	0.293356
O83	O	-0.555703	-0.927421	0.626690
O84	O	-0.222370	-0.594088	0.960023
N85	N	-0.888115	-1.165262	0.388651
N86	N	-0.554782	-0.831928	0.721984
N87	N	-0.221449	-0.498595	1.055318
C88	C	-0.860823	-1.113651	0.440163
C89	C	-0.527490	-0.780318	0.773496
C90	C	-0.194156	-0.446985	1.106830
O91	O	-0.889071	-1.069781	0.483981
O92	O	-0.555737	-0.736447	0.817314
O93	O	-0.222404	-0.403114	1.150647
C94	C	-0.806220	-1.113625	0.440156
C95	C	-0.472886	-0.780291	0.773489
C96	C	-0.139553	-0.446958	1.106822
C97	C	-0.778908	-1.165204	0.388633
C98	C	-0.445574	-0.831870	0.721966
C99	C	-0.112241	-0.498537	1.055299
C100	C	-0.778883	-1.268387	0.285609
C101	C	-0.445550	-0.935054	0.618942
C102	C	-0.112217	-0.601721	0.952275
C103	C	-0.724283	-1.268355	0.285597
C104	C	-0.390950	-0.935022	0.618930
C105	C	-0.057616	-0.601688	0.952264
C106	C	-0.696995	-1.216747	0.337103
C107	C	-0.363661	-0.883413	0.670437
C108	C	-0.030328	-0.550080	1.003770
C109	C	-0.724307	-1.165171	0.388621
C110	C	-0.390974	-0.831838	0.721954
C111	C	-0.057640	-0.498505	1.055288
C112	C	-0.778929	-1.062019	0.491671
C113	C	-0.445595	-0.728686	0.825004
C114	C	-0.112262	-0.395352	1.158338
C115	C	-0.724322	-1.061997	0.491660
C116	C	-0.390988	-0.728664	0.824993
C117	C	-0.057655	-0.395331	1.158326
C118	C	-0.697009	-1.113576	0.440137
C119	C	-0.363676	-0.780243	0.773470
C120	C	-0.030343	-0.446910	1.106804
C121	C	-0.642418	-1.113531	0.440116
C122	C	-0.309085	-0.780197	0.773449
C123	C	0.024248	-0.446864	1.106782
N124	N	-0.615103	-1.165112	0.388602
N125	N	-0.281770	-0.831779	0.721936
N126	N	0.051563	-0.498446	1.055269
C127	C	-0.642391	-1.216720	0.337096
C128	C	-0.309058	-0.883387	0.670429
C129	C	0.024275	-0.550054	1.003763
C130	C	-0.975494	-1.113712	0.440175
C131	C	-0.642160	-0.780379	0.773509
C132	C	-0.308827	-0.447045	1.106842
C133	C	-1.030096	-1.113734	0.440179
C134	C	-0.696763	-0.780401	0.773513
C135	C	-0.363429	-0.447067	1.106846
C136	C	-1.030069	-1.216927	0.337154
C137	C	-0.696736	-0.883594	0.670488
C138	C	-0.363403	-0.550260	1.003821
C139	C	-0.975466	-1.216900	0.337147
C140	C	-0.642133	-0.883567	0.670480
C141	C	-0.308799	-0.550234	1.003814
C142	C	-0.948179	-1.165294	0.388662
C143	C	-0.614845	-0.831960	0.721995
C144	C	-0.281512	-0.498627	1.055328
C145	C	-0.527726	-1.216648	0.337075
C146	C	-0.194393	-0.883314	0.670408
C147	C	0.138940	-0.549981	1.003742
C148	C	-0.473121	-1.216608	0.337065
C149	C	-0.139788	-0.883275	0.670399
C150	C	0.193546	-0.549941	1.003732
C151	C	-0.473153	-1.113418	0.440093
C152	C	-0.139819	-0.780085	0.773426
C153	C	0.193514	-0.446752	1.106759
C154	C	-0.527753	-1.113454	0.440100
C155	C	-0.194420	-0.780121	0.773433
C156	C	0.138914	-0.446788	1.106766
C157	C	-0.555039	-1.165076	0.388588
C158	C	-0.221705	-0.831742	0.721921
C159	C	0.111628	-0.498409	1.055255
O160	O	-0.614147	-1.069644	0.483877
O161	O	-0.280814	-0.736310	0.817210
O162	O	0.052520	-0.402977	1.150544
O163	O	-0.614137	-1.260591	0.293293
O164	O	-0.280804	-0.927258	0.626626
O165	O	0.052529	-0.593924	0.959960
C166	C	-0.115503	-1.165278	0.388652
C167	C	0.217830	-0.831945	0.721986
C168	C	0.551164	-0.498611	1.055319
C169	C	-0.057389	-1.165345	0.388676
C170	C	0.275944	-0.832012	0.722009
C171	C	0.609278	-0.498679	1.055342
C172	C	-0.251837	-1.165172	0.598906
C173	C	0.081496	-0.831839	0.932240
C174	C	0.414829	-0.498506	1.265573
C175	C	-0.251821	-1.165195	0.688528
C176	C	0.081513	-0.831861	1.021861
C177	C	0.414846	-0.498528	1.355194
C178	C	-0.251886	-0.375429	0.388635
C179	C	0.081447	-0.042095	0.721968
C180	C	0.414780	0.291238	1.055301
C181	C	-0.251885	-0.465050	0.388625
C182	C	0.081448	-0.131717	0.721959
C183	C	0.414781	0.201617	1.055292
C184	C	-0.251877	-1.165114	0.179107
C185	C	0.081456	-0.831781	0.512440
C186	C	0.414789	-0.498447	0.845773
C187	C	-0.251747	-1.165248	0.089486
C188	C	0.081587	-0.831915	0.422819
C189	C	0.414920	-0.498581	0.756153
C190	C	-0.251762	-1.165232	1.016704
C191	C	0.081571	-0.831899	1.350037
C192	C	0.414905	-0.498565	1.683370
C193	C	-0.251780	-1.165219	0.925395
C194	C	0.081553	-0.831886	1.258728
C195	C	0.414887	-0.498553	1.592062
C196	C	-0.251792	-1.165214	0.852618
C197	C	0.081542	-0.831880	1.185952
C198	C	0.414875	-0.498547	1.519285
C199	C	-0.251809	-1.165200	0.761304
C200	C	0.081524	-0.831867	1.094637
C201	C	0.414858	-0.498534	1.427971
H202	H	-0.450885	-1.258610	0.295107
H203	H	-0.117552	-0.925277	0.628440
H204	H	0.215782	-0.591943	0.961773
F205	F	-1.059121	-1.271852	0.282335
F206	F	-0.725788	-0.938519	0.615669
F207	F	-0.392454	-0.605186	0.949002
F208	F	-0.444101	-1.058498	0.494909
F209	F	-0.110768	-0.725165	0.828242
F210	F	0.222566	-0.391832	1.161575
F211	F	-0.556822	-1.058544	0.494921
F212	F	-0.223489	-0.725210	0.828254
F213	F	0.109845	-0.391877	1.161587
H214	H	-0.702048	-1.310357	0.243645
H215	H	-0.368715	-0.977024	0.576979
H216	H	-0.035382	-0.643691	0.910312
F217	F	-0.946457	-1.058776	0.495002
F218	F	-0.613124	-0.725442	0.828336
F219	F	-0.279791	-0.392109	1.161669
H220	H	-1.052329	-1.071725	0.482127
H221	H	-0.718996	-0.738392	0.815460
H222	H	-0.385662	-0.405059	1.148793
F223	F	-0.946403	-1.271798	0.282311
F224	F	-0.613070	-0.938464	0.615644
F225	F	-0.279736	-0.605131	0.948977
H226	H	-0.549936	-1.258684	0.295131
H227	H	-0.216602	-0.925351	0.628464
H228	H	0.116731	-0.592018	0.961798
H229	H	-0.801096	-1.310417	0.243666
H230	H	-0.467762	-0.977084	0.576999
H231	H	-0.134429	-0.643751	0.910332
F232	F	-0.807985	-1.007127	0.546517
F233	F	-0.474651	-0.673794	0.879850
F234	F	-0.141318	-0.340461	1.213183
F235	F	-0.695284	-1.007070	0.546492
F236	F	-0.361950	-0.673737	0.879825
F237	F	-0.028617	-0.340403	1.213159
