data_functionalizedCrystal
_audit_creation_method	'MofGen! by Chris Wilmer'
_symmetry_space_group_name_H-M	'P1'
_symmetry_Int_Tables_number	1
_symmetry_cell_setting	triclinic
loop_
_symmetry_equiv_pos_as_xyz
  x,y,z
_cell_length_a	10.686220
_cell_length_b	13.032721
_cell_length_c	13.032328
_cell_angle_alpha	103.288501
_cell_angle_beta	100.919786
_cell_angle_gamma	100.973619
loop_
_atom_site_label
_atom_site_type_symbol
_atom_site_fract_x
_atom_site_fract_y
_atom_site_fract_z
Zn1	Zn	1.792164	-0.368522	-0.523920
Zn2	Zn	1.792024	-0.523620	-0.368880
Zn3	Zn	1.607733	-0.359455	-0.359748
Zn4	Zn	1.544911	-0.564091	-0.564383
O5	O	1.684208	-0.453922	-0.454233
O6	O	1.972747	-0.375954	-0.490242
O7	O	1.793810	-0.481111	-0.217143
O8	O	1.658548	-0.210108	-0.360771
O9	O	1.972644	-0.489903	-0.376334
O10	O	1.794049	-0.216770	-0.481387
O11	O	1.658412	-0.360500	-0.210434
O12	O	1.418798	-0.399743	-0.400006
O13	O	1.551477	-0.558880	-0.709541
O14	O	1.372643	-0.550088	-0.550350
O15	O	1.733133	-0.415197	-0.679813
O16	O	1.732894	-0.679538	-0.415569
O17	O	1.551341	-0.709272	-0.559205
C18	C	1.348892	-0.478324	-0.478579
C19	C	1.205433	-0.488793	-0.489023
C20	C	1.635316	-0.733441	-0.492790
C21	C	1.614512	-0.853017	-0.509312
C22	C	1.695126	-0.891583	-0.445653
C23	C	1.673626	-1.015171	-0.462728
C24	C	2.020833	-0.429426	-0.429793
C25	C	2.164283	-0.418987	-0.419378
C26	C	1.635313	-0.492564	-0.734798
C27	C	1.614477	-0.509031	-0.854359
C28	C	1.733322	-0.173312	-0.415547
C29	C	1.754251	-0.053732	-0.399061
C30	C	1.673549	-0.462304	-1.016525
C31	C	1.695079	-0.445277	-0.892953
C32	C	1.733001	-0.415347	-0.174743
C33	C	1.754140	-0.398559	-0.055123
H34	H	1.238802	-0.351215	-0.351761
H35	H	1.130906	-0.556575	-0.556638
F36	F	1.806150	-0.815154	-0.357899
H37	H	1.588690	-1.073646	-0.529878
F38	F	1.865154	-0.310741	-0.978745
H39	H	1.839196	-0.995259	-0.331919
F40	F	1.503500	-0.929447	-0.597077
H41	H	1.588610	-0.529482	-1.074963
H42	H	1.780016	-0.378087	-0.834517
H43	H	1.529523	-0.576207	-0.912792
