data_functionalizedCrystal
_audit_creation_method	'MofGen! by Chris Wilmer'
_symmetry_space_group_name_H-M	'P1'
_symmetry_Int_Tables_number	1
_symmetry_cell_setting	triclinic
loop_
_symmetry_equiv_pos_as_xyz
  x,y,z
_cell_length_a	12.759401
_cell_length_b	12.759400
_cell_length_c	12.759393
_cell_angle_alpha	90.027853
_cell_angle_beta	90.020938
_cell_angle_gamma	90.015808
loop_
_atom_site_label
_atom_site_type_symbol
_atom_site_fract_x
_atom_site_fract_y
_atom_site_fract_z
Zn1	Zn	1.606269	-0.418173	0.594039
Zn2	Zn	1.606162	-0.593888	0.418368
Zn3	Zn	1.430568	-0.418229	0.418375
Zn4	Zn	1.430561	-0.593815	0.594005
O5	O	1.518390	-0.506026	0.506197
O6	O	1.753276	-0.441489	0.570748
O7	O	1.582827	-0.570641	0.271347
O8	O	1.453923	-0.271200	0.441694
O9	O	1.753197	-0.570587	0.441682
O10	O	1.583010	-0.271159	0.570754
O11	O	1.453819	-0.441584	0.271353
O12	O	1.283546	-0.441513	0.441661
O13	O	1.453912	-0.570461	0.741031
O14	O	1.283541	-0.570516	0.570696
O15	O	1.583004	-0.441418	0.741056
O16	O	1.582820	-0.740900	0.441649
O17	O	1.453807	-0.740846	0.570689
C18	C	1.245423	-0.506013	0.506176
C19	C	1.128646	-0.506033	0.506192
C20	C	1.518330	-0.778993	0.506187
C21	C	1.518400	-0.895770	0.506218
C22	C	1.073809	-0.573307	0.573274
C23	C	0.964085	-0.573311	0.573295
C24	C	0.964045	-0.438764	0.439142
C25	C	1.073767	-0.438756	0.439127
C26	C	1.451209	-0.950642	0.573356
C27	C	1.451264	-1.060366	0.573366
C28	C	1.585712	-1.060336	0.439097
C29	C	1.585650	-0.950614	0.439083
C30	C	1.383958	-0.895798	0.640492
C31	C	1.316762	-0.950670	0.707636
C32	C	1.316818	-1.060394	0.707646
C33	C	1.384070	-1.115246	0.640512
C34	C	1.792423	-0.506040	0.506218
C35	C	1.909200	-0.506046	0.506227
C36	C	1.518469	-0.505925	0.780230
C37	C	1.518502	-0.505882	0.897007
C38	C	1.518479	-0.231993	0.506229
C39	C	1.518517	-0.115216	0.506243
C40	C	1.518372	-0.506051	0.233229
C41	C	1.518542	-0.505798	0.116453
C42	C	1.585725	-0.438679	0.951884
C43	C	1.585743	-0.438633	1.061608
C44	C	1.451312	-0.573004	1.061569
C45	C	1.451289	-0.573044	0.951846
H46	H	1.118489	-0.628086	0.627886
H47	H	0.919442	-0.628090	0.627922
C48	C	1.659562	-0.890243	0.365236
C49	C	1.651060	-0.905403	0.245794
C50	C	1.724970	-0.845030	0.171943
C51	C	1.807381	-0.769495	0.217535
C52	C	1.815886	-0.754332	0.336984
C53	C	1.741977	-0.814705	0.410834
H54	H	1.590052	-0.961321	0.212038
H55	H	1.718673	-0.856255	0.083519
H56	H	1.862093	-0.724803	0.162866
H57	H	1.876894	-0.698414	0.370739
H58	H	1.748273	-0.803480	0.499259
C59	C	1.659693	-1.120670	0.365262
C60	C	1.659767	-1.241360	0.365281
C61	C	1.733752	-1.301692	0.291448
C62	C	1.807664	-1.241335	0.217595
C63	C	1.807593	-1.120638	0.217573
C64	C	1.733607	-1.060306	0.291407
H65	H	1.605050	-1.286046	0.419954
H66	H	1.733804	-1.391040	0.291464
H67	H	1.862433	-1.285996	0.162939
H68	H	1.862310	-1.075952	0.162901
H69	H	1.733555	-0.970958	0.291390
H70	H	0.919349	-0.383991	0.384538
C71	C	1.659649	-0.364795	0.891558
C72	C	1.651113	-0.245353	0.906658
C73	C	1.725036	-0.171465	0.846335
C74	C	1.807493	-0.217018	0.770914
C75	C	1.816032	-0.336466	0.755811
C76	C	1.742110	-0.410355	0.816133
H77	H	1.590070	-0.211627	0.962492
H78	H	1.718714	-0.083041	0.857516
H79	H	1.862215	-0.162322	0.726260
H80	H	1.877076	-0.370193	0.699977
H81	H	1.748431	-0.498778	0.804953
C82	C	1.377389	-0.646887	1.121895
C83	C	1.377414	-0.646853	1.242585
C84	C	1.303491	-0.720741	1.302908
C85	C	1.229544	-0.794662	1.242542
C86	C	1.229517	-0.794699	1.121845
C87	C	1.303439	-0.720812	1.061522
H88	H	1.432156	-0.592130	1.287278
H89	H	1.303512	-0.720713	1.392256
H90	H	1.174823	-0.849358	1.287197
H91	H	1.174774	-0.849423	1.077152
H92	H	1.303418	-0.720839	0.972173
H93	H	1.262098	-1.105068	0.762312
C94	C	1.377331	-0.646969	0.891478
C95	C	1.294847	-0.601451	0.816048
C96	C	1.220885	-0.675367	0.755682
C97	C	1.229408	-0.794800	0.770745
C98	C	1.311896	-0.840324	0.846178
C99	C	1.385857	-0.766408	0.906545
H100	H	1.288535	-0.513034	0.804895
H101	H	1.159822	-0.641666	0.699841
H102	H	1.174657	-0.849517	0.726058
H103	H	1.318208	-0.928741	0.857332
H104	H	1.446920	-0.800109	0.962385
H105	H	1.118416	-0.383967	0.384500
H106	H	1.383908	-0.806455	0.640493
H107	H	1.262002	-0.906004	0.762289
H108	H	1.384107	-1.204591	0.640523
H109	H	1.640481	-0.383908	1.106284
