data_functionalizedCrystal
_audit_creation_method	'MofGen! by Chris Wilmer'
_symmetry_space_group_name_H-M	'P1'
_symmetry_Int_Tables_number	1
_symmetry_cell_setting	triclinic
loop_
_symmetry_equiv_pos_as_xyz
  x,y,z
_cell_length_a	19.188930
_cell_length_b	27.732048
_cell_length_c	18.266242
_cell_angle_alpha	89.988683
_cell_angle_beta	89.977082
_cell_angle_gamma	82.893716
loop_
_atom_site_label
_atom_site_type_symbol
_atom_site_fract_x
_atom_site_fract_y
_atom_site_fract_z
O1	O	0.925764	0.060348	-0.061124
O2	O	1.425764	0.560348	0.438876
O3	O	0.722401	0.068472	-0.061075
O4	O	1.222401	0.568472	0.438925
O5	O	0.830399	-0.005968	-0.061087
O6	O	1.330399	0.494032	0.438913
O7	O	0.817767	0.134787	-0.061112
O8	O	1.317767	0.634787	0.438888
O9	O	0.830381	-0.005971	0.060675
O10	O	1.330381	0.494029	0.560675
O11	O	0.722383	0.068468	0.060687
O12	O	1.222383	0.568468	0.560687
O13	O	0.925746	0.060344	0.060638
O14	O	1.425746	0.560344	0.560638
Zn15	Zn	0.824062	0.064405	0.079995
Zn16	Zn	1.324062	0.564405	0.579995
Zn17	Zn	0.824086	0.064410	-0.080432
Zn18	Zn	1.324086	0.564410	0.419568
O19	O	0.817749	0.134783	0.060650
O20	O	1.317749	0.634783	0.560650
C21	C	0.696383	0.068207	-0.000187
C22	C	1.196383	0.568207	0.499813
C23	C	0.618883	0.067417	-0.000168
C24	C	1.118883	0.567417	0.499832
C25	C	0.573681	0.111096	-0.000187
C26	C	1.073681	0.611096	0.499813
C27	C	0.500862	0.110354	-0.000195
C28	C	1.000862	0.610354	0.499805
C29	C	0.473249	0.065931	-0.000199
C30	C	0.973249	0.565931	0.499801
C31	C	0.518461	0.022246	-0.000175
C32	C	1.018461	0.522246	0.499825
C33	C	0.591278	0.022990	-0.000160
C34	C	1.091278	0.522990	0.499840
N35	N	0.365491	0.031976	-0.041663
N36	N	0.865491	0.531976	0.458337
N37	N	0.296317	0.031273	-0.041679
N38	N	0.796317	0.531273	0.458321
C39	C	0.253854	0.063689	-0.000243
C40	C	0.753854	0.563689	0.499757
N41	N	0.283177	0.096842	0.041201
N42	N	0.783177	0.596842	0.541201
N43	N	0.352358	0.097546	0.041213
N44	N	0.852358	0.597546	0.541213
C45	C	0.394291	0.065120	-0.000215
C46	C	0.894291	0.565120	0.499785
C47	C	0.129692	0.106566	-0.000270
C48	C	0.629692	0.606566	0.499730
C49	C	0.056872	0.105822	-0.000273
C50	C	0.556872	0.605822	0.499727
C51	C	0.074473	0.017714	-0.000261
C52	C	0.574473	0.517714	0.499739
C53	C	0.147292	0.018459	-0.000250
C54	C	0.647292	0.518459	0.499750
C55	C	0.174897	0.062886	-0.000258
C56	C	0.674897	0.562886	0.499742
C57	C	0.830125	-0.023977	-0.000204
C58	C	1.330125	0.476023	0.499796
C59	C	0.829326	-0.077635	-0.000198
C60	C	1.329326	0.422365	0.499802
C61	C	0.888119	-0.416270	-0.000250
C62	C	1.388119	0.083730	0.499750
C63	C	0.885157	-0.617939	-0.000259
C64	C	1.385157	-0.117939	0.499741
O65	O	0.938918	-0.649030	-0.000304
O66	O	1.438918	-0.149030	0.499696
N67	N	0.821118	-0.637258	-0.000243
N68	N	1.321118	-0.137258	0.499757
C69	C	0.757816	-0.606157	-0.000229
C70	C	1.257816	-0.106157	0.499771
O71	O	0.703280	-0.627217	-0.000223
O72	O	1.203280	-0.127217	0.499777
C73	C	0.760780	-0.404489	-0.000225
C74	C	1.260780	0.095511	0.499775
C75	C	0.824822	-0.385173	-0.000234
C76	C	1.324822	0.114827	0.499766
C77	C	0.952156	-0.396953	-0.000259
C78	C	1.452156	0.103047	0.499741
C79	C	0.952896	-0.346539	-0.000253
C80	C	1.452896	0.153461	0.499747
C81	C	0.889599	-0.315441	-0.000237
C82	C	1.389599	0.184559	0.499763
C83	C	0.825562	-0.334759	-0.000227
C84	C	1.325562	0.165241	0.499773
C85	C	0.697478	-0.373389	-0.000216
C86	C	1.197478	0.126611	0.499784
C87	C	0.698225	-0.322969	-0.000217
C88	C	1.198225	0.177031	0.499783
C89	C	0.762267	-0.303653	-0.000226
C90	C	1.262267	0.196347	0.499774
C91	C	0.763005	-0.253247	-0.000205
C92	C	1.263005	0.246753	0.499795
N93	N	0.827043	-0.233928	-0.000221
N94	N	1.327043	0.266072	0.499779
C95	C	0.890340	-0.265025	-0.000237
C96	C	1.390340	0.234975	0.499763
C97	C	0.756265	-0.712036	-0.000230
C98	C	1.256265	-0.212036	0.499770
C99	C	0.755524	-0.762452	-0.000230
C100	C	1.255524	-0.262452	0.499770
C101	C	0.882865	-0.774231	-0.000261
C102	C	1.382865	-0.274231	0.499739
C103	C	0.883605	-0.723813	-0.000256
C104	C	1.383605	-0.223813	0.499744
C105	C	0.820303	-0.692716	-0.000246
C106	C	1.320303	-0.192716	0.499754
C107	C	0.891889	-0.159151	-0.000223
C108	C	1.391889	0.340849	0.499777
C109	C	0.892623	-0.108732	-0.000214
C110	C	1.392623	0.391268	0.499786
C111	C	0.765283	-0.096958	-0.000186
C112	C	1.265283	0.403042	0.499814
C113	C	0.764549	-0.147373	-0.000192
C114	C	1.264549	0.352627	0.499808
C115	C	0.827857	-0.178468	-0.000213
C116	C	1.327857	0.321532	0.499787
O117	O	0.709272	-0.222127	-0.000168
O118	O	1.209272	0.277873	0.499832
O119	O	0.944868	-0.243956	-0.000259
O120	O	1.444868	0.256044	0.499741
C121	C	0.887379	-0.466684	-0.000256
C122	C	1.387379	0.033316	0.499744
C123	C	0.823342	-0.486001	-0.000246
C124	C	1.323342	0.013999	0.499754
C125	C	0.760045	-0.454904	-0.000230
C126	C	1.260045	0.045096	0.499770
C127	C	0.822601	-0.536418	-0.000246
C128	C	1.322601	-0.036418	0.499754
C129	C	0.885898	-0.567515	-0.000262
C130	C	1.385898	-0.067515	0.499738
C131	C	0.949936	-0.548195	-0.000278
C132	C	1.449936	-0.048195	0.499722
C133	C	0.950676	-0.497781	-0.000272
C134	C	1.450676	0.002219	0.499728
C135	C	0.696007	-0.474223	-0.000214
C136	C	1.196007	0.025777	0.499786
C137	C	0.695272	-0.524638	-0.000220
C138	C	1.195272	-0.024638	0.499780
C139	C	0.758569	-0.555735	-0.000236
C140	C	1.258569	-0.055735	0.499764
C141	C	0.951765	0.060609	-0.000251
C142	C	1.451765	0.560609	0.499749
C143	C	1.029264	0.061399	-0.000275
C144	C	1.529264	0.561399	0.499725
C145	C	0.818023	0.152793	-0.000235
C146	C	1.318023	0.652793	0.499765
C147	C	0.818821	0.206450	-0.000246
C148	C	1.318821	0.706450	0.499754
N149	N	0.824051	0.064402	0.189482
N150	N	1.324051	0.564402	0.689482
N151	N	0.824103	0.064410	-0.189919
N152	N	1.324103	0.564410	0.310081
C153	C	0.871887	0.031456	0.227785
C154	C	1.371887	0.531456	0.727785
C155	C	0.871892	0.031454	0.304430
C156	C	1.371892	0.531454	0.804430
C157	C	0.824066	0.064406	0.342769
C158	C	1.324066	0.564406	0.842769
C159	C	0.776220	0.097354	0.304456
C160	C	1.276220	0.597354	0.804456
C161	C	0.776213	0.097352	0.227813
C162	C	1.276213	0.597352	0.727813
N163	N	0.814718	0.107196	0.463095
N164	N	1.314718	0.607196	0.963095
N165	N	0.814729	0.107196	0.535903
N166	N	1.314729	0.607196	1.035903
C167	C	0.824086	0.064413	0.573691
C168	C	1.324086	0.564413	1.073691
N169	N	0.833444	0.021627	0.535921
N170	N	1.333444	0.521627	1.035921
N171	N	0.833436	0.021628	0.463106
N172	N	1.333436	0.521628	0.963106
C173	C	0.824069	0.064411	0.425876
C174	C	1.324069	0.564411	0.925876
C175	C	0.871930	0.031462	0.695102
C176	C	1.371930	0.531462	1.195102
C177	C	0.871929	0.031459	0.771748
C178	C	1.371929	0.531459	1.271748
C179	C	0.776261	0.097363	0.771772
C180	C	1.276261	0.597363	1.271772
C181	C	0.776258	0.097362	0.695127
C182	C	1.276258	0.597362	1.195127
C183	C	0.824096	0.064412	0.656797
C184	C	1.324096	0.564412	1.156797
H185	H	0.944776	-0.093007	-0.000219
H186	H	1.444776	0.406993	0.499781
H187	H	0.495974	-0.013923	-0.000188
H188	H	0.995974	0.486077	0.499812
H189	H	0.943441	-0.184464	-0.000243
H190	H	1.443441	0.315536	0.499757
H191	H	0.646676	-0.297652	-0.000210
H192	H	1.146676	0.202348	0.499790
H193	H	1.005046	-0.330816	-0.000263
H194	H	1.505046	0.169184	0.499737
H195	H	0.628083	-0.012580	-0.000145
H196	H	1.128083	0.487420	0.499855
H197	H	0.704714	-0.686720	-0.000222
H198	H	1.204714	-0.186720	0.499778
H199	H	0.737308	0.124191	0.663939
H200	H	1.237308	0.624191	1.163939
H201	H	0.152169	0.142741	-0.000266
H202	H	0.652169	0.642741	0.499734
H203	H	0.051991	-0.018456	-0.000309
H204	H	0.551991	0.481544	0.499691
H205	H	0.596152	0.147272	-0.000195
H206	H	1.096152	0.647272	0.499805
H207	H	0.020068	0.141392	-0.000285
H208	H	0.520068	0.641392	0.499715
H209	H	0.737257	0.124181	0.196625
H210	H	1.237257	0.624181	0.696625
H211	H	0.713749	-0.071630	-0.000171
H212	H	1.213749	0.428370	0.499829
H213	H	0.910880	0.004630	0.663892
H214	H	1.410880	0.504630	1.163892
H215	H	0.184097	-0.017109	-0.000238
H216	H	0.684097	0.482891	0.499762
H217	H	1.003703	-0.422268	-0.000275
H218	H	1.503703	0.077732	0.499725
H219	H	1.002826	-0.482059	-0.000279
H220	H	1.502826	0.017941	0.499721
H221	H	0.464051	0.145923	-0.000209
H222	H	0.964051	0.645923	0.499791
H223	H	0.935754	-0.708089	-0.000264
H224	H	1.435754	-0.208089	0.499736
H225	H	0.934404	-0.799559	-0.000274
H226	H	1.434404	-0.299559	0.499726
H227	H	0.703375	-0.778175	-0.000210
H228	H	1.203375	-0.278175	0.499790
H229	H	0.645328	-0.389107	-0.000214
H230	H	1.145328	0.110893	0.499786
H231	H	0.910882	0.004628	0.802935
H232	H	1.410882	0.504628	1.302935
H233	H	0.712400	-0.163101	-0.000164
H234	H	1.212400	0.336899	0.499836
H235	H	1.001475	-0.573524	-0.000288
H236	H	1.501475	-0.073524	0.499712
H237	H	0.643117	-0.540360	-0.000206
H238	H	1.143117	-0.040360	0.499794
H239	H	0.644461	-0.448908	-0.000203
H240	H	1.144461	0.051092	0.499797
H241	H	0.737279	0.124183	0.335675
H242	H	1.237279	0.624183	0.835675
H243	H	0.910838	0.004625	0.196579
H244	H	1.410838	0.504625	0.696579
H245	H	0.910847	0.004625	0.335623
H246	H	1.410847	0.504625	0.835623
H247	H	0.737318	0.124191	0.802987
H248	H	1.237318	0.624191	1.302987
