data_functionalizedCrystal
_audit_creation_method	'MofGen! by Chris Wilmer'
_symmetry_space_group_name_H-M	'P1'
_symmetry_Int_Tables_number	1
_symmetry_cell_setting	triclinic
loop_
_symmetry_equiv_pos_as_xyz
  x,y,z
_cell_length_a	8.497374
_cell_length_b	19.077105
_cell_length_c	19.077068
_cell_angle_alpha	89.884684
_cell_angle_beta	92.284024
_cell_angle_gamma	92.300019
loop_
_atom_site_label
_atom_site_type_symbol
_atom_site_fract_x
_atom_site_fract_y
_atom_site_fract_z
Zn1	Zn	1.016648	1.062860	0.323110
Zn2	Zn	0.762970	1.058079	0.440586
Zn3	Zn	0.741875	0.945387	0.318369
Zn4	Zn	1.015701	0.940595	0.435851
O5	O	0.884299	1.001730	0.379479
O6	O	0.992222	1.160556	0.342659
O7	O	0.539410	1.043135	0.424372
O8	O	0.769893	0.964977	0.220667
O9	O	0.805846	1.157044	0.428968
O10	O	0.971767	1.051283	0.224150
O11	O	0.523911	0.960341	0.334579
O12	O	0.768974	0.846421	0.329988
O13	O	1.236588	0.956809	0.420898
O14	O	0.970152	0.842901	0.416301
O15	O	1.237285	1.046636	0.338067
O16	O	0.804927	1.038488	0.538289
O17	O	0.990607	0.952173	0.534810
C18	C	0.867172	0.819165	0.372117
C19	C	0.859884	0.741062	0.368984
C20	C	0.961050	0.702552	0.412519
C21	C	0.954209	0.629166	0.409566
C22	C	0.846193	0.594292	0.363082
C23	C	0.745023	0.632808	0.319542
C24	C	0.751873	0.706192	0.322492
C25	C	0.814499	0.375011	0.349430
C26	C	0.807654	0.301621	0.346485
C27	C	1.016843	0.297985	0.436509
C28	C	1.023677	0.371371	0.439457
C29	C	0.922512	0.409880	0.395915
N30	N	0.839195	0.519280	0.360064
N31	N	0.929519	0.484891	0.398930
C32	C	0.899989	0.994311	0.562047
C33	C	0.906761	0.991201	0.640152
C34	C	1.295778	1.001725	0.379480
C35	C	1.474423	1.001726	0.379487
C36	C	0.901493	1.185009	0.386870
C37	C	0.908820	1.263111	0.390020
C38	C	0.868583	1.009198	0.196199
C39	C	0.861886	1.012380	0.118097
C40	C	0.813355	1.034715	0.678636
C41	C	0.819734	1.031794	0.752025
C42	C	0.919510	0.985356	0.786928
C43	C	1.012926	0.941841	0.748439
C44	C	1.006555	0.944765	0.675052
C45	C	0.948930	0.971789	1.006221
C46	C	0.955291	0.968866	1.079613
C47	C	0.762100	1.058821	1.083193
C48	C	0.755730	1.061739	1.009804
C49	C	0.849152	1.018226	0.971322
N50	N	0.926029	0.982368	0.861943
N51	N	0.842641	1.021218	0.896309
H52	H	1.099208	0.266623	0.471957
O53	O	0.702679	0.267855	0.301264
C54	C	0.614830	0.317579	0.263476
H55	H	0.684132	0.369992	0.263188
H56	H	0.497849	0.324336	0.289434
C57	C	0.498157	0.227592	0.187880
C58	C	0.583280	0.291965	0.187520
H59	H	0.478688	0.211791	0.141027
H60	H	0.557337	0.194091	0.213339
H61	H	0.400683	0.233231	0.209515
H62	H	0.680760	0.286323	0.165894
H63	H	0.524115	0.325464	0.162055
O64	O	0.658786	1.106918	0.976013
C65	C	0.577685	1.144688	1.025717
H66	H	0.647066	1.145009	1.078114
H67	H	0.456089	1.118695	1.032527
C68	C	0.474413	1.220234	0.935674
C69	C	0.559635	1.220633	1.000029
H70	H	0.463271	1.267080	0.919828
H71	H	0.529047	1.194786	0.902187
H72	H	0.373092	1.198569	0.941359
H73	H	0.660960	1.242289	0.994342
H74	H	0.505017	1.246087	1.033515
O75	O	0.728838	1.074088	0.789299
C76	C	0.639428	1.115711	0.742756
H77	H	0.626678	1.089013	0.689310
H78	H	0.701609	1.169371	0.737042
C79	C	0.490647	1.157547	0.837474
C80	C	0.474976	1.124753	0.771832
H81	H	0.389208	1.163128	0.855410
H82	H	0.550888	1.129507	0.868832
H83	H	0.542471	1.202260	0.832703
H84	H	0.423172	1.080038	0.776605
H85	H	0.414723	1.152786	0.740476
H86	H	1.049004	0.730941	0.450374
H87	H	0.732112	0.406356	0.313981
O88	O	1.039706	0.929442	0.968951
C89	C	1.129149	0.887836	1.015497
H90	H	1.068843	0.883353	1.067728
H91	H	1.252103	0.913204	1.024291
C92	C	1.216290	0.819682	0.919759
C93	C	1.142215	0.814171	0.983908
H94	H	1.224358	0.774242	0.900273
H95	H	1.156037	0.847714	0.888399
H96	H	1.318745	0.840824	0.927096
H97	H	1.039756	0.793037	0.976569
H98	H	1.202452	0.786133	1.015266
O99	O	0.640149	0.598822	0.274445
C100	C	0.655821	0.525793	0.281163
H101	H	0.711007	0.513569	0.335026
H102	H	0.734475	0.506665	0.238708
C103	C	0.424367	0.503384	0.206933
C104	C	0.492134	0.488371	0.273091
H105	H	0.323399	0.480299	0.201951
H106	H	0.413810	0.552585	0.202404
H107	H	0.489927	0.487444	0.171561
H108	H	0.426584	0.504319	0.308461
H109	H	0.502675	0.439171	0.277626
H110	H	1.094174	0.904033	0.776864
O111	O	1.052316	0.923851	1.113603
C112	C	1.161718	0.962133	1.157602
H113	H	1.112114	1.014968	1.170701
H114	H	1.276914	0.970938	1.129608
C115	C	1.253544	0.855793	1.209698
C116	C	1.192614	0.920684	1.225791
H117	H	1.272609	0.830224	1.251759
H118	H	1.179843	0.830000	1.180053
H119	H	1.349534	0.863139	1.186368
H120	H	1.096617	0.913336	1.249113
H121	H	1.266301	0.946474	1.255442
H122	H	1.036588	0.597814	0.445018
O123	O	1.128696	0.405323	0.484514
C124	C	1.231291	0.449385	0.446282
H125	H	1.172285	0.462541	0.393435
H126	H	1.344926	0.421418	0.437502
C127	C	1.342034	0.501364	0.552673
C128	C	1.269557	0.517527	0.487768
H129	H	1.365645	0.543396	0.578264
H130	H	1.272919	0.471677	0.578431
H131	H	1.436721	0.478056	0.545347
H132	H	1.174861	0.540826	0.495094
H133	H	1.338657	0.547219	0.462011
O134	O	0.653430	0.743496	0.280180
C135	C	0.556645	0.696981	0.238508
H136	H	0.548671	0.643500	0.265182
H137	H	0.609295	0.691347	0.184866
C138	C	0.400365	0.791711	0.196655
C139	C	0.390560	0.726027	0.229419
H140	H	0.297918	0.809628	0.191045
H141	H	0.465574	0.823049	0.224727
H142	H	0.444246	0.787007	0.151957
H143	H	0.346698	0.730733	0.274120
H144	H	0.325340	0.694689	0.201354
O145	O	1.097347	0.902428	0.637773
C146	C	1.186813	0.860826	0.684315
H147	H	1.126502	0.856326	0.736543
H148	H	1.309750	0.886209	0.693115
C149	C	1.274015	0.792702	0.588568
C150	C	1.199933	0.787169	0.652714
H151	H	1.282116	0.747268	0.569074
H152	H	1.213746	0.820731	0.557211
H153	H	1.376456	0.813857	0.595911
H154	H	1.097488	0.766023	0.645369
H155	H	1.260186	0.759135	0.684069
H156	H	0.732099	1.072527	0.650222
H157	H	0.686043	1.094248	1.114533
