data_functionalizedCrystal
_audit_creation_method	'MofGen! by Chris Wilmer'
_symmetry_space_group_name_H-M	'P1'
_symmetry_Int_Tables_number	1
_symmetry_cell_setting	triclinic
loop_
_symmetry_equiv_pos_as_xyz
  x,y,z
_cell_length_a	10.723024
_cell_length_b	22.010155
_cell_length_c	10.723024
_cell_angle_alpha	90.005470
_cell_angle_beta	95.532131
_cell_angle_gamma	90.008235
loop_
_atom_site_label
_atom_site_type_symbol
_atom_site_fract_x
_atom_site_fract_y
_atom_site_fract_z
O1	O	1.657197	0.050520	-0.175010
O2	O	1.294045	0.050521	-0.191763
O3	O	1.483998	0.050518	-0.001810
O4	O	1.467245	0.050523	-0.364963
O5	O	1.483963	-0.050532	-0.001839
O6	O	1.294011	-0.050529	-0.191792
O7	O	1.657163	-0.050531	-0.175038
Cu8	Cu	1.475584	-0.059757	-0.183418
Cu9	Cu	1.475624	0.059747	-0.183384
O10	O	1.467210	-0.050528	-0.364991
C11	C	1.247528	-0.000003	-0.190558
C12	C	1.108974	-0.000003	-0.186911
N13	N	1.475564	-0.143809	-0.183441
C14	C	1.033991	-0.000001	-0.293198
C15	C	0.890788	-0.000000	-0.289431
C16	C	1.559741	-0.563590	-0.099285
C17	C	1.559746	-0.627197	-0.099277
O18	O	1.631266	-0.660090	-0.027740
N19	N	1.475623	-0.659016	-0.183358
C20	C	1.391481	-0.627224	-0.267445
O21	O	1.319928	-0.660129	-0.338961
C22	C	1.391470	-0.563617	-0.267446
C23	C	1.475607	-0.531802	-0.183368
C24	C	1.643870	-0.531774	-0.015213
C25	C	1.643865	-0.468171	-0.015223
C26	C	1.559732	-0.436383	-0.099306
C27	C	1.475603	-0.468199	-0.183378
C28	C	1.307322	-0.531826	-0.351526
C29	C	1.307318	-0.468216	-0.351520
C30	C	1.391455	-0.436400	-0.267441
C31	C	1.391465	-0.372808	-0.267472
N32	N	1.475587	-0.340989	-0.183390
C33	C	1.559721	-0.372777	-0.099307
C34	C	1.391508	-0.760802	-0.267434
C35	C	1.391524	-0.824407	-0.267439
C36	C	1.559788	-0.824376	-0.099269
C37	C	1.559778	-0.760770	-0.099271
C38	C	1.475631	-0.728983	-0.183352
C39	C	1.559706	-0.239206	-0.099336
C40	C	1.559698	-0.175597	-0.099358
C41	C	1.391429	-0.175633	-0.267523
C42	C	1.391442	-0.239236	-0.267507
C43	C	1.475585	-0.271021	-0.183403
O44	O	1.319978	-0.339875	-0.338968
O45	O	1.631251	-0.339864	-0.027792
C46	C	1.703680	-0.000005	-0.176243
C47	C	1.842234	-0.000001	-0.179891
C48	C	1.482762	-0.000006	0.044675
C49	C	1.479114	-0.000004	0.183229
N50	N	1.475654	0.143800	-0.183351
C51	C	1.468447	-0.000002	-0.411477
C52	C	1.472094	0.000000	-0.550031
C53	C	1.585401	-0.000004	0.258212
C54	C	1.581634	-0.000002	0.401415
H55	H	0.826355	0.000004	-0.380421
H56	H	0.906659	0.000001	-0.088896
O57	O	1.083810	-0.000108	-0.405123
C58	C	1.043578	-0.052433	-0.473440
H59	H	1.015821	-0.089013	-0.406110
H60	H	1.122958	-0.070000	-0.527101
H61	H	0.959426	-0.040598	-0.542352
H62	H	1.679187	-0.000008	0.216390
H63	H	1.385328	0.000000	0.225051
O64	O	1.059240	0.000078	-0.074942
C65	C	1.099416	0.052420	-0.006654
H66	H	1.190048	0.069868	-0.041304
H67	H	1.116451	0.040650	0.097120
H68	H	1.024240	0.089067	-0.020554
O69	O	1.641475	-0.144786	-0.017557
C70	C	1.715750	-0.186488	0.056637
H71	H	1.664575	-0.231832	0.058516
H72	H	1.733939	-0.168103	0.156124
H73	H	1.808793	-0.193249	0.015270
H74	H	1.672624	-0.000004	0.465848
O75	O	1.363448	0.000081	0.373246
C76	C	1.293524	0.052426	0.396495
H77	H	1.323210	0.069875	0.494998
H78	H	1.189516	0.040657	0.388099
H79	H	1.311303	0.089071	0.325189
H80	H	1.712373	-0.442271	0.053244
O81	O	1.641499	-0.270141	-0.017813
C82	C	1.719084	-0.306919	-0.085338
H83	H	1.670214	-0.316470	-0.182528
H84	H	1.738404	-0.351636	-0.033411
H85	H	1.811369	-0.282391	-0.094677
O86	O	1.725660	-0.562714	0.066298
C87	C	1.803247	-0.599487	-0.001236
H88	H	1.754375	-0.609036	-0.098426
H89	H	1.822576	-0.644206	0.050684
H90	H	1.895529	-0.574956	-0.010574
O91	O	1.641547	-0.729961	-0.017471
C92	C	1.715826	-0.771665	0.056711
H93	H	1.664655	-0.817011	0.058579
H94	H	1.734015	-0.753286	0.156202
H95	H	1.808869	-0.778422	0.015340
O96	O	1.225468	-0.562628	-0.433244
C97	C	1.151236	-0.520919	-0.507462
H98	H	1.149407	-0.475578	-0.456275
H99	H	1.051738	-0.539299	-0.525583
H100	H	1.192534	-0.514154	-0.600541
O101	O	1.309629	-0.855281	-0.348997
C102	C	1.185933	-0.839731	-0.327599
H103	H	1.184476	-0.822242	-0.227679
H104	H	1.123423	-0.881564	-0.341382
H105	H	1.149874	-0.802815	-0.396432
O106	O	1.309949	-0.729860	-0.349186
C107	C	1.377427	-0.693079	-0.426814
H108	H	1.474642	-0.683530	-0.377998
H109	H	1.325496	-0.648361	-0.446101
H110	H	1.386708	-0.717603	-0.519112
O111	O	1.225454	-0.437312	-0.433031
C112	C	1.147918	-0.400509	-0.365502
H113	H	1.144980	-0.419667	-0.267061
H114	H	1.049166	-0.399803	-0.415508
H115	H	1.186908	-0.352298	-0.359334
O116	O	1.309593	-0.270052	-0.349223
C117	C	1.235357	-0.228352	-0.423461
H118	H	1.233530	-0.183004	-0.372297
H119	H	1.135860	-0.246733	-0.441567
H120	H	1.276651	-0.221599	-0.516546
H121	H	1.628293	-0.850269	-0.030802
H122	H	1.322932	-0.149742	-0.335986
