data_functionalizedCrystal
_audit_creation_method	'MofGen! by Chris Wilmer'
_symmetry_space_group_name_H-M	'P1'
_symmetry_Int_Tables_number	1
_symmetry_cell_setting	triclinic
loop_
_symmetry_equiv_pos_as_xyz
  x,y,z
_cell_length_a	13.033291
_cell_length_b	12.759400
_cell_length_c	12.759393
_cell_angle_alpha	90.031564
_cell_angle_beta	82.789850
_cell_angle_gamma	82.815298
loop_
_atom_site_label
_atom_site_type_symbol
_atom_site_fract_x
_atom_site_fract_y
_atom_site_fract_z
Zn1	Zn	1.597796	0.214380	-0.798418
Zn2	Zn	2.097796	0.714380	-0.298418
Zn3	Zn	1.597691	0.390112	-0.622724
Zn4	Zn	2.097691	0.890112	-0.122724
Zn5	Zn	1.423023	0.236730	-0.600395
Zn6	Zn	1.923023	0.736730	-0.100395
Zn7	Zn	1.423012	0.412314	-0.776016
Zn8	Zn	1.923012	0.912314	-0.276016
O9	O	1.510380	0.313384	-0.699388
O10	O	2.010380	0.813384	-0.199388
O11	O	1.744028	0.219047	-0.793832
O12	O	2.244028	0.719047	-0.293832
O13	O	1.574481	0.369828	-0.472736
O14	O	2.074481	0.869828	0.027264
O15	O	1.446256	0.086738	-0.626694
O16	O	1.946256	0.586738	-0.126694
O17	O	1.743951	0.348156	-0.664751
O18	O	2.243951	0.848156	-0.164751
O19	O	1.574660	0.070318	-0.772180
O20	O	2.074660	0.570318	-0.272180
O21	O	1.446154	0.257138	-0.456331
O22	O	1.946154	0.757138	0.043669
O23	O	1.276775	0.278666	-0.604971
O24	O	1.776775	0.778666	-0.104971
O25	O	1.446236	0.385996	-0.926014
O26	O	1.946236	0.885996	-0.426014
O27	O	1.276767	0.407667	-0.733999
O28	O	1.776767	0.907667	-0.233999
O29	O	1.574649	0.240575	-0.942472
O30	O	2.074649	0.740575	-0.442472
O31	O	1.574470	0.540085	-0.643028
O32	O	2.074470	1.040085	-0.143028
O33	O	1.446135	0.556396	-0.755651
O34	O	1.946135	1.056396	-0.255651
C35	C	1.238851	0.348002	-0.664632
C36	C	1.738851	0.848002	-0.164632
C37	C	1.122689	0.362837	-0.649788
C38	C	1.622689	0.862837	-0.149788
C39	C	0.950882	0.320991	-0.691802
C40	C	1.450882	0.820991	-0.191802
C41	C	1.070941	0.305661	-0.707144
C42	C	1.570941	0.805661	-0.207144
C43	C	1.510318	0.586359	-0.699358
C44	C	2.010318	1.086359	-0.199358
C45	C	1.510387	0.703127	-0.699393
C46	C	2.010387	1.203127	-0.199393
C47	C	1.510453	0.313269	-0.973431
C48	C	2.010453	0.813269	-0.473431
C49	C	1.510485	0.313220	-1.090212
C50	C	2.010485	0.813220	-0.590212
C51	C	1.782970	0.278632	-0.734281
C52	C	2.282970	0.778632	-0.234281
C53	C	1.899132	0.263823	-0.749150
C54	C	2.399132	0.763823	-0.249150
C55	C	1.510471	0.039339	-0.699445
C56	C	2.010471	0.539339	-0.199445
C57	C	1.510510	-0.077442	-0.699469
C58	C	2.010510	0.422558	-0.199469
C59	C	1.577286	0.749451	-0.640834
C60	C	2.077286	1.249451	-0.140834
C61	C	1.577350	0.859167	-0.640875
C62	C	2.077350	1.359167	-0.140875
C63	C	1.443608	0.876226	-0.758035
C64	C	1.943608	1.376226	-0.258035
C65	C	1.443550	0.766511	-0.757999
C66	C	1.943550	1.266511	-0.257999
C67	C	1.654498	0.739604	-0.573189
C68	C	2.154498	1.239604	-0.073189
C69	C	1.654562	0.849320	-0.573230
C70	C	2.154562	1.349320	-0.073230
C71	C	1.577358	0.237491	-1.153647
C72	C	2.077358	0.737491	-0.653647
C73	C	1.577383	0.237450	-1.263374
C74	C	2.077383	0.737450	-0.763374
C75	C	1.443657	0.388875	-1.246221
C76	C	1.943657	0.888875	-0.746221
C77	C	1.443628	0.388911	-1.136496
C78	C	1.943628	0.888911	-0.636496
C79	C	1.654567	0.150070	-1.163551
C80	C	2.154567	0.650070	-0.663551
C81	C	1.654592	0.150029	-1.273278
C82	C	2.154592	0.650029	-0.773278
C83	C	1.510367	0.313415	-0.426419
C84	C	2.010367	0.813415	0.073581
C85	C	1.510539	0.313143	-0.309665
C86	C	2.010539	0.813143	0.190335
H87	H	1.389085	0.728795	-0.805693
H88	H	1.889085	1.228795	-0.305693
Cl89	Cl	1.773240	0.179959	-1.126177
Cl90	Cl	2.273240	0.679959	-0.626177
H91	H	1.078117	0.423135	-0.589329
H92	H	1.578117	0.923135	-0.089329
H93	H	1.632913	0.071468	-1.131024
H94	H	2.132913	0.571468	-0.631024
H95	H	0.943710	0.203525	-0.809600
H96	H	1.443710	0.703525	-0.309600
H97	H	1.389223	0.450498	-1.283919
H98	H	1.889223	0.950498	-0.783919
Cl99	Cl	1.609730	0.036454	-1.320115
Cl100	Cl	2.109730	0.536454	-0.820115
H101	H	1.389192	0.927846	-0.805751
H102	H	1.889192	1.427846	-0.305751
Cl103	Cl	1.359538	0.484101	-1.056749
Cl104	Cl	1.859538	0.984101	-0.556749
Cl105	Cl	0.882066	0.414077	-0.598455
Cl106	Cl	1.382066	0.914077	-0.098455
H107	H	1.735534	0.161496	-1.313413
H108	H	2.235534	0.661496	-0.813413
H109	H	1.735413	0.699424	-0.605393
H110	H	2.235413	1.199424	-0.105393
Cl111	Cl	1.139753	0.212559	-0.800483
Cl112	Cl	1.639753	0.712559	-0.300483
H113	H	1.731459	0.873455	-0.612280
H114	H	2.231459	1.373455	-0.112280
Cl115	Cl	1.621180	0.899692	-0.443318
Cl116	Cl	2.121180	1.399692	0.056682
Cl117	Cl	1.609744	0.692892	-0.448089
Cl118	Cl	2.109744	1.192892	0.051911
