data_functionalizedCrystal
_audit_creation_method	'MofGen! by Chris Wilmer'
_symmetry_space_group_name_H-M	'P1'
_symmetry_Int_Tables_number	1
_symmetry_cell_setting	triclinic
loop_
_symmetry_equiv_pos_as_xyz
  x,y,z
_cell_length_a	16.625546
_cell_length_b	15.297475
_cell_length_c	15.296720
_cell_angle_alpha	88.382886
_cell_angle_beta	80.357530
_cell_angle_gamma	80.324704
loop_
_atom_site_label
_atom_site_type_symbol
_atom_site_fract_x
_atom_site_fract_y
_atom_site_fract_z
Zn1	Zn	-0.627523	1.253404	0.726565
Zn2	Zn	-0.127523	1.753404	1.226565
Zn3	Zn	-0.743625	1.278668	0.580074
Zn4	Zn	-0.243625	1.778668	1.080074
Zn5	Zn	-0.582227	1.132282	0.554808
Zn6	Zn	-0.082227	1.632282	1.054808
Zn7	Zn	-0.735700	1.106894	0.701203
Zn8	Zn	-0.235700	1.606894	1.201203
O9	O	-0.672269	1.192812	0.640662
O10	O	-0.172269	1.692812	1.140662
O11	O	-0.665198	1.379334	0.728320
O12	O	-0.165198	1.879334	1.228320
O13	O	-0.706576	1.280447	0.454149
O14	O	-0.206576	1.780447	0.954149
O15	O	-0.475417	1.148401	0.577632
O16	O	0.024583	1.648401	1.077632
O17	O	-0.750498	1.397894	0.620694
O18	O	-0.250498	1.897894	1.120694
O19	O	-0.508696	1.237389	0.703821
O20	O	-0.008696	1.737389	1.203821
O21	O	-0.587997	1.172898	0.435586
O22	O	-0.087997	1.672898	0.935586
O23	O	-0.580312	1.006336	0.553039
O24	O	-0.080312	1.506336	1.053039
O25	O	-0.736989	1.105131	0.827141
O26	O	-0.236989	1.605131	1.327141
O27	O	-0.693068	0.987683	0.660595
O28	O	-0.193068	1.487683	1.160595
O29	O	-0.657513	1.212772	0.845774
O30	O	-0.157513	1.712772	1.345774
O31	O	-0.855392	1.255829	0.596102
O32	O	-0.355392	1.755829	1.096102
O33	O	-0.849569	1.129628	0.685095
O34	O	-0.349569	1.629628	1.185095
C35	C	-0.630915	0.965226	0.601324
C36	C	-0.130915	1.465226	1.101324
C37	C	-0.613246	0.867861	0.584516
C38	C	-0.113246	1.367861	1.084516
C39	C	-0.798559	0.554716	0.760796
C40	C	-0.298559	1.054716	1.260796
C41	C	-0.815166	0.646196	0.776586
C42	C	-0.315166	1.146196	1.276586
C43	C	-0.764687	0.701616	0.728570
C44	C	-0.264687	1.201616	1.228570
C45	C	-0.697599	0.665548	0.664761
C46	C	-0.197599	1.165548	1.164761
C47	C	-0.680995	0.574060	0.648965
C48	C	-0.180995	1.074060	1.148965
C49	C	-0.647123	0.720961	0.616739
C50	C	-0.147123	1.220961	1.116739
C51	C	-0.580034	0.684892	0.552930
C52	C	-0.080034	1.184892	1.052930
C53	C	-0.563433	0.593412	0.537137
C54	C	-0.063433	1.093412	1.037137
C55	C	-0.613911	0.537992	0.585153
C56	C	-0.113911	1.037992	1.085153
C57	C	-0.663727	0.812449	0.632535
C58	C	-0.163727	1.312449	1.132535
C59	C	-0.546163	0.831793	0.520704
C60	C	-0.046163	1.331793	1.020704
C61	C	-0.529556	0.740313	0.504914
C62	C	-0.029556	1.240313	1.004914
C63	C	-0.881740	1.192735	0.640611
C64	C	-0.381740	1.692735	1.140611
C65	C	-0.971371	1.192778	0.640633
C66	C	-0.471371	1.692778	1.140633
C67	C	-1.299586	1.192915	0.640750
C68	C	-0.799586	1.692915	1.140750
C69	C	-1.208266	1.192873	0.640720
C70	C	-0.708266	1.692873	1.140720
C71	C	-1.135481	1.192845	0.640691
C72	C	-0.635481	1.692845	1.140691
C73	C	-1.044156	1.192805	0.640661
C74	C	-0.544156	1.692805	1.140661
C75	C	-0.461986	1.192909	0.640737
C76	C	0.038014	1.692909	1.140737
C77	C	-0.372377	1.192951	0.640769
C78	C	0.127623	1.692951	1.140769
C79	C	-0.701420	1.153301	0.869128
C80	C	-0.201420	1.653301	1.369128
C81	C	-0.713842	1.136464	0.966487
C82	C	-0.213842	1.636464	1.466487
C83	C	-0.713785	1.421286	0.680155
C84	C	-0.213785	1.921286	1.180155
C85	C	-0.731476	1.518648	0.696984
C86	C	-0.231476	2.018648	1.196984
C87	C	-0.643182	1.232219	0.413094
C88	C	-0.143182	1.732219	0.913094
C89	C	-0.630564	1.249226	0.315765
C90	C	-0.130564	1.749226	0.815765
C91	C	-0.583349	1.313182	1.279731
C92	C	-0.083349	1.813182	1.779731
C93	C	-0.571680	1.329006	1.188259
C94	C	-0.071680	1.829006	1.688259
C95	C	-0.607219	1.280872	1.132811
C96	C	-0.107219	1.780872	1.632811
C97	C	-0.654430	1.216911	1.168845
C98	C	-0.154430	1.716911	1.668845
C99	C	-0.666105	1.201089	1.260327
C100	C	-0.166105	1.701089	1.760327
C101	C	-0.689976	1.168779	1.113407
C102	C	-0.189976	1.668779	1.613407
C103	C	-0.737187	1.104818	1.149441
C104	C	-0.237187	1.604818	1.649441
C105	C	-0.748860	1.088999	1.240914
C106	C	-0.248860	1.588999	1.740914
C107	C	-0.713320	1.137133	1.296362
C108	C	-0.213320	1.637133	1.796362
C109	C	-0.678300	1.184601	1.021925
C110	C	-0.178300	1.684601	1.521925
C111	C	-0.761057	1.072508	1.002521
C112	C	-0.261057	1.572508	1.502521
C113	C	-0.772726	1.056684	1.093994
C114	C	-0.272726	1.556684	1.593994
H115	H	-0.600392	0.463500	0.572302
H116	H	-0.100392	0.963500	1.072302
O117	O	-0.632309	1.246624	0.986953
O118	O	-0.132309	1.746624	1.486953
C119	C	-0.551341	1.223660	1.006054
C120	C	-0.051341	1.723660	1.506054
H121	H	-0.537765	1.149334	1.019103
H122	H	-0.037765	1.649334	1.519103
H123	H	-0.505200	1.241631	0.947221
H124	H	-0.005200	1.741631	1.447221
H125	H	-0.545582	1.261445	1.067284
H126	H	-0.045582	1.761445	1.567284
H127	H	-0.787310	1.036924	1.270251
H128	H	-0.287310	1.536924	1.770251
O129	O	-0.728811	0.847419	0.694638
O130	O	-0.228811	1.347419	1.194638
C131	C	-0.718414	0.809962	0.778110
C132	C	-0.218414	1.309962	1.278110
H133	H	-0.650025	0.784048	0.778319
H134	H	-0.150025	1.284048	1.278319
H135	H	-0.741863	0.862646	0.831762
H136	H	-0.241863	1.362646	1.331762
H137	H	-0.754945	0.752904	0.791748
H138	H	-0.254945	1.252904	1.291748
H139	H	-0.811165	1.004605	1.123345
H140	H	-0.311165	1.504605	1.623345
H141	H	-0.508812	0.564050	0.485171
H142	H	-0.008812	1.064050	0.985171
H143	H	-0.533243	1.381086	1.158927
H144	H	-0.033243	1.881086	1.658927
H145	H	-0.474932	0.710933	0.452960
H146	H	0.025068	1.210933	0.952960
H147	H	-0.554423	1.352371	1.324884
H148	H	-0.054423	1.852371	1.824884
H149	H	-0.505060	0.876917	0.481604
H150	H	-0.005060	1.376917	0.981604
O151	O	-0.795720	1.025832	0.948724
O152	O	-0.295720	1.525832	1.448724
C153	C	-0.882402	1.041056	0.974366
C154	C	-0.382402	1.541056	1.474366
H155	H	-0.902398	1.106682	1.011610
H156	H	-0.402398	1.606682	1.511610
H157	H	-0.913181	1.043899	0.912886
H158	H	-0.413181	1.543899	1.412886
H159	H	-0.901720	0.984899	1.019336
H160	H	-0.401720	1.484899	1.519336
O161	O	-0.780909	0.790456	0.744047
O162	O	-0.280909	1.290456	1.244047
C163	C	-0.850957	0.810410	0.810646
C164	C	-0.350957	1.310410	1.310646
H165	H	-0.859287	0.748849	0.852697
H166	H	-0.359287	1.248849	1.352697
H167	H	-0.842034	0.865868	0.854505
H168	H	-0.342034	1.365868	1.354505
H169	H	-0.908193	0.832648	0.778593
H170	H	-0.408193	1.332648	1.278593
H171	H	-0.839656	0.509586	0.799878
H172	H	-0.339656	1.009586	1.299878
O173	O	-0.880341	0.681081	0.838625
O174	O	-0.380341	1.181081	1.338625
C175	C	-0.921346	0.612555	0.877603
C176	C	-0.421346	1.112555	1.377603
H177	H	-0.876885	0.546817	0.869447
H178	H	-0.376885	1.046817	1.369447
H179	H	-0.943653	0.627068	0.951164
H180	H	-0.443653	1.127068	1.451164
H181	H	-0.976656	0.608367	0.843719
H182	H	-0.476656	1.108367	1.343719
H183	H	-0.722819	1.124252	1.370847
H184	H	-0.222819	1.624252	1.870847
O185	O	-0.595769	1.296321	1.043969
O186	O	-0.095769	1.796321	1.543969
C187	C	-0.546495	1.363110	1.024056
C188	C	-0.046495	1.863110	1.524056
H189	H	-0.508353	1.366288	1.078914
H190	H	-0.008353	1.866288	1.578914
H191	H	-0.503285	1.347276	0.958303
H192	H	-0.003285	1.847276	1.458303
H193	H	-0.588000	1.429771	1.018849
H194	H	-0.088000	1.929771	1.518849
