data_functionalizedCrystal
_audit_creation_method	'MofGen! by Chris Wilmer'
_symmetry_space_group_name_H-M	'P1'
_symmetry_Int_Tables_number	1
_symmetry_cell_setting	triclinic
loop_
_symmetry_equiv_pos_as_xyz
  x,y,z
_cell_length_a	16.959454
_cell_length_b	13.033291
_cell_length_c	13.032268
_cell_angle_alpha	90.920764
_cell_angle_beta	82.849649
_cell_angle_gamma	97.190157
loop_
_atom_site_label
_atom_site_type_symbol
_atom_site_fract_x
_atom_site_fract_y
_atom_site_fract_z
Zn1	Zn	-0.245916	1.498447	0.781492
Zn2	Zn	-0.359507	1.520183	0.609523
Zn3	Zn	-0.241742	1.348308	0.587667
Zn4	Zn	-0.392459	1.326432	0.759565
O5	O	-0.309906	1.423343	0.684562
O6	O	-0.248941	1.645250	0.777003
O7	O	-0.328349	1.515635	0.462715
O8	O	-0.131682	1.368283	0.613408
O9	O	-0.332396	1.661219	0.650659
O10	O	-0.134749	1.478590	0.755810
O11	O	-0.241827	1.389359	0.446657
O12	O	-0.273778	1.201486	0.592147
O13	O	-0.388556	1.330998	0.906383
O14	O	-0.384509	1.185414	0.718439
O15	O	-0.280892	1.457377	0.922492
O16	O	-0.474492	1.494423	0.629397
O17	O	-0.498701	1.352075	0.739632
C18	C	-0.332267	1.156134	0.650543
C19	C	-0.341855	1.041817	0.636013
C20	C	-0.314825	0.864788	0.677137
C21	C	-0.304917	0.982940	0.692153
C22	C	-0.515278	1.423259	0.684533
C23	C	-0.603132	1.423312	0.684568
C24	C	-0.987231	1.349318	0.741966
C25	C	-0.961965	1.497640	0.627299
C26	C	-0.879421	1.497605	0.627284
C27	C	-0.850779	1.423425	0.684611
C28	C	-0.904680	1.349279	0.741952
C29	C	-0.825513	1.571743	0.569937
C30	C	-0.742964	1.571711	0.569919
C31	C	-0.714320	1.497534	0.627253
C32	C	-0.768227	1.423386	0.684596
C33	C	-0.739585	1.349206	0.741923
C34	C	-0.793491	1.275061	0.799273
C35	C	-0.876037	1.275102	0.799285
C36	C	-0.631775	1.497493	0.627241
C37	C	-0.657034	1.349167	0.741908
C38	C	-0.103733	1.423452	0.684616
C39	C	-0.015874	1.423499	0.684640
C40	C	-0.338866	1.389323	0.952795
C41	C	-0.351206	1.374826	1.067100
C42	C	-0.287458	1.691595	0.718715
C43	C	-0.277892	1.805908	0.733268
C44	C	-0.280997	1.457289	0.417380
C45	C	-0.268417	1.471985	0.303101
C46	C	-0.303438	1.430893	1.126031
C47	C	-0.316192	1.415911	1.244171
H48	H	-0.238934	0.842971	0.792437
Br49	Br	-0.435104	1.276322	1.128772
Br50	Br	-0.219513	1.529357	1.064354
H51	H	-1.031125	1.288954	0.788663
Br52	Br	-0.618169	1.248495	0.819722
Br53	Br	-0.400093	1.317402	1.305839
Br54	Br	-0.406781	0.980064	0.537370
H55	H	-0.218071	1.531076	1.266097
Br56	Br	-1.000837	1.598307	0.549500
Br57	Br	-0.949197	1.174487	0.877110
H58	H	-0.353776	0.827726	0.617959
H59	H	-0.265956	1.019998	0.751325
H60	H	-0.770161	1.214659	0.845944
H61	H	-0.848840	1.632130	0.523256
Br62	Br	-0.669814	1.672339	0.492098
Br63	Br	-0.558621	1.598096	0.549399
