data_functionalizedCrystal
_audit_creation_method	'MofGen! by Chris Wilmer'
_symmetry_space_group_name_H-M	'P1'
_symmetry_Int_Tables_number	1
_symmetry_cell_setting	triclinic
loop_
_symmetry_equiv_pos_as_xyz
  x,y,z
_cell_length_a	12.759401
_cell_length_b	18.101395
_cell_length_c	12.759393
_cell_angle_alpha	89.966214
_cell_angle_beta	89.978999
_cell_angle_gamma	90.032837
loop_
_atom_site_label
_atom_site_type_symbol
_atom_site_fract_x
_atom_site_fract_y
_atom_site_fract_z
Zn1	Zn	1.606134	-0.294749	-0.594042
Zn2	Zn	1.605979	-0.418612	-0.418357
Zn3	Zn	1.430436	-0.294792	-0.418374
Zn4	Zn	1.430374	-0.418557	-0.593990
O5	O	1.518231	-0.356677	-0.506191
O6	O	1.753134	-0.311185	-0.570752
O7	O	1.582653	-0.402227	-0.271338
O8	O	1.453834	-0.191153	-0.441705
O9	O	1.753020	-0.402186	-0.441677
O10	O	1.582918	-0.191122	-0.570768
O11	O	1.453683	-0.311258	-0.271350
O12	O	1.283407	-0.311205	-0.441655
O13	O	1.453728	-0.402093	-0.741018
O14	O	1.283362	-0.402135	-0.570679
O15	O	1.582858	-0.311132	-0.741057
O16	O	1.582593	-0.522237	-0.441626
O17	O	1.453578	-0.522197	-0.570663
C18	C	1.245263	-0.356669	-0.506164
C19	C	1.128487	-0.356683	-0.506177
C20	C	1.518090	-0.549088	-0.506160
C21	C	1.518126	-0.631402	-0.506182
C22	C	0.963904	-0.404102	-0.573290
C23	C	1.073628	-0.404101	-0.573261
C24	C	1.073616	-0.309270	-0.439110
C25	C	0.963894	-0.309275	-0.439134
C26	C	0.963911	-0.458850	-0.650745
C27	C	1.073635	-0.458849	-0.650716
C28	C	1.518357	-0.930493	-0.506238
C29	C	1.437372	-0.899174	-0.587626
C30	C	1.436987	-0.813556	-0.587372
C31	C	1.518242	-0.782111	-0.506211
C32	C	1.488262	-0.813271	-0.395485
C33	C	1.487740	-0.898917	-0.395972
C34	C	1.629499	-0.898832	-0.534602
C35	C	1.628846	-0.813181	-0.537030
C36	C	1.518180	-0.698251	-0.506189
C37	C	1.518417	-1.014352	-0.506253
C38	C	1.792264	-0.356686	-0.506218
C39	C	1.909041	-0.356690	-0.506230
C40	C	1.518304	-0.356602	-0.780224
C41	C	1.518335	-0.356569	-0.897001
C42	C	1.518401	-0.163516	-0.506245
C43	C	1.518473	-0.081201	-0.506268
C44	C	1.451228	-0.309174	-1.061602
C45	C	1.451202	-0.309195	-0.951878
C46	C	1.585506	-0.403921	-0.951854
C47	C	1.585536	-0.403896	-1.061576
C48	C	1.373686	-0.254487	-1.061615
C49	C	1.373659	-0.254508	-0.951890
C50	C	1.518219	-0.356700	-0.233223
C51	C	1.518391	-0.356523	-0.116447
H52	H	1.118291	-0.270666	-0.384482
H53	H	1.545392	-0.792905	-0.333191
H54	H	1.406495	-0.918963	-0.371945
H55	H	1.692376	-0.791771	-0.482072
H56	H	1.292265	-0.269868	-0.922098
C57	C	1.113952	-0.438178	-0.760674
H58	H	1.056076	-0.429670	-0.805912
H59	H	1.155298	-0.477452	-0.787605
H60	H	1.155345	-0.394647	-0.756338
C61	C	1.379664	-0.784401	-0.362447
H62	H	1.352450	-0.753367	-0.415975
H63	H	1.385946	-0.757073	-0.299223
H64	H	1.333588	-0.824961	-0.351784
C65	C	0.923600	-0.536306	-0.621125
H66	H	0.849143	-0.536307	-0.621154
H67	H	0.948360	-0.549065	-0.553289
H68	H	0.948418	-0.571330	-0.670677
H69	H	0.929939	-0.438369	-0.728096
H70	H	1.107609	-0.513310	-0.621430
H71	H	1.640236	-0.442446	-1.106227
H72	H	1.395529	-0.197123	-1.091414
C73	C	1.659352	-0.456031	-0.891493
H74	H	1.649711	-0.449268	-0.818290
H75	H	1.729956	-0.445193	-0.909487
H76	H	1.643928	-0.505787	-0.909453
H77	H	1.296385	-0.275023	-1.095633
H78	H	0.919229	-0.270676	-0.384515
C79	C	1.462289	-0.785086	-0.698290
H80	H	1.472895	-0.825864	-0.743913
H81	H	1.524034	-0.755781	-0.696154
H82	H	1.405520	-0.756062	-0.723247
C83	C	1.462357	-0.927012	-0.698877
H84	H	1.522409	-0.957979	-0.696693
H85	H	1.475734	-0.886056	-0.743511
H86	H	1.404315	-0.954221	-0.725049
H87	H	1.544167	-0.919638	-0.333264
H88	H	1.355491	-0.920763	-0.569075
C89	C	1.666423	-0.927926	-0.641819
H90	H	1.614394	-0.959656	-0.670290
H91	H	1.729984	-0.954559	-0.633315
H92	H	1.677644	-0.887505	-0.688009
C93	C	1.413078	-0.180917	-0.905942
H94	H	1.430643	-0.148128	-0.961406
H95	H	1.473317	-0.189727	-0.864042
H96	H	1.359579	-0.159489	-0.864041
C97	C	1.711015	-0.926191	-0.454532
H98	H	1.778012	-0.906873	-0.472077
H99	H	1.713500	-0.978632	-0.455715
H100	H	1.691822	-0.909934	-0.386401
C101	C	1.325703	-0.785964	-0.561977
H102	H	1.280556	-0.827099	-0.551766
H103	H	1.300467	-0.756812	-0.618509
H104	H	1.327430	-0.756969	-0.499965
H105	H	1.651454	-0.792811	-0.618519
