data_functionalizedCrystal
_audit_creation_method	'MofGen! by Chris Wilmer'
_symmetry_space_group_name_H-M	'P1'
_symmetry_Int_Tables_number	1
_symmetry_cell_setting	triclinic
loop_
_symmetry_equiv_pos_as_xyz
  x,y,z
_cell_length_a	11.169417
_cell_length_b	16.625545
_cell_length_c	11.169409
_cell_angle_alpha	90.036134
_cell_angle_beta	90.019824
_cell_angle_gamma	90.026437
loop_
_atom_site_label
_atom_site_type_symbol
_atom_site_fract_x
_atom_site_fract_y
_atom_site_fract_z
Zn1	Zn	1.834835	-0.320917	0.678511
Zn2	Zn	2.334835	0.179083	1.178511
Zn3	Zn	1.834671	-0.455779	0.477815
Zn4	Zn	2.334671	0.044221	0.977815
Zn5	Zn	1.634121	-0.320967	0.477845
Zn6	Zn	2.134121	0.179033	0.977845
Zn7	Zn	1.634076	-0.455714	0.678460
Zn8	Zn	2.134076	0.044286	1.178460
O9	O	1.734426	-0.388344	0.578158
O10	O	2.234426	0.111656	1.078158
O11	O	2.002763	-0.338814	0.651897
O12	O	2.502763	0.161186	1.151897
O13	O	1.808019	-0.437944	0.309869
O14	O	2.308019	0.062056	0.809869
O15	O	1.660834	-0.208128	0.504499
O16	O	2.160834	0.291872	1.004499
O17	O	2.002643	-0.437897	0.504446
O18	O	2.502643	0.062103	1.004446
O19	O	1.808298	-0.208092	0.651927
O20	O	2.308298	0.291908	1.151927
O21	O	1.660675	-0.338898	0.309892
O22	O	2.160675	0.161102	0.809892
O23	O	1.466166	-0.338834	0.504449
O24	O	1.966166	0.161166	1.004449
O25	O	1.660756	-0.437785	0.846416
O26	O	2.160756	0.062215	1.346416
O27	O	1.466132	-0.437832	0.651839
O28	O	1.966132	0.062168	1.151839
O29	O	1.808254	-0.338750	0.846454
O30	O	2.308254	0.161250	1.346454
O31	O	1.807974	-0.568603	0.504396
O32	O	2.307974	-0.068603	1.004396
O33	O	1.660597	-0.568555	0.651809
O34	O	2.160597	-0.068555	1.151809
C35	C	1.422601	-0.388332	0.578142
C36	C	1.922601	0.111668	1.078142
C37	C	1.289201	-0.388346	0.578164
C38	C	1.789201	0.111654	1.078164
C39	C	1.734296	-0.597835	0.578120
C40	C	2.234296	-0.097835	1.078120
C41	C	1.734350	-0.687456	0.578144
C42	C	2.234350	-0.187456	1.078144
C43	C	1.734396	-0.760239	0.578168
C44	C	2.234396	-0.260239	1.078168
C45	C	1.734466	-0.851547	0.578194
C46	C	2.234466	-0.351547	1.078194
C47	C	1.734528	-0.924324	0.578209
C48	C	2.234528	-0.424324	1.078209
C49	C	1.734597	-1.015638	0.578234
C50	C	2.234597	-0.515638	1.078234
C51	C	2.047468	-0.388357	0.578174
C52	C	2.547468	0.111643	1.078174
C53	C	2.180868	-0.388363	0.578181
C54	C	2.680868	0.111637	1.078181
C55	C	1.734518	-0.388255	0.891200
C56	C	2.234518	0.111745	1.391200
C57	C	1.734557	-0.388217	1.024600
C58	C	2.234557	0.111783	1.524600
C59	C	1.734590	-0.178035	0.578222
C60	C	2.234590	0.321965	1.078222
C61	C	1.734659	-0.088414	0.578249
C62	C	2.234659	0.411586	1.078249
C63	C	1.734403	-0.388375	0.266333
C64	C	2.234403	0.111625	0.766333
C65	C	1.734596	-0.388186	0.132934
C66	C	2.234596	0.111814	0.632934
