data_functionalizedCrystal
_audit_creation_method	'MofGen! by Chris Wilmer'
_symmetry_space_group_name_H-M	'P1'
_symmetry_Int_Tables_number	1
_symmetry_cell_setting	triclinic
loop_
_symmetry_equiv_pos_as_xyz
  x,y,z
_cell_length_a	11.026607
_cell_length_b	9.482900
_cell_length_c	10.967953
_cell_angle_alpha	68.659487
_cell_angle_beta	96.379953
_cell_angle_gamma	101.363848
loop_
_atom_site_label
_atom_site_type_symbol
_atom_site_fract_x
_atom_site_fract_y
_atom_site_fract_z
O1	O	1.612861	-0.010595	0.524835
O2	O	1.261457	0.004832	0.463271
O3	O	1.452554	0.043638	0.308349
O4	O	1.421764	-0.049401	0.679757
O5	O	1.413733	-0.206078	0.339978
O6	O	1.222636	-0.244884	0.494900
O7	O	1.574040	-0.260310	0.556465
Cu8	Cu	1.394793	-0.275398	0.528571
Cu9	Cu	1.440704	0.019920	0.491165
O10	O	1.382943	-0.299116	0.711387
C11	C	1.197187	-0.117180	0.467728
C12	C	1.063519	-0.108697	0.433871
N13	N	1.362511	-0.483109	0.554881
C14	C	1.433837	-0.069121	0.275876
C15	C	1.435889	-0.033068	0.131990
C16	C	0.986825	-0.132114	0.527356
C17	C	0.848672	-0.123347	0.492365
C18	C	1.638311	-0.138295	0.552007
C19	C	1.771980	-0.146768	0.585863
C20	C	1.431174	-0.541289	0.498917
C21	C	1.404323	-0.714193	0.520819
N22	N	1.472996	0.227632	0.464846
C23	C	1.418807	-0.109112	-0.064487
C24	C	1.416690	-0.146370	0.084226
C25	C	1.401660	-0.186354	0.743860
C26	C	1.399610	-0.222398	0.887744
H27	H	1.023443	-0.158661	0.633297
Cl28	Cl	1.241052	-0.603822	0.653886
Cl29	Cl	0.792152	-0.082382	0.328790
H30	H	1.453898	0.091512	0.062796
Cl31	Cl	1.371823	-0.414733	-0.005426
Cl32	Cl	1.282859	-0.834902	0.619828
Cl33	Cl	1.552364	-0.420486	0.399551
Cl34	Cl	0.828492	-0.187765	0.749443
Cl35	Cl	1.006992	-0.067734	0.270303
Cl36	Cl	1.388902	-0.338713	0.191053
Cl37	Cl	1.594703	-0.651745	0.366164
H38	H	1.436816	0.015459	-0.133686
