data_functionalizedCrystal
_audit_creation_method	'MofGen! by Chris Wilmer'
_symmetry_space_group_name_H-M	'P1'
_symmetry_Int_Tables_number	1
_symmetry_cell_setting	triclinic
loop_
_symmetry_equiv_pos_as_xyz
  x,y,z
_cell_length_a	19.805405
_cell_length_b	12.759401
_cell_length_c	12.759393
_cell_angle_alpha	90.020112
_cell_angle_beta	89.963446
_cell_angle_gamma	89.975055
loop_
_atom_site_label
_atom_site_type_symbol
_atom_site_fract_x
_atom_site_fract_y
_atom_site_fract_z
Zn1	Zn	-0.269457	-1.606181	-0.593953
Zn2	Zn	-0.382660	-1.606036	-0.418254
Zn3	Zn	-0.269487	-1.430480	-0.418290
Zn4	Zn	-0.382606	-1.430436	-0.593894
O5	O	-0.326052	-1.518283	-0.506098
O6	O	-0.284483	-1.753183	-0.570655
O7	O	-0.367682	-1.582706	-0.271238
O8	O	-0.174766	-1.453866	-0.441632
O9	O	-0.367653	-1.753076	-0.441570
O10	O	-0.174744	-1.582953	-0.570690
O11	O	-0.284534	-1.453725	-0.271264
O12	O	-0.284483	-1.283453	-0.441575
O13	O	-0.367562	-1.453791	-0.740923
O14	O	-0.367591	-1.283420	-0.570590
O15	O	-0.284432	-1.582910	-0.740966
O16	O	-0.477369	-1.582663	-0.441513
O17	O	-0.477330	-1.453650	-0.570555
C18	C	-0.326035	-1.245316	-0.506081
C19	C	-0.326044	-1.128539	-0.506099
C20	C	-0.369391	-0.963957	-0.573177
C21	C	-0.369386	-1.073681	-0.573167
C22	C	-0.282709	-1.073668	-0.439028
C23	C	-0.282719	-0.963946	-0.439034
C24	C	-0.501909	-1.518165	-0.506047
C25	C	-0.577141	-1.518210	-0.506060
C26	C	-0.612483	-1.585453	-0.438939
C27	C	-0.683171	-1.585497	-0.438962
C28	C	-0.718516	-1.518293	-0.506102
C29	C	-0.683169	-1.451048	-0.573231
C30	C	-0.612482	-1.451010	-0.573213
C31	C	-0.968242	-1.451203	-0.573309
C32	C	-1.038934	-1.451245	-0.573321
C33	C	-1.038931	-1.585691	-0.439058
C34	C	-0.968244	-1.585652	-0.439040
C35	C	-0.932903	-1.518411	-0.506172
C36	C	-0.856255	-1.518365	-0.506148
C37	C	-0.795163	-1.518334	-0.506122
C38	C	-0.149510	-1.518430	-0.506172
C39	C	-0.074278	-1.518493	-0.506203
C40	C	-0.325988	-1.518362	-0.780131
C41	C	-0.325960	-1.518395	-0.896908
C42	C	-0.326066	-0.792316	-0.506113
C43	C	-0.326059	-0.909093	-0.506114
C44	C	-0.282667	-1.585633	-0.951794
C45	C	-0.282638	-1.585650	-1.061518
C46	C	-0.369200	-1.451190	-1.061461
C47	C	-0.369226	-1.451168	-0.951738
C48	C	-0.326068	-1.518265	-0.233130
C49	C	-0.325905	-1.518435	-0.116354
H50	H	-0.404682	-0.919299	-0.627797
H51	H	-1.067710	-1.396521	-0.628002
H52	H	-0.404479	-1.396408	-0.907049
O53	O	-0.240698	-0.910482	-0.373900
C54	C	-0.202305	-0.741438	-0.314463
C55	C	-0.249924	-0.801855	-0.388274
H56	H	-0.209738	-0.653603	-0.326074
H57	H	-0.214143	-0.762907	-0.229698
H58	H	-0.147740	-0.763088	-0.333026
H59	H	-0.304505	-0.780237	-0.369806
H60	H	-0.238029	-0.780381	-0.473017
O61	O	-0.578256	-1.650832	-0.373681
C62	C	-0.585722	-1.784147	-0.240463
C63	C	-0.624565	-1.710173	-0.314331
H64	H	-0.623146	-1.832129	-0.192444
H65	H	-0.552592	-1.839111	-0.288684
H66	H	-0.552664	-1.735904	-0.185521
H67	H	-0.657659	-1.758332	-0.369288
H68	H	-0.657652	-1.655207	-0.266045
O69	O	-0.933881	-1.650784	-0.373707
C70	C	-0.854107	-1.664956	-0.231898
C71	C	-0.892991	-1.591069	-0.305802
H72	H	-0.821028	-1.616707	-0.176992
H73	H	-0.891480	-1.713008	-0.183851
H74	H	-0.820991	-1.719867	-0.280197
H75	H	-0.926109	-1.536095	-0.257583
H76	H	-0.855582	-1.543091	-0.353852
H77	H	-0.711943	-1.640252	-0.384304
H78	H	-0.404672	-1.118346	-0.627775
H79	H	-1.067714	-1.640446	-0.384400
H80	H	-0.247422	-1.118342	-0.384415
O81	O	-0.934023	-1.385774	-0.638537
C82	C	-0.941492	-1.252440	-0.771731
C83	C	-0.980333	-1.326478	-0.697901
H84	H	-0.978917	-1.204496	-0.819762
H85	H	-0.908473	-1.197445	-0.723480
H86	H	-0.908324	-1.300630	-0.826664
H87	H	-1.013538	-1.278373	-0.642953
H88	H	-1.013309	-1.381476	-0.746217
O89	O	-0.717606	-1.385800	-0.638353
C90	C	-0.826502	-1.326309	-0.697928
C91	C	-0.787589	-1.400244	-0.624109
H92	H	-0.883090	-1.337978	-0.686453
H93	H	-0.812705	-1.241573	-0.679399
H94	H	-0.812511	-1.344696	-0.782646
H95	H	-0.801559	-1.381953	-0.539367
H96	H	-0.801390	-1.484959	-0.642729
O97	O	-0.240697	-1.650889	-0.898369
C98	C	-0.202332	-1.710391	-0.729364
C99	C	-0.249914	-1.636457	-0.789733
H100	H	-0.209757	-1.698733	-0.641521
H101	H	-0.214215	-1.795127	-0.750864
H102	H	-0.147758	-1.691995	-0.751026
H103	H	-0.304504	-1.654759	-0.768103
H104	H	-0.237973	-1.551743	-0.768227
O105	O	-0.578253	-1.385594	-0.638451
C106	C	-0.585712	-1.252300	-0.771686
C107	C	-0.624558	-1.326305	-0.697830
H108	H	-0.623133	-1.204361	-0.819729
H109	H	-0.552685	-1.197298	-0.723454
H110	H	-0.552550	-1.300516	-0.826607
H111	H	-0.657757	-1.278174	-0.642895
H112	H	-0.657542	-1.381310	-0.746128
H113	H	-0.404427	-1.396459	-1.106117
O114	O	-0.240563	-1.651066	-1.114672
C115	C	-0.154681	-1.784389	-1.103142
C116	C	-0.202311	-1.710375	-1.042817
H117	H	-0.123732	-1.832343	-1.045074
H118	H	-0.185716	-1.839376	-1.154481
H119	H	-0.119300	-1.736179	-1.154545
H120	H	-0.237701	-1.758500	-0.991357
H121	H	-0.171234	-1.655385	-0.991545
