data_functionalizedCrystal
_audit_creation_method	'MofGen! by Chris Wilmer'
_symmetry_space_group_name_H-M	'P1'
_symmetry_Int_Tables_number	1
_symmetry_cell_setting	triclinic
loop_
_symmetry_equiv_pos_as_xyz
  x,y,z
_cell_length_a	16.120530
_cell_length_b	12.594516
_cell_length_c	16.120297
_cell_angle_alpha	92.877768
_cell_angle_beta	90.128140
_cell_angle_gamma	87.111852
loop_
_atom_site_label
_atom_site_type_symbol
_atom_site_fract_x
_atom_site_fract_y
_atom_site_fract_z
Zn1	Zn	1.247493	-0.539249	-0.534603
Zn2	Zn	1.254461	-0.708692	-0.395557
Zn3	Zn	1.115482	-0.521263	-0.388519
Zn4	Zn	1.108417	-0.707712	-0.527526
O5	O	1.181463	-0.619229	-0.461551
O6	O	1.364785	-0.569664	-0.522065
O7	O	1.241897	-0.676712	-0.278258
O8	O	1.133034	-0.374707	-0.407914
O9	O	1.369904	-0.694153	-0.419909
O10	O	1.230022	-0.387921	-0.515241
O11	O	1.139790	-0.539009	-0.273087
O12	O	0.998178	-0.538058	-0.401052
O13	O	1.120993	-0.692482	-0.644831
O14	O	0.992987	-0.675042	-0.503180
O15	O	1.223172	-0.568713	-0.650030
O16	O	1.235047	-0.857504	-0.413047
O17	O	1.127749	-0.856784	-0.510004
C18	C	0.965410	-0.604493	-0.450585
C19	C	0.872980	-0.598215	-0.445913
C20	C	0.703749	-0.586730	-0.437391
C21	C	0.660015	-0.651810	-0.485772
C22	C	0.565849	-0.645420	-0.481031
C23	C	0.797924	-0.593119	-0.442132
C24	C	1.181409	-0.895766	-0.461540
C25	C	1.181461	-1.014076	-0.461567
C26	C	1.123098	-1.082974	-0.514263
C27	C	1.106686	-1.147787	-0.437359
C28	C	1.197948	-1.160068	-0.538488
C29	C	1.165010	-1.077326	-0.384621
C30	C	1.256305	-1.089606	-0.485803
C31	C	1.239924	-1.154387	-0.408848
C32	C	1.398360	-0.634024	-0.472561
C33	C	1.490789	-0.640328	-0.477253
C34	C	1.170517	-0.632495	-0.678446
C35	C	1.165853	-0.638148	-0.770874
C36	C	1.181539	-0.341615	-0.461582
C37	C	1.181572	-0.223313	-0.461595
C38	C	1.157306	-0.648443	-0.940100
C39	C	1.205784	-0.589708	-0.983863
C40	C	1.201029	-0.595436	-1.078026
C41	C	1.162061	-0.642716	-0.845928
C42	C	1.192414	-0.605942	-0.245502
C43	C	1.197240	-0.600000	-0.153083
H44	H	0.670473	-0.526218	-0.392412
H45	H	1.073662	-1.051620	-0.558754
O46	O	1.031297	-1.178714	-0.412892
C47	C	0.947124	-1.325587	-0.384874
C48	C	1.032548	-1.290714	-0.412567
H49	H	0.948102	-1.416142	-0.384619
H50	H	0.932612	-1.290237	-0.319721
H51	H	0.897394	-1.296191	-0.429840
H52	H	1.082334	-1.320100	-0.367660
H53	H	1.046989	-1.326052	-0.477738
H54	H	1.289330	-1.185534	-0.364243
O55	O	1.331697	-1.058650	-0.510218
C56	C	1.416260	-0.911680	-0.536907
C57	C	1.330847	-0.946591	-0.509214
H58	H	1.415595	-0.821079	-0.536121
H59	H	1.466220	-0.942271	-0.492656
H60	H	1.430181	-0.945859	-0.602509
H61	H	1.316847	-0.912425	-0.443627
H62	H	1.280934	-0.916014	-0.553520
O63	O	1.103611	-0.713546	-0.979893
C64	C	1.049807	-0.778603	-1.111397
C65	C	1.110663	-0.704846	-1.066425
H66	H	1.055476	-0.771577	-1.181365
H67	H	1.065232	-0.864435	-1.095187
H68	H	0.983611	-0.754342	-1.090922
H69	H	1.176881	-0.729010	-1.086876
H70	H	1.095167	-0.619031	-1.082636
O71	O	1.259474	-0.524426	-0.944242
C72	C	1.301256	-0.344543	-0.919583
C73	C	1.240388	-0.418346	-0.964486
H74	H	1.285859	-0.258765	-0.935948
H75	H	1.295566	-0.351364	-0.849595
H76	H	1.367453	-0.368884	-0.940011
H77	H	1.174165	-0.394054	-0.944127
H78	H	1.246151	-0.411516	-1.034467
O79	O	1.148310	-1.034186	-0.307060
C80	C	1.129566	-0.873588	-0.220020
C81	C	1.148472	-0.922304	-0.307897
H82	H	1.129708	-0.783125	-0.220664
H83	H	1.065998	-0.897931	-0.199253
H84	H	1.179059	-0.903656	-0.175066
H85	H	1.099032	-0.892260	-0.352911
H86	H	1.212065	-0.897966	-0.328594
H87	H	1.211849	-1.196211	-0.603528
O88	O	0.699841	-0.723981	-0.539363
C89	C	0.831371	-0.796159	-0.593064
C90	C	0.786370	-0.714397	-0.532328
H91	H	0.901336	-0.788423	-0.587410
H92	H	0.815138	-0.879948	-0.577506
H93	H	0.810941	-0.780587	-0.659291
H94	H	0.806775	-0.729871	-0.466080
H95	H	0.802603	-0.630635	-0.547958
