data_functionalizedCrystal
_audit_creation_method	'MofGen! by Chris Wilmer'
_symmetry_space_group_name_H-M	'P1'
_symmetry_Int_Tables_number	1
_symmetry_cell_setting	triclinic
loop_
_symmetry_equiv_pos_as_xyz
  x,y,z
_cell_length_a	6.817900
_cell_length_b	10.773894
_cell_length_c	9.514063
_cell_angle_alpha	94.042441
_cell_angle_beta	118.843314
_cell_angle_gamma	96.645922
loop_
_atom_site_label
_atom_site_type_symbol
_atom_site_fract_x
_atom_site_fract_y
_atom_site_fract_z
V1	V	-4.031209	-0.389903	-0.216290
O2	O	-3.931676	-0.381467	0.016466
O3	O	-4.066332	-0.388211	-0.434706
O4	O	-3.946591	-0.559508	-0.210298
O5	O	-4.052246	-0.208984	-0.209496
V6	V	-4.508708	-0.368145	-0.188764
O7	O	-4.305683	-0.437630	-0.276669
O8	O	-4.684431	-0.320418	-0.128385
O9	O	-4.250378	-0.369837	0.029652
O10	O	-4.725637	-0.376581	-0.421520
O11	O	-4.605067	-0.549064	-0.195558
O12	O	-4.370119	-0.198540	-0.194756
C13	C	-3.932824	-0.382312	-0.488035
C14	C	-4.042586	-0.382059	-0.666576
C15	C	-3.780080	-0.600817	-0.201778
C16	C	-3.792732	-0.739476	-0.198324
C17	C	-3.973095	-0.807365	-0.204310
C18	C	-3.986175	-0.950677	-0.200740
C19	C	-4.047232	-0.375733	0.082973
C20	C	-3.916707	-0.375994	0.261512
C21	C	-4.199975	-0.157225	-0.203281
C22	C	-4.166559	-0.018564	-0.206727
H23	H	-4.117821	-0.759388	-0.212065
H24	H	-3.841423	-0.998647	-0.192963
H25	H	-4.234325	-0.387042	-0.741596
H26	H	-3.724950	-0.370992	-0.663456
H27	H	-4.311311	-0.970595	-0.214500
H28	H	-3.647993	-0.787451	-0.190547
