data_functionalizedCrystal
_audit_creation_method	'MofGen! by Chris Wilmer'
_symmetry_space_group_name_H-M	'P1'
_symmetry_Int_Tables_number	1
_symmetry_cell_setting	triclinic
loop_
_symmetry_equiv_pos_as_xyz
  x,y,z
_cell_length_a	15.944551
_cell_length_b	8.559649
_cell_length_c	7.088929
_cell_angle_alpha	95.344185
_cell_angle_beta	96.200006
_cell_angle_gamma	103.361299
loop_
_atom_site_label
_atom_site_type_symbol
_atom_site_fract_x
_atom_site_fract_y
_atom_site_fract_z
O1	O	1.091532	-0.222519	-0.159160
O2	O	0.845345	-0.247922	-0.159122
O3	O	0.990128	-0.002621	-0.159142
O4	O	0.946749	-0.467820	-0.159140
O5	O	1.009481	0.030235	0.158830
O6	O	0.864698	-0.215066	0.158850
O7	O	1.110885	-0.189663	0.158812
Cu8	Cu	0.989559	-0.199364	0.187865
Cu9	Cu	0.966671	-0.238221	-0.188174
O10	O	0.966102	-0.434964	0.158833
C11	C	0.823796	-0.230439	-0.000131
C12	C	0.730755	-0.227275	-0.000117
C13	C	1.003092	0.073336	-0.000160
C14	C	1.012876	0.250714	-0.000173
C15	C	1.132434	-0.207147	-0.000183
C16	C	1.225474	-0.210311	-0.000210
C17	C	1.430033	-0.369916	-0.000165
C18	C	1.486294	-0.311998	-0.156941
C19	C	1.395833	-0.216029	-0.000182
C20	C	1.505355	-0.279568	0.156555
C21	C	1.560390	-0.221563	-0.000147
C22	C	1.450860	-0.158083	-0.157087
C23	C	1.469923	-0.125660	0.156549
C24	C	1.526171	-0.067635	-0.000265
C25	C	1.301035	-0.212846	-0.000204
C26	C	1.655187	-0.224735	-0.000139
C27	C	0.953138	-0.510922	-0.000154
C28	C	0.943353	-0.688301	-0.000154
N29	N	1.005663	-0.172034	0.452350
N30	N	0.950574	-0.265538	-0.452660
H31	H	1.388474	-0.497667	-0.000320
H32	H	1.529305	-0.330989	0.289096
N33	N	1.096941	0.355472	-0.000152
N34	N	1.105044	0.504253	-0.000127
H35	H	1.164414	0.578242	-0.000110
H36	H	1.062765	-0.075142	0.533998
N37	N	1.496123	-0.410841	-0.323213
N38	N	1.457388	-0.557337	-0.351152
H39	H	1.464325	-0.627154	-0.468579
H40	H	0.876345	0.228211	-0.000137
N41	N	1.578130	0.092725	-0.000338
N42	N	1.637439	0.153872	0.134303
H43	H	1.674136	0.267125	0.134249
H44	H	1.462054	-0.046931	0.289099
H45	H	0.893482	-0.362436	0.465702
H46	H	1.426992	-0.106765	-0.289782
