data_functionalizedCrystal
_audit_creation_method	'MofGen! by Chris Wilmer'
_symmetry_space_group_name_H-M	'P1'
_symmetry_Int_Tables_number	1
_symmetry_cell_setting	triclinic
loop_
_symmetry_equiv_pos_as_xyz
  x,y,z
_cell_length_a	18.215407
_cell_length_b	19.805399
_cell_length_c	18.215405
_cell_angle_alpha	90.030649
_cell_angle_beta	89.977671
_cell_angle_gamma	89.986379
loop_
_atom_site_label
_atom_site_type_symbol
_atom_site_fract_x
_atom_site_fract_y
_atom_site_fract_z
Zn1	Zn	1.125045	-0.382653	0.293041
Zn2	Zn	1.124961	-0.269461	0.416113
Zn3	Zn	1.001985	-0.269484	0.293059
Zn4	Zn	1.001943	-0.382615	0.416065
O5	O	1.063484	-0.326053	0.354570
O6	O	1.228018	-0.367644	0.309380
O7	O	1.108631	-0.174748	0.399817
O8	O	1.018362	-0.284521	0.190073
O9	O	1.227956	-0.284483	0.399800
O10	O	1.108773	-0.367666	0.190059
O11	O	1.018281	-0.174764	0.309410
O12	O	0.898995	-0.284484	0.309364
O13	O	1.018290	-0.477336	0.399718
O14	O	0.898964	-0.367601	0.399736
O15	O	1.108732	-0.477364	0.309333
O16	O	1.108590	-0.284446	0.519091
O17	O	1.018209	-0.367579	0.519056
C18	C	0.872277	-0.326041	0.354547
C19	C	0.790478	-0.326052	0.354555
C20	C	1.063516	-0.502596	0.354519
C21	C	1.063530	-0.577828	0.354497
C22	C	0.602315	-0.369423	0.307570
C23	C	0.525457	-0.369425	0.307577
C24	C	0.525404	-0.282695	0.401590
C25	C	0.602261	-0.282690	0.401579
C26	C	0.640715	-0.326058	0.354570
C27	C	0.486999	-0.326065	0.354587
C28	C	0.403665	-0.326067	0.354595
C29	C	0.724054	-0.326055	0.354562
C30	C	1.016498	-0.613180	0.307417
C31	C	1.016508	-0.683869	0.307403
C32	C	1.063554	-0.719204	0.354465
C33	C	1.110588	-0.683846	0.401550
C34	C	1.110574	-0.613159	0.401567
C35	C	1.110646	-0.968920	0.401481
C36	C	1.110659	-1.039612	0.401458
C37	C	1.016581	-1.039629	0.307317
C38	C	1.016566	-0.968942	0.307334
C39	C	1.063597	-0.933591	0.354421
C40	C	1.063585	-0.856943	0.354437
C41	C	1.063571	-0.795851	0.354446
C42	C	1.255436	-0.326065	0.354593
C43	C	1.337235	-0.326071	0.354603
C44	C	1.063406	-0.326021	0.545776
C45	C	1.063440	-0.326029	0.627575
C46	C	1.063494	-0.150197	0.354567
C47	C	1.063623	-0.074966	0.354382
C48	C	1.063582	-0.326101	0.162617
C49	C	1.063623	-0.326121	0.080818
C50	C	1.110612	-0.282822	0.815762
C51	C	1.110645	-0.282838	0.892621
C52	C	1.016450	-0.369333	0.892625
C53	C	1.016421	-0.369320	0.815767
C54	C	1.063501	-0.326060	0.777338
C55	C	1.063562	-0.326090	0.931054
C56	C	1.063598	-0.326108	1.014388
C57	C	1.063467	-0.326043	0.693999
H58	H	0.633622	-0.404733	0.269290
F59	F	0.966423	-0.721490	0.257322
F60	F	0.484592	-0.415579	0.257551
H61	H	0.978259	-0.940176	0.269009
F62	F	0.643131	-0.236527	0.451600
F63	F	0.966428	-0.575580	0.257323
F64	F	1.160733	-1.077217	0.451551
F65	F	1.160788	-0.236819	0.933512
F66	F	0.966280	-0.415346	0.774871
F67	F	1.160654	-0.721454	0.451641
F68	F	1.160629	-0.575535	0.451678
H69	H	0.494085	-0.247388	0.439863
H70	H	0.978284	-1.068421	0.268978
H71	H	1.148934	-0.940146	0.439830
F72	F	0.966345	-0.415370	0.933530
H73	H	1.148948	-0.247598	0.784475
