data_functionalizedCrystal
_audit_creation_method	'MofGen! by Chris Wilmer'
_symmetry_space_group_name_H-M	'P1'
_symmetry_Int_Tables_number	1
_symmetry_cell_setting	triclinic
loop_
_symmetry_equiv_pos_as_xyz
  x,y,z
_cell_length_a	17.699083
_cell_length_b	7.088929
_cell_length_c	17.699083
_cell_angle_alpha	96.211898
_cell_angle_beta	83.283015
_cell_angle_gamma	83.803027
loop_
_atom_site_label
_atom_site_type_symbol
_atom_site_fract_x
_atom_site_fract_y
_atom_site_fract_z
O1	O	0.996305	0.158727	0.103493
O2	O	0.775923	0.158790	0.115949
O3	O	0.892341	0.158740	-0.000469
O4	O	0.879887	0.158777	0.219911
O5	O	0.907899	-0.159242	-0.016062
O6	O	0.791481	-0.159192	0.100355
O7	O	1.011863	-0.159255	0.087900
Cu8	Cu	0.903093	-0.188258	0.092704
Cu9	Cu	0.884693	0.187792	0.111145
O10	O	0.895445	-0.159205	0.204318
C11	C	0.755505	-0.000193	0.107706
C12	C	0.671486	-0.000170	0.106369
N13	N	0.916039	-0.452752	0.079733
C14	C	0.622864	-0.000159	0.174703
C15	C	0.543922	-0.000184	0.173439
C16	C	0.513602	-0.000206	0.103842
C17	C	0.562230	-0.000223	0.035502
C18	C	0.641172	-0.000211	0.036766
C19	C	0.243870	-0.000271	0.030405
C20	C	0.164922	-0.000276	0.029146
C21	C	0.146620	-0.000243	0.167078
C22	C	0.225561	-0.000232	0.168342
C23	C	0.274183	-0.000259	0.100002
C24	C	0.359781	-0.000235	0.101373
C25	C	0.428005	-0.000216	0.102471
C26	C	1.032281	-0.000268	0.096142
C27	C	1.116300	-0.000279	0.097481
C28	C	0.899674	-0.000252	-0.036463
C29	C	0.898335	-0.000252	-0.120481
N30	N	0.871753	0.452286	0.124109
C31	C	0.966670	-0.000274	-0.169103
C32	C	0.965407	-0.000257	-0.248045
C33	C	0.895809	-0.000231	-0.278365
C34	C	0.827469	-0.000203	-0.229736
C35	C	0.828732	-0.000207	-0.150795
C36	C	0.822373	-0.000186	-0.548099
C37	C	0.821115	-0.000188	-0.627047
C38	C	0.959047	-0.000236	-0.645349
C39	C	0.960311	-0.000240	-0.566408
C40	C	0.891971	-0.000202	-0.517786
C41	C	0.893341	-0.000217	-0.432187
C42	C	0.894439	-0.000230	-0.363963
C43	C	0.888112	-0.000210	0.240312
C44	C	0.889450	-0.000197	0.324330
H45	H	0.647544	-0.000139	0.231377
O46	O	0.135599	-0.000395	-0.038536
C47	C	0.195438	-0.000372	-0.098582
H48	H	0.251978	-0.060562	-0.080417
H49	H	0.183549	-0.092712	-0.151704
H50	H	0.199176	0.152171	-0.112179
H51	H	0.107023	-0.000232	0.222723
O52	O	0.970902	-0.550086	0.024946
C53	C	1.043453	-0.501255	0.039409
H54	H	1.041115	-0.446098	0.102680
H55	H	1.087852	-0.632976	0.024189
H56	H	1.060060	-0.385210	0.003052
H57	H	0.825855	-0.466048	0.170096
O58	O	0.755927	0.000084	-0.500942
C59	C	0.705611	0.164800	-0.506575
H60	H	0.721625	0.219704	-0.563799
H61	H	0.644289	0.127770	-0.502729
H62	H	0.710231	0.280116	-0.457753
O63	O	1.034340	-0.000210	-0.139776
C64	C	1.094384	-0.000267	-0.199625
H65	H	1.070317	0.059936	-0.250260
H66	H	1.138466	0.092044	-0.178690
H67	H	1.122923	-0.152822	-0.218320
H68	H	1.021052	-0.000279	-0.287631
O69	O	1.027980	-0.000179	-0.537078
C70	C	1.088027	-0.000240	-0.596924
H71	H	1.063964	0.059966	-0.647561
H72	H	1.132108	0.092068	-0.575987
H73	H	1.116565	-0.152797	-0.615619
H74	H	1.014693	-0.000258	-0.684947
H75	H	0.764437	-0.000171	-0.651729
O76	O	0.255118	-0.000447	0.235888
C77	C	0.308292	-0.165140	0.232679
H78	H	0.330750	-0.220070	0.170297
H79	H	0.358118	-0.128070	0.264565
H80	H	0.279007	-0.280453	0.260581
H81	H	0.283448	-0.000294	-0.025242
O82	O	0.762418	-0.000107	-0.103449
C83	C	0.778458	-0.000158	-0.027274
H84	H	0.834958	0.060020	-0.021407
H85	H	0.730376	0.092177	0.013103
H86	H	0.783010	-0.152709	-0.011922
O87	O	0.759931	-0.000262	-0.259316
C88	C	0.773465	-0.000222	-0.339417
H89	H	0.835510	-0.060441	-0.361019
H90	H	0.733456	-0.092529	-0.368101
H91	H	0.762374	0.152330	-0.353902
H92	H	0.504337	-0.000173	0.229084
O93	O	0.532834	-0.000579	-0.032142
C94	C	0.565773	-0.165245	-0.081873
H95	H	0.587754	-0.280347	-0.046818
H96	H	0.520718	-0.220528	-0.116700
H97	H	0.615480	-0.128017	-0.122315
O98	O	0.688358	0.000126	-0.029616
C99	C	0.666558	0.164777	-0.063817
H100	H	0.633861	0.279889	-0.018167
H101	H	0.719917	0.220055	-0.091557
H102	H	0.628268	0.127530	-0.109380
