data_functionalizedCrystal
_audit_creation_method	'MofGen! by Chris Wilmer'
_symmetry_space_group_name_H-M	'P1'
_symmetry_Int_Tables_number	1
_symmetry_cell_setting	triclinic
loop_
_symmetry_equiv_pos_as_xyz
  x,y,z
_cell_length_a	12.503572
_cell_length_b	11.026607
_cell_length_c	11.026607
_cell_angle_alpha	108.586017
_cell_angle_beta	94.298318
_cell_angle_gamma	85.706536
loop_
_atom_site_label
_atom_site_type_symbol
_atom_site_fract_x
_atom_site_fract_y
_atom_site_fract_z
O1	O	0.089318	-1.732471	-0.527857
O2	O	0.089320	-1.365891	-0.467093
O3	O	0.089315	-1.518799	-0.314185
O4	O	0.089323	-1.579563	-0.680765
O5	O	-0.089326	-1.507305	-0.325709
O6	O	-0.089322	-1.354397	-0.478617
O7	O	-0.089323	-1.720977	-0.539381
Cu8	Cu	-0.105634	-1.536638	-0.510051
Cu9	Cu	0.105630	-1.550231	-0.496423
O10	O	-0.089319	-1.568069	-0.692289
C11	C	-0.000001	-1.312485	-0.461645
C12	C	-0.000000	-1.170471	-0.428228
N13	N	-0.254226	-1.527086	-0.519638
C14	C	-0.000004	-1.501842	-0.272288
C15	C	-0.000000	-1.468426	-0.130273
C16	C	-0.473341	-1.513037	-0.533751
C17	C	-0.526670	-1.573836	-0.472718
C18	C	-0.648593	-1.566019	-0.480571
C19	C	-0.351407	-1.520853	-0.525900
N20	N	0.254222	-1.559790	-0.486828
C21	C	-0.000001	-1.774384	-0.544829
C22	C	0.000006	-1.916398	-0.578245
C23	C	0.000003	-1.116822	-0.520498
C24	C	0.000003	-0.970043	-0.485962
C25	C	0.000003	-1.585026	-0.734186
C26	C	0.000006	-1.618443	-0.876200
C27	C	0.000001	-1.560695	-0.076624
C28	C	0.000005	-1.526160	0.070155
H29	H	-0.480759	-1.631759	-0.414570
H30	H	0.000086	-1.723019	0.061078
N31	N	-0.534153	-1.436331	-0.610782
H32	H	-0.514649	-1.472149	-0.703194
H33	H	-0.514644	-1.343913	-0.575118
N34	N	-0.000002	-1.199902	-0.659008
H35	H	-0.000003	-1.292980	-0.664046
H36	H	0.066225	-1.185350	-0.698538
N37	N	0.000011	-1.329916	-0.047191
H38	H	0.000015	-1.324879	0.045886
H39	H	-0.066214	-1.281851	-0.070271
H40	H	0.000025	-1.107739	-0.323664
N41	N	0.000016	-1.387644	0.153233
H42	H	0.000020	-1.382606	0.246310
H43	H	-0.066209	-1.339578	0.130153
N44	N	-0.000013	-0.886965	-0.347446
H45	H	-0.000015	-0.793887	-0.342409
H46	H	0.066209	-0.910035	-0.299366
H47	H	0.000001	-0.979125	-0.682816
N48	N	-0.000010	-1.699204	-0.159709
H49	H	-0.066235	-1.738816	-0.145262
H50	H	0.066254	-1.747250	-0.136694
