data_functionalizedCrystal
_audit_creation_method	'MofGen! by Chris Wilmer'
_symmetry_space_group_name_H-M	'P1'
_symmetry_Int_Tables_number	1
_symmetry_cell_setting	triclinic
loop_
_symmetry_equiv_pos_as_xyz
  x,y,z
_cell_length_a	19.121112
_cell_length_b	19.120786
_cell_length_c	12.594509
_cell_angle_alpha	87.525775
_cell_angle_beta	87.540776
_cell_angle_gamma	89.915581
loop_
_atom_site_label
_atom_site_type_symbol
_atom_site_fract_x
_atom_site_fract_y
_atom_site_fract_z
Zn1	Zn	1.059874	-0.324897	-0.649214
Zn2	Zn	1.054780	-0.442150	-0.463306
Zn3	Zn	0.942632	-0.319918	-0.463998
Zn4	Zn	0.937602	-0.437095	-0.634000
O5	O	0.998722	-0.381015	-0.552630
O6	O	1.157303	-0.344650	-0.630630
O7	O	1.039877	-0.425967	-0.314448
O8	O	0.962421	-0.222469	-0.495223
O9	O	1.153561	-0.430795	-0.494045
O10	O	1.048558	-0.226127	-0.631300
O11	O	0.957482	-0.336164	-0.314956
O12	O	0.843860	-0.331262	-0.480471
O13	O	0.953849	-0.422179	-0.784968
O14	O	0.840164	-0.417351	-0.605372
O15	O	1.043681	-0.339748	-0.796145
O16	O	1.035000	-0.539589	-0.479293
O17	O	0.948910	-0.535875	-0.604701
C18	C	0.816574	-0.373218	-0.541346
C19	C	0.738650	-0.369900	-0.536543
C20	C	0.298023	-0.348847	-0.506125
C21	C	0.371241	-0.351969	-0.510644
C22	C	0.405939	-0.398426	-0.577816
C23	C	0.367415	-0.441758	-0.640483
C24	C	0.294199	-0.438632	-0.635969
C25	C	0.626910	-0.410107	-0.594696
C26	C	0.700132	-0.413231	-0.599203
C27	C	0.703953	-0.323440	-0.469365
C28	C	0.630734	-0.320321	-0.464852
C29	C	0.592217	-0.363651	-0.527523
C30	C	0.480779	-0.401619	-0.582434
C31	C	0.517378	-0.360453	-0.522910
C32	C	0.990875	-0.563171	-0.540296
C33	C	0.987583	-0.641101	-0.535059
C34	C	1.030849	-0.679556	-0.603500
C35	C	1.027752	-0.752779	-0.598581
C36	C	0.981392	-0.787547	-0.525215
C37	C	0.938121	-0.749087	-0.456771
C38	C	0.941215	-0.675865	-0.461696
C39	C	0.969806	-1.008539	-0.506803
C40	C	0.966717	-1.081766	-0.501881
C41	C	1.056348	-1.085453	-0.643694
C42	C	1.059440	-1.012230	-0.648608
C43	C	1.016167	-0.973776	-0.580167
C44	C	0.978227	-0.862393	-0.520183
C45	C	1.019329	-0.898931	-0.585205
C46	C	1.181581	-0.388842	-0.563957
C47	C	1.259505	-0.392178	-0.568785
C48	C	0.998772	-0.380955	-0.830258
C49	C	0.998793	-0.380930	-0.948566
C50	C	1.006619	-0.198148	-0.565036
C51	C	1.009984	-0.120221	-0.570323
C52	C	0.949949	-0.425738	-1.011743
C53	C	1.013186	-0.445602	-1.085328
C54	C	0.935608	-0.361026	-1.085787
C55	C	1.062061	-0.400829	-1.020592
C56	C	0.984442	-0.316221	-1.021045
C57	C	1.047724	-0.336063	-1.094602
C58	C	0.998715	-0.381025	-0.276087
C59	C	0.998838	-0.380859	-0.157801
H60	H	0.395672	-0.479581	-0.695181
H61	H	0.509038	-0.439447	-0.637123
O62	O	0.741336	-0.281424	-0.408336
C63	C	0.722742	-0.295880	-0.300079
H64	H	0.700200	-0.351026	-0.289530
H65	H	0.771138	-0.291853	-0.250888
H66	H	0.681855	-0.256453	-0.272280
H67	H	0.269778	-0.311017	-0.451425
O68	O	0.596932	-0.275191	-0.399714
C69	C	0.556530	-0.228138	-0.460830
H70	H	0.544542	-0.252431	-0.539111
H71	H	0.505426	-0.216569	-0.414953
H72	H	0.586951	-0.177367	-0.477846
O73	O	0.733729	-0.458375	-0.664557
C74	C	0.684033	-0.495960	-0.718888
H75	H	0.633079	-0.465020	-0.721375
H76	H	0.704893	-0.504406	-0.803524
H77	H	0.673943	-0.548845	-0.675701
O78	O	0.969787	-0.251009	-0.987226
C79	C	0.903074	-0.230253	-1.020284
H80	H	0.870687	-0.278633	-1.034942
H81	H	0.875604	-0.198940	-0.955741
H82	H	0.908982	-0.196402	-1.096897
O83	O	1.075789	-0.645703	-0.674821
C84	C	1.037636	-0.601659	-0.743906
H85	H	0.984982	-0.588482	-0.703741
H86	H	1.068363	-0.551358	-0.763441
H87	H	1.028711	-0.629519	-0.820398
H88	H	1.115528	-0.417696	-0.991991
O89	O	0.927677	-0.971267	-0.440351
C90	C	0.857037	-0.986214	-0.457999
H91	H	0.853325	-1.039295	-0.495258
H92	H	0.825527	-0.987449	-0.379019
H93	H	0.835138	-0.943987	-0.513987
O94	O	0.899085	-0.638580	-0.395254
C95	C	0.828447	-0.653524	-0.412918
H96	H	0.824736	-0.706610	-0.450162
H97	H	0.796927	-0.654745	-0.333947
H98	H	0.806557	-0.611302	-0.468925
O99	O	1.069864	-0.790029	-0.665094
C100	C	1.111442	-0.743640	-0.730909
H101	H	1.116075	-0.691564	-0.690979
H102	H	1.165787	-0.767099	-0.744305
H103	H	1.086085	-0.734747	-0.810661
H104	H	1.091578	-1.116770	-0.699415
O105	O	0.871817	-0.341094	-1.120105
C106	C	0.843501	-0.395035	-1.177943
H107	H	0.868443	-0.447071	-1.153138
H108	H	0.784527	-0.397995	-1.160802
H109	H	0.854633	-0.383658	-1.266655
O110	O	0.408550	-0.309848	-0.449674
C111	C	0.362226	-0.268163	-0.389437
H112	H	0.308799	-0.294653	-0.380509
H113	H	0.383682	-0.261511	-0.307411
H114	H	0.356736	-0.214618	-0.431678
H115	H	0.595558	-0.445392	-0.645723
H116	H	0.908672	-0.463694	-0.975561
H117	H	1.097191	-0.983923	-0.708348
H118	H	1.089094	-0.298141	-1.130592
O119	O	0.256885	-0.480792	-0.696877
C120	C	0.303209	-0.522452	-0.757156
H121	H	0.355282	-0.527079	-0.716603
H122	H	0.279675	-0.576795	-0.763338
H123	H	0.312129	-0.497173	-0.840269
O124	O	0.921644	-1.115619	-0.430751
C125	C	0.874547	-1.156043	-0.485641
H126	H	0.898785	-1.168004	-0.567131
H127	H	0.863000	-1.207163	-0.438232
H128	H	0.823774	-1.125651	-0.495945
O129	O	0.483642	-0.315428	-0.457532
C130	C	0.439541	-0.353486	-0.383401
H131	H	0.459230	-0.409640	-0.374318
H132	H	0.439777	-0.328032	-0.303216
H133	H	0.383958	-0.353561	-0.412722
H134	H	0.900371	-0.777401	-0.397039
O135	O	0.933235	-0.896091	-0.448770
C136	C	0.949365	-0.878908	-0.344856
H137	H	0.978561	-0.826873	-0.347927
H138	H	0.898891	-0.874311	-0.294092
H139	H	0.983684	-0.921645	-0.308523
H140	H	1.025348	-0.500295	-1.113672
O141	O	1.064267	-0.865079	-0.656521
C142	C	1.026114	-0.821035	-0.725607
H143	H	0.973456	-0.807866	-0.685449
H144	H	1.056836	-0.770729	-0.745130
H145	H	1.017199	-0.848891	-0.802106
