data_functionalizedCrystal
_audit_creation_method	'MofGen! by Chris Wilmer'
_symmetry_space_group_name_H-M	'P1'
_symmetry_Int_Tables_number	1
_symmetry_cell_setting	triclinic
loop_
_symmetry_equiv_pos_as_xyz
  x,y,z
_cell_length_a	18.215407
_cell_length_b	18.101395
_cell_length_c	18.215399
_cell_angle_alpha	89.973573
_cell_angle_beta	89.980167
_cell_angle_gamma	90.031552
loop_
_atom_site_label
_atom_site_type_symbol
_atom_site_fract_x
_atom_site_fract_y
_atom_site_fract_z
Zn1	Zn	1.125040	-0.294828	-0.416124
Zn2	Zn	1.124935	-0.418675	-0.293061
Zn3	Zn	1.001973	-0.294853	-0.293071
Zn4	Zn	1.001925	-0.418634	-0.416086
O5	O	1.063468	-0.356747	-0.354585
O6	O	1.228010	-0.311264	-0.399811
O7	O	1.108600	-0.402277	-0.190078
O8	O	1.018362	-0.191216	-0.309415
O9	O	1.227933	-0.402253	-0.309397
O10	O	1.108779	-0.191199	-0.399821
O11	O	1.018260	-0.311305	-0.190085
O12	O	0.898982	-0.311265	-0.309378
O13	O	1.018281	-0.402183	-0.519075
O14	O	0.898947	-0.402207	-0.399756
O15	O	1.108733	-0.311224	-0.519103
O16	O	1.108554	-0.522302	-0.309360
O17	O	1.018179	-0.522272	-0.399746
C18	C	0.872262	-0.356735	-0.354564
C19	C	0.790463	-0.356747	-0.354572
C20	C	0.602270	-0.404175	-0.401573
C21	C	0.525412	-0.404177	-0.401583
C22	C	0.525418	-0.309333	-0.307613
C23	C	0.602276	-0.309328	-0.307608
C24	C	0.640700	-0.356753	-0.354587
C25	C	0.486984	-0.356761	-0.354601
C26	C	0.403650	-0.356763	-0.354611
C27	C	0.724039	-0.356750	-0.354579
C28	C	1.063370	-0.549158	-0.354564
C29	C	1.063395	-0.631472	-0.354579
C30	C	1.063557	-0.930563	-0.354619
C31	C	1.006827	-0.899249	-0.411628
C32	C	1.006557	-0.813632	-0.411450
C33	C	1.063476	-0.782180	-0.354600
C34	C	1.042479	-0.813331	-0.277038
C35	C	1.042113	-0.898976	-0.277380
C36	C	1.141408	-0.898906	-0.374487
C37	C	1.140950	-0.813255	-0.376188
C38	C	1.063432	-0.698321	-0.354584
C39	C	1.063599	-1.014422	-0.354629
C40	C	1.255421	-0.356761	-0.354607
C41	C	1.337220	-0.356766	-0.354616
C42	C	1.063513	-0.356696	-0.546538
C43	C	1.063532	-0.356675	-0.628337
C44	C	1.063587	-0.163585	-0.354623
C45	C	1.063638	-0.081271	-0.354639
C46	C	1.110648	-0.309268	-0.816547
C47	C	1.110656	-0.309246	-0.893406
C48	C	1.016469	-0.403967	-0.893365
C49	C	1.016457	-0.403984	-0.816508
C50	C	1.063551	-0.356636	-0.778101
C51	C	1.063571	-0.356597	-0.931817
C52	C	1.063580	-0.356574	-1.015151
C53	C	1.063541	-0.356657	-0.694762
C54	C	1.063466	-0.356745	-0.163379
C55	C	1.063590	-0.356558	-0.081580
H56	H	1.019834	-0.919798	-0.469325
H57	H	0.633566	-0.270707	-0.269346
O58	O	1.164376	-0.924565	-0.440784
C59	C	1.260117	-0.924249	-0.532106
C60	C	1.234214	-0.895147	-0.457006
H61	H	1.316577	-0.900465	-0.545252
H62	H	1.263498	-0.987113	-0.530377
H63	H	1.219419	-0.906674	-0.576313
H64	H	1.274887	-0.912668	-0.412758
H65	H	1.230812	-0.832287	-0.458797
H66	H	1.148992	-0.270712	-0.785278
O67	O	0.970627	-0.449896	-0.779124
C68	C	0.871280	-0.459872	-0.692292
C69	C	0.923124	-0.407799	-0.734596
H70	H	0.832871	-0.425859	-0.656269
H71	H	0.837574	-0.493702	-0.732910
H72	H	0.905056	-0.498618	-0.656338
H73	H	0.889405	-0.369009	-0.770550
H74	H	0.956833	-0.374022	-0.693938
H75	H	1.019695	-0.792568	-0.468960
H76	H	1.156785	-0.792893	-0.433269
H77	H	1.149006	-0.270673	-0.924705
O78	O	0.488049	-0.450139	-0.447302
C79	C	0.401282	-0.460238	-0.546624
C80	C	0.443562	-0.408100	-0.494902
H81	H	0.365293	-0.426271	-0.585112
H82	H	0.441917	-0.494117	-0.580253
H83	H	0.365298	-0.498934	-0.512758
H84	H	0.479547	-0.369360	-0.528711
H85	H	0.402888	-0.374273	-0.461271
H86	H	0.978129	-0.442518	-0.924646
H87	H	0.633553	-0.442789	-0.439829
O88	O	0.487978	-0.263338	-0.262002
C89	C	0.369579	-0.221276	-0.220399
C90	C	0.411885	-0.273417	-0.272079
H91	H	0.308050	-0.229395	-0.228538
H92	H	0.384604	-0.234203	-0.161017
H93	H	0.384769	-0.161586	-0.233419
H94	H	0.396717	-0.333125	-0.259125
H95	H	0.396857	-0.260427	-0.331445
H96	H	1.081640	-0.919692	-0.233455
H97	H	0.949472	-0.920836	-0.398633
H98	H	1.082498	-0.792959	-0.233404
O99	O	0.937701	-0.789226	-0.395874
C100	C	0.833574	-0.718321	-0.436916
C101	C	0.911546	-0.745921	-0.454660
H102	H	0.812410	-0.683291	-0.484426
H103	H	0.795577	-0.767651	-0.428378
H104	H	0.835032	-0.683545	-0.384773
H105	H	0.910159	-0.780685	-0.506809
H106	H	0.949511	-0.696559	-0.463150
O107	O	0.974173	-0.922768	-0.257324
C108	C	0.851745	-0.888416	-0.220670
C109	C	0.928652	-0.861376	-0.243387
H110	H	0.814924	-0.838795	-0.209381
H111	H	0.827102	-0.922933	-0.266843
H112	H	0.856292	-0.923547	-0.168913
H113	H	0.924168	-0.826216	-0.295127
H114	H	0.953266	-0.826899	-0.197171
H115	H	0.986172	-0.791946	-0.259906
H116	H	1.185453	-0.791842	-0.337692
H117	H	1.183674	-0.919155	-0.332965
