data_functionalizedCrystal
_audit_creation_method	'MofGen! by Chris Wilmer'
_symmetry_space_group_name_H-M	'P1'
_symmetry_Int_Tables_number	1
_symmetry_cell_setting	triclinic
loop_
_symmetry_equiv_pos_as_xyz
  x,y,z
_cell_length_a	10.540514
_cell_length_b	10.654541
_cell_length_c	9.730217
_cell_angle_alpha	90.003041
_cell_angle_beta	90.002017
_cell_angle_gamma	95.500456
loop_
_atom_site_label
_atom_site_type_symbol
_atom_site_fract_x
_atom_site_fract_y
_atom_site_fract_z
O1	O	1.685835	-0.176839	-0.114181
O2	O	1.316412	-0.193548	-0.114207
O3	O	1.509619	-0.002456	-0.114185
O4	O	1.492628	-0.367931	-0.114203
O5	O	1.509613	-0.002455	0.114395
O6	O	1.316406	-0.193547	0.114373
O7	O	1.685829	-0.176837	0.114399
Zn8	Zn	1.501117	-0.185192	0.150678
Zn9	Zn	1.501125	-0.185194	-0.150486
O10	O	1.492622	-0.367929	0.114377
C11	C	1.269106	-0.192301	0.000079
C12	C	1.128158	-0.188572	0.000069
C13	C	1.508369	0.044343	0.000104
C14	C	1.504639	0.183787	0.000102
C15	C	1.733135	-0.178085	0.000110
C16	C	1.874084	-0.181814	0.000110
C17	C	1.944840	-0.045147	0.000110
C18	C	2.091451	-0.048980	-0.000431
C19	C	2.066379	-0.256140	-0.130198
C20	C	1.919841	-0.251338	-0.130285
C21	C	1.919468	-0.253359	0.129662
C22	C	2.066446	-0.254678	0.131352
C23	C	1.493872	-0.414729	0.000085
C24	C	1.497603	-0.554173	0.000078
N25	N	1.501121	-0.185189	0.356215
C26	C	1.735670	0.211698	0.000136
C27	C	1.849428	0.291162	0.000155
C28	C	1.845915	0.422181	0.000151
C29	C	1.728631	0.473737	0.000122
C30	C	1.614874	0.394272	0.000103
C31	C	1.618399	0.263252	0.000111
C32	C	1.383845	0.366363	0.000059
C33	C	1.387355	0.235343	0.000073
C34	C	1.266562	0.417919	0.000031
C35	C	1.152801	0.338454	0.000021
C36	C	1.156319	0.207427	0.000027
C37	C	1.273597	0.155879	0.000054
N38	N	1.501131	-0.185187	-0.356023
C39	C	1.672276	-0.016027	0.356225
C40	C	1.757862	0.068550	0.428170
C41	C	1.757875	0.068551	0.572050
C42	C	1.672290	-0.016032	0.643988
C43	C	1.586704	-0.100610	0.572043
C44	C	1.586703	-0.100604	0.428160
C45	C	1.415545	-0.269764	0.572032
C46	C	1.415536	-0.269773	0.428153
C47	C	1.329960	-0.354347	0.643970
C48	C	1.244377	-0.438933	0.572025
C49	C	1.244369	-0.438931	0.428137
C50	C	1.329950	-0.354350	0.356208
H51	H	2.134145	0.004158	0.092934
Cl52	Cl	1.988925	0.522083	0.000163
H53	H	1.827543	0.137420	0.369585
H54	H	1.891624	-0.201991	-0.228031
H55	H	1.329968	-0.354338	0.761125
Cl56	Cl	1.262145	0.582629	-0.000062
Cl57	Cl	1.845660	-0.406330	-0.138855
Cl58	Cl	1.724219	0.638448	0.000023
H59	H	1.174670	-0.507799	0.369567
H60	H	1.672285	-0.016030	0.239070
Cl61	Cl	1.329952	-0.354345	0.175329
Cl62	Cl	1.278030	-0.008830	0.000071
Cl63	Cl	2.155911	0.032717	-0.145456
H64	H	1.827562	0.137425	0.630628
H65	H	2.088655	-0.358667	-0.134683
H66	H	1.057318	0.380442	-0.000011
Cl67	Cl	1.013300	0.107539	-0.000008
Cl68	Cl	1.672291	-0.016015	0.824866
Cl69	Cl	1.136789	-0.545247	0.662465
Cl70	Cl	2.132108	-0.184588	-0.280454
Cl71	Cl	1.898196	0.039200	-0.143900
Cl72	Cl	1.870893	-0.183118	0.282167
Cl73	Cl	2.129650	-0.178334	0.280147
Cl74	Cl	1.900826	0.040459	0.144328
H75	H	2.090602	-0.356424	0.139602
Cl76	Cl	1.996862	0.226343	0.000183
H77	H	1.872169	-0.354164	0.130921
H78	H	1.738542	0.105016	0.000158
