data_functionalizedCrystal
_audit_creation_method	'MofGen! by Chris Wilmer'
_symmetry_space_group_name_H-M	'P1'
_symmetry_Int_Tables_number	1
_symmetry_cell_setting	triclinic
loop_
_symmetry_equiv_pos_as_xyz
  x,y,z
_cell_length_a	10.654562
_cell_length_b	14.519709
_cell_length_c	13.596369
_cell_angle_alpha	90.008809
_cell_angle_beta	89.991227
_cell_angle_gamma	95.914876
loop_
_atom_site_label
_atom_site_type_symbol
_atom_site_fract_x
_atom_site_fract_y
_atom_site_fract_z
O1	O	1.666589	-0.129582	-0.081876
O2	O	1.300994	-0.141911	-0.081866
O3	O	1.493485	-0.001558	-0.081844
O4	O	1.474099	-0.269934	-0.081899
O5	O	1.493461	-0.001566	0.081739
O6	O	1.300971	-0.141918	0.081717
O7	O	1.666566	-0.129590	0.081706
Zn8	Zn	1.483765	-0.135755	0.107684
Zn9	Zn	1.483796	-0.135745	-0.107844
O10	O	1.474075	-0.269942	0.081684
C11	C	1.254194	-0.141007	-0.000073
C12	C	1.114777	-0.138291	-0.000068
C13	C	1.049246	-0.137029	0.089094
C14	C	0.918248	-0.134484	0.089078
C15	C	0.918324	-0.134469	-0.089269
C16	C	1.049321	-0.137007	-0.089252
C17	C	1.049200	-0.137041	0.192061
C18	C	0.918202	-0.134497	0.192045
C19	C	1.492570	0.032802	-0.000048
C20	C	1.489862	0.135198	-0.000033
C21	C	1.479895	0.510145	-0.000006
C22	C	1.482663	0.405823	-0.000013
C23	C	1.484879	0.322675	-0.000018
C24	C	1.487647	0.218346	-0.000027
C25	C	1.713367	-0.130493	-0.000089
C26	C	1.852783	-0.133209	-0.000101
C27	C	1.474990	0.695698	-0.000079
C28	C	1.477698	0.593302	0.000004
N29	N	1.483752	-0.135762	0.254776
N30	N	1.483818	-0.135731	-0.254935
C31	C	1.483759	-0.135764	0.343774
C32	C	1.483771	-0.135757	0.455425
C33	C	1.483787	-0.135747	0.544415
C34	C	1.483801	-0.135742	0.656074
H35	H	0.871298	-0.198235	0.231562
H36	H	1.102674	-0.138020	-0.161856
H37	H	1.078123	-0.204303	0.223997
H38	H	0.865013	-0.133423	-0.161880
H39	H	0.889256	-0.067240	0.224010
H40	H	1.096067	-0.073309	0.231616
