data_functionalizedCrystal
_audit_creation_method	'MofGen! by Chris Wilmer'
_symmetry_space_group_name_H-M	'P1'
_symmetry_Int_Tables_number	1
_symmetry_cell_setting	triclinic
loop_
_symmetry_equiv_pos_as_xyz
  x,y,z
_cell_length_a	10.654554
_cell_length_b	16.109301
_cell_length_c	9.130313
_cell_angle_alpha	89.997330
_cell_angle_beta	89.999615
_cell_angle_gamma	83.974113
loop_
_atom_site_label
_atom_site_type_symbol
_atom_site_fract_x
_atom_site_fract_y
_atom_site_fract_z
O1	O	1.666246	0.116788	-0.121810
O2	O	1.300618	0.127910	-0.121812
O3	O	1.493476	0.001378	-0.121796
O4	O	1.473388	0.243320	-0.121826
O5	O	1.493474	0.001381	0.121803
O6	O	1.300615	0.127913	0.121787
O7	O	1.666244	0.116791	0.121789
Cu8	Cu	1.483429	0.122352	0.144030
Cu9	Cu	1.483432	0.122348	-0.144053
O10	O	1.473386	0.243323	0.121773
C11	C	1.253830	0.127094	-0.000013
C12	C	1.114420	0.124648	-0.000013
C13	C	0.902932	0.196853	-0.000025
C14	C	1.033922	0.199152	-0.000026
C15	C	1.063922	0.047841	-0.000015
C16	C	0.932934	0.045544	-0.000025
C17	C	0.885613	0.284211	-0.000025
C18	C	1.016603	0.286510	-0.000026
C19	C	1.492661	-0.029600	0.000004
C20	C	1.490222	-0.121910	0.000006
C21	C	1.598988	-0.343535	-0.000016
C22	C	1.596686	-0.430269	-0.000028
C23	C	1.367865	-0.411757	-0.000024
C24	C	1.370169	-0.325025	-0.000022
C25	C	1.485734	-0.290916	-0.000011
C26	C	1.481128	-0.464383	-0.000025
C27	C	1.478631	-0.558424	-0.000038
C28	C	1.488231	-0.196869	-0.000001
C29	C	1.713032	0.117607	-0.000013
C30	C	1.852442	0.120053	-0.000023
C31	C	1.474200	0.274301	-0.000030
C32	C	1.476640	0.366611	-0.000042
N33	N	1.483437	0.122355	0.346653
N34	N	1.483435	0.122340	-0.346676
C35	C	1.568856	0.066346	0.423312
C36	C	1.568853	0.066336	0.576649
C37	C	1.398007	0.178351	0.576654
C38	C	1.398005	0.178357	0.423320
C39	C	1.667496	0.001677	0.423311
C40	C	1.667493	0.001667	0.576647
H41	H	0.891831	-0.016994	-0.000042
C42	C	1.726105	-0.306014	-0.000020
C43	C	1.759150	-0.248928	-0.126514
C44	C	1.886271	-0.211411	-0.126524
C45	C	1.980349	-0.230980	-0.000040
C46	C	1.947307	-0.288070	0.126464
C47	C	1.820185	-0.325587	0.126473
H48	H	1.689506	-0.234439	-0.220154
H49	H	1.910731	-0.169150	-0.220171
H50	H	2.074452	-0.203208	-0.000047
H51	H	2.016951	-0.302559	0.220103
H52	H	1.795726	-0.367848	0.220120
H53	H	1.045500	0.320663	0.101928
H54	H	1.277938	-0.282181	-0.000023
H55	H	1.129474	-0.012820	-0.000019
C56	C	0.828604	0.328675	-0.137747
C57	C	0.869918	0.296460	-0.290935
C58	C	0.812909	0.340921	-0.428653
C59	C	0.714587	0.417596	-0.413184
C60	C	0.673268	0.449815	-0.259990
C61	C	0.730276	0.405354	-0.122271
H62	H	0.942707	0.239697	-0.302392
H63	H	0.843497	0.317071	-0.542057
H64	H	0.672386	0.450509	-0.515131
H65	H	0.600479	0.506578	-0.248533
H66	H	0.699689	0.429204	-0.008867
C67	C	1.064238	0.324089	-0.142121
C68	C	1.160046	0.271688	-0.239941
C69	C	1.207680	0.309260	-0.382040
C70	C	1.159508	0.399232	-0.426320
C71	C	1.063695	0.451639	-0.328499
C72	C	1.016060	0.414067	-0.186400
H73	H	1.195710	0.205080	-0.207164
H74	H	1.278608	0.270464	-0.454453
H75	H	1.194770	0.427045	-0.531511
H76	H	1.028030	0.518247	-0.361276
H77	H	0.945133	0.452863	-0.113986
C78	C	1.240749	-0.449280	-0.000033
C79	C	1.238208	-0.544681	-0.000035
C80	C	1.111089	-0.582201	-0.000046
C81	C	0.986510	-0.524319	-0.000053
C82	C	0.989047	-0.428912	-0.000051
C83	C	1.116166	-0.391392	-0.000041
H84	H	1.330433	-0.587534	-0.000030
H85	H	1.109212	-0.652828	-0.000047
H86	H	0.892409	-0.552094	-0.000061
H87	H	0.896822	-0.386059	-0.000057
H88	H	1.118043	-0.320765	-0.000039
H89	H	1.328449	0.223946	0.639093
H90	H	1.758405	0.021927	0.375750
C91	C	1.639691	-0.084647	0.367079
C92	C	1.617268	-0.154244	0.476669
C93	C	1.589461	-0.240564	0.420437
C94	C	1.584076	-0.257287	0.254614
C95	C	1.606499	-0.187688	0.145013
C96	C	1.634307	-0.101368	0.201246
H97	H	1.621254	-0.141866	0.599430
H98	H	1.572862	-0.292086	0.501572
H99	H	1.563491	-0.321187	0.212988
H100	H	1.602514	-0.200066	0.022252
H101	H	1.650906	-0.049847	0.120111
H102	H	1.688909	-0.473108	-0.000036
C103	C	1.797599	0.020917	0.632896
C104	C	1.916788	-0.036947	0.592163
C105	C	2.046884	-0.017695	0.648418
C106	C	2.057791	0.059422	0.745407
C107	C	1.938597	0.117291	0.786145
C108	C	1.808501	0.098039	0.729890
H109	H	1.908719	-0.094038	0.520362
H110	H	2.135119	-0.060534	0.618261
H111	H	2.154095	0.073674	0.787050
H112	H	1.946667	0.174382	0.857946
H113	H	1.720266	0.140878	0.760047
H114	H	0.839603	0.310606	0.105148
H115	H	1.637799	-0.058722	0.624202
H116	H	1.328439	0.223956	0.360906
