data_functionalizedCrystal
_audit_creation_method	'MofGen! by Chris Wilmer'
_symmetry_space_group_name_H-M	'P1'
_symmetry_Int_Tables_number	1
_symmetry_cell_setting	triclinic
loop_
_symmetry_equiv_pos_as_xyz
  x,y,z
_cell_length_a	11.792254
_cell_length_b	11.792254
_cell_length_c	9.798715
_cell_angle_alpha	89.996677
_cell_angle_beta	89.996361
_cell_angle_gamma	84.198598
loop_
_atom_site_label
_atom_site_type_symbol
_atom_site_fract_x
_atom_site_fract_y
_atom_site_fract_z
O1	O	1.506906	0.155633	-0.113491
O2	O	1.840240	0.488966	0.219843
O3	O	2.173573	0.822300	0.553176
O4	O	1.176568	0.171651	-0.113494
O5	O	1.509901	0.504984	0.219840
O6	O	1.843234	0.838317	0.553173
O7	O	1.349746	-0.001527	-0.113482
O8	O	1.683079	0.331806	0.219851
O9	O	2.016413	0.665139	0.553184
O10	O	1.333728	0.328811	-0.113502
O11	O	1.667061	0.662144	0.219832
O12	O	2.000395	0.995478	0.553165
O13	O	1.349733	-0.001528	0.113500
O14	O	1.683066	0.331805	0.446833
O15	O	2.016400	0.665139	0.780167
O16	O	1.176555	0.171650	0.113489
O17	O	1.509888	0.504984	0.446822
O18	O	1.843221	0.838317	0.780155
O19	O	1.506893	0.155632	0.113492
O20	O	1.840227	0.488966	0.446825
O21	O	2.173560	0.822299	0.780158
Zn22	Zn	1.341722	0.163641	0.149528
Zn23	Zn	1.675055	0.496975	0.482862
Zn24	Zn	2.008389	0.830308	0.816195
Zn25	Zn	1.341739	0.163642	-0.149530
Zn26	Zn	1.675072	0.496975	0.183803
Zn27	Zn	2.008406	0.830309	0.517136
O28	O	1.333715	0.328811	0.113480
O29	O	1.667048	0.662144	0.446814
O30	O	2.000382	0.995477	0.780147
C31	C	1.134271	0.170642	-0.000003
C32	C	1.467604	0.503975	0.333331
C33	C	1.800937	0.837308	0.666664
C34	C	1.008257	0.167621	-0.000004
C35	C	1.341591	0.500955	0.333330
C36	C	1.674924	0.834288	0.666663
C37	C	0.905921	0.165168	-0.000009
C38	C	1.239254	0.498501	0.333324
C39	C	1.572587	0.831834	0.666657
C40	C	0.777534	0.162099	-0.000010
C41	C	1.110867	0.495432	0.333323
C42	C	1.444201	0.828766	0.666657
C43	C	1.348730	-0.043818	0.000008
C44	C	1.682064	0.289515	0.333342
C45	C	2.015397	0.622848	0.666675
C46	C	1.345710	-0.169832	0.000007
C47	C	1.679044	0.163502	0.333340
C48	C	2.012377	0.496835	0.666674
C49	C	1.343256	-0.272168	0.000002
C50	C	1.676590	0.061165	0.333335
C51	C	2.009923	0.394498	0.666669
C52	C	1.340188	-0.400555	-0.000010
C53	C	1.673521	-0.067222	0.333323
C54	C	2.006855	0.266112	0.666656
C55	C	1.549190	0.156642	-0.000002
C56	C	1.882524	0.489975	0.333331
C57	C	2.215857	0.823308	0.666665
C58	C	1.675204	0.159662	-0.000010
C59	C	2.008537	0.492995	0.333323
C60	C	2.341870	0.826329	0.666657
C61	C	1.334731	0.371102	-0.000013
C62	C	1.668064	0.704435	0.333320
C63	C	2.001397	1.037768	0.666653
C64	C	1.337751	0.497115	-0.000021
C65	C	1.671084	0.830448	0.333312
C66	C	2.004417	1.163781	0.666646
N67	N	1.341719	0.163640	0.353628
N68	N	1.675052	0.496974	0.686961
N69	N	2.008385	0.830307	1.020295
N70	N	1.341751	0.163634	-0.353630
N71	N	1.675085	0.496967	-0.020297
N72	N	2.008418	0.830301	0.313037
C73	C	1.414432	0.090608	0.421410
C74	C	1.747765	0.423941	0.754743
C75	C	2.081099	0.757275	1.088076
C76	C	1.414450	0.090604	0.578572
C77	C	1.747784	0.423937	0.911906
C78	C	2.081117	0.757271	1.245239
H79	H	1.476668	0.028080	0.363091
H80	H	1.810002	0.361413	0.696425
H81	H	2.143335	0.694747	1.029758
H82	H	1.476708	0.028082	0.636862
H83	H	1.810041	0.361415	0.970195
H84	H	2.143374	0.694749	1.303528
Cl85	Cl	1.245635	0.260183	0.556390
Cl86	Cl	1.578969	0.593517	0.889724
Cl87	Cl	1.912302	0.926850	1.223057
H88	H	1.279475	0.226159	0.411949
H89	H	1.612808	0.559493	0.745282
H90	H	1.946142	0.892826	1.078615
