data_functionalizedCrystal
_audit_creation_method	'MofGen! by Chris Wilmer'
_symmetry_space_group_name_H-M	'P1'
_symmetry_Int_Tables_number	1
_symmetry_cell_setting	triclinic
loop_
_symmetry_equiv_pos_as_xyz
  x,y,z
_cell_length_a	19.805407
_cell_length_b	12.645330
_cell_length_c	19.805399
_cell_angle_alpha	89.979178
_cell_angle_beta	90.019573
_cell_angle_gamma	89.973813
loop_
_atom_site_label
_atom_site_type_symbol
_atom_site_fract_x
_atom_site_fract_y
_atom_site_fract_z
Zn1	Zn	1.034737	0.422064	0.382751
Zn2	Zn	1.034652	0.599342	0.269577
Zn3	Zn	0.921551	0.422093	0.269576
Zn4	Zn	0.921515	0.599286	0.382723
O5	O	0.978114	0.510696	0.326157
O6	O	1.129442	0.445592	0.367751
O7	O	1.019629	0.575866	0.174860
O8	O	0.936616	0.273742	0.284601
O9	O	1.129380	0.575837	0.284601
O10	O	1.019773	0.273721	0.367750
O11	O	0.936534	0.445641	0.174859
O12	O	0.826830	0.445587	0.284573
O13	O	0.936555	0.575741	0.477444
O14	O	0.826804	0.575769	0.367702
O15	O	1.019738	0.445537	0.477464
O16	O	1.019594	0.747682	0.284574
O17	O	0.936473	0.747641	0.367703
C18	C	0.802258	0.510676	0.326135
C19	C	0.727026	0.510693	0.326142
C20	C	0.691686	0.578581	0.369357
C21	C	0.620997	0.578583	0.369366
C22	C	0.585650	0.510701	0.326157
C23	C	0.620995	0.442805	0.282940
C24	C	0.691683	0.442799	0.282934
C25	C	0.335922	0.442829	0.282962
C26	C	0.265230	0.442843	0.282970
C27	C	0.265237	0.578613	0.369394
C28	C	0.335924	0.578606	0.369389
C29	C	0.371263	0.510707	0.326174
C30	C	0.447911	0.510705	0.326166
C31	C	0.509003	0.510708	0.326162
C32	C	0.978038	0.786126	0.326150
C33	C	0.978068	0.903956	0.326170
C34	C	0.925976	1.071538	0.378629
C35	C	0.925722	0.948979	0.378459
C36	C	0.958758	0.948544	0.254838
C37	C	0.958428	1.071142	0.255158
C38	C	1.049753	1.071047	0.344468
C39	C	1.049325	0.948440	0.346027
C40	C	1.154657	0.510717	0.326179
C41	C	1.229889	0.510726	0.326189
C42	C	0.978152	0.510630	0.502700
C43	C	0.978168	0.510601	0.577932
C44	C	0.978184	1.234191	0.326181
C45	C	0.978154	1.116361	0.326198
C46	C	0.978115	0.510686	0.150301
C47	C	0.978230	0.510416	0.075069
C48	C	1.021483	0.442800	0.613288
C49	C	1.021489	0.442770	0.683976
C50	C	0.978185	0.510546	0.719307
C51	C	0.934866	0.578349	0.683946
C52	C	0.934856	0.578374	0.613259
C53	C	0.934904	0.578251	0.969020
C54	C	0.934918	0.578223	1.039712
C55	C	1.021538	0.442646	1.039737
C56	C	1.021528	0.442671	0.969050
C57	C	0.978206	0.510470	0.933695
C58	C	0.978198	0.510501	0.857046
C59	C	0.978196	0.510521	0.795954
H60	H	0.592226	0.633865	0.404556
C61	C	1.007533	1.111214	0.200584
H62	H	1.007668	1.186342	0.200413
H63	H	0.993502	1.086025	0.157635
H64	H	1.051729	1.086004	0.210046
C65	C	1.069160	0.368118	0.930186
H66	H	1.062954	0.377849	0.883023
H67	H	1.059280	0.296886	0.941775
H68	H	1.114637	0.383639	0.941777
C69	C	0.854027	0.909476	0.362097
H70	H	0.824945	0.968356	0.355522
H71	H	0.837765	0.867753	0.398515
H72	H	0.855137	0.867960	0.322145
C73	C	0.226362	0.653291	0.416937
H74	H	0.179201	0.643568	0.410760
H75	H	0.237924	0.724496	0.406954
H76	H	0.237973	0.637862	0.462431
C77	C	0.730564	0.653257	0.416882
H78	H	0.777725	0.643541	0.410685
H79	H	0.719005	0.637844	0.462378
H80	H	0.718954	0.724466	0.406893
H81	H	0.720456	0.387512	0.247748
H82	H	0.899604	0.633530	0.712719
H83	H	0.873228	1.102438	0.366679
C84	C	0.887723	1.109906	0.234256
H85	H	0.859470	1.050727	0.225653
H86	H	0.891189	1.151778	0.194578
H87	H	0.868883	1.151113	0.269653
H88	H	0.364687	0.387549	0.247769
H89	H	0.236453	0.387559	0.247783
H90	H	1.056762	0.387562	0.712760
H91	H	0.899639	0.633472	0.940242
H92	H	0.995562	0.919382	0.214704
H93	H	0.592210	0.387530	0.247761
C94	C	1.069186	0.368060	1.078629
H95	H	1.062988	0.377741	1.125788
H96	H	1.114656	0.383588	1.067052
H97	H	1.059302	0.296831	1.067046
H98	H	0.899578	0.633574	0.584473
H99	H	0.899652	0.633416	1.068477
C100	C	1.069007	0.909054	0.416938
H101	H	1.033951	0.865676	0.434375
H102	H	1.075612	0.967935	0.445967
H103	H	1.109597	0.869226	0.414217
C104	C	0.374802	0.653272	0.416921
H105	H	0.343630	0.693698	0.442665
H106	H	0.402357	0.699406	0.390981
H107	H	0.402397	0.612766	0.446455
C108	C	0.888793	0.907209	0.233552
H109	H	0.871257	0.862792	0.268035
H110	H	0.892839	0.868080	0.192819
H111	H	0.859112	0.965266	0.226685
H112	H	1.056748	0.387612	0.584526
C113	C	1.073541	1.112711	0.413543
H114	H	1.040024	1.158135	0.431888
H115	H	1.114492	1.150837	0.408066
H116	H	1.080767	1.054857	0.443298
H117	H	0.937803	0.918829	0.431351
H118	H	1.090253	0.917787	0.310619
C119	C	0.942131	1.111275	0.450319
H120	H	0.910067	1.083329	0.481202
H121	H	0.940161	1.186322	0.451124
H122	H	0.986133	1.088671	0.462867
C123	C	1.102254	1.110096	0.292836
H124	H	1.080683	1.153816	0.260306
H125	H	1.122202	1.051073	0.270878
H126	H	1.136254	1.149484	0.315457
