data_functionalizedCrystal
_audit_creation_method	'MofGen! by Chris Wilmer'
_symmetry_space_group_name_H-M	'P1'
_symmetry_Int_Tables_number	1
_symmetry_cell_setting	triclinic
loop_
_symmetry_equiv_pos_as_xyz
  x,y,z
_cell_length_a	16.959454
_cell_length_b	16.959455
_cell_length_c	16.959447
_cell_angle_alpha	89.985678
_cell_angle_beta	89.973264
_cell_angle_gamma	90.017022
loop_
_atom_site_label
_atom_site_type_symbol
_atom_site_fract_x
_atom_site_fract_y
_atom_site_fract_z
Zn1	Zn	-0.314730	1.208384	-0.446928
Zn2	Zn	0.185270	1.708384	0.053072
Zn3	Zn	-0.446923	1.208306	-0.314758
Zn4	Zn	0.053077	1.708306	0.185242
Zn5	Zn	-0.314755	1.076212	-0.314766
Zn6	Zn	0.185245	1.576212	0.185234
Zn7	Zn	-0.446864	1.076177	-0.446897
Zn8	Zn	0.053136	1.576177	0.053103
O9	O	-0.380818	1.142270	-0.380837
O10	O	0.119182	1.642270	0.119163
O11	O	-0.332280	1.318984	-0.429406
O12	O	0.167720	1.818984	0.070594
O13	O	-0.429426	1.190766	-0.204148
O14	O	0.070574	1.690766	0.295852
O15	O	-0.204141	1.093792	-0.332314
O16	O	0.295859	1.593792	0.167686
O17	O	-0.429402	1.318927	-0.332301
O18	O	0.070598	1.818927	0.167699
O19	O	-0.204123	1.190898	-0.429413
O20	O	0.295877	1.690898	0.070587
O21	O	-0.332323	1.093717	-0.204154
O22	O	0.167677	1.593717	0.295846
O23	O	-0.332265	0.965597	-0.332283
O24	O	0.167735	1.465597	0.167717
O25	O	-0.429301	1.093732	-0.557512
O26	O	0.070699	1.593732	-0.057512
O27	O	-0.429325	0.965571	-0.429359
O28	O	0.070675	1.465571	0.070641
O29	O	-0.332223	1.190864	-0.557535
O30	O	0.167777	1.690864	-0.057535
O31	O	-0.557526	1.190732	-0.332270
O32	O	-0.057526	1.690732	0.167730
O33	O	-0.557482	1.093657	-0.429352
O34	O	-0.057482	1.593657	0.070648
C35	C	-0.380792	0.936904	-0.380819
C36	C	0.119208	1.436904	0.119181
C37	C	-0.380800	0.849047	-0.380830
C38	C	0.119200	1.349047	0.119170
C39	C	-0.586184	1.142204	-0.380824
C40	C	-0.086184	1.642204	0.119176
C41	C	-0.674041	1.142248	-0.380844
C42	C	-0.174041	1.642248	0.119156
C43	C	-0.330238	0.477560	-0.330395
C44	C	0.169762	0.977560	0.169605
C45	C	-0.431463	0.477582	-0.431324
C46	C	0.068537	0.977582	0.068676
C47	C	-0.431452	0.560128	-0.431320
C48	C	0.068548	1.060128	0.068680
C49	C	-0.380834	0.601394	-0.380851
C50	C	0.119166	1.101394	0.119149
C51	C	-0.330226	0.560114	-0.330387
C52	C	0.169774	1.060114	0.169613
C53	C	-0.482064	0.601414	-0.481777
C54	C	0.017936	1.101414	0.018223
C55	C	-0.482055	0.683965	-0.481773
C56	C	0.017945	1.183965	0.018227
C57	C	-0.431432	0.725233	-0.431308
C58	C	0.068568	1.225233	0.068692
C59	C	-0.380822	0.683948	-0.380843
C60	C	0.119178	1.183948	0.119157
C61	C	-0.330204	0.725213	-0.330374
C62	C	0.169796	1.225213	0.169626
C63	C	-0.279589	0.683930	-0.279913
C64	C	0.220411	1.183930	0.220087
C65	C	-0.279603	0.601381	-0.279922
C66	C	0.220397	1.101381	0.220078
C67	C	-0.431418	0.807781	-0.431299
C68	C	0.068582	1.307781	0.068701
C69	C	-0.330193	0.807767	-0.330366
C70	C	0.169807	1.307767	0.169634
C71	C	-1.045524	1.091796	-0.431382
C72	C	-0.545524	1.591796	0.068618
C73	C	-1.045509	1.192963	-0.330373
C74	C	-0.545509	1.692963	0.169627
C75	C	-0.962963	1.192936	-0.330365
C76	C	-0.462963	1.692936	0.169635
C77	C	-0.921694	1.142337	-0.380867
C78	C	-0.421694	1.642337	0.119133
C79	C	-0.962970	1.091765	-0.431375
C80	C	-0.462970	1.591765	0.068625
C81	C	-0.921680	1.243501	-0.279852
C82	C	-0.421680	1.743501	0.220148
C83	C	-0.839130	1.243475	-0.279842
C84	C	-0.339130	1.743475	0.220158
C85	C	-0.797859	1.192879	-0.330348
C86	C	-0.297859	1.692879	0.169652
C87	C	-0.839140	1.142306	-0.380859
C88	C	-0.339140	1.642306	0.119141
C89	C	-0.797871	1.091707	-0.431360
C90	C	-0.297871	1.591707	0.068640
C91	C	-0.839151	1.041137	-0.481876
C92	C	-0.339151	1.541137	0.018124
C93	C	-0.921699	1.041170	-0.481881
C94	C	-0.421699	1.541170	0.018119
C95	C	-0.715310	1.192847	-0.330343
C96	C	-0.215310	1.692847	0.169657
C97	C	-0.715317	1.091676	-0.431353
C98	C	-0.215317	1.591676	0.068647
C99	C	-0.174650	1.142358	-0.380868
C100	C	0.325350	1.642358	0.119132
C101	C	-0.086793	1.142395	-0.380881
C102	C	0.413207	1.642395	0.119119
C103	C	-0.380753	1.142303	-0.587006
C104	C	0.119247	1.642303	-0.087006
C105	C	-0.380725	1.142317	-0.674862
C106	C	0.119275	1.642317	-0.174862
C107	C	-0.380845	1.348438	-0.380856
C108	C	0.119155	1.848438	0.119144
C109	C	-0.380856	1.436295	-0.380864
C110	C	0.119144	1.936295	0.119136
C111	C	-0.431185	1.091839	-1.046328
C112	C	0.068815	1.591839	-0.546328
C113	C	-0.330097	1.192983	-1.046348
C114	C	0.169903	1.692983	-0.546348
C115	C	-0.330114	1.192962	-0.963802
C116	C	0.169886	1.692962	-0.463802
C117	C	-0.380668	1.142380	-0.922515
C118	C	0.119332	1.642380	-0.422515
C119	C	-0.431205	1.091818	-0.963775
C120	C	0.068795	1.591818	-0.463775
C121	C	-0.279584	1.243529	-0.922536
C122	C	0.220416	1.743529	-0.422536
C123	C	-0.279599	1.243510	-0.839985
C124	C	0.220401	1.743510	-0.339985
C125	C	-0.330149	1.192923	-0.798697
C126	C	0.169851	1.692923	-0.298697
C127	C	-0.380688	1.142359	-0.839962
C128	C	0.119312	1.642359	-0.339962
C129	C	-0.431242	1.091776	-0.798675
C130	C	0.068758	1.591776	-0.298675
C131	C	-0.481777	1.041207	-0.839938
C132	C	0.018223	1.541207	-0.339938
C133	C	-0.481756	1.041231	-0.922487
C134	C	0.018244	1.541231	-0.422487
C135	C	-0.330171	1.192899	-0.716149
C136	C	0.169829	1.692899	-0.216149
C137	C	-0.431262	1.091755	-0.716122
C138	C	0.068738	1.591755	-0.216122
C139	C	-0.380826	1.142283	-0.175471
C140	C	0.119174	1.642283	0.324529
C141	C	-0.380631	1.142422	-0.087615
C142	C	0.119369	1.642422	0.412385
H143	H	-0.238379	0.717539	-0.238818
H144	H	0.261621	1.217539	0.261182
H145	H	-0.288968	0.841360	-0.289273
H146	H	0.211032	1.341360	0.210727
C147	C	-1.070999	0.957936	-0.469778
C148	C	-0.570999	1.457936	0.030222
C149	C	-1.090891	1.036211	-0.486909
C150	C	-0.590891	1.536211	0.013091
H151	H	-1.099003	0.923621	-0.504063
H152	H	-0.599003	1.423621	-0.004063
H153	H	-1.084575	0.946411	-0.416669
H154	H	-0.584575	1.446411	0.083331
H155	H	-1.015927	0.950687	-0.476996
H156	H	-0.515927	1.450687	0.023004
H157	H	-1.145962	1.043461	-0.479685
H158	H	-0.645962	1.543461	0.020315
H159	H	-1.077320	1.047739	-0.540031
H160	H	-0.577320	1.547739	-0.040031
C161	C	-0.179670	1.343510	-0.914270
C162	C	0.320330	1.843510	-0.414270
C163	C	-0.224018	1.299128	-0.967917
C164	C	0.275982	1.799128	-0.467917
H165	H	-0.145368	1.377838	-0.942290
H166	H	0.354632	1.877838	-0.442290
H167	H	-0.149439	1.309080	-0.882078
H168	H	0.350561	1.809080	-0.382078
H169	H	-0.214130	1.373723	-0.882066
H170	H	0.285870	1.873723	-0.382066
H171	H	-0.189559	1.268910	-1.000117
H172	H	0.310441	1.768910	-0.500117
H173	H	-0.254251	1.333562	-1.000122
H174	H	0.245749	1.833562	-0.500122
C175	C	-0.526687	0.996275	-0.713382
C176	C	-0.026687	1.496275	-0.213382
C177	C	-0.537345	0.985607	-0.794550
C178	C	-0.037345	1.485607	-0.294550
H179	H	-0.560989	0.961947	-0.685361
H180	H	-0.060989	1.461947	-0.185361
H181	H	-0.538269	1.049370	-0.699863
H182	H	-0.038269	1.549370	-0.199863
H183	H	-0.473577	0.984729	-0.699875
H184	H	0.026423	1.484729	-0.199875
H185	H	-0.590454	0.997159	-0.808059
H186	H	-0.090454	1.497159	-0.308059
H187	H	-0.525768	0.932499	-0.808075
H188	H	-0.025768	1.432499	-0.308075
C189	C	-0.520713	0.709412	-0.615553
C190	C	-0.020713	1.209412	-0.115553
C191	C	-0.537681	0.729340	-0.537246
C192	C	-0.037681	1.229340	-0.037246
H193	H	-0.555050	0.737429	-0.649801
H194	H	-0.055050	1.237429	-0.149801
H195	H	-0.527968	0.654349	-0.622771
H196	H	-0.027968	1.154349	-0.122771
H197	H	-0.467614	0.722954	-0.627198
H198	H	0.032386	1.222954	-0.127198
H199	H	-0.590779	0.715792	-0.525600
H200	H	-0.090779	1.215792	-0.025600
H201	H	-0.530432	0.784415	-0.530026
H202	H	-0.030432	1.284415	-0.030026
C203	C	-0.947175	0.907308	-0.520269
C204	C	-0.447175	1.407308	-0.020269
C205	C	-0.967071	0.985582	-0.537401
C206	C	-0.467071	1.485582	-0.037401
H207	H	-0.975184	0.872992	-0.554548
H208	H	-0.475184	1.372992	-0.054548
H209	H	-0.960743	0.895786	-0.467157
H210	H	-0.460743	1.395786	0.032843
H211	H	-0.892104	0.900060	-0.527496
H212	H	-0.392104	1.400060	-0.027496
H213	H	-1.022141	0.992831	-0.530169
H214	H	-0.522141	1.492831	-0.030169
H215	H	-0.953509	0.997108	-0.590526
H216	H	-0.453509	1.497108	-0.090526
H217	H	-0.238450	1.284686	-0.806396
H218	H	0.261550	1.784686	-0.306396
H219	H	-1.079115	1.234154	-0.289252
H220	H	-0.579115	1.734154	0.210748
H221	H	-0.238397	0.567761	-0.238838
H222	H	0.261603	1.067761	0.261162
H223	H	-0.288943	1.234170	-1.079968
H224	H	0.211057	1.734170	-0.579968
H225	H	-0.472630	0.841390	-0.472381
H226	H	0.027370	1.341390	0.027619
H227	H	-0.289028	1.234074	-0.682556
H228	H	0.210972	1.734074	-0.182556
C229	C	-0.291565	0.452111	-0.196618
C230	C	0.208435	0.952111	0.303382
C231	C	-0.274604	0.432188	-0.274928
C232	C	0.225396	0.932188	0.225072
H233	H	-0.257214	0.424102	-0.162377
H234	H	0.242786	0.924102	0.337623
H235	H	-0.344652	0.438561	-0.184966
H236	H	0.155348	0.938561	0.315034
H237	H	-0.284316	0.507182	-0.189401
H238	H	0.215684	1.007182	0.310599
H239	H	-0.281858	0.377118	-0.282147
H240	H	0.218142	0.877118	0.217853
H241	H	-0.221503	0.445732	-0.286584
H242	H	0.278497	0.945732	0.213416
H243	H	-0.522901	1.000063	-0.956091
H244	H	-0.022901	1.500063	-0.456091
H245	H	-0.472327	1.050665	-1.079928
H246	H	0.027673	1.550665	-0.579928
H247	H	-0.955288	1.284690	-0.238731
H248	H	-0.455288	1.784690	0.261269
H249	H	-0.523280	0.567810	-0.522860
H250	H	-0.023280	1.067810	-0.022860
C251	C	-0.476424	0.351051	-0.476147
C252	C	0.023576	0.851051	0.023853
C253	C	-0.487101	0.432225	-0.486797
C254	C	0.012899	0.932225	0.013203
H255	H	-0.510771	0.323049	-0.510400
H256	H	-0.010771	0.823049	-0.010400
H257	H	-0.487933	0.337510	-0.423026
H258	H	0.012067	0.837510	0.076974
H259	H	-0.423329	0.337542	-0.487805
H260	H	0.076671	0.837542	0.012195
H261	H	-0.540195	0.445734	-0.475134
H262	H	-0.040195	0.945734	0.024866
H263	H	-0.475598	0.445771	-0.539930
H264	H	0.024402	0.945771	-0.039930
C265	C	-0.622434	1.080590	-0.537660
C266	C	-0.122434	1.580590	-0.037660
C267	C	-0.669957	1.036057	-0.486868
C268	C	-0.169957	1.536057	0.013132
H269	H	-0.594434	1.046252	-0.571935
H270	H	-0.094434	1.546252	-0.071935
H271	H	-0.586038	1.110691	-0.507575
H272	H	-0.086038	1.610691	-0.007575
H273	H	-0.654604	1.115021	-0.567925
H274	H	-0.154604	1.615021	-0.067925
H275	H	-0.637786	1.001630	-0.456599
H276	H	-0.137786	1.501630	0.043401
H277	H	-0.706357	1.005943	-0.516956
H278	H	-0.206357	1.505943	-0.016956
C279	C	-0.746256	1.030059	-0.588172
C280	C	-0.246256	1.530059	-0.088172
C281	C	-0.793781	0.985521	-0.537387
C282	C	-0.293781	1.485521	-0.037387
H283	H	-0.718249	0.995724	-0.622444
H284	H	-0.218249	1.495724	-0.122444
H285	H	-0.709867	1.060164	-0.558083
H286	H	-0.209867	1.560164	-0.058083
H287	H	-0.778426	1.064487	-0.618442
H288	H	-0.278426	1.564487	-0.118442
H289	H	-0.761611	0.951098	-0.507113
H290	H	-0.261611	1.451098	-0.007113
H291	H	-0.830174	0.955404	-0.567480
H292	H	-0.330174	1.455404	-0.067480
H293	H	-0.805524	1.284651	-0.238711
H294	H	-0.305524	1.784651	0.261289
H295	H	-0.681704	1.234016	-0.289211
H296	H	-0.181704	1.734016	0.210789
H297	H	-0.472422	1.050557	-0.682512
H298	H	0.027578	1.550557	-0.182512
