data_functionalizedCrystal
_audit_creation_method	'MofGen! by Chris Wilmer'
_symmetry_space_group_name_H-M	'P1'
_symmetry_Int_Tables_number	1
_symmetry_cell_setting	triclinic
loop_
_symmetry_equiv_pos_as_xyz
  x,y,z
_cell_length_a	13.032891
_cell_length_b	13.032721
_cell_length_c	19.805399
_cell_angle_alpha	97.155902
_cell_angle_beta	82.810359
_cell_angle_gamma	90.903621
loop_
_atom_site_label
_atom_site_type_symbol
_atom_site_fract_x
_atom_site_fract_y
_atom_site_fract_z
Zn1	Zn	1.520227	-0.609419	-0.557653
Zn2	Zn	2.020227	-0.109419	-0.057653
Zn3	Zn	1.498271	-0.781386	-0.456807
Zn4	Zn	1.998271	-0.281386	0.043193
Zn5	Zn	1.348248	-0.587575	-0.428561
Zn6	Zn	1.848248	-0.087575	0.071439
Zn7	Zn	1.326376	-0.759468	-0.554039
Zn8	Zn	1.826376	-0.259468	-0.054039
O9	O	1.423280	-0.684462	-0.499265
O10	O	1.923280	-0.184462	0.000735
O11	O	1.661227	-0.650546	-0.557608
O12	O	2.161227	-0.150546	-0.057608
O13	O	1.478334	-0.755708	-0.358343
O14	O	1.978334	-0.255708	0.141657
O15	O	1.389403	-0.446565	-0.435377
O16	O	1.889403	0.053435	0.064623
O17	O	1.645096	-0.776889	-0.483518
O18	O	2.145096	-0.276889	0.016482
O19	O	1.515756	-0.462615	-0.530220
O20	O	2.015756	0.037385	-0.030220
O21	O	1.368113	-0.613315	-0.337591
O22	O	1.868113	-0.113315	0.162409
O23	O	1.201434	-0.592062	-0.431873
O24	O	1.701434	-0.092062	0.068127
O25	O	1.352126	-0.739533	-0.649235
O26	O	1.852126	-0.239533	-0.149235
O27	O	1.185365	-0.718351	-0.524061
O28	O	1.685365	-0.218351	-0.024061
O29	O	1.494548	-0.629293	-0.651890
O30	O	1.994548	-0.129293	-0.151890
O31	O	1.457126	-0.922386	-0.480014
O32	O	1.957126	-0.422386	0.019986
O33	O	1.330836	-0.906283	-0.551449
O34	O	1.830836	-0.406283	-0.051449
C35	C	1.156085	-0.650459	-0.474510
C36	C	1.656085	-0.150459	0.025490
C37	C	1.041774	-0.635936	-0.463938
C38	C	1.541774	-0.135936	0.036062
C39	C	0.864729	-0.677038	-0.493862
C40	C	1.364729	-0.177038	0.006138
C41	C	0.982874	-0.692052	-0.504788
C42	C	1.482874	-0.192052	-0.004788
C43	C	1.389253	-0.951651	-0.518422
C44	C	1.889253	-0.451651	-0.018422
C45	C	1.374790	-1.065968	-0.526648
C46	C	1.874790	-0.565968	-0.026648
C47	C	1.430883	-1.124874	-0.495007
C48	C	1.930883	-0.624874	0.004993
C49	C	1.415937	-1.243026	-0.503509
C50	C	1.915937	-0.743026	-0.003509
C51	C	1.691519	-0.718599	-0.524117
C52	C	2.191519	-0.218599	-0.024117
C53	C	1.805827	-0.733146	-0.534707
C54	C	2.305827	-0.233146	-0.034707
C55	C	1.423346	-0.684405	-0.675808
C56	C	1.923346	-0.184405	-0.175808
C57	C	1.423374	-0.684380	-0.751041
C58	C	1.923374	-0.184380	-0.251041
C59	C	1.457469	-0.416233	-0.480051
C60	C	1.957469	0.083767	0.019949
C61	C	1.472038	-0.301930	-0.471863
C62	C	1.972038	0.198070	0.028137
C63	C	1.497535	-0.626975	-0.787768
C64	C	1.997535	-0.126975	-0.287768
C65	C	1.497549	-0.626946	-0.858456
C66	C	1.997549	-0.126946	-0.358456
C67	C	1.423407	-0.684330	-0.892415
C68	C	1.923407	-0.184330	-0.392415
C69	C	1.349238	-0.741737	-0.855682
C70	C	1.849238	-0.241737	-0.355682
C71	C	1.349220	-0.741759	-0.784995
C72	C	1.849220	-0.241759	-0.284995
C73	C	1.349309	-0.741648	-1.140754
C74	C	1.849309	-0.241648	-0.640754
C75	C	1.349334	-0.741624	-1.211446
C76	C	1.849334	-0.241624	-0.711446
C77	C	1.497638	-0.626836	-1.214214
C78	C	1.997638	-0.126836	-0.714214
C79	C	1.497620	-0.626858	-1.143528
C80	C	1.997620	-0.126858	-0.643528
C81	C	1.423449	-0.684260	-1.106800
C82	C	1.923449	-0.184260	-0.606800
C83	C	1.423433	-0.684289	-1.030153
C84	C	1.923433	-0.184289	-0.530153
C85	C	1.423426	-0.684308	-0.969062
C86	C	1.923426	-0.184308	-0.469062
C87	C	1.423283	-0.684453	-0.323408
C88	C	1.923283	-0.184453	0.176592
C89	C	1.423491	-0.684213	-0.248174
C90	C	1.923491	-0.184213	0.251826
H91	H	0.827691	-0.617882	-0.450807
H92	H	1.327691	-0.117882	0.049193
H93	H	1.315705	-1.103008	-0.560035
H94	H	1.815705	-0.603008	-0.060035
O95	O	1.577547	-0.565038	-0.898069
O96	O	2.077547	-0.065038	-0.398069
H97	H	1.538203	-0.506838	-0.922254
H98	H	2.038203	-0.006838	-0.422254
H99	H	1.019909	-0.751204	-0.547851
H100	H	1.519909	-0.251204	-0.047851
O101	O	1.577504	-0.565083	-0.751141
O102	O	2.077504	-0.065083	-0.251141
H103	H	1.629068	-0.525153	-0.788558
H104	H	2.129068	-0.025153	-0.288558
O105	O	0.992734	-0.557584	-0.406891
O106	O	1.492734	-0.057584	0.093109
H107	H	0.907633	-0.558093	-0.407254
H108	H	1.407633	-0.058093	0.092746
O109	O	0.854874	-0.811490	-0.591753
O110	O	1.354874	-0.311490	-0.091753
H111	H	0.939974	-0.810985	-0.591385
H112	H	1.439974	-0.310985	-0.091385
H113	H	1.489977	-1.087837	-0.461626
H114	H	1.989977	-0.587837	0.038374
O115	O	1.550316	-1.252882	-0.427639
O116	O	2.050316	-0.752882	0.072361
H117	H	1.628447	-1.283625	-0.448236
H118	H	2.128447	-0.783625	0.051764
O119	O	1.337649	-1.292068	-0.547728
O120	O	1.837649	-0.792068	-0.047728
H121	H	1.338185	-1.377172	-0.547460
H122	H	1.838185	-0.877172	-0.047460
H123	H	1.557997	-0.580134	-1.115882
H124	H	2.057997	-0.080134	-0.615882
O125	O	1.577616	-0.564886	-1.253821
O126	O	2.077616	-0.064886	-0.753821
H127	H	1.565164	-0.574489	-1.308677
H128	H	2.065164	-0.074489	-0.808677
H129	H	1.288954	-0.788354	-1.239094
H130	H	1.788954	-0.288354	-0.739094
O131	O	1.269268	-0.803499	-1.101135
O132	O	1.769268	-0.303499	-0.601135
H133	H	1.217707	-0.843380	-1.136625
H134	H	1.717707	-0.343380	-0.636625
H135	H	1.288867	-0.788455	-0.883337
H136	H	1.788867	-0.288455	-0.383337
H137	H	1.288822	-0.788492	-0.755091
H138	H	1.788822	-0.288492	-0.255091
