data_functionalizedCrystal
_audit_creation_method	'MofGen! by Chris Wilmer'
_symmetry_space_group_name_H-M	'P1'
_symmetry_Int_Tables_number	1
_symmetry_cell_setting	triclinic
loop_
_symmetry_equiv_pos_as_xyz
  x,y,z
_cell_length_a	17.699083
_cell_length_b	17.699104
_cell_length_c	16.176319
_cell_angle_alpha	90.014162
_cell_angle_beta	89.992278
_cell_angle_gamma	83.287266
loop_
_atom_site_label
_atom_site_type_symbol
_atom_site_fract_x
_atom_site_fract_y
_atom_site_fract_z
O1	O	-1.004075	-0.095720	-0.068632
O2	O	-0.504075	0.404280	0.431368
O3	O	-0.783698	-0.108173	-0.068660
O4	O	-0.283698	0.391827	0.431340
O5	O	-0.900104	0.008241	-0.068638
O6	O	-0.400104	0.508241	0.431362
O7	O	-0.887668	-0.212135	-0.068654
O8	O	-0.387668	0.287865	0.431346
O9	O	-0.900110	0.008266	0.068855
O10	O	-0.400110	0.508266	0.568855
O11	O	-0.783703	-0.108149	0.068834
O12	O	-0.283703	0.391851	0.568834
O13	O	-1.004081	-0.095696	0.068861
O14	O	-0.504081	0.404304	0.568861
Cu15	Cu	-0.893893	-0.101920	0.081401
Cu16	Cu	-0.393893	0.398080	0.581401
Cu17	Cu	-0.893886	-0.101949	-0.081200
Cu18	Cu	-0.393886	0.398051	0.418800
O19	O	-0.887674	-0.212111	0.068839
O20	O	-0.387674	0.287889	0.568839
C21	C	-0.755503	-0.107715	0.000083
C22	C	-0.255503	0.392285	0.500083
C23	C	-0.671485	-0.106376	0.000073
C24	C	-0.171485	0.393624	0.500073
N25	N	-0.893881	-0.101963	-0.195565
N26	N	-0.393881	0.398037	0.304435
C27	C	-0.899659	0.036450	0.000109
C28	C	-0.399659	0.536450	0.500109
C29	C	-0.898314	0.120467	0.000109
C30	C	-0.398314	0.620467	0.500109
C31	C	-1.032275	-0.096155	0.000116
C32	C	-0.532275	0.403845	0.500116
C33	C	-1.116293	-0.097493	0.000121
C34	C	-0.616293	0.402507	0.500121
C35	C	-0.622869	-0.174709	0.000068
C36	C	-0.122869	0.325291	0.500068
C37	C	-0.543926	-0.173446	0.000079
C38	C	-0.043926	0.326554	0.500079
C39	C	-0.513600	-0.103851	0.000089
C40	C	-0.013600	0.396149	0.500089
C41	C	-0.562222	-0.035513	0.000096
C42	C	-0.062222	0.464487	0.500096
C43	C	-0.641164	-0.036776	0.000091
C44	C	-0.141164	0.463224	0.500091
C45	C	-0.243859	-0.030418	0.000117
C46	C	0.256141	0.469582	0.500117
C47	C	-0.164911	-0.029160	0.000119
C48	C	0.335089	0.470840	0.500119
C49	C	-0.146621	-0.167088	0.000105
C50	C	0.353379	0.332912	0.500105
C51	C	-0.225563	-0.168351	0.000100
C52	C	0.274437	0.331649	0.500100
C53	C	-0.274178	-0.100014	0.000112
C54	C	0.225822	0.399986	0.500112
C55	C	-0.359777	-0.101383	0.000102
C56	C	0.140223	0.398617	0.500102
C57	C	-0.428002	-0.102480	0.000093
C58	C	0.071998	0.397520	0.500093
C59	C	-0.888120	-0.240319	0.000091
C60	C	-0.388120	0.259681	0.500091
C61	C	-0.889464	-0.324337	0.000085
C62	C	-0.389464	0.175663	0.500085
C63	C	-0.959058	0.645338	0.000093
C64	C	-0.459058	1.145338	0.500093
C65	C	-0.960317	0.566395	0.000101
C66	C	-0.460317	1.066395	0.500101
C67	C	-0.891982	0.517777	0.000094
C68	C	-0.391982	1.017777	0.500094
C69	C	-0.822383	0.548107	0.000088
C70	C	-0.322383	1.048107	0.500088
C71	C	-0.821125	0.627049	0.000087
C72	C	-0.321125	1.127049	0.500087
C73	C	-0.827456	0.229741	0.000096
C74	C	-0.327456	0.729741	0.500096
C75	C	-0.828720	0.150794	0.000095
C76	C	-0.328720	0.650794	0.500095
C77	C	-0.966648	0.169086	0.000110
C78	C	-0.466648	0.669086	0.500110
C79	C	-0.965390	0.248029	0.000108
C80	C	-0.465390	0.748029	0.500108
C81	C	-0.895792	0.278352	0.000107
C82	C	-0.395792	0.778352	0.500107
C83	C	-0.894427	0.363951	0.000100
C84	C	-0.394427	0.863951	0.500100
C85	C	-0.893345	0.432179	0.000095
C86	C	-0.393345	0.932179	0.500095
C87	C	-0.848161	-0.056017	-0.238825
C88	C	-0.348161	0.443983	0.261175
C89	C	-0.848166	-0.056005	-0.325372
C90	C	-0.348166	0.443995	0.174628
C91	C	-0.893889	-0.101943	-0.368658
C92	C	-0.393889	0.398057	0.131342
C93	C	-0.939614	-0.147891	-0.325392
C94	C	-0.439614	0.352109	0.174608
C95	C	-0.939613	-0.147899	-0.238847
C96	C	-0.439613	0.352101	0.261153
C97	C	-0.939624	-0.147861	-0.674420
C98	C	-0.439624	0.352139	-0.174420
C99	C	-0.939620	-0.147851	-0.760972
C100	C	-0.439620	0.352149	-0.260972
C101	C	-0.848177	-0.055966	-0.760946
C102	C	-0.348177	0.444034	-0.260946
C103	C	-0.848175	-0.055974	-0.674401
C104	C	-0.348175	0.444026	-0.174401
C105	C	-0.893904	-0.101919	-0.631142
C106	C	-0.393904	0.398081	-0.131142
C107	C	-0.893899	-0.101930	-0.537298
C108	C	-0.393899	0.398070	-0.037298
C109	C	-0.893890	-0.101936	-0.462501
C110	C	-0.393890	0.398064	0.037499
N111	N	-0.893903	-0.101900	0.195767
N112	N	-0.393903	0.398100	0.695767
H113	H	-0.647554	-0.231382	0.000060
H114	H	-0.147554	0.268618	0.500060
H115	H	-0.810945	-0.018553	-0.796178
H116	H	-0.310945	0.481447	-0.296178
Br117	Br	-0.123755	0.065298	0.000130
Br118	Br	0.376245	0.565298	0.500130
H119	H	-0.810924	-0.018612	-0.203588
H120	H	-0.310924	0.481388	0.296412
Br121	Br	-0.309827	0.062327	0.000135
Br122	Br	0.190173	0.562327	0.500135
H123	H	-0.764455	0.651738	0.000087
H124	H	-0.264455	1.151738	0.500087
H125	H	-1.016987	0.541708	0.000108
H126	H	-0.516987	1.041708	0.500108
H127	H	-0.810938	-0.018588	-0.360591
H128	H	-0.310938	0.481412	0.139409
H129	H	-0.766743	0.508516	0.000088
H130	H	-0.266743	1.008516	0.500088
Br131	Br	-0.521066	0.058940	0.000118
Br132	Br	-0.021066	0.558940	0.500118
H133	H	-1.014705	0.684918	0.000092
H134	H	-0.514705	1.184918	0.500092
Br135	Br	-0.786116	0.006368	-0.615660
Br136	Br	-0.286116	0.506368	-0.115660
Br137	Br	-0.735973	0.084812	0.000084
Br138	Br	-0.235973	0.584812	0.500084
Br139	Br	-1.001673	-0.210232	-0.384136
Br140	Br	-0.501673	0.289768	0.115864
H141	H	-0.680747	0.018868	0.000095
H142	H	-0.180747	0.518868	0.500095
Br143	Br	-1.058134	0.314006	0.000112
Br144	Br	-0.558134	0.814006	0.500112
H145	H	-1.023319	0.144388	0.000100
H146	H	-0.523319	0.644388	0.500100
Br147	Br	-0.733001	0.270884	0.000088
Br148	Br	-0.233001	0.770884	0.500088
H149	H	-0.976856	-0.185262	-0.796213
H150	H	-0.476856	0.314738	-0.296213
H151	H	-0.976844	-0.185313	-0.203625
H152	H	-0.476844	0.314687	0.296375
Br153	Br	-0.477949	-0.266188	0.000070
Br154	Br	0.022051	0.233812	0.500070
Br155	Br	-0.080639	-0.259834	0.000090
Br156	Br	0.419361	0.240166	0.500090
Br157	Br	-0.266715	-0.262806	0.000079
Br158	Br	0.233285	0.237194	0.500079
Br159	Br	-1.001679	-0.210219	-0.615723
Br160	Br	-0.501679	0.289781	-0.115723
