data_functionalizedCrystal
_audit_creation_method	'MofGen! by Chris Wilmer'
_symmetry_space_group_name_H-M	'P1'
_symmetry_Int_Tables_number	1
_symmetry_cell_setting	triclinic
loop_
_symmetry_equiv_pos_as_xyz
  x,y,z
_cell_length_a	13.339071
_cell_length_b	13.185407
_cell_length_c	11.804365
_cell_angle_alpha	97.750215
_cell_angle_beta	74.875833
_cell_angle_gamma	83.801381
loop_
_atom_site_label
_atom_site_type_symbol
_atom_site_fract_x
_atom_site_fract_y
_atom_site_fract_z
O1	O	1.229192	0.490467	-0.099038
O2	O	0.952714	0.424170	-0.099037
O3	O	1.138320	0.312903	-0.099033
O4	O	1.043585	0.601734	-0.099041
O5	O	1.089468	0.342154	0.099022
O6	O	0.903862	0.453421	0.099018
O7	O	1.180340	0.519718	0.099017
Cu8	Cu	1.037640	0.489241	0.117102
Cu9	Cu	1.095413	0.454648	-0.117121
O10	O	0.994733	0.630985	0.099014
C11	C	0.893648	0.427597	-0.000009
C12	C	0.790434	0.394216	-0.000009
C13	C	0.778075	0.290119	-0.000002
C14	C	0.681103	0.258752	-0.000007
C15	C	0.596478	0.331479	-0.000010
C16	C	0.608834	0.435579	-0.000009
C17	C	0.705818	0.466948	-0.000013
C18	C	0.524222	0.508308	-0.000021
C19	C	0.536578	0.612408	-0.000020
C20	C	0.633553	0.643771	-0.000023
C21	C	0.718177	0.571044	-0.000020
C22	C	0.427238	0.476939	-0.000017
C23	C	0.354981	0.653767	-0.000028
C24	C	0.451953	0.685135	-0.000023
C25	C	1.123499	0.289806	-0.000007
C26	C	1.152107	0.177401	-0.000012
C27	C	0.879096	-0.194463	-0.000022
C28	C	0.852217	-0.088855	-0.000029
C29	C	0.927187	-0.022286	-0.000024
C30	C	1.029041	-0.061335	-0.000013
C31	C	1.055924	-0.166955	-0.000014
C32	C	1.104016	0.005222	-0.000017
C33	C	1.205869	-0.033827	-0.000006
C34	C	1.232748	-0.139437	-0.000006
C35	C	1.157778	-0.206006	-0.000011
C36	C	1.077132	0.110842	-0.000016
C37	C	1.253960	0.138350	-0.000009
C38	C	1.280839	0.032742	-0.000001
C39	C	1.239407	0.516291	-0.000013
C40	C	1.342622	0.549671	-0.000021
C41	C	1.009555	0.654082	-0.000015
C42	C	0.980949	0.766486	-0.000018
N43	N	0.997013	0.513573	0.281842
N44	N	1.136050	0.430309	-0.281861
C45	C	1.233617	0.371859	0.655795
C46	C	1.264352	0.353447	0.531134
C47	C	1.197519	0.393477	0.468804
C48	C	1.099948	0.451922	0.531149
C49	C	1.069213	0.470343	0.655822
C50	C	1.033116	0.491960	0.468832
C51	C	0.935544	0.550406	0.531176
C52	C	0.904814	0.568823	0.655837
C53	C	0.971646	0.528793	0.718166
C54	C	1.063850	0.473540	0.344158
C55	C	0.899446	0.572023	0.344186
C56	C	0.868711	0.590435	0.468847
H57	H	0.846983	0.230915	-0.000007
H58	H	0.825371	0.616422	0.706598
N59	N	1.186766	-0.319912	0.000017
H60	H	1.123813	-0.356151	0.000024
H61	H	1.246089	-0.350720	-0.073399
H62	H	1.143293	0.425954	0.293409
H63	H	0.845026	0.604622	0.293438
H64	H	0.905296	0.063704	-0.000029
N65	N	0.646877	0.756047	-0.000047
H66	H	0.596096	0.800090	0.073368
H67	H	0.721179	0.764796	-0.000100
H68	H	0.797141	0.596579	-0.000010
H69	H	0.946621	0.543780	0.819676
N70	N	0.465286	0.797411	-0.000023
H71	H	0.539562	0.806241	-0.000024
H72	H	0.450670	0.819692	-0.073447
N73	N	1.230663	0.373620	0.334349
H74	H	1.302614	0.330520	0.304312
H75	H	1.178503	0.335306	0.304434
H76	H	1.343794	0.305863	0.480377
H77	H	0.994202	0.142625	-0.000024
H78	H	0.769289	-0.057069	-0.000042
N79	N	1.305699	0.328701	0.723017
H80	H	1.271423	0.349243	0.811452
H81	H	1.319744	0.250734	0.701242
N82	N	1.390697	-0.009377	-0.000003
H83	H	1.406562	0.025857	0.073418
H84	H	1.396276	-0.086384	-0.000050
H85	H	0.789266	0.638023	0.519623
N86	N	0.798242	-0.266254	-0.000032
H87	H	0.823570	-0.321526	-0.073454
H88	H	0.787374	-0.299774	0.073433
H89	H	1.315687	-0.171229	-0.000008
H90	H	0.286078	0.712988	-0.000032
N91	N	0.413912	0.364671	0.000006
H92	H	0.339638	0.355830	0.000010
H93	H	0.464751	0.320696	-0.073411
N94	N	0.491885	0.297653	-0.000014
H95	H	0.496897	0.220672	-0.000012
H96	H	0.436289	0.335722	0.073410
N97	N	0.667773	0.146483	-0.000006
H98	H	0.736094	0.105170	-0.000001
H99	H	0.611000	0.140465	0.073417
N100	N	1.334831	0.210135	-0.000006
H101	H	1.302345	0.282967	-0.000001
H102	H	1.360027	0.208522	0.073417
