data_functionalizedCrystal
_audit_creation_method	'MofGen! by Chris Wilmer'
_symmetry_space_group_name_H-M	'P1'
_symmetry_Int_Tables_number	1
_symmetry_cell_setting	triclinic
loop_
_symmetry_equiv_pos_as_xyz
  x,y,z
_cell_length_a	12.759401
_cell_length_b	12.759400
_cell_length_c	12.759393
_cell_angle_alpha	90.031564
_cell_angle_beta	90.018567
_cell_angle_gamma	90.013728
loop_
_atom_site_label
_atom_site_type_symbol
_atom_site_fract_x
_atom_site_fract_y
_atom_site_fract_z
Zn1	Zn	1.606255	-0.418231	0.593983
Zn2	Zn	1.606150	-0.593950	0.418303
Zn3	Zn	1.430557	-0.418283	0.418323
Zn4	Zn	1.430546	-0.593866	0.593945
O5	O	1.518377	-0.506082	0.506138
O6	O	1.753262	-0.441554	0.570687
O7	O	1.582818	-0.570704	0.271285
O8	O	1.453913	-0.271255	0.441648
O9	O	1.753185	-0.570654	0.441616
O10	O	1.582998	-0.271217	0.570706
O11	O	1.453811	-0.441642	0.271299
O12	O	1.283535	-0.441560	0.441611
O13	O	1.453894	-0.570511	0.740971
O14	O	1.283527	-0.570561	0.570640
O15	O	1.582987	-0.441473	0.740999
O16	O	1.582807	-0.740960	0.441579
O17	O	1.453791	-0.740898	0.570621
C18	C	1.245410	-0.506058	0.506124
C19	C	1.128633	-0.506072	0.506143
C20	C	1.073805	-0.438977	0.573454
C21	C	0.964081	-0.438997	0.573461
C22	C	0.964023	-0.573217	0.438841
C23	C	1.073745	-0.573191	0.438830
C24	C	1.128692	-0.371858	0.640766
C25	C	1.073864	-0.304758	0.708084
C26	C	0.964140	-0.304778	0.708091
C27	C	0.909244	-0.371899	0.640780
C28	C	1.518315	-0.779050	0.506117
C29	C	1.518384	-0.895826	0.506142
C30	C	1.585637	-0.950686	0.439024
C31	C	1.585702	-1.060410	0.439056
C32	C	1.451252	-1.060405	0.573328
C33	C	1.451193	-0.950683	0.573301
C34	C	1.652828	-0.895829	0.371866
C35	C	1.720086	-0.950688	0.304741
C36	C	1.720150	-1.060412	0.304774
C37	C	1.652957	-1.115277	0.371931
C38	C	1.792410	-0.506108	0.506154
C39	C	1.909187	-0.506119	0.506160
C40	C	1.518451	-0.505976	0.780172
C41	C	1.518482	-0.505931	0.896949
C42	C	1.518468	-0.232049	0.506183
C43	C	1.518507	-0.115272	0.506203
C44	C	1.518364	-0.506112	0.233171
C45	C	1.518537	-0.505861	0.116395
C46	C	1.585710	-0.438735	0.951827
C47	C	1.585735	-0.438697	1.061551
C48	C	1.451301	-0.573061	1.061509
C49	C	1.451272	-0.573093	0.951787
C50	C	1.652920	-0.371573	0.896989
C51	C	1.720155	-0.304372	0.951868
C52	C	1.720180	-0.304334	1.061592
C53	C	1.652970	-0.371497	1.116438
H54	H	1.118388	-0.627826	0.384019
H55	H	1.652984	-0.371449	1.205782
H56	H	1.774798	-0.906012	0.250070
N57	N	1.378661	-0.891496	0.645686
H58	H	1.394947	-0.910514	0.720772
H59	H	1.303639	-0.910677	0.629223
H60	H	1.652780	-0.806486	0.371829
H61	H	1.774867	-0.249684	0.907205
N62	N	1.653014	-1.233622	0.371969
H63	H	1.672299	-1.259978	0.444065
H64	H	1.705805	-1.259975	0.319215
H65	H	1.774917	-0.249608	1.106271
N66	N	1.378780	-1.119575	0.645755
H67	H	1.389021	-1.197408	0.635585
H68	H	1.303745	-1.100466	0.629332
N69	N	0.905004	-0.232414	0.780698
H70	H	0.827166	-0.242609	0.770492
H71	H	0.924179	-0.157355	0.764480
N72	N	1.378804	-0.645486	1.120658
H73	H	1.389022	-0.635266	1.198494
H74	H	1.395112	-0.720532	1.101467
H75	H	1.652910	-0.371599	0.807646
N76	N	1.247036	-0.371874	0.640795
H77	H	1.273490	-0.319187	0.693660
H78	H	1.273394	-0.352510	0.568732
N79	N	1.133064	-0.232375	0.780688
H80	H	1.210893	-0.242547	0.770478
H81	H	1.113904	-0.248836	0.855689
N82	N	1.378762	-0.645565	0.892587
H83	H	1.336196	-0.688113	0.943974
H84	H	1.421501	-0.694202	0.847051
H85	H	0.819900	-0.371887	0.640768
N86	N	1.792695	-1.119585	0.232389
H87	H	1.835249	-1.068181	0.189844
H88	H	1.749979	-1.165185	0.183747
H89	H	0.919319	-0.627865	0.384042
