data_functionalizedCrystal
_audit_creation_method	'MofGen! by Chris Wilmer'
_symmetry_space_group_name_H-M	'P1'
_symmetry_Int_Tables_number	1
_symmetry_cell_setting	triclinic
loop_
_symmetry_equiv_pos_as_xyz
  x,y,z
_cell_length_a	21.395362
_cell_length_b	12.645330
_cell_length_c	21.395356
_cell_angle_alpha	89.978499
_cell_angle_beta	89.957023
_cell_angle_gamma	90.033572
loop_
_atom_site_label
_atom_site_type_symbol
_atom_site_fract_x
_atom_site_fract_y
_atom_site_fract_z
Zn1	Zn	0.957910	-0.421617	-0.354613
Zn2	Zn	1.457910	0.078383	0.145387
Zn3	Zn	0.957838	-0.598894	-0.249846
Zn4	Zn	1.457838	-0.098894	0.250154
Zn5	Zn	0.853127	-0.421695	-0.249814
Zn6	Zn	1.353127	0.078305	0.250186
Zn7	Zn	0.853118	-0.598888	-0.354551
Zn8	Zn	1.353118	-0.098888	0.145449
O9	O	0.905498	-0.510273	-0.302206
O10	O	1.405498	-0.010273	0.197794
O11	O	1.045579	-0.445103	-0.340754
O12	O	1.545579	0.054897	0.159246
O13	O	0.943922	-0.575424	-0.162164
O14	O	1.443922	-0.075424	0.337836
O15	O	0.867060	-0.273337	-0.263728
O16	O	1.367060	0.226663	0.236272
O17	O	1.045526	-0.575348	-0.263783
O18	O	1.545526	-0.075348	0.236217
O19	O	0.944044	-0.273280	-0.340723
O20	O	1.444044	0.226720	0.159277
O21	O	0.866991	-0.445236	-0.162140
O22	O	1.366991	0.054764	0.337860
O23	O	0.765448	-0.445229	-0.263668
O24	O	1.265448	0.054771	0.236332
O25	O	0.867045	-0.575337	-0.442237
O26	O	1.367045	-0.075337	0.057763
O27	O	0.765441	-0.575413	-0.340618
O28	O	1.265441	-0.075413	0.159382
O29	O	0.944036	-0.445097	-0.442282
O30	O	1.444036	0.054903	0.057718
O31	O	0.943913	-0.747241	-0.263724
O32	O	1.443913	-0.247241	0.236276
O33	O	0.866976	-0.747236	-0.340650
O34	O	1.366976	-0.247236	0.159350
C35	C	0.742711	-0.510329	-0.302133
C36	C	1.242711	-0.010329	0.197867
C37	C	0.673069	-0.510379	-0.302117
C38	C	1.173069	-0.010379	0.197883
C39	C	0.905453	-0.785703	-0.302197
C40	C	1.405453	-0.285703	0.197803
C41	C	0.905490	-0.903533	-0.302214
C42	C	1.405490	-0.403533	0.197786
C43	C	0.640369	-0.578255	-0.342125
C44	C	1.140369	-0.078255	0.157875
C45	C	0.574934	-0.578229	-0.342153
C46	C	1.074934	-0.078229	0.157847
C47	C	0.542201	-0.510338	-0.302162
C48	C	1.042201	-0.010338	0.197838
C49	C	0.574909	-0.442449	-0.262151
C50	C	1.074909	0.057551	0.237849
C51	C	0.640343	-0.442469	-0.262129
C52	C	1.140343	0.057531	0.237871
C53	C	0.438476	-0.501813	-0.245756
C54	C	0.938476	-0.001813	0.254244
C55	C	0.373043	-0.501800	-0.245777
C56	C	0.873043	-0.001800	0.254223
C57	C	0.340380	-0.510269	-0.302231
C58	C	0.840380	-0.010269	0.197769
C59	C	0.373159	-0.518773	-0.358665
C60	C	0.873159	-0.018773	0.141335
C61	C	0.438593	-0.518793	-0.358643
C62	C	0.938593	-0.018793	0.141357
C63	C	0.471249	-0.510308	-0.302182
C64	C	0.971249	-0.010308	0.197818
C65	C	0.236728	-0.578121	-0.342272
C66	C	0.736728	-0.078121	0.157728
C67	C	0.171291	-0.578087	-0.342301
C68	C	0.671291	-0.078087	0.157699
C69	C	0.171268	-0.442312	-0.262294
C70	C	0.671268	0.057688	0.237706
C71	C	0.236703	-0.442340	-0.262271
C72	C	0.736703	0.057660	0.237729
C73	C	0.269429	-0.510250	-0.302259
C74	C	0.769429	-0.010250	0.197741
C75	C	0.857289	-1.071138	-0.350758
C76	C	1.357289	-0.571138	0.149242
C77	C	0.857042	-0.948579	-0.350602
C78	C	1.357042	-0.448579	0.149398
C79	C	0.887613	-0.948129	-0.236177
C80	C	1.387613	-0.448129	0.263823
C81	C	0.887319	-1.070728	-0.236472
C82	C	1.387319	-0.570728	0.263528
C83	C	0.971864	-1.070593	-0.319173
C84	C	1.471864	-0.570593	0.180827
C85	C	0.971458	-0.947986	-0.320616
C86	C	1.471458	-0.447986	0.179384
C87	C	1.068922	-0.510218	-0.302279
C88	C	1.568922	-0.010218	0.197721
C89	C	1.138563	-0.510194	-0.302311
C90	C	1.638563	-0.010194	0.197689
C91	C	0.905548	-0.510208	-0.465629
C92	C	1.405548	-0.010208	0.034371
C93	C	0.905569	-0.510180	-0.535271
C94	C	1.405569	-0.010180	-0.035271
C95	C	0.905561	-0.233768	-0.302228
C96	C	1.405561	0.266232	0.197772
C97	C	0.905588	-0.115938	-0.302238
C98	C	1.405588	0.384062	0.197762
C99	C	0.865521	-0.442383	-0.567961
C100	C	1.365521	0.057617	-0.067961
C101	C	0.865519	-0.442364	-0.633397
C102	C	1.365519	0.057636	-0.133397
C103	C	0.905576	-0.510129	-0.666139
C104	C	1.405576	-0.010129	-0.166139
C105	C	0.945626	-0.577939	-0.633440
C106	C	1.445626	-0.077939	-0.133440
C107	C	0.945622	-0.577964	-0.568006
C108	C	1.445622	-0.077964	-0.068006
C109	C	0.962029	-0.518437	-0.769845
C110	C	1.462029	-0.018437	-0.269845
C111	C	0.962033	-0.518405	-0.835278
C112	C	1.462033	-0.018405	-0.335278
C113	C	0.905586	-0.510058	-0.867960
C114	C	1.405586	-0.010058	-0.367960
C115	C	0.849132	-0.501721	-0.835201
C116	C	1.349132	-0.001721	-0.335201
C117	C	0.849129	-0.501746	-0.769767
C118	C	1.349129	-0.001746	-0.269767
C119	C	0.905584	-0.510110	-0.737091
C120	C	1.405584	-0.010110	-0.237091
C121	C	0.865533	-0.442236	-0.971603
C122	C	1.365533	0.057764	-0.471603
C123	C	0.865530	-0.442224	-1.037040
C124	C	1.365530	0.057776	-0.537040
C125	C	0.945642	-0.577794	-1.037082
C126	C	1.445642	-0.077794	-0.537082
C127	C	0.945639	-0.577812	-0.971647
C128	C	1.445639	-0.077812	-0.471647
C129	C	0.905586	-0.510027	-0.938911
C130	C	1.405586	-0.010027	-0.438911
C131	C	0.905485	-0.510262	-0.139418
C132	C	1.405485	-0.010262	0.360582
C133	C	0.905586	-0.509992	-0.069778
C134	C	1.405586	-0.009992	0.430222
H135	H	0.667011	-0.633551	-0.374688
H136	H	1.167011	-0.133551	0.125312
Cl137	Cl	0.812519	-1.115063	-0.214328
Cl138	Cl	1.312519	-0.615063	0.285672
H139	H	0.832914	-0.387019	-1.063656
H140	H	1.332914	0.112981	-0.563656
Cl141	Cl	0.479531	-0.491170	-0.174778
Cl142	Cl	0.979531	0.008830	0.325222
Cl143	Cl	0.130182	-0.663420	-0.392605
Cl144	Cl	0.630182	-0.163420	0.107395
H145	H	0.263375	-0.633411	-0.374837
H146	H	0.763375	-0.133411	0.125163
Cl147	Cl	0.815165	-0.357174	-0.526812
Cl148	Cl	1.315165	0.142826	-0.026812
Cl149	Cl	0.277814	-0.357008	-0.211970
Cl150	Cl	0.777814	0.142992	0.288030
Cl151	Cl	0.813590	-0.900910	-0.213632
Cl152	Cl	1.313590	-0.400910	0.286368
H153	H	0.807908	-0.919366	-0.339381
H154	H	1.307908	-0.419366	0.160619
Cl155	Cl	0.533760	-0.357095	-0.211879
Cl156	Cl	1.033760	0.142905	0.288121
H157	H	0.988172	-1.101434	-0.366510
H158	H	1.488172	-0.601434	0.133490
H159	H	0.921677	-0.918951	-0.199037
H160	H	1.421677	-0.418951	0.300963
Cl161	Cl	0.331843	-0.491109	-0.174833
Cl162	Cl	0.831843	0.008891	0.325167
H163	H	0.832919	-0.387043	-0.944949
H164	H	1.332919	0.112957	-0.444949
Cl165	Cl	0.130124	-0.356956	-0.212022
Cl166	Cl	0.630124	0.143044	0.287978
H167	H	0.978258	-0.632968	-1.063740
H168	H	1.478258	-0.132968	-0.563740
Cl169	Cl	0.681454	-0.357132	-0.211829
Cl170	Cl	1.181454	0.142868	0.288171
Cl171	Cl	0.995992	-0.663039	-0.930547
Cl172	Cl	1.495992	-0.163039	-0.430547
Cl173	Cl	0.939267	-1.116491	-0.178748
Cl174	Cl	1.439267	-0.616491	0.321252
H175	H	0.984939	-0.918834	-0.369216
H176	H	1.484939	-0.418834	0.130784
Cl177	Cl	0.874308	-0.902018	-0.426201
Cl178	Cl	1.374308	-0.402018	0.073799
H179	H	1.009338	-0.917315	-0.287852
H180	H	1.509338	-0.417315	0.212148
H181	H	1.007848	-1.099561	-0.283834
H182	H	1.507848	-0.599561	0.216166
Cl183	Cl	0.874394	-1.116551	-0.426607
Cl184	Cl	1.374394	-0.616551	0.073393
Cl185	Cl	0.815184	-0.357104	-0.674503
Cl186	Cl	1.315184	0.142896	-0.174503
H187	H	1.008001	-0.525188	-0.861945
H188	H	1.508001	-0.025188	-0.361945
H189	H	0.808462	-1.102061	-0.339680
H190	H	1.308462	-0.602061	0.160320
H191	H	0.803162	-0.494961	-0.743097
H192	H	1.303162	0.005039	-0.243097
Cl193	Cl	1.032998	-0.528939	-0.728766
Cl194	Cl	1.532998	-0.028939	-0.228766
H195	H	0.346566	-0.525667	-0.404635
H196	H	0.846566	-0.025667	0.095365
H197	H	0.548304	-0.633502	-0.374734
H198	H	1.048304	-0.133502	0.125266
Cl199	Cl	0.778165	-0.491221	-0.876279
Cl200	Cl	1.278165	0.008779	-0.376279
H201	H	0.978240	-0.633114	-0.660103
H202	H	1.478240	-0.133114	-0.160103
Cl203	Cl	0.995973	-0.663199	-0.526907
Cl204	Cl	1.495973	-0.163199	-0.026907
H205	H	0.465278	-0.525714	-0.404593
H206	H	0.965278	-0.025714	0.095407
