data_functionalizedCrystal
_audit_creation_method	'MofGen! by Chris Wilmer'
_symmetry_space_group_name_H-M	'P1'
_symmetry_Int_Tables_number	1
_symmetry_cell_setting	triclinic
loop_
_symmetry_equiv_pos_as_xyz
  x,y,z
_cell_length_a	13.897449
_cell_length_b	19.121063
_cell_length_c	13.897441
_cell_angle_alpha	87.594330
_cell_angle_beta	90.020733
_cell_angle_gamma	92.470221
loop_
_atom_site_label
_atom_site_type_symbol
_atom_site_fract_x
_atom_site_fract_y
_atom_site_fract_z
Zn1	Zn	1.458257	-0.279567	0.561726
Zn2	Zn	1.708257	-0.029567	0.811726
Zn3	Zn	1.958257	0.220433	1.061726
Zn4	Zn	2.208257	0.470433	1.311726
Zn5	Zn	1.451242	-0.397031	0.407294
Zn6	Zn	1.701242	-0.147031	0.657294
Zn7	Zn	1.951242	0.102969	0.907294
Zn8	Zn	2.201242	0.352969	1.157294
Zn9	Zn	1.296944	-0.279601	0.400446
Zn10	Zn	1.546944	-0.029601	0.650446
Zn11	Zn	1.796944	0.220399	0.900446
Zn12	Zn	2.046944	0.470399	1.150446
Zn13	Zn	1.290021	-0.396984	0.568544
Zn14	Zn	1.540021	-0.146984	0.818544
Zn15	Zn	1.790021	0.103016	1.068544
Zn16	Zn	2.040021	0.353016	1.318544
O17	O	1.374116	-0.338296	0.484503
O18	O	1.624116	-0.088296	0.734503
O19	O	1.874116	0.161704	0.984503
O20	O	2.124116	0.411704	1.234503
O21	O	1.592308	-0.295154	0.541253
O22	O	1.842308	-0.045154	0.791253
O23	O	2.092308	0.204846	1.041253
O24	O	2.342308	0.454846	1.291253
O25	O	1.430735	-0.381487	0.271406
O26	O	1.680735	-0.131487	0.521406
O27	O	1.930735	0.118513	0.771406
O28	O	2.180735	0.368513	1.021406
O29	O	1.324176	-0.181312	0.416120
O30	O	1.574176	0.068688	0.666120
O31	O	1.824176	0.318688	0.916120
O32	O	2.074176	0.568688	1.166120
O33	O	1.587154	-0.381454	0.427793
O34	O	1.837154	-0.131454	0.677793
O35	O	2.087154	0.118546	0.927793
O36	O	2.337154	0.368546	1.177793
O37	O	1.442692	-0.181287	0.534612
O38	O	1.692692	0.068713	0.784612
O39	O	1.942692	0.318713	1.034612
O40	O	2.192692	0.568713	1.284612
O41	O	1.317374	-0.295211	0.266375
O42	O	1.567374	-0.045211	0.516375
O43	O	1.817374	0.204789	0.766375
O44	O	2.067374	0.454789	1.016375
O45	O	1.161045	-0.295166	0.422732
O46	O	1.411045	-0.045166	0.672732
O47	O	1.661045	0.204834	0.922732
O48	O	1.911045	0.454834	1.172732
O49	O	1.312377	-0.381375	0.702620
O50	O	1.562377	-0.131375	0.952620
O51	O	1.812377	0.118625	1.202620
O52	O	2.062377	0.368625	1.452620
O53	O	1.155958	-0.381408	0.546233
O54	O	1.405958	-0.131408	0.796233
O55	O	1.655958	0.118592	1.046233
O56	O	1.905958	0.368592	1.296233
O57	O	1.435979	-0.295109	0.697610
O58	O	1.685979	-0.045109	0.947610
O59	O	1.935979	0.204891	1.197610
O60	O	2.185979	0.454891	1.447610
O61	O	1.424022	-0.495309	0.434404
O62	O	1.674022	-0.245309	0.684404
O63	O	1.924022	0.004691	0.934404
O64	O	2.174022	0.254691	1.184404
O65	O	1.305574	-0.495275	0.552874
O66	O	1.555574	-0.245275	0.802874
O67	O	1.805574	0.004725	1.052874
O68	O	2.055574	0.254725	1.302874
C69	C	1.123502	-0.338286	0.484480
C70	C	1.373502	-0.088286	0.734480
C71	C	1.623502	0.161714	0.984480
C72	C	1.873502	0.411714	1.234480
C73	C	1.016288	-0.338299	0.484494
C74	C	1.266288	-0.088299	0.734494
C75	C	1.516288	0.161701	0.984494
C76	C	1.766288	0.411701	1.234494
C77	C	0.819992	-0.338302	0.484520
C78	C	1.069992	-0.088302	0.734520
C79	C	1.319992	0.161698	0.984520
C80	C	1.569992	0.411698	1.234520
C81	C	0.929225	-0.338298	0.484503
C82	C	1.179225	-0.088298	0.734503
C83	C	1.429225	0.161702	0.984503
C84	C	1.679225	0.411702	1.234503
C85	C	1.363311	-0.520776	0.495143
C86	C	1.613311	-0.270776	0.745143
C87	C	1.863311	-0.020776	0.995143
C88	C	2.113311	0.229224	1.245143
C89	C	1.358777	-0.598842	0.499727
C90	C	1.608777	-0.348842	0.749727
C91	C	1.858777	-0.098842	0.999727
C92	C	2.108777	0.151158	1.249727
C93	C	1.418365	-0.635512	0.440252
C94	C	1.668365	-0.385512	0.690252
C95	C	1.918365	-0.135512	0.940252
C96	C	2.168365	0.114488	1.190252
C97	C	1.414106	-0.708863	0.444569
C98	C	1.664106	-0.458863	0.694569
C99	C	1.914106	-0.208863	0.944569
C100	C	2.164106	0.041137	1.194569
C101	C	1.350255	-0.745543	0.508358
C102	C	1.600255	-0.495543	0.758358
C103	C	1.850255	-0.245543	1.008358
C104	C	2.100255	0.004457	1.258358
C105	C	1.290665	-0.708868	0.567840
C106	C	1.540665	-0.458868	0.817840
C107	C	1.790665	-0.208868	1.067840
C108	C	2.040665	0.041132	1.317840
C109	C	1.294929	-0.635518	0.563527
C110	C	1.544929	-0.385518	0.813527
C111	C	1.794929	-0.135518	1.063527
C112	C	2.044929	0.114482	1.313527
C113	C	1.334297	-0.967012	0.524468
C114	C	1.584297	-0.717012	0.774468
C115	C	1.834297	-0.467012	1.024468
C116	C	2.084297	-0.217012	1.274468
C117	C	1.330035	-1.040367	0.528775
C118	C	1.580035	-0.790367	0.778775
C119	C	1.830035	-0.540367	1.028775
C120	C	2.080035	-0.290367	1.278775
C121	C	1.453478	-1.040357	0.405504
C122	C	1.703478	-0.790357	0.655504
C123	C	1.953478	-0.540357	0.905504
C124	C	2.203478	-0.290357	1.155504
C125	C	1.457733	-0.967006	0.401192
C126	C	1.707733	-0.717006	0.651192
C127	C	1.957733	-0.467006	0.901192
C128	C	2.207733	-0.217006	1.151192
C129	C	1.398147	-0.930337	0.460678
C130	C	1.648147	-0.680337	0.710678
C131	C	1.898147	-0.430337	0.960678
C132	C	2.148147	-0.180337	1.210678
C133	C	1.345898	-0.820519	0.512770
C134	C	1.595898	-0.570519	0.762770
C135	C	1.845898	-0.320519	1.012770
C136	C	2.095898	-0.070519	1.262770
C137	C	1.402509	-0.855362	0.456270
C138	C	1.652509	-0.605362	0.706270
C139	C	1.902509	-0.355362	0.956270
C140	C	2.152509	-0.105362	1.206270
C141	C	1.625708	-0.338306	0.484526
C142	C	1.875708	-0.088306	0.734526
C143	C	2.125708	0.161694	0.984526
C144	C	2.375708	0.411694	1.234526
C145	C	1.732922	-0.338310	0.484536
C146	C	1.982922	-0.088310	0.734536
C147	C	2.232922	0.161690	0.984536
C148	C	2.482922	0.411690	1.234536
C149	C	1.374188	-0.338234	0.736092
C150	C	1.624188	-0.088234	0.986092
C151	C	1.874188	0.161766	1.236092
C152	C	2.124188	0.411766	1.486092
C153	C	1.374219	-0.338207	0.843305
C154	C	1.624219	-0.088207	1.093305
C155	C	1.874219	0.161793	1.343305
C156	C	2.124219	0.411793	1.593305
C157	C	1.384989	-0.155103	0.473842
C158	C	1.634989	0.094897	0.723842
C159	C	1.884989	0.344897	0.973842
C160	C	2.134989	0.594897	1.223842
C161	C	1.389623	-0.077037	0.469299
C162	C	1.639623	0.172963	0.719299
C163	C	1.889623	0.422963	0.969299
C164	C	2.139623	0.672963	1.219299
C165	C	1.374103	-0.338307	0.233889
C166	C	1.624103	-0.088307	0.483889
C167	C	1.874103	0.161693	0.733889
C168	C	2.124103	0.411693	0.983889
C169	C	1.374271	-0.338135	0.126665
C170	C	1.624271	-0.088135	0.376665
C171	C	1.874271	0.161865	0.626665
C172	C	2.124271	0.411865	0.876665
C173	C	1.374248	-0.338160	1.039597
C174	C	1.624248	-0.088160	1.289597
C175	C	1.874248	0.161840	1.539597
C176	C	2.124248	0.411840	1.789597
C177	C	1.374229	-0.338188	0.930366
C178	C	1.624229	-0.088188	1.180366
C179	C	1.874229	0.161812	1.430366
C180	C	2.124229	0.411812	1.680366
H181	H	1.470355	-0.605652	0.388304
H182	H	1.720355	-0.355652	0.638304
H183	H	1.970355	-0.105652	0.888304
H184	H	2.220355	0.144348	1.138304
H185	H	1.246408	-0.605662	0.611960
H186	H	1.496408	-0.355662	0.861960
H187	H	1.746408	-0.105662	1.111960
H188	H	1.996408	0.144338	1.361960
Cl189	Cl	1.259386	-0.920924	0.599249
Cl190	Cl	1.509386	-0.670924	0.849249
Cl191	Cl	1.759386	-0.420924	1.099249
Cl192	Cl	2.009386	-0.170924	1.349249
H193	H	1.454500	-0.825495	0.404337
H194	H	1.704500	-0.575495	0.654337
H195	H	1.954500	-0.325495	0.904337
H196	H	2.204500	-0.075495	1.154337
Cl197	Cl	1.489023	-0.754959	0.369798
Cl198	Cl	1.739023	-0.504959	0.619798
Cl199	Cl	1.989023	-0.254959	0.869798
Cl200	Cl	2.239023	-0.004959	1.119798
H201	H	1.238680	-0.738738	0.619783
H202	H	1.488680	-0.488738	0.869783
H203	H	1.738680	-0.238738	1.119783
H204	H	1.988680	0.011262	1.369783
Cl205	Cl	1.265629	-0.866637	0.592959
Cl206	Cl	1.515629	-0.616637	0.842959
Cl207	Cl	1.765629	-0.366637	1.092959
Cl208	Cl	2.015629	-0.116637	1.342959
Cl209	Cl	1.538020	-0.920899	0.321011
Cl210	Cl	1.788020	-0.670899	0.571011
Cl211	Cl	2.038020	-0.420899	0.821011
Cl212	Cl	2.288020	-0.170899	1.071011
H213	H	1.501991	-1.070220	0.357075
H214	H	1.751991	-0.820220	0.607075
H215	H	2.001991	-0.570220	0.857075
H216	H	2.251991	-0.320220	1.107075
H217	H	1.278051	-1.070230	0.580736
H218	H	1.528051	-0.820230	0.830736
H219	H	1.778051	-0.570230	1.080736
H220	H	2.028051	-0.320230	1.330736
