data_functionalizedCrystal
_audit_creation_method	'MofGen! by Chris Wilmer'
_symmetry_space_group_name_H-M	'P1'
_symmetry_Int_Tables_number	1
_symmetry_cell_setting	triclinic
loop_
_symmetry_equiv_pos_as_xyz
  x,y,z
_cell_length_a	19.288840
_cell_length_b	15.995350
_cell_length_c	14.472311
_cell_angle_alpha	89.993946
_cell_angle_beta	89.987663
_cell_angle_gamma	83.309196
loop_
_atom_site_label
_atom_site_type_symbol
_atom_site_fract_x
_atom_site_fract_y
_atom_site_fract_z
O1	O	0.921630	0.104355	-0.076991
O2	O	1.254964	0.437688	0.256342
O3	O	1.588297	0.771021	0.589676
O4	O	0.719404	0.118467	-0.076958
O5	O	1.052737	0.451800	0.256375
O6	O	1.386071	0.785133	0.589708
O7	O	0.826045	-0.010498	-0.076975
O8	O	1.159379	0.322835	0.256359
O9	O	1.492712	0.656168	0.589692
O10	O	0.814989	0.233320	-0.076975
O11	O	1.148323	0.566653	0.256359
O12	O	1.481656	0.899986	0.589692
O13	O	0.826036	-0.010511	0.076707
O14	O	1.159369	0.322823	0.410041
O15	O	1.492702	0.656156	0.743374
O16	O	0.719394	0.118454	0.076724
O17	O	1.052728	0.451788	0.410057
O18	O	1.386061	0.785121	0.743390
O19	O	0.921621	0.104342	0.076691
O20	O	1.254954	0.437675	0.410024
O21	O	1.588287	0.771009	0.743358
Cu22	Cu	0.820507	0.111397	0.090740
Cu23	Cu	1.153840	0.444730	0.424073
Cu24	Cu	1.487173	0.778064	0.757407
Cu25	Cu	0.820518	0.111412	-0.091007
Cu26	Cu	1.153851	0.444745	0.242326
Cu27	Cu	1.487185	0.778079	0.575660
O28	O	0.814980	0.233307	0.076708
O29	O	1.148313	0.566641	0.410041
O30	O	1.481646	0.899974	0.743374
C31	C	0.693521	0.118010	-0.000113
C32	C	1.026855	0.451343	0.333220
C33	C	1.360188	0.784677	0.666554
C34	C	0.616413	0.116657	-0.000101
C35	C	0.949747	0.449991	0.333233
C36	C	1.283080	0.783324	0.666566
C37	C	0.580213	0.116014	-0.083875
C38	C	0.913547	0.449348	0.249458
C39	C	1.246880	0.782681	0.582791
C40	C	0.507763	0.114734	-0.083887
C41	C	0.841096	0.448068	0.249447
C42	C	1.174430	0.781401	0.582780
C43	C	0.471517	0.114080	-0.000119
C44	C	0.804851	0.447413	0.333215
C45	C	1.138184	0.780747	0.666548
C46	C	0.507726	0.114728	0.083667
C47	C	0.841059	0.448061	0.417000
C48	C	1.174392	0.781395	0.750333
C49	C	0.580173	0.116017	0.083676
C50	C	0.913507	0.449350	0.417009
C51	C	1.246840	0.782683	0.750342
C52	C	0.362053	0.062990	0.064046
C53	C	0.695386	0.396324	0.397380
C54	C	1.028720	0.729657	0.730713
C55	C	0.289607	0.061696	0.064034
C56	C	0.622940	0.395030	0.397367
C57	C	0.956274	0.728363	0.730701
C58	C	0.248063	0.110109	-0.000143
C59	C	0.581397	0.443443	0.333191
C60	C	0.914730	0.776776	0.666524
C61	C	0.278976	0.159805	-0.064323
C62	C	0.612309	0.493139	0.269011
C63	C	0.945643	0.826472	0.602344
C64	C	0.351424	0.161094	-0.064314
C65	C	0.684757	0.494427	0.269020
C66	C	1.018091	0.827761	0.602353
C67	C	0.392960	0.112683	-0.000119
C68	C	0.726293	0.446017	0.333214
C69	C	1.059626	0.779350	0.666548
C70	C	0.133305	0.108079	-0.083935
C71	C	0.466638	0.441413	0.249398
C72	C	0.799971	0.774746	0.582731
C73	C	0.060852	0.106804	-0.083943
C74	C	0.394186	0.440138	0.249390
C75	C	0.727519	0.773471	0.582724
C76	C	0.060817	0.106789	0.083613
C77	C	0.394151	0.440123	0.416946
C78	C	0.727484	0.773456	0.750279
C79	C	0.133267	0.108073	0.083618
C80	C	0.466600	0.441406	0.416951
C81	C	0.799934	0.774740	0.750285
C82	C	0.169507	0.108714	-0.000158
C83	C	0.502840	0.442047	0.333175
C84	C	0.836173	0.775380	0.666508
C85	C	0.825583	-0.041698	-0.000135
C86	C	1.158917	0.291636	0.333198
C87	C	1.492250	0.624969	0.666531
C88	C	0.824213	-0.134643	-0.000140
C89	C	1.157546	0.198691	0.333193
C90	C	1.490880	0.532024	0.666526
C91	C	0.819292	-0.472371	-0.000136
C92	C	1.152625	-0.139038	0.333197
C93	C	1.485959	0.194296	0.666530
C94	C	0.743344	-0.424642	-0.000469
C95	C	1.076677	-0.091309	0.332865
C96	C	1.410011	0.242024	0.666198
C97	C	0.744715	-0.327957	-0.000123
C98	C	1.078048	0.005376	0.333211
C99	C	1.411381	0.338709	0.666544
C100	C	0.821733	-0.304820	-0.000139
C101	C	1.155066	0.028513	0.333195
C102	C	1.488400	0.361847	0.666528
C103	C	0.859188	-0.346050	0.087613
C104	C	1.192521	-0.012717	0.420947
C105	C	1.525854	0.320617	0.754280
C106	C	0.857280	-0.442678	0.087687
C107	C	1.190613	-0.109345	0.421021
C108	C	1.523946	0.223988	0.754354
C109	C	0.858860	-0.443028	-0.087078
C110	C	1.192193	-0.109695	0.246255
C111	C	1.525526	0.223638	0.579588
C112	C	0.858842	-0.346083	-0.088238
C113	C	1.192175	-0.012749	0.245095
C114	C	1.525508	0.320584	0.578429
C115	C	0.823116	-0.210128	-0.000137
C116	C	1.156450	0.123205	0.333196
C117	C	1.489783	0.456539	0.666530
C118	C	0.817911	-0.567064	-0.000132
C119	C	1.151244	-0.233730	0.333201
C120	C	1.484577	0.099603	0.666535
C121	C	0.947504	0.104799	-0.000156
C122	C	1.280837	0.438132	0.333177
C123	C	1.614170	0.771466	0.666511
C124	C	1.024612	0.106152	-0.000174
C125	C	1.357945	0.439485	0.333159
C126	C	1.691278	0.772818	0.666492
C127	C	0.815441	0.264507	-0.000134
C128	C	1.148775	0.597840	0.333199
C129	C	1.482108	0.931173	0.666533
C130	C	0.816812	0.357452	-0.000135
C131	C	1.150145	0.690785	0.333198
C132	C	1.483478	1.024118	0.666532
N133	N	0.820504	0.111386	0.218571
N134	N	1.153837	0.444720	0.551904
N135	N	1.487170	0.778053	0.885237
N136	N	0.820527	0.111416	-0.218838
N137	N	1.153860	0.444749	0.114496
N138	N	1.487193	0.778083	0.447829
C139	C	0.820511	0.111397	0.407071
C140	C	1.153845	0.444730	0.740404
C141	C	1.487178	0.778063	1.073738
C142	C	0.877586	0.042413	0.446264
C143	C	1.210920	0.375747	0.779597
C144	C	1.544253	0.709080	1.112931
C145	C	0.877793	0.042595	0.553352
C146	C	1.211126	0.375929	0.886685
C147	C	1.544460	0.709262	1.220018
C148	C	0.820519	0.111406	0.592662
C149	C	1.153852	0.444739	0.925995
C150	C	1.487186	0.778072	1.259329
C151	C	0.836048	0.198818	0.553765
C152	C	1.169382	0.532151	0.887099
C153	C	1.502715	0.865485	1.220432
C154	C	0.836454	0.198408	0.446644
C155	C	1.169787	0.531741	0.779977
C156	C	1.503120	0.865075	1.113311
C157	C	0.747736	0.093756	0.446574
C158	C	1.081069	0.427089	0.779907
C159	C	1.414403	0.760422	1.113240
C160	C	0.748228	0.091774	0.553702
C161	C	1.081562	0.425107	0.887036
C162	C	1.414895	0.758441	1.220369
C163	C	0.820522	0.111416	0.697550
C164	C	1.153855	0.444749	1.030883
C165	C	1.487188	0.778083	1.364217
C166	C	0.820510	0.111392	0.302183
C167	C	1.153843	0.444725	0.635516
C168	C	1.487177	0.778059	0.968849
H169	H	0.609647	0.116541	0.151897
H170	H	0.942980	0.449874	0.485230
H171	H	1.276314	0.783208	0.818564
F172	F	0.469149	0.114036	0.172818
F173	F	0.802482	0.447370	0.506152
F174	F	1.135816	0.780703	0.839485
H175	H	0.712992	-0.443051	-0.063397
H176	H	1.046326	-0.109718	0.269936
H177	H	1.379659	0.223616	0.603270
F178	F	0.783142	0.267538	0.587042
F179	F	1.116476	0.600872	0.920375
F180	F	1.449809	0.934205	1.253708
H181	H	0.715272	-0.299416	-0.063026
H182	H	1.048606	0.033917	0.270307
H183	H	1.381939	0.367251	0.603640
H184	H	0.888507	0.214736	0.580579
H185	H	1.221840	0.548069	0.913912
H186	H	1.555173	0.881403	1.247245
F187	F	0.826404	-0.469733	-0.174015
F188	F	1.159738	-0.136399	0.159319
F189	F	1.493071	0.196934	0.492652
F190	F	0.732807	0.007733	0.586950
F191	F	1.066140	0.341066	0.920283
F192	F	1.399473	0.674400	1.253617
F193	F	0.703736	-0.450387	0.081113
F194	F	1.037069	-0.117054	0.414446
F195	F	1.370402	0.216279	0.747780
F196	F	0.705960	-0.291388	0.082248
F197	F	1.039294	0.041945	0.415582
F198	F	1.372627	0.375278	0.748915
H199	H	0.031306	0.106262	0.151818
H200	H	0.364640	0.439595	0.485151
H201	H	0.697973	0.772929	0.818485
F202	F	0.933146	-0.327876	0.091867
F203	F	1.266480	0.005458	0.425201
F204	F	1.599813	0.338791	0.758534
H205	H	0.732739	0.031373	0.419569
H206	H	1.066072	0.364706	0.752902
H207	H	1.399406	0.698039	1.086235
F208	F	0.690141	0.153192	0.588670
F209	F	1.023474	0.486525	0.922003
F210	F	1.356807	0.819858	1.255336
F211	F	0.932253	-0.326284	-0.095185
F212	F	1.265587	0.007049	0.238148
F213	F	1.598920	0.340382	0.571481
H214	H	0.162742	0.108591	0.151836
H215	H	0.496075	0.441924	0.485170
H216	H	0.829409	0.775258	0.818503
H217	H	0.831457	-0.318723	-0.153155
H218	H	1.164791	0.014611	0.180179
H219	H	1.498124	0.347944	0.513512
F220	F	0.825176	-0.308831	0.172985
F221	F	1.158509	0.024502	0.506318
F222	F	1.491842	0.357836	0.839651
F223	F	0.406260	0.011460	0.132358
F224	F	0.739594	0.344794	0.465692
F225	F	1.072927	0.678127	0.799025
H226	H	0.705266	0.144062	0.421228
H227	H	1.038599	0.477395	0.754561
H228	H	1.371933	0.810729	1.087895
H229	H	0.914856	-0.475006	-0.087680
H230	H	1.248189	-0.141673	0.245654
H231	H	1.581522	0.191660	0.578987
F232	F	0.256713	0.008822	0.132353
F233	F	0.590046	0.342155	0.465686
F234	F	0.923379	0.675488	0.799019
H235	H	0.829960	-0.460879	0.153295
H236	H	1.163293	-0.127546	0.486628
H237	H	1.496626	0.205788	0.819962
F238	F	0.930159	-0.485115	0.092886
F239	F	1.263493	-0.151781	0.426220
F240	F	1.596826	0.181552	0.759553
F241	F	0.865758	-0.042330	0.587730
F242	F	1.199092	0.291003	0.921063
F243	F	1.532425	0.624336	1.254397
H244	H	0.868546	-0.022778	0.420495
H245	H	1.201880	0.310555	0.753829
H246	H	1.535213	0.643888	1.087162
F247	F	0.947787	0.056940	0.411062
F248	F	1.281121	0.390274	0.744396
F249	F	1.614454	0.723607	1.077729
H250	H	0.931806	0.053874	0.578963
H251	H	1.265139	0.387208	0.912297
H252	H	1.598472	0.720541	1.245630
F253	F	0.784570	0.267952	0.412753
F254	F	1.117903	0.601285	0.746086
F255	F	1.451236	0.934618	1.079420
F256	F	0.618778	0.116699	-0.173038
F257	F	0.952111	0.450033	0.160295
F258	F	1.285444	0.783366	0.493628
F259	F	0.469228	0.114050	-0.173054
F260	F	0.802562	0.447383	0.160279
F261	F	1.135895	0.780717	0.493612
H262	H	0.031379	0.106286	-0.152165
H263	H	0.364712	0.439619	0.181168
H264	H	0.698046	0.772952	0.514502
H265	H	0.376589	0.201560	-0.116569
H266	H	0.709923	0.534893	0.216764
H267	H	1.043256	0.868227	0.550098
F268	F	0.234768	0.211337	-0.132627
F269	F	0.568101	0.544670	0.200706
F270	F	0.901434	0.878003	0.534039
F271	F	0.905814	0.218717	0.413963
F272	F	1.239147	0.552050	0.747297
F273	F	1.572480	0.885383	1.080630
H274	H	0.162812	0.108610	-0.152151
H275	H	0.496145	0.441943	0.181182
H276	H	0.829478	0.775277	0.514516
