data_functionalizedCrystal
_audit_creation_method	'MofGen! by Chris Wilmer'
_symmetry_space_group_name_H-M	'P1'
_symmetry_Int_Tables_number	1
_symmetry_cell_setting	triclinic
loop_
_symmetry_equiv_pos_as_xyz
  x,y,z
_cell_length_a	19.188931
_cell_length_b	15.944551
_cell_length_c	15.021413
_cell_angle_alpha	89.996935
_cell_angle_beta	89.994243
_cell_angle_gamma	96.678241
loop_
_atom_site_label
_atom_site_type_symbol
_atom_site_fract_x
_atom_site_fract_y
_atom_site_fract_z
O1	O	0.926420	-0.104855	-0.074002
O2	O	1.426420	0.395145	0.425998
O3	O	0.723145	-0.118971	-0.074011
O4	O	1.223145	0.381029	0.425989
O5	O	0.830333	0.010382	-0.073998
O6	O	1.330333	0.510382	0.426002
O7	O	0.819231	-0.234209	-0.074015
O8	O	1.319231	0.265791	0.425985
O9	O	0.830316	0.010364	0.074066
O10	O	1.330316	0.510364	0.574066
O11	O	0.723128	-0.118990	0.074053
O12	O	1.223128	0.381010	0.574053
O13	O	0.926403	-0.104873	0.074062
O14	O	1.426403	0.395127	0.574062
Zn15	Zn	0.824763	-0.111935	0.097566
Zn16	Zn	1.324763	0.388065	0.597566
Zn17	Zn	0.824785	-0.111910	-0.097515
Zn18	Zn	1.324785	0.388090	0.402485
O19	O	0.819214	-0.234227	0.074050
O20	O	1.319214	0.265773	0.574050
C21	C	0.697124	-0.118524	0.000020
C22	C	1.197124	0.381476	0.500020
C23	C	0.619616	-0.117151	0.000017
C24	C	1.119616	0.382849	0.500017
C25	C	0.829864	0.041665	0.000034
C26	C	1.329864	0.541665	0.500034
C27	C	0.828482	0.134906	0.000035
C28	C	1.328482	0.634906	0.500035
C29	C	0.952423	-0.105321	0.000029
C30	C	1.452423	0.394679	0.500029
C31	C	1.029931	-0.106693	0.000027
C32	C	1.529931	0.393307	0.500027
C33	C	1.074659	-0.030793	0.000024
C34	C	1.574659	0.469207	0.500024
C35	C	1.147486	-0.032082	0.000029
C36	C	1.647486	0.467918	0.500029
C37	C	1.175583	-0.109276	0.000019
C38	C	1.675583	0.390724	0.500019
C39	C	1.130845	-0.185187	0.000027
C40	C	1.630845	0.314813	0.500027
C41	C	1.058019	-0.183895	0.000031
C42	C	1.558019	0.316105	0.500031
N43	N	1.283736	-0.168276	-0.050388
N44	N	1.783736	0.331724	0.449612
N45	N	1.352917	-0.169497	-0.050394
N46	N	1.852917	0.330503	0.449606
C47	C	1.395001	-0.113172	0.000010
C48	C	1.895001	0.386828	0.500010
N49	N	1.365291	-0.055566	0.050409
N50	N	1.865291	0.444434	0.550409
N51	N	1.296103	-0.054342	0.050410
N52	N	1.796103	0.445658	0.550410
C53	C	1.254549	-0.110685	0.000016
C54	C	1.754549	0.389315	0.500016
C55	C	1.518697	-0.038664	0.000015
C56	C	2.018697	0.461336	0.500015
C57	C	1.591525	-0.039956	0.000025
C58	C	2.091525	0.460044	0.500025
C59	C	1.574882	-0.193063	0.000014
C60	C	2.074882	0.306937	0.500014
C61	C	1.502056	-0.191769	0.000012
C62	C	2.002056	0.308231	0.500012
C63	C	1.473968	-0.114567	0.000008
C64	C	1.973968	0.385433	0.500008
C65	C	0.819684	-0.265510	0.000015
C66	C	1.319684	0.234490	0.500015
C67	C	0.821065	-0.358751	0.000009
C68	C	1.321065	0.141249	0.500009
N69	N	0.824752	-0.111951	0.230704
N70	N	1.324752	0.388049	0.730704
C71	C	0.758739	0.349502	0.000019
C72	C	1.258739	0.849502	0.500019
C73	C	0.791117	0.410631	0.073025
C74	C	1.291117	0.910631	0.573025
C75	C	0.825982	0.305623	0.000028
C76	C	1.325982	0.805623	0.500028
C77	C	0.791150	0.410633	-0.072954
C78	C	1.291150	0.910633	0.427046
C79	C	0.823563	0.470527	0.000017
C80	C	1.323563	0.970527	0.500017
C81	C	0.858379	0.365524	0.073094
C82	C	1.358379	0.865524	0.573094
C83	C	0.858402	0.365519	-0.072951
C84	C	1.358402	0.865519	0.427049
C85	C	0.890829	0.426631	0.000073
C86	C	1.390829	0.926631	0.500073
C87	C	0.827374	0.210626	0.000034
C88	C	1.327374	0.710626	0.500034
C89	C	0.822176	0.565522	0.000017
C90	C	1.322176	1.065522	0.500017
N91	N	0.824801	-0.111887	-0.230652
N92	N	1.324801	0.388113	0.269348
C93	C	0.775181	-0.171736	0.470381
C94	C	1.275181	0.328264	0.970381
C95	C	0.838271	-0.187807	0.529717
C96	C	1.338271	0.312193	1.029717
C97	C	0.824770	-0.111930	0.412311
C98	C	1.324770	0.388070	0.912311
C99	C	0.761697	-0.095877	0.529716
C100	C	1.261697	0.404123	1.029716
C101	C	0.824782	-0.111911	0.587735
C102	C	1.324782	0.388089	1.087735
C103	C	0.887892	-0.128038	0.470340
C104	C	1.387892	0.371962	0.970340
C105	C	0.811277	-0.036076	0.470334
C106	C	1.311277	0.463924	0.970334
C107	C	0.874413	-0.052114	0.529644
C108	C	1.374413	0.447886	1.029644
C109	C	0.824763	-0.111942	0.311253
C110	C	1.324763	0.388058	0.811253
C111	C	0.824797	-0.111898	0.688790
C112	C	1.324797	0.388102	1.188790
H113	H	1.051795	0.032071	0.000024
H114	H	1.551795	0.532071	0.500024
H115	H	0.762707	0.430611	-0.134680
H116	H	1.262707	0.930611	0.365320
Cl117	Cl	0.970271	-0.149104	0.430248
Cl118	Cl	1.470271	0.350896	0.930248
H119	H	1.495827	0.024199	0.000015
H120	H	1.995827	0.524199	0.500015
H121	H	0.886826	0.345503	-0.134673
H122	H	1.386826	0.845503	0.365327
H123	H	0.886789	0.345632	0.134883
H124	H	1.386789	0.845632	0.634883
H125	H	0.849694	-0.251947	0.555800
H126	H	1.349694	0.248053	1.055800
H127	H	0.916399	-0.001527	0.555501
H128	H	1.416399	0.498473	1.055501
Cl129	Cl	0.793610	0.062920	0.430027
Cl130	Cl	1.293610	0.562920	0.930027
Cl131	Cl	0.710501	-0.249881	0.430200
Cl132	Cl	1.210501	0.250119	0.930200
H133	H	1.183911	0.029727	0.000024
H134	H	1.683911	0.529727	0.500024
Cl135	Cl	1.166165	-0.282231	0.000018
Cl136	Cl	1.666165	0.217769	0.500018
Cl137	Cl	0.747197	0.441502	0.168314
Cl138	Cl	1.247197	0.941502	0.668314
Cl139	Cl	1.001787	-0.279322	0.000031
Cl140	Cl	1.501787	0.220678	0.500031
Cl141	Cl	0.977077	0.478153	0.000136
Cl142	Cl	1.477077	0.978153	0.500136
Cl143	Cl	0.672566	0.297755	0.000122
Cl144	Cl	1.172566	0.797755	0.500122
Cl145	Cl	0.679339	-0.074925	0.569986
Cl146	Cl	1.179339	0.425075	1.069986
Cl147	Cl	1.610196	-0.290109	0.000016
Cl148	Cl	2.110196	0.209891	0.500016
H149	H	1.627942	0.021854	0.000030
H150	H	2.127942	0.521854	0.500030
H151	H	1.465637	-0.253575	0.000009
H152	H	1.965637	0.246425	0.500009
