data_functionalizedCrystal
_audit_creation_method	'MofGen! by Chris Wilmer'
_symmetry_space_group_name_H-M	'P1'
_symmetry_Int_Tables_number	1
_symmetry_cell_setting	triclinic
loop_
_symmetry_equiv_pos_as_xyz
  x,y,z
_cell_length_a	12.594517
_cell_length_b	18.050583
_cell_length_c	12.594516
_cell_angle_alpha	90.030412
_cell_angle_beta	89.984147
_cell_angle_gamma	89.983678
loop_
_atom_site_label
_atom_site_type_symbol
_atom_site_fract_x
_atom_site_fract_y
_atom_site_fract_z
Zn1	Zn	1.627214	-0.419949	0.423671
Zn2	Zn	1.627121	-0.295772	0.601695
Zn3	Zn	1.449234	-0.295772	0.423730
Zn4	Zn	1.449200	-0.419919	0.601608
O5	O	1.538192	-0.357853	0.512676
O6	O	1.776148	-0.403488	0.447299
O7	O	1.603498	-0.191847	0.578148
O8	O	1.472896	-0.312257	0.274776
O9	O	1.776079	-0.312256	0.578092
O10	O	1.603658	-0.403489	0.274733
O11	O	1.472806	-0.191848	0.447398
O12	O	1.300284	-0.312229	0.447314
O13	O	1.472840	-0.523848	0.577943
O14	O	1.300259	-0.403439	0.578000
O15	O	1.603626	-0.523870	0.447214
O16	O	1.603466	-0.312227	0.750629
O17	O	1.472749	-0.403438	0.750565
C18	C	1.261651	-0.357831	0.512655
C19	C	1.143346	-0.357839	0.512671
C20	C	1.538239	-0.551559	0.512562
C21	C	1.538259	-0.634105	0.512514
C22	C	1.074075	-0.308325	0.441494
C23	C	1.003267	-0.290060	0.538585
C24	C	1.003356	-0.376116	0.415628
C25	C	1.074095	-0.339540	0.609813
C26	C	1.074191	-0.425627	0.486791
C27	C	1.003414	-0.407389	0.583948
C28	C	1.609452	-0.833567	0.441389
C29	C	1.512370	-0.882960	0.415339
C30	C	1.538302	-0.785235	0.512496
C31	C	1.635423	-0.882924	0.538479
C32	C	1.538352	-0.931220	0.512476
C33	C	1.441169	-0.833540	0.486395
C34	C	1.564287	-0.833500	0.609580
C35	C	1.467138	-0.882871	0.583567
C36	C	1.538275	-0.701137	0.512504
C37	C	1.538368	-1.015317	0.512468
C38	C	1.815813	-0.357875	0.512698
C39	C	1.934119	-0.357885	0.512708
C40	C	1.538123	-0.357846	0.789217
C41	C	1.538190	-0.357867	0.907522
C42	C	1.538207	-0.164901	0.512712
C43	C	1.538393	-0.082356	0.512461
C44	C	1.538291	-0.357877	0.235055
C45	C	1.538334	-0.357887	0.116750
C46	C	1.467086	-0.407442	0.976779
C47	C	1.441161	-0.339676	1.047652
C48	C	1.564212	-0.425645	1.047449
C49	C	1.512214	-0.290065	0.976837
C50	C	1.635310	-0.376080	0.976627
C51	C	1.609422	-0.308267	1.047468
H52	H	1.105101	-0.266400	0.381361
H53	H	1.406921	-0.904383	0.643691
O54	O	1.590706	-0.807592	0.707476
C55	C	1.693173	-0.832725	0.734588
H56	H	1.739126	-0.846621	0.659165
H57	H	1.686455	-0.884370	0.786218
C58	C	1.695665	-0.754573	0.888979
C59	C	1.752108	-0.771635	0.796343
H60	H	1.732018	-0.716892	0.927077
H61	H	1.626630	-0.737642	0.870717
H62	H	1.690070	-0.797616	0.931992
H63	H	1.757690	-0.728595	0.753327
H64	H	1.821146	-0.788557	0.814600
H65	H	1.669614	-0.266303	1.078310
H66	H	1.717536	-0.904619	0.560462
O67	O	1.111344	-0.493951	0.460433
C68	C	1.075343	-0.512992	0.358002
H69	H	1.055420	-0.460423	0.311999
H70	H	1.001332	-0.549030	0.364791
C71	C	1.187377	-0.620686	0.355584
C72	C	1.162916	-0.556120	0.299079
H73	H	1.241394	-0.647293	0.319238
H74	H	1.211629	-0.607860	0.424595
H75	H	1.125694	-0.650709	0.361238
H76	H	1.224595	-0.526095	0.293438
H77	H	1.138677	-0.568942	0.230065
H78	H	0.972227	-0.391530	0.333556
O79	O	1.733158	-0.394605	0.939425
C80	C	1.760223	-0.466121	0.975358
H81	H	1.684782	-0.498114	0.995282
H82	H	1.811915	-0.461474	1.049354
C83	C	1.914524	-0.468007	0.863267
C84	C	1.821866	-0.507304	0.887730
H85	H	1.952553	-0.493410	0.809216
H86	H	1.896293	-0.419824	0.839060
H87	H	1.957589	-0.464138	0.924937
H88	H	1.778798	-0.511165	0.826063
H89	H	1.840092	-0.555489	0.911924
O90	O	1.343104	-0.807902	0.460075
C91	C	1.274543	-0.868284	0.441636
H92	H	1.305985	-0.919292	0.484730
H93	H	1.270396	-0.880043	0.352789
C94	C	1.124159	-0.786807	0.430371
C95	C	1.162773	-0.849455	0.483307
H96	H	1.055212	-0.775192	0.456071
H97	H	1.170350	-0.746126	0.442789
H98	H	1.120712	-0.796614	0.356335
H99	H	1.166231	-0.839644	0.557340
H100	H	1.116579	-0.890134	0.470902
O101	O	0.966140	-0.221711	0.564870
C102	C	1.003640	-0.202056	0.666521
H103	H	1.078782	-0.234825	0.684993
H104	H	0.940282	-0.215191	0.728370
C105	C	0.936397	-0.078328	0.646373
C106	C	1.028693	-0.118571	0.669056
H107	H	0.951846	-0.026830	0.647940
H108	H	0.911128	-0.091570	0.577890
H109	H	0.883607	-0.089282	0.697917
H110	H	1.081476	-0.107623	0.617506
H111	H	1.053971	-0.105325	0.737531
O112	O	1.486154	-0.909015	0.317460
C113	C	1.485646	-0.987116	0.319078
H114	H	1.473211	-1.007237	0.403957
H115	H	1.564789	-1.008770	0.287924
C116	C	1.410248	-0.991282	0.144025
C117	C	1.394967	-1.015996	0.248273
H118	H	1.354317	-1.009098	0.100345
H119	H	1.410595	-0.938665	0.142932
H120	H	1.476204	-1.009329	0.118077
H121	H	1.329019	-0.997942	0.274223
H122	H	1.394608	-1.068612	0.249368
H123	H	1.669523	-0.811916	0.381219
O124	O	1.485760	-0.221668	0.940123
C125	C	1.383735	-0.202487	0.977171
H126	H	1.364969	-0.235604	1.051900
H127	H	1.322397	-0.215580	0.913314
C128	C	1.403546	-0.078439	0.911170
C129	C	1.380500	-0.119109	1.002959
H130	H	1.401547	-0.027007	0.927073
H131	H	1.472280	-0.091362	0.886206
H132	H	1.352428	-0.089358	0.857965
H133	H	1.431625	-0.108197	1.056157
H134	H	1.311774	-0.106182	1.027932
H135	H	1.406848	-0.449305	0.945740
H136	H	1.359096	-0.324287	1.078872
H137	H	1.586163	-0.482956	1.078467
H138	H	1.105039	-0.324037	0.691921
H139	H	0.972583	-0.449281	0.644226
