data_functionalizedCrystal
_audit_creation_method	'MofGen! by Chris Wilmer'
_symmetry_space_group_name_H-M	'P1'
_symmetry_Int_Tables_number	1
_symmetry_cell_setting	triclinic
loop_
_symmetry_equiv_pos_as_xyz
  x,y,z
_cell_length_a	21.295418
_cell_length_b	16.120484
_cell_length_c	16.120297
_cell_angle_alpha	95.614431
_cell_angle_beta	87.141709
_cell_angle_gamma	87.057675
loop_
_atom_site_label
_atom_site_type_symbol
_atom_site_fract_x
_atom_site_fract_y
_atom_site_fract_z
Zn1	Zn	0.929946	0.356428	0.489852
Zn2	Zn	0.929866	0.489118	0.357163
Zn3	Zn	0.830299	0.349398	0.350056
Zn4	Zn	0.819029	0.496197	0.496838
O5	O	0.877285	0.422785	0.423477
O6	O	1.018023	0.374009	0.472302
O7	O	0.921342	0.464679	0.239260
O8	O	0.848268	0.233364	0.362702
O9	O	1.017965	0.471496	0.374815
O10	O	0.921478	0.238529	0.465410
O11	O	0.848191	0.362028	0.234039
O12	O	0.740716	0.368892	0.369476
O13	O	0.829059	0.483561	0.612871
O14	O	0.732436	0.476745	0.477316
O15	O	0.910549	0.380873	0.607739
O16	O	0.910414	0.607024	0.381589
O17	O	0.828982	0.612225	0.484207
C18	C	0.713736	0.422824	0.423383
C19	C	0.643767	0.422862	0.423364
C20	C	0.868482	0.639953	0.434445
C21	C	0.864773	0.732860	0.439166
C22	C	0.868555	0.433791	0.641479
C23	C	0.864835	0.438481	0.734379
C24	C	0.606605	0.479088	0.479440
C25	C	0.540862	0.479069	0.479476
C26	C	0.512283	0.422833	0.423422
C27	C	0.549453	0.366597	0.367342
C28	C	0.615195	0.366612	0.367313
N29	N	0.412215	0.412594	0.349988
N30	N	0.349763	0.412585	0.350018
C31	C	0.314207	0.422784	0.423508
N32	N	0.343462	0.433009	0.496969
N33	N	0.405920	0.433022	0.496938
C34	C	0.440998	0.422810	0.423448
C35	C	0.205759	0.478992	0.479628
C36	C	0.140015	0.478968	0.479666
C37	C	0.148607	0.366500	0.367524
C38	C	0.214350	0.366520	0.367494
C39	C	0.242922	0.422771	0.423545
C40	C	1.041473	0.422747	0.423572
C41	C	1.111440	0.422730	0.423612
C42	C	0.886139	0.204770	0.412484
C43	C	0.889912	0.111865	0.407800
C44	C	0.858003	0.902963	0.447801
C45	C	0.896679	0.941768	0.399167
C46	C	0.892912	1.036419	0.403972
C47	C	0.861769	0.808303	0.442997
C48	C	0.886020	0.411762	0.206320
C49	C	0.889871	0.406837	0.113409
C50	C	0.858021	0.447025	0.904466
C51	C	0.896684	0.398295	0.943327
C52	C	0.892892	0.403049	1.037970
C53	C	0.861811	0.442272	0.809815
H54	H	0.510599	0.524854	0.525143
C55	C	0.810031	0.507443	0.954723
C56	C	0.775094	0.551461	0.900272
C57	C	0.730877	0.607118	0.946548
H58	H	0.831227	0.545602	0.990641
H59	H	0.782530	0.477173	0.987124
H60	H	0.802591	0.581729	0.867884
H61	H	0.753884	0.513324	0.864352
H62	H	0.703376	0.576848	0.978950
H63	H	0.752079	0.645272	0.982465
H64	H	0.707163	0.636986	0.909610
C65	C	0.810101	0.953586	0.508038
C66	C	0.815828	1.038759	0.500859
C67	C	0.771704	1.085428	0.556324
H68	H	0.817535	0.942234	0.563542
H69	H	0.768845	0.938829	0.495017
H70	H	0.857075	1.053511	0.513886
H71	H	0.808388	1.050137	0.445368
H72	H	0.730448	1.070671	0.543303
H73	H	0.779143	1.074069	0.611824
H74	H	0.775581	1.143222	0.551455
C75	C	0.236904	0.540018	0.540395
C76	C	0.302432	0.528018	0.528348
C77	C	0.331141	0.584227	0.584303
H78	H	0.224485	0.530760	0.596000
H79	H	0.224353	0.595553	0.530905
H80	H	0.314978	0.472496	0.537844
H81	H	0.314869	0.537283	0.472754
H82	H	0.318590	0.639761	0.574814
H83	H	0.318718	0.574964	0.639905
H84	H	0.375605	0.576097	0.576132
H85	H	0.109758	0.524752	0.525335
C86	C	0.944588	0.337977	0.892775
C87	C	0.938882	0.345205	0.807594
C88	C	0.983001	0.289659	0.760997
H89	H	0.937135	0.282485	0.904087
H90	H	0.985845	0.350898	0.907626
H91	H	0.897635	0.332279	0.792748
H92	H	0.946342	0.400685	0.796256
H93	H	1.024258	0.302581	0.775848
H94	H	0.975544	0.234171	0.772317
H95	H	0.979140	0.294562	0.703197
C96	C	0.637662	0.540243	0.540168
C97	C	0.675078	0.591373	0.495447
C98	C	0.703693	0.647722	0.551364
H99	H	0.663219	0.510266	0.575034
H100	H	0.606130	0.573775	0.573562
H101	H	0.706605	0.557845	0.462068
H102	H	0.649535	0.621368	0.460584
H103	H	0.672161	0.681254	0.584757
H104	H	0.729247	0.617738	0.586227
H105	H	0.729078	0.682426	0.521028
H106	H	0.932619	0.903905	0.353921
H107	H	0.645452	0.320823	0.321648
H108	H	0.125339	0.320707	0.321888
C109	C	0.518309	0.305638	0.306513
C110	C	0.452781	0.317677	0.318522
C111	C	0.424072	0.261542	0.262493
H112	H	0.530818	0.250082	0.315938
H113	H	0.530770	0.314961	0.250929
H114	H	0.440325	0.308347	0.374093
H115	H	0.440254	0.373222	0.309090
H116	H	0.436532	0.270865	0.206908
H117	H	0.436585	0.205989	0.271922
H118	H	0.379608	0.269708	0.270627
H119	H	0.244608	0.320739	0.321827
