data_functionalizedCrystal
_audit_creation_method	'MofGen! by Chris Wilmer'
_symmetry_space_group_name_H-M	'P1'
_symmetry_Int_Tables_number	1
_symmetry_cell_setting	triclinic
loop_
_symmetry_equiv_pos_as_xyz
  x,y,z
_cell_length_a	16.120484
_cell_length_b	13.897449
_cell_length_c	13.897441
_cell_angle_alpha	90.022859
_cell_angle_beta	92.865635
_cell_angle_gamma	87.074557
loop_
_atom_site_label
_atom_site_type_symbol
_atom_site_fract_x
_atom_site_fract_y
_atom_site_fract_z
Zn1	Zn	-0.331884	-1.455180	-0.564879
Zn2	Zn	0.168116	-0.955180	-0.064879
Zn3	Zn	-0.471315	-1.446872	-0.411749
Zn4	Zn	0.028685	-0.946872	0.088251
Zn5	Zn	-0.331920	-1.293867	-0.403594
Zn6	Zn	0.168080	-0.793867	0.096406
Zn7	Zn	-0.471257	-1.285653	-0.572993
Zn8	Zn	0.028743	-0.785653	-0.072993
O9	O	-0.401594	-1.370393	-0.488304
O10	O	0.098406	-0.870393	0.011696
O11	O	-0.350389	-1.589059	-0.544584
O12	O	0.149611	-1.089059	-0.044584
O13	O	-0.452863	-1.426537	-0.275688
O14	O	0.047137	-0.926537	0.224312
O15	O	-0.215249	-1.322180	-0.418180
O16	O	0.284751	-0.822180	0.081820
O17	O	-0.452828	-1.582956	-0.432080
O18	O	0.047172	-1.082956	0.067920
O19	O	-0.215223	-1.440696	-0.536676
O20	O	0.284777	-0.940696	-0.036676
O21	O	-0.350450	-1.314125	-0.269696
O22	O	0.149550	-0.814125	0.230304
O23	O	-0.350394	-1.157797	-0.426047
O24	O	0.149606	-0.657797	0.073953
O25	O	-0.452729	-1.308180	-0.706896
O26	O	0.047271	-0.808180	-0.206896
O27	O	-0.452764	-1.151761	-0.550504
O28	O	0.047236	-0.651761	-0.050504
O29	O	-0.350332	-1.432731	-0.700935
O30	O	0.149668	-0.932731	-0.200935
O31	O	-0.587973	-1.418572	-0.439947
O32	O	-0.087973	-0.918572	0.060053
O33	O	-0.587930	-1.300124	-0.558412
O34	O	-0.087930	-0.800124	-0.058412
C35	C	-0.401577	-1.119780	-0.488272
C36	C	0.098423	-0.619780	0.011728
C37	C	-0.401590	-1.012565	-0.488282
C38	C	0.098410	-0.512565	0.011718
C39	C	-0.401589	-0.816270	-0.488300
C40	C	0.098411	-0.316270	0.011700
C41	C	-0.401587	-0.925503	-0.488287
C42	C	0.098413	-0.425503	0.011713
C43	C	-0.618201	-1.357581	-0.500966
C44	C	-0.118201	-0.857581	-0.000966
C45	C	-0.710867	-1.352189	-0.506415
C46	C	-0.210867	-0.852189	-0.006415
C47	C	-0.880528	-1.342348	-0.516384
C48	C	-0.380528	-0.842348	-0.016384
C49	C	-0.921819	-1.398611	-0.460240
C50	C	-0.421819	-0.898611	0.039760
C51	C	-1.016224	-1.393136	-0.465786
C52	C	-0.516224	-0.893136	0.034214
C53	C	-0.786114	-1.347822	-0.510838
C54	C	-0.286114	-0.847822	-0.010838
C55	C	-0.184140	-1.383281	-0.475613
C56	C	0.315860	-0.883281	0.024387
C57	C	-0.091475	-1.388774	-0.470205
C58	C	0.408525	-0.888774	0.029795
C59	C	-0.401520	-1.370466	-0.739893
C60	C	0.098480	-0.870466	-0.239893
C61	C	-0.401489	-1.370497	-0.847105
C62	C	0.098511	-0.870497	-0.347105
C63	C	-0.401605	-0.621985	-0.488327
C64	C	0.098395	-0.121985	0.011673
C65	C	-0.401596	-0.729200	-0.488313
C66	C	0.098404	-0.229200	0.011687
C67	C	-0.401432	-1.370526	-1.043397
C68	C	0.098568	-0.870526	-0.543397
C69	C	-0.401466	-1.370507	-0.934166
C70	C	0.098534	-0.870507	-0.434166
C71	C	-0.401607	-1.370380	-0.237690
C72	C	0.098393	-0.870380	0.262310
C73	C	-0.401403	-1.370549	-0.130465
C74	C	0.098597	-0.870549	0.369535
H75	H	-0.886268	-1.450890	-0.408007
H76	H	-0.386268	-0.950890	0.091993
O77	O	-0.922839	-1.279848	-0.578637
O78	O	-0.422839	-0.779848	-0.078637
C79	C	-0.901742	-1.184922	-0.556227
C80	C	-0.401742	-0.684922	-0.056227
H81	H	-0.838517	-1.186537	-0.515508
H82	H	-0.338517	-0.686537	-0.015508
H83	H	-0.898864	-1.141789	-0.625632
H84	H	-0.398864	-0.641789	-0.125632
H85	H	-0.950786	-1.149679	-0.509422
H86	H	-0.450786	-0.649679	-0.009422
