data_functionalizedCrystal
_audit_creation_method	'MofGen! by Chris Wilmer'
_symmetry_space_group_name_H-M	'P1'
_symmetry_Int_Tables_number	1
_symmetry_cell_setting	triclinic
loop_
_symmetry_equiv_pos_as_xyz
  x,y,z
_cell_length_a	14.395555
_cell_length_b	20.016444
_cell_length_c	14.395555
_cell_angle_alpha	60.000589
_cell_angle_beta	90.002623
_cell_angle_gamma	60.002090
loop_
_atom_site_label
_atom_site_type_symbol
_atom_site_fract_x
_atom_site_fract_y
_atom_site_fract_z
Zr1	Zr	0.894964	0.731223	-0.121868
O2	O	0.746643	0.870596	-0.270202
O3	O	0.940425	0.591849	-0.076394
O4	O	0.940436	0.731216	-0.270189
O5	O	0.746632	0.731234	0.076461
O6	O	1.093310	0.731211	-0.270181
O7	O	0.746633	0.731229	-0.076407
O8	O	1.093291	0.481908	0.076483
O9	O	0.746651	0.980537	-0.270204
O10	O	1.073910	0.649171	-0.056996
O11	O	0.959821	0.649179	0.057081
O12	O	0.959834	0.813266	-0.171088
O13	O	0.845744	0.813274	-0.057011
Zr14	Zr	1.138778	0.731223	0.121951
Zr15	Zr	1.138780	0.731215	-0.121855
Zr16	Zr	0.894962	0.731230	0.121938
Zr17	Zr	0.894975	0.906565	-0.121871
Zr18	Zr	1.138767	0.555880	0.121954
O19	O	1.093317	0.870596	0.076477
O20	O	1.093319	0.870585	-0.270183
O21	O	0.746641	0.870608	0.076458
O22	O	1.287098	0.591849	0.270285
O23	O	1.287101	0.591837	-0.076375
O24	O	0.940423	0.591860	0.270266
O25	O	1.287110	0.731211	-0.076378
O26	O	1.093306	0.731229	0.270272
O27	O	0.940432	0.731234	0.270264
O28	O	1.287109	0.731216	0.076489
O29	O	0.940452	0.980531	-0.270193
O30	O	1.093289	0.481914	0.270276
O31	O	1.287091	0.481908	0.270287
O32	O	1.287093	0.481902	0.076494
O33	O	0.746649	0.980543	-0.076411
O34	O	0.940451	0.980537	-0.076401
O35	O	1.073908	0.649179	0.171170
O36	O	1.187997	0.649171	0.057093
O37	O	1.073921	0.813266	-0.056998
O38	O	0.959832	0.813274	0.057079
C39	C	1.016856	0.511896	0.000045
C40	C	1.016851	0.437458	0.000047
C41	C	0.932653	0.326763	-0.084182
C42	C	0.932660	0.256819	-0.084187
C43	C	1.101098	0.135682	0.084270
C44	C	1.101094	0.205626	0.084268
C45	C	1.016865	0.301167	0.000043
C46	C	1.016877	0.161278	0.000040
C47	C	1.016885	0.085441	0.000036
C48	C	1.016857	0.377009	0.000045
C49	C	0.711894	0.731232	0.000025
C50	C	0.608387	0.731236	0.000020
C51	C	0.485599	0.820707	-0.062178
C52	C	0.454761	0.775978	-0.107252
C53	C	0.454802	0.775962	0.045085
C54	C	0.578913	0.686506	-0.045117
C55	C	0.578951	0.686502	0.107280
C56	C	0.548186	0.641707	0.062233
C57	C	1.321848	0.731213	0.000058
C58	C	1.425355	0.731209	0.000063
C59	C	1.016873	0.731213	-0.304922
C60	C	1.016874	0.731209	-0.408424
C61	C	1.016885	0.950549	0.000038
C62	C	1.016890	1.024987	0.000036
C63	C	1.079079	0.641738	-0.406805
C64	C	0.971806	0.686467	-0.499833
C65	C	1.124121	0.686483	-0.499824
C66	C	0.909537	0.775939	-0.500089
C67	C	1.061930	0.775943	-0.500066
C68	C	0.954593	0.820738	-0.593112
C69	C	1.016869	0.731232	0.305005
C70	C	1.016868	0.731236	0.408507
C71	C	1.321834	0.511886	0.000061
C72	C	1.425335	0.437445	0.000068
C73	C	1.016854	0.511906	0.305009
C74	C	1.016848	0.437472	0.408512
C75	C	1.321831	0.511896	0.305025
C76	C	1.425332	0.437458	0.408534
C77	C	0.711910	0.950549	-0.304942
C78	C	0.608410	1.024987	-0.408451
C79	C	0.711908	0.950559	0.000021
C80	C	0.608407	1.025000	0.000015
C81	C	1.016888	0.950539	-0.304926
C82	C	1.016893	1.024973	-0.408429
C83	C	1.414388	0.402487	-0.059492
C84	C	1.511630	0.332551	-0.059509
C85	C	1.619817	0.297571	0.000043
C86	C	1.630762	0.332536	0.059605
C87	C	1.533521	0.402475	0.059614
C88	C	1.076398	0.402517	0.516682
C89	C	1.076388	0.332588	0.613943
C90	C	1.016835	0.297610	0.603032
C91	C	0.957278	0.332572	0.494851
C92	C	0.957282	0.402504	0.397592
C93	C	1.533501	0.402498	0.397595
C94	C	1.630760	0.332566	0.494843
C95	C	1.619848	0.297590	0.603029
C96	C	1.511668	0.332558	0.613965
C97	C	1.414412	0.402493	0.516718
C98	C	0.500241	1.059956	-0.397513
C99	C	0.402982	1.129910	-0.494761
C100	C	0.413893	1.164888	-0.602946
C101	C	0.522073	1.129917	-0.613882
C102	C	0.619330	1.059969	-0.516635
C103	C	0.619354	1.059966	0.059565
C104	C	0.522112	1.129920	0.059554
C105	C	0.413925	1.164903	-0.000000
C106	C	0.402980	1.129935	-0.059558
C107	C	0.500220	1.059986	-0.059553
C108	C	1.076458	1.059929	-0.397482
C109	C	1.076486	1.129858	-0.494725
C110	C	1.016941	1.164836	-0.602914
C111	C	0.957374	1.129874	-0.613859
C112	C	0.957354	1.059941	-0.516617
H113	H	0.460160	0.896364	-0.114858
H114	H	1.169673	0.057887	0.152844
H115	H	1.124991	1.158317	-0.485791
H116	H	0.908844	1.031488	-0.525546
C117	C	0.534057	1.168395	-0.732897
N118	N	0.543080	1.197373	-0.822542
H119	H	1.100073	0.813722	-0.499090
C120	C	0.840011	0.284983	-0.176832
N121	N	0.770220	0.306199	-0.246614
C122	C	0.738314	1.021499	-0.528686
N123	N	0.827931	0.992526	-0.537772
H124	H	1.124891	0.304130	0.702019
H125	H	1.326339	0.430949	0.525640
H126	H	1.214825	0.648653	-0.500718
C127	C	0.650987	0.635460	-0.096732
N128	N	0.705273	0.597017	-0.135612
H129	H	0.573838	0.565989	0.114838
C130	C	0.891780	0.294081	0.482868
N131	N	0.842453	0.265083	0.473846
C132	C	0.651260	0.635485	0.229759
N133	N	0.705726	0.597073	0.322008
C134	C	0.306896	1.241826	-0.709910
N135	N	0.226301	1.299772	-0.790472
C136	C	0.382423	0.827071	-0.229759
N137	N	0.327924	0.865563	-0.322027
C138	C	1.141974	1.021461	-0.278483
N139	N	1.191331	0.992487	-0.188855
H140	H	1.169676	0.184776	0.152857
H141	H	1.699051	0.240644	0.682204
C142	C	1.150028	0.539533	-0.299046
N143	N	1.203459	0.462554	-0.217881
C144	C	0.891782	0.440937	0.278607
N145	N	0.842447	0.469880	0.188989
H146	H	0.901912	0.896456	-0.672743
C147	C	1.545532	0.440963	0.278600
N148	N	1.554603	0.469935	0.188976
C149	C	0.920310	0.635386	-0.501095
N150	N	0.881530	0.596907	-0.502038
C151	C	0.840007	0.431857	-0.176841
N152	N	0.770227	0.511014	-0.246637
H153	H	0.401299	0.813796	0.083180
H154	H	0.818795	0.813728	-0.499273
C155	C	1.499684	0.294067	0.732980
N156	N	1.490662	0.265068	0.822624
H157	H	0.707436	1.031488	0.108069
C158	C	1.016854	0.220673	0.710032
N159	N	1.016879	0.162719	0.790629
C160	C	0.306968	1.241845	0.000012
N161	N	0.226412	1.299795	0.000029
C162	C	1.016973	1.241766	-0.709872
N163	N	1.016998	1.299712	-0.790430
H164	H	1.326306	0.430967	-0.108000
C165	C	1.726774	0.220629	0.000030
N166	N	1.807330	0.162673	0.000021
C167	C	1.749779	0.294040	0.125116
N168	N	1.839426	0.265037	0.174467
H169	H	0.491335	1.031480	-0.309431
C170	C	1.141909	0.440984	0.528711
N171	N	1.191249	0.469958	0.537782
C172	C	0.283995	1.168364	-0.482705
N173	N	0.194376	1.197326	-0.473622
C174	C	0.283963	1.168414	-0.125045
N175	N	0.194316	1.197390	-0.174359
C176	C	0.488159	1.021521	-0.125053
N177	N	0.479066	0.992551	-0.174388
H178	H	0.531046	1.158380	0.108058
H179	H	1.542451	0.430929	0.108122
C180	C	0.891926	1.168326	-0.732878
N181	N	0.842644	1.197281	-0.822526
H182	H	1.502696	0.304091	-0.108011
H183	H	1.718836	0.304102	0.485919
