data_functionalizedCrystal
_audit_creation_method	'MofGen! by Chris Wilmer'
_symmetry_space_group_name_H-M	'P1'
_symmetry_Int_Tables_number	1
_symmetry_cell_setting	triclinic
loop_
_symmetry_equiv_pos_as_xyz
  x,y,z
_cell_length_a	10.654550
_cell_length_b	19.188930
_cell_length_c	9.130313
_cell_angle_alpha	89.993647
_cell_angle_beta	89.996220
_cell_angle_gamma	83.814841
loop_
_atom_site_label
_atom_site_type_symbol
_atom_site_fract_x
_atom_site_fract_y
_atom_site_fract_z
O1	O	1.665759	0.098059	-0.121938
O2	O	1.300083	0.107401	-0.121916
O3	O	1.493474	0.001143	-0.121899
O4	O	1.472368	0.204317	-0.121955
O5	O	1.493471	0.001146	0.121700
O6	O	1.300081	0.107404	0.121682
O7	O	1.665757	0.098062	0.121661
Cu8	Cu	1.482918	0.102733	0.143914
Cu9	Cu	1.482921	0.102730	-0.144170
O10	O	1.472366	0.204320	0.121644
C11	C	1.253298	0.106717	-0.000114
C12	C	1.113898	0.104664	-0.000104
C13	C	1.033089	0.167227	-0.000143
C14	C	0.902109	0.165295	-0.000168
C15	C	0.932761	0.038231	-0.000121
C16	C	1.063738	0.040164	-0.000086
C17	C	1.083249	0.231728	-0.000161
C18	C	1.002438	0.294296	-0.000201
C19	C	0.871458	0.292363	-0.000226
C20	C	0.821289	0.227863	-0.000211
C21	C	1.492789	-0.024871	-0.000096
C22	C	1.490737	-0.102389	-0.000083
C23	C	1.604213	-0.146570	-0.000083
C24	C	1.602285	-0.219407	-0.000106
C25	C	1.486876	-0.248058	-0.000100
C26	C	1.373386	-0.203867	-0.000109
C27	C	1.375316	-0.131032	-0.000100
N28	N	1.398658	-0.356639	0.082806
N29	N	1.396832	-0.425830	0.082801
C30	C	1.481052	-0.467505	-0.000129
N31	N	1.567186	-0.437377	-0.083037
N32	N	1.569016	-0.368180	-0.083025
C33	C	1.484770	-0.327034	-0.000110
C34	C	1.592445	-0.590665	-0.000157
C35	C	1.590513	-0.663502	-0.000189
C36	C	1.361610	-0.647960	-0.000177
C37	C	1.363545	-0.575125	-0.000159
C38	C	1.478966	-0.546481	-0.000142
C39	C	1.712541	0.098746	-0.000145
C40	C	1.851941	0.100798	-0.000164
C41	C	1.473051	0.230334	-0.000163
C42	C	1.475102	0.307852	-0.000186
N43	N	1.482926	0.102735	0.346537
N44	N	1.482924	0.102722	-0.346792
C45	C	1.568581	0.055700	0.423196
C46	C	1.568577	0.055692	0.576533
C47	C	1.397260	0.149759	0.576537
C48	C	1.397258	0.149764	0.423203
C49	C	1.654248	0.008672	0.346530
C50	C	1.739911	-0.038367	0.423189
C51	C	1.739908	-0.038375	0.576526
C52	C	1.654241	0.008655	0.653203
H53	H	1.698197	-0.123254	-0.000074
H54	H	0.891902	-0.014283	-0.000133
C55	C	1.832804	-0.089378	0.339683
C56	C	1.814477	-0.079306	0.188990
C57	C	1.900016	-0.126294	0.112023
H58	H	1.819459	-0.136067	0.364669
H59	H	1.916616	-0.081386	0.364692
H60	H	1.730685	-0.087304	0.163992
H61	H	1.827832	-0.032628	0.163960
H62	H	1.983828	-0.118301	0.137032
H63	H	1.886664	-0.172979	0.137021
H64	H	1.887600	-0.119462	0.009771
H65	H	1.654261	0.008675	0.221675
H66	H	1.282908	-0.095058	-0.000100
H67	H	1.043295	0.346810	-0.000201
H68	H	0.714635	0.226294	-0.000208
C69	C	1.717718	-0.559523	0.000142
C70	C	1.725536	-0.518191	0.125495
C71	C	1.840927	-0.489504	0.125827
H72	H	1.723353	-0.531376	-0.084701
H73	H	1.785061	-0.596254	0.000205
H74	H	1.658212	-0.481466	0.125419
H75	H	1.719924	-0.546323	0.210358
H76	H	1.908270	-0.526234	0.125890
H77	H	1.846551	-0.461360	0.040979
H78	H	1.846252	-0.461462	0.210884
H79	H	1.189898	0.233309	-0.000147
C80	C	1.151427	-0.027782	-0.000358
C81	C	1.128874	-0.066575	-0.125701
C82	C	1.209642	-0.129166	-0.126007
H83	H	1.136317	-0.054287	0.084492
H84	H	1.236633	-0.017418	-0.000415
H85	H	1.043688	-0.076940	-0.125630
H86	H	1.143992	-0.040091	-0.210571
H87	H	1.294848	-0.118803	-0.126065
H88	H	1.194526	-0.155665	-0.041152
H89	H	1.194359	-0.155492	-0.211057
H90	H	1.694693	-0.255386	-0.000112
H91	H	1.654238	0.008639	0.778061
C92	C	1.248211	-0.235105	-0.000027
C93	C	1.270806	-0.308348	0.000008
C94	C	1.155521	-0.337147	0.000096
H95	H	1.201409	-0.220049	-0.084950
H96	H	1.201488	-0.220021	0.084958
H97	H	1.317508	-0.323426	-0.084967
H98	H	1.317588	-0.323423	0.084926
H99	H	1.108799	-0.322062	0.085080
H100	H	1.108728	-0.322086	-0.084829
H101	H	1.170836	-0.386844	0.000133
C102	C	1.240205	-0.527267	-0.000064
C103	C	1.138718	-0.567945	-0.000025
C104	C	1.025073	-0.523884	0.000078
H105	H	1.236020	-0.498509	-0.084984
H106	H	1.236133	-0.498550	0.084924
H107	H	1.142788	-0.596651	-0.085005
H108	H	1.142862	-0.596703	0.084888
H109	H	1.021002	-0.495166	0.085066
H110	H	1.020901	-0.495127	-0.084843
H111	H	0.956201	-0.551477	0.000118
H112	H	1.682922	-0.699475	-0.000197
C113	C	1.833045	-0.089475	0.659495
C114	C	1.908082	-0.130645	0.559528
C115	C	1.993912	-0.177719	0.635901
H116	H	1.788188	-0.118844	0.719319
H117	H	1.885242	-0.064107	0.719275
H118	H	1.855891	-0.156012	0.499773
H119	H	1.952967	-0.101296	0.499700
H120	H	2.046110	-0.152351	0.695681
H121	H	1.949044	-0.207083	0.695723
H122	H	2.044843	-0.205654	0.568085
C123	C	1.304062	0.200739	0.659708
C124	C	1.180729	0.188766	0.622455
C125	C	1.094843	0.235710	0.699056
H126	H	1.317264	0.247438	0.634638
H127	H	1.316249	0.193995	0.762021
H128	H	1.168547	0.195515	0.520165
H129	H	1.167487	0.142076	0.647529
H130	H	1.107030	0.228966	0.801369
H131	H	1.108057	0.282406	0.673981
H132	H	1.011153	0.227588	0.673802
H133	H	0.805665	0.343309	-0.000244
C134	C	1.304411	0.200944	0.340036
C135	C	1.324408	0.269660	0.377287
C136	C	1.238908	0.316824	0.300686
H137	H	1.220591	0.193022	0.365105
H138	H	1.316686	0.194255	0.237723
H139	H	1.312122	0.276346	0.479577
H140	H	1.408211	0.277604	0.352214
H141	H	1.251183	0.310135	0.198373
H142	H	1.155093	0.308895	0.325762
H143	H	1.252472	0.363452	0.325940
H144	H	1.267641	-0.671287	-0.000180
