data_functionalizedCrystal
_audit_creation_method	'MofGen! by Chris Wilmer'
_symmetry_space_group_name_H-M	'P1'
_symmetry_Int_Tables_number	1
_symmetry_cell_setting	triclinic
loop_
_symmetry_equiv_pos_as_xyz
  x,y,z
_cell_length_a	12.645331
_cell_length_b	29.839131
_cell_length_c	29.839125
_cell_angle_alpha	89.982291
_cell_angle_beta	89.992222
_cell_angle_gamma	90.041831
loop_
_atom_site_label
_atom_site_type_symbol
_atom_site_fract_x
_atom_site_fract_y
_atom_site_fract_z
Zn1	Zn	1.620449	-0.178911	-0.253955
Zn2	Zn	1.620289	-0.254023	-0.178825
Zn3	Zn	1.443196	-0.178909	-0.178843
Zn4	Zn	1.443072	-0.254016	-0.253932
O5	O	1.531752	-0.216465	-0.216389
O6	O	1.768775	-0.188880	-0.243991
O7	O	1.596782	-0.244062	-0.115960
O8	O	1.466827	-0.116042	-0.188824
O9	O	1.768658	-0.244064	-0.188793
O10	O	1.597055	-0.116044	-0.244008
O11	O	1.466672	-0.188875	-0.115973
O12	O	1.294832	-0.188868	-0.188802
O13	O	1.466617	-0.244051	-0.316802
O14	O	1.294741	-0.244048	-0.243969
O15	O	1.596935	-0.188872	-0.316819
O16	O	1.596662	-0.316890	-0.188771
O17	O	1.466462	-0.316884	-0.243951
C18	C	1.256322	-0.216457	-0.216385
C19	C	1.138492	-0.216465	-0.216394
C20	C	1.093588	-0.251238	-0.251049
C21	C	0.971028	-0.251381	-0.250946
C22	C	0.970546	-0.229097	-0.168990
C23	C	1.093144	-0.229343	-0.169190
C24	C	1.093387	-0.168985	-0.228730
C25	C	0.970781	-0.169247	-0.229773
C26	C	1.531560	-0.333187	-0.216366
C27	C	1.531575	-0.383122	-0.216372
C28	C	1.599670	-0.692756	-0.187698
C29	C	1.599801	-0.880429	-0.187715
O30	O	1.657546	-0.904685	-0.163319
N31	N	1.531971	-0.903907	-0.216422
C32	C	1.464109	-0.880464	-0.245129
O33	O	1.406426	-0.904740	-0.269550
C34	C	1.463984	-0.692792	-0.245114
C35	C	1.531811	-0.669316	-0.216402
C36	C	1.667492	-0.669280	-0.158988
C37	C	1.667455	-0.622364	-0.158983
C38	C	1.599595	-0.598925	-0.187686
C39	C	1.531773	-0.622401	-0.216396
C40	C	1.396128	-0.669350	-0.273823
C41	C	1.396105	-0.622429	-0.273817
C42	C	1.463931	-0.598953	-0.245105
C43	C	1.463877	-0.552046	-0.245094
N44	N	1.531706	-0.528567	-0.216387
C45	C	1.599566	-0.552007	-0.187683
C46	C	1.464178	-0.978995	-0.245135
C47	C	1.464207	-1.025912	-0.245138
C48	C	1.599901	-1.025874	-0.187725
C49	C	1.599865	-0.978955	-0.187719
C50	C	1.532008	-0.955516	-0.216428
C51	C	1.599481	-0.453481	-0.187673
C52	C	1.599435	-0.406561	-0.187668
C53	C	1.463745	-0.406604	-0.245083
C54	C	1.463787	-0.453520	-0.245086
C55	C	1.531664	-0.476957	-0.216379
O56	O	1.406170	-0.527760	-0.269481
O57	O	1.657256	-0.527723	-0.163273
C58	C	1.599708	-0.739671	-0.187704
C59	C	1.531886	-0.763147	-0.216413
C60	C	1.464026	-0.739707	-0.245117
C61	C	1.531915	-0.810065	-0.216417
C62	C	1.599775	-0.833504	-0.187713
C63	C	1.667605	-0.810026	-0.159006
C64	C	1.667567	-0.763111	-0.159000
C65	C	1.396197	-0.763186	-0.273824
C66	C	1.396239	-0.810101	-0.273827
C67	C	1.464098	-0.833541	-0.245123
C68	C	1.808257	-0.216473	-0.216392
C69	C	1.926087	-0.216476	-0.216394
C70	C	1.531780	-0.216461	-0.333567
C71	C	1.531792	-0.216459	-0.383501
C72	C	1.531973	-0.099286	-0.216421
C73	C	1.532067	-0.049352	-0.216435
C74	C	1.599721	-0.187652	-0.693157
C75	C	1.599773	-0.187614	-0.880830
O76	O	1.657449	-0.163164	-0.905105
N77	N	1.531933	-0.216339	-0.904287
C78	C	1.464070	-0.245073	-0.880822
O79	O	1.406362	-0.269501	-0.905080
C80	C	1.464013	-0.245109	-0.693150
C81	C	1.531865	-0.216385	-0.669696
C82	C	1.667566	-0.158931	-0.669702
C83	C	1.667556	-0.158942	-0.622787
C84	C	1.599701	-0.187675	-0.599326
C85	C	1.531855	-0.216397	-0.622780
C86	C	1.396146	-0.273841	-0.669687
C87	C	1.396135	-0.273846	-0.622766
C88	C	1.463987	-0.245123	-0.599311
C89	C	1.463990	-0.245142	-0.552404
N90	N	1.531830	-0.216417	-0.528947
C91	C	1.599686	-0.187684	-0.552408
C92	C	1.464106	-0.245053	-0.979353
C93	C	1.464122	-0.245045	-1.026271
C94	C	1.599824	-0.187585	-1.026275
C95	C	1.599813	-0.187596	-0.979356
C96	C	1.531946	-0.216328	-0.955896
C97	C	1.599661	-0.187711	-0.453882
C98	C	1.599648	-0.187726	-0.406962
C99	C	1.463943	-0.245184	-0.406962
C100	C	1.463959	-0.245170	-0.453878
C101	C	1.531821	-0.216430	-0.477337
O102	O	1.406336	-0.269575	-0.528100
O103	O	1.657369	-0.163252	-0.528142
C104	C	1.599730	-0.187641	-0.740072
C105	C	1.531885	-0.216362	-0.763527
C106	C	1.464029	-0.245095	-0.740066
C107	C	1.531900	-0.216354	-0.810445
C108	C	1.599755	-0.187621	-0.833906
C109	C	1.667595	-0.158896	-0.810449
C110	C	1.667586	-0.158908	-0.763533
C111	C	1.396189	-0.273820	-0.763522
C112	C	1.396205	-0.273806	-0.810438
C113	C	1.464061	-0.245073	-0.833899
C114	C	1.531784	-0.216436	-0.099666
C115	C	1.531977	-0.216312	-0.049732
H116	H	1.124335	-0.286221	-0.242964
H117	H	1.654905	-0.164335	-0.387868
Cl118	Cl	1.378782	-0.281179	-0.949867
Cl119	Cl	1.378835	-0.281163	-1.055751
H120	H	1.722798	-0.744000	-0.135620
Cl121	Cl	0.923547	-0.127136	-0.193680
Cl122	Cl	1.378640	-0.281302	-0.377460
H123	H	1.121679	-0.264043	-0.158765
H124	H	1.408966	-1.045023	-0.268514
Cl125	Cl	0.925925	-0.154545	-0.283636
Cl126	Cl	1.141171	-0.151177	-0.281201
Cl127	Cl	0.925646	-0.305709	-0.238323
Cl128	Cl	1.310843	-0.309954	-0.699161
H129	H	1.122431	-0.143079	-0.203491
H130	H	1.655075	-0.164189	-1.045385
Cl131	Cl	1.310961	-0.839608	-0.309926
H132	H	1.340858	-0.297239	-0.603667
Cl133	Cl	1.685113	-0.151484	-0.949876
H134	H	1.122849	-0.205097	-0.142483
Cl135	Cl	1.378447	-0.377129	-0.281168
Cl136	Cl	0.925609	-0.191195	-0.128027
H137	H	0.940968	-0.243509	-0.286090
Cl138	Cl	1.684709	-0.377052	-0.151570
H139	H	1.722855	-0.829119	-0.135633
H140	H	1.408718	-0.268564	-0.472975
Cl141	Cl	1.752901	-0.122776	-0.839952
Cl142	Cl	1.378497	-0.483033	-0.281173
H143	H	0.939787	-0.263421	-0.158387
Cl144	Cl	1.684811	-0.482938	-0.151583
Cl145	Cl	1.310878	-0.733726	-0.309913
H146	H	1.722688	-0.603253	-0.135604
H147	H	1.340954	-0.297201	-0.829531
Cl148	Cl	1.752813	-0.698738	-0.122899
Cl149	Cl	1.310867	-0.698851	-0.309926
H150	H	1.722822	-0.135530	-0.688799
H151	H	1.655155	-1.044966	-0.164353
Cl152	Cl	1.310794	-0.592966	-0.309911
Cl153	Cl	1.752888	-0.122795	-0.734055
Cl154	Cl	1.310876	-0.309945	-0.734036
Cl155	Cl	1.685138	-0.949448	-0.151623
Cl156	Cl	1.378859	-0.949535	-0.281228
H157	H	1.722807	-0.135552	-0.603694
Cl158	Cl	1.139184	-0.239238	-0.305477
Cl159	Cl	1.684970	-0.151577	-0.483366
