data_functionalizedCrystal
_audit_creation_method	'MofGen! by Chris Wilmer'
_symmetry_space_group_name_H-M	'P1'
_symmetry_Int_Tables_number	1
_symmetry_cell_setting	triclinic
loop_
_symmetry_equiv_pos_as_xyz
  x,y,z
_cell_length_a	17.699097
_cell_length_b	10.967829
_cell_length_c	16.176319
_cell_angle_alpha	77.865348
_cell_angle_beta	89.988988
_cell_angle_gamma	84.014498
loop_
_atom_site_label
_atom_site_type_symbol
_atom_site_fract_x
_atom_site_fract_y
_atom_site_fract_z
O1	O	1.005071	0.157880	-0.091305
O2	O	1.505071	0.657880	0.408695
O3	O	0.784823	0.178392	-0.094214
O4	O	1.284823	0.678392	0.405786
O5	O	0.900025	-0.013531	-0.066876
O6	O	1.400025	0.486469	0.433124
O7	O	0.889869	0.349803	-0.118642
O8	O	1.389869	0.849803	0.381358
O9	O	0.900009	-0.013543	0.070619
O10	O	1.400009	0.486457	0.570619
O11	O	0.784807	0.178380	0.043281
O12	O	1.284807	0.678380	0.543281
O13	O	1.005055	0.157867	0.046190
O14	O	1.505055	0.657867	0.546190
Cu15	Cu	0.894929	0.168123	0.057290
Cu16	Cu	1.394929	0.668123	0.557290
Cu17	Cu	0.894948	0.168137	-0.105314
Cu18	Cu	1.394948	0.668137	0.394686
O19	O	0.889853	0.349791	0.018853
O20	O	1.389853	0.849791	0.518853
C21	C	0.756614	0.177648	-0.025359
C22	C	1.256614	0.677648	0.474641
C23	C	0.672582	0.175435	-0.025039
C24	C	1.172582	0.675435	0.474961
C25	C	0.156787	0.161874	-0.098087
C26	C	0.656787	0.661874	0.401913
C27	C	0.235744	0.163945	-0.098378
C28	C	0.735744	0.663945	0.401622
C29	C	0.275208	0.164976	-0.023574
C30	C	0.775208	0.664976	0.476426
C31	C	0.235711	0.163923	0.051527
C32	C	0.735711	0.663923	0.551527
C33	C	0.156756	0.161843	0.051819
C34	C	0.656756	0.661843	0.551819
C35	C	0.554128	0.172311	0.050354
C36	C	1.054128	0.672311	0.550354
C37	C	0.633089	0.174395	0.050056
C38	C	1.133089	0.674395	0.550056
C39	C	0.633116	0.174413	-0.099843
C40	C	1.133116	0.674413	0.400157
C41	C	0.554161	0.172333	-0.099552
C42	C	1.054161	0.672333	0.400448
C43	C	0.514672	0.171273	-0.024450
C44	C	1.014672	0.671273	0.475550
C45	C	0.429058	0.169025	-0.024135
C46	C	0.929058	0.669025	0.475865
C47	C	0.360820	0.167233	-0.023890
C48	C	0.860820	0.667233	0.476110
C49	C	0.899276	-0.060025	0.008493
C50	C	1.399276	0.439975	0.508493
C51	C	0.897062	-0.198544	0.028224
C52	C	1.397062	0.301456	0.528224
C53	C	0.896083	-0.260288	-0.034207
C54	C	1.396083	0.239712	0.465793
C55	C	0.893795	-0.403455	-0.013815
C56	C	1.393795	0.096545	0.486185
C57	C	1.033264	0.158611	-0.022666
C58	C	1.533264	0.658611	0.477334
C59	C	1.117296	0.160825	-0.022992
C60	C	1.617296	0.660825	0.477008
C61	C	0.890601	0.396285	-0.056519
C62	C	1.390601	0.896285	0.443481
C63	C	0.892816	0.534804	-0.076255
C64	C	1.392816	1.034804	0.423745
N65	N	0.894922	0.168112	0.171657
N66	N	1.394922	0.668112	0.671657
N67	N	0.894962	0.168138	-0.219679
N68	N	1.394962	0.668138	0.280321
C69	C	0.945948	0.083163	0.227021
C70	C	1.445948	0.583163	0.727021
C71	C	0.945952	0.083161	0.313568
C72	C	1.445952	0.583161	0.813568
C73	C	0.894932	0.168116	0.344749
C74	C	1.394932	0.668116	0.844749
C75	C	0.843900	0.253069	0.289378
C76	C	1.343900	0.753069	0.789378
C77	C	0.843893	0.253063	0.202833
C78	C	1.343893	0.753063	0.702833
C79	C	0.843926	0.253092	0.638403
C80	C	1.343926	0.753092	1.138403
C81	C	0.843938	0.253094	0.724954
C82	C	1.343938	0.753094	1.224954
C83	C	0.945985	0.083191	0.749138
C84	C	1.445985	0.583191	1.249138
C85	C	0.945978	0.083185	0.662593
C86	C	1.445978	0.583185	1.162593
C87	C	0.894944	0.168133	0.607231
C88	C	1.394944	0.668133	1.107231
C89	C	0.894939	0.168132	0.513387
C90	C	1.394939	0.668132	1.013387
C91	C	0.894940	0.168124	0.438590
C92	C	1.394940	0.668124	0.938590
H93	H	0.665278	0.175270	-0.160994
H94	H	1.165278	0.675270	0.339006
H95	H	0.892934	-0.456579	0.054735
H96	H	1.392934	0.043421	0.554735
H97	H	0.896201	-0.251673	0.096769
H98	H	1.396201	0.248327	0.596769
H99	H	0.893663	-0.412071	-0.144805
H100	H	1.393663	0.087929	0.355195
Br101	Br	0.103236	0.160489	-0.199615
Br102	Br	0.603236	0.660489	0.300385
H103	H	0.987498	0.013988	0.201640
H104	H	1.487498	0.513988	0.701640
H105	H	0.522033	0.171500	-0.160466
H106	H	1.022033	0.671500	0.339534
Br107	Br	1.015201	-0.032132	0.388709
Br108	Br	1.515201	0.467868	0.888709
H109	H	0.896936	-0.207158	-0.102752
H110	H	1.396936	0.292842	0.397248
H111	H	0.521987	0.171430	0.111509
H112	H	1.021987	0.671430	0.611509
Br113	Br	1.015225	-0.032107	0.620279
Br114	Br	1.515225	0.467893	1.120279
H115	H	0.665218	0.175234	0.110975
H116	H	1.165218	0.675234	0.610975
Br117	Br	0.774693	0.368398	0.767270
Br118	Br	1.274693	0.868398	1.267270
Br119	Br	0.289269	0.165316	0.153050
Br120	Br	0.789269	0.665316	0.653050
H121	H	0.124602	0.161002	0.112967
H122	H	0.624602	0.661002	0.612967
H123	H	0.987538	0.014017	0.794225
H124	H	1.487538	0.514017	1.294225
H125	H	0.802373	0.322262	0.593333
H126	H	1.302373	0.822262	1.093333
Br127	Br	0.774651	0.368359	0.331692
Br128	Br	1.274651	0.868359	0.831692
H129	H	0.267895	0.164792	-0.159528
H130	H	0.767895	0.664792	0.340472
Br131	Br	0.774634	0.368348	0.127696
Br132	Br	1.274634	0.868348	0.627696
