data_functionalizedCrystal
_audit_creation_method	'MofGen! by Chris Wilmer'
_symmetry_space_group_name_H-M	'P1'
_symmetry_Int_Tables_number	1
_symmetry_cell_setting	triclinic
loop_
_symmetry_equiv_pos_as_xyz
  x,y,z
_cell_length_a	6.817900
_cell_length_b	14.858329
_cell_length_c	14.125465
_cell_angle_alpha	95.625660
_cell_angle_beta	100.398878
_cell_angle_gamma	104.519616
loop_
_atom_site_label
_atom_site_type_symbol
_atom_site_fract_x
_atom_site_fract_y
_atom_site_fract_z
V1	V	-3.996446	-0.127871	-0.300249
V2	V	-3.496446	0.372129	0.199751
O3	O	-3.979229	0.006967	-0.294251
O4	O	-3.479229	0.506967	0.205749
O5	O	-3.953274	-0.254337	-0.298467
O6	O	-3.453274	0.245663	0.201533
O7	O	-3.932494	-0.125543	-0.431074
O8	O	-3.432494	0.374457	0.068926
O9	O	-4.000152	-0.122719	-0.160726
O10	O	-3.500152	0.377281	0.339274
V11	V	-4.481411	-0.111785	-0.283528
V12	V	-3.981411	0.388215	0.216472
O13	O	-4.254540	-0.163156	-0.336928
O14	O	-3.754540	0.336844	0.163072
O15	O	-4.673514	-0.076500	-0.246849
O16	O	-4.173514	0.423500	0.253151
O17	O	-4.301376	0.014681	-0.285310
O18	O	-3.801376	0.514681	0.214690
O19	O	-4.616025	-0.246623	-0.289526
O20	O	-4.116025	0.253377	0.210474
O21	O	-4.595101	-0.116938	-0.423051
O22	O	-4.095101	0.383062	0.076949
O23	O	-4.322156	-0.114113	-0.152703
O24	O	-3.822156	0.385887	0.347297
C25	C	-3.800050	-0.285178	-0.293800
C26	C	-3.300050	0.214822	0.206200
C27	C	-3.845936	-0.388563	-0.293215
C28	C	-3.345936	0.111437	0.206785
C29	C	-3.883195	-0.472522	-0.292731
C30	C	-3.383195	0.027478	0.207269
C31	C	-3.929957	-0.577854	-0.292128
C32	C	-3.429957	-0.077854	0.207872
C33	C	-3.967243	-0.661807	-0.291649
C34	C	-3.467243	-0.161807	0.208351
C35	C	-4.014008	-0.767145	-0.291045
C36	C	-3.514008	-0.267145	0.208955
C37	C	-3.773542	-0.120887	-0.462953
C38	C	-3.273542	0.379113	0.037047
C39	C	-3.802573	-0.119821	-0.569905
C40	C	-3.302573	0.380179	-0.069905
C41	C	-3.855785	-0.117866	-0.765724
C42	C	-3.355785	0.382134	-0.265724
C43	C	-4.041440	-0.121788	-0.818053
C44	C	-3.541440	0.378212	-0.318053
C45	C	-4.071050	-0.120700	-0.927014
C46	C	-3.571050	0.379300	-0.427014
C47	C	-3.826168	-0.118954	-0.656753
C48	C	-3.326168	0.381046	-0.156753
C49	C	-4.117942	0.045517	-0.289974
C50	C	-3.617942	0.545517	0.210026
C51	C	-4.051294	0.148901	-0.290565
C52	C	-3.551294	0.648901	0.209435
C53	C	-4.144450	-0.118772	-0.120819
C54	C	-3.644450	0.381228	0.379181
C55	C	-4.094658	-0.119833	-0.013866
C56	C	-3.594658	0.380167	0.486134
H57	H	-4.178151	-0.125973	-0.781024
H58	H	-3.678151	0.374027	-0.281024
H59	H	-3.719091	-0.113692	-0.802752
H60	H	-3.219091	0.386308	-0.302752
