data_functionalizedCrystal
_audit_creation_method	'MofGen! by Chris Wilmer'
_symmetry_space_group_name_H-M	'P1'
_symmetry_Int_Tables_number	1
_symmetry_cell_setting	triclinic
loop_
_symmetry_equiv_pos_as_xyz
  x,y,z
_cell_length_a	18.050591
_cell_length_b	18.050590
_cell_length_c	18.050583
_cell_angle_alpha	89.962959
_cell_angle_beta	89.977979
_cell_angle_gamma	90.014558
loop_
_atom_site_label
_atom_site_type_symbol
_atom_site_fract_x
_atom_site_fract_y
_atom_site_fract_z
Zn1	Zn	1.135351	-0.295685	-0.420028
Zn2	Zn	1.135280	-0.419898	-0.295836
Zn3	Zn	1.011167	-0.295718	-0.295839
Zn4	Zn	1.011139	-0.419829	-0.419971
O5	O	1.073234	-0.357783	-0.357918
O6	O	1.239266	-0.312178	-0.403576
O7	O	1.118798	-0.403468	-0.191912
O8	O	1.027682	-0.191789	-0.312337
O9	O	1.239214	-0.403436	-0.312332
O10	O	1.118919	-0.191765	-0.403578
O11	O	1.027614	-0.312233	-0.191914
O12	O	0.907239	-0.312166	-0.312283
O13	O	1.027633	-0.403319	-0.523903
O14	O	0.907218	-0.403350	-0.403483
O15	O	1.118891	-0.312111	-0.523945
O16	O	1.118771	-0.523814	-0.312278
O17	O	1.027565	-0.523763	-0.403480
C18	C	0.880282	-0.357755	-0.357877
C19	C	0.797736	-0.357761	-0.357877
C20	C	0.598275	-0.308118	-0.308397
C21	C	0.548867	-0.375858	-0.290120
C22	C	0.646606	-0.357784	-0.357911
C23	C	0.548933	-0.290067	-0.376186
C24	C	0.500621	-0.357799	-0.357942
C25	C	0.598284	-0.425559	-0.339599
C26	C	0.598355	-0.339723	-0.425696
C27	C	0.548968	-0.407510	-0.407445
C28	C	0.730704	-0.357774	-0.357891
C29	C	0.416524	-0.357817	-0.357962
C30	C	1.073177	-0.550735	-0.357889
C31	C	1.073220	-0.633281	-0.357901
C32	C	1.122921	-0.832732	-0.308375
C33	C	1.141058	-0.882055	-0.376157
C34	C	1.073263	-0.784411	-0.357931
C35	C	1.055201	-0.882169	-0.290179
C36	C	1.073305	-0.930396	-0.357953
C37	C	1.091434	-0.832647	-0.425748
C38	C	1.005546	-0.832756	-0.339725
C39	C	1.023657	-0.882058	-0.407554
C40	C	1.073240	-0.700313	-0.357916
C41	C	1.073327	-1.014493	-0.357975
C42	C	1.266940	-0.357811	-0.357960
C43	C	1.349485	-0.357823	-0.357978
C44	C	1.073267	-0.357703	-0.551624
C45	C	1.073281	-0.357670	-0.634170
C46	C	1.073312	-0.164077	-0.357964
C47	C	1.073345	-0.081531	-0.357984
C48	C	1.122957	-0.308047	-0.833643
C49	C	1.055220	-0.289866	-0.883031
C50	C	1.073311	-0.357657	-0.785300
C51	C	1.141075	-0.375791	-0.882994
C52	C	1.073345	-0.357643	-0.931285
C53	C	1.005538	-0.339441	-0.833601
C54	C	1.091438	-0.425397	-0.833560
C55	C	1.023655	-0.407242	-0.882925
C56	C	1.073292	-0.357663	-0.701202
C57	C	1.073357	-0.357637	-1.015382
C58	C	1.073244	-0.357808	-0.164966
C59	C	1.073374	-0.357633	-0.082421
H60	H	1.164930	-0.811072	-0.266510
O61	O	1.036820	-0.908081	-0.221836
C62	C	0.965901	-0.881870	-0.202236
H63	H	0.933691	-0.867217	-0.254541
H64	H	0.971726	-0.830469	-0.166033
C65	C	0.963636	-0.960461	-0.094831
C66	C	0.924073	-0.942471	-0.159073
H67	H	0.937835	-0.997841	-0.068203
H68	H	1.011417	-0.978119	-0.108034
H69	H	0.968488	-0.917622	-0.064671
H70	H	0.919230	-0.985307	-0.189235
H71	H	0.876290	-0.924822	-0.145873
O72	O	0.522837	-0.394183	-0.221810
C73	C	0.479835	-0.459203	-0.226842
H74	H	0.496762	-0.491656	-0.278292
H75	H	0.418722	-0.443784	-0.230829
C76	C	0.471758	-0.467357	-0.094264
C77	C	0.492553	-0.507220	-0.157452
H78	H	0.479600	-0.496975	-0.051460
H79	H	0.500727	-0.423551	-0.090873
H80	H	0.420832	-0.454510	-0.097596
H81	H	0.543480	-0.520058	-0.154124
H82	H	0.463593	-0.551030	-0.160841
H83	H	1.164872	-0.266067	-0.812001
H84	H	1.039898	-0.232573	-0.904762
O85	O	1.209451	-0.907766	-0.394522
C86	C	1.257553	-0.847431	-0.406768
H87	H	1.235684	-0.796596	-0.376369
H88	H	1.260720	-0.835190	-0.468657
C89	C	1.362217	-0.929164	-0.414944
C90	C	1.335361	-0.866729	-0.377602
H91	H	1.410214	-0.941068	-0.396957
H92	H	1.329811	-0.969814	-0.406697
H93	H	1.364851	-0.918955	-0.466516
H94	H	1.332719	-0.876942	-0.326033
H95	H	1.367770	-0.826082	-0.385840
H96	H	0.619872	-0.482850	-0.324091
H97	H	1.106781	-0.482674	-0.811815
H98	H	0.981680	-0.903580	-0.449520
O99	O	0.937220	-0.321034	-0.807709
C100	C	0.938030	-0.321252	-0.729603
H101	H	0.997208	-0.313002	-0.709171
H102	H	0.915946	-0.376526	-0.708424
C103	C	0.816119	-0.268102	-0.725588
C104	C	0.888803	-0.257962	-0.700493
H105	H	0.785752	-0.229064	-0.707631
H106	H	0.815572	-0.267957	-0.778209
H107	H	0.797727	-0.314165	-0.707937
H108	H	0.907198	-0.211904	-0.718152
H109	H	0.889352	-0.258098	-0.647874
H110	H	0.981637	-0.449190	-0.904428
O111	O	0.523172	-0.457621	-0.457407
C112	C	0.445068	-0.456670	-0.457293
H113	H	0.424732	-0.401084	-0.435306
H114	H	0.423469	-0.503124	-0.420309
C115	C	0.441372	-0.536237	-0.563832
C116	C	0.416396	-0.467963	-0.536833
H117	H	0.423685	-0.543207	-0.612895
H118	H	0.493992	-0.536881	-0.563908
H119	H	0.423371	-0.574942	-0.533005
H120	H	0.434404	-0.429260	-0.567654
H121	H	0.363778	-0.467314	-0.536764
O122	O	1.209386	-0.394060	-0.909003
C123	C	1.208280	-0.394474	-0.987103
H124	H	1.161001	-0.358019	-1.007684
H125	H	1.199803	-0.453566	-1.007691
C126	C	1.340460	-0.409124	-0.991529
C127	C	1.282395	-0.364344	-1.016806
H128	H	1.386178	-0.390542	-1.009852
H129	H	1.341205	-0.408848	-0.938911
H130	H	1.333386	-0.458364	-1.008687
H131	H	1.289465	-0.315108	-0.999640
H132	H	1.281652	-0.364611	-1.069422
O133	O	0.624352	-0.321592	-0.494066
C134	C	0.667327	-0.380495	-0.522034
H135	H	0.650422	-0.434271	-0.493508
H136	H	0.728450	-0.369089	-0.510965
C137	C	0.675303	-0.321556	-0.641110
C138	C	0.654535	-0.387606	-0.606078
H139	H	0.667415	-0.325941	-0.692953
H140	H	0.646352	-0.281870	-0.622267
H141	H	0.726237	-0.312058	-0.631878
H142	H	0.603600	-0.397098	-0.615303
H143	H	0.683477	-0.427294	-0.624925
O144	O	0.937192	-0.807019	-0.321271
C145	C	0.889414	-0.867330	-0.307706
H146	H	0.923549	-0.918207	-0.292388
H147	H	0.855632	-0.879493	-0.359647
C148	C	0.794822	-0.785568	-0.262228
C149	C	0.836747	-0.848054	-0.243408
H150	H	0.762331	-0.773677	-0.222569
H151	H	0.827009	-0.744934	-0.271370
H152	H	0.766677	-0.795711	-0.305513
H153	H	0.864897	-0.837907	-0.200129
H154	H	0.804562	-0.888686	-0.234257
O155	O	0.523033	-0.221721	-0.394487
C156	C	0.478934	-0.194168	-0.336207
H157	H	0.494978	-0.222861	-0.282272
H158	H	0.418058	-0.205419	-0.348700
C159	C	0.471617	-0.074871	-0.394769
C160	C	0.491327	-0.110108	-0.328524
H161	H	0.479259	-0.023019	-0.390031
H162	H	0.501325	-0.093435	-0.434035
H163	H	0.420888	-0.084255	-0.405173
H164	H	0.542057	-0.100732	-0.318126
H165	H	0.461628	-0.091541	-0.289255
O166	O	0.624074	-0.258147	-0.258293
C167	C	0.598838	-0.277470	-0.186918
H168	H	0.584977	-0.339071	-0.185408
H169	H	0.547149	-0.243937	-0.173066
C170	C	0.676843	-0.185001	-0.131557
C171	C	0.659824	-0.260662	-0.129701
H172	H	0.714460	-0.174630	-0.096261
H173	H	0.693843	-0.171980	-0.179643
H174	H	0.633764	-0.157066	-0.120015
H175	H	0.702901	-0.288595	-0.141251
H176	H	0.642833	-0.273687	-0.081614
O177	O	1.109784	-0.806690	-0.494082
C178	C	1.109552	-0.728585	-0.493241
H179	H	1.117843	-0.708184	-0.434066
H180	H	1.054257	-0.707452	-0.515239
C181	C	1.162609	-0.724432	-0.615224
C182	C	1.172799	-0.699375	-0.542545
H183	H	1.201620	-0.706413	-0.645639
H184	H	1.162763	-0.777053	-0.615792
H185	H	1.116528	-0.706819	-0.633545
H186	H	1.218874	-0.716996	-0.524222
H187	H	1.172654	-0.646756	-0.541975
