data_functionalizedCrystal
_audit_creation_method	'MofGen! by Chris Wilmer'
_symmetry_space_group_name_H-M	'P1'
_symmetry_Int_Tables_number	1
_symmetry_cell_setting	triclinic
loop_
_symmetry_equiv_pos_as_xyz
  x,y,z
_cell_length_a	23.532355
_cell_length_b	22.010155
_cell_length_c	15.995350
_cell_angle_alpha	90.006484
_cell_angle_beta	96.840064
_cell_angle_gamma	90.002586
loop_
_atom_site_label
_atom_site_type_symbol
_atom_site_fract_x
_atom_site_fract_y
_atom_site_fract_z
O1	O	0.755673	0.050440	-0.101423
O2	O	1.255673	0.550440	0.398577
O3	O	0.589862	0.050459	-0.116175
O4	O	1.089862	0.550459	0.383825
O5	O	0.677300	0.050448	0.013128
O6	O	1.177300	0.550448	0.513128
O7	O	0.668235	0.050450	-0.230725
O8	O	1.168235	0.550450	0.269275
O9	O	0.677284	-0.050602	0.013108
O10	O	1.177284	0.449398	0.513108
O11	O	0.589846	-0.050592	-0.116194
O12	O	1.089846	0.449408	0.383806
O13	O	0.755657	-0.050611	-0.101442
O14	O	1.255657	0.449389	0.398558
Cu15	Cu	0.672750	-0.059828	-0.108820
Cu16	Cu	1.172750	0.440172	0.391180
Cu17	Cu	0.672769	0.059676	-0.108797
Cu18	Cu	1.172769	0.559676	0.391203
O19	O	0.668219	-0.050600	-0.230745
O20	O	1.168219	0.449400	0.269255
C21	C	0.568636	-0.000064	-0.115816
C22	C	1.068636	0.499936	0.384184
C23	C	0.505414	-0.000057	-0.114707
C24	C	1.005414	0.499943	0.385293
C25	C	0.113364	-0.055165	-0.107752
C26	C	0.613364	0.444835	0.392248
C27	C	0.053961	-0.055167	-0.106697
C28	C	0.553961	0.444833	0.393303
O29	O	0.023233	-0.102012	-0.106132
O30	O	0.523233	0.397988	0.393868
N31	N	0.024259	-0.000085	-0.106163
N32	N	0.524259	0.499915	0.393837
C33	C	0.053964	0.055004	-0.106676
C34	C	0.553964	0.555004	0.393324
O35	O	0.023246	0.101855	-0.106125
O36	O	0.523246	0.601855	0.393875
C37	C	0.113367	0.055005	-0.107725
C38	C	0.613367	0.555005	0.392275
C39	C	0.143065	-0.000081	-0.108267
C40	C	0.643065	0.499919	0.391733
C41	C	0.143062	-0.110246	-0.108293
C42	C	0.643062	0.389754	0.391707
C43	C	0.202462	-0.110244	-0.109349
C44	C	0.702462	0.389756	0.390651
C45	C	0.232163	-0.055160	-0.109864
C46	C	0.732163	0.444840	0.390136
C47	C	0.202465	-0.000078	-0.109323
C48	C	0.702465	0.499922	0.390677
C49	C	0.143072	0.110093	-0.108231
C50	C	0.643072	0.610093	0.391769
C51	C	0.202479	0.110090	-0.109280
C52	C	0.702479	0.610090	0.390720
C53	C	0.232177	0.055004	-0.109822
C54	C	0.732177	0.555004	0.390178
C55	C	0.291565	0.055009	-0.110895
C56	C	0.791565	0.555009	0.389105
N57	N	0.321267	-0.000074	-0.111428
N58	N	0.821267	0.499926	0.388572
C59	C	0.291566	-0.055158	-0.110913
C60	C	0.791566	0.444842	0.389087
C61	C	-0.070786	0.054996	-0.104472
C62	C	0.429214	0.554996	0.395528
C63	C	-0.130188	0.054995	-0.103429
C64	C	0.369812	0.554995	0.396571
C65	C	-0.130187	-0.055176	-0.103449
C66	C	0.369813	0.444824	0.396551
C67	C	-0.070784	-0.055175	-0.104498
C68	C	0.429216	0.444825	0.395502
C69	C	-0.041084	-0.000087	-0.105006
C70	C	0.458916	0.499913	0.394994
C71	C	0.416308	-0.055148	-0.113132
C72	C	0.916308	0.444852	0.386868
C73	C	0.475712	-0.055141	-0.114192
C74	C	0.975712	0.444859	0.385808
C75	C	0.475707	0.055030	-0.114168
C76	C	0.975707	0.555030	0.385832
C77	C	0.416308	0.055023	-0.113113
C78	C	0.916308	0.555023	0.386887
C79	C	0.386610	-0.000071	-0.112592
C80	C	0.886610	0.499929	0.387408
O81	O	0.322331	0.101830	-0.111457
O82	O	0.822331	0.601830	0.388543
O83	O	0.322292	-0.102002	-0.111454
O84	O	0.822292	0.397998	0.388546
N85	N	0.672741	-0.143880	-0.108835
N86	N	1.172741	0.356120	0.391165
C87	C	0.711489	-0.563664	-0.051550
C88	C	1.211489	-0.063664	0.448450
C89	C	0.711492	-0.627272	-0.051544
C90	C	1.211492	-0.127272	0.448456
O91	O	0.744413	-0.660167	-0.002849
O92	O	1.244413	-0.160167	0.497151
N93	N	0.672769	-0.659087	-0.108779
N94	N	1.172769	-0.159087	0.391221
C95	C	0.634037	-0.627292	-0.166019
C96	C	1.134037	-0.127292	0.333981
O97	O	0.601100	-0.660194	-0.214701
O98	O	1.101100	-0.160194	0.285299
C99	C	0.634032	-0.563686	-0.166020
C100	C	1.134032	-0.063686	0.333980
C101	C	0.672761	-0.531873	-0.108786
C102	C	1.172761	-0.031873	0.391214
C103	C	0.750215	-0.531852	0.005680
C104	C	1.250215	-0.031852	0.505680
C105	C	0.750213	-0.468249	0.005673
C106	C	1.250213	0.031751	0.505673
C107	C	0.711485	-0.436458	-0.051564
C108	C	1.211485	0.063542	0.448436
C109	C	0.672759	-0.468270	-0.108793
C110	C	1.172759	0.031730	0.391207
C111	C	0.595298	-0.531891	-0.223254
C112	C	1.095298	-0.031891	0.276746
C113	C	0.595296	-0.468280	-0.223250
C114	C	1.095296	0.031720	0.276750
C115	C	0.634025	-0.436468	-0.166017
C116	C	1.134025	0.063532	0.333983
C117	C	0.634030	-0.372876	-0.166037
C118	C	1.134030	0.127124	0.333963
N119	N	0.672752	-0.341060	-0.108801
N120	N	1.172752	0.158940	0.391199
C121	C	0.711480	-0.372851	-0.051565
C122	C	1.211480	0.127149	0.448435
C123	C	0.634050	-0.760870	-0.166011
C124	C	1.134050	-0.260870	0.333989
C125	C	0.634057	-0.824475	-0.166015
C126	C	1.134057	-0.324475	0.333985
C127	C	0.711511	-0.824451	-0.051539
C128	C	1.211511	-0.324451	0.448461
C129	C	0.711506	-0.760844	-0.051540
C130	C	1.211506	-0.260844	0.448460
C131	C	0.672772	-0.729054	-0.108776
C132	C	1.172772	-0.229054	0.391224
C133	C	0.711473	-0.239280	-0.051585
C134	C	1.211473	0.260720	0.448415
C135	C	0.711469	-0.175671	-0.051599
C136	C	1.211469	0.324329	0.448401
C137	C	0.634013	-0.175701	-0.166071
C138	C	1.134013	0.324299	0.333929
C139	C	0.634019	-0.239305	-0.166060
C140	C	1.134019	0.260695	0.333940
C141	C	0.672751	-0.271092	-0.108810
C142	C	1.172751	0.228908	0.391190
O143	O	0.601123	-0.339940	-0.214705
O144	O	1.101123	0.160060	0.285295
O145	O	0.744406	-0.339942	-0.002884
O146	O	1.244406	0.160058	0.497116
C147	C	0.776883	-0.000087	-0.101801
C148	C	1.276883	0.499913	0.398199
C149	C	0.840106	-0.000090	-0.102910
C150	C	1.340106	0.499910	0.397090
C151	C	0.676918	-0.000076	0.044310
C152	C	1.176918	0.499924	0.544310
C153	C	0.675794	-0.000072	0.137250
C154	C	1.175794	0.499928	0.637250
N155	N	0.672783	0.143728	-0.108775
N156	N	1.172783	0.643728	0.391225
C157	C	0.668602	-0.000075	-0.261926
C158	C	1.168602	0.499925	0.238074
C159	C	0.669726	-0.000074	-0.354867
C160	C	1.169726	0.499926	0.145133
C161	C	0.671759	-0.000074	0.474963
C162	C	1.171759	0.499926	0.974963
C163	C	0.609487	0.000160	0.426994
C164	C	1.109487	0.500160	0.926994
C165	C	0.610611	-0.000068	0.330314
C166	C	1.110611	0.499932	0.830314
C167	C	0.673761	-0.000073	0.307420
C168	C	1.173761	0.499927	0.807420
C169	C	0.704466	-0.057780	0.348750
C170	C	1.204466	0.442220	0.848750
C171	C	0.702902	-0.057828	0.445373
C172	C	1.202902	0.442172	0.945373
C173	C	0.704206	0.057085	0.445764
C174	C	1.204206	0.557085	0.945764
C175	C	0.704192	0.057848	0.348818
C176	C	1.204192	0.557848	0.848818
C177	C	0.674895	-0.000074	0.212732
C178	C	1.174895	0.499926	0.712732
C179	C	0.670627	-0.000077	0.569651
C180	C	1.170627	0.499923	1.069651
H181	H	0.226658	0.154950	-0.109694
H182	H	0.726658	0.654950	0.390306
H183	H	0.683853	0.100823	0.466137
H184	H	1.183853	0.600823	0.966137
H185	H	0.563761	-0.557784	-0.269858
H186	H	1.063761	-0.057784	0.230142
C187	C	0.591463	-0.725907	-0.229017
C188	C	1.091463	-0.225907	0.270983
N189	N	0.559394	-0.699576	-0.276485
N190	N	1.059394	-0.199576	0.223515
C191	C	0.792812	-0.433264	0.068643
C192	C	1.292812	0.066736	0.568643
N193	N	0.824898	-0.406917	0.116080
N194	N	1.324898	0.093083	0.616080
C195	C	0.552691	-0.433316	-0.286224
C196	C	1.052691	0.066684	0.213776
N197	N	0.520604	-0.406981	-0.333661
N198	N	1.020604	0.093019	0.166339
H199	H	0.602483	-0.149807	-0.212675
H200	H	1.102483	0.350193	0.287325
C201	C	0.110399	-0.170849	-0.107738
C202	C	0.610399	0.329151	0.392262
N203	N	0.085801	-0.216498	-0.107330
N204	N	0.585801	0.283502	0.392670
C205	C	0.766408	0.062548	0.328608
C206	C	1.266408	0.562548	0.828608
N207	N	0.813273	0.066083	0.313388
N208	N	1.313273	0.566083	0.813388
C209	C	0.575867	0.056062	0.451760
C210	C	1.075867	0.556062	0.951760
N211	N	0.550542	0.098169	0.470422
N212	N	1.050542	0.598169	0.970422
C213	C	0.673892	0.115523	0.311709
C214	C	1.173892	0.615523	0.811709
N215	N	0.651064	0.158962	0.283761
N216	N	1.151064	0.658962	0.783761
H217	H	0.750119	0.057469	0.477919
H218	H	1.250119	0.557469	0.977919
H219	H	0.499890	-0.100000	-0.114636
H220	H	0.999890	0.400000	0.385364
H221	H	0.586474	0.041299	0.301692
H222	H	1.086474	0.541299	0.801692
C223	C	0.383649	-0.115754	-0.112568
C224	C	0.883649	0.384246	0.387432
N225	N	0.359049	-0.161403	-0.112150
N226	N	0.859049	0.338597	0.387850
C227	C	0.792818	-0.566812	0.068656
C228	C	1.292818	-0.066812	0.568656
N229	N	0.824910	-0.593140	0.116093
N230	N	1.324910	-0.093140	0.616093
H231	H	0.602488	-0.265207	-0.212673
H232	H	1.102488	0.234793	0.287327
C233	C	-0.038121	0.115601	-0.105041
C234	C	0.461879	0.615601	0.394959
N235	N	-0.013521	0.161248	-0.105469
N236	N	0.486479	0.661248	0.394531
C237	C	0.235123	-0.170843	-0.109933
C238	C	0.735123	0.329157	0.390067
N239	N	0.259720	-0.216490	-0.110368
N240	N	0.759720	0.283510	0.389632
H241	H	-0.046608	-0.100030	-0.104940
H242	H	0.453392	0.399970	0.395060
C243	C	0.576009	-0.055441	0.453140
C244	C	1.076009	0.444559	0.953140
N245	N	0.550797	-0.097324	0.472826
N246	N	1.050797	0.402676	0.972826
H247	H	0.586299	-0.041500	0.302232
H248	H	1.086299	0.458500	0.802232
H249	H	0.602526	-0.850372	-0.212628
H250	H	1.102526	-0.350372	0.287372
C251	C	0.754082	-0.274238	0.011392
C252	C	1.254082	0.225762	0.511392
N253	N	0.786177	-0.300567	0.058822
N254	N	1.286177	0.199433	0.558822
C255	C	0.672629	-0.116096	0.469827
C256	C	1.172629	0.383904	0.969827
N257	N	0.649824	-0.159983	0.488241
N258	N	1.149824	0.340017	0.988241
C259	C	0.764664	-0.061379	0.489470
C260	C	1.264664	0.438621	0.989470
N261	N	0.811182	-0.064058	0.522681
N262	N	1.311182	0.435942	1.022681
H263	H	0.499900	0.099878	-0.114591
H264	H	0.999900	0.599878	0.385409
H265	H	-0.154381	-0.100029	-0.103028
H266	H	0.345619	0.399971	0.396972
H267	H	0.750860	-0.059929	0.335023
H268	H	1.250860	0.440071	0.835023
H269	H	0.683127	-0.100720	0.320177
H270	H	1.183127	0.399280	0.820177
H271	H	0.118902	0.154950	-0.107789
H272	H	0.618902	0.654950	0.392211
C273	C	-0.162850	0.115593	-0.102840
C274	C	0.337150	0.615593	0.397160
N275	N	-0.187448	0.161239	-0.102389
N276	N	0.312552	0.661239	0.397611
C277	C	0.383638	0.115619	-0.112526
C278	C	0.883638	0.615619	0.387474
N279	N	0.359036	0.161262	-0.112077
N280	N	0.859036	0.661262	0.387923
C281	C	0.754074	-0.140682	0.011368
C282	C	1.254074	0.359318	0.511368
N283	N	0.786162	-0.114330	0.058795
N284	N	1.286162	0.385670	0.558795
H285	H	0.743044	-0.850346	-0.004932
H286	H	1.243044	-0.350346	0.495068
C287	C	0.754107	-0.725857	0.011426
C288	C	1.254107	-0.225857	0.511426
N289	N	0.786194	-0.699507	0.058857
N290	N	1.286194	-0.199507	0.558857
