data_functionalizedCrystal
_audit_creation_method	'MofGen! by Chris Wilmer'
_symmetry_space_group_name_H-M	'P1'
_symmetry_Int_Tables_number	1
_symmetry_cell_setting	triclinic
loop_
_symmetry_equiv_pos_as_xyz
  x,y,z
_cell_length_a	33.428889
_cell_length_b	33.428139
_cell_length_c	33.424847
_cell_angle_alpha	60.004234
_cell_angle_beta	60.008465
_cell_angle_gamma	59.994972
loop_
_atom_site_label
_atom_site_type_symbol
_atom_site_fract_x
_atom_site_fract_y
_atom_site_fract_z
O1	O	0.055565	-0.584504	0.488714
O2	O	0.020982	-0.455083	0.393778
O3	O	0.102943	-0.536959	0.393689
O4	O	-0.026396	-0.502628	0.488803
O5	O	0.130140	-0.509767	0.420792
O6	O	0.048179	-0.427891	0.420881
O7	O	0.082762	-0.557312	0.515817
Cu8	Cu	0.067954	-0.490119	0.470823
Cu9	Cu	0.035790	-0.522276	0.438771
O10	O	0.000801	-0.475436	0.515906
N11	N	0.090577	-0.467504	0.493370
N12	N	0.013171	-0.544895	0.416225
C13	C	0.143377	-0.280390	0.546067
C14	C	0.143515	-0.414755	0.680369
C15	C	0.143392	-0.414735	0.546069
C16	C	0.277766	-0.414702	0.545966
C17	C	0.158177	-0.324719	0.560828
C18	C	0.158255	-0.399967	0.636038
C19	C	0.233434	-0.399936	0.560773
C20	C	0.158186	-0.399955	0.560829
C21	C	0.124540	-0.223964	0.527278
C22	C	0.124565	-0.433545	0.527281
C23	C	0.177014	-0.381145	0.579617
C24	C	0.359814	-0.400540	0.502735
C25	C	0.411105	-0.417624	0.485606
C26	C	0.411136	-0.500620	0.517255
C27	C	0.359845	-0.483534	0.534385
C28	C	0.136887	-0.198305	0.476855
C29	C	0.119761	-0.147011	0.459777
C30	C	0.077945	-0.147038	0.543547
C31	C	0.095072	-0.198332	0.560625
C32	C	0.074134	-0.421169	0.539710
C33	C	0.057023	-0.438269	0.522625
C34	C	0.140770	-0.480120	0.480694
C35	C	0.157883	-0.463020	0.497773
C36	C	0.074339	-0.421208	0.762475
C37	C	0.057288	-0.438323	0.813768
C38	C	0.141075	-0.480183	0.813699
C39	C	0.158125	-0.463069	0.762404
C40	C	0.124756	-0.433580	0.736794
C41	C	0.334186	-0.433494	0.527123
C42	C	-0.173769	-0.597444	0.363037
C43	C	-0.039302	-0.597595	0.228856
C44	C	-0.039496	-0.597587	0.363300
C45	C	-0.039512	-0.731889	0.363237
C46	C	-0.129442	-0.612265	0.348329
C47	C	-0.054138	-0.612351	0.273187
C48	C	-0.054257	-0.687554	0.348440
C49	C	-0.054247	-0.612346	0.348477
C50	C	-0.230191	-0.578579	0.381758
C51	C	-0.020722	-0.578803	0.382168
C52	C	-0.073020	-0.631130	0.329609
C53	C	-0.053713	-0.813916	0.406386
C54	C	-0.036654	-0.865210	0.423504
C55	C	0.046338	-0.865293	0.391984
C56	C	0.029278	-0.813999	0.374865
C57	C	-0.255900	-0.590938	0.432169
C58	C	-0.307191	-0.573786	0.449185
C59	C	-0.307060	-0.531922	0.365377
C60	C	-0.255769	-0.549074	0.348360
C61	C	-0.033081	-0.528377	0.369764
C62	C	-0.016014	-0.511306	0.386922
C63	C	0.025770	-0.595083	0.428877
C64	C	0.008703	-0.612156	0.411725
C65	C	-0.032755	-0.528393	0.146761
C66	C	-0.015585	-0.511324	0.095468
C67	C	0.026262	-0.595106	0.095516
C68	C	0.009094	-0.612174	0.146811
C69	C	-0.020417	-0.578816	0.172432
C70	C	-0.020748	-0.788312	0.382068
N71	N	0.436037	-0.467415	0.493101
O72	O	0.592642	-0.471896	0.376066
O73	O	0.592838	-0.567146	0.505347
O74	O	0.592754	-0.566928	0.423360
O75	O	0.592727	-0.472113	0.458053
O76	O	0.511269	-0.539835	0.450606
O77	O	0.511353	-0.540052	0.532594
O78	O	0.511157	-0.444802	0.403312
Cu79	Cu	0.503815	-0.489954	0.470441
Cu80	Cu	0.600180	-0.521995	0.438219
O81	O	0.511242	-0.445020	0.485300
N82	N	0.667959	-0.544533	0.415554
N83	N	0.090544	-0.122107	0.493359
O84	O	-0.026406	0.034587	0.488773
O85	O	0.102877	0.034627	0.393499
O86	O	0.020848	0.034591	0.393771
O87	O	0.055623	0.034623	0.488500
O88	O	0.048051	-0.046899	0.420925
O89	O	0.130080	-0.046864	0.420653
O90	O	0.000796	-0.046903	0.515927
Cu91	Cu	0.067922	-0.054324	0.470769
Cu92	Cu	0.035752	0.042048	0.438656
O93	O	0.082825	-0.046867	0.515655
N94	N	0.013123	0.109830	0.416068
N95	N	0.090892	-0.467554	0.838649
O96	O	0.086330	-0.584488	0.995334
O97	O	-0.008902	-0.455160	0.995379
O98	O	-0.008679	-0.537172	0.995355
O99	O	0.086107	-0.502475	0.995358
O100	O	0.018452	-0.509990	0.913868
O101	O	0.018230	-0.427978	0.913891
O102	O	0.113461	-0.557306	0.913847
Cu103	Cu	0.068323	-0.490160	0.906429
Cu104	Cu	0.036237	-0.522306	1.002797
O105	O	0.113239	-0.475293	0.913870
N106	N	0.013667	-0.544916	1.070577
C107	C	0.031339	-0.425179	0.394250
C108	C	0.132837	-0.526572	0.394139
C109	C	0.072405	-0.587216	0.515344
C110	C	-0.029093	-0.485823	0.515455
C111	C	0.552119	-0.566716	0.535258
C112	C	0.552016	-0.566447	0.433726
C113	C	0.551873	-0.445232	0.373402
C114	C	0.551980	-0.445502	0.474933
C115	C	0.132731	-0.006013	0.393923
C116	C	0.031182	-0.006158	0.394293
C117	C	-0.029092	-0.006163	0.515469
C118	C	0.072491	-0.006119	0.515133
C119	C	-0.008451	-0.425276	0.954641
C120	C	-0.008170	-0.526833	0.954596
C121	C	0.113010	-0.587190	0.954585
C122	C	0.112735	-0.485627	0.954611
H123	H	0.047163	-0.397193	0.741627
H124	H	0.551811	-0.415327	0.336274
H125	H	0.551974	-0.415718	0.482355
C126	C	0.183019	-0.536450	0.353788
C127	C	0.229862	-0.549900	0.362702
C128	C	0.280045	-0.559779	0.322351
C129	C	0.283384	-0.556207	0.273084
C130	C	0.236539	-0.542757	0.264167
C131	C	0.186357	-0.532878	0.304519
H132	H	0.227392	-0.552545	0.399174
H133	H	0.314722	-0.569736	0.328952
H134	H	0.320532	-0.563520	0.243213
H135	H	0.239010	-0.540112	0.227695
H136	H	0.151679	-0.522921	0.297918
H137	H	0.169783	-0.005775	0.363939
C138	C	-0.048844	-0.375100	0.954659
C139	C	-0.039058	-0.334720	0.954670
C140	C	-0.079451	-0.284544	0.954688
C141	C	-0.129630	-0.274749	0.954695
C142	C	-0.139419	-0.315131	0.954684
C143	C	-0.099026	-0.365306	0.954666
H144	H	-0.001910	-0.341970	0.954664
H145	H	-0.072204	-0.254651	0.954696
H146	H	-0.159532	-0.237606	0.954708
H147	H	-0.176567	-0.307881	0.954689
H148	H	-0.106272	-0.395199	0.954658
H149	H	0.552029	-0.596233	0.426301
C150	C	-0.079277	-0.475946	0.555806
C151	C	-0.089115	-0.516267	0.606018
C152	C	-0.139298	-0.506390	0.646369
C153	C	-0.179644	-0.456191	0.636507
C154	C	-0.169807	-0.415866	0.586292
C155	C	-0.119623	-0.425743	0.545941
H156	H	-0.059247	-0.553431	0.613320
H157	H	-0.146580	-0.536242	0.683541
H158	H	-0.216793	-0.448880	0.666377
H159	H	-0.199674	-0.378703	0.578990
H160	H	-0.112342	-0.395892	0.508769
H161	H	0.552170	-0.596617	0.572390
C162	C	0.021125	-0.006168	0.354084
C163	C	-0.029128	-0.006188	0.364143
C164	C	-0.039185	-0.006199	0.323935
C165	C	0.001011	-0.006190	0.273667
C166	C	0.051268	-0.006170	0.263606
C167	C	0.061325	-0.006159	0.303815
H168	H	-0.058887	-0.006195	0.401356
H169	H	-0.076389	-0.006214	0.331383
H170	H	-0.006433	-0.006198	0.243902
H171	H	0.081027	-0.006163	0.226393
H172	H	0.098529	-0.006145	0.296367
H173	H	0.142910	-0.624330	0.954565
H174	H	0.079796	-0.624394	0.545162
H175	H	0.079939	-0.006110	0.544893
C176	C	0.001827	-0.424702	0.842013
C177	C	-0.034874	-0.392261	0.813838
C178	C	-0.090335	-0.378643	0.842083
C179	C	-0.109096	-0.397465	0.898502
C180	C	-0.072395	-0.429908	0.926680
C181	C	-0.016933	-0.443527	0.898436
H182	H	-0.020986	-0.378326	0.772070
H183	H	-0.117504	-0.354627	0.821223
H184	H	-0.150152	-0.387384	0.919411
H185	H	-0.086282	-0.443843	0.968448
H186	H	0.010235	-0.467543	0.919295
C187	C	0.177782	-0.512611	0.841871
C188	C	0.233240	-0.526217	0.813624
C189	C	0.269946	-0.558648	0.841796
C190	C	0.251194	-0.577472	0.898216
C191	C	0.195732	-0.563866	0.926466
C192	C	0.159027	-0.531436	0.898294
H193	H	0.247124	-0.512282	0.771856
H194	H	0.311002	-0.568719	0.820883
H195	H	0.278365	-0.601479	0.919071
H196	H	0.181848	-0.577801	0.968234
H197	H	0.117971	-0.521364	0.919207
C198	C	0.152967	-0.475599	0.954604
C199	C	0.143925	-0.462080	0.996922
C200	C	0.184157	-0.452053	0.996915
C201	C	0.233432	-0.455545	0.954589
C202	C	0.242476	-0.469064	0.912268
C203	C	0.202244	-0.479092	0.912275
H204	H	0.107447	-0.459495	1.028257
H205	H	0.177462	-0.442045	1.028244
H206	H	0.263214	-0.448122	0.954584
H207	H	0.278954	-0.471650	0.880933
H208	H	0.208940	-0.489100	0.880946
C209	C	0.021359	-0.374956	0.353964
C210	C	0.061609	-0.365014	0.303719
C211	C	0.051629	-0.314791	0.263434
C212	C	0.001401	-0.274510	0.273394
C213	C	-0.038852	-0.284450	0.323641
C214	C	-0.028873	-0.334673	0.363927
H215	H	0.098794	-0.394833	0.296344
H216	H	0.081427	-0.307432	0.226237
H217	H	-0.005987	-0.237331	0.243572
H218	H	-0.076037	-0.254631	0.331017
H219	H	-0.058671	-0.342032	0.401124
H220	H	-0.066220	-0.006175	0.545378
C221	C	-0.048383	-0.536842	0.954548
C222	C	-0.067531	-0.578586	0.996830
C223	C	-0.107745	-0.588595	0.996782
C224	C	-0.128810	-0.556859	0.954451
C225	C	-0.109663	-0.515111	0.912166
C226	C	-0.069449	-0.505103	0.912214
H227	H	-0.051937	-0.602082	1.028169
H228	H	-0.121919	-0.619499	1.028084
H229	H	-0.158579	-0.564268	0.954415
H230	H	-0.125257	-0.491616	0.880827
H231	H	-0.055275	-0.474198	0.880911
C232	C	0.213587	-0.476679	0.734157
C233	C	0.236825	-0.436116	0.698885
C234	C	0.292286	-0.449725	0.670639
C235	C	0.324510	-0.503895	0.677664
C236	C	0.301273	-0.544461	0.712937
C237	C	0.245811	-0.530853	0.741183
H238	H	0.212971	-0.396013	0.693683
H239	H	0.309488	-0.419695	0.644527
H240	H	0.365566	-0.513969	0.656754
H241	H	0.325127	-0.584565	0.718139
H242	H	0.228610	-0.560883	0.767295
C243	C	0.037484	-0.388741	0.572161
C244	C	-0.017987	-0.375122	0.585823
C245	C	-0.054638	-0.342692	0.618275
C246	C	-0.035817	-0.323881	0.637065
C247	C	0.019658	-0.337500	0.623404
C248	C	0.056308	-0.369930	0.590952
H249	H	-0.031922	-0.389048	0.571913
H250	H	-0.095704	-0.332611	0.628388
H251	H	-0.062948	-0.299874	0.661088
H252	H	0.033592	-0.323574	0.637314
H253	H	0.097374	-0.380011	0.580839
H254	H	0.167905	-0.504126	0.456671
C255	C	0.001550	-0.424658	0.536288
C256	C	-0.021694	-0.465218	0.564841
C257	C	-0.077167	-0.451605	0.578500
C258	C	-0.109395	-0.397433	0.563606
C259	C	-0.086152	-0.356869	0.535052
C260	C	-0.030679	-0.370482	0.521392
H261	H	0.002163	-0.505323	0.575867
H262	H	-0.094373	-0.481633	0.599638
H263	H	-0.150459	-0.387356	0.573718
H264	H	-0.110009	-0.316764	0.524025
H265	H	-0.013473	-0.340454	0.500254
C266	C	0.213358	-0.476633	0.484105
C267	C	0.250006	-0.509055	0.451648
C268	C	0.305480	-0.522669	0.437981
C269	C	0.324306	-0.503860	0.456769
C270	C	0.287657	-0.471436	0.489227
C271	C	0.232182	-0.457822	0.502895
H272	H	0.236071	-0.522980	0.437738
H273	H	0.332611	-0.546672	0.413953
H274	H	0.365371	-0.513938	0.446651
H275	H	0.301592	-0.457511	0.503137
H276	H	0.205052	-0.433819	0.526923
H277	H	0.338981	-0.510371	0.554246
H278	H	-0.063498	-0.886058	0.443304
H279	H	0.432025	-0.541365	0.523165
H280	H	0.431972	-0.390789	0.465748
H281	H	0.338923	-0.359792	0.496821
H282	H	0.129813	-0.126117	0.418717
C283	C	0.169300	-0.226498	0.440172
C284	C	0.218749	-0.219421	0.403237
C285	C	0.251163	-0.247617	0.366555
C286	C	0.234128	-0.282889	0.366807
C287	C	0.184677	-0.289968	0.403743
C288	C	0.152263	-0.261772	0.440426
H289	H	0.231361	-0.193309	0.403049
H290	H	0.287769	-0.242376	0.339212
H291	H	0.258123	-0.303761	0.339653
H292	H	0.172065	-0.316080	0.403931
H293	H	0.115657	-0.267013	0.467768
C294	C	0.045534	-0.118841	0.580229
C295	C	0.065202	-0.125893	0.617101
C296	C	0.032789	-0.097698	0.653783
C297	C	-0.019293	-0.062451	0.653594
C298	C	-0.038964	-0.055397	0.616721
C299	C	-0.006551	-0.083592	0.580038
H300	H	0.103759	-0.151986	0.617242
H301	H	0.047351	-0.102920	0.681080
H302	H	-0.043287	-0.041579	0.680749
H303	H	-0.077521	-0.029304	0.616579
H304	H	-0.021113	-0.078370	0.552742
C305	C	0.081490	-0.226555	0.616092
C306	C	0.096441	-0.219503	0.648274
C307	C	0.082857	-0.247726	0.703743
C308	C	0.054321	-0.283003	0.727030
C309	C	0.039368	-0.290057	0.694848
C310	C	0.052952	-0.261833	0.639379
H311	H	0.117567	-0.193388	0.631036
H312	H	0.093926	-0.242504	0.727566
H313	H	0.044265	-0.303896	0.768092
H314	H	0.018242	-0.316172	0.712086
H315	H	0.041883	-0.267055	0.615555
C316	C	-0.029169	-0.455856	0.067235
C317	C	0.011407	-0.432629	0.032036
C318	C	-0.002174	-0.377160	0.003803
C319	C	-0.056331	-0.344918	0.010769
C320	C	-0.096910	-0.368144	0.045969
C321	C	-0.083329	-0.423613	0.074202
H322	H	0.051501	-0.456497	0.026878
H323	H	0.027866	-0.359966	-0.022255
H324	H	-0.066384	-0.303856	-0.010131
H325	H	-0.137004	-0.344276	0.051127
H326	H	-0.113369	-0.440806	0.100259
C327	C	-0.065218	-0.491697	0.174942
C328	C	-0.078791	-0.436232	0.146704
C329	C	-0.111251	-0.399537	0.174885
C330	C	-0.130139	-0.418307	0.231304
C331	C	-0.116567	-0.473774	0.259546
C332	C	-0.084106	-0.510470	0.231365
H333	H	-0.064809	-0.422335	0.104936
H334	H	-0.121298	-0.358476	0.153978
H335	H	-0.154168	-0.391143	0.252166
H336	H	-0.130549	-0.487671	0.301314
H337	H	-0.074059	-0.551531	0.252271
H338	H	0.050281	-0.622271	0.074658
H339	H	0.019144	-0.653235	0.167709
H340	H	-0.026079	-0.470245	0.376824
C341	C	0.058142	-0.631775	0.461387
C342	C	0.107616	-0.668718	0.441825
C343	C	0.139986	-0.705408	0.474335
C344	C	0.122883	-0.705154	0.526407
C345	C	0.073407	-0.668209	0.545972
C346	C	0.041036	-0.631520	0.513462
H347	H	0.120279	-0.668907	0.403275
H348	H	0.176612	-0.732756	0.459851
H349	H	0.146846	-0.732313	0.550473
H350	H	0.060744	-0.668020	0.584522
H351	H	0.004411	-0.604171	0.527946
H352	H	0.018765	-0.653217	0.421828
C353	C	0.065542	-0.785837	0.348114
C354	C	0.120568	-0.814097	0.340196
C355	C	0.156835	-0.785936	0.313443
C356	C	0.138075	-0.729514	0.294609
C357	C	0.083046	-0.701251	0.302527
C358	C	0.046780	-0.729412	0.329279
H359	H	0.134457	-0.855867	0.354138
H360	H	0.197571	-0.806858	0.307582
H361	H	0.164922	-0.708667	0.274806
H362	H	0.069157	-0.659481	0.288584
H363	H	0.006044	-0.708490	0.335140
C364	C	-0.108743	-0.785658	0.414306
C365	C	-0.127515	-0.729237	0.395481
C366	C	-0.182545	-0.700982	0.403404
C367	C	-0.218803	-0.729149	0.430151
C368	C	-0.200033	-0.785574	0.448978
C369	C	-0.145003	-0.813829	0.441055
H370	H	-0.100673	-0.708383	0.375680
H371	H	-0.196439	-0.659212	0.389467
H372	H	-0.259540	-0.708233	0.436016
H373	H	-0.226874	-0.806427	0.468779
H374	H	-0.131108	-0.855598	0.454992
H375	H	-0.057039	-0.501216	0.345698
H376	H	0.087072	-0.886205	0.386121
H377	H	-0.328125	-0.583847	0.490235
C378	C	-0.227764	-0.623392	0.468906
C379	C	-0.256045	-0.636980	0.524359
C380	C	-0.227907	-0.669435	0.561095
C381	C	-0.171489	-0.688303	0.542379
C382	C	-0.143205	-0.674716	0.486924
C383	C	-0.171343	-0.642261	0.450187
H384	H	-0.297812	-0.623013	0.538216
H385	H	-0.248845	-0.679493	0.602147
H386	H	-0.150660	-0.712328	0.569574
H387	H	-0.101439	-0.688683	0.473066
H388	H	-0.150405	-0.632202	0.409135
H389	H	-0.234840	-0.539009	0.307312
C390	C	-0.335199	-0.499470	0.328640
C391	C	-0.328101	-0.519103	0.291718
C392	C	-0.356237	-0.486648	0.254980
C393	C	-0.391471	-0.434561	0.255164
C394	C	-0.398571	-0.414925	0.292088
C395	C	-0.370435	-0.447380	0.328826
H396	H	-0.302017	-0.557663	0.291580
H397	H	-0.350981	-0.501184	0.227647
H398	H	-0.412299	-0.410536	0.227969
H399	H	-0.424655	-0.376365	0.292226
H400	H	-0.375691	-0.432844	0.356159
