data_functionalizedCrystal
_audit_creation_method	'MofGen! by Chris Wilmer'
_symmetry_space_group_name_H-M	'P1'
_symmetry_Int_Tables_number	1
_symmetry_cell_setting	triclinic
loop_
_symmetry_equiv_pos_as_xyz
  x,y,z
_cell_length_a	14.044191
_cell_length_b	14.044220
_cell_length_c	7.681215
_cell_angle_alpha	95.919068
_cell_angle_beta	95.917136
_cell_angle_gamma	93.190327
loop_
_atom_site_label
_atom_site_type_symbol
_atom_site_fract_x
_atom_site_fract_y
_atom_site_fract_z
O1	O	1.285908	0.238933	0.146358
O2	O	1.619241	0.572266	0.479691
O3	O	1.952575	0.905600	0.813025
O4	O	1.009237	0.230622	0.146380
O5	O	1.342570	0.563955	0.479713
O6	O	1.675903	0.897288	0.813047
O7	O	1.143418	0.096440	0.146352
O8	O	1.476752	0.429774	0.479685
O9	O	1.810085	0.763107	0.813019
O10	O	1.151726	0.373114	0.146386
O11	O	1.485059	0.706447	0.479719
O12	O	1.818393	1.039781	0.813053
O13	O	1.125925	0.078959	-0.146519
O14	O	1.459259	0.412293	0.186815
O15	O	1.792592	0.745626	0.520148
O16	O	0.991744	0.213141	-0.146491
O17	O	1.325077	0.546474	0.186843
O18	O	1.658410	0.879807	0.520176
O19	O	1.268415	0.221452	-0.146513
O20	O	1.601748	0.554785	0.186821
O21	O	1.935082	0.888119	0.520154
Zn22	Zn	1.127302	0.214521	-0.193001
Zn23	Zn	1.460635	0.547854	0.140332
Zn24	Zn	1.793969	0.881187	0.473665
Zn25	Zn	1.150350	0.237553	0.192868
Zn26	Zn	1.483683	0.570886	0.526202
Zn27	Zn	1.817016	0.904219	0.859535
O28	O	1.134233	0.355633	-0.146485
O29	O	1.467566	0.688966	0.186849
O30	O	1.800900	1.022300	0.520182
C31	C	0.964868	0.218245	-0.000053
C32	C	1.298202	0.551578	0.333281
C33	C	1.631535	0.884911	0.666614
C34	C	0.858726	0.207398	-0.000045
C35	C	1.192059	0.540731	0.333288
C36	C	1.525392	0.874065	0.666622
C37	C	0.613267	0.264498	-0.000055
C38	C	0.946600	0.597831	0.333278
C39	C	1.279933	0.931164	0.666611
C40	C	0.664392	0.187581	-0.000062
C41	C	0.997725	0.520914	0.333271
C42	C	1.331058	0.854248	0.666605
C43	C	0.772529	0.198610	-0.000052
C44	C	1.105863	0.531943	0.333281
C45	C	1.439196	0.865276	0.666614
C46	C	0.505119	0.253470	-0.000065
C47	C	0.838453	0.586804	0.333268
C48	C	1.171786	0.920137	0.666602
C49	C	1.131036	0.052078	-0.000084
C50	C	1.464370	0.385411	0.333249
C51	C	1.797703	0.718745	0.666583
C52	C	1.120191	-0.054065	-0.000085
C53	C	1.453525	0.279268	0.333248
C54	C	1.786858	0.612602	0.666581
C55	C	1.100367	-0.248402	-0.000058
C56	C	1.433700	0.084932	0.333275
C57	C	1.767033	0.418265	0.666608
C58	C	1.177281	-0.299530	-0.000059
C59	C	1.510615	0.033804	0.333274
C60	C	1.843948	0.367137	0.666608
C61	C	1.166251	-0.407665	-0.000044
C62	C	1.499584	-0.074332	0.333289
C63	C	1.832917	0.259001	0.666623
C64	C	1.111396	-0.140256	-0.000073
C65	C	1.444729	0.193077	0.333260
C66	C	1.778063	0.526410	0.666593
C67	C	1.312783	0.233829	-0.000076
C68	C	1.646117	0.567162	0.333257
C69	C	1.979450	0.900496	0.666591
C70	C	1.418927	0.244677	-0.000072
C71	C	1.752260	0.578010	0.333261
C72	C	2.085593	0.911343	0.666594
C73	C	1.146616	0.399996	-0.000045
C74	C	1.479949	0.733329	0.333288
C75	C	1.813282	1.066662	0.666622
C76	C	1.157461	0.506140	-0.000032
C77	C	1.490794	0.839473	0.333301
C78	C	1.824128	1.172806	0.666635
N79	N	1.111579	0.198802	-0.456347
N80	N	1.444913	0.532135	-0.123014
N81	N	1.778246	0.865469	0.210320
N82	N	1.166079	0.253265	0.456214
N83	N	1.499413	0.586598	0.789548
N84	N	1.832746	0.919931	1.122881
H85	H	0.626955	0.113455	0.000053
H86	H	0.960288	0.446789	0.333386
H87	H	1.293622	0.780122	0.666720
O88	O	1.037914	0.125171	-0.555990
O89	O	1.371247	0.458505	-0.222657
O90	O	1.704580	0.791838	0.110676
H91	H	1.039972	0.127226	-0.699626
H92	H	1.373306	0.460559	-0.366292
H93	H	1.706639	0.793892	-0.032959
O94	O	1.239741	0.326907	-0.444135
O95	O	1.573074	0.660241	-0.110802
O96	O	1.906408	0.993574	0.222532
H97	H	1.237673	0.324866	-0.300499
H98	H	1.571006	0.658199	0.032835
H99	H	1.904339	0.991533	0.366168
O100	O	0.662854	0.362695	-0.000021
O101	O	0.996188	0.696028	0.333313
O102	O	1.329521	1.029361	0.666646
H103	H	0.741240	0.356056	0.000002
H104	H	1.074573	0.689389	0.333335
H105	H	1.407907	1.022723	0.666668
H106	H	1.251422	-0.262082	0.000053
H107	H	1.584755	0.071251	0.333387
H108	H	1.918088	0.404585	0.666720
O109	O	1.002169	-0.297986	-0.000078
O110	O	1.335502	0.035348	0.333255
O111	O	1.668836	0.368681	0.666589
H112	H	1.008806	-0.376371	-0.000093
H113	H	1.342139	-0.043037	0.333241
H114	H	1.675472	0.290296	0.666574
