data_functionalizedCrystal
_audit_creation_method	'MofGen! by Chris Wilmer'
_symmetry_space_group_name_H-M	'P1'
_symmetry_Int_Tables_number	1
_symmetry_cell_setting	triclinic
loop_
_symmetry_equiv_pos_as_xyz
  x,y,z
_cell_length_a	18.215407
_cell_length_b	12.645330
_cell_length_c	18.215407
_cell_angle_alpha	90.007295
_cell_angle_beta	90.010236
_cell_angle_gamma	90.018140
loop_
_atom_site_label
_atom_site_type_symbol
_atom_site_fract_x
_atom_site_fract_y
_atom_site_fract_z
Zn1	Zn	1.125039	-0.422202	0.416141
Zn2	Zn	1.375039	-0.172202	0.666141
Zn3	Zn	1.625039	0.077798	0.916141
Zn4	Zn	1.875039	0.327798	1.166141
Zn5	Zn	1.124983	-0.599436	0.293085
Zn6	Zn	1.374983	-0.349436	0.543085
Zn7	Zn	1.624983	-0.099436	0.793085
Zn8	Zn	1.874983	0.150564	1.043085
Zn9	Zn	1.001992	-0.422188	0.293088
Zn10	Zn	1.251992	-0.172188	0.543088
Zn11	Zn	1.501992	0.077812	0.793088
Zn12	Zn	1.751992	0.327812	1.043088
Zn13	Zn	1.001953	-0.599425	0.416110
Zn14	Zn	1.251953	-0.349425	0.666110
Zn15	Zn	1.501953	-0.099425	0.916110
Zn16	Zn	1.751953	0.150575	1.166110
O17	O	1.063492	-0.510813	0.354606
O18	O	1.313492	-0.260813	0.604606
O19	O	1.563492	-0.010813	0.854606
O20	O	1.813492	0.239187	1.104606
O21	O	1.228016	-0.445723	0.399829
O22	O	1.478016	-0.195723	0.649829
O23	O	1.728016	0.054277	0.899829
O24	O	1.978016	0.304277	1.149829
O25	O	1.108662	-0.575922	0.190101
O26	O	1.358662	-0.325922	0.440101
O27	O	1.608662	-0.075922	0.690101
O28	O	1.858662	0.174078	0.940101
O29	O	1.018354	-0.273843	0.309426
O30	O	1.268354	-0.023843	0.559426
O31	O	1.518354	0.226157	0.809426
O32	O	1.768354	0.476157	1.059426
O33	O	1.227975	-0.575936	0.309420
O34	O	1.477975	-0.325936	0.559420
O35	O	1.727975	-0.075936	0.809420
O36	O	1.977975	0.174064	1.059420
O37	O	1.108756	-0.273853	0.399832
O38	O	1.358756	-0.023853	0.649832
O39	O	1.608756	0.226147	0.899832
O40	O	1.858756	0.476147	1.149832
O41	O	1.018300	-0.445699	0.190104
O42	O	1.268300	-0.195699	0.440104
O43	O	1.518300	0.054301	0.690104
O44	O	1.768300	0.304301	0.940104
O45	O	0.899003	-0.445689	0.309396
O46	O	1.149003	-0.195689	0.559396
O47	O	1.399003	0.054311	0.809396
O48	O	1.649003	0.304311	1.059396
O49	O	1.018287	-0.575918	0.519098
O50	O	1.268287	-0.325918	0.769098
O51	O	1.518287	-0.075918	1.019098
O52	O	1.768287	0.174082	1.269098
O53	O	0.898974	-0.575904	0.399779
O54	O	1.148974	-0.325904	0.649779
O55	O	1.398974	-0.075904	0.899779
O56	O	1.648974	0.174096	1.149779
O57	O	1.108718	-0.445713	0.519121
O58	O	1.358718	-0.195713	0.769121
O59	O	1.608718	0.054287	1.019121
O60	O	1.858718	0.304287	1.269121
O61	O	1.108624	-0.747782	0.309390
O62	O	1.358624	-0.497782	0.559390
O63	O	1.608624	-0.247782	0.809390
O64	O	1.858624	0.002218	1.059390
O65	O	1.018233	-0.747774	0.399776
O66	O	1.268233	-0.497774	0.649776
O67	O	1.518233	-0.247774	0.899776
O68	O	1.768233	0.002226	1.149776
C69	C	0.872286	-0.510795	0.354585
C70	C	1.122286	-0.260795	0.604585
C71	C	1.372286	-0.010795	0.854585
C72	C	1.622286	0.239205	1.104585
C73	C	0.790487	-0.510813	0.354593
C74	C	1.040487	-0.260813	0.604593
C75	C	1.290487	-0.010813	0.854593
C76	C	1.540487	0.239187	1.104593
C77	C	0.602297	-0.578722	0.401597
C78	C	0.852297	-0.328722	0.651597
C79	C	1.102297	-0.078722	0.901597
C80	C	1.352297	0.171278	1.151597
C81	C	0.525438	-0.578726	0.401606
C82	C	0.775438	-0.328726	0.651606
C83	C	1.025438	-0.078726	0.901606
C84	C	1.275438	0.171274	1.151606
C85	C	0.525439	-0.442923	0.307631
C86	C	0.775439	-0.192923	0.557631
C87	C	1.025439	0.057077	0.807631
C88	C	1.275439	0.307077	1.057631
C89	C	0.602296	-0.442915	0.307626
C90	C	0.852296	-0.192915	0.557626
C91	C	1.102296	0.057085	0.807626
C92	C	1.352296	0.307085	1.057626
C93	C	0.640723	-0.510821	0.354608
C94	C	0.890723	-0.260821	0.604608
C95	C	1.140723	-0.010821	0.854608
C96	C	1.390723	0.239179	1.104608
C97	C	0.487007	-0.510832	0.354622
C98	C	0.737007	-0.260832	0.604622
C99	C	0.987007	-0.010832	0.854622
C100	C	1.237007	0.239168	1.104622
C101	C	0.403674	-0.510835	0.354632
C102	C	0.653674	-0.260835	0.604632
C103	C	0.903674	-0.010835	0.854632
C104	C	1.153674	0.239165	1.104632
C105	C	0.724062	-0.510816	0.354600
C106	C	0.974062	-0.260816	0.604600
C107	C	1.224062	-0.010816	0.854600
C108	C	1.474062	0.239184	1.104600
C109	C	1.063438	-0.786243	0.354596
C110	C	1.313438	-0.536243	0.604596
C111	C	1.563438	-0.286243	0.854596
C112	C	1.813438	-0.036243	1.104596
C113	C	1.063483	-0.904073	0.354616
C114	C	1.313483	-0.654073	0.604616
C115	C	1.563483	-0.404073	0.854616
C116	C	1.813483	-0.154073	1.104616
C117	C	1.006853	-1.071676	0.411653
C118	C	1.256853	-0.821676	0.661653
C119	C	1.506853	-0.571676	0.911653
C120	C	1.756853	-0.321676	1.161653
C121	C	1.006563	-0.949117	0.411470
C122	C	1.256563	-0.699117	0.661470
C123	C	1.506563	-0.449117	0.911470
C124	C	1.756563	-0.199117	1.161470
C125	C	1.042503	-0.948633	0.277057
C126	C	1.292503	-0.698633	0.527057
C127	C	1.542503	-0.448633	0.777057
C128	C	1.792503	-0.198633	1.027057
C129	C	1.042157	-1.071231	0.277404
C130	C	1.292157	-0.821231	0.527404
C131	C	1.542157	-0.571231	0.777404
C132	C	1.792157	-0.321231	1.027404
C133	C	1.141439	-1.071170	0.374508
C134	C	1.391439	-0.821170	0.624508
C135	C	1.641439	-0.571170	0.874508
C136	C	1.891439	-0.321170	1.124508
C137	C	1.140961	-0.948564	0.376204
C138	C	1.390961	-0.698564	0.626204
C139	C	1.640961	-0.448564	0.876204
C140	C	1.890961	-0.198564	1.126204
C141	C	1.255445	-0.510832	0.354628
C142	C	1.505445	-0.260832	0.604628
C143	C	1.755445	-0.010832	0.854628
C144	C	2.005445	0.239168	1.104628
C145	C	1.337244	-0.510840	0.354637
C146	C	1.587244	-0.260840	0.604637
C147	C	1.837244	-0.010840	0.854637
C148	C	2.087244	0.239160	1.104637
C149	C	1.063505	-0.510816	0.546559
C150	C	1.313505	-0.260816	0.796559
C151	C	1.563505	-0.010816	1.046559
C152	C	1.813505	0.239184	1.296559
C153	C	1.063510	-0.510817	0.628358
C154	C	1.313510	-0.260817	0.878358
C155	C	1.563510	-0.010817	1.128358
C156	C	1.813510	0.239183	1.378358
C157	C	1.063566	-0.234308	0.354632
C158	C	1.313566	0.015692	0.604632
C159	C	1.563566	0.265692	0.854632
C160	C	1.813566	0.515692	1.104632
C161	C	1.063597	-0.116478	0.354644
C162	C	1.313597	0.133522	0.604644
C163	C	1.563597	0.383522	0.854644
C164	C	1.813597	0.633522	1.104644
C165	C	1.110583	-0.443030	0.816565
C166	C	1.360583	-0.193030	1.066565
C167	C	1.610583	0.056970	1.316565
C168	C	1.860583	0.306970	1.566565
C169	C	1.110579	-0.443030	0.893423
C170	C	1.360579	-0.193030	1.143423
C171	C	1.610579	0.056970	1.393423
C172	C	1.860579	0.306970	1.643423
C173	C	1.016413	-0.578619	0.893389
C174	C	1.266413	-0.328619	1.143389
C175	C	1.516413	-0.078619	1.393389
C176	C	1.766413	0.171381	1.643389
C177	C	1.016414	-0.578613	0.816531
C178	C	1.266414	-0.328613	1.066531
C179	C	1.516414	-0.078613	1.316531
C180	C	1.766414	0.171387	1.566531
C181	C	1.063503	-0.510821	0.778121
C182	C	1.313503	-0.260821	1.028121
C183	C	1.563503	-0.010821	1.278121
C184	C	1.813503	0.239179	1.528121
C185	C	1.063498	-0.510826	0.931837
C186	C	1.313498	-0.260826	1.181837
C187	C	1.563498	-0.010826	1.431837
C188	C	1.813498	0.239174	1.681837
C189	C	1.063493	-0.510826	1.015171
C190	C	1.313493	-0.260826	1.265171
C191	C	1.563493	-0.010826	1.515171
C192	C	1.813493	0.239174	1.765171
C193	C	1.063507	-0.510819	0.694782
C194	C	1.313507	-0.260819	0.944782
C195	C	1.563507	-0.010819	1.194782
C196	C	1.813507	0.239181	1.444782
C197	C	1.063480	-0.510833	1.163400
C198	C	1.313480	-0.260833	1.413400
C199	C	1.563480	-0.010833	1.663400
C200	C	1.813480	0.239167	1.913400
C201	C	1.063491	-0.510829	1.081601
C202	C	1.313491	-0.260829	1.331601
C203	C	1.563491	-0.010829	1.581601
C204	C	1.813491	0.239171	1.831601
H205	H	1.019687	-0.918988	0.468979
H206	H	1.269687	-0.668988	0.718979
H207	H	1.519687	-0.418988	0.968979
H208	H	1.769687	-0.168988	1.218979
Br209	Br	1.174487	-0.351024	0.764439
Br210	Br	1.424487	-0.101024	1.014439
Br211	Br	1.674487	0.148976	1.264439
Br212	Br	1.924487	0.398976	1.514439
Br213	Br	1.174480	-0.351032	0.945594
Br214	Br	1.424480	-0.101032	1.195594
Br215	Br	1.674480	0.148968	1.445594
Br216	Br	1.924480	0.398968	1.695594
H217	H	0.978071	-0.633816	0.785230
H218	H	1.228071	-0.383816	1.035230
H219	H	1.478071	-0.133816	1.285230
H220	H	1.728071	0.116184	1.535230
H221	H	0.978077	-0.633816	0.924671
H222	H	1.228077	-0.383816	1.174671
H223	H	1.478077	-0.133816	1.424671
H224	H	1.728077	0.116184	1.674671
Br225	Br	0.473291	-0.670877	0.465383
Br226	Br	0.723291	-0.420877	0.715383
Br227	Br	0.973291	-0.170877	0.965383
Br228	Br	1.223291	0.079123	1.215383
H229	H	0.633584	-0.387615	0.269362
H230	H	0.883584	-0.137615	0.519362
H231	H	1.133584	0.112385	0.769362
H232	H	1.383584	0.362385	1.019362
Br233	Br	0.654446	-0.670877	0.465359
Br234	Br	0.904446	-0.420877	0.715359
Br235	Br	1.154446	-0.170877	0.965359
Br236	Br	1.404446	0.079123	1.215359
H237	H	1.019856	-1.101113	0.469351
H238	H	1.269856	-0.851113	0.719351
H239	H	1.519856	-0.601113	0.969351
H240	H	1.769856	-0.351113	1.219351
H241	H	0.494142	-0.387638	0.269379
H242	H	0.744142	-0.137638	0.519379
H243	H	0.994142	0.112362	0.769379
H244	H	1.244142	0.362362	1.019379
H245	H	0.986194	-0.918015	0.259925
H246	H	1.236194	-0.668015	0.509925
H247	H	1.486194	-0.418015	0.759925
H248	H	1.736194	-0.168015	1.009925
Br249	Br	1.211906	-1.119474	0.305315
Br250	Br	1.461906	-0.869474	0.555315
Br251	Br	1.711906	-0.619474	0.805315
Br252	Br	1.961906	-0.369474	1.055315
Br253	Br	1.167335	-0.900024	0.471341
Br254	Br	1.417335	-0.650024	0.721341
Br255	Br	1.667335	-0.400024	0.971341
Br256	Br	1.917335	-0.150024	1.221341
Br257	Br	0.911271	-1.123198	0.390019
Br258	Br	1.161271	-0.873198	0.640019
Br259	Br	1.411271	-0.623198	0.890019
Br260	Br	1.661271	-0.373198	1.140019
H261	H	0.985255	-1.099916	0.260576
H262	H	1.235255	-0.849916	0.510576
H263	H	1.485255	-0.599916	0.760576
H264	H	1.735255	-0.349916	1.010576
Br265	Br	1.108047	-1.120636	0.204189
Br266	Br	1.358047	-0.870636	0.454189
Br267	Br	1.608047	-0.620636	0.704189
Br268	Br	1.858047	-0.370636	0.954189
Br269	Br	0.910377	-0.900371	0.389540
Br270	Br	1.160377	-0.650371	0.639540
Br271	Br	1.410377	-0.400371	0.889540
Br272	Br	1.660377	-0.150371	1.139540
H273	H	1.082523	-0.919455	0.233420
H274	H	1.332523	-0.669455	0.483420
H275	H	1.582523	-0.419455	0.733420
H276	H	1.832523	-0.169455	0.983420
H277	H	1.185464	-0.917896	0.337706
H278	H	1.435464	-0.667896	0.587706
H279	H	1.685464	-0.417896	0.837706
H280	H	1.935464	-0.167896	1.087706
Br281	Br	1.173344	-1.122618	0.467169
Br282	Br	1.423344	-0.872618	0.717169
Br283	Br	1.673344	-0.622618	0.967169
Br284	Br	1.923344	-0.372618	1.217169
