data_functionalizedCrystal
_audit_creation_method	'MofGen! by Chris Wilmer'
_symmetry_space_group_name_H-M	'P1'
_symmetry_Int_Tables_number	1
_symmetry_cell_setting	triclinic
loop_
_symmetry_equiv_pos_as_xyz
  x,y,z
_cell_length_a	12.759401
_cell_length_b	12.759394
_cell_length_c	12.759393
_cell_angle_alpha	90.030600
_cell_angle_beta	90.018496
_cell_angle_gamma	90.014017
loop_
_atom_site_label
_atom_site_type_symbol
_atom_site_fract_x
_atom_site_fract_y
_atom_site_fract_z
Zn1	Zn	1.606262	-0.418200	0.593988
Zn2	Zn	1.606158	-0.593919	0.418311
Zn3	Zn	1.430564	-0.418255	0.418328
Zn4	Zn	1.430555	-0.593838	0.593953
O5	O	1.518385	-0.506053	0.506145
O6	O	1.753269	-0.441520	0.570692
O7	O	1.582826	-0.570674	0.271293
O8	O	1.453917	-0.271227	0.441651
O9	O	1.753193	-0.570620	0.441623
O10	O	1.583002	-0.271186	0.570708
O11	O	1.453817	-0.441614	0.271305
O12	O	1.283541	-0.441536	0.441617
O13	O	1.453902	-0.570482	0.740979
O14	O	1.283535	-0.570536	0.570648
O15	O	1.582993	-0.441442	0.741005
O16	O	1.582817	-0.740929	0.441589
O17	O	1.453802	-0.740870	0.570632
C18	C	1.245417	-0.506034	0.506131
C19	C	1.128641	-0.506051	0.506150
C20	C	1.518326	-0.779021	0.506128
C21	C	1.518397	-0.895797	0.506156
C22	C	1.073803	-0.573329	0.573225
C23	C	0.964079	-0.573342	0.573236
C24	C	0.964040	-0.438796	0.439088
C25	C	1.073762	-0.438779	0.439083
C26	C	1.073824	-0.651011	0.650671
C27	C	0.964100	-0.651024	0.650683
C28	C	1.652713	-0.895597	0.640643
C29	C	1.719903	-0.950358	0.707895
C30	C	1.719966	-1.060079	0.707918
C31	C	1.652828	-1.115043	0.640684
C32	C	1.585637	-1.060282	0.573432
C33	C	1.585584	-0.950558	0.573414
C34	C	1.451318	-1.060482	0.438951
C35	C	1.451260	-0.950761	0.438921
C36	C	1.384181	-1.115446	0.371717
C37	C	1.316994	-1.060685	0.304458
C38	C	1.316935	-0.950957	0.304437
C39	C	1.384069	-0.896000	0.371669
C40	C	1.792418	-0.506073	0.506160
C41	C	1.909194	-0.506082	0.506166
C42	C	1.518458	-0.505947	0.780179
C43	C	1.518489	-0.505902	0.896955
C44	C	1.518472	-0.232020	0.506186
C45	C	1.518509	-0.115243	0.506203
C46	C	1.518372	-0.506083	0.233178
C47	C	1.518544	-0.505832	0.116402
C48	C	1.585716	-0.438704	0.951833
C49	C	1.585741	-0.438666	1.061557
C50	C	1.451310	-0.573033	1.061517
C51	C	1.451280	-0.573065	0.951795
C52	C	1.663333	-0.361132	0.951857
C53	C	1.663358	-0.361094	1.061581
H54	H	1.118407	-0.383988	0.384471
H55	H	1.634243	-0.283785	1.095627
H56	H	1.262216	-0.906376	0.249677
H57	H	0.919345	-0.384025	0.384486
C58	C	1.384002	-0.775310	0.371656
H59	H	1.433601	-0.750423	0.421335
H60	H	1.402181	-0.750512	0.303870
H61	H	1.316177	-0.750536	0.389780
C62	C	1.773270	-0.390557	1.101817
H63	H	1.818452	-0.402709	1.043907
H64	H	1.800347	-0.334867	1.143195
H65	H	1.768812	-0.452295	1.143162
C66	C	1.114100	-0.621691	0.760636
H67	H	1.056207	-0.609633	0.805863
H68	H	1.155466	-0.677403	0.787574
H69	H	1.155464	-0.559927	0.756310
C70	C	1.377311	-0.646962	0.891433
H71	H	1.337293	-0.686957	0.939810
H72	H	1.331545	-0.606765	0.848643
H73	H	1.417463	-0.692768	0.848616
H74	H	1.740605	-0.390300	0.917821
H75	H	1.107839	-0.728263	0.621388
H76	H	1.396588	-0.627712	1.106180
C77	C	1.633910	-0.251226	0.911649
H78	H	1.621819	-0.206005	0.969571
H79	H	1.689593	-0.224204	0.870296
H80	H	1.572145	-0.255667	0.870286
H81	H	0.934306	-0.732374	0.628752
C82	C	0.918163	-0.611790	0.755172
H83	H	0.973632	-0.594316	0.801699
H84	H	0.876260	-0.551524	0.742796
H85	H	0.876266	-0.665340	0.785490
C86	C	1.652648	-0.774907	0.640621
H87	H	1.702248	-0.750016	0.690297
H88	H	1.670827	-0.750117	0.572832
H89	H	1.584824	-0.750129	0.658743
C90	C	1.384242	-1.236136	0.371738
H91	H	1.334631	-1.261025	0.322072
H92	H	1.452060	-1.260920	0.353626
H93	H	1.366052	-1.260923	0.439532
H94	H	1.774667	-1.104665	0.762691
C95	C	1.793732	-0.889902	0.781868
H96	H	1.833744	-0.938231	0.821935
H97	H	1.839510	-0.847081	0.741725
H98	H	1.753475	-0.847110	0.827604
C99	C	1.652894	-1.235733	0.640713
H100	H	1.702527	-1.260474	0.690393
H101	H	1.585100	-1.260595	0.658830
H102	H	1.671115	-1.260589	0.572931
C103	C	1.243153	-1.121144	0.230511
H104	H	1.252814	-1.194333	0.240156
H105	H	1.172546	-1.103204	0.245822
H106	H	1.258562	-1.103209	0.159924
