data_functionalizedCrystal
_audit_creation_method	'MofGen! by Chris Wilmer'
_symmetry_space_group_name_H-M	'P1'
_symmetry_Int_Tables_number	1
_symmetry_cell_setting	triclinic
loop_
_symmetry_equiv_pos_as_xyz
  x,y,z
_cell_length_a	14.560438
_cell_length_b	27.440280
_cell_length_c	14.560438
_cell_angle_alpha	59.991886
_cell_angle_beta	90.000105
_cell_angle_gamma	60.000748
loop_
_atom_site_label
_atom_site_type_symbol
_atom_site_fract_x
_atom_site_fract_y
_atom_site_fract_z
Zr1	Zr	0.884727	0.533476	-0.120674
O2	O	0.738071	0.635157	-0.267355
O3	O	0.929689	0.431797	-0.075687
O4	O	0.929682	0.533477	-0.267322
O5	O	0.738079	0.533475	0.075421
O6	O	1.080822	0.533477	-0.267320
O7	O	0.738078	0.533477	-0.075720
O8	O	1.080835	0.351589	0.075480
O9	O	0.738065	0.715363	-0.267379
O10	O	1.061654	0.473618	-0.056525
O11	O	0.948859	0.473618	0.056269
O12	O	0.948851	0.593333	-0.169357
O13	O	0.836057	0.593333	-0.056564
Zr14	Zr	1.125778	0.533473	0.120382
Zr15	Zr	1.125778	0.533475	-0.120670
Zr16	Zr	0.884727	0.533474	0.120378
Zr17	Zr	0.884717	0.661396	-0.120712
Zr18	Zr	1.125787	0.405554	0.120420
O19	O	1.080815	0.635152	0.075395
O20	O	1.080815	0.635155	-0.267350
O21	O	0.738071	0.635154	0.075390
O22	O	1.272434	0.431792	0.267063
O23	O	1.272433	0.431795	-0.075682
O24	O	0.929690	0.431794	0.267058
O25	O	1.272426	0.533474	-0.075713
O26	O	1.080823	0.533472	0.267030
O27	O	0.929682	0.533473	0.267028
O28	O	1.272426	0.533472	0.075428
O29	O	0.929669	0.715362	-0.267377
O30	O	1.080836	0.351587	0.267085
O31	O	1.272439	0.351586	0.267087
O32	O	1.272439	0.351588	0.075483
O33	O	0.738065	0.715361	-0.075775
O34	O	0.929669	0.715360	-0.075772
O35	O	1.061654	0.473616	0.169065
O36	O	1.174448	0.473616	0.056272
O37	O	1.061645	0.593332	-0.056561
O38	O	0.948851	0.593331	0.056232
C39	C	1.005264	0.373467	-0.000098
C40	C	1.005268	0.319162	-0.000082
C41	C	0.703734	0.533476	-0.000150
C42	C	0.601401	0.533477	-0.000152
C43	C	0.457172	0.533472	-0.083408
C44	C	0.553320	0.533477	-0.083416
C45	C	0.553324	0.533479	0.083120
C46	C	0.457173	0.533479	0.083123
C47	C	0.457174	0.533468	-0.179553
C48	C	0.553321	0.533473	-0.179562
C49	C	0.921983	0.026665	-0.083458
C50	C	0.921982	-0.024352	-0.083469
O51	O	0.851190	-0.013159	-0.154321
N52	N	1.005248	-0.094058	-0.000190
C53	C	1.088527	-0.112746	0.083100
O54	O	1.159352	-0.176720	0.153934
C55	C	1.088532	-0.061729	0.083106
C56	C	1.005253	0.007976	-0.000172
C57	C	0.838712	0.096367	-0.166730
C58	C	0.838712	0.147380	-0.166717
C59	C	0.921983	0.128692	-0.083431
C60	C	1.005253	0.058990	-0.000159
C61	C	1.171815	-0.080418	0.166390
C62	C	1.171812	-0.029394	0.166389
C63	C	1.088534	0.040311	0.083110
C64	C	1.088524	0.091314	0.083140
N65	N	1.005258	0.161020	-0.000140
C66	C	0.921987	0.179708	-0.083425
C67	C	1.088513	-0.219881	0.083079
C68	C	1.088505	-0.270897	0.083079
C69	C	0.921960	-0.182500	-0.083492
C70	C	0.921965	-0.131483	-0.083486
C71	C	1.005247	-0.150176	-0.000200
C72	C	0.921992	0.286837	-0.083390
C73	C	0.921997	0.337851	-0.083367
C74	C	1.088544	0.249449	0.083200
C75	C	1.088537	0.198439	0.083180
C76	C	1.005256	0.217138	-0.000124
O77	O	1.159283	0.080172	0.153953
O78	O	0.851182	0.243682	-0.154256
C79	C	1.306771	0.533473	-0.000142
C80	C	1.409103	0.533472	-0.000140
C81	C	1.005252	0.533477	-0.301666
C82	C	1.005252	0.533478	-0.403998
C83	C	1.005241	0.693482	-0.000194
C84	C	1.005237	0.747787	-0.000211
C85	C	0.946365	0.595967	-0.510972
C86	C	0.946369	0.595964	-0.607121
C87	C	1.064147	0.470977	-0.489309
C88	C	1.064149	0.470981	-0.393162
C89	C	0.878363	0.668127	-0.578991
C90	C	0.878366	0.668124	-0.675140
C91	C	1.005253	0.533472	0.301373
C92	C	1.005253	0.533471	0.403706
C93	C	1.306782	0.373465	-0.000094
C94	C	1.409119	0.319160	-0.000076
C95	C	1.005264	0.373464	0.301422
C96	C	1.005268	0.319158	0.403771
C97	C	1.306782	0.373463	0.301426
C98	C	1.409119	0.319156	0.403777
C99	C	0.703722	0.693486	-0.301718
C100	C	0.601386	0.747793	-0.404069
C101	C	0.703722	0.693484	-0.000199
C102	C	0.601386	0.747789	-0.000216
C103	C	1.005241	0.693485	-0.301714
C104	C	1.005237	0.747791	-0.404063
C105	C	1.398299	0.293658	-0.058956
C106	C	1.494446	0.242639	-0.058962
C107	C	1.601411	0.217120	-0.000080
C108	C	1.612228	0.242626	0.058802
C109	C	1.516082	0.293648	0.058801
C110	C	1.064147	0.293655	0.510724
C111	C	1.064147	0.242636	0.606901
C112	C	1.005273	0.217117	0.596123
C113	C	0.946386	0.242626	0.489159
C114	C	0.946381	0.293648	0.392984
C115	C	1.516065	0.293653	0.392965
C116	C	1.612230	0.242634	0.489125
C117	C	1.601447	0.217114	0.596096
C118	C	1.494490	0.242622	0.606906
C119	C	1.398327	0.293644	0.510747
C120	C	0.494440	0.773302	-0.393257
C121	C	0.398274	0.824337	-0.489417
C122	C	0.409057	0.849860	-0.596388
C123	C	0.516015	0.824349	-0.607198
C124	C	0.612177	0.773318	-0.511039
C125	C	0.612205	0.773296	0.058654
C126	C	0.516058	0.824329	0.058633
C127	C	0.409094	0.849851	-0.000252
C128	C	0.398277	0.824342	-0.059130
C129	C	0.494422	0.773313	-0.059115
C130	C	1.064122	0.773293	-0.393249
C131	C	1.064140	0.824312	-0.489408
C132	C	1.005266	0.849832	-0.596380
C133	C	0.946379	0.824325	-0.607192
C134	C	0.946368	0.773303	-0.511034
H135	H	0.418028	0.533488	0.150917
H136	H	0.524781	0.845135	-0.694305
F137	F	0.284427	0.851509	-0.121792
H138	H	0.311195	0.845100	-0.480594
H139	H	1.699310	0.221870	0.480304
F140	F	0.482938	0.746147	-0.279419
H141	H	0.898411	0.752545	-0.519855
F142	F	1.284510	0.320778	0.522271
F143	F	1.126819	0.404472	-0.279313
H144	H	1.005286	0.175572	0.674444
F145	F	1.260451	-0.154597	0.255029
H146	H	1.239633	-0.044623	0.234211
F147	F	0.936980	0.697400	-0.741723
H148	H	1.699332	0.221841	0.106741
H149	H	0.592472	0.533485	0.150910
F150	F	1.284468	0.320811	-0.121634
H151	H	0.898438	0.314406	0.305902
H152	H	0.485597	0.752547	-0.107051
F153	F	1.527615	0.320779	0.121480
F154	F	1.126828	0.215495	0.720729
F155	F	1.482910	0.215500	-0.121631
H156	H	1.679758	0.175569	0.674386
F157	F	0.760693	0.704333	-0.743378
F158	F	1.703729	0.162817	-0.000087
F159	F	0.306701	0.904172	-0.698721
H160	H	0.898452	0.221841	0.480400
F161	F	1.126818	0.320802	0.522220
H162	H	0.854174	0.394609	-0.151181
F163	F	1.483031	0.215455	0.720761
F164	F	1.126825	0.404467	-0.477788
F165	F	1.527567	0.320807	0.279127
F166	F	0.927788	0.704345	-0.579025
H167	H	1.156338	0.141680	0.151003
H168	H	1.112065	0.752522	-0.306155
H169	H	0.791312	0.690520	-0.570271
H170	H	0.699255	0.752549	-0.519855
F171	F	1.005285	0.904137	-0.698710
H172	H	0.699293	0.752521	0.106613
H173	H	0.385875	0.581442	-0.261688
F174	F	0.527594	0.851467	0.121305
F175	F	0.306776	0.904160	-0.000257
F176	F	1.126813	0.851453	-0.477877
H177	H	0.473991	0.483969	-0.162731
H178	H	0.536503	0.582968	-0.256067
F179	F	0.646519	0.470767	-0.168712
F180	F	0.883716	0.851497	-0.721048
F181	F	0.750077	0.221563	-0.255356
F182	F	0.833356	0.306746	-0.172053
H183	H	0.770902	0.111596	-0.234557
H184	H	0.854146	-0.074728	-0.151292
H185	H	0.854161	-0.167290	-0.151311
H186	H	1.156308	-0.327652	0.150903
H187	H	1.156330	-0.235111	0.150911
H188	H	1.156339	0.234243	0.151011
