data_functionalizedCrystal
_audit_creation_method	'MofGen! by Chris Wilmer'
_symmetry_space_group_name_H-M	'P1'
_symmetry_Int_Tables_number	1
_symmetry_cell_setting	triclinic
loop_
_symmetry_equiv_pos_as_xyz
  x,y,z
_cell_length_a	29.839131
_cell_length_b	29.839135
_cell_length_c	29.839125
_cell_angle_alpha	89.984512
_cell_angle_beta	89.982291
_cell_angle_gamma	90.043950
loop_
_atom_site_label
_atom_site_type_symbol
_atom_site_fract_x
_atom_site_fract_y
_atom_site_fract_z
Zn1	Zn	-0.178886	0.686720	-0.254047
Zn2	Zn	0.321114	1.186720	0.245953
Zn3	Zn	-0.253998	0.686652	-0.178917
Zn4	Zn	0.246002	1.186652	0.321083
Zn5	Zn	-0.178886	0.611602	-0.178925
Zn6	Zn	0.321114	1.111602	0.321075
Zn7	Zn	-0.253993	0.611550	-0.254014
Zn8	Zn	0.246007	1.111550	0.245986
O9	O	-0.216441	0.649131	-0.216476
O10	O	0.283559	1.149131	0.283524
O11	O	-0.188852	0.749578	-0.244092
O12	O	0.311148	1.249578	0.255908
O13	O	-0.244036	0.676690	-0.116051
O14	O	0.255964	1.176690	0.383949
O15	O	-0.116019	0.621617	-0.188908
O16	O	0.383981	1.121617	0.311092
O17	O	-0.244036	0.749528	-0.188894
O18	O	0.255964	1.249528	0.311106
O19	O	-0.116019	0.676805	-0.244099
O20	O	0.383981	1.176805	0.255901
O21	O	-0.188852	0.621551	-0.116057
O22	O	0.311148	1.121551	0.383943
O23	O	-0.188847	0.548728	-0.188876
O24	O	0.311153	1.048728	0.311124
O25	O	-0.244028	0.621528	-0.316886
O26	O	0.255972	1.121528	0.183114
O27	O	-0.244028	0.548690	-0.244043
O28	O	0.255972	1.048690	0.255957
O29	O	-0.188847	0.676755	-0.316910
O30	O	0.311153	1.176755	0.183090
O31	O	-0.316865	0.676639	-0.188862
O32	O	0.183135	1.176639	0.311138
O33	O	-0.316861	0.621462	-0.244035
O34	O	0.183139	1.121462	0.255965
C35	C	-0.216437	0.532408	-0.216457
C36	C	0.283563	1.032408	0.283543
C37	C	-0.216447	0.482474	-0.216459
C38	C	0.283553	0.982474	0.283541
C39	C	-0.187750	0.172854	-0.245260
C40	C	0.312250	0.672854	0.254740
C41	C	-0.187753	-0.014819	-0.245273
C42	C	0.312247	0.485181	0.254727
O43	O	-0.163344	-0.039065	-0.269738
O44	O	0.336656	0.460935	0.230262
N45	N	-0.216441	-0.038311	-0.216492
N46	N	0.283559	0.461689	0.283508
C47	C	-0.245129	-0.014882	-0.187705
C48	C	0.254871	0.485118	0.312295
O49	O	-0.269527	-0.039169	-0.163223
O50	O	0.230473	0.460831	0.336777
C51	C	-0.245123	0.172791	-0.187690
C52	C	0.254877	0.672791	0.312310
C53	C	-0.216436	0.196280	-0.216475
C54	C	0.283564	0.696280	0.283525
C55	C	-0.159065	0.196343	-0.274042
C56	C	0.340935	0.696343	0.225958
C57	C	-0.159066	0.243258	-0.274040
C58	C	0.340934	0.743258	0.225960
C59	C	-0.187752	0.266684	-0.245256
C60	C	0.312248	0.766684	0.254744
C61	C	-0.216437	0.243195	-0.216474
C62	C	0.283563	0.743195	0.283526
C63	C	-0.273808	0.196219	-0.158901
C64	C	0.226192	0.696219	0.341099
C65	C	-0.273803	0.243140	-0.158899
C66	C	0.226197	0.743140	0.341101
C67	C	-0.245116	0.266630	-0.187684
C68	C	0.254884	0.766630	0.312316
C69	C	-0.245125	0.313537	-0.187688
C70	C	0.254875	0.813537	0.312312
N71	N	-0.216437	0.337029	-0.216468
N72	N	0.283563	0.837029	0.283532
C73	C	-0.187750	0.313602	-0.245252
C74	C	0.312250	0.813602	0.254748
C75	C	-0.245130	-0.113412	-0.187715
C76	C	0.254870	0.386588	0.312285
C77	C	-0.245133	-0.160330	-0.187720
C78	C	0.254867	0.339670	0.312280
C79	C	-0.187756	-0.160265	-0.245287
C80	C	0.312244	0.339735	0.254713
C81	C	-0.187756	-0.113346	-0.245284
C82	C	0.312244	0.386654	0.254716
C83	C	-0.216442	-0.089921	-0.216495
C84	C	0.283558	0.410079	0.283505
C85	C	-0.187755	0.412128	-0.245246
C86	C	0.312245	0.912128	0.254754
C87	C	-0.187760	0.459048	-0.245243
C88	C	0.312240	0.959048	0.254757
C89	C	-0.245135	0.458978	-0.187675
C90	C	0.254865	0.958978	0.312325
C91	C	-0.245132	0.412063	-0.187679
C92	C	0.254868	0.912063	0.312321
C93	C	-0.216438	0.388639	-0.216467
C94	C	0.283562	0.888639	0.283533
O95	O	-0.269518	0.337811	-0.163231
O96	O	0.230482	0.837811	0.336769
O97	O	-0.163349	0.337898	-0.269724
O98	O	0.336651	0.837898	0.230276
C99	C	-0.187749	0.125938	-0.245262
C100	C	0.312251	0.625938	0.254738
C101	C	-0.216434	0.102449	-0.216479
C102	C	0.283566	0.602449	0.283521
C103	C	-0.245120	0.125875	-0.187695
C104	C	0.254880	0.625875	0.312305
C105	C	-0.216436	0.055531	-0.216483
C106	C	0.283564	0.555531	0.283517
C107	C	-0.187749	0.032105	-0.245267
C108	C	0.312251	0.532105	0.254733
C109	C	-0.159061	0.055596	-0.274048
C110	C	0.340939	0.555596	0.225952
C111	C	-0.159062	0.102512	-0.274046
C112	C	0.340938	0.602512	0.225954
C113	C	-0.273808	0.102384	-0.158915
C114	C	0.226192	0.602384	0.341085
C115	C	-0.273805	0.055468	-0.158919
C116	C	0.226195	0.555468	0.341081
C117	C	-0.245119	0.032042	-0.187703
C118	C	0.254881	0.532042	0.312297
C119	C	-0.333163	0.649050	-0.216454
C120	C	0.166837	1.149050	0.283546
C121	C	-0.383098	0.649056	-0.216459
C122	C	0.116902	1.149056	0.283541
C123	C	-0.692730	0.677914	-0.187789
C124	C	-0.192730	1.177914	0.312211
C125	C	-0.880403	0.677969	-0.187807
C126	C	-0.380403	1.177969	0.312193
O127	O	-0.904659	0.702441	-0.163413
O128	O	-0.404659	1.202441	0.336587
N129	N	-0.903883	0.649224	-0.216510
N130	N	-0.403883	1.149224	0.283490
C131	C	-0.880441	0.620465	-0.245213
C132	C	-0.380441	1.120465	0.254787
O133	O	-0.904718	0.596020	-0.269630
O134	O	-0.404718	1.096020	0.230370
C135	C	-0.692769	0.620412	-0.245197
C136	C	-0.192769	1.120412	0.254803
C137	C	-0.669292	0.649156	-0.216489
C138	C	-0.169292	1.149156	0.283511
C139	C	-0.669253	0.706656	-0.159084
C140	C	-0.169253	1.206656	0.340916
C141	C	-0.622338	0.706640	-0.159078
C142	C	-0.122338	1.206640	0.340922
C143	C	-0.598900	0.677882	-0.187778
C144	C	-0.098900	1.177882	0.312222
C145	C	-0.622377	0.649140	-0.216483
C146	C	-0.122377	1.149140	0.283517
C147	C	-0.669328	0.591656	-0.273902
C148	C	-0.169328	1.091656	0.226098
C149	C	-0.622407	0.591646	-0.273897
C150	C	-0.122407	1.091646	0.226103
C151	C	-0.598930	0.620390	-0.245188
C152	C	-0.098930	1.120390	0.254812
C153	C	-0.552023	0.620367	-0.245177
C154	C	-0.052023	1.120367	0.254823
N155	N	-0.528543	0.649112	-0.216474
N156	N	-0.028543	1.149112	0.283526
C157	C	-0.551982	0.677869	-0.187774
C158	C	-0.051982	1.177869	0.312226
C159	C	-0.978972	0.620494	-0.245218
C160	C	-0.478972	1.120494	0.254782
C161	C	-1.025889	0.620507	-0.245222
C162	C	-0.525889	1.120507	0.254778
C163	C	-1.025849	0.678012	-0.187816
C164	C	-0.525849	1.178012	0.312184
C165	C	-0.978930	0.677997	-0.187811
C166	C	-0.478930	1.177997	0.312189
C167	C	-0.955492	0.649239	-0.216515
C168	C	-0.455492	1.149239	0.283485
C169	C	-0.453456	0.677834	-0.187764
C170	C	0.046544	1.177834	0.312236
C171	C	-0.406536	0.677814	-0.187759
C172	C	0.093464	1.177814	0.312241
C173	C	-0.406581	0.620311	-0.245167
C174	C	0.093419	1.120311	0.254833
C175	C	-0.453497	0.620329	-0.245170
C176	C	0.046503	1.120329	0.254830
C177	C	-0.476933	0.649094	-0.216467
C178	C	0.023067	1.149094	0.283533
O179	O	-0.527738	0.595912	-0.269561
O180	O	-0.027738	1.095912	0.230439
O181	O	-0.527697	0.702318	-0.163367
O182	O	-0.027697	1.202318	0.336633
C183	C	-0.739646	0.677930	-0.187795
C184	C	-0.239646	1.177930	0.312205
C185	C	-0.763123	0.649188	-0.216501
C186	C	-0.263123	1.149188	0.283499
C187	C	-0.739684	0.620430	-0.245200
C188	C	-0.239684	1.120430	0.254800
C189	C	-0.810041	0.649200	-0.216504
C190	C	-0.310041	1.149200	0.283496
C191	C	-0.833479	0.677958	-0.187804
C192	C	-0.333479	1.177958	0.312196
C193	C	-0.810000	0.706703	-0.159101
C194	C	-0.310000	1.206703	0.340899
C195	C	-0.763084	0.706687	-0.159095
C196	C	-0.263084	1.206687	0.340905
C197	C	-0.763164	0.591685	-0.273904
C198	C	-0.263164	1.091685	0.226096
C199	C	-0.810079	0.591703	-0.273907
C200	C	-0.310079	1.091703	0.226093
C201	C	-0.833518	0.620461	-0.245207
C202	C	-0.333518	1.120461	0.254793
C203	C	-0.099262	0.649225	-0.216508
C204	C	0.400738	1.149225	0.283492
C205	C	-0.049328	0.649265	-0.216522
C206	C	0.450672	1.149265	0.283478
C207	C	-0.216437	0.649143	-0.333654
C208	C	0.283563	1.149143	0.166346
C209	C	-0.216435	0.649148	-0.383589
C210	C	0.283565	1.149148	0.116411
C211	C	-0.216445	0.766309	-0.216495
C212	C	0.283555	1.266309	0.283505
C213	C	-0.216446	0.816244	-0.216504
C214	C	0.283554	1.316244	0.283496
C215	C	-0.187627	0.677935	-0.693248
C216	C	0.312373	1.177935	-0.193248
C217	C	-0.187589	0.677957	-0.880921
C218	C	0.312411	1.177957	-0.380921
O219	O	-0.163138	0.702400	-0.905199
O220	O	0.336862	1.202400	-0.405199
N221	N	-0.216315	0.649208	-0.904374
N222	N	0.283685	1.149208	-0.404374
C223	C	-0.245050	0.620449	-0.880906
C224	C	0.254950	1.120449	-0.380906
O225	O	-0.269479	0.595993	-0.905160
O226	O	0.230521	1.095993	-0.405160
C227	C	-0.245086	0.620425	-0.693234
C228	C	0.254914	1.120425	-0.193234
C229	C	-0.216361	0.649179	-0.669783
C230	C	0.283639	1.149179	-0.169783
C231	C	-0.158905	0.706687	-0.669797
C232	C	0.341095	1.206687	-0.169797
C233	C	-0.158916	0.706683	-0.622882
C234	C	0.341084	1.206683	-0.122882
C235	C	-0.187650	0.677927	-0.599417
C236	C	0.312350	1.177927	-0.099417
C237	C	-0.216373	0.649175	-0.622868
C238	C	0.283627	1.149175	-0.122868
C239	C	-0.273819	0.591663	-0.669766
C240	C	0.226181	1.091663	-0.169766
C241	C	-0.273824	0.591659	-0.622845
C242	C	0.226176	1.091659	-0.122845
C243	C	-0.245100	0.620414	-0.599395
C244	C	0.254900	1.120414	-0.099395
C245	C	-0.245119	0.620415	-0.552487
C246	C	0.254881	1.120415	-0.052487
N247	N	-0.216393	0.649164	-0.529034
N248	N	0.283607	1.149164	-0.029034
C249	C	-0.187659	0.677920	-0.552499
C250	C	0.312341	1.177920	-0.052499
C251	C	-0.245030	0.620464	-0.979437
C252	C	0.254970	1.120464	-0.479437
C253	C	-0.245022	0.620471	-1.026354
C254	C	0.254978	1.120471	-0.526354
C255	C	-0.187560	0.677979	-1.026366
C256	C	0.312440	1.177979	-0.526366
C257	C	-0.187571	0.677974	-0.979448
C258	C	0.312429	1.177974	-0.479448
C259	C	-0.216304	0.649214	-0.955984
C260	C	0.283696	1.149214	-0.455984
C261	C	-0.187685	0.677910	-0.453973
C262	C	0.312315	1.177910	0.046027
C263	C	-0.187701	0.677904	-0.407054
C264	C	0.312299	1.177904	0.092946
C265	C	-0.245161	0.620395	-0.407046
C266	C	0.254839	1.120395	0.092954
C267	C	-0.245147	0.620402	-0.453961
C268	C	0.254853	1.120402	0.046039
C269	C	-0.216406	0.649161	-0.477424
C270	C	0.283594	1.149161	0.022576
O271	O	-0.269553	0.595982	-0.528180
O272	O	0.230447	1.095982	-0.028180
O273	O	-0.163226	0.702366	-0.528237
O274	O	0.336774	1.202366	-0.028237
C275	C	-0.187616	0.677939	-0.740163
C276	C	0.312384	1.177939	-0.240163
C277	C	-0.216338	0.649187	-0.763614
C278	C	0.283662	1.149187	-0.263614
C279	C	-0.245072	0.620431	-0.740149
C280	C	0.254928	1.120431	-0.240149
C281	C	-0.216330	0.649194	-0.810532
C282	C	0.283670	1.149194	-0.310532
C283	C	-0.187596	0.677950	-0.833997
C284	C	0.312404	1.177950	-0.333997
C285	C	-0.158870	0.706699	-0.810544
C286	C	0.341130	1.206699	-0.310544
C287	C	-0.158881	0.706695	-0.763628
C288	C	0.341119	1.206695	-0.263628
C289	C	-0.273798	0.591682	-0.763602
C290	C	0.226202	1.091682	-0.263602
C291	C	-0.273785	0.591689	-0.810518
C292	C	0.226215	1.091689	-0.310518
C293	C	-0.245050	0.620445	-0.833983
C294	C	0.254950	1.120445	-0.333983
C295	C	-0.216412	0.649145	-0.099753
C296	C	0.283588	1.149145	0.400247
C297	C	-0.216288	0.649227	-0.049819
C298	C	0.283712	1.149227	0.450181
H299	H	-0.135705	0.262379	-0.297480
H300	H	0.364295	0.762379	0.202520
C301	C	-0.127505	0.029821	-0.305710
C302	C	0.372495	0.529821	0.194290
C303	C	-0.131244	0.036278	-0.356776
C304	C	0.368756	0.536278	0.143224
C305	C	-0.099688	0.010500	-0.388434
C306	C	0.400312	0.510500	0.111566
C307	C	-0.064392	-0.021734	-0.369026
C308	C	0.435608	0.478266	0.130974
C309	C	-0.060650	-0.028192	-0.317957
C310	C	0.439350	0.471808	0.182043
C311	C	-0.092207	-0.002414	-0.286299
C312	C	0.407793	0.497586	0.213701
H313	H	-0.157374	0.060141	-0.371145
H314	H	0.342626	0.560141	0.128855
H315	H	-0.102458	0.015281	-0.426238
H316	H	0.397542	0.515281	0.073762
H317	H	-0.041032	-0.040816	-0.392461
H318	H	0.458968	0.459184	0.107539
H319	H	-0.034520	-0.052055	-0.303588
H320	H	0.465480	0.447945	0.196412
H321	H	-0.089437	-0.007195	-0.248495
H322	H	0.410563	0.492805	0.251505
H323	H	-0.688332	0.730076	-0.135713
H324	H	-0.188332	1.230076	0.364287
C325	C	-0.156199	-0.186038	-0.276950
C326	C	0.343801	0.313962	0.223050
C327	C	-0.175719	-0.218297	-0.312186
C328	C	0.324281	0.281703	0.187814
C329	C	-0.144161	-0.244072	-0.343845
C330	C	0.355839	0.255928	0.156155
C331	C	-0.093084	-0.237588	-0.340268
C332	C	0.406916	0.262412	0.159732
C333	C	-0.073561	-0.205327	-0.305030
C334	C	0.426439	0.294673	0.194970
C335	C	-0.105119	-0.179552	-0.273371
C336	C	0.394881	0.320448	0.226629
H337	H	-0.213532	-0.223098	-0.314836
H338	H	0.286468	0.276902	0.185164
H339	H	-0.158613	-0.267953	-0.369931
H340	H	0.341387	0.232047	0.130069
H341	H	-0.069723	-0.256668	-0.363704
H342	H	0.430277	0.243332	0.136296
H343	H	-0.035748	-0.200526	-0.302380
H344	H	0.464252	0.299474	0.197620
H345	H	-0.090666	-0.155671	-0.247285
H346	H	0.409334	0.344329	0.252715
H347	H	-0.297180	0.568274	-0.829607
H348	H	0.202820	1.068274	-0.329607
C349	C	-0.305360	0.268908	-0.127231
C350	C	0.194640	0.768908	0.372769
C351	C	-0.285841	0.301166	-0.091993
C352	C	0.214159	0.801166	0.408007
C353	C	-0.317398	0.326932	-0.060327
C354	C	0.182602	0.826932	0.439673
C355	C	-0.368475	0.320441	-0.063899
C356	C	0.131525	0.820441	0.436101
C357	C	-0.387997	0.288182	-0.099139
C358	C	0.112003	0.788182	0.400861
C359	C	-0.356440	0.262415	-0.130805
C360	C	0.143560	0.762415	0.369195
H361	H	-0.248028	0.305972	-0.089348
H362	H	0.251972	0.805972	0.410652
H363	H	-0.302946	0.350813	-0.034241
H364	H	0.197054	0.850813	0.465759
H365	H	-0.391836	0.339515	-0.040458
H366	H	0.108164	0.839515	0.459542
H367	H	-0.425810	0.283375	-0.101784
H368	H	0.074190	0.783375	0.398216
H369	H	-0.370892	0.238535	-0.156891
H370	H	0.129108	0.738535	0.343109
H371	H	-0.603226	0.730047	-0.135702
H372	H	-0.103226	1.230047	0.364298
C373	C	-0.695142	0.560036	-0.305484
C374	C	-0.195142	1.060036	0.194516
C375	C	-0.727439	0.524781	-0.285995
C376	C	-0.227439	1.024781	0.214005
C377	C	-0.753251	0.493158	-0.317580
C378	C	-0.253251	0.993158	0.182420
C379	C	-0.746767	0.496792	-0.368653
C380	C	-0.246767	0.996792	0.131347
C381	C	-0.714469	0.532049	-0.388144
C382	C	-0.214469	1.032049	0.111856
C383	C	-0.688656	0.563672	-0.356560
C384	C	-0.188656	1.063672	0.143440
H385	H	-0.732241	0.522089	-0.248186
H386	H	-0.232241	1.022089	0.251814
H387	H	-0.777161	0.467059	-0.303151
H388	H	-0.277161	0.967059	0.196849
H389	H	-0.765875	0.473383	-0.392033
H390	H	-0.265875	0.973383	0.107967
H391	H	-0.709667	0.534741	-0.425954
H392	H	-0.209667	1.034741	0.074046
H393	H	-0.664747	0.589771	-0.370989
H394	H	-0.164747	1.089771	0.129011
C395	C	-0.127508	0.170580	-0.305711
C396	C	0.372492	0.670580	0.194289
C397	C	-0.131259	0.177058	-0.356774
C398	C	0.368741	0.677058	0.143226
C399	C	-0.099703	0.151300	-0.388449
C400	C	0.400297	0.651300	0.111551
C401	C	-0.064397	0.119065	-0.369061
C402	C	0.435603	0.619065	0.130939
C403	C	-0.060644	0.112586	-0.317996
C404	C	0.439356	0.612586	0.182004
C405	C	-0.092200	0.138344	-0.286321
C406	C	0.407800	0.638344	0.213679
H407	H	-0.157397	0.200921	-0.371128
H408	H	0.342603	0.700921	0.128872
H409	H	-0.102482	0.156096	-0.426250
H410	H	0.397518	0.656096	0.073750
H411	H	-0.041037	0.099998	-0.392509
H412	H	0.458963	0.599998	0.107491
H413	H	-0.034507	0.088723	-0.303642
H414	H	0.465493	0.588723	0.196358
H415	H	-0.089422	0.133548	-0.248520
H416	H	0.410578	0.633548	0.251480
C417	C	-0.276693	-0.186165	-0.156059
C418	C	0.223307	0.313835	0.343941
C419	C	-0.272947	-0.179725	-0.104994
C420	C	0.227053	0.320275	0.395006
C421	C	-0.304507	-0.205558	-0.073331
C422	C	0.195493	0.294442	0.426669
C423	C	-0.339812	-0.237830	-0.092732
C424	C	0.160188	0.262170	0.407268
C425	C	-0.343559	-0.244271	-0.143799
C426	C	0.156441	0.255729	0.356201
C427	C	-0.312000	-0.218438	-0.175463
C428	C	0.188000	0.281562	0.324537
H429	H	-0.246811	-0.155834	-0.090630
H430	H	0.253189	0.344166	0.409370
H431	H	-0.301732	-0.200789	-0.035527
H432	H	0.198268	0.299211	0.464473
H433	H	-0.363174	-0.256952	-0.069292
H434	H	0.136826	0.243048	0.430708
H435	H	-0.369696	-0.268162	-0.158163
H436	H	0.130304	0.231838	0.341837
H437	H	-0.314774	-0.223206	-0.213266
H438	H	0.185226	0.276794	0.286734
C439	C	-0.156201	0.484884	-0.276908
C440	C	0.343799	0.984884	0.223092
C441	C	-0.159944	0.478442	-0.327973
C442	C	0.340056	0.978442	0.172027
C443	C	-0.128385	0.504277	-0.359636
C444	C	0.371615	1.004277	0.140364
C445	C	-0.093084	0.536553	-0.340234
C446	C	0.406916	1.036553	0.159766
C447	C	-0.089340	0.542997	-0.289167
C448	C	0.410660	1.042997	0.210833
C449	C	-0.120899	0.517163	-0.257504
C450	C	0.379101	1.017163	0.242496
H451	H	-0.186077	0.454548	-0.342337
H452	H	0.313923	0.954548	0.157663
H453	H	-0.131157	0.499506	-0.397439
H454	H	0.368843	0.999506	0.102561
H455	H	-0.069723	0.555677	-0.363673
H456	H	0.430277	1.055677	0.136327
H457	H	-0.063207	0.566891	-0.274803
H458	H	0.436793	1.066891	0.225197
H459	H	-0.118127	0.521933	-0.219701
H460	H	0.381873	1.021933	0.280299
C461	C	-0.276638	0.588820	-0.953634
C462	C	0.223362	1.088820	-0.453634
C463	C	-0.257176	0.553552	-0.921386
C464	C	0.242824	1.053552	-0.421386
C465	C	-0.288785	0.521906	-0.895588
C466	C	0.211215	1.021906	-0.395588
C467	C	-0.339855	0.525527	-0.902039
C468	C	0.160145	1.025527	-0.402039
C469	C	-0.359319	0.560796	-0.934289
C470	C	0.140681	1.060796	-0.434289
C471	C	-0.327711	0.592443	-0.960087
C472	C	0.172289	1.092443	-0.460087
H473	H	-0.219369	0.550870	-0.916609
H474	H	0.280631	1.050870	-0.416609
H475	H	-0.274376	0.495797	-0.871715
H476	H	0.225624	0.995797	-0.371715
H477	H	-0.363253	0.502101	-0.882942
H478	H	0.136747	1.002101	-0.382942
H479	H	-0.397127	0.563478	-0.939066
H480	H	0.102873	1.063478	-0.439066
H481	H	-0.342120	0.618551	-0.983960
H482	H	0.157880	1.118551	-0.483960
C483	C	-0.276688	0.484753	-0.156013
C484	C	0.223312	0.984753	0.343987
C485	C	-0.276683	0.536361	-0.156011
C486	C	0.223317	1.036361	0.343989
C487	C	-0.308234	0.562137	-0.124346
C488	C	0.191766	1.062137	0.375654
C489	C	-0.339790	0.536305	-0.092682
C490	C	0.160210	1.036305	0.407318
C491	C	-0.339796	0.484694	-0.092682
C492	C	0.160204	0.984694	0.407318
C493	C	-0.308246	0.458918	-0.124347
C494	C	0.191754	0.958918	0.375653
H495	H	-0.253322	0.555486	-0.179452
H496	H	0.246678	1.055486	0.320548
H497	H	-0.308229	0.600342	-0.124346
H498	H	0.191771	1.100342	0.375654
H499	H	-0.363146	0.555386	-0.069242
H500	H	0.136854	1.055386	0.430758
H501	H	-0.363157	0.465569	-0.069242
H502	H	0.136843	0.965569	0.430758
H503	H	-0.308251	0.420712	-0.124347
H504	H	0.191749	0.920712	0.375653
C505	C	-0.953107	0.709618	-0.156234
C506	C	-0.453107	1.209618	0.343766
C507	C	-0.959584	0.705990	-0.105160
C508	C	-0.459584	1.205990	0.394840
C509	C	-0.933764	0.737614	-0.073583
C510	C	-0.433764	1.237614	0.426417
C511	C	-0.901468	0.772865	-0.093081
C512	C	-0.401468	1.272865	0.406919
C513	C	-0.894990	0.776494	-0.144158
C514	C	-0.394990	1.276494	0.355842
C515	C	-0.920809	0.744870	-0.175735
C516	C	-0.420809	1.244870	0.324265
H517	H	-0.983493	0.679894	-0.090724
H518	H	-0.483493	1.179894	0.409276
H519	H	-0.938560	0.734927	-0.035772
H520	H	-0.438560	1.234927	0.464228
H521	H	-0.882354	0.796275	-0.069706
H522	H	-0.382354	1.296275	0.430294
H523	H	-0.871080	0.802590	-0.158593
H524	H	-0.371080	1.302590	0.341407
H525	H	-0.916014	0.747557	-0.213545
H526	H	-0.416014	1.247557	0.286455
C527	C	-0.156195	0.386366	-0.276914
C528	C	0.343805	0.886366	0.223086
C529	C	-0.159944	0.392835	-0.327978
C530	C	0.340056	0.892835	0.172022
C531	C	-0.128387	0.367073	-0.359647
C532	C	0.371613	0.867073	0.140353
C533	C	-0.093081	0.334841	-0.340253
C534	C	0.406919	0.834841	0.159747
C535	C	-0.089330	0.328370	-0.289187
C536	C	0.410670	0.828370	0.210813
C537	C	-0.120888	0.354132	-0.257518
C538	C	0.379112	0.854132	0.242482
H539	H	-0.186081	0.416697	-0.342337
H540	H	0.313919	0.916697	0.157663
H541	H	-0.131163	0.371863	-0.397450
H542	H	0.368837	0.871863	0.102550
H543	H	-0.069720	0.315770	-0.363697
H544	H	0.430280	0.815770	0.136303
H545	H	-0.063193	0.304509	-0.274828
H546	H	0.436807	0.804509	0.225172
H547	H	-0.118111	0.349342	-0.219715
H548	H	0.381889	0.849342	0.280285
C549	C	-0.156073	0.709547	-0.479778
C550	C	0.343927	1.209547	0.020222
C551	C	-0.159748	0.760614	-0.473329
C552	C	0.340252	1.260614	0.026671
C553	C	-0.128139	0.792253	-0.499134
C554	C	0.371861	1.292253	0.000866
C555	C	-0.092854	0.772826	-0.531387
C556	C	0.407146	1.272826	-0.031387
C557	C	-0.089177	0.721757	-0.537837
C558	C	0.410823	1.221757	-0.037837
C559	C	-0.120787	0.690117	-0.512032
C560	C	0.379213	1.190117	-0.012032
H561	H	-0.185869	0.774997	-0.449453
H562	H	0.314131	1.274997	0.050547
H563	H	-0.130861	0.830058	-0.494359
H564	H	0.369139	1.330058	0.005641
H565	H	-0.069455	0.796247	-0.550489
H566	H	0.430545	1.296247	-0.050489
H567	H	-0.063056	0.707373	-0.561713
H568	H	0.436944	1.207373	-0.061713
H569	H	-0.118065	0.652312	-0.516807
H570	H	0.381935	1.152312	-0.016807
H571	H	-0.297218	0.568233	-0.603743
H572	H	0.202782	1.068233	-0.103743
H573	H	-0.268491	-0.094343	-0.164271
H574	H	0.231509	0.405657	0.335729
C575	C	-0.596626	0.560010	-0.305471
C576	C	-0.096626	1.060010	0.194529
C577	C	-0.603136	0.508944	-0.301756
C578	C	-0.103136	1.008944	0.198244
C579	C	-0.577355	0.477307	-0.333328
C580	C	-0.077355	0.977307	0.166672
C581	C	-0.545065	0.496737	-0.368616
C582	C	-0.045065	0.996737	0.131384
C583	C	-0.538554	0.547807	-0.372332
C584	C	-0.038554	1.047807	0.127668
C585	C	-0.564334	0.579443	-0.340760
C586	C	-0.064334	1.079443	0.159240
H587	H	-0.627040	0.494558	-0.275633
H588	H	-0.127040	0.994558	0.224367
H589	H	-0.582176	0.439502	-0.330577
H590	H	-0.082176	0.939502	0.169423
H591	H	-0.525981	0.473318	-0.391988
H592	H	-0.025981	0.973318	0.108012
H593	H	-0.514649	0.562192	-0.398455
H594	H	-0.014649	1.062192	0.101545
H595	H	-0.559513	0.617248	-0.343511
H596	H	-0.059513	1.117248	0.156489
C597	C	-0.127295	0.738324	-0.695603
C598	C	0.372705	1.238324	-0.195603
C599	C	-0.130970	0.789390	-0.689149
C600	C	0.369030	1.289390	-0.189149
C601	C	-0.099360	0.821032	-0.714950
C602	C	0.400640	1.321032	-0.214950
C603	C	-0.064076	0.801608	-0.747206
C604	C	0.435924	1.301608	-0.247206
C605	C	-0.060400	0.750539	-0.753661
C606	C	0.439600	1.250539	-0.253661
C607	C	-0.092009	0.718897	-0.727860
C608	C	0.407991	1.218897	-0.227860
H609	H	-0.157090	0.803771	-0.665271
H610	H	0.342910	1.303771	-0.165271
H611	H	-0.102082	0.858836	-0.710172
H612	H	0.397918	1.358836	-0.210172
H613	H	-0.040677	0.825031	-0.766305
H614	H	0.459323	1.325031	-0.266305
H615	H	-0.034279	0.736158	-0.777540
H616	H	0.465721	1.236158	-0.277540
H617	H	-0.089287	0.681092	-0.732639
H618	H	0.410713	1.181092	-0.232639
C619	C	-0.305410	0.560047	-0.737799
C620	C	0.194590	1.060047	-0.237799
C621	C	-0.301742	0.508980	-0.744252
C622	C	0.198258	1.008980	-0.244252
C623	C	-0.333359	0.477343	-0.718453
C624	C	0.166641	0.977343	-0.218453
C625	C	-0.368644	0.496772	-0.686202
C626	C	0.131356	0.996772	-0.186202
C627	C	-0.372314	0.547842	-0.679748
C628	C	0.127686	1.047842	-0.179748
C629	C	-0.340697	0.579479	-0.705547
C630	C	0.159303	1.079479	-0.205547
H631	H	-0.275620	0.494594	-0.768127
H632	H	0.224380	0.994594	-0.268127
H633	H	-0.330642	0.439538	-0.723231
H634	H	0.169358	0.939538	-0.223231
H635	H	-0.392048	0.473353	-0.667105
H636	H	0.107952	0.973353	-0.167105
H637	H	-0.398435	0.562227	-0.655873
H638	H	0.101565	1.062227	-0.155873
H639	H	-0.343414	0.617284	-0.700769
H640	H	0.156586	1.117284	-0.200769
C641	C	-0.305367	0.128149	-0.127252
C642	C	0.194633	0.628149	0.372748
C643	C	-0.340670	0.160380	-0.146654
C644	C	0.159330	0.660380	0.353346
C645	C	-0.372233	0.186144	-0.114991
C646	C	0.127767	0.686144	0.385009
C647	C	-0.368494	0.179676	-0.063927
C648	C	0.131506	0.679676	0.436073
C649	C	-0.333190	0.147444	-0.044522
C650	C	0.166810	0.647444	0.455478
C651	C	-0.301627	0.121680	-0.076185
C652	C	0.198373	0.621680	0.423815
H653	H	-0.343439	0.165169	-0.184457
H654	H	0.156561	0.665169	0.315543
H655	H	-0.398368	0.210004	-0.129356
H656	H	0.101632	0.710004	0.370644
H657	H	-0.391859	0.198748	-0.040488
H658	H	0.108141	0.698748	0.459512
H659	H	-0.330421	0.142655	-0.006719
H660	H	0.169579	0.642655	0.493281
H661	H	-0.275492	0.097820	-0.061820
H662	H	0.224508	0.597820	0.438180
H663	H	-0.472613	0.596925	-0.268548
H664	H	0.027387	1.096925	0.231452
H665	H	-0.297170	0.036347	-0.135480
H666	H	0.202830	0.536347	0.364520
C667	C	-0.155949	0.709609	-1.052183
C668	C	0.344051	1.209609	-0.552183
C669	C	-0.175407	0.744867	-1.084444
C670	C	0.324593	1.244867	-0.584444
C671	C	-0.143795	0.776493	-1.110262
C672	C	0.356205	1.276493	-0.610262
C673	C	-0.092725	0.772860	-1.103820
C674	C	0.407275	1.272860	-0.603820
C675	C	-0.073264	0.737601	-1.071557
C676	C	0.426736	1.237601	-0.571557
C677	C	-0.104876	0.705975	-1.045739
C678	C	0.395124	1.205975	-0.545739
H679	H	-0.213215	0.747557	-1.089214
H680	H	0.286785	1.247557	-0.589214
H681	H	-0.158202	0.802594	-1.134145
H682	H	0.341798	1.302594	-0.634145
H683	H	-0.069324	0.796271	-1.122932
H684	H	0.430676	1.296271	-0.622932
H685	H	-0.035456	0.734910	-1.066786
H686	H	0.464544	1.234910	-0.566786
H687	H	-0.090469	0.679874	-1.021856
H688	H	0.409531	1.179874	-0.521856
C689	C	-0.380792	0.588680	-0.276736
C690	C	0.119208	1.088680	0.223264
C691	C	-0.348579	0.553417	-0.257232
C692	C	0.151421	1.053417	0.242768
C693	C	-0.322787	0.521789	-0.288804
C694	C	0.177213	1.021789	0.211196
C695	C	-0.329209	0.525425	-0.339880
C696	C	0.170791	1.025425	0.160120
C697	C	-0.361423	0.560690	-0.359387
C698	C	0.138577	1.060690	0.140613
C699	C	-0.387215	0.592318	-0.327815
C700	C	0.112785	1.092318	0.172185
H701	H	-0.343824	0.550724	-0.219420
H702	H	0.156176	1.050724	0.280580
H703	H	-0.298940	0.495684	-0.274364
H704	H	0.201060	0.995684	0.225636
H705	H	-0.310116	0.502012	-0.363252
H706	H	0.189884	1.002012	0.136748
H707	H	-0.366178	0.563383	-0.397199
H708	H	0.133822	1.063383	0.102801
H709	H	-0.411062	0.618423	-0.342255
H710	H	0.088938	1.118423	0.157745
C711	C	-0.276747	0.588781	-0.479767
C712	C	0.223253	1.088781	0.020233
C713	C	-0.312004	0.608229	-0.512025
C714	C	0.187996	1.108229	-0.012025
C715	C	-0.343601	0.576607	-0.537830
C716	C	0.156399	1.076607	-0.037830
C717	C	-0.339940	0.525536	-0.531376
C718	C	0.160060	1.025536	-0.031376
C719	C	-0.304681	0.506085	-0.499116
C720	C	0.195319	1.006085	0.000884
C721	C	-0.273084	0.537708	-0.473311
C722	C	0.226916	1.037708	0.026689
H723	H	-0.314716	0.646037	-0.516804
H724	H	0.185284	1.146037	-0.016804
H725	H	-0.369702	0.591006	-0.561711
H726	H	0.130298	1.091006	-0.061711
H727	H	-0.363330	0.502128	-0.550478
H728	H	0.136670	1.002128	-0.050478
H729	H	-0.301970	0.468278	-0.494337
H730	H	0.198030	0.968278	0.005663
H731	H	-0.246983	0.523308	-0.449430
H732	H	0.253017	1.023308	0.050570
C733	C	-0.479231	0.709472	-0.156188
C734	C	0.020769	1.209472	0.343812
C735	C	-0.472800	0.705834	-0.105114
C736	C	0.027200	1.205834	0.394886
C737	C	-0.498576	0.737469	-0.073536
C738	C	0.001424	1.237469	0.426464
C739	C	-0.530783	0.772742	-0.093032
C740	C	-0.030783	1.272742	0.406968
C741	C	-0.537215	0.776381	-0.144110
C742	C	-0.037215	1.276381	0.355890
C743	C	-0.511440	0.744746	-0.175688
C744	C	-0.011440	1.244746	0.324312
H745	H	-0.448957	0.679721	-0.090679
H746	H	0.051043	1.179721	0.409321
H747	H	-0.493813	0.734774	-0.035725
H748	H	0.006187	1.234774	0.464275
H749	H	-0.549863	0.796160	-0.069657
H750	H	-0.049863	1.296160	0.430343
H751	H	-0.561058	0.802494	-0.158545
H752	H	-0.061058	1.302494	0.341455
H753	H	-0.516202	0.747441	-0.213499
H754	H	-0.016202	1.247441	0.286501
C755	C	-0.127261	0.738331	-0.836361
C756	C	0.372739	1.238331	-0.336361
C757	C	-0.146723	0.773585	-0.868624
C758	C	0.353277	1.273585	-0.368624
C759	C	-0.115113	0.805212	-0.894444
C760	C	0.384887	1.305212	-0.394444
C761	C	-0.064043	0.801585	-0.888001
C762	C	0.435957	1.301585	-0.388001
C763	C	-0.044578	0.766329	-0.855737
C764	C	0.455422	1.266329	-0.355737
C765	C	-0.076187	0.734702	-0.829917
C766	C	0.423813	1.234702	-0.329917
H767	H	-0.184530	0.776272	-0.873395
H768	H	0.315470	1.276272	-0.373395
H769	H	-0.129522	0.831311	-0.918328
H770	H	0.370478	1.331311	-0.418328
H771	H	-0.040644	0.824997	-0.907114
H772	H	0.459356	1.324997	-0.407114
H773	H	-0.006770	0.763643	-0.850966
H774	H	0.493230	1.263643	-0.350966
H775	H	-0.061778	0.708603	-0.806032
H776	H	0.438222	1.208603	-0.306032
H777	H	-0.387423	0.701220	-0.164380
H778	H	0.112577	1.201220	0.335620
H779	H	-0.164180	0.701388	-0.960357
H780	H	0.335820	1.201388	-0.460357
C781	C	-0.953195	0.588857	-0.276795
C782	C	-0.453195	1.088857	0.223205
C783	C	-0.959707	0.537790	-0.273076
C784	C	-0.459707	1.037790	0.226924
C785	C	-0.933934	0.506151	-0.304652
C786	C	-0.433934	1.006151	0.195348
C787	C	-0.901649	0.525578	-0.339946
C788	C	-0.401649	1.025578	0.160054
C789	C	-0.895136	0.576647	-0.343666
C790	C	-0.395136	1.076647	0.156334
C791	C	-0.920909	0.608286	-0.312090
C792	C	-0.420909	1.108286	0.187910
H793	H	-0.983608	0.523407	-0.246948
H794	H	-0.483608	1.023407	0.253052
H795	H	-0.938756	0.468347	-0.301898
H796	H	-0.438756	0.968347	0.198102
H797	H	-0.882570	0.502157	-0.363320
H798	H	-0.382570	1.002157	0.136680
H799	H	-0.871236	0.591031	-0.369794
H800	H	-0.371236	1.091031	0.130206
H801	H	-0.916087	0.646091	-0.314844
H802	H	-0.416087	1.146091	0.185156
H803	H	-0.164396	-0.094224	-0.268723
H804	H	0.335604	0.405776	0.231277
H805	H	-0.268496	0.392937	-0.164245
H806	H	0.231504	0.892937	0.335755
H807	H	-0.297168	0.177102	-0.135460
H808	H	0.202832	0.677102	0.364540
C809	C	-0.737264	0.738309	-0.127517
C810	C	-0.237264	1.238309	0.372483
C811	C	-0.743747	0.734683	-0.076444
C812	C	-0.243747	1.234683	0.423556
C813	C	-0.717931	0.766307	-0.044865
C814	C	-0.217931	1.266307	0.455135
C815	C	-0.685632	0.801558	-0.064359
C816	C	-0.185632	1.301558	0.435641
C817	C	-0.679148	0.805186	-0.115436
C818	C	-0.179148	1.305186	0.384564
C819	C	-0.704965	0.773562	-0.147015
C820	C	-0.204965	1.273562	0.352985
H821	H	-0.767657	0.708586	-0.062010
H822	H	-0.267657	1.208586	0.437990
H823	H	-0.722731	0.763621	-0.007054
H824	H	-0.222731	1.263621	0.492946
H825	H	-0.666522	0.824969	-0.040983
H826	H	-0.166522	1.324969	0.459017
H827	H	-0.655238	0.831282	-0.129869
H828	H	-0.155238	1.331282	0.370131
H829	H	-0.700165	0.776248	-0.184825
H830	H	-0.200165	1.276248	0.315175
H831	H	-0.135702	0.121633	-0.297485
H832	H	0.364298	0.621633	0.202515
H833	H	-1.044940	0.701427	-0.164447
H834	H	-0.544940	1.201427	0.335553
H835	H	-0.297209	0.568248	-0.688852
H836	H	0.202791	1.068248	-0.188852
H837	H	-1.045000	0.597097	-0.268595
H838	H	-0.545000	1.097097	0.231405
H839	H	-0.829092	0.730118	-0.135731
H840	H	-0.329092	1.230118	0.364269
H841	H	-0.829190	0.568292	-0.297284
H842	H	-0.329190	1.068292	0.202716
H843	H	-0.744084	0.568268	-0.297275
H844	H	-0.244084	1.068268	0.202725
H845	H	-0.164310	0.701321	-0.387962
H846	H	0.335690	1.201321	0.112038
H847	H	-0.135525	0.730097	-0.603793
H848	H	0.364475	1.230097	-0.103793
H849	H	-0.268417	0.597061	-1.045444
H850	H	0.231583	1.097061	-0.545444
H851	H	-0.268557	0.596984	-0.387932
H852	H	0.231443	1.096984	0.112068
H853	H	-0.135491	0.730110	-0.744539
H854	H	0.364509	1.230110	-0.244539
