data_functionalizedCrystal
_audit_creation_method	'MofGen! by Chris Wilmer'
_symmetry_space_group_name_H-M	'P1'
_symmetry_Int_Tables_number	1
_symmetry_cell_setting	triclinic
loop_
_symmetry_equiv_pos_as_xyz
  x,y,z
_cell_length_a	18.050590
_cell_length_b	18.050590
_cell_length_c	18.050582
_cell_angle_alpha	90.023337
_cell_angle_beta	89.999233
_cell_angle_gamma	90.007719
loop_
_atom_site_label
_atom_site_type_symbol
_atom_site_fract_x
_atom_site_fract_y
_atom_site_fract_z
Zn1	Zn	1.135342	-0.295921	0.419598
Zn2	Zn	1.635342	0.204079	0.919598
Zn3	Zn	1.135274	-0.420105	0.295406
Zn4	Zn	1.635274	0.079895	0.795406
Zn5	Zn	1.011162	-0.295910	0.295456
Zn6	Zn	1.511162	0.204090	0.795456
Zn7	Zn	1.011131	-0.420051	0.419589
Zn8	Zn	1.511131	0.079949	0.919589
O9	O	1.073227	-0.357997	0.357512
O10	O	1.573227	0.142003	0.857512
O11	O	1.239258	-0.312422	0.403106
O12	O	1.739258	0.187578	0.903106
O13	O	1.118795	-0.403648	0.191488
O14	O	1.618795	0.096352	0.691488
O15	O	1.027676	-0.191987	0.311948
O16	O	1.527676	0.308013	0.811948
O17	O	1.239208	-0.403659	0.311863
O18	O	1.739208	0.096341	0.811863
O19	O	1.118911	-0.191995	0.403155
O20	O	1.618911	0.308005	0.903155
O21	O	1.027610	-0.312402	0.191525
O22	O	1.527610	0.187598	0.691525
O23	O	0.907233	-0.312350	0.311939
O24	O	1.407233	0.187650	0.811939
O25	O	1.027623	-0.403567	0.523514
O26	O	1.527623	0.096433	1.023514
O27	O	0.907210	-0.403555	0.403139
O28	O	1.407210	0.096445	0.903139
O29	O	1.118881	-0.312370	0.523521
O30	O	1.618881	0.187630	1.023521
O31	O	1.118765	-0.524022	0.311854
O32	O	1.618765	-0.024022	0.811854
O33	O	1.027557	-0.523982	0.403091
O34	O	1.527557	-0.023982	0.903091
C35	C	0.880275	-0.357946	0.357544
C36	C	1.380275	0.142054	0.857544
C37	C	0.797729	-0.357942	0.357575
C38	C	1.297729	0.142058	0.857575
C39	C	0.598288	-0.407682	0.407052
C40	C	1.098288	0.092318	0.907052
C41	C	0.548883	-0.339967	0.425328
C42	C	1.048883	0.160033	0.925328
C43	C	0.646599	-0.357984	0.357539
C44	C	1.146599	0.142016	0.857539
C45	C	0.548922	-0.425737	0.339262
C46	C	1.048922	0.074263	0.839262
C47	C	0.500614	-0.358030	0.357505
C48	C	1.000614	0.141970	0.857505
C49	C	0.598282	-0.290233	0.375850
C50	C	1.098282	0.209767	0.875850
C51	C	0.598324	-0.376049	0.289753
C52	C	1.098324	0.123951	0.789753
C53	C	0.548942	-0.308287	0.308004
C54	C	1.048942	0.191713	0.808004
C55	C	0.730697	-0.357958	0.357560
C56	C	1.230697	0.142042	0.857560
C57	C	0.416517	-0.358047	0.357484
C58	C	0.916517	0.141953	0.857484
C59	C	1.073170	-0.550949	0.357482
C60	C	1.573170	-0.050949	0.857482
C61	C	1.073214	-0.633494	0.357495
C62	C	1.573214	-0.133494	0.857495
C63	C	1.122915	-0.832940	0.307949
C64	C	1.622915	-0.332940	0.807949
C65	C	1.141051	-0.882282	0.375725
C66	C	1.641051	-0.382282	0.875725
C67	C	1.073256	-0.784625	0.357524
C68	C	1.573256	-0.284625	0.857524
C69	C	1.055196	-0.882364	0.289779
C70	C	1.555196	-0.382364	0.789779
C71	C	1.073298	-0.930610	0.357547
C72	C	1.573298	-0.430610	0.857547
C73	C	1.091426	-0.832880	0.425335
C74	C	1.591426	-0.332880	0.925335
C75	C	1.005539	-0.832958	0.339344
C76	C	1.505539	-0.332958	0.839344
C77	C	1.023649	-0.882278	0.407166
C78	C	1.523649	-0.382278	0.907166
C79	C	1.073233	-0.700527	0.357510
C80	C	1.573233	-0.200527	0.857510
C81	C	1.073320	-1.014706	0.357568
C82	C	1.573320	-0.514706	0.857568
C83	C	1.266933	-0.358048	0.357480
C84	C	1.766933	0.141952	0.857480
C85	C	1.349478	-0.358070	0.357467
C86	C	1.849478	0.141930	0.857467
C87	C	1.073256	-0.357964	0.551218
C88	C	1.573256	0.142036	1.051218
C89	C	1.073269	-0.357950	0.633763
C90	C	1.573269	0.142050	1.133763
C91	C	1.073305	-0.164291	0.357558
C92	C	1.573305	0.335709	0.857558
C93	C	1.073338	-0.081745	0.357578
C94	C	1.573338	0.418255	0.857578
C95	C	1.073241	-0.357976	0.164560
C96	C	1.573241	0.142024	0.664560
C97	C	1.073372	-0.357781	0.082014
C98	C	1.573372	0.142219	0.582014
C99	C	1.023680	-0.407475	0.833211
C100	C	1.523680	0.092525	1.333211
C101	C	1.091439	-0.425641	0.882583
C102	C	1.591439	0.074359	1.382583
C103	C	1.073305	-0.357893	0.784894
C104	C	1.573305	0.142107	1.284894
C105	C	1.005584	-0.339706	0.882603
C106	C	1.505584	0.160294	1.382603
C107	C	1.073335	-0.357840	0.930879
C108	C	1.573335	0.142160	1.430879
C109	C	1.141099	-0.376095	0.833179
C110	C	1.641099	0.123905	1.333179
C111	C	1.055199	-0.290128	0.833195
C112	C	1.555199	0.209872	1.333195
C113	C	1.123004	-0.308269	0.882545
C114	C	1.623004	0.191731	1.382545
C115	C	1.073287	-0.357926	0.700796
C116	C	1.573287	0.142074	1.200796
C117	C	1.073360	-0.357807	1.014976
C118	C	1.573360	0.142193	1.514976
H119	H	0.527236	-0.483016	0.323820
H120	H	1.027236	0.016984	0.823820
H121	H	0.948271	-0.811275	0.323932
H122	H	1.448271	-0.311275	0.823932
H123	H	1.106662	-0.811235	0.482685
H124	H	1.606662	-0.311235	0.982685
H125	H	0.948301	-0.324346	0.904313
H126	H	1.448301	0.175654	1.404313
N127	N	1.178554	-0.804228	0.252476
N128	N	1.678554	-0.304228	0.752476
H129	H	1.165423	-0.823001	0.201419
H130	H	1.665423	-0.323001	0.701419
H131	H	1.229688	-0.822174	0.266382
H132	H	1.729688	-0.322174	0.766382
N133	N	0.626875	-0.214340	0.396407
N134	N	1.126875	0.285660	0.896407
H135	H	0.583696	-0.179986	0.405680
H136	H	1.083696	0.320014	0.905680
H137	H	0.658083	-0.194242	0.354548
H138	H	1.158083	0.305758	0.854548
N139	N	1.216928	-0.910989	0.396109
N140	N	1.716928	-0.410989	0.896109
H141	H	1.216255	-0.966938	0.396438
H142	H	1.716255	-0.466938	0.896438
H143	H	1.230931	-0.892163	0.446912
H144	H	1.730931	-0.392163	0.946912
N145	N	1.178670	-0.252703	0.911071
N146	N	1.678670	0.247297	1.411071
H147	H	1.152414	-0.214071	0.941889
H148	H	1.652414	0.285929	1.441889
H149	H	1.204116	-0.227961	0.867825
H150	H	1.704116	0.272039	1.367825
N151	N	0.968033	-0.910784	0.462766
N152	N	1.468033	-0.410784	0.962766
H153	H	0.981782	-0.892680	0.513901
H154	H	1.481782	-0.392680	1.013901
H155	H	0.968057	-0.966732	0.462112
H156	H	1.468057	-0.466732	0.962112
H157	H	1.198399	-0.391520	0.811561
H158	H	1.698399	0.108480	1.311561
H159	H	0.619957	-0.449636	0.448970
H160	H	1.119957	0.050364	0.948970
N161	N	0.520109	-0.319744	0.501238
N162	N	1.020109	0.180256	1.001238
H163	H	0.538052	-0.357297	0.538618
H164	H	1.038052	0.142703	1.038618
H165	H	0.464164	-0.319429	0.500468
H166	H	0.964164	0.180571	1.000468
N167	N	1.034865	-0.214274	0.804424
N168	N	1.534865	0.285726	1.304424
H169	H	0.983660	-0.200601	0.822368
H170	H	1.483660	0.299399	1.322368
H171	H	1.035528	-0.214806	0.748479
H172	H	1.535528	0.285194	1.248479
H173	H	1.039903	-0.904100	0.232479
H174	H	1.539903	-0.404100	0.732479
N175	N	1.111742	-0.501519	0.911326
N176	N	1.611742	-0.001519	1.411326
H177	H	1.112073	-0.500812	0.967274
H178	H	1.612073	-0.000812	1.467274
H179	H	1.162528	-0.515584	0.892523
H180	H	1.662528	-0.015584	1.392523
H181	H	0.527412	-0.266230	0.266118
H182	H	1.027412	0.233770	0.766118
N183	N	0.968144	-0.463081	0.804508
N184	N	1.468144	0.036919	1.304508
H185	H	0.981933	-0.514238	0.822474
H186	H	1.481933	-0.014238	1.322474
H187	H	0.968217	-0.462309	0.748563
H188	H	1.468217	0.037691	1.248563
H189	H	0.620058	-0.391334	0.232459
H190	H	1.120058	0.108666	0.732459
