data_functionalizedCrystal
_audit_creation_method	'MofGen! by Chris Wilmer'
_symmetry_space_group_name_H-M	'P1'
_symmetry_Int_Tables_number	1
_symmetry_cell_setting	triclinic
loop_
_symmetry_equiv_pos_as_xyz
  x,y,z
_cell_length_a	17.699083
_cell_length_b	9.616153
_cell_length_c	10.540539
_cell_angle_alpha	90.003589
_cell_angle_beta	83.904253
_cell_angle_gamma	89.996194
loop_
_atom_site_label
_atom_site_type_symbol
_atom_site_fract_x
_atom_site_fract_y
_atom_site_fract_z
O1	O	1.005117	0.115442	0.160521
O2	O	0.784874	0.115486	0.181405
O3	O	0.900020	0.115464	-0.013835
O4	O	0.889971	0.115464	0.355762
O5	O	0.900016	-0.115828	-0.013849
O6	O	0.784870	-0.115805	0.181392
O7	O	1.005112	-0.115850	0.160508
Zn8	Zn	0.894990	-0.152550	0.170947
Zn9	Zn	0.894996	0.152186	0.170965
O10	O	0.889966	-0.115828	0.355748
C11	C	0.756670	-0.000154	0.180650
C12	C	0.672637	-0.000137	0.178405
C13	C	0.624761	-0.000137	0.293007
C14	C	0.545804	-0.000155	0.290890
C15	C	0.514725	-0.000163	0.174170
C16	C	0.562607	-0.000166	0.059559
C17	C	0.641562	-0.000158	0.061677
C18	C	0.244188	-0.000201	0.051014
C19	C	0.165226	-0.000205	0.048904
C20	C	0.148430	-0.000198	0.280227
C21	C	0.227386	-0.000189	0.282345
C22	C	0.275261	-0.000200	0.167735
C23	C	0.360875	-0.000184	0.170032
C24	C	0.429112	-0.000170	0.171872
N25	N	0.894991	-0.360525	0.170934
C26	C	0.956817	-0.580863	0.066847
C27	C	0.956650	-0.419696	0.066456
C28	C	0.815873	-0.419039	0.142251
C29	C	0.816241	-0.580257	0.141522
C30	C	0.911591	-0.580403	0.304080
C31	C	0.913377	-0.419175	0.303175
C32	C	1.033316	-0.000207	0.161263
C33	C	1.117349	-0.000215	0.163508
C34	C	0.899264	-0.000178	-0.061131
C35	C	0.897009	-0.000168	-0.202038
N36	N	0.895001	0.360161	0.170968
C37	C	0.890722	-0.000182	0.403044
C38	C	0.892977	-0.000183	0.543951
C39	C	0.979376	0.000334	0.725797
C40	C	0.977090	-0.000198	0.579221
C41	C	0.852495	-0.132250	0.606349
C42	C	0.855366	-0.132350	0.752841
C43	C	0.853660	0.130672	0.753390
C44	C	0.852885	0.132407	0.606422
H45	H	0.283159	-0.000211	-0.042309
H46	H	0.882467	0.230109	0.564945
H47	H	0.885281	-0.231083	0.780494
Cl48	Cl	0.758232	0.144835	0.570627
H49	H	1.012496	-0.093763	0.755517
H50	H	0.506826	-0.000154	0.384211
H51	H	0.650060	-0.000130	0.388054
Cl52	Cl	0.761973	-0.141614	0.828615
Cl53	Cl	1.026602	-0.146640	0.513840
H54	H	0.945975	-0.381139	-0.032336
Cl55	Cl	0.266453	-0.000172	0.429084
H56	H	0.801728	-0.617871	0.044452
Cl57	Cl	1.047891	-0.640713	0.092738
H58	H	0.109440	-0.000196	0.373548
H59	H	0.790725	-0.137150	0.585126
H60	H	0.880619	-0.230547	0.563248
H61	H	0.968091	-0.621063	0.331712
H62	H	0.139925	-0.000213	-0.046149
H63	H	1.012600	0.095058	0.753774
Cl64	Cl	0.523535	-0.000185	-0.087176
Cl65	Cl	0.895688	0.285227	0.801348
Cl66	Cl	0.701750	-0.000164	-0.082400
Cl67	Cl	0.743030	-0.640498	0.254168
Cl68	Cl	1.047413	-0.358608	0.092790
H69	H	0.768734	-0.380712	0.216075
Cl70	Cl	0.792940	-0.356725	-0.005916
Cl71	Cl	1.003238	-0.360117	0.336803
Cl72	Cl	0.848449	-0.356990	0.428375
Cl73	Cl	0.759859	0.132064	0.828011
Cl74	Cl	0.842008	-0.639294	0.423706
Cl75	Cl	0.940570	-0.643420	-0.084815
Cl76	Cl	1.026518	0.145679	0.512485
