data_functionalizedCrystal
_audit_creation_method	'MofGen! by Chris Wilmer'
_symmetry_space_group_name_H-M	'P1'
_symmetry_Int_Tables_number	1
_symmetry_cell_setting	triclinic
loop_
_symmetry_equiv_pos_as_xyz
  x,y,z
_cell_length_a	12.759400
_cell_length_b	12.759401
_cell_length_c	19.805399
_cell_angle_alpha	89.984563
_cell_angle_beta	89.976763
_cell_angle_gamma	90.014845
loop_
_atom_site_label
_atom_site_type_symbol
_atom_site_fract_x
_atom_site_fract_y
_atom_site_fract_z
Zn1	Zn	-0.418286	1.606224	-0.382665
Zn2	Zn	0.081714	2.106224	0.117335
Zn3	Zn	-0.593979	1.606128	-0.269486
Zn4	Zn	-0.093979	2.106128	0.230514
Zn5	Zn	-0.418316	1.430535	-0.269498
Zn6	Zn	0.081684	1.930535	0.230502
Zn7	Zn	-0.593924	1.430514	-0.382641
Zn8	Zn	-0.093924	1.930514	0.117359
O9	O	-0.506126	1.518350	-0.326072
O10	O	-0.006126	2.018350	0.173928
O11	O	-0.441603	1.753232	-0.367657
O12	O	0.058397	2.253232	0.132343
O13	O	-0.570713	1.582803	-0.174771
O14	O	-0.070713	2.082803	0.325229
O15	O	-0.271291	1.453890	-0.284526
O16	O	0.228709	1.953890	0.215474
O17	O	-0.570684	1.753161	-0.284504
O18	O	-0.070684	2.253161	0.215496
O19	O	-0.271269	1.582967	-0.367669
O20	O	0.228731	2.082967	0.132331
O21	O	-0.441653	1.453796	-0.174780
O22	O	0.058347	1.953796	0.325220
O23	O	-0.441600	1.283511	-0.284502
O24	O	0.058400	1.783511	0.215498
O25	O	-0.570590	1.453854	-0.477361
O26	O	-0.070590	1.953854	0.022639
O27	O	-0.570618	1.283496	-0.367627
O28	O	-0.070618	1.783496	0.132373
O29	O	-0.441549	1.582947	-0.477379
O30	O	0.058451	2.082947	0.022621
O31	O	-0.740993	1.582783	-0.284480
O32	O	-0.240993	2.082783	0.215520
O33	O	-0.740953	1.453761	-0.367615
O34	O	-0.240953	1.953761	0.132385
C35	C	-0.506107	1.245383	-0.326063
C36	C	-0.006107	1.745383	0.173937
C37	C	-0.506124	1.128606	-0.326075
C38	C	-0.006124	1.628606	0.173925
C39	C	-0.779094	1.518288	-0.326058
C40	C	-0.279094	2.018288	0.173942
C41	C	-0.895870	1.518357	-0.326075
C42	C	-0.395870	2.018357	0.173925
C43	C	-0.573412	1.073764	-0.369287
C44	C	-0.073412	1.573764	0.130713
C45	C	-0.573425	0.964040	-0.369295
C46	C	-0.073425	1.464040	0.130705
C47	C	-0.438860	0.964010	-0.282873
C48	C	0.061140	1.464010	0.217127
C49	C	-0.438842	1.073732	-0.282869
C50	C	0.061158	1.573732	0.217131
C51	C	-0.640693	1.128638	-0.412493
C52	C	-0.140693	1.628638	0.087507
C53	C	-0.707987	1.073795	-0.455708
C54	C	-0.207987	1.573795	0.044292
C55	C	-0.708001	0.964071	-0.455716
C56	C	-0.208001	1.464071	0.044284
C57	C	-0.640720	0.909190	-0.412508
C58	C	-0.140720	1.409190	0.087492
C59	C	-0.950719	1.585614	-0.282835
C60	C	-0.450719	2.085614	0.217165
C61	C	-1.060443	1.585678	-0.282856
C62	C	-0.560443	2.085678	0.217144
C63	C	-1.060460	1.451221	-0.369359
C64	C	-0.560460	1.951221	0.130641
C65	C	-0.950738	1.451163	-0.369341
C66	C	-0.450738	1.951163	0.130659
C67	C	-0.895851	1.652808	-0.239569
C68	C	-0.395851	2.152808	0.260431
C69	C	-0.950699	1.720070	-0.196325
C70	C	-0.450699	2.220070	0.303675
C71	C	-1.060423	1.720134	-0.196345
C72	C	-0.560423	2.220134	0.303655
C73	C	-1.115299	1.652938	-0.239611
C74	C	-0.615299	2.152938	0.260389
C75	C	-0.232093	1.518441	-0.326101
C76	C	0.267907	2.018441	0.173899
C77	C	-0.115316	1.518480	-0.326114
C78	C	0.384684	2.018480	0.173886
C79	C	-0.506060	1.518409	-0.502615
C80	C	-0.006060	2.018409	-0.002615
C81	C	-0.506032	1.518434	-0.577847
C82	C	-0.006032	2.018434	-0.077847
C83	C	-0.506147	1.792383	-0.326082
C84	C	-0.006147	2.292383	0.173918
C85	C	-0.506155	1.909160	-0.326086
C86	C	-0.006155	2.409160	0.173914
C87	C	-0.438837	1.585654	-0.613202
C88	C	0.061163	2.085654	-0.113202
C89	C	-0.438807	1.585665	-0.683890
C90	C	0.061193	2.085665	-0.183890
C91	C	-0.505977	1.518460	-0.719223
C92	C	-0.005977	2.018460	-0.219223
C93	C	-0.573175	1.451233	-0.683863
C94	C	-0.073175	1.951233	-0.183863
C95	C	-0.573199	1.451217	-0.613176
C96	C	-0.073199	1.951217	-0.113176
C97	C	-0.573077	1.451292	-0.968937
C98	C	-0.073077	1.951292	-0.468937
C99	C	-0.573049	1.451315	-1.039629
C100	C	-0.073049	1.951315	-0.539629
C101	C	-0.438684	1.585740	-1.039651
C102	C	0.061316	2.085740	-0.539651
C103	C	-0.438709	1.585724	-0.968964
C104	C	0.061291	2.085724	-0.468964
C105	C	-0.505902	1.518493	-0.933610
C106	C	-0.005902	2.018493	-0.433610
C107	C	-0.505933	1.518481	-0.856962
C108	C	-0.005933	2.018481	-0.356962
C109	C	-0.505952	1.518477	-0.795870
C110	C	-0.005952	2.018477	-0.295870
C111	C	-0.506116	1.518352	-0.150217
C112	C	-0.006116	2.018352	0.349783
C113	C	-0.505849	1.518530	-0.074985
C114	C	-0.005849	2.018530	0.425015
H115	H	-0.640692	1.217981	-0.412491
H116	H	-0.140692	1.717981	0.087509
H117	H	-0.762787	0.919421	-0.490908
H118	H	-0.262787	1.419421	0.009092
Br119	Br	-0.347680	1.676874	-0.565258
Br120	Br	0.152320	2.176874	-0.065258
Br121	Br	-0.347558	0.889529	-0.224237
Br122	Br	0.152442	1.389529	0.275763
Br123	Br	-0.347519	1.148168	-0.224225
Br124	Br	0.152481	1.648168	0.275775
Br125	Br	-0.746940	1.653048	-0.239747
Br126	Br	-0.246940	2.153048	0.260253
H127	H	-0.762758	1.118487	-0.490890
H128	H	-0.262758	1.618487	0.009110
H129	H	-1.204643	1.653004	-0.239629
H130	H	-0.704643	2.153004	0.260371
Br131	Br	-0.876294	1.359890	-0.428028
Br132	Br	-0.376294	1.859890	0.071972
Br133	Br	-1.134934	1.360031	-0.428071
Br134	Br	-0.634934	1.860031	0.071929
Br135	Br	-0.664389	1.359980	-0.565194
Br136	Br	-0.164389	1.859980	-0.065194
H137	H	-0.906014	1.774785	-0.161103
H138	H	-0.406014	2.274785	0.338897
H139	H	-0.640727	0.819845	-0.412523
H140	H	-0.140727	1.319845	0.087477
H141	H	-1.105078	1.774908	-0.161139
H142	H	-0.605078	2.274908	0.338861
H143	H	-0.384093	1.640405	-0.712673
H144	H	0.115907	2.140405	-0.212673
Br145	Br	-0.347552	1.676940	-0.921016
Br146	Br	0.152448	2.176940	-0.421016
H147	H	-0.627750	1.396584	-1.068395
H148	H	-0.127750	1.896584	-0.568395
H149	H	-0.383969	1.640479	-1.068444
H150	H	0.116031	2.140479	-0.568444
Br151	Br	-0.664266	1.360048	-0.920966
Br152	Br	-0.164266	1.860048	-0.420966
Br153	Br	-0.664330	1.360018	-0.731814
Br154	Br	-0.164330	1.860018	-0.231814
