data_functionalizedCrystal
_audit_creation_method	'MofGen! by Chris Wilmer'
_symmetry_space_group_name_H-M	'P1'
_symmetry_Int_Tables_number	1
_symmetry_cell_setting	triclinic
loop_
_symmetry_equiv_pos_as_xyz
  x,y,z
_cell_length_a	16.992694
_cell_length_b	16.956984
_cell_length_c	9.130313
_cell_angle_alpha	89.999746
_cell_angle_beta	90.002365
_cell_angle_gamma	83.360821
loop_
_atom_site_label
_atom_site_type_symbol
_atom_site_fract_x
_atom_site_fract_y
_atom_site_fract_z
O1	O	1.029476	0.168380	-0.121619
O2	O	0.801310	0.166533	-0.121662
O3	O	0.929101	0.052251	-0.121628
O4	O	0.901685	0.282662	-0.121654
O5	O	0.929092	0.052258	0.121971
O6	O	0.801302	0.166540	0.121936
O7	O	1.029467	0.168387	0.121980
Cu8	Cu	0.915384	0.167464	0.144201
Cu9	Cu	0.915394	0.167456	-0.143883
O10	O	0.901677	0.282669	0.121945
C11	C	0.772248	0.164160	0.000132
C12	C	0.685663	0.157069	0.000116
C13	C	0.930501	0.022636	0.000171
C14	C	0.934674	-0.065619	0.000171
C15	C	0.630988	0.225484	0.000109
C16	C	0.549633	0.218817	0.000130
C17	C	0.522956	0.143734	0.000147
C18	C	0.577638	0.075314	0.000158
C19	C	0.658990	0.081982	0.000147
C20	C	0.281149	0.116099	0.000189
C21	C	0.199790	0.109436	0.000195
C22	C	0.171791	0.252940	0.000170
C23	C	0.253147	0.259601	0.000151
C24	C	0.307822	0.191181	0.000170
N25	N	0.439799	0.136918	0.000164
N26	N	0.390977	0.197998	0.000163
C27	C	1.058530	0.170760	0.000182
C28	C	1.145115	0.177851	0.000189
C29	C	0.864889	-0.102150	0.000151
C30	C	0.868815	-0.185075	0.000156
C31	C	0.942528	-0.231467	0.000170
C32	C	1.012319	-0.194930	0.000194
C33	C	1.008391	-0.112007	0.000199
C34	C	0.961967	-0.480001	0.000164
C35	C	0.965889	-0.562930	0.000153
C36	C	0.822385	-0.553069	0.000118
C37	C	0.818464	-0.470144	0.000115
C38	C	0.888255	-0.433615	0.000147
N39	N	0.946543	-0.316230	0.000170
N40	N	0.884239	-0.348853	0.000157
C41	C	0.900277	0.312284	0.000143
C42	C	0.896103	0.400539	0.000134
N43	N	0.915382	0.167470	0.346823
N44	N	0.915402	0.167445	-0.346506
C45	C	0.959615	0.218676	0.423493
C46	C	0.959627	0.218662	0.576830
C47	C	0.871168	0.116233	0.576814
C48	C	0.871160	0.116243	0.423479
C49	C	1.003837	0.269902	0.346837
C50	C	1.048073	0.321113	0.423507
C51	C	1.048085	0.321099	0.576843
C52	C	1.003862	0.269874	0.653510
H53	H	0.652701	0.286625	0.000094
H54	H	1.084110	0.362792	0.639264
H55	H	0.804864	-0.064383	0.000133
O56	O	0.828120	0.066479	0.349220
C57	C	0.740417	-0.035151	0.365372
C58	C	0.789107	0.021183	0.449653
H59	H	0.708876	-0.071799	0.446535
H60	H	0.694708	0.001099	0.293634
H61	H	0.781672	-0.076499	0.293534
H62	H	0.747914	0.062543	0.521570
H63	H	0.834824	-0.015116	0.521298
H64	H	0.325657	0.060386	0.000206
H65	H	0.505119	0.274528	0.000123
O66	O	1.090959	0.370843	0.348813
C67	C	1.130183	0.416229	0.112602
C68	C	1.081563	0.359882	0.197004
H69	H	1.122617	0.407374	-0.010150
H70	H	1.108541	0.480331	0.142663
H71	H	1.195438	0.402656	0.142824
H72	H	1.016298	0.373383	0.166827
H73	H	1.103271	0.295796	0.166935
H74	H	0.178073	0.048291	0.000208
H75	H	0.835162	0.074529	0.639248
H76	H	1.003830	0.269921	0.221982
H77	H	0.274861	0.320741	0.000120
O78	O	0.551591	0.002439	0.000112
C79	C	0.438675	-0.071433	0.000221
C80	C	0.468061	0.011148	0.000244
H81	H	0.371138	-0.064420	0.000358
H82	H	0.461515	-0.105525	-0.101745
H83	H	0.461625	-0.105496	0.102147
H84	H	0.445122	0.045276	-0.101614
H85	H	0.445228	0.045179	0.102276
O86	O	0.118711	0.319421	-0.000096
C87	C	0.069912	0.440054	-0.126259
C88	C	0.130056	0.364784	-0.126164
H89	H	0.079075	0.476759	-0.228159
H90	H	0.007166	0.422440	-0.126342
H91	H	0.079008	0.476715	-0.024272
H92	H	0.121034	0.328088	-0.228134
H93	H	0.192781	0.382452	-0.126005
O94	O	0.712074	0.015501	-0.000113
C95	C	0.760866	-0.105137	-0.126256
C96	C	0.700719	-0.029870	-0.126167
H97	H	0.751695	-0.141849	-0.228144
H98	H	0.823611	-0.087520	-0.126357
H99	H	0.751784	-0.141793	-0.024257
H100	H	0.709729	0.006821	-0.228149
H101	H	0.637996	-0.047542	-0.125990
O102	O	0.801078	-0.220649	-0.000070
C103	C	0.722210	-0.308504	-0.126356
C104	C	0.798966	-0.268286	-0.126264
H105	H	0.720469	-0.347015	-0.228389
H106	H	0.720438	-0.347134	-0.024483
H107	H	0.668867	-0.261085	-0.126306
H108	H	0.852351	-0.315651	-0.126366
H109	H	0.800668	-0.229640	-0.228129
H110	H	1.003883	0.269859	0.778368
O111	O	0.746794	-0.425199	0.000181
C112	C	0.604873	-0.424172	0.000079
C113	C	0.685987	-0.475167	0.000041
H114	H	0.555688	-0.464549	-0.000065
H115	H	0.599394	-0.385125	0.102053
H116	H	0.599491	-0.385080	-0.101838
H117	H	0.691424	-0.514305	0.101889
H118	H	0.691430	-0.514161	-0.102001
O119	O	1.029706	-0.444435	-0.000017
C120	C	1.108594	-0.356581	-0.126246
C121	C	1.031835	-0.396794	-0.126202
H122	H	1.110348	-0.318066	-0.228271
H123	H	1.110357	-0.317955	-0.024366
H124	H	1.161934	-0.404002	-0.126175
H125	H	0.978452	-0.349426	-0.126325
H126	H	1.030141	-0.435436	-0.228074
H127	H	1.065218	-0.082265	0.000218
O128	O	1.083904	-0.240028	-0.000051
C129	C	1.171605	-0.339402	-0.126203
C130	C	1.090515	-0.288365	-0.126119
H131	H	1.176969	-0.378507	-0.228102
H132	H	1.220842	-0.299084	-0.126279
H133	H	1.177014	-0.378439	-0.024215
H134	H	1.085028	-0.249322	-0.228089
H135	H	1.041317	-0.328728	-0.125966
H136	H	0.765565	-0.582820	0.000095
H137	H	1.025918	-0.600701	0.000155
