data_functionalizedCrystal
_audit_creation_method	'MofGen! by Chris Wilmer'
_symmetry_space_group_name_H-M	'P1'
_symmetry_Int_Tables_number	1
_symmetry_cell_setting	triclinic
loop_
_symmetry_equiv_pos_as_xyz
  x,y,z
_cell_length_a	12.759395
_cell_length_b	13.897447
_cell_length_c	12.759387
_cell_angle_alpha	89.968560
_cell_angle_beta	89.978972
_cell_angle_gamma	90.020291
loop_
_atom_site_label
_atom_site_type_symbol
_atom_site_fract_x
_atom_site_fract_y
_atom_site_fract_z
Zn1	Zn	1.606233	-0.383944	-0.594015
Zn2	Zn	1.606109	-0.545272	-0.418333
Zn3	Zn	1.430532	-0.383995	-0.418350
Zn4	Zn	1.430509	-0.545201	-0.593971
O5	O	1.518346	-0.464603	-0.506167
O6	O	1.753238	-0.405353	-0.570722
O7	O	1.582776	-0.523929	-0.271314
O8	O	1.453900	-0.249007	-0.441678
O9	O	1.753147	-0.523880	-0.441649
O10	O	1.582988	-0.248969	-0.570738
O11	O	1.453780	-0.405439	-0.271327
O12	O	1.283508	-0.405371	-0.441635
O13	O	1.453862	-0.523760	-0.740998
O14	O	1.283491	-0.523808	-0.570663
O15	O	1.582966	-0.405285	-0.741030
O16	O	1.582754	-0.680244	-0.441607
O17	O	1.453742	-0.680192	-0.570647
C18	C	1.245378	-0.464588	-0.506147
C19	C	1.128602	-0.464605	-0.506163
C20	C	0.909262	-0.341403	-0.640818
C21	C	0.964176	-0.279782	-0.708116
C22	C	1.073897	-0.279766	-0.708098
C23	C	1.128708	-0.341379	-0.640777
C24	C	1.073794	-0.403000	-0.573479
C25	C	0.964070	-0.403008	-0.573502
C26	C	1.073688	-0.526226	-0.438865
C27	C	0.963966	-0.526239	-0.438877
C28	C	1.128498	-0.587839	-0.371544
C29	C	1.073585	-0.649457	-0.304240
C30	C	0.963856	-0.649470	-0.304260
C31	C	0.909053	-0.587860	-0.371579
C32	C	1.518260	-0.715218	-0.506143
C33	C	1.518320	-0.822431	-0.506168
C34	C	1.518371	-0.909501	-0.506192
C35	C	1.518444	-1.018734	-0.506219
C36	C	1.792379	-0.464619	-0.506189
C37	C	1.909156	-0.464626	-0.506198
C38	C	1.518425	-0.464509	-0.780201
C39	C	1.518459	-0.464468	-0.896978
C40	C	1.518460	-0.213010	-0.506215
C41	C	1.518509	-0.105796	-0.506235
C42	C	1.652904	-0.341109	-0.897031
C43	C	1.720141	-0.279414	-0.951919
C44	C	1.720167	-0.279379	-1.061640
C45	C	1.652946	-0.341043	-1.116477
C46	C	1.585709	-0.402737	-1.061590
C47	C	1.585692	-0.402768	-0.951865
C48	C	1.451260	-0.526091	-1.061536
C49	C	1.451238	-0.526132	-0.951814
C50	C	1.384039	-0.587754	-1.116373
C51	C	1.316805	-0.649455	-1.061485
C52	C	1.316783	-0.649488	-0.951757
C53	C	1.384001	-0.587826	-0.896927
C54	C	1.518327	-0.464628	-0.233200
C55	C	1.518497	-0.464396	-0.116424
H56	H	0.819921	-0.341390	-0.640817
C57	C	1.794087	-0.211591	-0.891598
C58	C	1.794073	-0.211628	-0.770908
C59	C	1.868018	-0.143804	-0.710592
C60	C	1.941977	-0.075944	-0.770966
C61	C	1.941994	-0.075905	-0.891663
C62	C	1.868049	-0.143728	-0.951979
H63	H	1.739321	-0.261864	-0.726209
H64	H	1.868005	-0.143834	-0.621244
H65	H	1.996716	-0.025737	-0.726317
H66	H	1.996746	-0.025668	-0.936362
H67	H	1.868062	-0.143699	-1.041327
H68	H	1.217839	-0.587827	-0.371541
C69	C	1.133875	-0.717226	-0.230196
C70	C	1.254565	-0.717217	-0.230182
C71	C	1.314860	-0.784987	-0.156135
C72	C	1.254465	-0.852766	-0.082103
C73	C	1.133768	-0.852778	-0.082114
C74	C	1.073473	-0.785008	-0.156160
H75	H	1.299279	-0.667040	-0.284988
H76	H	1.404208	-0.784978	-0.156127
H77	H	1.299098	-0.902934	-0.027289
H78	H	1.089054	-0.902955	-0.027308
H79	H	0.984125	-0.785018	-0.156168
H80	H	1.218049	-0.341369	-0.640777
H81	H	0.919152	-0.699654	-0.249463
C82	C	1.242819	-0.717354	-0.891384
C83	C	1.168886	-0.785175	-0.951706
C84	C	1.094920	-0.853043	-0.891338
C85	C	1.094888	-0.853089	-0.770648
C86	C	1.168825	-0.785265	-0.710319
C87	C	1.242790	-0.717398	-0.770687
H88	H	1.168907	-0.785143	-1.041054
H89	H	1.040187	-0.903250	-0.935999
H90	H	1.040135	-0.903328	-0.725960
H91	H	1.168804	-0.785297	-0.620971
H92	H	1.297523	-0.667190	-0.726027
C93	C	1.134311	-0.211981	-0.782119
C94	C	1.209785	-0.253860	-0.864504
C95	C	1.270201	-0.186076	-0.938522
C96	C	1.255143	-0.076412	-0.930157
C97	C	1.179666	-0.034527	-0.847769
C98	C	1.119251	-0.102312	-0.773750
H99	H	1.220934	-0.335045	-0.870699
H100	H	1.326073	-0.217082	-0.999511
H101	H	1.299866	-0.026234	-0.984950
H102	H	1.168517	0.046657	-0.841573
H103	H	1.063378	-0.071306	-0.712761
C104	C	1.794127	-0.211518	-1.122025
C105	C	1.913556	-0.219413	-1.106963
C106	C	1.987516	-0.151553	-1.167348
C107	C	1.942046	-0.075799	-1.242794
C108	C	1.822611	-0.067901	-1.257859
C109	C	1.748651	-0.135760	-1.197474
H110	H	1.947221	-0.275494	-1.051111
H111	H	2.075930	-0.157400	-1.156196
H112	H	1.996796	-0.025565	-1.287495
H113	H	1.788946	-0.011820	-1.313712
H114	H	1.660237	-0.129913	-1.208626
H115	H	0.919537	-0.229620	-0.762929
H116	H	0.819711	-0.587853	-0.371589
H117	H	1.262074	-0.699651	-1.106142
H118	H	1.652900	-0.341140	-0.807690
H119	H	1.652964	-0.341001	-1.205818
H120	H	1.384060	-0.587718	-1.205714
H121	H	1.383994	-0.587852	-0.807586
