data_functionalizedCrystal
_audit_creation_method	'MofGen! by Chris Wilmer'
_symmetry_space_group_name_H-M	'P1'
_symmetry_Int_Tables_number	1
_symmetry_cell_setting	triclinic
loop_
_symmetry_equiv_pos_as_xyz
  x,y,z
_cell_length_a	16.959455
_cell_length_b	12.594516
_cell_length_c	12.594509
_cell_angle_alpha	89.973801
_cell_angle_beta	89.980111
_cell_angle_gamma	90.013000
loop_
_atom_site_label
_atom_site_type_symbol
_atom_site_fract_x
_atom_site_fract_y
_atom_site_fract_z
Zn1	Zn	1.208449	-0.423797	-0.601834
Zn2	Zn	1.208368	-0.601807	-0.423862
Zn3	Zn	1.076265	-0.423833	-0.423868
Zn4	Zn	1.076252	-0.601724	-0.601796
O5	O	1.142334	-0.512790	-0.512840
O6	O	1.319049	-0.447430	-0.578239
O7	O	1.190816	-0.578248	-0.274917
O8	O	1.093839	-0.274883	-0.447493
O9	O	1.318990	-0.578213	-0.447484
O10	O	1.190954	-0.274856	-0.578245
O11	O	1.093760	-0.447492	-0.274921
O12	O	0.965652	-0.447412	-0.447457
O13	O	1.093816	-0.578072	-0.750747
O14	O	0.965643	-0.578107	-0.578180
O15	O	1.190941	-0.447349	-0.750775
O16	O	1.190803	-0.750742	-0.447447
O17	O	1.093738	-0.750681	-0.578175
C18	C	0.936967	-0.512755	-0.512816
C19	C	0.849111	-0.512766	-0.512830
C20	C	0.477616	-0.444681	-0.444914
C21	C	0.477654	-0.580987	-0.580827
C22	C	0.560200	-0.580972	-0.580820
C23	C	0.601458	-0.512811	-0.512859
C24	C	0.560169	-0.444666	-0.444904
C25	C	0.601495	-0.649123	-0.648766
C26	C	0.684046	-0.649111	-0.648762
C27	C	0.725305	-0.580945	-0.580805
C28	C	0.684011	-0.512796	-0.512848
C29	C	0.725269	-0.444636	-0.444886
C30	C	0.683977	-0.376481	-0.376934
C31	C	0.601428	-0.376500	-0.376947
C32	C	0.807853	-0.580926	-0.580792
C33	C	0.807822	-0.444621	-0.444875
C34	C	1.142282	-0.789331	-0.512830
C35	C	1.142332	-0.907637	-0.512861
C36	C	1.089533	-0.976895	-0.583914
C37	C	1.070274	-1.047759	-0.486791
C38	C	1.161663	-1.047572	-0.610000
C39	C	1.123035	-0.976942	-0.415687
C40	C	1.214457	-0.976749	-0.538961
C41	C	1.195226	-1.047581	-0.441772
C42	C	1.348502	-0.512826	-0.512865
C43	C	1.436358	-0.512842	-0.512876
C44	C	1.142386	-0.512697	-0.790461
C45	C	1.142409	-0.512657	-0.908767
C46	C	1.142407	-0.235169	-0.512874
C47	C	1.142438	-0.116864	-0.512888
C48	C	1.089599	-0.583717	-0.978005
C49	C	1.161724	-0.609728	-1.048794
C50	C	1.070341	-0.486582	-1.048777
C51	C	1.214571	-0.538720	-0.977997
C52	C	1.123140	-0.415528	-0.977974
C53	C	1.195314	-0.441502	-1.048731
C54	C	1.142326	-0.512806	-0.236299
C55	C	1.142457	-0.512546	-0.117994
H56	H	0.567801	-0.321013	-0.321622
H57	H	0.717579	-0.320990	-0.321595
C58	C	1.029318	-0.665016	-0.936043
H59	H	1.043158	-0.733957	-0.960294
H60	H	0.978236	-0.647208	-0.961318
H61	H	1.029385	-0.664052	-0.860620
C62	C	1.255606	-1.089258	-0.360532
H63	H	1.294257	-1.130711	-0.396054
H64	H	1.229398	-1.131792	-0.309169
H65	H	1.280423	-1.030975	-0.326264
C66	C	1.100908	-0.935218	-0.304693
H67	H	1.091738	-0.993487	-0.258374
H68	H	1.054497	-0.893285	-0.309538
H69	H	1.142849	-0.893151	-0.277685
C70	C	0.987985	-0.456840	-1.090780
H71	H	0.991587	-0.394016	-1.132281
H72	H	0.953383	-0.445074	-1.032640
H73	H	0.968182	-0.513088	-1.133352
C74	C	1.296783	-0.934616	-0.568795
H75	H	1.310408	-0.958766	-0.637855
H76	H	1.334439	-0.959896	-0.519021
H77	H	1.296291	-0.859194	-0.567934
H78	H	1.177970	-1.078597	-0.692138
C79	C	1.183775	-0.720622	-1.090828
H80	H	1.146185	-0.771070	-1.066619
H81	H	1.234624	-0.739597	-1.065553
H82	H	1.184099	-0.719614	-1.166250
H83	H	1.240045	-0.381362	-1.079590
C84	C	1.296965	-0.568530	-0.936181
H85	H	1.296442	-0.568407	-0.860752
H86	H	1.334498	-0.518303	-0.960978
H87	H	1.310784	-0.637272	-0.961003
H88	H	0.841408	-0.389109	-0.389539
C89	C	0.432200	-0.369720	-0.370169
H90	H	0.377127	-0.379491	-0.379902
H91	H	0.445742	-0.298223	-0.385861
H92	H	0.445704	-0.385218	-0.298624
H93	H	0.444058	-0.636486	-0.636151
H94	H	1.106795	-0.333459	-0.946844
H95	H	0.567897	-0.704623	-0.704089
H96	H	0.841470	-0.636420	-0.636114
C97	C	0.729460	-0.724067	-0.723514
H98	H	0.693065	-0.764656	-0.763995
H99	H	0.761651	-0.770388	-0.682725
H100	H	0.761674	-0.683389	-0.769959
H101	H	1.044803	-0.945858	-0.643913
C102	C	0.987942	-1.089901	-0.456975
H103	H	0.950449	-1.065706	-0.507517
H104	H	0.973883	-1.064679	-0.388467
H105	H	0.988697	-1.165323	-0.456572
