data_functionalizedCrystal
_audit_creation_method	'MofGen! by Chris Wilmer'
_symmetry_space_group_name_H-M	'P1'
_symmetry_Int_Tables_number	1
_symmetry_cell_setting	triclinic
loop_
_symmetry_equiv_pos_as_xyz
  x,y,z
_cell_length_a	19.188930
_cell_length_b	19.188924
_cell_length_c	12.996460
_cell_angle_alpha	90.008213
_cell_angle_beta	90.019467
_cell_angle_gamma	83.143372
loop_
_atom_site_label
_atom_site_type_symbol
_atom_site_fract_x
_atom_site_fract_y
_atom_site_fract_z
O1	O	0.926144	0.087169	0.085902
O2	O	0.722832	0.098904	0.085832
O3	O	0.830357	-0.008620	0.085857
O4	O	0.818618	0.194692	0.085877
O5	O	0.830346	-0.008626	-0.085277
O6	O	0.722821	0.098898	-0.085301
O7	O	0.926132	0.087163	-0.085232
Cu8	Cu	0.824476	0.093030	-0.100892
Cu9	Cu	0.824489	0.093037	0.101493
O10	O	0.818607	0.194686	-0.085256
C11	C	0.696815	0.098521	0.000256
C12	C	0.619311	0.097380	0.000229
C13	C	0.829973	-0.034634	0.000289
C14	C	0.828834	-0.112138	0.000286
C15	C	0.574385	0.160471	0.000252
C16	C	0.501562	0.159399	0.000263
C17	C	0.473667	0.095233	0.000272
C18	C	0.518602	0.032134	0.000244
C19	C	0.591424	0.033207	0.000223
N20	N	0.365692	0.046188	0.058553
N21	N	0.296513	0.045172	0.058576
C22	C	0.254258	0.091995	0.000335
N23	N	0.283794	0.139882	-0.057917
N24	N	0.352979	0.140899	-0.057935
C25	C	0.394704	0.094062	0.000295
C26	C	0.130368	0.153928	0.000368
C27	C	0.057543	0.152854	0.000373
C28	C	0.074585	0.025586	0.000364
C29	C	0.147409	0.026663	0.000349
C30	C	0.175295	0.090835	0.000356
C31	C	0.828308	-0.148534	0.093571
C32	C	0.827228	-0.221357	0.093579
C33	C	0.826688	-0.257783	0.000296
C34	C	0.827210	-0.221378	-0.093002
C35	C	0.828282	-0.148556	-0.093007
N36	N	0.864731	-0.377449	-0.069119
N37	N	0.863714	-0.446627	-0.069109
C38	C	0.823454	-0.477192	0.000304
N39	N	0.784259	-0.435967	0.069722
N40	N	0.785280	-0.366783	0.069714
C41	C	0.825524	-0.336746	0.000290
C42	C	0.821757	-0.592550	0.093604
C43	C	0.820672	-0.665374	0.093608
C44	C	0.820660	-0.665394	-0.092975
C45	C	0.821738	-0.592571	-0.092976
C46	C	0.822289	-0.556154	0.000316
C47	C	0.952149	0.087546	0.000347
C48	C	1.029654	0.088687	0.000381
C49	C	0.818992	0.220700	0.000314
C50	C	0.820131	0.298205	0.000324
N51	N	0.824472	0.093025	-0.243240
C52	C	0.824488	0.093038	-0.663054
C53	C	0.824481	0.093036	-0.546249
C54	C	0.824480	0.093032	-0.453150
C55	C	0.824473	0.093029	-0.336338
N56	N	0.824499	0.093037	0.243840
H57	H	0.597086	0.212725	0.000259
H58	H	0.820215	-0.695051	-0.168928
H59	H	0.183988	-0.024713	0.000337
H60	H	0.822171	-0.562939	-0.168939
Br61	Br	0.652399	-0.052423	0.000190
H62	H	0.822201	-0.562897	0.169568
H63	H	0.495885	-0.020111	0.000266
H64	H	0.051874	-0.026659	0.000436
Br65	Br	0.828992	-0.099157	-0.219618
Br66	Br	0.829054	-0.099113	0.220182
Br67	Br	0.826467	-0.270810	-0.219601
H68	H	0.820241	-0.695005	0.169575
H69	H	0.464976	0.210777	0.000278
H70	H	0.153075	0.206181	0.000358
H71	H	0.020965	0.204232	0.000385
Br72	Br	0.826513	-0.270762	0.220189
