data_functionalizedCrystal
_audit_creation_method	'MofGen! by Chris Wilmer'
_symmetry_space_group_name_H-M	'P1'
_symmetry_Int_Tables_number	1
_symmetry_cell_setting	triclinic
loop_
_symmetry_equiv_pos_as_xyz
  x,y,z
_cell_length_a	14.971482
_cell_length_b	14.044190
_cell_length_c	14.048226
_cell_angle_alpha	89.988942
_cell_angle_beta	89.994098
_cell_angle_gamma	88.402193
loop_
_atom_site_label
_atom_site_type_symbol
_atom_site_fract_x
_atom_site_fract_y
_atom_site_fract_z
O1	O	1.196683	0.123521	-0.079159
O2	O	1.530016	0.456854	0.254174
O3	O	1.863349	0.790188	0.587507
O4	O	0.937448	0.138319	-0.079165
O5	O	1.270782	0.471652	0.254168
O6	O	1.604115	0.804985	0.587501
O7	O	1.063171	-0.007069	-0.079144
O8	O	1.396504	0.326264	0.254190
O9	O	1.729838	0.659597	0.587523
O10	O	1.070960	0.268909	-0.079181
O11	O	1.404293	0.602242	0.254152
O12	O	1.737627	0.935576	0.587486
O13	O	1.063154	-0.007078	0.079178
O14	O	1.396487	0.326255	0.412511
O15	O	1.729821	0.659589	0.745844
O16	O	0.937431	0.138310	0.079156
O17	O	1.270764	0.471643	0.412489
O18	O	1.604098	0.804977	0.745823
O19	O	1.196666	0.123512	0.079162
O20	O	1.529999	0.456846	0.412495
O21	O	1.863332	0.790179	0.745829
Zn22	Zn	1.067046	0.130910	0.104296
Zn23	Zn	1.400379	0.464243	0.437629
Zn24	Zn	1.733712	0.797577	0.770963
Zn25	Zn	1.067068	0.130921	-0.104299
Zn26	Zn	1.400402	0.464255	0.229034
Zn27	Zn	1.733735	0.797588	0.562368
O28	O	1.070943	0.268900	0.079140
O29	O	1.404276	0.602234	0.412474
O30	O	1.737609	0.935567	0.745807
C31	C	0.904063	0.137653	-0.000005
C32	C	1.237396	0.470987	0.333328
C33	C	1.570729	0.804320	0.666662
C34	C	0.804609	0.135672	-0.000006
C35	C	1.137943	0.469005	0.333327
C36	C	1.471276	0.802339	0.666660
C37	C	0.757882	0.134734	0.086296
C38	C	1.091215	0.468068	0.419629
C39	C	1.424549	0.801401	0.752962
C40	C	0.664435	0.132857	0.086297
C41	C	0.997769	0.466191	0.419630
C42	C	1.331102	0.799524	0.752964
C43	C	0.617718	0.131925	-0.000005
C44	C	0.951051	0.465259	0.333328
C45	C	1.284385	0.798592	0.666662
C46	C	0.664452	0.132860	-0.086314
C47	C	0.997786	0.466194	0.247020
C48	C	1.331119	0.799527	0.580353
C49	C	0.757897	0.134730	-0.086314
C50	C	1.091231	0.468064	0.247019
C51	C	1.424564	0.801397	0.580353
C52	C	0.469683	0.128965	-0.086307
C53	C	0.803017	0.462299	0.247026
C54	C	1.136350	0.795632	0.580360
C55	C	0.376232	0.127097	-0.086307
C56	C	0.709565	0.460430	0.247026
C57	C	1.042899	0.793764	0.580360
C58	C	0.376222	0.127092	0.086304
C59	C	0.709555	0.460426	0.419637
C60	C	1.042888	0.793759	0.752971
C61	C	0.469667	0.128962	0.086304
C62	C	0.803000	0.462296	0.419637
C63	C	1.136333	0.795629	0.752970
C64	C	0.516394	0.129899	-0.000006
C65	C	0.849728	0.463232	0.333328
C66	C	1.183061	0.796566	0.666661
C67	C	1.059755	-0.042392	0.000020
C68	C	1.393088	0.290941	0.333353
C69	C	1.726422	0.624275	0.666686
C70	C	1.049591	-0.147629	0.000028
C71	C	1.382925	0.185704	0.333361
C72	C	1.716258	0.519037	0.666695
C73	C	1.103093	-0.397856	-0.000008
C74	C	1.436427	-0.064522	0.333325
C75	C	1.769760	0.268811	0.666658
C76	C	1.031025	-0.340307	-0.000003
C77	C	1.364358	-0.006974	0.333330
C78	C	1.697691	0.326359	0.666663
C79	C	1.041358	-0.233092	0.000014
C80	C	1.374691	0.100242	0.333347
C81	C	1.708024	0.433575	0.666681
C82	C	1.092761	-0.505082	-0.000026
C83	C	1.426095	-0.171748	0.333308
C84	C	1.759428	0.161585	0.666641
C85	C	1.230051	0.124178	-0.000000
C86	C	1.563384	0.457511	0.333333
C87	C	1.896718	0.790845	0.666666
C88	C	1.329504	0.126159	-0.000005
C89	C	1.662838	0.459492	0.333328
C90	C	1.996171	0.792826	0.666662
C91	C	1.074359	0.304223	-0.000025
C92	C	1.407692	0.637556	0.333308
C93	C	1.741025	0.970890	0.666642
C94	C	1.084522	0.409460	-0.000039
C95	C	1.417856	0.742794	0.333294
C96	C	1.751189	1.076127	0.666627
N97	N	1.067037	0.130902	0.246657
N98	N	1.400370	0.464235	0.579990
N99	N	1.733703	0.797568	0.913323
N100	N	1.067084	0.130922	-0.246660
N101	N	1.400417	0.464255	0.086674
N102	N	1.733750	0.797589	0.420007
C103	C	1.122728	0.066550	0.296484
C104	C	1.456061	0.399884	0.629818
C105	C	1.789395	0.733217	0.963151
C106	C	1.122734	0.066550	0.396142
C107	C	1.456067	0.399883	0.729475
C108	C	1.789401	0.733217	1.062809
C109	C	1.067053	0.130906	0.445970
C110	C	1.400386	0.464239	0.779304
C111	C	1.733719	0.797572	1.112637
C112	C	1.011355	0.195260	0.396136
C113	C	1.344688	0.528593	0.729469
C114	C	1.678022	0.861927	1.062802
C115	C	1.011345	0.195255	0.296480
C116	C	1.344678	0.528589	0.629813
C117	C	1.678012	0.861922	0.963146
C118	C	1.011381	0.195267	0.603850
C119	C	1.344715	0.528600	0.937183
C120	C	1.678048	0.861934	1.270517
C121	C	1.011392	0.195273	0.703513
C122	C	1.344726	0.528607	1.036846
C123	C	1.678059	0.861940	1.370179
C124	C	1.122770	0.066562	0.703512
C125	C	1.456104	0.399895	1.036845
C126	C	1.789437	0.733228	1.370179
C127	C	1.122760	0.066557	0.603856
C128	C	1.456094	0.399890	0.937190
C129	C	1.789427	0.733223	1.270523
C130	C	1.067064	0.130912	0.554029
C131	C	1.400397	0.464246	0.887362
C132	C	1.733730	0.797579	1.220695
H133	H	0.507726	0.129728	-0.156589
H134	H	0.841060	0.463062	0.176744
H135	H	1.174393	0.796395	0.510078
F136	F	1.193877	-0.357008	0.000005
F137	F	1.527211	-0.023675	0.333339
F138	F	1.860544	0.309658	0.666672
H139	H	1.168074	0.014148	0.255921
H140	H	1.501407	0.347482	0.589254
H141	H	1.834741	0.680815	0.922587
H142	H	0.626395	0.132078	0.156573
H143	H	0.959728	0.465411	0.489906
H144	H	1.293061	0.798745	0.823239
F145	F	1.182027	-0.001931	0.550825
F146	F	1.515360	0.331402	0.884158
F147	F	1.848694	0.664735	1.217491
F148	F	0.807593	0.135732	0.178152
F149	F	1.140927	0.469066	0.511485
F150	F	1.474260	0.802399	0.844818
H151	H	0.961564	-0.371561	-0.000010
H152	H	1.294898	-0.038227	0.333323
H153	H	1.628231	0.295106	0.666656
F154	F	1.182005	-0.001941	0.449173
F155	F	1.515339	0.331393	0.782506
F156	F	1.848672	0.664726	1.115839
H157	H	0.626408	0.132095	-0.156582
H158	H	0.959741	0.465428	0.176751
H159	H	1.293074	0.798761	0.510085
H160	H	0.966014	0.247657	0.436711
H161	H	1.299347	0.580990	0.770045
H162	H	1.632680	0.914323	1.103378
F163	F	0.807628	0.135725	-0.178168
F164	F	1.140961	0.469058	0.155165
F165	F	1.474295	0.802391	0.488498
H166	H	0.507701	0.129727	0.156578
H167	H	0.841035	0.463060	0.489911
H168	H	1.174368	0.796394	0.823245
H169	H	1.168120	0.014161	0.744088
H170	H	1.501453	0.347494	1.077421
H171	H	1.834786	0.680828	1.410754
H172	H	0.966050	0.247677	0.744078
H173	H	1.299383	0.581011	1.077411
H174	H	1.632717	0.914344	1.410744
F175	F	0.326514	0.126103	-0.178159
F176	F	0.659847	0.459437	0.155174
F177	F	0.993180	0.792770	0.488508
H178	H	0.966024	0.247669	0.563283
H179	H	1.299357	0.581003	0.896617
H180	H	1.632691	0.914336	1.229950
F181	F	0.952068	0.263744	0.243451
F182	F	1.285401	0.597078	0.576784
F183	F	1.618734	0.930411	0.910118
H184	H	0.338172	0.126330	0.156580
H185	H	0.671505	0.459663	0.489913
H186	H	1.004838	0.792996	0.823247
