data_functionalizedCrystal
_audit_creation_method	'MofGen! by Chris Wilmer'
_symmetry_space_group_name_H-M	'P1'
_symmetry_Int_Tables_number	1
_symmetry_cell_setting	triclinic
loop_
_symmetry_equiv_pos_as_xyz
  x,y,z
_cell_length_a	16.120530
_cell_length_b	13.032721
_cell_length_c	13.034356
_cell_angle_alpha	89.133493
_cell_angle_beta	79.563674
_cell_angle_gamma	85.323259
loop_
_atom_site_label
_atom_site_type_symbol
_atom_site_fract_x
_atom_site_fract_y
_atom_site_fract_z
Zn1	Zn	1.306899	0.406999	-0.725544
Zn2	Zn	1.271882	0.598934	-0.572936
Zn3	Zn	1.147571	0.420178	-0.542365
Zn4	Zn	1.151992	0.570462	-0.736409
O5	O	1.219586	0.499143	-0.644314
O6	O	1.419108	0.438860	-0.713548
O7	O	1.238887	0.592652	-0.423806
O8	O	1.181511	0.275210	-0.549323
O9	O	1.393381	0.579873	-0.601427
O10	O	1.298569	0.265527	-0.683904
O11	O	1.147557	0.461321	-0.401345
O12	O	1.031304	0.433713	-0.559858
O13	O	1.189046	0.531347	-0.880043
O14	O	1.034552	0.544126	-0.702422
O15	O	1.302855	0.411252	-0.872061
O16	O	1.243174	0.738377	-0.611963
O17	O	1.155091	0.717459	-0.732066
C18	C	1.195838	0.765051	-0.676535
C19	C	1.185758	0.878808	-0.690359
C20	C	1.002629	0.487261	-0.629002
C21	C	0.909814	0.482199	-0.622479
C22	C	1.250350	0.466654	-0.914720
C23	C	1.263459	0.452808	-1.029951
C24	C	0.739884	0.472933	-0.610577
C25	C	0.700131	0.525419	-0.678136
C26	C	0.605576	0.520264	-0.671513
C27	C	0.834448	0.478088	-0.617198
C28	C	1.437391	0.511072	-0.659686
C29	C	1.530206	0.516156	-0.666236
C30	C	1.243453	0.232195	-0.611991
C31	C	1.253623	0.118437	-0.598217
C32	C	1.224896	0.939837	-0.637148
C33	C	1.214480	1.057410	-0.651435
C34	C	1.226539	0.491753	-1.204373
C35	C	1.212988	0.506063	-1.085276
C36	C	1.188997	0.531435	-0.374954
C37	C	1.176075	0.545001	-0.259699
H38	H	0.737110	0.574225	-0.740950
H39	H	1.144543	0.913602	-0.746496
C40	C	0.689931	0.407004	-0.525723
C41	C	0.713185	0.290264	-0.521088
C42	C	0.663219	0.224338	-0.436236
C43	C	0.590000	0.275153	-0.356018
C44	C	0.566742	0.391899	-0.360651
C45	C	0.616708	0.457825	-0.445503
H46	H	0.767390	0.252642	-0.580472
H47	H	0.680436	0.137914	-0.432807
H48	H	0.553012	0.226350	-0.293206
H49	H	0.512537	0.429521	-0.301266
H50	H	0.599491	0.544249	-0.448931
C51	C	1.158790	1.104399	-0.727274
C52	C	1.064167	1.085740	-0.710272
C53	C	1.008478	1.132730	-0.786109
C54	C	1.047412	1.198378	-0.878949
C55	C	1.142040	1.217039	-0.895956
C56	C	1.197729	1.170050	-0.820118
H57	H	1.035341	1.037141	-0.641543
H58	H	0.938428	1.118915	-0.773519
H59	H	1.006188	1.233162	-0.935088
H60	H	1.170866	1.265639	-0.964685
H61	H	1.267779	1.183865	-0.832709
C62	C	1.104152	0.620901	-1.204587
C63	C	1.011641	0.605586	-1.211666
C64	C	0.939716	0.681488	-1.156557
C65	C	0.960303	0.772705	-1.094369
C66	C	1.052819	0.788024	-1.087287
C67	C	1.124743	0.712122	-1.142396
H68	H	0.996397	0.538058	-1.257704
H69	H	0.871229	0.670147	-1.161800
H70	H	0.907060	0.828892	-1.053574
H71	H	1.068062	0.855552	-1.041249
H72	H	1.193230	0.723463	-1.137153
C73	C	1.280586	0.892840	-0.561317
C74	C	1.241655	0.827189	-0.468479
C75	C	1.297347	0.780195	-0.392647
C76	C	1.391970	0.798852	-0.409655
C77	C	1.430906	0.864507	-0.502498
C78	C	1.375214	0.911501	-0.578329
H79	H	1.171605	0.813375	-0.455885
H80	H	1.268523	0.731593	-0.323919
H81	H	1.433197	0.764064	-0.353520
H82	H	1.500957	0.878321	-0.515091
H83	H	1.404038	0.960103	-0.647057
C84	C	1.309312	1.071455	-0.522373
C85	C	1.270375	1.005811	-0.429531
C86	C	1.326061	0.958830	-0.353687
C87	C	1.420683	0.977492	-0.370685
C88	C	1.459625	1.043139	-0.463532
C89	C	1.403939	1.090120	-0.539376
H90	H	1.200326	0.991994	-0.416944
H91	H	1.297234	0.910234	-0.284955
H92	H	1.461905	0.942714	-0.314541
H93	H	1.529674	1.056956	-0.476119
H94	H	1.432766	1.138716	-0.608107
C95	C	1.298462	0.415854	-1.259488
C96	C	1.368467	0.454910	-1.343954
C97	C	1.440391	0.379008	-1.399066
C98	C	1.442309	0.264050	-1.369712
C99	C	1.372301	0.224988	-1.285241
C100	C	1.300377	0.300890	-1.230129
H101	H	1.367050	0.540014	-1.365688
H102	H	1.492216	0.407925	-1.461597
H103	H	1.495552	0.207863	-1.410510
H104	H	1.373719	0.139884	-1.263508
H105	H	1.248552	0.271973	-1.167598
C106	C	1.141061	0.581967	-1.030168
C107	C	1.048550	0.566652	-1.037247
C108	C	0.976625	0.642554	-0.982138
C109	C	0.997212	0.733771	-0.919949
C110	C	1.089728	0.749090	-0.912868
C111	C	1.161652	0.673188	-0.967977
H112	H	1.033306	0.499124	-1.083285
H113	H	0.908138	0.631214	-0.987381
H114	H	0.943969	0.789959	-0.879154
H115	H	1.104971	0.816618	-0.866830
H116	H	1.230139	0.684529	-0.962734
H117	H	1.316702	0.396626	-1.070751
