data_functionalizedCrystal
_audit_creation_method	'MofGen! by Chris Wilmer'
_symmetry_space_group_name_H-M	'P1'
_symmetry_Int_Tables_number	1
_symmetry_cell_setting	triclinic
loop_
_symmetry_equiv_pos_as_xyz
  x,y,z
_cell_length_a	15.995350
_cell_length_b	9.483335
_cell_length_c	10.967954
_cell_angle_alpha	68.680222
_cell_angle_beta	95.883652
_cell_angle_gamma	80.691809
loop_
_atom_site_label
_atom_site_type_symbol
_atom_site_fract_x
_atom_site_fract_y
_atom_site_fract_z
O1	O	1.093914	0.167830	-0.187905
O2	O	0.849694	0.173046	-0.208608
O3	O	0.982507	0.123016	-0.008962
O4	O	0.961102	0.217860	-0.387550
O5	O	1.009515	-0.128942	0.031674
O6	O	0.876703	-0.078913	-0.167972
O7	O	1.120923	-0.084128	-0.147269
Cu8	Cu	1.001279	-0.104526	-0.153910
Cu9	Cu	0.969338	0.193444	-0.201967
O10	O	0.988110	-0.034098	-0.346915
C11	C	0.832022	0.046856	-0.187435
C12	C	0.739125	0.046225	-0.184871
N13	N	1.023750	-0.314102	-0.120109
C14	C	0.994668	-0.542767	-0.163870
C15	C	0.975949	-0.368311	-0.192007
C16	C	0.401577	0.043886	-0.175653
C17	C	0.452105	0.007704	-0.033381
C18	C	0.548679	0.008926	-0.036040
C19	C	0.569039	0.045045	-0.180226
C20	C	0.511033	0.206489	-0.273559
C21	C	0.414461	0.205704	-0.270005
C22	C	0.444773	-0.080084	-0.226732
C23	C	0.541922	-0.081984	-0.226393
C24	C	0.663679	0.045708	-0.182818
C25	C	0.306935	0.043235	-0.173067
C26	C	1.138595	0.042065	-0.168443
C27	C	1.231491	0.042706	-0.171008
C28	C	0.996493	-0.015096	0.059801
C29	C	0.997920	-0.051249	0.204154
N30	N	0.946874	0.403017	-0.235757
C31	C	0.986044	0.025788	0.396656
C32	C	0.984566	0.063164	0.247458
C33	C	0.974122	0.104018	0.584321
C34	C	0.972691	0.140185	0.439966
H35	H	1.049447	-0.625502	-0.081499
H36	H	0.892101	-0.514243	-0.318138
H37	H	0.445856	-0.109712	0.040094
Cl38	Cl	1.017261	-0.245199	0.317425
Cl39	Cl	0.891378	-0.240582	-0.319204
H40	H	1.078533	-0.396835	-0.037733
Cl41	Cl	0.953343	0.334125	0.326687
H42	H	0.589339	-0.108020	0.035719
Cl43	Cl	0.406734	0.144231	0.028425
H44	H	0.566646	0.098337	0.002796
H45	H	0.972031	0.188784	0.174084
H46	H	0.436920	-0.200783	-0.162661
H47	H	0.385715	0.300443	-0.236209
H48	H	0.379286	0.238383	-0.375445
H49	H	0.522324	0.238375	-0.380351
Cl50	Cl	0.538718	0.352971	-0.225021
H51	H	0.581741	-0.201246	-0.158033
Cl52	Cl	0.563611	-0.054731	-0.386573
H53	H	0.998567	-0.099823	0.470031
Cl54	Cl	0.392446	-0.041045	-0.388337
