data_functionalizedCrystal
_audit_creation_method	'MofGen! by Chris Wilmer'
_symmetry_space_group_name_H-M	'P1'
_symmetry_Int_Tables_number	1
_symmetry_cell_setting	triclinic
loop_
_symmetry_equiv_pos_as_xyz
  x,y,z
_cell_length_a	12.759395
_cell_length_b	16.959454
_cell_length_c	12.759387
_cell_angle_alpha	90.030080
_cell_angle_beta	90.020509
_cell_angle_gamma	90.021612
loop_
_atom_site_label
_atom_site_type_symbol
_atom_site_fract_x
_atom_site_fract_y
_atom_site_fract_z
Zn1	Zn	1.606229	-0.314607	0.594010
Zn2	Zn	1.606104	-0.446808	0.418333
Zn3	Zn	1.430528	-0.314651	0.418347
Zn4	Zn	1.430504	-0.446751	0.593972
O5	O	1.518341	-0.380704	0.506166
O6	O	1.753234	-0.332150	0.570716
O7	O	1.582770	-0.429318	0.271314
O8	O	1.453898	-0.204034	0.441671
O9	O	1.753141	-0.429276	0.441647
O10	O	1.582985	-0.204002	0.570730
O11	O	1.453776	-0.332223	0.271324
O12	O	1.283503	-0.332169	0.441634
O13	O	1.453857	-0.429181	0.740998
O14	O	1.283486	-0.429222	0.570665
O15	O	1.582962	-0.332095	0.741026
O16	O	1.582747	-0.557411	0.441610
O17	O	1.453734	-0.557370	0.570651
C18	C	1.245374	-0.380695	0.506148
C19	C	1.128597	-0.380710	0.506165
C20	C	1.518253	-0.586071	0.506148
C21	C	1.518311	-0.673927	0.506175
C22	C	1.128617	-0.481935	0.640307
C23	C	1.073766	-0.532554	0.707381
C24	C	0.964045	-0.532564	0.707394
C25	C	0.909171	-0.481947	0.640328
C26	C	0.964022	-0.431328	0.573254
C27	C	1.073746	-0.431326	0.573246
C28	C	0.964002	-0.330100	0.439118
C29	C	1.073723	-0.330093	0.439098
C30	C	0.909128	-0.279483	0.372052
C31	C	0.963979	-0.228867	0.304971
C32	C	1.073707	-0.228860	0.304960
C33	C	1.128574	-0.279474	0.372024
C34	C	1.451262	-1.045411	0.573350
C35	C	1.585713	-1.045394	0.439088
C36	C	1.585676	-0.962848	0.439078
C37	C	1.518430	-0.921580	0.506205
C38	C	1.451221	-0.962858	0.573340
C39	C	1.652877	-0.921565	0.371936
C40	C	1.652842	-0.839014	0.371923
C41	C	1.585601	-0.797744	0.439055
C42	C	1.518389	-0.839026	0.506195
C43	C	1.451143	-0.797758	0.573321
C44	C	1.383936	-0.839039	0.640466
C45	C	1.383979	-0.921588	0.640473
C46	C	1.585558	-0.715195	0.439049
C47	C	1.451102	-0.715205	0.573311
C48	C	1.792374	-0.380714	0.506184
C49	C	1.909151	-0.380719	0.506192
C50	C	1.518420	-0.380627	0.780199
C51	C	1.518454	-0.380594	0.896976
C52	C	1.518458	-0.174536	0.506207
C53	C	1.518508	-0.086679	0.506224
C54	C	1.518322	-0.380724	0.233198
C55	C	1.518492	-0.380535	0.116422
C56	C	1.652900	-0.279505	0.897025
C57	C	1.720138	-0.228949	0.951910
C58	C	1.720164	-0.228920	1.061632
C59	C	1.652942	-0.279451	1.116471
C60	C	1.585704	-0.330007	1.061586
C61	C	1.585688	-0.330032	0.951861
C62	C	1.451254	-0.431091	1.061537
C63	C	1.451233	-0.431125	0.951815
C64	C	1.384033	-0.481622	1.116375
C65	C	1.316799	-0.532183	1.061490
C66	C	1.316777	-0.532211	0.951762
C67	C	1.383995	-0.481681	0.896930
H68	H	1.118456	-0.573764	0.761987
N69	N	1.383949	-0.481689	0.778588
H70	H	1.331147	-0.521377	0.752135
H71	H	1.456034	-0.496204	0.752226
N72	N	1.658044	-0.670673	0.366644
H73	H	1.647818	-0.612116	0.376825
H74	H	1.641735	-0.685143	0.291596
N75	N	1.244249	-0.586744	0.892580
H76	H	1.286903	-0.623395	0.847055
H77	H	1.195586	-0.554574	0.847118
H78	H	0.919385	-0.573778	0.762017
H79	H	1.707618	-0.955171	0.317278
H80	H	1.217958	-0.481938	0.640296
N81	N	1.378779	-1.089928	0.645771
H82	H	1.389006	-1.148485	0.635598
H83	H	1.303747	-1.075549	0.629349
H84	H	1.774867	-0.187806	0.907249
N85	N	1.384047	-0.481603	1.234717
H86	H	1.311988	-0.467059	1.261133
H87	H	1.436887	-0.441919	1.261095
N88	N	1.652886	-0.279547	0.778683
H89	H	1.705673	-0.239869	0.752272
H90	H	1.580786	-0.265040	0.752322
N91	N	1.132854	-0.174259	0.232609
H92	H	1.178341	-0.206328	0.183835
H93	H	1.178352	-0.137677	0.275460
H94	H	0.819787	-0.279491	0.372072
N95	N	0.790830	-0.481957	0.640339
H96	H	0.764436	-0.467498	0.712448
H97	H	0.764461	-0.536177	0.620857
N98	N	0.904798	-0.174289	0.232629
H99	H	0.826968	-0.181977	0.242814
H100	H	0.923941	-0.186535	0.157569
N101	N	1.244307	-0.586672	1.120651
H102	H	1.260578	-0.643158	1.101559
H103	H	1.169273	-0.574327	1.101526
N104	N	1.246916	-0.279475	0.372013
H105	H	1.273382	-0.265016	0.444119
H106	H	1.273259	-0.239735	0.319300
H107	H	1.774908	-0.187748	1.106320
H108	H	1.640456	-1.079000	0.384431
H109	H	1.652960	-0.279417	1.205812
H110	H	1.396346	-0.681609	0.627978
H111	H	1.329179	-0.805429	0.695116
H112	H	1.707566	-0.805408	0.317251
N113	N	1.311492	-0.966111	0.712884
H114	H	1.321719	-1.024667	0.702697
H115	H	1.236461	-0.951729	0.696459
