data_functionalizedCrystal
_audit_creation_method	'MofGen! by Chris Wilmer'
_symmetry_space_group_name_H-M	'P1'
_symmetry_Int_Tables_number	1
_symmetry_cell_setting	triclinic
loop_
_symmetry_equiv_pos_as_xyz
  x,y,z
_cell_length_a	16.109301
_cell_length_b	13.339070
_cell_length_c	15.186229
_cell_angle_alpha	89.998719
_cell_angle_beta	89.999362
_cell_angle_gamma	99.545388
loop_
_atom_site_label
_atom_site_type_symbol
_atom_site_fract_x
_atom_site_fract_y
_atom_site_fract_z
O1	O	1.133153	0.130020	-0.073168
O2	O	0.894827	0.146201	-0.073182
O3	O	0.986638	-0.009144	-0.073174
O4	O	1.041342	0.285365	-0.073176
O5	O	0.986629	-0.009146	0.073283
O6	O	0.894818	0.146199	0.073275
O7	O	1.133144	0.130018	0.073289
Zn8	Zn	1.013980	0.138108	0.096535
Zn9	Zn	1.013992	0.138111	-0.096428
O10	O	1.041333	0.285363	0.073281
C11	C	0.863697	0.145545	0.000045
C12	C	0.770947	0.143580	0.000040
C13	C	0.568905	0.231189	0.000049
C14	C	0.481756	0.229335	0.000055
C15	C	0.459072	0.045023	0.000053
C16	C	0.546219	0.046879	0.000053
C17	C	0.601133	0.139965	0.000047
C18	C	0.426838	0.136255	0.000052
C19	C	0.332347	0.134244	0.000058
C20	C	0.695630	0.141976	0.000043
C21	C	0.977393	-0.046831	0.000053
C22	C	0.949849	-0.159124	0.000048
C23	C	1.164017	-0.523987	0.000060
C24	C	1.189898	-0.418483	0.000070
C25	C	1.129888	-0.353638	0.000064
C26	C	1.043992	-0.394307	0.000049
C27	C	1.018108	-0.499822	0.000046
C28	C	0.983979	-0.329473	0.000050
C29	C	0.898083	-0.370142	0.000035
C30	C	0.872203	-0.475647	0.000032
C31	C	0.932213	-0.540492	0.000038
C32	C	1.009863	-0.223958	0.000053
C33	C	0.863954	-0.199793	0.000039
C34	C	0.838073	-0.305297	0.000029
C35	C	1.164275	0.130675	0.000060
C36	C	1.257024	0.132640	0.000060
C37	C	1.050578	0.323050	0.000052
C38	C	1.078122	0.435343	0.000052
N39	N	1.013977	0.138106	0.228228
N40	N	1.013998	0.138106	-0.228121
C41	C	1.054656	0.069342	0.453954
C42	C	1.054658	0.069340	0.546144
C43	C	0.973315	0.206873	0.546146
C44	C	0.973308	0.206869	0.453958
C45	C	1.013984	0.138105	0.407865
C46	C	1.013992	0.138106	0.592242
C47	C	1.013994	0.138104	0.692198
C48	C	1.013980	0.138106	0.307902
H49	H	1.079800	-0.190856	0.000066
C50	C	0.399490	-0.056068	0.000229
C51	C	0.413826	-0.111211	0.075587
C52	C	0.358950	-0.204338	0.075781
H53	H	0.409066	-0.093745	-0.050786
H54	H	0.342958	-0.044154	0.000273
H55	H	0.470345	-0.123128	0.075535
H56	H	0.404244	-0.073566	0.126613
H57	H	0.302419	-0.192423	0.075825
H58	H	0.368531	-0.242005	0.024763
H59	H	0.368664	-0.241760	0.126914
H60	H	1.087776	0.013345	0.583668
C61	C	0.929236	0.281694	0.596077
C62	C	0.965629	0.381100	0.573627
C63	C	0.925038	0.450055	0.619593
H64	H	0.935036	0.271995	0.657597
H65	H	0.871209	0.270747	0.580954
H66	H	1.023642	0.392044	0.588756
H67	H	0.959829	0.390832	0.512115
H68	H	0.867011	0.439108	0.604469
H69	H	0.930841	0.440346	0.681110
H70	H	0.949719	0.517509	0.604361
C71	C	0.581332	-0.052095	-0.000089
C72	C	0.630721	-0.056395	-0.075425
C73	C	0.663090	-0.147542	-0.075577
H74	H	0.536232	-0.107882	-0.000137
H75	H	0.614902	-0.055210	0.050959
H76	H	0.597152	-0.053289	-0.126459
H77	H	0.675834	-0.000629	-0.075393
H78	H	0.696660	-0.150657	-0.024529
H79	H	0.617985	-0.203322	-0.075622
H80	H	0.696610	-0.150467	-0.126687
H81	H	1.150966	-0.267732	0.000072
H82	H	1.259835	-0.385378	0.000084
C83	C	0.929294	0.281586	0.403800
C84	C	0.987861	0.343501	0.350850
C85	C	0.947344	0.412327	0.304624
H86	H	0.905075	0.322642	0.444353
H87	H	0.886306	0.245211	0.367791
H88	H	1.030834	0.379873	0.386856
H89	H	1.012083	0.302473	0.310281
H90	H	0.904356	0.375952	0.268615
H91	H	0.923127	0.453376	0.345184
H92	H	0.987074	0.454338	0.268687
H93	H	1.087775	0.013349	0.416427
C94	C	0.628389	0.332354	0.000096
C95	C	0.581507	0.411846	0.000124
C96	C	0.636272	0.505055	0.000182
H97	H	0.662879	0.337060	-0.050962
H98	H	0.662844	0.336959	0.051190
H99	H	0.547066	0.407243	-0.050965
H100	H	0.547019	0.407174	0.051179
H101	H	0.670727	0.509660	0.051276
H102	H	0.670760	0.509750	-0.050877
H103	H	0.604471	0.559001	0.000209
H104	H	0.802261	-0.508756	0.000026
C105	C	0.446650	0.328304	-0.000086
C106	C	0.397264	0.332612	-0.075422
C107	C	0.364903	0.423765	-0.075576
H108	H	0.491754	0.384086	-0.000135
H109	H	0.413079	0.331422	0.050962
H110	H	0.430833	0.329504	-0.126456
H111	H	0.352147	0.276851	-0.075389
H112	H	0.331332	0.426883	-0.024528
H113	H	0.410012	0.479541	-0.075622
H114	H	0.331385	0.426696	-0.126686
H115	H	1.212868	-0.576792	0.000072
H116	H	0.911145	-0.626403	0.000026
C117	C	0.744805	-0.349404	-0.000164
C118	C	0.707098	-0.316468	-0.075528
C119	C	0.621184	-0.357090	-0.075742
H120	H	0.718955	-0.327183	0.050847
H121	H	0.737954	-0.421531	-0.000213
H122	H	0.713943	-0.244357	-0.075470
H123	H	0.732923	-0.338688	-0.126550
H124	H	0.614333	-0.429217	-0.075792
H125	H	0.595343	-0.334866	-0.024729
H126	H	0.595591	-0.334757	-0.126879
H127	H	0.815089	-0.146996	0.000039
