data_functionalizedCrystal
_audit_creation_method	'MofGen! by Chris Wilmer'
_symmetry_space_group_name_H-M	'P1'
_symmetry_Int_Tables_number	1
_symmetry_cell_setting	triclinic
loop_
_symmetry_equiv_pos_as_xyz
  x,y,z
_cell_length_a	27.732064
_cell_length_b	27.732048
_cell_length_c	14.421503
_cell_angle_alpha	89.999321
_cell_angle_beta	90.000074
_cell_angle_gamma	82.646040
loop_
_atom_site_label
_atom_site_type_symbol
_atom_site_fract_x
_atom_site_fract_y
_atom_site_fract_z
O1	O	0.640925	0.057548	-0.076956
O2	O	0.500133	0.066286	-0.076996
O3	O	0.574901	-0.008479	-0.076957
O4	O	0.566156	0.132313	-0.076995
O5	O	0.574889	-0.008468	0.077266
O6	O	0.500120	0.066297	0.077228
O7	O	0.640912	0.057560	0.077267
Cu8	Cu	0.570515	0.061929	0.091329
Cu9	Cu	0.570530	0.061916	-0.091058
O10	O	0.566144	0.132325	0.077229
C11	C	0.482120	0.066106	0.000111
C12	C	0.428465	0.065551	0.000097
C13	C	0.051392	0.017583	0.000163
C14	C	0.253053	0.019630	0.000138
O15	O	0.284305	-0.017591	0.000183
N16	N	0.272180	0.063964	0.000122
C17	C	0.240889	0.107790	0.000118
O18	O	0.261785	0.145546	0.000114
C19	C	0.039230	0.105743	0.000149
C20	C	0.020105	0.061406	0.000156
C21	C	0.032267	-0.026750	0.000170
C22	C	-0.018145	-0.027261	0.000171
C23	C	-0.049432	0.016561	0.000165
C24	C	-0.030307	0.060895	0.000157
C25	C	0.007940	0.149568	0.000152
C26	C	-0.042478	0.149053	0.000163
C27	C	-0.061602	0.104716	0.000169
C28	C	-0.112006	0.104206	0.000152
N29	N	-0.131134	0.059872	0.000168
C30	C	-0.099846	0.016049	0.000174
C31	C	0.346763	0.108861	0.000100
C32	C	0.397178	0.109373	0.000090
C33	C	0.409338	0.021213	0.000112
C34	C	0.358923	0.020701	0.000115
C35	C	0.327636	0.064527	0.000116
C36	C	-0.205716	0.014979	0.000176
C37	C	-0.256133	0.014472	0.000173
C38	C	-0.268289	0.102632	0.000156
C39	C	-0.217876	0.103140	0.000154
C40	C	-0.186590	0.059309	0.000167
O41	O	-0.143287	0.141407	0.000118
O42	O	-0.120752	-0.021701	0.000200
C43	C	0.101804	0.018094	0.000162
C44	C	0.120930	0.062428	0.000154
C45	C	0.089642	0.106250	0.000147
C46	C	0.171344	0.062940	0.000144
C47	C	0.202631	0.019117	0.000151
C48	C	0.183504	-0.025217	0.000167
C49	C	0.133092	-0.025728	0.000168
C50	C	0.108770	0.150585	0.000131
C51	C	0.159183	0.151092	0.000129
C52	C	0.190470	0.107270	0.000136
C53	C	0.574712	-0.026481	0.000157
C54	C	0.574159	-0.080136	0.000165
C55	C	0.614862	-0.418948	0.000129
C56	C	0.612811	-0.620608	0.000115
O57	O	0.650032	-0.651862	0.000085
N58	N	0.568476	-0.639735	0.000103
C59	C	0.524651	-0.608442	0.000089
O60	O	0.486895	-0.629338	0.000069
C61	C	0.526703	-0.406784	0.000096
C62	C	0.571040	-0.387660	0.000117
C63	C	0.659196	-0.399824	0.000148
C64	C	0.659709	-0.349412	0.000157
C65	C	0.615887	-0.318124	0.000145
C66	C	0.571553	-0.337248	0.000125
C67	C	0.482878	-0.375493	0.000075
C68	C	0.483395	-0.325075	0.000074
C69	C	0.527733	-0.305952	0.000095
C70	C	0.528243	-0.255548	0.000122
N71	N	0.572578	-0.236422	0.000134
C72	C	0.616400	-0.267710	0.000145
C73	C	0.523577	-0.714317	0.000087
C74	C	0.523064	-0.764731	0.000087
C75	C	0.611225	-0.776893	0.000111
C76	C	0.611737	-0.726478	0.000118
C77	C	0.567912	-0.695190	0.000099
C78	C	0.617472	-0.161841	0.000164
C79	C	0.617981	-0.111424	0.000176
C80	C	0.529821	-0.099266	0.000147
C81	C	0.529312	-0.149679	0.000140
C82	C	0.573142	-0.180965	0.000145
O83	O	0.491043	-0.224267	0.000142
O84	O	0.654151	-0.246805	0.000145
C85	C	0.614350	-0.469360	0.000120
C86	C	0.570016	-0.488484	0.000100
C87	C	0.526194	-0.457196	0.000089
C88	C	0.569503	-0.538899	0.000100
C89	C	0.613325	-0.570187	0.000112
C90	C	0.657660	-0.551060	0.000123
C91	C	0.658172	-0.500648	0.000132
C92	C	0.481859	-0.476323	0.000077
C93	C	0.481351	-0.526735	0.000070
C94	C	0.525172	-0.558023	0.000081
C95	C	0.658925	0.057739	0.000158
C96	C	0.712580	0.058295	0.000167
C97	C	0.566333	0.150326	0.000112
C98	C	0.566886	0.203981	0.000099
N99	N	0.570508	0.061938	0.219611
N100	N	0.570540	0.061903	-0.219339
C101	C	0.535929	0.096494	0.469246
C102	C	0.579538	0.105553	0.531058
C103	C	0.570520	0.061926	0.408772
C104	C	0.526923	0.052879	0.531054
C105	C	0.570528	0.061916	0.591493
C106	C	0.614151	0.071007	0.469223
C107	C	0.561507	0.018314	0.469213
C108	C	0.605147	0.027354	0.530997
C109	C	0.570515	0.061934	0.303511
C110	C	0.570538	0.061909	0.696752
H111	H	0.117526	-0.061832	0.000174
C112	C	0.632352	0.149367	0.621154
C113	C	0.589839	0.155332	0.567746
H114	H	0.638708	0.180100	0.643797
H115	H	0.628334	0.128422	0.671910
H116	H	0.658847	0.135540	0.583967
H117	H	0.563343	0.169156	0.604935
H118	H	0.593853	0.176285	0.516983
H119	H	0.494142	-0.073782	0.000141
C120	C	0.505486	-0.040847	0.463656
C121	C	0.551188	-0.031451	0.432500
H122	H	0.499111	-0.071568	0.440983
H123	H	0.505118	-0.041123	0.529510
H124	H	0.481232	-0.016223	0.441588
H125	H	0.575442	-0.056073	0.454574
H126	H	0.551559	-0.031179	0.366632
C127	C	-0.068365	0.224037	-0.079131
C128	C	-0.076869	0.197228	0.000156
H129	H	-0.089598	0.253776	-0.079138
H130	H	-0.035606	0.230683	-0.079125
H131	H	-0.074131	0.205834	-0.132902
H132	H	-0.071099	0.215429	0.053928
H133	H	-0.109635	0.190583	0.000159
C134	C	-0.305766	-0.037260	-0.079101
C135	C	-0.277152	-0.034267	0.000180
H136	H	-0.318738	-0.067351	-0.079097
H137	H	-0.331615	-0.011240	-0.079099
H138	H	-0.286346	-0.035229	-0.132876
H139	H	-0.296573	-0.036295	0.053955
H140	H	-0.251300	-0.060295	0.000187
H141	H	0.057737	-0.062438	0.000179
H142	H	0.343355	-0.015402	0.000121
H143	H	0.651031	0.078699	0.442178
H144	H	0.208987	-0.060899	0.000167
C145	C	0.473095	-0.029361	-0.079155
C146	C	0.443736	-0.026958	0.000125
H147	H	0.494333	-0.059097	-0.079137
H148	H	0.453174	-0.027741	-0.132925
H149	H	0.491694	-0.002878	-0.079160
H150	H	0.425134	-0.053439	0.000127
H151	H	0.463659	-0.028583	0.053909
C152	C	0.446822	0.161102	0.079331
C153	C	0.418200	0.158107	0.000062
H154	H	0.459802	0.191188	0.079310
H155	H	0.427411	0.159077	0.133108
H156	H	0.472671	0.135074	0.079325
H157	H	0.392349	0.184133	0.000071
H158	H	0.437613	0.160137	-0.053729
C159	C	0.440981	0.078800	0.536533
C160	C	0.477147	0.042548	0.567712
H161	H	0.410251	0.072421	0.559157
H162	H	0.447622	0.109535	0.558625
H163	H	0.440537	0.079021	0.470669
H164	H	0.477593	0.042329	0.633576
H165	H	0.470503	0.011804	0.545625
C166	C	0.690280	-0.002528	0.536000
C167	C	0.644681	-0.012116	0.567383
H168	H	0.714686	-0.026892	0.558470
H169	H	0.690662	-0.002563	0.470142
H170	H	0.696417	0.028372	0.558118
H171	H	0.638542	-0.043015	0.545258
H172	H	0.644298	-0.012086	0.633254
H173	H	0.023501	0.185672	0.000143
H174	H	0.654087	-0.095857	0.000196
H175	H	0.506706	0.125750	0.442134
C176	C	0.339819	0.196055	0.000068
C177	C	0.312377	0.157039	0.000090
H178	H	0.318590	0.225797	0.000052
H179	H	0.359735	0.194423	0.053844
H180	H	0.359736	0.194408	-0.053719
H181	H	0.292462	0.158684	0.053881
H182	H	0.292452	0.158672	-0.053691
H183	H	-0.180248	-0.020712	0.000186
H184	H	0.174748	0.187200	0.000117
H185	H	0.493209	-0.165249	0.000148
C186	C	-0.001046	-0.114349	0.000210
C187	C	-0.039162	-0.075999	0.000197
H188	H	-0.014019	-0.144439	0.000235
H189	H	0.018360	-0.112320	-0.053574
H190	H	0.018367	-0.112302	0.053989
H191	H	-0.058573	-0.078044	-0.053586
H192	H	-0.058575	-0.078029	0.053986
H193	H	-0.202304	0.139243	0.000148
H194	H	-0.293772	0.138311	0.000147
C195	C	0.709905	-0.451015	-0.079131
C196	C	0.706909	-0.479631	0.000146
H197	H	0.739994	-0.438040	-0.079118
H198	H	0.707875	-0.470429	-0.132903
H199	H	0.683881	-0.425162	-0.079125
H200	H	0.732931	-0.505486	0.000137
H201	H	0.708944	-0.460216	0.053932
C202	C	0.101825	0.237775	0.000099
C203	C	0.074383	0.198759	0.000116
H204	H	0.080596	0.267517	0.000079
H205	H	0.121738	0.236144	0.053878
H206	H	0.121745	0.236128	-0.053684
H207	H	0.054466	0.200404	0.053902
H208	H	0.054461	0.200391	-0.053670
C209	C	0.708227	-0.614811	-0.079157
C210	C	0.705830	-0.585458	0.000130
H211	H	0.737965	-0.636046	-0.079158
H212	H	0.681749	-0.633410	-0.079158
H213	H	0.706599	-0.594883	-0.132928
H214	H	0.707455	-0.605386	0.053901
H215	H	0.732315	-0.566857	0.000139
C216	C	0.704667	-0.168785	0.000202
C217	C	0.665650	-0.196226	0.000178
H218	H	0.734409	-0.190014	0.000220
H219	H	0.703037	-0.148869	-0.053575
H220	H	0.703019	-0.148867	0.053987
H221	H	0.667296	-0.216141	-0.053612
H222	H	0.667281	-0.216150	0.053960
H223	H	0.486960	-0.780296	0.000086
H224	H	0.695813	-0.333847	0.000170
C225	C	0.698826	-0.743575	0.000136
C226	C	0.660474	-0.705460	0.000127
H227	H	0.728915	-0.730600	0.000133
H228	H	0.696788	-0.762981	0.053916
H229	H	0.696789	-0.762988	-0.053647
H230	H	0.662509	-0.686049	0.053913
H231	H	0.662513	-0.686046	-0.053659
H232	H	0.694883	-0.425295	0.000154
H233	H	0.646906	-0.802377	0.000121
C234	C	0.436383	-0.707370	0.000077
C235	C	0.475400	-0.679929	0.000080
H236	H	0.406641	-0.686141	0.000082
H237	H	0.438021	-0.727284	-0.053703
H238	H	0.438023	-0.727289	0.053860
H239	H	0.473763	-0.660012	-0.053707
H240	H	0.473761	-0.660006	0.053865
H241	H	0.447706	-0.299603	0.000057
C242	C	0.395791	-0.358386	0.000023
C243	C	0.434140	-0.396504	0.000044
H244	H	0.365700	-0.371357	-0.000003
H245	H	0.397820	-0.338979	0.053806
H246	H	0.397841	-0.338974	-0.053757
H247	H	0.432092	-0.415913	0.053828
H248	H	0.432110	-0.415918	-0.053744
C249	C	0.406058	-0.531876	-0.079249
C250	C	0.432610	-0.547752	0.000044
H251	H	0.375970	-0.544853	-0.079272
H252	H	0.400097	-0.497378	-0.079235
H253	H	0.424098	-0.542640	-0.133016
H254	H	0.414572	-0.536986	0.053811
H255	H	0.438570	-0.582258	0.000038
H256	H	0.446173	-0.450852	0.000066
