data_functionalizedCrystal
_audit_creation_method	'MofGen! by Chris Wilmer'
_symmetry_space_group_name_H-M	'P1'
_symmetry_Int_Tables_number	1
_symmetry_cell_setting	triclinic
loop_
_symmetry_equiv_pos_as_xyz
  x,y,z
_cell_length_a	16.109301
_cell_length_b	12.837942
_cell_length_c	14.586319
_cell_angle_alpha	89.996741
_cell_angle_beta	89.999213
_cell_angle_gamma	89.145211
loop_
_atom_site_label
_atom_site_type_symbol
_atom_site_fract_x
_atom_site_fract_y
_atom_site_fract_z
O1	O	1.113716	0.133240	-0.076181
O2	O	1.613716	0.633240	0.423819
O3	O	0.872971	0.149822	-0.076196
O4	O	1.372971	0.649822	0.423804
O5	O	0.988005	-0.009370	-0.076183
O6	O	1.488005	0.490630	0.423817
O7	O	0.998682	0.292432	-0.076194
O8	O	1.498682	0.792432	0.423806
O9	O	0.987996	-0.009372	0.076298
O10	O	1.487996	0.490628	0.576298
O11	O	0.872962	0.149819	0.076285
O12	O	1.372962	0.649819	0.576285
O13	O	1.113707	0.133238	0.076299
O14	O	1.613707	0.633238	0.576299
Cu15	Cu	0.993333	0.141528	0.090215
Cu16	Cu	1.493333	0.641528	0.590215
Cu17	Cu	0.993344	0.141531	-0.090111
Cu18	Cu	1.493344	0.641531	0.409889
O19	O	0.998673	0.292430	0.076287
O20	O	1.498673	0.792430	0.576287
C21	C	0.841938	0.149149	0.000043
C22	C	1.341938	0.649149	0.500043
C23	C	0.749483	0.147135	0.000037
C24	C	1.249483	0.647135	0.500037
C25	C	0.534343	0.236914	0.000045
C26	C	1.034343	0.736914	0.500045
C27	C	0.447471	0.235014	0.000051
C28	C	0.947471	0.735014	0.500051
C29	C	0.452341	0.046138	0.000054
C30	C	0.952341	0.546138	0.500054
C31	C	0.539211	0.048040	0.000054
C32	C	1.039211	0.548040	0.500054
C33	C	0.580209	0.143431	0.000045
C34	C	1.080209	0.643431	0.500045
C35	C	0.406468	0.139629	0.000050
C36	C	0.906468	0.639629	0.500050
C37	C	0.312278	0.137568	0.000057
C38	C	0.812278	0.637568	0.500057
C39	C	0.674405	0.145492	0.000040
C40	C	1.174405	0.645492	0.500040
C41	C	0.984394	-0.047991	0.000056
C42	C	1.484394	0.452009	0.500056
C43	C	0.973637	-0.163064	0.000054
C44	C	1.473637	0.336936	0.500054
C45	C	1.102954	-0.404066	0.000043
C46	C	1.602954	0.095934	0.500043
C47	C	1.092851	-0.512188	0.000041
C48	C	1.592851	-0.012188	0.500041
C49	C	0.943328	-0.487433	0.000041
C50	C	1.443328	0.012567	0.500041
C51	C	0.953431	-0.379311	0.000043
C52	C	1.453431	0.120689	0.500043
C53	C	1.033247	-0.337632	0.000046
C54	C	1.533247	0.162368	0.500046
C55	C	1.043349	-0.229507	0.000054
C56	C	1.543349	0.270493	0.500054
C57	C	0.893827	-0.204754	0.000048
C58	C	1.393827	0.295246	0.500048
C59	C	0.883724	-0.312876	0.000046
C60	C	1.383724	0.187124	0.500046
C61	C	1.144739	0.133911	0.000059
C62	C	1.644739	0.633911	0.500059
C63	C	1.237195	0.135924	0.000058
C64	C	1.737195	0.635924	0.500058
C65	C	1.002284	0.331050	0.000045
C66	C	1.502284	0.831050	0.500045
C67	C	1.013041	0.446124	0.000041
C68	C	1.513041	0.946124	0.500041
N69	N	0.993332	0.141526	0.217047
N70	N	1.493332	0.641526	0.717047
N71	N	0.993352	0.141526	-0.216943
N72	N	1.493352	0.641526	0.283057
C73	C	1.044290	0.071059	0.452059
C74	C	1.544290	0.571059	0.952059
C75	C	1.044292	0.071057	0.548040
C76	C	1.544292	0.571057	1.048040
C77	C	0.942388	0.211995	0.548038
C78	C	1.442388	0.711995	1.048038
C79	C	0.942382	0.211992	0.452059
C80	C	1.442382	0.711992	0.952059
C81	C	0.993338	0.141525	0.404071
C82	C	1.493338	0.641525	0.904071
C83	C	0.993346	0.141526	0.596032
C84	C	1.493346	0.641526	1.096032
C85	C	0.993348	0.141524	0.700099
C86	C	1.493348	0.641524	1.200099
C87	C	0.993335	0.141526	0.299998
C88	C	1.493335	0.641526	0.799998
H89	H	0.576557	-0.028091	0.000057
H90	H	1.076557	0.471909	0.500057
H91	H	0.900887	0.269375	0.412985
H92	H	1.400887	0.769375	0.912985
H93	H	0.410130	0.311138	0.000052
H94	H	0.910130	0.811138	0.500052
H95	H	0.567721	0.314588	0.000044
H96	H	1.067721	0.814588	0.500044
C97	C	1.100336	-0.006448	0.399271
C98	C	1.600336	0.493552	0.899271
H99	H	1.093045	0.003648	0.335236
H100	H	1.593045	0.503648	0.835236
H101	H	1.085833	-0.075636	0.415004
H102	H	1.585833	0.424364	0.915004
H103	H	1.156717	0.004842	0.415000
H104	H	1.656717	0.504842	0.915000
C105	C	0.795933	-0.358725	0.000040
C106	C	1.295933	0.141275	0.500040
H107	H	0.755865	-0.303670	0.000035
H108	H	1.255865	0.196330	0.500035
H109	H	0.788881	-0.400399	0.053209
H110	H	1.288881	0.099601	0.553209
H111	H	0.788887	-0.400378	-0.053145
H112	H	1.288887	0.099622	0.446855
C113	C	0.855541	-0.533294	0.000038
C114	C	1.355541	-0.033294	0.500038
H115	H	0.859512	-0.607203	0.000041
H116	H	1.359512	-0.107203	0.500041
H117	H	0.826476	-0.510484	-0.053132
H118	H	1.326476	-0.010484	0.446868
H119	H	0.826480	-0.510500	0.053221
H120	H	1.326480	-0.010500	0.553221
C121	C	1.100342	-0.006452	0.600822
C122	C	1.600342	0.493548	1.100822
H123	H	1.130691	-0.048411	0.558493
H124	H	1.630691	0.451589	1.058493
H125	H	1.067023	-0.049616	0.638269
H126	H	1.567023	0.450384	1.138269
H127	H	1.137909	0.030859	0.638257
H128	H	1.637909	0.530859	1.138257
H129	H	0.900903	0.269370	0.587119
H130	H	1.400903	0.769370	1.087119
C131	C	0.407240	-0.058783	0.000052
C132	C	0.907240	0.441217	0.500052
H133	H	0.348934	-0.046528	0.000041
H134	H	0.848934	0.453472	0.500041
H135	H	0.422474	-0.097281	0.053224
H136	H	0.922474	0.402719	0.553224
H137	H	0.422480	-0.097265	-0.053130
H138	H	0.922480	0.402735	0.446870
H139	H	1.167943	-0.370130	0.000054
H140	H	1.667943	0.129870	0.500054
C141	C	1.131141	-0.183660	0.000054
C142	C	1.631141	0.316340	0.500054
H143	H	1.171208	-0.238716	0.000042
H144	H	1.671208	0.261284	0.500042
H145	H	1.138194	-0.142000	0.053227
H146	H	1.638194	0.358000	0.553227
H147	H	1.138188	-0.141993	-0.053127
H148	H	1.638188	0.358007	0.446873
H149	H	0.837067	-0.150651	0.000058
H150	H	1.337067	0.349349	0.500058
C151	C	1.169528	-0.585263	0.000043
C152	C	1.669528	-0.085263	0.500043
H153	H	1.218507	-0.544951	0.000051
H154	H	1.718507	-0.044951	0.500051
H155	H	1.168698	-0.627954	-0.053130
H156	H	1.668698	-0.127954	0.446870
H157	H	1.168693	-0.627957	0.053224
H158	H	1.668693	-0.127957	0.553224
