data_functionalizedCrystal
_audit_creation_method	'MofGen! by Chris Wilmer'
_symmetry_space_group_name_H-M	'P1'
_symmetry_Int_Tables_number	1
_symmetry_cell_setting	triclinic
loop_
_symmetry_equiv_pos_as_xyz
  x,y,z
_cell_length_a	16.109301
_cell_length_b	23.532407
_cell_length_c	15.186229
_cell_angle_alpha	89.991614
_cell_angle_beta	89.999362
_cell_angle_gamma	83.155079
loop_
_atom_site_label
_atom_site_type_symbol
_atom_site_fract_x
_atom_site_fract_y
_atom_site_fract_z
O1	O	1.102555	0.073202	-0.073182
O2	O	0.860421	0.082312	-0.073197
O3	O	0.988790	-0.005148	-0.073173
O4	O	0.974187	0.160662	-0.073206
O5	O	0.988781	-0.005149	0.073284
O6	O	0.860413	0.082311	0.073260
O7	O	1.102547	0.073201	0.073275
Zn8	Zn	0.981478	0.077755	0.096521
Zn9	Zn	0.981490	0.077757	-0.096443
O10	O	0.974178	0.160660	0.073251
C11	C	0.829445	0.081942	0.000030
C12	C	0.737159	0.080836	0.000025
C13	C	0.514498	0.130160	0.000025
C14	C	0.427786	0.129116	0.000031
C15	C	0.448476	0.025348	0.000048
C16	C	0.535187	0.026393	0.000048
C17	C	0.568195	0.078801	0.000032
C18	C	0.394773	0.076712	0.000038
C19	C	0.300755	0.075580	0.000044
C20	C	0.662218	0.079933	0.000028
C21	C	0.988414	-0.026366	0.000058
C22	C	0.987296	-0.089587	0.000064
C23	C	1.056249	-0.488436	0.000021
C24	C	1.055210	-0.547840	0.000014
O25	O	1.119130	-0.584349	-0.000015
N26	N	0.978895	-0.570748	0.000010
C27	C	0.903614	-0.534248	0.000003
O28	O	0.838607	-0.559187	-0.000002
C29	C	0.904654	-0.474845	0.000004
C30	C	0.980973	-0.451941	0.000017
C31	C	1.132562	-0.465531	0.000033
C32	C	1.133601	-0.406131	0.000041
C33	C	1.058325	-0.369636	0.000037
C34	C	0.982012	-0.392541	0.000025
C35	C	0.829373	-0.438346	-0.000009
C36	C	0.830419	-0.378940	-0.000009
C37	C	0.906739	-0.356036	0.000004
C38	C	0.907774	-0.296645	0.000030
N39	N	0.984089	-0.273738	0.000034
C40	C	1.059365	-0.310233	0.000038
C41	C	0.901437	-0.658998	0.000001
C42	C	0.900396	-0.718400	0.000007
C43	C	1.051993	-0.731988	0.000016
C44	C	1.053032	-0.672585	0.000016
C45	C	0.977752	-0.636091	0.000005
C46	C	1.061539	-0.185488	0.000056
C47	C	1.062571	-0.126082	0.000068
C48	C	0.910975	-0.112499	0.000055
C49	C	0.909943	-0.171900	0.000047
C50	C	0.985232	-0.208394	0.000045
O51	O	0.843888	-0.260102	0.000055
O52	O	1.124361	-0.285285	0.000031
C53	C	1.133523	0.073570	0.000046
C54	C	1.225809	0.074677	0.000046
C55	C	0.974554	0.181878	0.000018
C56	C	0.975672	0.245100	0.000006
N57	N	0.981477	0.077754	0.228214
N58	N	0.981498	0.077754	-0.228136
C59	C	1.038337	0.039040	0.453947
C60	C	1.038340	0.039039	0.546137
C61	C	0.924631	0.116470	0.546124
C62	C	0.924625	0.116468	0.453936
C63	C	0.981483	0.077754	0.407850
C64	C	0.981492	0.077754	0.592228
C65	C	0.981494	0.077753	0.692184
C66	C	0.981480	0.077754	0.307888
H67	H	0.421590	-0.017320	0.000066
H68	H	1.084635	0.007514	0.583666
C69	C	1.215375	-0.505669	0.000041
C70	C	1.278035	-0.503102	0.076104
C71	C	1.360854	-0.543236	0.076121
C72	C	1.381014	-0.585936	0.000076
C73	C	1.318353	-0.588505	-0.075993
C74	C	1.235533	-0.548371	-0.076010
H75	H	1.263113	-0.471492	0.132403
H76	H	1.407240	-0.541334	0.132433
H77	H	1.442322	-0.615645	0.000088
H78	H	1.333275	-0.620115	-0.132292
H79	H	1.189148	-0.550273	-0.132321
C80	C	0.550809	0.187807	0.000018
C81	C	0.491739	0.244301	0.000015
C82	C	0.528046	0.301950	0.000011
C83	C	0.623424	0.303104	0.000010
C84	C	0.682499	0.246607	0.000012
C85	C	0.646192	0.188959	0.000016
H86	H	0.421130	0.243449	0.000017
H87	H	0.484314	0.343772	0.000010
H88	H	0.650301	0.345778	0.000007
H89	H	0.753108	0.247459	0.000011
H90	H	0.689924	0.147136	0.000018
C91	C	0.862095	0.159059	0.596820
C92	C	0.862143	0.159097	0.698223
C93	C	0.799607	0.201689	0.748915
C94	C	0.737024	0.244243	0.698204
C95	C	0.736975	0.244206	0.596795
C96	C	0.799510	0.201614	0.546103
H97	H	0.908472	0.127595	0.735767
H98	H	0.799644	0.201716	0.823985
H99	H	0.690732	0.275772	0.735730
H100	H	0.690645	0.275708	0.559251
H101	H	0.799473	0.201587	0.471033
C102	C	0.747607	-0.338796	-0.000018
C103	C	0.684941	-0.341351	-0.076078
C104	C	0.602130	-0.301208	-0.076085
C105	C	0.581986	-0.258510	-0.000033
C106	C	0.644654	-0.255954	0.076032
C107	C	0.727464	-0.296097	0.076039
H108	H	0.699852	-0.372959	-0.132381
H109	H	0.555739	-0.303101	-0.132394
H110	H	0.520684	-0.228794	-0.000038
H111	H	0.629743	-0.224345	0.132336
H112	H	0.773855	-0.294204	0.132348
H113	H	0.578910	-0.015433	0.000057
H114	H	1.195748	-0.387488	0.000048
C115	C	0.745415	-0.463526	-0.000029
C116	C	0.683015	-0.449748	0.076009
C117	C	0.599050	-0.474924	0.075988
C118	C	0.577485	-0.513878	-0.000072
C119	C	0.639886	-0.527658	-0.076116
C120	C	0.723851	-0.502482	-0.076094
H121	H	0.698978	-0.420910	0.132319
H122	H	0.552857	-0.464723	0.132281
H123	H	0.515329	-0.532515	-0.000088
H124	H	0.623924	-0.556496	-0.132425
H125	H	0.770045	-0.512683	-0.132387
H126	H	0.384069	0.170939	0.000027
H127	H	1.113286	-0.761714	0.000015
H128	H	1.124722	-0.107437	0.000081
C129	C	0.828176	-0.072346	0.000044
C130	C	0.765515	-0.074895	-0.076021
C131	C	0.682716	-0.034740	-0.076042
C132	C	0.662579	0.007964	0.000003
C133	C	0.725242	0.010515	0.076074
C134	C	0.808040	-0.029641	0.076095
H135	H	0.780420	-0.106509	-0.132319
H136	H	0.636328	-0.036628	-0.132355
H137	H	0.601286	0.037690	-0.000012
H138	H	0.710336	0.042128	0.132372
H139	H	0.854428	-0.027752	0.132408
C140	C	1.144357	-0.225625	0.000061
C141	C	1.207017	-0.223066	0.076124
C142	C	1.289833	-0.263203	0.076136
C143	C	1.309988	-0.305899	0.000085
C144	C	1.247326	-0.308460	-0.075984
C145	C	1.164510	-0.268323	-0.075996
H146	H	1.192099	-0.191458	0.132427
H147	H	1.336220	-0.261307	0.132448
H148	H	1.371294	-0.335611	0.000094
H149	H	1.262245	-0.340068	-0.132287
H150	H	1.118124	-0.270220	-0.132308
C151	C	1.100873	-0.003549	0.403252
C152	C	1.068744	-0.047111	0.339889
C153	C	1.131280	-0.089702	0.289197
C154	C	1.225944	-0.088733	0.301867
C155	C	1.258077	-0.045170	0.365233
C156	C	1.195542	-0.002578	0.415925
H157	H	0.998664	-0.047830	0.330507
H158	H	1.107492	-0.121951	0.242289
H159	H	1.272237	-0.120262	0.264342
H160	H	1.328158	-0.044450	0.374615
H161	H	1.219330	0.029670	0.462832
H162	H	0.878323	0.147994	0.416402
H163	H	1.115179	-0.653941	0.000026
H164	H	0.840130	-0.629287	-0.000001
H165	H	0.847797	-0.190549	0.000061
H166	H	0.838249	-0.737043	0.000011
