data_functionalizedCrystal
_audit_creation_method	'MofGen! by Chris Wilmer'
_symmetry_space_group_name_H-M	'P1'
_symmetry_Int_Tables_number	1
_symmetry_cell_setting	triclinic
loop_
_symmetry_equiv_pos_as_xyz
  x,y,z
_cell_length_a	23.532407
_cell_length_b	23.532407
_cell_length_c	17.766277
_cell_angle_alpha	89.996096
_cell_angle_beta	89.993822
_cell_angle_gamma	82.848712
loop_
_atom_site_label
_atom_site_type_symbol
_atom_site_fract_x
_atom_site_fract_y
_atom_site_fract_z
O1	O	0.069132	0.755262	-0.062554
O2	O	0.569132	1.255262	0.437446
O3	O	0.079135	0.589398	-0.062567
O4	O	0.579135	1.089398	0.437433
O5	O	-0.008798	0.677331	-0.062547
O6	O	0.491202	1.177331	0.437453
O7	O	0.157066	0.667328	-0.062575
O8	O	0.657066	1.167328	0.437425
O9	O	-0.008795	0.677320	0.062642
O10	O	0.491205	1.177320	0.562642
O11	O	0.079139	0.589386	0.062621
O12	O	0.579139	1.089386	0.562621
O13	O	0.069135	0.755250	0.062634
O14	O	0.569135	1.255250	0.562634
Cu15	Cu	0.074137	0.672317	0.074058
Cu16	Cu	0.574137	1.172317	0.574058
Cu17	Cu	0.074134	0.672331	-0.073991
Cu18	Cu	0.574134	1.172331	0.426009
O19	O	0.157069	0.667317	0.062614
O20	O	0.657069	1.167317	0.562614
C21	C	0.078882	0.568176	0.000026
C22	C	0.578882	1.068176	0.500026
C23	C	0.078116	0.504959	0.000021
C24	C	0.578116	1.004959	0.500021
C25	C	0.022921	0.238792	0.000051
C26	C	0.522921	0.738792	0.500051
C27	C	0.023632	0.298192	0.000051
C28	C	0.523632	0.798192	0.500051
O29	O	-0.020153	0.334937	0.000084
O30	O	0.479847	0.834937	0.500084
N31	N	0.075909	0.320818	0.000037
N32	N	0.575909	0.820818	0.500037
C33	C	0.127477	0.284041	0.000031
C34	C	0.627477	0.784041	0.500031
O35	O	0.172007	0.308740	0.000019
O36	O	0.672007	0.808740	0.500019
C37	C	0.126765	0.224642	0.000036
C38	C	0.626765	0.724642	0.500036
C39	C	0.074485	0.202019	0.000043
C40	C	0.574485	0.702019	0.500043
C41	C	-0.029354	0.216168	0.000058
C42	C	0.470646	0.716168	0.500058
C43	C	-0.030066	0.156772	0.000057
C44	C	0.469934	0.656772	0.500057
C45	C	0.021499	0.119999	0.000049
C46	C	0.521499	0.619999	0.500049
C47	C	0.073774	0.142623	0.000042
C48	C	0.573774	0.642623	0.500042
C49	C	0.178333	0.187865	0.000036
C50	C	0.678333	0.687865	0.500036
C51	C	0.177616	0.128463	0.000042
C52	C	0.677616	0.628463	0.500042
C53	C	0.125336	0.105840	0.000048
C54	C	0.625336	0.605840	0.500048
C55	C	0.124627	0.046454	0.000032
C56	C	0.624627	0.546454	0.500032
N57	N	0.072351	0.023828	0.000046
N58	N	0.572351	0.523828	0.500046
C59	C	0.020787	0.060600	0.000055
C60	C	0.520787	0.560600	0.500055
C61	C	0.128968	0.408783	0.000020
C62	C	0.628968	0.908783	0.500020
C63	C	0.129681	0.468181	0.000009
C64	C	0.629681	0.968181	0.500009
C65	C	0.025836	0.482328	0.000030
C66	C	0.525836	0.982328	0.500030
C67	C	0.025124	0.422929	0.000036
C68	C	0.525124	0.922929	0.500036
C69	C	0.076692	0.386157	0.000034
C70	C	0.576692	0.886157	0.500034
C71	C	0.019297	-0.064136	0.000052
C72	C	0.519297	0.435864	0.500052
C73	C	0.018590	-0.123538	0.000048
C74	C	0.518590	0.376462	0.500048
C75	C	0.122435	-0.137680	0.000030
C76	C	0.622435	0.362320	0.500030
C77	C	0.123142	-0.078284	0.000030
C78	C	0.623142	0.421716	0.500030
C79	C	0.071568	-0.041512	0.000044
C80	C	0.571568	0.458488	0.500044
O81	O	0.168390	0.009675	0.000002
O82	O	0.668390	0.509675	0.500002
O83	O	-0.023737	0.035892	0.000076
O84	O	0.476263	0.535892	0.500076
C85	C	-0.030012	0.677071	0.000050
C86	C	0.469988	1.177071	0.500050
C87	C	-0.093229	0.676305	0.000055
C88	C	0.406771	1.176305	0.500055
C89	C	-0.492332	0.723538	0.000018
C90	C	0.007668	1.223538	0.500018
C91	C	-0.551733	0.722827	0.000012
C92	C	-0.051733	1.222827	0.500012
O93	O	-0.588477	0.766613	-0.000012
O94	O	-0.088477	1.266613	0.499988
N95	N	-0.574359	0.670551	0.000008
N96	N	-0.074359	1.170551	0.500008
C97	C	-0.537581	0.618982	0.000003
C98	C	-0.037581	1.118982	0.500003
O99	O	-0.562281	0.574452	-0.000001
O100	O	-0.062281	1.074452	0.499999
C101	C	-0.478182	0.619695	0.000003
C102	C	0.021818	1.119695	0.500003
C103	C	-0.455559	0.671974	0.000015
C104	C	0.044441	1.171974	0.500015
C105	C	-0.469709	0.775814	0.000028
C106	C	0.030291	1.275814	0.500028
C107	C	-0.410313	0.776525	0.000035
C108	C	0.089687	1.276525	0.500035
C109	C	-0.373540	0.724961	0.000032
C110	C	0.126460	1.224961	0.500032
C111	C	-0.396163	0.672685	0.000022
C112	C	0.103837	1.172685	0.500022
C113	C	-0.441406	0.568127	-0.000007
C114	C	0.058594	1.068127	0.499993
C115	C	-0.382003	0.568843	-0.000008
C116	C	0.117997	1.068843	0.499992
C117	C	-0.359381	0.621123	0.000004
C118	C	0.140619	1.121123	0.500004
C119	C	-0.299994	0.621832	0.000026
C120	C	0.200006	1.121832	0.500026
N121	N	-0.277368	0.674109	0.000029
N122	N	0.222632	1.174109	0.500029
C123	C	-0.314141	0.725673	0.000032
C124	C	0.185859	1.225673	0.500032
C125	C	-0.662324	0.617491	0.000001
C126	C	-0.162324	1.117491	0.500001
C127	C	-0.721722	0.616778	0.000006
C128	C	-0.221722	1.116778	0.500006
C129	C	-0.735869	0.720623	0.000013
C130	C	-0.235869	1.220623	0.500013
C131	C	-0.676470	0.721335	0.000014
C132	C	-0.176470	1.221335	0.500014
C133	C	-0.639698	0.669767	0.000004
C134	C	-0.139698	1.169767	0.500004
C135	C	-0.189404	0.727163	0.000048
C136	C	0.310596	1.227163	0.500048
C137	C	-0.130002	0.727869	0.000058
C138	C	0.369998	1.227869	0.500058
C139	C	-0.115860	0.624025	0.000047
C140	C	0.384140	1.124025	0.500047
C141	C	-0.175257	0.623318	0.000041
C142	C	0.324743	1.123318	0.500041
C143	C	-0.212028	0.674891	0.000039
C144	C	0.287972	1.174891	0.500039
O145	O	-0.263215	0.578069	0.000047
O146	O	0.236785	1.078069	0.500047
O147	O	-0.289433	0.770196	0.000027
O148	O	0.210567	1.270196	0.500027
C149	C	0.178283	0.667577	0.000016
C150	C	0.678283	1.167577	0.500016
C151	C	0.241500	0.668343	0.000005
C152	C	0.741500	1.168343	0.500005
C153	C	0.069389	0.776472	0.000040
C154	C	0.569389	1.276472	0.500040
C155	C	0.070155	0.839689	0.000039
C156	C	0.570155	1.339689	0.500039
N157	N	0.074140	0.672311	0.178189
N158	N	0.574140	1.172311	0.678189
N159	N	0.074127	0.672341	-0.178122
N160	N	0.574127	1.172341	0.321878
C161	C	0.108488	0.706685	0.782473
C162	C	0.608488	1.206685	1.282473
C163	C	0.108494	0.706679	0.703672
C164	C	0.608494	1.206679	1.203672
C165	C	0.074127	0.672336	0.664278
C166	C	0.574127	1.172336	1.164278
C167	C	0.039764	0.637985	0.703692
C168	C	0.539764	1.137985	1.203692
C169	C	0.039764	0.637988	0.782492
C170	C	0.539764	1.137988	1.282492
C171	C	0.022783	0.671051	0.539442
C172	C	0.522783	1.171051	1.039442
C173	C	0.022782	0.671052	0.460643
C174	C	0.522782	1.171052	0.960643
C175	C	0.074129	0.672326	0.421231
C176	C	0.574129	1.172326	0.921231
C177	C	0.125477	0.673609	0.460628
C178	C	0.625477	1.173609	0.960628
C179	C	0.125476	0.673612	0.539428
C180	C	0.625476	1.173612	1.039428
C181	C	0.074124	0.672330	0.578832
C182	C	0.574124	1.172330	1.078832
C183	C	0.108499	0.706665	0.296381
C184	C	0.608499	1.206665	0.796381
C185	C	0.108506	0.706656	0.217577
C186	C	0.608506	1.206656	0.717577
C187	C	0.039770	0.637965	0.217599
C188	C	0.539770	1.137965	0.717599
C189	C	0.039769	0.637971	0.296401
C190	C	0.539769	1.137971	0.796401
C191	C	0.074132	0.672325	0.335787
C192	C	0.574132	1.172325	0.835787
H193	H	-0.017447	0.404515	0.000042
H194	H	0.482553	0.904515	0.500042
H195	H	-0.019029	0.670011	0.428572
H196	H	0.480971	1.170011	0.928572
H197	H	-0.111587	0.770443	0.000070
H198	H	0.388413	1.270443	0.500070
F199	F	0.003190	0.601433	0.824431
F200	F	0.503190	1.101433	1.324431
F201	F	0.145064	0.743244	0.824386
F202	F	0.645064	1.243244	1.324386
F203	F	0.183858	0.369651	0.000010
F204	F	0.683858	0.869651	0.500010
H205	H	0.136477	0.734646	0.671582
H206	H	0.636477	1.234646	1.171582
H207	H	0.172252	0.486595	-0.000007
H208	H	0.672252	0.986595	0.499993
F209	F	-0.508838	0.830701	0.000031
F210	F	-0.008838	1.330701	0.500031
F211	F	-0.199334	0.567676	0.000042
F212	F	0.300666	1.067676	0.500042
F213	F	-0.465469	0.512483	-0.000023
F214	F	0.034531	1.012483	0.499977
F215	F	0.180123	0.674975	0.581354
F216	F	0.680123	1.174975	1.081354
F217	F	0.178783	-0.054206	0.000013
F218	F	0.678783	0.445794	0.500013
H219	H	-0.740135	0.574207	0.000010
H220	H	-0.240135	1.074207	0.500010
F221	F	0.003191	0.601433	0.661765
F222	F	0.503191	1.101433	1.161765
H223	H	-0.019031	0.670008	0.571525
H224	H	0.480969	1.170008	1.071525
F225	F	-0.652399	0.776978	0.000026
F226	F	-0.152399	1.276978	0.500026
F227	F	-0.084241	0.255297	0.000069
F228	F	0.415759	0.755297	0.500069
F229	F	0.232503	0.089330	0.000043
F230	F	0.732503	0.589330	0.500043
H231	H	0.136482	0.734635	0.328450
H232	H	0.636482	1.234635	0.828450
H233	H	-0.391900	0.819097	0.000041
H234	H	0.108100	1.319097	0.500041
H235	H	0.167288	0.674646	0.428541
H236	H	0.667288	1.174646	0.928541
F237	F	0.003199	0.601410	0.175678
F238	F	0.503199	1.101410	0.675678
F239	F	-0.623192	0.562602	-0.000002
F240	F	-0.123192	1.062602	0.499998
F241	F	-0.342870	0.513956	-0.000019
F242	F	0.157130	1.013956	0.499981
H243	H	-0.765821	0.762610	0.000013
H244	H	-0.265821	1.262610	0.500013
F245	F	0.233977	0.211929	0.000029
F246	F	0.733977	0.711929	0.500029
H247	H	-0.219337	0.769159	0.000044
H248	H	0.280663	1.269159	0.500044
H249	H	0.011786	0.610007	0.328485
H250	H	0.511786	1.110007	0.828485
H251	H	-0.085909	0.582043	0.000047
H252	H	0.414091	1.082043	0.500047
F253	F	0.145090	0.743200	0.175640
F254	F	0.645090	1.243200	0.675640
H255	H	-0.023984	-0.141954	0.000051
H256	H	0.476016	0.358046	0.500051
H257	H	-0.072637	0.138359	0.000066
H258	H	0.427363	0.638359	0.500066
F259	F	-0.035594	-0.025010	0.000066
F260	F	0.464406	0.474990	0.500066
H261	H	-0.016150	0.512280	0.000037
H262	H	0.483850	1.012280	0.500037
H263	H	0.164417	-0.167631	0.000019
H264	H	0.664417	0.332369	0.500019
