data_functionalizedCrystal
_audit_creation_method	'MofGen! by Chris Wilmer'
_symmetry_space_group_name_H-M	'P1'
_symmetry_Int_Tables_number	1
_symmetry_cell_setting	triclinic
loop_
_symmetry_equiv_pos_as_xyz
  x,y,z
_cell_length_a	14.971486
_cell_length_b	17.038272
_cell_length_c	13.448316
_cell_angle_alpha	89.993314
_cell_angle_beta	89.998199
_cell_angle_gamma	87.362843
loop_
_atom_site_label
_atom_site_type_symbol
_atom_site_fract_x
_atom_site_fract_y
_atom_site_fract_z
O1	O	1.194577	0.101898	-0.082578
O2	O	0.935090	0.114100	-0.082605
O3	O	1.063291	-0.005818	-0.082584
O4	O	1.066375	0.221816	-0.082599
O5	O	1.063273	-0.005826	0.082800
O6	O	0.935072	0.114093	0.082779
O7	O	1.194559	0.101890	0.082806
Cu8	Cu	1.064814	0.107991	0.097893
Cu9	Cu	1.064835	0.107999	-0.097692
O10	O	1.066358	0.221809	0.082785
C11	C	0.901716	0.113551	0.000083
C12	C	0.802296	0.111915	0.000073
C13	C	0.750345	0.182364	0.000070
C14	C	0.656930	0.180823	0.000085
C15	C	0.615468	0.108832	0.000096
C16	C	0.667426	0.038378	0.000102
C17	C	0.760839	0.039920	0.000095
C18	C	0.472723	0.035169	0.000116
C19	C	0.379303	0.033626	0.000122
C20	C	0.368815	0.176072	0.000107
C21	C	0.462228	0.177614	0.000099
C22	C	0.514179	0.107159	0.000103
C23	C	1.060477	-0.034954	0.000108
C24	C	1.052107	-0.121756	0.000107
C25	C	1.128951	-0.171781	0.000116
C26	C	1.121081	-0.253341	0.000105
C27	C	1.036367	-0.284874	0.000093
C28	C	0.959518	-0.234843	0.000081
C29	C	0.967388	-0.153285	0.000084
C30	C	1.008563	-0.530664	0.000077
C31	C	1.000698	-0.612229	0.000077
C32	C	1.162262	-0.630721	0.000099
C33	C	1.170125	-0.549161	0.000108
C34	C	1.093276	-0.499137	0.000091
C35	C	1.028321	-0.368241	0.000086
C36	C	1.101323	-0.415771	0.000091
C37	C	1.227933	0.102440	0.000115
C38	C	1.327353	0.104075	0.000119
C39	C	1.069172	0.250944	0.000091
C40	C	1.077542	0.337746	0.000086
N41	N	1.064806	0.107984	0.235458
N42	N	1.064850	0.108000	-0.235257
C43	C	1.121593	0.054906	0.287507
C44	C	1.121599	0.054905	0.391611
C45	C	1.064821	0.107987	0.443662
C46	C	1.008026	0.161068	0.391605
C47	C	1.008017	0.161064	0.287504
C48	C	1.008052	0.161073	0.608585
C49	C	1.008062	0.161078	0.712694
C50	C	1.121634	0.054914	0.712692
C51	C	1.121624	0.054911	0.608591
C52	C	1.064831	0.107992	0.556541
H53	H	0.614636	0.238189	0.000081
O54	O	0.892769	-0.104655	-0.000098
C55	C	0.892512	-0.056905	-0.085740
H56	H	0.935988	-0.086728	-0.145600
H57	H	0.821159	-0.047796	-0.114501
H58	H	0.920178	0.002419	-0.066371
O59	O	0.952859	0.212526	0.763374
C60	C	0.894497	0.170558	0.823591
H61	H	0.925485	0.109426	0.839180
H62	H	0.882837	0.203168	0.896797
H63	H	0.827975	0.165143	0.783491
H64	H	0.633660	-0.020239	0.000126
O65	O	1.183660	-0.385237	0.000234
C66	C	1.230861	-0.410779	0.085908
H67	H	1.202180	-0.467371	0.114461
H68	H	1.304496	-0.422022	0.066656
H69	H	1.224078	-0.363600	0.145884
O70	O	1.176807	0.003274	0.558180
C71	C	1.226951	-0.043565	0.626440
H72	H	1.190221	-0.044503	0.700656
H73	H	1.235847	-0.105989	0.596369
H74	H	1.295332	-0.018078	0.637493
H75	H	1.183656	-0.294068	0.000115
H76	H	0.961773	0.204284	0.245126
H77	H	0.961801	0.204295	0.566210
O78	O	0.502363	0.247612	0.000130
C79	C	0.436481	0.309467	0.000104
H80	H	0.371430	0.287492	0.031422
H81	H	0.459807	0.359720	0.048113
H82	H	0.424932	0.331205	-0.079240
O83	O	0.811344	-0.028494	0.000269
C84	C	0.865711	-0.031859	0.085907
H85	H	0.834584	0.008091	0.145773
H86	H	0.871412	-0.094833	0.114664
H87	H	0.935097	-0.011556	0.066536
H88	H	0.959346	-0.393925	0.000078
O89	O	1.211312	-0.141283	0.000081
C90	C	1.277447	-0.202930	0.000108
H91	H	1.248155	-0.258352	-0.031204
H92	H	1.336222	-0.185830	-0.047904
H93	H	1.301443	-0.214455	0.079452
O94	O	0.318221	0.244440	0.000146
C95	C	0.226881	0.227646	0.000133
H96	H	0.218632	0.166229	0.031460
H97	H	0.188031	0.272549	0.048139
H98	H	0.200121	0.230579	-0.079209
O99	O	0.339169	-0.036372	0.000179
C100	C	0.405050	-0.098227	0.000164
H101	H	0.470102	-0.076254	0.031471
H102	H	0.381724	-0.148482	0.048187
H103	H	0.416598	-0.119963	-0.079176
H104	H	0.515019	-0.022203	0.000121
H105	H	0.961791	0.204285	0.433991
H106	H	1.167876	0.011694	0.755077
H107	H	0.784097	0.240987	0.000060
O108	O	1.252439	-0.518573	-0.000056
C109	C	1.299682	-0.544136	-0.085690
H110	H	1.250263	-0.561134	-0.145569
H111	H	1.341508	-0.494693	-0.114428
H112	H	1.345476	-0.597248	-0.066319
O113	O	1.236936	-0.679282	0.000281
C114	C	1.288007	-0.664974	0.085925
H115	H	1.242901	-0.637152	0.145793
H116	H	1.319475	-0.722808	0.114674
H117	H	1.342943	-0.623395	0.066566
H118	H	1.167839	0.011685	0.433989
O119	O	0.918383	-0.642827	-0.000120
C120	C	0.871170	-0.617255	-0.085774
H121	H	0.920610	-0.600235	-0.145629
H122	H	0.829368	-0.666700	-0.114534
H123	H	0.825357	-0.564154	-0.066421
O124	O	0.933981	-0.481996	0.000198
C125	C	0.933676	-0.434285	0.085863
H126	H	1.004988	-0.430098	0.114428
H127	H	0.905024	-0.373018	0.066593
H128	H	0.890772	-0.461157	0.145836
O129	O	0.877207	-0.265436	-0.000109
C130	C	0.829990	-0.239857	-0.085757
H131	H	0.879427	-0.222842	-0.145618
H132	H	0.788177	-0.289297	-0.114514
H133	H	0.784185	-0.186752	-0.066399
O134	O	1.176778	0.003266	0.237103
C135	C	1.226915	-0.043569	0.305372
H136	H	1.190180	-0.044501	0.379584
H137	H	1.235811	-0.105996	0.275307
H138	H	1.295297	-0.018084	0.316429
