data_functionalizedCrystal
_audit_creation_method	'MofGen! by Chris Wilmer'
_symmetry_space_group_name_H-M	'P1'
_symmetry_Int_Tables_number	1
_symmetry_cell_setting	triclinic
loop_
_symmetry_equiv_pos_as_xyz
  x,y,z
_cell_length_a	14.853566
_cell_length_b	15.995292
_cell_length_c	13.930277
_cell_angle_alpha	89.998637
_cell_angle_beta	89.995631
_cell_angle_gamma	83.551515
loop_
_atom_site_label
_atom_site_type_symbol
_atom_site_fract_x
_atom_site_fract_y
_atom_site_fract_z
O1	O	1.196197	0.109315	-0.079760
O2	O	1.696197	0.609315	0.420240
O3	O	0.933717	0.122339	-0.079775
O4	O	1.433717	0.622339	0.420225
O5	O	1.072159	-0.006056	-0.079769
O6	O	1.572159	0.493944	0.420231
O7	O	1.057755	0.237709	-0.079767
O8	O	1.557755	0.737709	0.420233
O9	O	1.072140	-0.006059	0.079893
O10	O	1.572140	0.493941	0.579893
O11	O	0.933698	0.122336	0.079886
O12	O	1.433698	0.622336	0.579886
O13	O	1.196178	0.109312	0.079901
O14	O	1.696178	0.609312	0.579901
Zn15	Zn	1.064935	0.115823	0.105244
Zn16	Zn	1.564935	0.615823	0.605244
Zn17	Zn	1.064960	0.115827	-0.105118
Zn18	Zn	1.564960	0.615827	0.394882
O19	O	1.057736	0.237707	0.079895
O20	O	1.557736	0.737707	0.579895
C21	C	0.900120	0.121747	0.000053
C22	C	1.400120	0.621747	0.500053
C23	C	0.800039	0.119979	0.000047
C24	C	1.300039	0.619979	0.500047
C25	C	0.376876	0.112504	-0.086967
C26	C	0.876876	0.612504	0.413033
C27	C	0.376876	0.112501	0.087102
C28	C	0.876876	0.612501	0.587102
C29	C	0.470908	0.114161	0.087099
C30	C	0.970908	0.614161	0.587099
C31	C	0.517928	0.114994	0.000062
C32	C	1.017928	0.614994	0.500062
C33	C	0.470916	0.114166	-0.086973
C34	C	0.970916	0.614166	0.413027
C35	C	0.517926	0.114997	0.174132
C36	C	1.017926	0.614997	0.674132
C37	C	0.611963	0.116659	0.174133
C38	C	1.111963	0.616659	0.674133
C39	C	0.658985	0.117485	0.087094
C40	C	1.158985	0.617485	0.587094
C41	C	0.611967	0.116657	0.000056
C42	C	1.111967	0.616657	0.500056
C43	C	0.658987	0.117489	-0.086982
C44	C	1.158987	0.617489	0.413018
C45	C	0.611972	0.116655	-0.174021
C46	C	1.111972	0.616655	0.325979
C47	C	0.517938	0.114993	-0.174012
C48	C	1.017938	0.614993	0.325988
C49	C	0.753019	0.119147	0.087085
C50	C	1.253019	0.619147	0.587085
C51	C	0.753027	0.119152	-0.086987
C52	C	1.253027	0.619152	0.413013
C53	C	1.071564	-0.037254	0.000059
C54	C	1.571564	0.462746	0.500059
C55	C	1.069806	-0.130209	0.000052
C56	C	1.569806	0.369791	0.500052
C57	C	1.063344	-0.467955	0.000061
C58	C	1.563344	0.032045	0.500061
C59	C	1.163268	-0.444526	0.000423
C60	C	1.663268	0.055474	0.500423
C61	C	1.165168	-0.347849	0.000060
C62	C	1.665168	0.152151	0.500060
C63	C	1.066551	-0.300395	0.000057
C64	C	1.566551	0.199605	0.500057
C65	C	1.016604	-0.329552	-0.091118
C66	C	1.516604	0.170448	0.408882
C67	C	1.015401	-0.426344	-0.091191
C68	C	1.515401	0.073656	0.408809
C69	C	1.013339	-0.426207	0.090375
C70	C	1.513339	0.073793	0.590375
C71	C	1.017042	-0.329710	0.091576
C72	C	1.517042	0.170290	0.591576
C73	C	1.068357	-0.205697	0.000052
C74	C	1.568357	0.294303	0.500052
C75	C	1.061535	-0.562652	0.000059
C76	C	1.561535	-0.062652	0.500059
C77	C	1.229775	0.109903	0.000070
C78	C	1.729775	0.609903	0.500070
C79	C	1.329856	0.111671	0.000070
C80	C	1.829856	0.611671	0.500070
C81	C	1.058331	0.268904	0.000064
C82	C	1.558331	0.768904	0.500064
C83	C	1.060089	0.361859	0.000065
C84	C	1.560089	0.861859	0.500065
N85	N	1.064924	0.115820	0.248810
N86	N	1.564924	0.615820	0.748810
N87	N	1.064978	0.115823	-0.248684
N88	N	1.564978	0.615823	0.251316
C89	C	1.003656	0.172658	0.701076
C90	C	1.503656	0.672658	1.201076
C91	C	1.126290	0.058990	0.701051
C92	C	1.626290	0.558990	1.201051
C93	C	1.126279	0.058987	0.600556
C94	C	1.626279	0.558987	1.100556
C95	C	1.064956	0.115822	0.550315
C96	C	1.564956	0.615822	1.050315
C97	C	1.003645	0.172659	0.600571
C98	C	1.503645	0.672659	1.100571
C99	C	1.187596	0.002157	0.550292
C100	C	1.687596	0.502157	1.050292
C101	C	1.187588	0.002153	0.449790
C102	C	1.687588	0.502153	0.949790
C103	C	1.126261	0.058984	0.399549
C104	C	1.626261	0.558984	0.899549
C105	C	1.064946	0.115822	0.449810
C106	C	1.564946	0.615822	0.949810
C107	C	1.003623	0.172657	0.399570
C108	C	1.503623	0.672657	0.899570
C109	C	0.942303	0.229492	0.449830
C110	C	1.442303	0.729492	0.949830
C111	C	0.942317	0.229490	0.550329
C112	C	1.442317	0.729490	1.050329
C113	C	1.126247	0.058986	0.299050
C114	C	1.626247	0.558986	0.799050
C115	C	1.003612	0.172658	0.299065
C116	C	1.503612	0.672658	0.799065
H117	H	0.338587	0.111829	0.157964
H118	H	0.838587	0.611829	0.657964
Cl119	Cl	1.225540	-0.318401	0.100979
Cl120	Cl	1.725540	0.181599	0.600979
H121	H	1.053410	-0.311104	0.159027
H122	H	1.553410	0.188896	0.659027
H123	H	0.479650	0.114313	-0.244874
H124	H	0.979650	0.614313	0.255126
H125	H	0.944036	-0.297769	-0.094509
H126	H	1.444036	0.202231	0.405491
Cl127	Cl	0.317778	0.111430	-0.196382
Cl128	Cl	0.817778	0.611430	0.303618
H129	H	1.176221	0.012721	0.741960
H130	H	1.676221	0.512721	1.241960
Cl131	Cl	0.902291	-0.448944	-0.097590
Cl132	Cl	1.402291	0.051056	0.402410
Cl133	Cl	1.203334	-0.012454	0.235872
Cl134	Cl	1.703334	0.487546	0.735872
Cl135	Cl	0.671059	0.117705	0.283551
Cl136	Cl	1.171059	0.617705	0.783551
Cl137	Cl	0.926512	0.244107	0.235914
Cl138	Cl	1.426512	0.744107	0.735914
H139	H	0.791304	0.119827	-0.157865
H140	H	1.291304	0.619827	0.342135
H141	H	0.892378	0.275771	0.408913
H142	H	1.392378	0.775771	0.908913
H143	H	1.050008	-0.453119	-0.159343
H144	H	1.550008	0.046881	0.340657
H145	H	0.650267	0.117338	-0.244887
H146	H	1.150267	0.617338	0.255113
H147	H	0.479634	0.114325	0.244993
H148	H	0.979634	0.614325	0.744993
Cl149	Cl	0.812118	0.120202	0.196496
Cl150	Cl	1.312118	0.620202	0.696496
H151	H	1.201776	-0.472480	0.065808
H152	H	1.701776	0.027520	0.565808
H153	H	1.201578	-0.473499	-0.064591
H154	H	1.701578	0.026501	0.435409
Cl155	Cl	0.865238	0.300937	0.613515
Cl156	Cl	1.365238	0.800937	1.113515
Cl157	Cl	1.225938	-0.319355	-0.101020
Cl158	Cl	1.725938	0.180645	0.398980
Cl159	Cl	1.061592	-0.469842	0.197069
Cl160	Cl	1.561592	0.030158	0.697069
H161	H	1.237527	-0.044112	0.591201
H162	H	1.737527	0.455888	1.091201
H163	H	1.237517	-0.044126	0.408875
H164	H	1.737517	0.455874	0.908875
H165	H	0.945061	-0.296824	0.097080
H166	H	1.445061	0.203176	0.597080
Cl167	Cl	1.070179	-0.298524	-0.195875
Cl168	Cl	1.570179	0.201476	0.304125
H169	H	0.939787	-0.440282	0.090987
H170	H	1.439787	0.059718	0.590987
H171	H	0.953727	0.218930	0.742000
H172	H	1.453727	0.718930	1.242000
