data_functionalizedCrystal
_audit_creation_method	'MofGen! by Chris Wilmer'
_symmetry_space_group_name_H-M	'P1'
_symmetry_Int_Tables_number	1
_symmetry_cell_setting	triclinic
loop_
_symmetry_equiv_pos_as_xyz
  x,y,z
_cell_length_a	21.295418
_cell_length_b	21.295417
_cell_length_c	12.645323
_cell_angle_alpha	90.035966
_cell_angle_beta	90.040795
_cell_angle_gamma	90.046319
loop_
_atom_site_label
_atom_site_type_symbol
_atom_site_fract_x
_atom_site_fract_y
_atom_site_fract_z
Zn1	Zn	0.962338	-0.250326	0.599917
Zn2	Zn	1.462338	0.249674	1.099917
Zn3	Zn	0.962245	-0.355604	0.422629
Zn4	Zn	1.462245	0.144396	0.922629
Zn5	Zn	0.857066	-0.250382	0.422602
Zn6	Zn	1.357066	0.249618	0.922602
Zn7	Zn	0.857030	-0.355591	0.599785
Zn8	Zn	1.357030	0.144409	1.099785
O9	O	0.909670	-0.302976	0.511233
O10	O	1.409670	0.197024	1.011233
O11	O	1.050415	-0.264274	0.576465
O12	O	1.550415	0.235726	1.076465
O13	O	0.948270	-0.341676	0.274278
O14	O	1.448270	0.158324	0.774278
O15	O	0.871084	-0.162285	0.446168
O16	O	1.371084	0.337715	0.946168
O17	O	1.050347	-0.341621	0.446212
O18	O	1.550347	0.158379	0.946212
O19	O	0.948427	-0.162244	0.576440
O20	O	1.448427	0.337756	1.076440
O21	O	0.870995	-0.264369	0.274258
O22	O	1.370995	0.235631	0.774258
O23	O	0.768972	-0.264356	0.446040
O24	O	1.268972	0.235644	0.946040
O25	O	0.871023	-0.341598	0.748150
O26	O	1.371023	0.158402	1.248150
O27	O	0.768946	-0.341652	0.576215
O28	O	1.268946	0.158348	1.076215
O29	O	0.948392	-0.264261	0.748247
O30	O	1.448392	0.235739	1.248247
O31	O	0.948235	-0.443692	0.446085
O32	O	1.448235	0.056308	0.946085
O33	O	0.870934	-0.443682	0.576241
O34	O	1.370934	0.056318	1.076241
C35	C	0.746118	-0.303009	0.511111
C36	C	1.246118	0.196991	1.011111
C37	C	0.676150	-0.303038	0.511084
C38	C	1.176150	0.196962	1.011084
C39	C	0.643286	-0.343340	0.578765
C40	C	1.143286	0.156660	1.078765
C41	C	0.577544	-0.343324	0.578813
C42	C	1.077544	0.156676	1.078813
C43	C	0.544668	-0.303014	0.511160
C44	C	1.044668	0.196986	1.011160
C45	C	0.577539	-0.262705	0.443475
C46	C	1.077539	0.237295	0.943475
C47	C	0.643281	-0.262717	0.443437
C48	C	1.143281	0.237283	0.943437
N49	N	0.441394	-0.298101	0.418440
N50	N	0.941394	0.201899	0.918440
N51	N	0.378943	-0.298093	0.418480
N52	N	0.878943	0.201907	0.918480
C53	C	0.346593	-0.302974	0.511273
C54	C	0.846593	0.197026	1.011273
N55	N	0.379053	-0.307875	0.604027
N56	N	0.879053	0.192125	1.104027
N57	N	0.441511	-0.307886	0.603987
N58	N	0.941511	0.192114	1.103987
C59	C	0.473382	-0.302996	0.511195
C60	C	0.973382	0.197004	1.011195
C61	C	0.242443	-0.343260	0.579011
C62	C	0.742443	0.156740	1.079011
C63	C	0.176700	-0.343241	0.579061
C64	C	0.676700	0.156759	1.079061
C65	C	0.176697	-0.262624	0.443713
C66	C	0.676697	0.237376	0.943713
C67	C	0.242439	-0.262641	0.443673
C68	C	0.742439	0.237359	0.943673
C69	C	0.275309	-0.302962	0.511321
C70	C	0.775309	0.197038	1.011321
C71	C	0.909587	-0.466527	0.511175
C72	C	1.409587	0.033473	1.011175
C73	C	0.909610	-0.536496	0.511185
C74	C	1.409610	-0.036496	1.011185
C75	C	0.949896	-0.569347	0.443482
C76	C	1.449896	-0.069347	0.943482
C77	C	0.949926	-0.635089	0.443506
C78	C	1.449926	-0.135089	0.943506
C79	C	0.909657	-0.667978	0.511221
C80	C	1.409657	-0.167978	1.011221
C81	C	0.869368	-0.635119	0.578937
C82	C	1.369368	-0.135119	1.078937
C83	C	0.869344	-0.569378	0.578919
C84	C	1.369344	-0.069378	1.078919
N85	N	0.854590	-0.771259	0.519262
N86	N	1.354590	-0.271259	1.019262
N87	N	0.854615	-0.833710	0.519273
N88	N	1.354615	-0.333710	1.019273
C89	C	0.909728	-0.866053	0.511282
C90	C	1.409728	-0.366053	1.011282
N91	N	0.964817	-0.833585	0.503259
N92	N	1.464817	-0.333585	1.003259
N93	N	0.964792	-0.771127	0.503242
N94	N	1.464792	-0.271127	1.003242
C95	C	0.909679	-0.739263	0.511249
C96	C	1.409679	-0.239263	1.011249
C97	C	0.950050	-0.970189	0.443602
C98	C	1.450050	-0.470189	0.943602
C99	C	0.950080	-1.035933	0.443633
C100	C	1.450080	-0.535933	0.943633
C101	C	0.869517	-1.035962	0.579059
C102	C	1.369517	-0.535962	1.079059
C103	C	0.869492	-0.970219	0.579033
C104	C	1.369492	-0.470219	1.079033
C105	C	0.909758	-0.937337	0.511299
C106	C	1.409758	-0.437337	1.011299
C107	C	1.073860	-0.302943	0.511356
C108	C	1.573860	0.197057	1.011356
C109	C	1.143828	-0.302929	0.511409
C110	C	1.643828	0.197071	1.011409
C111	C	0.909714	-0.302921	0.787739
C112	C	1.409714	0.197079	1.287739
C113	C	0.909732	-0.302898	0.905569
C114	C	1.409732	0.197102	1.405569
C115	C	0.909770	-0.138785	0.511315
C116	C	1.409770	0.361215	1.011315
C117	C	0.909812	-0.068817	0.511350
C118	C	1.409812	0.431183	1.011350
C119	C	0.909662	-0.302984	0.235804
C120	C	1.409662	0.197016	0.735804
C121	C	0.909766	-0.302830	0.117974
C122	C	1.409766	0.197170	0.617974
C123	C	0.861062	-0.351541	0.950390
C124	C	1.361062	0.148459	1.450390
C125	C	0.860891	-0.351358	1.072950
C126	C	1.360891	0.148642	1.572950
C127	C	0.892011	-0.236457	1.073479
C128	C	1.392011	0.263543	1.573479
C129	C	0.891638	-0.236778	0.950880
C130	C	1.391638	0.263222	1.450880
C131	C	0.976287	-0.320034	0.950792
C132	C	1.476287	0.179966	1.450792
C133	C	0.975949	-0.321458	1.073398
C134	C	1.475949	0.178542	1.573398
H135	H	0.149930	-0.229800	0.388634
H136	H	0.649930	0.270200	0.888634
N137	N	0.676850	-0.384529	0.647871
N138	N	1.176850	0.115471	1.147871
N139	N	0.647494	-0.420510	0.708298
N140	N	1.147494	0.079490	1.208298
H141	H	0.671199	-0.449600	0.757107
H142	H	1.171199	0.050400	1.257107
H143	H	0.982838	-0.943415	0.388451
H144	H	1.482838	-0.443415	0.888451
N145	N	0.991022	-0.535750	0.374304
N146	N	1.491022	-0.035750	0.874304
N147	N	1.031109	-0.498993	0.411657
N148	N	1.531109	0.001007	0.911657
H149	H	1.060150	-0.475261	0.362796
H150	H	1.560150	0.024739	0.862796
H151	H	0.269197	-0.229826	0.388554
H152	H	0.769197	0.270174	0.888554
H153	H	0.989341	-0.370306	1.102476
H154	H	1.489341	0.129694	1.602476
N155	N	0.676854	-0.221541	0.374310
N156	N	1.176854	0.278459	0.874310
N157	N	0.669579	-0.163459	0.381533
N158	N	1.169579	0.336541	0.881533
H159	H	0.693292	-0.134378	0.332712
H160	H	1.193292	0.365622	0.832712
H161	H	1.014143	-0.288611	1.104054
H162	H	1.514143	0.211389	1.604054
H163	H	0.925559	-0.199287	0.921232
H164	H	1.425559	0.300713	1.421232
H165	H	0.982734	-0.661842	0.388374
H166	H	1.482734	-0.161842	0.888374
H167	H	0.871974	-0.400569	1.103033
H168	H	1.371974	0.099431	1.603033
N169	N	0.874799	-0.413493	0.913411
N170	N	1.374799	0.086507	1.413411
N171	N	0.920617	-0.422521	0.853585
N172	N	1.420617	0.077479	1.353585
H173	H	0.930321	-0.466277	0.827465
H174	H	1.430321	0.033723	1.327465
N175	N	0.828197	-0.535819	0.648092
N176	N	1.328197	-0.035819	1.148092
N177	N	0.832348	-0.543108	0.745923
N178	N	1.332348	-0.043108	1.245923
H179	H	0.803287	-0.519406	0.794778
H180	H	1.303287	-0.019406	1.294778
N181	N	0.276033	-0.384429	0.648122
N182	N	0.776033	0.115571	1.148122
N183	N	0.334730	-0.384435	0.648079
N184	N	0.834730	0.115565	1.148079
H185	H	0.358452	-0.413509	0.696891
H186	H	0.858452	0.086491	1.196891
N187	N	0.143137	-0.384408	0.648216
N188	N	0.643137	0.115592	1.148216
N189	N	0.172496	-0.420402	0.708608
N190	N	0.672496	0.079598	1.208608
H191	H	0.148793	-0.449477	0.757452
H192	H	0.648793	0.050523	1.257452
H193	H	0.836684	-0.943470	0.634159
H194	H	1.336684	-0.443470	1.134159
N195	N	0.935135	-0.189728	1.110067
N196	N	1.435135	0.310272	1.610067
N197	N	0.979541	-0.204858	1.169488
N198	N	1.479541	0.295142	1.669488
H199	H	1.010000	-0.171856	1.195331
H200	H	1.510000	0.328144	1.695331
H201	H	0.836582	-0.661901	0.634074
H202	H	1.336582	-0.161901	1.134074
H203	H	0.812027	-0.340323	0.919553
H204	H	1.312027	0.159677	1.419553
N205	N	0.799034	-0.337091	1.109701
N206	N	1.299034	0.162909	1.609701
N207	N	0.755855	-0.327232	1.044805
N208	N	1.255855	0.172768	1.544805
H209	H	0.712165	-0.317155	1.070758
H210	H	1.212165	0.182845	1.570758
H211	H	0.550768	-0.229882	0.388394
H212	H	1.050768	0.270118	0.888394
H213	H	0.982890	-1.062679	0.388503
H214	H	1.482890	-0.562679	0.888503
H215	H	0.836733	-1.062739	0.634199
H216	H	1.336733	-0.562739	1.134199
N217	N	0.830616	-0.218584	0.914984
N218	N	1.330616	0.281416	1.414984
N219	N	0.788600	-0.205740	0.980475
N220	N	1.288600	0.294260	1.480475
H221	H	0.745501	-0.192890	0.955129
H222	H	1.245501	0.307110	1.455129
N223	N	0.831673	-0.217931	1.111972
N224	N	1.331673	0.282069	1.611972
N225	N	0.801644	-0.253495	1.172161
N226	N	1.301644	0.246505	1.672161
H227	H	0.759029	-0.240415	1.199347
H228	H	1.259029	0.259585	1.699347
H229	H	1.012546	-0.284602	0.921818
H230	H	1.512546	0.215398	1.421818
N231	N	0.543974	-0.384496	0.647959
N232	N	1.043974	0.115504	1.147959
N233	N	0.573329	-0.420491	0.708353
N234	N	1.073329	0.079509	1.208353
H235	H	0.549623	-0.449570	0.757188
H236	H	1.049623	0.050430	1.257188
N237	N	0.996617	-0.379738	0.911997
N238	N	1.496617	0.120262	1.411997
N239	N	1.002884	-0.388358	0.814790
N240	N	1.502884	0.111642	1.314790
H241	H	1.017237	-0.430526	0.787388
H242	H	1.517237	0.069474	1.287388
