data_functionalizedCrystal
_audit_creation_method	'MofGen! by Chris Wilmer'
_symmetry_space_group_name_H-M	'P1'
_symmetry_Int_Tables_number	1
_symmetry_cell_setting	triclinic
loop_
_symmetry_equiv_pos_as_xyz
  x,y,z
_cell_length_a	21.395362
_cell_length_b	16.625546
_cell_length_c	21.395355
_cell_angle_alpha	89.981524
_cell_angle_beta	89.956060
_cell_angle_gamma	90.038346
loop_
_atom_site_label
_atom_site_type_symbol
_atom_site_fract_x
_atom_site_fract_y
_atom_site_fract_z
Zn1	Zn	0.957895	-0.320753	-0.354586
Zn2	Zn	1.291229	0.012580	-0.021252
Zn3	Zn	1.624562	0.345913	0.312081
Zn4	Zn	0.957813	-0.455568	-0.249808
Zn5	Zn	1.291146	-0.122235	0.083525
Zn6	Zn	1.624480	0.211098	0.416858
Zn7	Zn	0.853110	-0.320791	-0.249787
Zn8	Zn	1.186444	0.012543	0.083546
Zn9	Zn	1.519777	0.345876	0.416880
Zn10	Zn	0.853095	-0.455585	-0.354513
Zn11	Zn	1.186428	-0.122252	-0.021180
Zn12	Zn	1.519761	0.211082	0.312154
O13	O	0.905478	-0.388174	-0.302174
O14	O	1.238812	-0.054841	0.031160
O15	O	1.572145	0.278492	0.364493
O16	O	1.045562	-0.338614	-0.340726
O17	O	1.378896	-0.005281	-0.007393
O18	O	1.712229	0.328053	0.325940
O19	O	0.943896	-0.437699	-0.162128
O20	O	1.277229	-0.104365	0.171206
O21	O	1.610563	0.228968	0.504539
O22	O	0.867051	-0.207953	-0.263710
O23	O	1.200385	0.125380	0.069623
O24	O	1.533718	0.458713	0.402956
O25	O	1.045502	-0.437662	-0.263747
O26	O	1.378835	-0.104329	0.069587
O27	O	1.712168	0.229004	0.402920
O28	O	0.944036	-0.207926	-0.340706
O29	O	1.277370	0.125407	-0.007372
O30	O	1.610703	0.458741	0.325961
O31	O	0.866971	-0.338678	-0.162112
O32	O	1.200305	-0.005345	0.171221
O33	O	1.533638	0.327989	0.504555
O34	O	0.765430	-0.338694	-0.263640
O35	O	1.098764	-0.005361	0.069693
O36	O	1.432097	0.327972	0.403027
O37	O	0.867024	-0.437690	-0.442201
O38	O	1.200358	-0.104357	-0.108867
O39	O	1.533691	0.228976	0.224466
O40	O	0.765419	-0.437727	-0.340582
O41	O	1.098752	-0.104394	-0.007248
O42	O	1.432085	0.228940	0.326085
O43	O	0.944021	-0.338630	-0.442254
O44	O	1.277355	-0.005297	-0.108921
O45	O	1.610688	0.328036	0.224413
O46	O	0.943881	-0.568403	-0.263676
O47	O	1.277214	-0.235070	0.069657
O48	O	1.610547	0.098264	0.402990
O49	O	0.866945	-0.568415	-0.340602
O50	O	1.200278	-0.235082	-0.007269
O51	O	1.533611	0.098251	0.326064
C52	C	0.742691	-0.388217	-0.302101
C53	C	1.076024	-0.054884	0.031232
C54	C	1.409357	0.278450	0.364566
C55	C	0.673049	-0.388255	-0.302085
C56	C	1.006383	-0.054921	0.031249
C57	C	1.339716	0.278412	0.364582
C58	C	0.640347	-0.439889	-0.342088
C59	C	0.973680	-0.106556	-0.008755
C60	C	1.307013	0.226777	0.324578
C61	C	0.574911	-0.439870	-0.342116
C62	C	0.908245	-0.106536	-0.008783
C63	C	1.241578	0.226797	0.324551
C64	C	0.542181	-0.388224	-0.302129
C65	C	0.875514	-0.054890	0.031204
C66	C	1.208848	0.278443	0.364537
C67	C	0.574892	-0.336579	-0.262123
C68	C	0.908225	-0.003246	0.071210
C69	C	1.241558	0.330088	0.404544
C70	C	0.640326	-0.336594	-0.262101
C71	C	0.973659	-0.003261	0.071233
C72	C	1.306992	0.330072	0.404566
C73	C	0.438456	-0.381728	-0.245724
C74	C	0.771789	-0.048395	0.087609
C75	C	1.105122	0.284939	0.420943
C76	C	0.373023	-0.381718	-0.245745
C77	C	0.706356	-0.048385	0.087588
C78	C	1.039689	0.284949	0.420921
C79	C	0.340360	-0.388171	-0.302198
C80	C	0.673694	-0.054838	0.031135
C81	C	1.007027	0.278496	0.364468
C82	C	0.373139	-0.394651	-0.358632
C83	C	0.706472	-0.061317	-0.025299
C84	C	1.039806	0.272016	0.308035
C85	C	0.438573	-0.394666	-0.358610
C86	C	0.771907	-0.061333	-0.025276
C87	C	1.105240	0.272000	0.308057
C88	C	0.471229	-0.388201	-0.302149
C89	C	0.804562	-0.054867	0.031184
C90	C	1.137895	0.278466	0.364517
C91	C	0.236705	-0.439787	-0.342236
C92	C	0.570038	-0.106454	-0.008902
C93	C	0.903372	0.226880	0.324431
C94	C	0.171268	-0.439762	-0.342265
C95	C	0.504602	-0.106428	-0.008931
C96	C	0.837935	0.226905	0.324402
C97	C	0.171250	-0.336475	-0.262266
C98	C	0.504584	-0.003142	0.071067
C99	C	0.837917	0.330191	0.404401
C100	C	0.236686	-0.336496	-0.262242
C101	C	0.570019	-0.003163	0.071091
C102	C	0.903352	0.330170	0.404424
C103	C	0.269409	-0.388157	-0.302227
C104	C	0.602742	-0.054823	0.031107
C105	C	0.936076	0.278510	0.364440
C106	C	0.905419	-0.597665	-0.302147
C107	C	1.238752	-0.264332	0.031186
C108	C	1.572086	0.069001	0.364519
C109	C	0.905451	-0.687286	-0.302157
C110	C	1.238784	-0.353953	0.031176
C111	C	1.572118	-0.020620	0.364510
C112	C	0.905560	-1.015462	-0.302222
C113	C	1.238894	-0.682129	0.031111
C114	C	1.572227	-0.348795	0.364444
C115	C	0.905528	-0.924153	-0.302206
C116	C	1.238861	-0.590820	0.031127
C117	C	1.572194	-0.257487	0.364461
C118	C	0.905505	-0.851377	-0.302189
C119	C	1.238838	-0.518044	0.031144
C120	C	1.572172	-0.184710	0.364477
C121	C	0.905474	-0.760063	-0.302174
C122	C	1.238807	-0.426729	0.031160
C123	C	1.572140	-0.093396	0.364493
C124	C	1.068902	-0.388132	-0.302247
C125	C	1.402235	-0.054799	0.031086
C126	C	1.735568	0.278535	0.364420
C127	C	1.138543	-0.388114	-0.302278
C128	C	1.471876	-0.054781	0.031055
C129	C	1.805210	0.278553	0.364388
C130	C	0.905530	-0.388158	-0.465597
C131	C	1.238864	-0.054825	-0.132264
C132	C	1.572197	0.278509	0.201070
C133	C	0.905552	-0.388151	-0.535238
C134	C	1.238886	-0.054818	-0.201905
C135	C	1.572219	0.278516	0.131428
C136	C	0.905555	-0.177865	-0.302214
C137	C	1.238888	0.155468	0.031120
C138	C	1.572222	0.488801	0.364453
C139	C	0.905588	-0.088244	-0.302231
C140	C	1.238921	0.245089	0.031103
C141	C	1.572254	0.578422	0.364436
C142	C	0.945643	-0.336568	-0.567980
C143	C	1.278976	-0.003235	-0.234647
C144	C	1.612310	0.330098	0.098686
C145	C	0.945642	-0.336534	-0.633416
C146	C	1.278975	-0.003200	-0.300082
C147	C	1.612309	0.330133	0.033251
C148	C	0.905557	-0.388096	-0.666107
C149	C	1.238891	-0.054763	-0.332773
C150	C	1.572224	0.278571	0.000560
C151	C	0.865459	-0.439683	-0.633357
C152	C	1.198792	-0.106349	-0.300023
C153	C	1.532126	0.226984	0.033310
C154	C	0.865457	-0.439710	-0.567923
C155	C	1.198790	-0.106377	-0.234589
C156	C	1.532123	0.226957	0.098744
C157	C	0.900589	-0.460699	-0.769771
C158	C	1.233923	-0.127365	-0.436437
C159	C	1.567256	0.205968	-0.103104
C160	C	0.900596	-0.460672	-0.835204
C161	C	1.233930	-0.127339	-0.501870
C162	C	1.567263	0.205994	-0.168537
C163	C	0.905561	-0.388011	-0.867927
C164	C	1.238895	-0.054678	-0.534594
C165	C	1.572228	0.278656	-0.201261
C166	C	0.910532	-0.315373	-0.835210
C167	C	1.243866	0.017960	-0.501877
C168	C	1.577199	0.351293	-0.168544
C169	C	0.910530	-0.315401	-0.769776
C170	C	1.243863	0.017933	-0.436443
C171	C	1.577197	0.351266	-0.103110
C172	C	0.905555	-0.388072	-0.737059
C173	C	1.238889	-0.054738	-0.403726
C174	C	1.572222	0.278595	-0.070392
C175	C	0.945653	-0.336386	-0.971622
C176	C	1.278986	-0.003053	-0.638289
C177	C	1.612320	0.330281	-0.304955
C178	C	0.945648	-0.336350	-1.037059
C179	C	1.278981	-0.003017	-0.703725
C180	C	1.612314	0.330317	-0.370392
C181	C	0.865468	-0.439506	-1.036999
C182	C	1.198801	-0.106173	-0.703665
C183	C	1.532135	0.227160	-0.370332
C184	C	0.865470	-0.439535	-0.971563
C185	C	1.198803	-0.106202	-0.638230
C186	C	1.532137	0.227132	-0.304897
C187	C	0.905566	-0.387976	-0.938879
C188	C	1.238899	-0.054643	-0.605545
C189	C	1.572232	0.278691	-0.272212
C190	C	0.905463	-0.388132	-0.139386
C191	C	1.238796	-0.054799	0.193947
C192	C	1.572129	0.278534	0.527281
C193	C	0.905562	-0.387912	-0.069745
C194	C	1.238895	-0.054579	0.263588
C195	C	1.572228	0.278754	0.596922
H196	H	0.465259	-0.399940	-0.404560
H197	H	0.798592	-0.066606	-0.071227
H198	H	1.131926	0.266727	0.262107
H199	H	0.263312	-0.294454	-0.229664
H200	H	0.596646	0.038880	0.103669
H201	H	0.929979	0.372213	0.437003
C202	C	0.538931	-0.496676	-0.386123
C203	C	0.872264	-0.163343	-0.052790
C204	C	1.205598	0.169990	0.280544
N205	N	0.511832	-0.539465	-0.419268
N206	N	0.845166	-0.206132	-0.085935
N207	N	1.178499	0.127202	0.247399
H208	H	0.144643	-0.481807	-0.374844
H209	H	0.477976	-0.148474	-0.041511
H210	H	0.811310	0.184860	0.291822
H211	H	0.832828	-0.481544	-0.944904
H212	H	1.166161	-0.148211	-0.611571
H213	H	1.499494	0.185122	-0.278238
H214	H	0.832820	-0.481663	-0.659978
H215	H	1.166153	-0.148329	-0.326645
H216	H	1.499487	0.185004	0.006689
H217	H	0.346547	-0.399904	-0.404602
H218	H	0.679880	-0.066570	-0.071269
H219	H	1.013214	0.266763	0.262065
C220	C	0.895128	-0.540575	-0.871186
C221	C	1.228461	-0.207241	-0.537853
C222	C	1.561794	0.126092	-0.204519
N223	N	0.891007	-0.600759	-0.898286
N224	N	1.224340	-0.267426	-0.564953
N225	N	1.557673	0.065907	-0.231620
C226	C	0.676300	-0.279794	-0.218088
C227	C	1.009633	0.053539	0.115245
C228	C	1.342967	0.386873	0.448578
N229	N	0.703397	-0.237013	-0.184936
N230	N	1.036730	0.096320	0.148397
N231	N	1.370063	0.429654	0.481731
C232	C	0.272703	-0.496604	-0.386226
C233	C	0.606036	-0.163271	-0.052892
C234	C	0.939370	0.170062	0.280441
N235	N	0.299815	-0.539398	-0.419361
N236	N	0.633148	-0.206065	-0.086027
N237	N	0.966482	0.127269	0.247306
H238	H	0.346339	-0.376447	-0.199794
H239	H	0.679673	-0.043114	0.133540
H240	H	1.013006	0.290220	0.466873
H241	H	0.914576	-0.256257	-0.743141
H242	H	1.247909	0.077077	-0.409807
H243	H	1.581243	0.410410	-0.076474
H244	H	0.465044	-0.376470	-0.199750
H245	H	0.798377	-0.043137	0.133583
H246	H	1.131710	0.290197	0.466917
C247	C	0.915993	-0.235439	-0.871202
C248	C	1.249326	0.097895	-0.537868
C249	C	1.582659	0.431228	-0.204535
N250	N	0.920106	-0.175234	-0.898313
N251	N	1.253439	0.158099	-0.564980
N252	N	1.586773	0.491433	-0.231647
H253	H	0.144602	-0.294420	-0.229711
H254	H	0.477935	0.038913	0.103623
H255	H	0.811269	0.372246	0.436956
C256	C	0.538887	-0.279768	-0.218137
C257	C	0.872221	0.053565	0.115196
C258	C	1.205554	0.386898	0.448529
N259	N	0.511769	-0.236975	-0.185007
N260	N	0.845102	0.096358	0.148326
N261	N	1.178435	0.429692	0.481659
H262	H	0.978293	-0.294340	-1.063716
H263	H	1.311626	0.038993	-0.730383
H264	H	1.644960	0.372326	-0.397049
H265	H	0.978291	-0.294584	-0.541373
H266	H	1.311625	0.038750	-0.208039
H267	H	1.644958	0.372083	0.125294
C268	C	0.989750	-0.279791	-0.669439
C269	C	1.323084	0.053542	-0.336106
C270	C	1.656417	0.386876	-0.002772
N271	N	1.022974	-0.237055	-0.696570
N272	N	1.356308	0.096279	-0.363237
N273	N	1.689641	0.429612	-0.029903
C274	C	0.821374	-0.496227	-1.072955
C275	C	1.154708	-0.162893	-0.739622
C276	C	1.488041	0.170440	-0.406288
N277	N	0.788162	-0.538950	-1.100040
N278	N	1.121495	-0.205616	-0.766707
N279	N	1.454828	0.127717	-0.433374
H280	H	0.666986	-0.481954	-0.374647
H281	H	1.000319	-0.148621	-0.041314
H282	H	1.333653	0.184713	0.292019
C283	C	0.989753	-0.279664	-0.935667
C284	C	1.323086	0.053670	-0.602334
C285	C	1.656420	0.387003	-0.269000
N286	N	1.022969	-0.236938	-0.908587
N287	N	1.356302	0.096395	-0.575254
N288	N	1.689635	0.429728	-0.241921
C289	C	0.895140	-0.540639	-0.733781
C290	C	1.228473	-0.207305	-0.400447
C291	C	1.561806	0.126028	-0.067114
N292	N	0.891039	-0.600848	-0.706674
N293	N	1.224372	-0.267515	-0.373341
N294	N	1.557706	0.065818	-0.040007
H295	H	0.832807	-0.481714	-0.541264
H296	H	1.166141	-0.148381	-0.207931
H297	H	1.499474	0.184953	0.125402
