data_functionalizedCrystal
_audit_creation_method	'MofGen! by Chris Wilmer'
_symmetry_space_group_name_H-M	'P1'
_symmetry_Int_Tables_number	1
_symmetry_cell_setting	triclinic
loop_
_symmetry_equiv_pos_as_xyz
  x,y,z
_cell_length_a	14.908571
_cell_length_b	16.625546
_cell_length_c	14.909227
_cell_angle_alpha	93.327878
_cell_angle_beta	96.790173
_cell_angle_gamma	86.718495
loop_
_atom_site_label
_atom_site_type_symbol
_atom_site_fract_x
_atom_site_fract_y
_atom_site_fract_z
Zn1	Zn	1.413356	-0.363481	0.591503
Zn2	Zn	1.913356	0.136519	1.091503
Zn3	Zn	1.404510	-0.505679	0.440125
Zn4	Zn	1.904510	-0.005679	0.940125
Zn5	Zn	1.253250	-0.363500	0.431433
Zn6	Zn	1.753250	0.136500	0.931433
Zn7	Zn	1.261950	-0.490908	0.582728
Zn8	Zn	1.761950	0.009092	1.082728
O9	O	1.333267	-0.430892	0.511447
O10	O	1.833267	0.069108	1.011447
O11	O	1.538850	-0.388518	0.578732
O12	O	2.038850	0.111482	1.078732
O13	O	1.377102	-0.493008	0.312303
O14	O	1.877102	0.006992	0.812303
O15	O	1.274549	-0.250666	0.452701
O16	O	1.774549	0.249334	0.952701
O17	O	1.532351	-0.492991	0.467515
O18	O	2.032351	0.007009	0.967515
O19	O	1.392179	-0.250653	0.570304
O20	O	1.892179	0.249347	1.070304
O21	O	1.265972	-0.388550	0.305917
O22	O	1.765972	0.111450	0.805917
O23	O	1.127737	-0.374226	0.444193
O24	O	1.627737	0.125774	0.944193
O25	O	1.289378	-0.467815	0.710562
O26	O	1.789378	0.032185	1.210562
O27	O	1.134129	-0.467833	0.555349
O28	O	1.634129	0.032167	1.055349
O29	O	1.400615	-0.374195	0.717008
O30	O	1.900615	0.125805	1.217008
O31	O	1.385538	-0.616551	0.459007
O32	O	1.885538	-0.116551	0.959007
O33	O	1.280800	-0.605698	0.563777
O34	O	1.780800	-0.105698	1.063777
C35	C	1.098090	-0.419429	0.497877
C36	C	1.598090	0.080571	0.997877
C37	C	0.997481	-0.414544	0.492092
C38	C	1.497481	0.085456	0.992092
C39	C	0.815122	-0.503003	0.596814
C40	C	1.315122	-0.003003	1.096814
C41	C	0.720592	-0.498415	0.591382
C42	C	1.220592	0.001585	1.091382
C43	C	0.713888	-0.400776	0.475803
C44	C	1.213888	0.099224	0.975803
C45	C	0.808419	-0.405364	0.481234
C46	C	1.308419	0.094636	0.981234
C47	C	0.859033	-0.456480	0.541741
C48	C	1.359033	0.043520	1.041741
C49	C	0.953564	-0.461072	0.547167
C50	C	1.453564	0.038928	1.047167
C51	C	0.946859	-0.363429	0.431593
C52	C	1.446859	0.136571	0.931593
C53	C	0.852329	-0.358841	0.426161
C54	C	1.352329	0.141159	0.926161
C55	C	1.333179	-0.640381	0.511405
C56	C	1.833179	-0.140381	1.011405
C57	C	1.333226	-0.730003	0.511421
C58	C	1.833226	-0.230003	1.011421
C59	C	1.333389	-1.058182	0.511525
C60	C	1.833389	-0.558182	1.011525
C61	C	1.333341	-0.966872	0.511498
C62	C	1.833341	-0.466872	1.011498
C63	C	1.333307	-0.894095	0.511472
C64	C	1.833307	-0.394095	1.011472
C65	C	1.333260	-0.802780	0.511447
C66	C	1.833260	-0.302780	1.011447
C67	C	1.569362	-0.442400	0.525072
C68	C	2.069362	0.057600	1.025072
C69	C	1.669972	-0.447304	0.530878
C70	C	2.169972	0.052696	1.030878
C71	C	1.346954	-0.419355	0.747547
C72	C	1.846954	0.080645	1.247547
C73	C	1.352786	-0.414439	0.848159
C74	C	1.852786	0.085561	1.348159
C75	C	1.333381	-0.220586	0.511512
C76	C	1.833381	0.279414	1.011512
C77	C	1.333429	-0.130966	0.511539
C78	C	1.833429	0.369034	1.011539
C79	C	1.319685	-0.442328	0.276269
C80	C	1.819685	0.057672	0.776269
C81	C	1.314027	-0.447026	0.175668
C82	C	1.814027	0.052974	0.675668
C83	C	1.418916	-0.358773	0.993323
C84	C	1.918916	0.141227	1.493323
C85	C	1.413440	-0.363389	0.898790
C86	C	1.913440	0.136611	1.398790
C87	C	1.297606	-0.460878	0.892067
C88	C	1.797606	0.039122	1.392067
C89	C	1.303081	-0.456262	0.986600
C90	C	1.803081	0.043738	1.486600
C91	C	1.363738	-0.405207	1.037225
C92	C	1.863738	0.094793	1.537225
C93	C	1.369208	-0.400587	1.131760
C94	C	1.869208	0.099413	1.631760
C95	C	1.253379	-0.498080	1.125036
C96	C	1.753379	0.001920	1.625036
C97	C	1.247903	-0.502696	1.030502
C98	C	1.747903	-0.002696	1.530502
H99	H	0.982621	-0.325548	0.386746
H100	H	1.482621	0.174452	0.886746
H101	H	0.994773	-0.502695	0.596434
H102	H	1.494773	-0.002695	1.096434
H103	H	1.468296	-0.317193	1.034542
H104	H	1.968296	0.182807	1.534542
N105	N	0.800638	-0.306632	0.364347
N106	N	1.300638	0.193368	0.864347
N107	N	0.839858	-0.265102	0.315176
N108	N	1.339858	0.234898	0.815176
H109	H	0.803354	-0.228229	0.271515
H110	H	1.303354	0.271771	0.771515
H111	H	1.418593	-0.359011	1.172977
H112	H	1.918593	0.140989	1.672977
N113	N	1.196996	-0.545506	1.169874
N114	N	1.696996	-0.045506	1.669874
N115	N	1.142379	-0.511750	1.219295
N116	N	1.642379	-0.011750	1.719295
H117	H	1.102556	-0.545243	1.250960
H118	H	1.602556	-0.045243	1.750960
H119	H	0.672663	-0.359154	0.426547
H120	H	1.172663	0.140846	0.926547
N121	N	1.469814	-0.315956	0.853959
N122	N	1.969814	0.184044	1.353959
N123	N	1.523966	-0.270379	0.899174
N124	N	2.023966	0.229621	1.399174
H125	H	1.563785	-0.236878	0.867514
H126	H	2.063785	0.263122	1.367514
N127	N	0.866814	-0.555229	0.658609
N128	N	1.366814	-0.055229	1.158609
N129	N	0.827596	-0.596772	0.707770
N130	N	1.327596	-0.096772	1.207770
H131	H	0.864102	-0.633659	0.751413
H132	H	1.364102	-0.133659	1.251413
H133	H	0.684844	-0.536297	0.636230
H134	H	1.184844	-0.036297	1.136230
H135	H	1.248229	-0.502451	0.850833
H136	H	1.748229	-0.002451	1.350833
H137	H	1.198521	-0.544266	0.989271
H138	H	1.698521	-0.044266	1.489271
