data_functionalizedCrystal
_audit_creation_method	'MofGen! by Chris Wilmer'
_symmetry_space_group_name_H-M	'P1'
_symmetry_Int_Tables_number	1
_symmetry_cell_setting	triclinic
loop_
_symmetry_equiv_pos_as_xyz
  x,y,z
_cell_length_a	12.759401
_cell_length_b	12.759400
_cell_length_c	12.827885
_cell_angle_alpha	89.970623
_cell_angle_beta	89.980966
_cell_angle_gamma	90.012838
loop_
_atom_site_label
_atom_site_type_symbol
_atom_site_fract_x
_atom_site_fract_y
_atom_site_fract_z
Zn1	Zn	1.606262	-0.418225	-0.590845
Zn2	Zn	2.106262	0.081775	-0.090845
Zn3	Zn	1.606162	-0.593940	-0.416107
Zn4	Zn	2.106162	-0.093940	0.083893
Zn5	Zn	1.430565	-0.418275	-0.416119
Zn6	Zn	1.930565	0.081725	0.083881
Zn7	Zn	1.430557	-0.593861	-0.590807
Zn8	Zn	1.930557	-0.093861	-0.090807
O9	O	1.518387	-0.506075	-0.503470
O10	O	2.018387	-0.006075	-0.003470
O11	O	1.753270	-0.441546	-0.567676
O12	O	2.253270	0.058454	-0.067676
O13	O	1.582831	-0.570692	-0.269872
O14	O	2.082831	-0.070692	0.230128
O15	O	1.453917	-0.271247	-0.439318
O16	O	1.953917	0.228753	0.060682
O17	O	1.753197	-0.570643	-0.439296
O18	O	2.253197	-0.070643	0.060704
O19	O	1.583001	-0.271210	-0.567688
O20	O	2.083001	0.228790	-0.067688
O21	O	1.453820	-0.441631	-0.269882
O22	O	1.953820	0.058369	0.230118
O23	O	1.283543	-0.441555	-0.439282
O24	O	1.783543	0.058445	0.060718
O25	O	1.453903	-0.570508	-0.737048
O26	O	1.953903	-0.070508	-0.237048
O27	O	1.283537	-0.570557	-0.567624
O28	O	1.783537	-0.070557	-0.067624
O29	O	1.582993	-0.441469	-0.737076
O30	O	2.082993	0.058531	-0.237076
O31	O	1.582823	-0.740951	-0.439260
O32	O	2.082823	-0.240951	0.060740
O33	O	1.453807	-0.740893	-0.567612
O34	O	1.953807	-0.240893	-0.067612
C35	C	1.245420	-0.506054	-0.503451
C36	C	1.745420	-0.006054	-0.003451
C37	C	1.128643	-0.506070	-0.503468
C38	C	1.628643	-0.006070	-0.003468
C39	C	0.964019	-0.573209	-0.436549
C40	C	1.464019	-0.073209	0.063451
C41	C	1.073744	-0.573188	-0.436531
C42	C	1.573744	-0.073188	0.063469
C43	C	1.073812	-0.438960	-0.570419
C44	C	1.573812	0.061040	-0.070419
C45	C	0.964090	-0.438977	-0.570431
C46	C	1.464090	0.061023	-0.070431
C47	C	0.909126	-0.640340	-0.369616
C48	C	1.409126	-0.140340	0.130384
C49	C	0.963949	-0.707448	-0.302663
C50	C	1.463949	-0.207448	0.197337
C51	C	1.073673	-0.707427	-0.302645
C52	C	1.573673	-0.207427	0.197355
C53	C	1.128574	-0.640297	-0.369580
C54	C	1.628574	-0.140297	0.130420
C55	C	1.518332	-0.779043	-0.503453
C56	C	2.018332	-0.279043	-0.003453
C57	C	1.518404	-0.895819	-0.503481
C58	C	2.018404	-0.395819	-0.003481
C59	C	1.585585	-0.950582	-0.570378
C60	C	2.085585	-0.450582	-0.070378
C61	C	1.585633	-1.060306	-0.570403
C62	C	2.085633	-0.560306	-0.070403
C63	C	1.451319	-1.060494	-0.436626
C64	C	1.951319	-0.560494	0.063374
C65	C	1.451266	-0.950772	-0.436606
C66	C	1.951266	-0.450772	0.063394
C67	C	1.652723	-0.895629	-0.637253
C68	C	2.152723	-0.395629	-0.137253
C69	C	1.719910	-0.950392	-0.704154
C70	C	2.219910	-0.450392	-0.204154
C71	C	1.719959	-1.060116	-0.704180
C72	C	2.219959	-0.560116	-0.204180
C73	C	1.652821	-1.115077	-0.637303
C74	C	2.152821	-0.615077	-0.137303
C75	C	1.792420	-0.506098	-0.503489
C76	C	2.292420	-0.006098	-0.003489
C77	C	1.909197	-0.506107	-0.503497
C78	C	2.409197	-0.006107	-0.003497
C79	C	1.518458	-0.505974	-0.776040
C80	C	2.018458	-0.005974	-0.276040
C81	C	1.518489	-0.505931	-0.892193
C82	C	2.018489	-0.005931	-0.392193
C83	C	1.518471	-0.232042	-0.503509
C84	C	2.018471	0.267958	-0.003509
C85	C	1.518507	-0.115265	-0.503526
C86	C	2.018507	0.384735	-0.003526
C87	C	1.582373	-0.442066	-0.943992
C88	C	2.082373	0.057934	-0.443992
C89	C	1.582406	-0.442020	-1.064042
C90	C	2.082406	0.057980	-0.564042
C91	C	1.518376	-0.506100	-0.231960
C92	C	2.018376	-0.006100	0.268040
C93	C	1.518549	-0.505847	-0.115807
C94	C	2.018549	-0.005847	0.384193
H95	H	1.118522	-0.384307	-0.624915
H96	H	1.618522	0.115693	-0.124915
H97	H	1.652854	-1.204422	-0.637342
H98	H	2.152854	-0.704422	-0.137342
H99	H	1.652693	-0.806286	-0.637237
H100	H	2.152693	-0.306286	-0.137237
Br101	Br	1.360209	-1.135084	-0.345872
Br102	Br	1.860209	-0.635084	0.154128
H103	H	1.463813	-0.560568	-0.936723
H104	H	1.963813	-0.060568	-0.436723
Br105	Br	1.277487	-0.640252	-0.369536
Br106	Br	1.777487	-0.140252	0.130464
Br107	Br	1.811005	-0.875806	-0.794925
Br108	Br	2.311005	-0.375806	-0.294925
Br109	Br	1.427389	-0.596997	-1.041576
Br110	Br	1.927389	-0.096997	-0.541576
H111	H	1.396560	-0.906184	-0.382134
H112	H	1.896560	-0.406184	0.117866
H113	H	1.637104	-0.387346	-1.108587
H114	H	2.137104	0.112654	-0.608587
Br115	Br	1.673467	-0.350953	-0.869783
Br116	Br	2.173467	0.149047	-0.369783
H117	H	0.819783	-0.640367	-0.369625
H118	H	1.319783	-0.140367	0.130375
H119	H	1.118306	-0.762062	-0.248121
H120	H	1.618306	-0.262062	0.251879
H121	H	0.919241	-0.762097	-0.248162
H122	H	1.419241	-0.262097	0.251838
H123	H	0.919453	-0.384332	-0.624941
H124	H	1.419453	0.115668	-0.124941
H125	H	1.774657	-1.104701	-0.758662
H126	H	2.274657	-0.604701	-0.258662
