data_functionalizedCrystal
_audit_creation_method	'MofGen! by Chris Wilmer'
_symmetry_space_group_name_H-M	'P1'
_symmetry_Int_Tables_number	1
_symmetry_cell_setting	triclinic
loop_
_symmetry_equiv_pos_as_xyz
  x,y,z
_cell_length_a	13.032831
_cell_length_b	12.759394
_cell_length_c	13.032268
_cell_angle_alpha	97.149444
_cell_angle_beta	90.886977
_cell_angle_gamma	82.819699
loop_
_atom_site_label
_atom_site_type_symbol
_atom_site_fract_x
_atom_site_fract_y
_atom_site_fract_z
Zn1	Zn	1.498516	-0.709531	-0.780836
Zn2	Zn	1.998516	-0.209531	-0.280836
Zn3	Zn	1.520266	-0.866066	-0.608856
Zn4	Zn	2.020266	-0.366066	-0.108856
Zn5	Zn	1.348372	-0.665642	-0.587076
Zn6	Zn	1.848372	-0.165642	-0.087076
Zn7	Zn	1.326514	-0.860386	-0.758981
Zn8	Zn	1.826514	-0.360386	-0.258981
O9	O	1.423417	-0.775406	-0.683937
O10	O	1.923417	-0.275406	-0.183937
O11	O	1.645323	-0.751041	-0.776283
O12	O	2.145323	-0.251041	-0.276283
O13	O	1.515714	-0.823489	-0.462050
O14	O	2.015714	-0.323489	0.037950
O15	O	1.368334	-0.524452	-0.612811
O16	O	1.868334	-0.024452	-0.112811
O17	O	1.661303	-0.866047	-0.649930
O18	O	2.161303	-0.366047	-0.149930
O19	O	1.478644	-0.556698	-0.755165
O20	O	1.978644	-0.056698	-0.255165
O21	O	1.389424	-0.676238	-0.446049
O22	O	1.889424	-0.176238	0.053951
O23	O	1.201551	-0.670730	-0.591619
O24	O	1.701551	-0.170730	-0.091619
O25	O	1.331080	-0.856365	-0.905797
O26	O	1.831080	-0.356365	-0.405797
O27	O	1.185492	-0.813807	-0.717916
O28	O	1.685492	-0.313807	-0.217916
O29	O	1.457449	-0.745533	-0.921853
O30	O	1.957449	-0.245533	-0.421853
O31	O	1.494519	-1.012324	-0.628738
O32	O	1.994519	-0.512324	-0.128738
O33	O	1.352170	-1.008150	-0.739035
O34	O	1.852170	-0.508150	-0.239035
C35	C	1.156204	-0.736890	-0.650033
C36	C	1.656204	-0.236890	-0.150033
C37	C	1.041886	-0.720441	-0.635554
C38	C	1.541886	-0.220441	-0.135554
C39	C	1.423358	-1.048362	-0.683904
C40	C	1.923358	-0.548362	-0.183904
C41	C	1.423423	-1.165151	-0.683937
C42	C	1.923423	-0.665151	-0.183937
C43	C	0.983013	-0.783991	-0.691494
C44	C	1.483013	-0.283991	-0.191494
C45	C	0.864859	-0.766992	-0.676530
C46	C	1.364859	-0.266992	-0.176530
C47	C	1.571737	-1.169469	-0.569196
C48	C	2.071737	-0.669469	-0.069196
C49	C	1.645919	-1.226494	-0.511841
C50	C	2.145919	-0.726494	-0.011841
C51	C	1.645976	-1.336227	-0.511877
C52	C	2.145976	-0.836227	-0.011877
C53	C	1.571844	-1.388938	-0.569276
C54	C	2.071844	-0.888938	-0.069276
C55	C	1.497662	-1.331913	-0.626631
C56	C	1.997662	-0.831913	-0.126631
C57	C	1.497612	-1.222177	-0.626586
C58	C	1.997612	-0.722177	-0.126586
C59	C	1.349354	-1.327597	-0.741376
C60	C	1.849354	-0.827597	-0.241376
C61	C	1.349291	-1.217862	-0.741336
C62	C	1.849291	-0.717862	-0.241336
C63	C	1.275223	-1.380309	-0.798775
C64	C	1.775223	-0.880309	-0.298775
C65	C	1.201034	-1.323282	-0.856125
C66	C	1.701034	-0.823282	-0.356125
C67	C	1.200980	-1.213542	-0.856086
C68	C	1.700980	-0.713542	-0.356086
C69	C	1.275109	-1.160838	-0.798690
C70	C	1.775109	-0.660838	-0.298690
C71	C	1.691673	-0.814073	-0.717974
C72	C	2.191673	-0.314073	-0.217974
C73	C	1.805988	-0.830551	-0.732478
C74	C	2.305988	-0.330551	-0.232478
C75	C	1.389400	-0.805211	-0.952184
C76	C	1.889400	-0.305211	-0.452184
C77	C	1.374904	-0.817912	-1.066495
C78	C	1.874904	-0.317912	-0.566495
C79	C	1.423501	-0.501391	-0.683996
C80	C	1.923501	-0.001391	-0.183996
C81	C	1.423537	-0.384622	-0.684021
C82	C	1.923537	0.115378	-0.184021
C83	C	1.430966	-0.768737	-1.125403
C84	C	1.930966	-0.268737	-0.625403
C85	C	1.415986	-0.781863	-1.243550
C86	C	1.915986	-0.281863	-0.743550
C87	C	1.457360	-0.745650	-0.416741
C88	C	1.957360	-0.245650	0.083259
C89	C	1.472056	-0.732682	-0.302456
C90	C	1.972056	-0.232682	0.197544
H91	H	1.020082	-0.850981	-0.750469
H92	H	1.520082	-0.350981	-0.250469
H93	H	1.356887	-0.833677	-1.280578
H94	H	1.856887	-0.333677	-0.780578
H95	H	0.843051	-0.897544	-0.791460
H96	H	1.343051	-0.397544	-0.291460
H97	H	1.004816	-0.653444	-0.576587
H98	H	1.504816	-0.153444	-0.076587
Cl99	Cl	1.571923	-1.031592	-0.569473
Cl100	Cl	2.071923	-0.531592	-0.069473
H101	H	1.706279	-1.183567	-0.465110
H102	H	2.206279	-0.683567	0.034890
Cl103	Cl	1.571539	-1.526777	-0.568828
Cl104	Cl	2.071539	-1.026777	-0.068828
Cl105	Cl	1.274914	-1.518148	-0.798329
Cl106	Cl	1.774914	-1.018148	-0.298329
Cl107	Cl	1.739239	-1.407920	-0.439779
Cl108	Cl	2.239239	-0.907920	0.060221
Cl109	Cl	0.807640	-0.663546	-0.585481
Cl110	Cl	1.307640	-0.163546	-0.085481
H111	H	1.140686	-1.366210	-0.902860
H112	H	1.640686	-0.866210	-0.402860
H113	H	1.490050	-0.716915	-1.088369
H114	H	1.990050	-0.216915	-0.588369
H115	H	1.140575	-1.167119	-0.902796
H116	H	1.640575	-0.667119	-0.402796
Cl117	Cl	1.275308	-1.022963	-0.798974
Cl118	Cl	1.775308	-0.522963	-0.298974
H119	H	1.531142	-0.680853	-1.265427
H120	H	2.031142	-0.180853	-0.765427
H121	H	1.315810	-0.869722	-1.103529
H122	H	1.815810	-0.369722	-0.603529
