data_functionalizedCrystal
_audit_creation_method	'MofGen! by Chris Wilmer'
_symmetry_space_group_name_H-M	'P1'
_symmetry_Int_Tables_number	1
_symmetry_cell_setting	triclinic
loop_
_symmetry_equiv_pos_as_xyz
  x,y,z
_cell_length_a	16.974800
_cell_length_b	17.038272
_cell_length_c	15.455313
_cell_angle_alpha	92.858370
_cell_angle_beta	90.973911
_cell_angle_gamma	87.242888
loop_
_atom_site_label
_atom_site_type_symbol
_atom_site_fract_x
_atom_site_fract_y
_atom_site_fract_z
O1	O	1.055757	0.099682	0.002007
O2	O	1.555757	0.599682	0.502007
O3	O	0.827125	0.111624	-0.014050
O4	O	1.327125	0.611624	0.485950
O5	O	0.940082	-0.008165	-0.006110
O6	O	1.440082	0.491835	0.493890
O7	O	0.942800	0.219471	-0.005933
O8	O	1.442800	0.719471	0.494067
O9	O	0.933621	-0.001344	0.137698
O10	O	1.433621	0.498656	0.637698
O11	O	0.820664	0.118446	0.129758
O12	O	1.320664	0.618446	0.629758
O13	O	1.049296	0.106504	0.145815
O14	O	1.549296	0.606504	0.645815
Cu15	Cu	0.934390	0.113098	0.150917
Cu16	Cu	1.434390	0.613098	0.650917
Cu17	Cu	0.942031	0.105030	-0.019152
Cu18	Cu	1.442031	0.605030	0.480848
O19	O	0.936339	0.226293	0.137875
O20	O	1.436339	0.726293	0.637875
C21	C	0.794497	0.114456	0.055789
C22	C	1.294497	0.614456	0.555789
C23	C	0.706899	0.112720	0.049637
C24	C	1.206899	0.612720	0.549637
C25	C	0.662227	0.115622	0.125139
C26	C	1.162227	0.615622	0.625139
C27	C	0.579921	0.113979	0.119361
C28	C	1.079921	0.613979	0.619361
C29	C	0.542286	0.109440	0.038081
C30	C	1.042286	0.609440	0.538081
C31	C	0.586963	0.106536	-0.037427
C32	C	1.086963	0.606536	0.462573
C33	C	0.669269	0.108174	-0.031648
C34	C	1.169269	0.608174	0.468352
C35	C	0.296506	0.104140	0.012392
C36	C	0.796506	0.604140	0.512392
C37	C	0.214194	0.102505	0.006619
C38	C	0.714194	0.602505	0.506619
C39	C	0.207157	0.109947	0.163407
C40	C	0.707157	0.609947	0.663407
C41	C	0.289465	0.111588	0.169178
C42	C	0.789465	0.611588	0.669178
C43	C	0.334135	0.108680	0.093671
C44	C	0.834135	0.608680	0.593671
N45	N	0.458155	0.107764	0.032173
N46	N	0.958155	0.607764	0.532173
N47	N	0.418265	0.110351	0.099580
N48	N	0.918265	0.610351	0.599580
C49	C	0.934380	-0.033889	0.065620
C50	C	1.434380	0.466111	0.565620
C51	C	0.927005	-0.120700	0.065102
C52	C	1.427005	0.379300	0.565102
C53	C	0.994712	-0.170647	0.069858
C54	C	1.494712	0.329353	0.569858
C55	C	0.987778	-0.252215	0.069363
C56	C	1.487778	0.247785	0.569363
C57	C	0.913137	-0.283834	0.064118
C58	C	1.413137	0.216166	0.564118
C59	C	0.845426	-0.233880	0.059359
C60	C	1.345426	0.266120	0.559359
C61	C	0.852360	-0.152314	0.059848
C62	C	1.352360	0.347686	0.559848
C63	C	0.888639	-0.529653	0.062385
C64	C	1.388639	-0.029653	0.562385
C65	C	0.881710	-0.611225	0.061899
C66	C	1.381710	-0.111225	0.561899
C67	C	1.024063	-0.629555	0.071902
C68	C	1.524063	-0.129555	0.571902
C69	C	1.030991	-0.547986	0.072396
C70	C	1.530991	-0.047986	0.572396
C71	C	0.963280	-0.498040	0.067632
C72	C	1.463280	0.001960	0.567632
C73	C	0.906048	-0.367209	0.063614
C74	C	1.406048	0.132791	0.563614
C75	C	0.970370	-0.414666	0.068129
C76	C	1.470370	0.085334	0.568129
C77	C	1.081925	0.103672	0.075974
C78	C	1.581925	0.603672	0.575974
C79	C	1.169523	0.105407	0.082120
C80	C	1.669523	0.605407	0.582120
C81	C	0.942042	0.252016	0.066143
C82	C	1.442042	0.752016	0.566143
C83	C	0.949416	0.338827	0.066655
C84	C	1.449416	0.838827	0.566655
N85	N	0.929021	0.118771	0.270535
N86	N	1.429021	0.618771	0.770535
N87	N	0.947406	0.099350	-0.138770
N88	N	1.447406	0.599350	0.361230
C89	C	0.977029	0.067900	0.319304
C90	C	1.477029	0.567900	0.819304
C91	C	0.972976	0.072198	0.409827
C92	C	1.472976	0.572198	0.909827
C93	C	0.920920	0.127372	0.451580
C94	C	1.420920	0.627372	0.951580
C95	C	0.872908	0.178246	0.402805
C96	C	1.372908	0.678246	0.902805
C97	C	0.876957	0.173944	0.312283
C98	C	1.376957	0.673944	0.812283
C99	C	0.903442	0.145922	0.721933
C100	C	1.403442	0.645922	1.221933
C101	C	0.899399	0.150222	0.812461
C102	C	1.399399	0.650222	1.312461
C103	C	0.999467	0.044172	0.819477
C104	C	1.499467	0.544172	1.319477
C105	C	1.003514	0.039878	0.728954
C106	C	1.503514	0.539878	1.228954
C107	C	0.955499	0.090749	0.680186
C108	C	1.455499	0.590749	1.180186
N109	N	0.916778	0.131768	0.544109
N110	N	1.416778	0.631768	1.044109
N111	N	0.959637	0.086348	0.587659
N112	N	1.459637	0.586348	1.087659
H113	H	0.705640	0.105812	-0.093129
H114	H	1.205640	0.605812	0.406871
H115	H	1.055492	-0.144910	0.074134
H116	H	1.555492	0.355090	0.574134
H117	H	0.170778	0.112313	0.224880
H118	H	0.670778	0.612313	0.724880
F119	F	1.032438	0.009178	0.274876
F120	F	1.532438	0.509178	0.774876
H121	H	0.864348	0.187345	0.682233
H122	H	1.364348	0.687345	1.182233
F123	F	1.049806	-0.381014	0.073706
F124	F	1.549806	0.118986	0.573706
F125	F	1.059842	-0.305370	0.074427
F126	F	1.559842	0.194630	0.574427
F127	F	1.110435	-0.514343	0.077956
F128	F	1.610435	-0.014343	0.577956
F129	F	1.050563	-0.009967	0.871384
F130	F	1.550563	0.490033	1.371384
F131	F	1.096121	-0.682717	0.076970
F132	F	1.596121	-0.182717	0.576970
H133	H	0.320101	0.115281	0.235365
H134	H	0.820101	0.615281	0.735365
H135	H	0.830518	0.223168	0.436805
H136	H	1.330518	0.723168	0.936805
H137	H	0.837863	0.215368	0.272576
H138	H	1.337863	0.715368	0.772576
H139	H	0.692863	0.119324	0.191326
H140	H	1.192863	0.619324	0.691326
F141	F	1.058919	-0.018844	0.684519
F142	F	1.558919	0.481156	1.184519
F143	F	0.843991	0.208951	0.856892
F144	F	1.343991	0.708951	1.356892
H145	H	0.833504	-0.488996	0.058507
H146	H	1.333504	0.011004	0.558507
H147	H	0.820925	-0.636965	0.057642
H148	H	1.320925	-0.136965	0.557642
F149	F	0.780298	-0.099156	0.054783
F150	F	1.280298	0.400844	0.554783
F151	F	0.532381	0.117078	0.199720
F152	F	1.032381	0.617078	0.699720
F153	F	0.174143	0.097677	-0.079895
F154	F	0.674143	0.597677	0.420105
H155	H	0.556315	0.102835	-0.103607
H156	H	1.056315	0.602835	0.396393
H157	H	0.332867	0.101769	-0.049092
H158	H	0.832867	0.601769	0.450908
H159	H	0.784652	-0.259631	0.055083
H160	H	1.284652	0.240369	0.555083
F161	F	0.826612	-0.400868	0.058029
F162	F	1.326612	0.099132	0.558029
H163	H	1.012067	0.030773	0.449534
H164	H	1.512067	0.530773	0.949534
