data_functionalizedCrystal
_audit_creation_method	'MofGen! by Chris Wilmer'
_symmetry_space_group_name_H-M	'P1'
_symmetry_Int_Tables_number	1
_symmetry_cell_setting	triclinic
loop_
_symmetry_equiv_pos_as_xyz
  x,y,z
_cell_length_a	14.044220
_cell_length_b	16.098538
_cell_length_c	17.019370
_cell_angle_alpha	83.407930
_cell_angle_beta	88.280241
_cell_angle_gamma	92.982557
loop_
_atom_site_label
_atom_site_type_symbol
_atom_site_fract_x
_atom_site_fract_y
_atom_site_fract_z
O1	O	1.260867	0.055722	0.187562
O2	O	1.510867	0.305722	0.437562
O3	O	1.760867	0.555722	0.687562
O4	O	2.010867	0.805722	0.937562
O5	O	0.984939	0.056236	0.180676
O6	O	1.234939	0.306236	0.430676
O7	O	1.484939	0.556236	0.680676
O8	O	1.734939	0.806236	0.930676
O9	O	1.131106	0.064193	0.069447
O10	O	1.381106	0.314193	0.319447
O11	O	1.631106	0.564193	0.569447
O12	O	1.881106	0.814193	0.819447
O13	O	1.114700	0.047764	0.298791
O14	O	1.364700	0.297764	0.548791
O15	O	1.614700	0.547764	0.798791
O16	O	1.864700	0.797764	1.048791
O17	O	1.122567	-0.074782	0.075917
O18	O	1.372567	0.175218	0.325917
O19	O	1.622567	0.425218	0.575917
O20	O	1.872567	0.675218	0.825917
O21	O	0.976400	-0.082740	0.187146
O22	O	1.226400	0.167260	0.437146
O23	O	1.476400	0.417260	0.687146
O24	O	1.726400	0.667260	0.937146
O25	O	1.252329	-0.083254	0.194032
O26	O	1.502329	0.166746	0.444032
O27	O	1.752329	0.416746	0.694032
O28	O	2.002329	0.666746	0.944032
Zn29	Zn	1.113009	-0.105062	0.191616
Zn30	Zn	1.363009	0.144938	0.441616
Zn31	Zn	1.613009	0.394938	0.691616
Zn32	Zn	1.863009	0.644938	0.941616
Zn33	Zn	1.124258	0.078044	0.183092
Zn34	Zn	1.374258	0.328044	0.433092
Zn35	Zn	1.624258	0.578044	0.683092
Zn36	Zn	1.874258	0.828044	0.933092
O37	O	1.106162	-0.091211	0.305261
O38	O	1.356162	0.158789	0.555261
O39	O	1.606162	0.408789	0.805261
O40	O	1.856162	0.658789	1.055261
C41	C	0.945373	-0.013033	0.180897
C42	C	1.195373	0.236967	0.430897
C43	C	1.445373	0.486967	0.680897
C44	C	1.695373	0.736967	0.930897
C45	C	0.840199	-0.012381	0.171907
C46	C	1.090199	0.237619	0.421907
C47	C	1.340199	0.487619	0.671907
C48	C	1.590199	0.737619	0.921907
N49	N	1.105338	-0.230028	0.197434
N50	N	1.355338	0.019972	0.447434
N51	N	1.605338	0.269972	0.697434
N52	N	1.855338	0.519972	0.947434
C53	C	0.647631	-0.011220	0.155474
C54	C	0.897631	0.238780	0.405474
C55	C	1.147631	0.488780	0.655474
C56	C	1.397631	0.738780	0.905474
C57	C	0.589631	-0.015791	0.219231
C58	C	0.839631	0.234209	0.469231
C59	C	1.089631	0.484209	0.719231
C60	C	1.339631	0.734209	0.969231
C61	C	0.482480	-0.015145	0.210087
C62	C	0.732480	0.234855	0.460087
C63	C	0.982480	0.484855	0.710087
C64	C	1.232480	0.734855	0.960087
C65	C	0.754792	-0.011866	0.164616
C66	C	1.004792	0.238134	0.414616
C67	C	1.254792	0.488134	0.664616
C68	C	1.504792	0.738134	0.914616
C69	C	1.167400	-0.270237	0.150243
C70	C	1.417400	-0.020237	0.400243
C71	C	1.667400	0.229763	0.650243
C72	C	1.917400	0.479763	0.900243
C73	C	1.162043	-0.357717	0.154321
C74	C	1.412043	-0.107717	0.404321
C75	C	1.662043	0.142283	0.654321
C76	C	1.912043	0.392283	0.904321
C77	C	1.094628	-0.404988	0.205594
C78	C	1.344628	-0.154988	0.455594
C79	C	1.594628	0.095012	0.705594
C80	C	1.844628	0.345012	0.955594
C81	C	1.032560	-0.364773	0.252786
C82	C	1.282560	-0.114773	0.502786
C83	C	1.532560	0.135227	0.752786
C84	C	1.782560	0.385227	1.002786
C85	C	1.037913	-0.277293	0.248703
C86	C	1.287913	-0.027293	0.498703
C87	C	1.537913	0.222707	0.748703
C88	C	1.787913	0.472707	0.998703
C89	C	1.075222	-0.669295	0.220379
C90	C	1.325222	-0.419295	0.470379
C91	C	1.575222	-0.169295	0.720379
C92	C	1.825222	0.080705	0.970379
C93	C	1.069875	-0.756781	0.224459
C94	C	1.319875	-0.506781	0.474459
C95	C	1.569875	-0.256781	0.724459
C96	C	1.819875	-0.006781	0.974459
C97	C	1.199357	-0.749719	0.125993
C98	C	1.449357	-0.499719	0.375993
C99	C	1.699357	-0.249719	0.625993
C100	C	1.949357	0.000281	0.875993
C101	C	1.204709	-0.662239	0.121919
C102	C	1.454709	-0.412239	0.371919
C103	C	1.704709	-0.162239	0.621919
C104	C	1.954709	0.087761	0.871919
C105	C	1.142637	-0.622031	0.169108
C106	C	1.392637	-0.372031	0.419108
C107	C	1.642637	-0.122031	0.669108
C108	C	1.892637	0.127969	0.919108
C109	C	1.089153	-0.494407	0.209765
C110	C	1.339153	-0.244407	0.459765
C111	C	1.589153	0.005593	0.709765
C112	C	1.839153	0.255593	0.959765
C113	C	1.148109	-0.532613	0.164932
C114	C	1.398109	-0.282613	0.414932
C115	C	1.648109	-0.032613	0.664932
C116	C	1.898109	0.217387	0.914932
C117	C	1.291895	-0.013983	0.193811
C118	C	1.541895	0.236017	0.443811
C119	C	1.791895	0.486017	0.693811
C120	C	2.041895	0.736017	0.943811
C121	C	1.397069	-0.014630	0.202801
C122	C	1.647069	0.235370	0.452801
C123	C	1.897069	0.485370	0.702801
C124	C	2.147069	0.735370	0.952801
C125	C	1.126383	-0.003177	0.043154
C126	C	1.376383	0.246823	0.293154
C127	C	1.626383	0.496823	0.543154
C128	C	1.876383	0.746823	0.793154
C129	C	1.125019	0.003132	-0.044832
C130	C	1.375019	0.253132	0.205168
C131	C	1.625019	0.503132	0.455168
C132	C	1.875019	0.753132	0.705168
N133	N	1.131937	0.203010	0.177269
N134	N	1.381937	0.453010	0.427269
N135	N	1.631937	0.703010	0.677269
N136	N	1.881937	0.953010	0.927269
C137	C	1.119722	-0.069656	-0.082649
C138	C	1.369722	0.180344	0.167351
C139	C	1.619722	0.430344	0.417351
C140	C	1.869722	0.680344	0.667351
C141	C	1.118447	-0.063721	-0.165322
C142	C	1.368447	0.186279	0.084678
C143	C	1.618447	0.436279	0.334678
C144	C	1.868447	0.686279	0.584678
C145	C	1.122462	0.015003	-0.210176
C146	C	1.372462	0.265003	0.039824
C147	C	1.622462	0.515003	0.289824
C148	C	1.872462	0.765003	0.539824
C149	C	1.127762	0.087796	-0.172354
C150	C	1.377762	0.337796	0.077646
C151	C	1.627762	0.587796	0.327646
C152	C	1.877762	0.837796	0.577646
C153	C	1.129044	0.081860	-0.089683
C154	C	1.379044	0.331860	0.160317
C155	C	1.629044	0.581860	0.410317
C156	C	1.879044	0.831860	0.660317
C157	C	1.118831	0.036715	-0.459966
C158	C	1.368831	0.286715	-0.209966
C159	C	1.618831	0.536715	0.040034
C160	C	1.868831	0.786715	0.290034
C161	C	1.117546	0.042646	-0.542643
C162	C	1.367546	0.292646	-0.292643
C163	C	1.617546	0.542646	-0.042643
C164	C	1.867546	0.792646	0.207357
C165	C	1.108232	-0.108872	-0.535605
C166	C	1.358232	0.141128	-0.285605
C167	C	1.608232	0.391128	-0.035605
C168	C	1.858232	0.641128	0.214395
C169	C	1.109509	-0.114801	-0.452932
C170	C	1.359509	0.135199	-0.202932
C171	C	1.609509	0.385199	0.047068
C172	C	1.859509	0.635199	0.297068
C173	C	1.114814	-0.042008	-0.415118
C174	C	1.364814	0.207992	-0.165118
C175	C	1.614814	0.457992	0.084882
C176	C	1.864814	0.707992	0.334882
C177	C	1.121156	0.021071	-0.294681
C178	C	1.371156	0.271071	-0.044681
C179	C	1.621156	0.521071	0.205319
C180	C	1.871156	0.771071	0.455319
C181	C	1.116127	-0.048077	-0.330614
C182	C	1.366127	0.201923	-0.080614
C183	C	1.616127	0.451923	0.169386
C184	C	1.866127	0.701923	0.419386
C185	C	1.110885	-0.023839	0.331554
C186	C	1.360885	0.226161	0.581554
C187	C	1.610885	0.476161	0.831554
C188	C	1.860885	0.726161	1.081554
C189	C	1.112249	-0.030142	0.419540
C190	C	1.362249	0.219858	0.669540
C191	C	1.612249	0.469858	0.919540
C192	C	1.862249	0.719858	1.169540
H193	H	0.620449	-0.020189	0.280683
H194	H	0.870449	0.229811	0.530683
H195	H	1.120449	0.479811	0.780683
H196	H	1.370449	0.729811	1.030683
H197	H	1.120807	0.106755	-0.579161
H198	H	1.370807	0.356755	-0.329161
H199	H	1.620807	0.606755	-0.079161
H200	H	1.870807	0.856755	0.170839
H201	H	1.202995	-0.494123	0.123183
H202	H	1.452995	-0.244123	0.373183
H203	H	1.702995	0.005877	0.623183
H204	H	1.952995	0.255877	0.873183
H205	H	1.123149	0.095989	-0.429187
H206	H	1.373149	0.345989	-0.179187
H207	H	1.623149	0.595989	0.070813
H208	H	1.873149	0.845989	0.320813
Cl209	Cl	0.600053	-0.004425	0.060602
Cl210	Cl	0.850053	0.245575	0.310602
Cl211	Cl	1.100053	0.495575	0.560602
Cl212	Cl	1.350053	0.745575	0.810602
Cl213	Cl	1.252159	-0.210820	0.085787
Cl214	Cl	1.502159	0.039180	0.335787
Cl215	Cl	1.752159	0.289180	0.585787
Cl216	Cl	2.002159	0.539180	0.835787
H217	H	1.212578	-0.390455	0.115895
H218	H	1.462578	-0.140455	0.365895
H219	H	1.712578	0.109545	0.615895
H220	H	1.962578	0.359545	0.865895
H221	H	1.259603	-0.623753	0.080169
H222	H	1.509603	-0.373753	0.330169
H223	H	1.759603	-0.123753	0.580169
H224	H	2.009603	0.126247	0.830169
Cl225	Cl	1.132823	0.186764	-0.228743
Cl226	Cl	1.382823	0.436764	0.021257
Cl227	Cl	1.632823	0.686764	0.271257
Cl228	Cl	1.882823	0.936764	0.521257
H229	H	1.034263	-0.532902	0.251513
H230	H	1.284263	-0.282902	0.501513
H231	H	1.534263	-0.032902	0.751513
H232	H	1.784263	0.217098	1.001513
H233	H	1.116436	-0.133762	-0.046134
H234	H	1.366436	0.116238	0.203866
H235	H	1.616436	0.366238	0.453866
H236	H	1.866436	0.616238	0.703866
H237	H	0.987375	-0.244556	0.287129
H238	H	1.237375	0.005444	0.537129
H239	H	1.487375	0.255444	0.787129
H240	H	1.737375	0.505444	1.037129
Cl241	Cl	0.947804	-0.424196	0.317240
Cl242	Cl	1.197804	-0.174196	0.567240
Cl243	Cl	1.447804	0.075804	0.817240
Cl244	Cl	1.697804	0.325804	1.067240
H245	H	1.249892	-0.782465	0.087573
H246	H	1.499892	-0.532465	0.337573
H247	H	1.749892	-0.282465	0.587573
H248	H	1.999892	-0.032465	0.837573
H249	H	1.014975	-0.795265	0.266214
H250	H	1.264975	-0.545265	0.516214
H251	H	1.514975	-0.295265	0.766214
H252	H	1.764975	-0.045265	1.016214
Cl253	Cl	0.997195	-0.618755	0.279704
Cl254	Cl	1.247195	-0.368755	0.529704
Cl255	Cl	1.497195	-0.118755	0.779704
Cl256	Cl	1.747195	0.131245	1.029704
H257	H	1.103914	-0.168137	-0.566403
H258	H	1.353914	0.081863	-0.316403
H259	H	1.603914	0.331863	-0.066403
H260	H	1.853914	0.581863	0.183597
H261	H	1.114138	-0.122993	-0.196109
H262	H	1.364138	0.127007	0.053891
H263	H	1.614138	0.377007	0.303891
H264	H	1.864138	0.627007	0.553891
Cl265	Cl	1.104436	-0.213773	-0.396549
Cl266	Cl	1.354436	0.036227	-0.146549
Cl267	Cl	1.604436	0.286227	0.103451
Cl268	Cl	1.854436	0.536227	0.353451
H269	H	1.133358	0.141132	-0.058894
H270	H	1.383358	0.391132	0.191106
H271	H	1.633358	0.641132	0.441106
H272	H	1.883358	0.891132	0.691106
H273	H	1.112863	-0.112174	-0.294091
H274	H	1.362863	0.137826	-0.044091
H275	H	1.612863	0.387826	0.205909
H276	H	1.862863	0.637826	0.455909
H277	H	1.124423	0.085169	-0.331211
H278	H	1.374423	0.335169	-0.081211
H279	H	1.624423	0.585169	0.168789
H280	H	1.874423	0.835169	0.418789
