data_functionalizedCrystal
_audit_creation_method	'MofGen! by Chris Wilmer'
_symmetry_space_group_name_H-M	'P1'
_symmetry_Int_Tables_number	1
_symmetry_cell_setting	triclinic
loop_
_symmetry_equiv_pos_as_xyz
  x,y,z
_cell_length_a	27.731994
_cell_length_b	26.809956
_cell_length_c	27.732048
_cell_angle_alpha	90.009578
_cell_angle_beta	82.631595
_cell_angle_gamma	90.009960
loop_
_atom_site_label
_atom_site_type_symbol
_atom_site_fract_x
_atom_site_fract_y
_atom_site_fract_z
O1	O	0.640953	0.041414	0.057391
O2	O	1.140953	0.541414	0.557391
O3	O	0.500155	0.041431	0.066164
O4	O	1.000155	0.541431	0.566164
O5	O	0.574927	0.041412	-0.008620
O6	O	1.074927	0.541412	0.491380
O7	O	0.566181	0.041432	0.132175
O8	O	1.066181	0.541432	0.632175
O9	O	0.574904	-0.041547	-0.008620
O10	O	1.074904	0.458453	0.491380
O11	O	0.500132	-0.041528	0.066164
O12	O	1.000132	0.458472	0.566164
O13	O	0.640930	-0.041545	0.057391
O14	O	1.140930	0.458455	0.557391
Zn15	Zn	0.570527	-0.054708	0.061778
Zn16	Zn	1.070527	0.445292	0.561778
Zn17	Zn	0.570558	0.054594	0.061778
Zn18	Zn	1.070558	0.554594	0.561778
O19	O	0.566158	-0.041527	0.132175
O20	O	1.066158	0.458473	0.632175
C21	C	0.482137	-0.000046	0.065984
C22	C	0.982137	0.499954	0.565984
C23	C	0.428480	-0.000040	0.065442
C24	C	0.928480	0.499960	0.565442
N25	N	0.570510	-0.129304	0.061777
N26	N	1.070510	0.370696	0.561777
C27	C	0.095749	-0.045281	0.062026
C28	C	0.595749	0.454719	0.562026
C29	C	-0.105909	-0.045287	0.059964
C30	C	0.394091	0.454713	0.559964
O31	O	-0.131992	-0.083746	0.059677
O32	O	0.368008	0.416254	0.559677
N33	N	-0.131111	-0.000066	0.059708
N34	N	0.368889	0.499934	0.559708
C35	C	-0.105896	0.045160	0.059964
C36	C	0.394104	0.545160	0.559964
O37	O	-0.131958	0.083623	0.059694
O38	O	0.368042	0.583623	0.559694
C39	C	0.095762	0.045165	0.062023
C40	C	0.595762	0.545165	0.562023
C41	C	0.120961	-0.000059	0.062283
C42	C	0.620961	0.499941	0.562283
C43	C	0.120949	-0.090501	0.062286
C44	C	0.620949	0.409499	0.562286
C45	C	0.171360	-0.090499	0.062804
C46	C	0.671360	0.409501	0.562804
C47	C	0.196572	-0.045277	0.063062
C48	C	0.696572	0.454723	0.563062
C49	C	0.171372	-0.000057	0.062801
C50	C	0.671372	0.499943	0.562801
C51	C	0.120977	0.090390	0.062275
C52	C	0.620977	0.590390	0.562275
C53	C	0.171395	0.090388	0.062789
C54	C	0.671395	0.590388	0.562789
C55	C	0.196594	0.045164	0.063050
C56	C	0.696594	0.545164	0.563050
C57	C	0.246996	0.045167	0.063577
C58	C	0.746996	0.545167	0.563577
N59	N	0.272198	-0.000054	0.063833
N60	N	0.772198	0.499946	0.563833
C61	C	0.246986	-0.045276	0.063576
C62	C	0.746986	0.454724	0.563576
C63	C	-0.211769	0.045154	0.058885
C64	C	0.288231	0.545154	0.558885
C65	C	-0.262183	0.045152	0.058371
C66	C	0.237817	0.545152	0.558371
C67	C	-0.262193	-0.045294	0.058370
C68	C	0.237807	0.454706	0.558370
C69	C	-0.211778	-0.045293	0.058887
C70	C	0.288222	0.454707	0.558887
C71	C	-0.186566	-0.000067	0.059141
C72	C	0.313434	0.499933	0.559141
C73	C	0.352853	-0.045268	0.064664
C74	C	0.852853	0.454732	0.564664
C75	C	0.403268	-0.045262	0.065184
C76	C	0.903268	0.454738	0.565184
C77	C	0.403274	0.045184	0.065182
C78	C	0.903274	0.545184	0.565182
C79	C	0.352863	0.045179	0.064665
C80	C	0.852863	0.545179	0.564665
C81	C	0.327654	-0.000052	0.064404
C82	C	0.827654	0.499948	0.564404
O83	O	0.273111	0.083606	0.063859
O84	O	0.773111	0.583606	0.563859
O85	O	0.273059	-0.083733	0.063835
O86	O	0.773059	0.416267	0.563835
C87	C	0.045338	-0.045283	0.061508
C88	C	0.545338	0.454717	0.561508
C89	C	0.020139	-0.000063	0.061247
C90	C	0.520139	0.499937	0.561247
C91	C	0.045351	0.045160	0.061505
C92	C	0.545351	0.545160	0.561505
C93	C	-0.030275	-0.000064	0.060734
C94	C	0.469725	0.499936	0.560734
C95	C	-0.055487	-0.045286	0.060476
C96	C	0.444513	0.454714	0.560476
C97	C	-0.030285	-0.090507	0.060732
C98	C	0.469715	0.409493	0.560732
C99	C	0.020126	-0.090505	0.061250
C100	C	0.520126	0.409495	0.561250
C101	C	0.020149	0.090381	0.061249
C102	C	0.520149	0.590381	0.561249
C103	C	-0.030263	0.090375	0.060732
C104	C	0.469737	0.590375	0.560732
C105	C	-0.055475	0.045153	0.060474
C106	C	0.444525	0.545153	0.560474
C107	C	0.599649	-0.473930	0.090883
C108	C	1.099649	0.026070	0.590883
C109	C	0.599665	-0.682808	0.090882
C110	C	1.099665	-0.182808	0.590882
O111	O	0.624426	-0.709811	0.115623
O112	O	1.124426	-0.209811	0.615623
N113	N	0.570569	-0.708931	0.061773
N114	N	1.070569	-0.208931	0.561773
C115	C	0.541470	-0.682833	0.032659
C116	C	1.041470	-0.182833	0.532659
O117	O	0.516727	-0.709845	0.007895
O118	O	1.016727	-0.209845	0.507895
C119	C	0.541458	-0.473956	0.032657
C120	C	1.041458	0.026044	0.532657
C121	C	0.570551	-0.447835	0.061772
C122	C	1.070551	0.052165	0.561772
C123	C	0.628741	-0.447809	0.119995
C124	C	1.128741	0.052191	0.619995
C125	C	0.628734	-0.395592	0.119997
C126	C	1.128734	0.104408	0.619997
C127	C	0.599637	-0.369497	0.090886
C128	C	1.099637	0.130503	0.590886
C129	C	0.570545	-0.395618	0.061774
C130	C	1.070545	0.104382	0.561774
C131	C	0.512362	-0.447858	0.003540
C132	C	1.012362	0.052142	0.503540
C133	C	0.512362	-0.395636	0.003542
C134	C	1.012362	0.104364	0.503542
C135	C	0.541455	-0.369514	0.032657
C136	C	1.041455	0.130486	0.532657
C137	C	0.541441	-0.317307	0.032665
C138	C	1.041441	0.182693	0.532665
N139	N	0.570536	-0.291183	0.061775
N140	N	1.070536	0.208817	0.561775
C141	C	0.599634	-0.317278	0.090885
C142	C	1.099634	0.182722	0.590885
C143	C	0.541478	-0.792496	0.032662
C144	C	1.041478	-0.292496	0.532662
C145	C	0.541481	-0.844715	0.032663
C146	C	1.041481	-0.344715	0.532663
C147	C	0.599676	-0.844686	0.090886
C148	C	1.099676	-0.344686	0.590886
C149	C	0.599670	-0.792466	0.090888
C150	C	1.099670	-0.292466	0.590888
C151	C	0.570574	-0.766372	0.061772
C152	C	1.070574	-0.266372	0.561772
C153	C	0.599619	-0.207620	0.090887
C154	C	1.099619	0.292380	0.590887
C155	C	0.599608	-0.155399	0.090888
C156	C	1.099608	0.344601	0.590888
C157	C	0.541415	-0.155433	0.032663
C158	C	1.041415	0.344567	0.532663
C159	C	0.541423	-0.207649	0.032664
C160	C	1.041423	0.292351	0.532664
C161	C	0.570529	-0.233742	0.061777
C162	C	1.070529	0.266258	0.561777
O163	O	0.516696	-0.290272	0.007933
O164	O	1.016696	0.209728	0.507933
O165	O	0.624382	-0.290257	0.115637
O166	O	1.124382	0.209743	0.615637
C167	C	0.599655	-0.526146	0.090881
C168	C	1.099655	-0.026146	0.590881
C169	C	0.570564	-0.552267	0.061768
C170	C	1.070564	-0.052267	0.561768
C171	C	0.541466	-0.526172	0.032658
C172	C	1.041466	-0.026172	0.532658
C173	C	0.570566	-0.604486	0.061769
C174	C	1.070566	-0.104486	0.561769
C175	C	0.599664	-0.630581	0.090880
C176	C	1.099664	-0.130581	0.590880
C177	C	0.628759	-0.604458	0.119990
C178	C	1.128759	-0.104458	0.619990
C179	C	0.628753	-0.552241	0.119991
C180	C	1.128753	-0.052241	0.619991
C181	C	0.512370	-0.552296	0.003548
C182	C	1.012370	-0.052296	0.503548
C183	C	0.512378	-0.604512	0.003549
C184	C	1.012378	-0.104512	0.503549
C185	C	0.541476	-0.630608	0.032660
C186	C	1.041476	-0.130608	0.532660
C187	C	0.658949	-0.000067	0.057571
C188	C	1.158949	0.499933	0.557571
C189	C	0.712605	-0.000070	0.058114
C190	C	1.212605	0.499930	0.558114
C191	C	0.574732	-0.000069	-0.026627
C192	C	1.074732	0.499931	0.473373
C193	C	0.574179	-0.000073	-0.080282
C194	C	1.074179	0.499927	0.419718
N195	N	0.570578	0.129190	0.061774
N196	N	1.070578	0.629190	0.561774
C197	C	0.614884	-0.000052	-0.419105
C198	C	1.114884	0.499948	0.080895
C199	C	0.612833	-0.000045	-0.620764
C200	C	1.112833	0.499955	-0.120764
O201	O	0.650055	-0.000028	-0.652027
O202	O	1.150055	0.499972	-0.152027
N203	N	0.568496	-0.000040	-0.639879
N204	N	1.068496	0.499960	-0.139879
C205	C	0.524670	-0.000033	-0.608576
C206	C	1.024670	0.499967	-0.108576
O207	O	0.486912	-0.000024	-0.629462
O208	O	0.986912	0.499976	-0.129462
C209	C	0.526721	-0.000037	-0.406918
C210	C	1.026721	0.499963	0.093082
C211	C	0.571061	-0.000047	-0.387805
C212	C	1.071061	0.499953	0.112195
C213	C	0.659220	-0.000061	-0.399992
C214	C	1.159220	0.499939	0.100008
C215	C	0.659732	-0.000066	-0.349580
C216	C	1.159732	0.499934	0.150420
C217	C	0.615908	-0.000061	-0.318281
C218	C	1.115908	0.499939	0.181719
C219	C	0.571573	-0.000052	-0.337394
C220	C	1.071573	0.499948	0.162606
C221	C	0.482895	-0.000027	-0.375615
C222	C	0.982895	0.499973	0.124385
C223	C	0.483412	-0.000027	-0.325198
C224	C	0.983412	0.499973	0.174802
C225	C	0.527751	-0.000037	-0.306086
C226	C	1.027751	0.499963	0.193914
C227	C	0.528262	-0.000051	-0.255683
C228	C	1.028262	0.499949	0.244317
N229	N	0.572598	-0.000056	-0.236567
N230	N	1.072598	0.499944	0.263433
C231	C	0.616421	-0.000061	-0.267867
C232	C	1.116421	0.499939	0.232133
C233	C	0.523596	-0.000032	-0.714450
C234	C	1.023596	0.499968	-0.214450
C235	C	0.523083	-0.000032	-0.764864
C236	C	1.023083	0.499968	-0.264864
C237	C	0.611246	-0.000043	-0.777049
C238	C	1.111246	0.499957	-0.277049
C239	C	0.611759	-0.000047	-0.726633
C240	C	1.111759	0.499953	-0.226633
C241	C	0.567932	-0.000037	-0.695335
C242	C	1.067932	0.499963	-0.195335
C243	C	0.617494	-0.000071	-0.161998
C244	C	1.117494	0.499929	0.338002
C245	C	0.618002	-0.000078	-0.111581
C246	C	1.118002	0.499922	0.388419
C247	C	0.529839	-0.000064	-0.099401
C248	C	1.029839	0.499936	0.400599
C249	C	0.529331	-0.000060	-0.149813
C250	C	1.029331	0.499940	0.350187
C251	C	0.573162	-0.000062	-0.181111
C252	C	1.073162	0.499938	0.318889
O253	O	0.491060	-0.000063	-0.224391
O254	O	0.991060	0.499937	0.275609
O255	O	0.654174	-0.000060	-0.246971
O256	O	1.154174	0.499940	0.253029
C257	C	0.614372	-0.000047	-0.469517
C258	C	1.114372	0.499953	0.030483
C259	C	0.570036	-0.000038	-0.488629
C260	C	1.070036	0.499962	0.011371
C261	C	0.526213	-0.000033	-0.457330
C262	C	1.026213	0.499967	0.042670
C263	C	0.569523	-0.000038	-0.539043
C264	C	1.069523	0.499962	-0.039043
C265	C	0.613346	-0.000043	-0.570343
C266	C	1.113346	0.499957	-0.070343
C267	C	0.657683	-0.000048	-0.551228
C268	C	1.157683	0.499952	-0.051228
C269	C	0.658195	-0.000052	-0.500816
C270	C	1.158195	0.499948	-0.000816
C271	C	0.481876	-0.000028	-0.476445
C272	C	0.981876	0.499972	0.023555
C273	C	0.481367	-0.000024	-0.526857
C274	C	0.981367	0.499976	-0.026857
C275	C	0.525191	-0.000029	-0.558157
C276	C	1.025191	0.499971	-0.058157
C277	C	0.566353	-0.000045	0.150182
C278	C	1.066353	0.499955	0.650182
C279	C	0.566906	-0.000037	0.203837
C280	C	1.066906	0.499963	0.703837
H281	H	0.423783	-0.082091	0.065398
H282	H	0.923783	0.417909	0.565398
Br283	Br	0.668235	-0.516799	0.159512
Br284	Br	1.168235	-0.016799	0.659512
H285	H	0.653186	-0.000070	-0.187475
H286	H	1.153186	0.499930	0.312525
Br287	Br	0.639120	-0.243024	0.130398
Br288	Br	1.139120	0.256976	0.630398
Br289	Br	0.472874	-0.483295	-0.035975
Br290	Br	0.972874	0.016705	0.464025
Br291	Br	0.639167	-0.880111	0.130393
Br292	Br	1.139167	-0.380111	0.630393
Br293	Br	0.205608	0.151769	0.063130
Br294	Br	0.705608	0.651769	0.563130
H295	H	0.693365	-0.000054	-0.576720
H296	H	1.193365	0.499946	-0.076720
Br297	Br	0.422395	-0.000019	-0.433975
Br298	Br	0.922395	0.499981	0.066025
Br299	Br	0.501933	-0.243100	-0.006844
Br300	Br	1.001933	0.256900	0.493156
H301	H	0.487905	-0.000025	-0.688970
H302	H	0.987905	0.499975	-0.188970
H303	H	0.652438	-0.469050	0.143701
H304	H	1.152438	0.030950	0.643701
H305	H	0.517783	-0.771255	0.008951
H306	H	1.017783	-0.271255	0.508951
Br307	Br	0.470368	-0.000058	-0.056914
Br308	Br	0.970368	0.499942	0.443086
H309	H	0.488667	-0.374392	-0.020169
H310	H	0.988667	0.125608	0.479831
Br311	Br	0.318661	0.106554	0.064321
Br312	Br	0.818661	0.606554	0.564321
H313	H	0.423810	0.082003	0.065394
H314	H	0.923810	0.582003	0.565394
Br315	Br	0.501986	-0.880159	-0.006842
Br316	Br	1.001986	-0.380159	0.493158
H317	H	0.694908	-0.000064	-0.425472
H318	H	1.194908	0.499936	0.074528
Br319	Br	0.318649	-0.106653	0.064308
Br320	Br	0.818649	0.393347	0.564308
H321	H	-0.191246	0.081984	0.059091
H322	H	0.308754	0.581984	0.559091
H323	H	0.191873	-0.127325	0.063014
H324	H	0.691873	0.372675	0.563014
Br325	Br	-0.064512	-0.151880	0.060386
Br326	Br	0.435488	0.348120	0.560386
H327	H	0.517723	-0.134177	0.008963
H328	H	1.017723	0.365823	0.508963
Br329	Br	0.718373	-0.000063	-0.474886
Br330	Br	1.218373	0.499937	0.025114
H331	H	0.623300	-0.134134	0.114599
H332	H	1.123300	0.365866	0.614599
H333	H	0.652449	-0.625713	0.143695
H334	H	1.152449	-0.125713	0.643695
Br335	Br	0.472887	-0.639956	-0.035965
Br336	Br	0.972887	-0.139956	0.464035
Br337	Br	0.421187	-0.000014	-0.552788
Br338	Br	0.921187	0.499986	-0.052788
H339	H	0.488676	-0.531055	-0.020159
H340	H	0.988676	-0.031055	0.479841
H341	H	0.652427	-0.374329	0.143703
H342	H	1.152427	0.125671	0.643703
Br343	Br	0.462906	-0.000031	-0.790795
Br344	Br	0.962906	0.499969	-0.290795
H345	H	0.100426	-0.127329	0.062075
H346	H	0.600426	0.372671	0.562075
Br347	Br	0.639157	-0.757022	0.130401
Br348	Br	1.139157	-0.257022	0.630401
Br349	Br	0.678181	-0.000092	-0.085647
Br350	Br	1.178181	0.499908	0.414353
H351	H	0.695837	-0.000072	-0.334024
H352	H	1.195837	0.499928	0.165976
H353	H	0.647863	-0.000054	-0.711076
H354	H	1.147863	0.499946	-0.211076
Br355	Br	0.670720	-0.000048	-0.819536
Br356	Br	1.170720	0.499952	-0.319536
H357	H	0.446789	-0.000016	-0.391167
H358	H	0.946789	0.499984	0.108833
H359	H	0.447722	-0.000018	-0.299716
H360	H	0.947722	0.499982	0.200284
H361	H	0.493226	-0.000066	-0.165375
H362	H	0.993226	0.499934	0.334625
H363	H	-0.191264	-0.082118	0.059100
H364	H	0.308736	0.417882	0.559100
H365	H	-0.282729	-0.082116	0.058161
H366	H	0.217271	0.417884	0.558161
H367	H	-0.282697	0.081978	0.058166
H368	H	0.217303	0.581978	0.558166
H369	H	0.100469	0.127217	0.062062
H370	H	0.600469	0.627217	0.562062
H371	H	0.040639	-0.127331	0.061463
H372	H	0.540639	0.372669	0.561463
H373	H	-0.050776	0.127205	0.060523
H374	H	0.449224	0.627205	0.560523
H375	H	0.040671	0.127207	0.061457
H376	H	0.540671	0.627207	0.561457
