data_functionalizedCrystal
_audit_creation_method	'MofGen! by Chris Wilmer'
_symmetry_space_group_name_H-M	'P1'
_symmetry_Int_Tables_number	1
_symmetry_cell_setting	triclinic
loop_
_symmetry_equiv_pos_as_xyz
  x,y,z
_cell_length_a	16.109301
_cell_length_b	23.532357
_cell_length_c	22.010155
_cell_angle_alpha	90.010083
_cell_angle_beta	90.013343
_cell_angle_gamma	83.144938
loop_
_atom_site_label
_atom_site_type_symbol
_atom_site_fract_x
_atom_site_fract_y
_atom_site_fract_z
O1	O	1.102551	0.073204	0.050499
O2	O	1.602551	0.573204	0.550499
O3	O	0.860415	0.082314	0.050509
O4	O	1.360415	0.582314	0.550509
O5	O	0.988806	-0.005148	0.050491
O6	O	1.488806	0.494852	0.550491
O7	O	0.974159	0.160665	0.050517
O8	O	1.474159	0.660665	0.550517
O9	O	0.988768	-0.005148	-0.050559
O10	O	1.488768	0.494852	0.449441
O11	O	0.860376	0.082314	-0.050542
O12	O	1.360376	0.582314	0.449458
O13	O	1.102512	0.073204	-0.050551
O14	O	1.602512	0.573204	0.449449
Cu15	Cu	0.981441	0.077759	-0.059773
Cu16	Cu	1.481441	0.577759	0.440227
Cu17	Cu	0.981486	0.077759	0.059731
Cu18	Cu	1.481486	0.577759	0.559731
O19	O	0.974121	0.160665	-0.050534
O20	O	1.474121	0.660665	0.449466
C21	C	0.829424	0.081945	-0.000015
C22	C	1.329424	0.581945	0.499985
C23	C	0.737137	0.080838	-0.000012
C24	C	1.237137	0.580838	0.499988
C25	C	0.427747	0.129119	-0.000015
C26	C	0.927747	0.629119	0.499985
C27	C	0.514459	0.130164	-0.000012
C28	C	1.014459	0.630164	0.499988
C29	C	0.535175	0.026394	-0.000020
C30	C	1.035175	0.526394	0.499980
C31	C	0.448465	0.025350	-0.000019
C32	C	0.948465	0.525350	0.499981
C33	C	0.394752	0.076714	-0.000020
C34	C	0.894752	0.576714	0.499980
C35	C	0.568175	0.078803	-0.000017
C36	C	1.068175	0.578803	0.499983
C37	C	0.662191	0.079936	-0.000013
C38	C	1.162191	0.579936	0.499987
C39	C	0.300730	0.075582	-0.000023
C40	C	0.800730	0.575582	0.499977
C41	C	0.988420	-0.026366	-0.000036
C42	C	1.488420	0.473634	0.499964
C43	C	0.987319	-0.089589	-0.000041
C44	C	1.487319	0.410411	0.499959
C45	C	0.980425	-0.481625	0.055074
C46	C	1.480425	0.018375	0.555074
C47	C	0.979378	-0.541029	0.055078
C48	C	1.479378	-0.041029	0.555078
O49	O	0.978826	-0.571747	0.101923
O50	O	1.478826	-0.071747	0.601923
N51	N	0.978838	-0.570742	-0.000004
N52	N	1.478838	-0.070742	0.499996
C53	C	0.979336	-0.541048	-0.055093
C54	C	1.479336	-0.041048	0.444907
O55	O	0.978780	-0.571776	-0.101944
O56	O	1.478780	-0.071776	0.398056
C57	C	0.980377	-0.481645	-0.055096
C58	C	1.480377	0.018355	0.444904
C59	C	0.980926	-0.451936	-0.000010
C60	C	1.480926	0.048064	0.499990
C61	C	0.980973	-0.451916	0.110155
C62	C	1.480973	0.048084	0.610155
C63	C	0.982021	-0.392517	0.110151
C64	C	1.482021	0.107483	0.610151
C65	C	0.982522	-0.362827	0.055067
C66	C	1.482522	0.137173	0.555067
C67	C	0.981974	-0.392537	-0.000014
C68	C	1.481974	0.107463	0.499986
C69	C	0.980870	-0.451952	-0.110184
C70	C	1.480870	0.048048	0.389816
C71	C	0.981910	-0.392545	-0.110182
C72	C	1.481910	0.107455	0.389818
C73	C	0.982459	-0.362835	-0.055097
C74	C	1.482459	0.137165	0.444903
C75	C	0.983524	-0.303448	-0.055103
C76	C	1.483524	0.196552	0.444897
N77	N	0.984064	-0.273735	-0.000021
N78	N	1.484064	0.226265	0.499979
C79	C	0.983563	-0.303424	0.055064
C80	C	1.483563	0.196576	0.555064
C81	C	0.977148	-0.665797	-0.055083
C82	C	1.477148	-0.165797	0.444917
C83	C	0.976113	-0.725200	-0.055081
C84	C	1.476113	-0.225200	0.444919
C85	C	0.976154	-0.725176	0.055090
C86	C	1.476154	-0.225176	0.555090
C87	C	0.977195	-0.665773	0.055087
C88	C	1.477195	-0.165773	0.555087
C89	C	0.977689	-0.636084	-0.000001
C90	C	1.477689	-0.136084	0.499999
C91	C	0.985766	-0.178682	0.055052
C92	C	1.485766	0.321318	0.555052
C93	C	0.986818	-0.119278	0.055043
C94	C	1.486818	0.380722	0.555043
C95	C	0.986773	-0.119306	-0.055127
C96	C	1.486773	0.380694	0.444873
C97	C	0.985726	-0.178706	-0.055119
C98	C	1.485726	0.321294	0.444881
C99	C	0.985219	-0.208392	-0.000025
C100	C	1.485219	0.291608	0.499975
O101	O	0.984073	-0.272692	-0.101924
O102	O	1.484073	0.227308	0.398076
O103	O	0.984109	-0.272688	0.101907
O104	O	1.484109	0.227312	0.601907
C105	C	1.133503	0.073573	-0.000026
C106	C	1.633503	0.573573	0.499974
C107	C	1.225790	0.074679	-0.000025
C108	C	1.725790	0.574679	0.499975
C109	C	0.974507	0.181883	-0.000005
C110	C	1.474507	0.681883	0.499995
C111	C	0.975608	0.245106	0.000005
C112	C	1.475608	0.745106	0.500005
N113	N	0.981415	0.077758	-0.143826
N114	N	1.481415	0.577758	0.356174
C115	C	1.031616	0.112305	-0.563601
C116	C	1.531616	0.612305	-0.063601
C117	C	1.031626	0.112304	-0.627209
C118	C	1.531626	0.612304	-0.127209
O119	O	1.074279	0.141673	-0.660098
O120	O	1.574279	0.641673	-0.160098
N121	N	0.981503	0.077752	-0.659033
N122	N	1.481503	0.577752	-0.159033
C123	C	0.931372	0.043196	-0.627245
C124	C	1.431372	0.543196	-0.127245
O125	O	0.888740	0.013806	-0.660154
O126	O	1.388740	0.513806	-0.160154
C127	C	0.931368	0.043194	-0.563639
C128	C	1.431368	0.543194	-0.063639
C129	C	0.981488	0.077752	-0.531819
C130	C	1.481488	0.577752	-0.031819
C131	C	1.081733	0.146860	-0.531781
C132	C	1.581733	0.646860	-0.031781
C133	C	1.081722	0.146862	-0.468178
C134	C	1.581722	0.646862	0.031822
C135	C	1.031594	0.112309	-0.436395
C136	C	1.531594	0.612309	0.063605
C137	C	0.981477	0.077754	-0.468215
C138	C	1.481477	0.577754	0.031785
C139	C	0.881243	0.008635	-0.531853
C140	C	1.381243	0.508635	-0.031853
C141	C	0.881243	0.008637	-0.468242
C142	C	1.381243	0.508637	0.031758
C143	C	0.931363	0.043195	-0.436422
C144	C	1.431363	0.543195	0.063578
C145	C	0.931338	0.043204	-0.372829
C146	C	1.431338	0.543204	0.127171
N147	N	0.981461	0.077755	-0.341006
N148	N	1.481461	0.577755	0.158994
C149	C	1.031589	0.112308	-0.372789
C150	C	1.531589	0.612308	0.127211
C151	C	0.931387	0.043200	-0.760823
C152	C	1.431387	0.543200	-0.260823
C153	C	0.931387	0.043204	-0.824428
C154	C	1.431387	0.543204	-0.324428
C155	C	1.031642	0.112311	-0.824388
C156	C	1.531642	0.612311	-0.324388
C157	C	1.031637	0.112310	-0.760781
C158	C	1.531637	0.612310	-0.260781
C159	C	0.981511	0.077752	-0.729000
C160	C	1.481511	0.577752	-0.229000
C161	C	1.031561	0.112310	-0.239217
C162	C	1.531561	0.612310	0.260783
C163	C	1.031543	0.112311	-0.175608
C164	C	1.531543	0.612311	0.324392
C165	C	0.931292	0.043201	-0.175655
C166	C	1.431292	0.543201	0.324345
C167	C	0.931306	0.043203	-0.239258
C168	C	1.431306	0.543203	0.260742
C169	C	0.981448	0.077759	-0.271038
C170	C	1.481448	0.577759	0.228962
O171	O	0.888709	0.013848	-0.339900
O172	O	1.388709	0.513848	0.160100
O173	O	1.074222	0.141687	-0.339872
O174	O	1.574222	0.641687	0.160128
N175	N	0.981519	0.077755	0.143783
N176	N	1.481519	0.577755	0.643783
H177	H	0.421601	-0.017328	-0.000021
H178	H	0.921601	0.482672	0.499979
C179	C	0.982309	-0.360369	-0.170038
C180	C	1.482309	0.139631	0.329962
C181	C	0.910508	-0.368412	-0.203265
C182	C	1.410508	0.131588	0.296735
C183	C	0.910850	-0.338787	-0.258408
C184	C	1.410850	0.161213	0.241592
H185	H	0.982965	-0.320723	-0.162238
H186	H	1.482965	0.179277	0.337762
H187	H	1.030589	-0.374472	-0.192712
H188	H	1.530589	0.125528	0.307288
H189	H	0.862241	-0.354306	-0.180596
H190	H	1.362241	0.145694	0.319404
H191	H	0.909837	-0.408051	-0.211081
H192	H	1.409837	0.091949	0.288919
H193	H	0.959130	-0.352890	-0.281082
H194	H	1.459130	0.147110	0.218918
H195	H	0.911509	-0.299143	-0.250602
H196	H	1.411509	0.200857	0.249398
H197	H	0.862139	-0.344244	-0.280962
H198	H	1.362139	0.155756	0.219038
H199	H	0.987267	-0.095092	0.099902
H200	H	1.487267	0.404908	0.599902
H201	H	0.541318	0.172838	-0.000008
H202	H	1.041318	0.672838	0.499992
H203	H	0.578918	-0.015425	-0.000020
H204	H	1.078918	0.484575	0.499980
C205	C	0.985096	-0.210859	-0.114988
C206	C	1.485096	0.289141	0.385012
C207	C	0.985743	-0.172139	-0.163229
C208	C	1.485743	0.327861	0.336771
C209	C	0.985143	-0.201732	-0.218390
C210	C	1.485143	0.298268	0.281610
H211	H	1.033159	-0.238393	-0.117368
H212	H	1.533159	0.261607	0.382632
H213	H	0.936174	-0.229658	-0.117308
H214	H	1.436174	0.270342	0.382692
H215	H	1.034660	-0.153350	-0.160911
H216	H	1.534660	0.346650	0.339089
H217	H	0.937684	-0.144605	-0.160870
H218	H	1.437684	0.355395	0.339130
H219	H	0.936221	-0.220531	-0.220709
H220	H	1.436221	0.279469	0.279291
H221	H	1.033207	-0.229265	-0.220763
H222	H	1.533207	0.270735	0.279237
H223	H	0.985574	-0.175465	-0.251128
H224	H	1.485574	0.324535	0.248872
H225	H	0.890484	0.015070	-0.265167
H226	H	1.390484	0.515070	0.234833
H227	H	0.384016	0.170944	-0.000016
H228	H	0.884016	0.670944	0.499984
H229	H	1.122539	0.175000	-0.442275
H230	H	1.622539	0.675000	0.057725
C231	C	1.136186	0.184442	-0.566171
C232	C	1.636186	0.684442	-0.066171
C233	C	1.180052	0.214708	-0.524678
C234	C	1.680052	0.714708	-0.024678
C235	C	1.230212	0.249346	-0.556331
C236	C	1.730212	0.749346	-0.056331
H237	H	1.174725	0.161180	-0.590985
H238	H	1.674725	0.661180	-0.090985
H239	H	1.101909	0.210678	-0.590970
H240	H	1.601909	0.710678	-0.090970
H241	H	1.214326	0.188475	-0.499890
H242	H	1.714326	0.688475	0.000110
H243	H	1.141534	0.237981	-0.499863
H244	H	1.641534	0.737981	0.000137
H245	H	1.195935	0.275583	-0.581130
H246	H	1.695935	0.775583	-0.081130
H247	H	1.268746	0.226080	-0.581144
H248	H	1.768746	0.726080	-0.081144
H249	H	1.259975	0.269890	-0.528183
H250	H	1.759975	0.769890	-0.028183
C251	C	0.977633	-0.633441	0.114854
C252	C	1.477633	-0.133441	0.614854
C253	C	0.906694	-0.592913	0.118064
C254	C	1.406694	-0.092913	0.618064
C255	C	0.907063	-0.563118	0.173113
C256	C	1.407063	-0.063118	0.673113
H257	H	0.977139	-0.659571	0.147704
H258	H	1.477139	-0.159571	0.647704
H259	H	1.026498	-0.614579	0.117163
H260	H	1.526498	-0.114579	0.617163
H261	H	0.857842	-0.611773	0.115761
H262	H	1.357842	-0.111773	0.615761
H263	H	0.907173	-0.566770	0.085227
H264	H	1.407173	-0.066770	0.585227
H265	H	0.955928	-0.544257	0.175422
H266	H	1.455928	-0.044257	0.675422
H267	H	0.906572	-0.589253	0.205958
H268	H	1.406572	-0.089253	0.705958
H269	H	0.858936	-0.535613	0.175296
H270	H	1.358936	-0.035613	0.675296
C271	C	0.985244	-0.210807	0.114931
C272	C	1.485244	0.289193	0.614931
C273	C	0.985962	-0.172066	0.163162
C274	C	1.485962	0.327934	0.663162
C275	C	0.985489	-0.201638	0.218331
C276	C	1.485489	0.298362	0.718331
H277	H	0.936355	-0.229621	0.117309
H278	H	1.436355	0.270379	0.617309
H279	H	1.033341	-0.238329	0.117265
H280	H	1.533341	0.261671	0.617265
H281	H	0.937870	-0.144554	0.160829
H282	H	1.437870	0.355446	0.660829
H283	H	1.034848	-0.153250	0.160805
H284	H	1.534848	0.346750	0.660805
H285	H	1.033586	-0.229160	0.220665
H286	H	1.533586	0.270840	0.720665
H287	H	0.936599	-0.220451	0.220702
H288	H	1.436599	0.279549	0.720702
H289	H	0.985984	-0.175358	0.251062
H290	H	1.485984	0.324642	0.751062
C291	C	0.982399	-0.360309	0.169999
C292	C	1.482399	0.139691	0.669999
C293	C	0.910590	-0.368362	0.203184
C294	C	1.410590	0.131638	0.703184
C295	C	0.910885	-0.338713	0.258327
C296	C	1.410885	0.161287	0.758327
H297	H	1.030657	-0.374378	0.192711
H298	H	1.530657	0.125622	0.692711
H299	H	0.983036	-0.320661	0.162179
H300	H	1.483036	0.179339	0.662179
H301	H	0.909961	-0.408002	0.211006
H302	H	1.409961	0.091998	0.711006
H303	H	0.862321	-0.354291	0.180490
H304	H	1.362321	0.145709	0.680490
H305	H	0.911522	-0.299064	0.250507
H306	H	1.411522	0.200936	0.750507
H307	H	0.959146	-0.352784	0.281034
H308	H	1.459146	0.147216	0.781034
H309	H	0.862160	-0.344168	0.280848
H310	H	1.362160	0.155832	0.780848
C311	C	1.086148	0.149845	-0.726346
C312	C	1.586148	0.649845	-0.226346
C313	C	1.130058	0.180093	-0.767803
C314	C	1.630058	0.680093	-0.267803
C315	C	1.180294	0.214671	-0.736107
C316	C	1.680294	0.714671	-0.236107
H317	H	1.051945	0.176096	-0.701531
H318	H	1.551945	0.676096	-0.201531
H319	H	1.124656	0.126526	-0.701545
H320	H	1.624656	0.626526	-0.201545
H321	H	1.091555	0.203410	-0.792593
H322	H	1.591555	0.703410	-0.292593
H323	H	1.164277	0.153857	-0.792619
H324	H	1.664277	0.653857	-0.292619
H325	H	1.218802	0.191352	-0.711306
H326	H	1.718802	0.691352	-0.211306
H327	H	1.146084	0.240919	-0.711293
H328	H	1.646084	0.740919	-0.211293
H329	H	1.210099	0.235194	-0.764230
H330	H	1.710099	0.735194	-0.264230
H331	H	1.072458	0.140447	-0.850277
H332	H	1.572458	0.640447	-0.350277
C333	C	0.977829	-0.633507	-0.114854
C334	C	1.477829	-0.133507	0.385146
C335	C	1.049954	-0.605818	-0.118075
C336	C	1.549954	-0.105818	0.381925
C337	C	1.050603	-0.576065	-0.173122
C338	C	1.550603	-0.076065	0.326878
H339	H	0.977403	-0.659654	-0.147704
H340	H	1.477403	-0.159654	0.352296
H341	H	0.929771	-0.605950	-0.117154
H342	H	1.429771	-0.105950	0.382846
H343	H	1.098000	-0.633373	-0.115780
H344	H	1.598000	-0.133373	0.384220
H345	H	1.050395	-0.579662	-0.085237
H346	H	1.550395	-0.079662	0.414763
H347	H	1.002545	-0.548507	-0.175422
H348	H	1.502545	-0.048507	0.324578
H349	H	1.050175	-0.602216	-0.205969
H350	H	1.550175	-0.102216	0.294031
H351	H	1.099534	-0.557270	-0.175313
H352	H	1.599534	-0.057270	0.324687
C353	C	0.975475	-0.757332	0.114944
C354	C	1.475475	-0.257332	0.614944
C355	C	0.904213	-0.736444	0.148186
C356	C	1.404213	-0.236444	0.648186
C357	C	0.903567	-0.766048	0.203326
C358	C	1.403567	-0.266048	0.703326
H359	H	0.974731	-0.796969	0.107139
H360	H	1.474731	-0.296969	0.607139
H361	H	1.024118	-0.751937	0.137610
H362	H	1.524118	-0.251937	0.637610
H363	H	0.855582	-0.741844	0.125525
H364	H	1.355582	-0.241844	0.625525
H365	H	0.904942	-0.696811	0.156007
H366	H	1.404942	-0.196811	0.656007
H367	H	0.952210	-0.760652	0.225992
H368	H	1.452210	-0.260652	0.725992
H369	H	0.902825	-0.805684	0.195515
H370	H	1.402825	-0.305684	0.695515
H371	H	0.855221	-0.751876	0.225890
H372	H	1.355221	-0.251876	0.725890
C373	C	0.980562	-0.484229	0.169923
C374	C	1.480562	0.015771	0.669923
C375	C	1.051496	-0.524762	0.173136
C376	C	1.551496	-0.024762	0.673136
C377	C	1.051148	-0.554540	0.228185
C378	C	1.551148	-0.054540	0.728185
H379	H	0.981079	-0.458088	0.202772
H380	H	1.481079	0.041912	0.702772
H381	H	0.931694	-0.503084	0.172230
H382	H	1.431694	-0.003084	0.672230
H383	H	1.100352	-0.505908	0.170834
H384	H	1.600352	-0.005908	0.670834
H385	H	1.050994	-0.550914	0.140299
H386	H	1.550994	-0.050914	0.640299
H387	H	1.002279	-0.573395	0.230493
H388	H	1.502279	-0.073395	0.730493
H389	H	1.051662	-0.528395	0.261030
H390	H	1.551662	-0.028395	0.761030
H391	H	1.099270	-0.582048	0.230370
H392	H	1.599270	-0.082048	0.730370
C393	C	1.086022	0.149891	-0.273605
C394	C	1.586022	0.649891	0.226395
C395	C	1.129888	0.180161	-0.232114
C396	C	1.629888	0.680161	0.267886
C397	C	1.180052	0.214794	-0.263769
C398	C	1.680052	0.714794	0.236231
H399	H	1.124562	0.126626	-0.298415
H400	H	1.624562	0.626626	0.201585
H401	H	1.051749	0.176126	-0.298407
H402	H	1.551749	0.676126	0.201593
H403	H	1.164158	0.153929	-0.207321
H404	H	1.664158	0.653929	0.292679
H405	H	1.091369	0.203437	-0.207302
H406	H	1.591369	0.703437	0.292698
H407	H	1.145778	0.241029	-0.288571
H408	H	1.645778	0.741029	0.211429
H409	H	1.218586	0.191525	-0.288577
H410	H	1.718586	0.691525	0.211423
H411	H	1.209814	0.235340	-0.235622
H412	H	1.709814	0.735340	0.264378
C413	C	0.876937	0.005628	-0.858864
C414	C	1.376937	0.505628	-0.358864
C415	C	0.833053	-0.024640	-0.817409
C416	C	1.333053	0.475360	-0.317409
C417	C	0.782897	-0.059270	-0.849106
C418	C	1.282897	0.440730	-0.349106
H419	H	0.838409	0.028895	-0.883685
H420	H	1.338409	0.528895	-0.383685
H421	H	0.911218	-0.020608	-0.883658
H422	H	1.411218	0.479392	-0.383658
H423	H	0.798775	0.001593	-0.792625
H424	H	1.298775	0.501593	-0.292625
H425	H	0.871560	-0.047918	-0.792587
H426	H	1.371560	0.452082	-0.292587
H427	H	0.817177	-0.085506	-0.873901
H428	H	1.317177	0.414494	-0.373901
H429	H	0.744374	-0.035999	-0.873926
H430	H	1.244374	0.464001	-0.373926
H431	H	0.753121	-0.079815	-0.820985
H432	H	1.253121	0.420185	-0.320985
C433	C	0.876885	0.005782	-0.726245
C434	C	1.376885	0.505782	-0.226245
C435	C	0.820295	0.040303	-0.689727
C436	C	1.320295	0.540303	-0.189727
C437	C	0.770080	0.005854	-0.657864
C438	C	1.270080	0.505854	-0.157864
H439	H	0.846957	-0.014800	-0.754244
H440	H	1.346957	0.485200	-0.254244
H441	H	0.911139	-0.020418	-0.701392
H442	H	1.411139	0.479582	-0.201392
H443	H	0.786045	0.066492	-0.714578
H444	H	1.286045	0.566492	-0.214578
H445	H	0.850200	0.060884	-0.661717
H446	H	1.350200	0.560884	-0.161717
H447	H	0.804335	-0.020346	-0.633012
H448	H	1.304335	0.479654	-0.133012
H449	H	0.740159	-0.014726	-0.685868
H450	H	1.240159	0.485274	-0.185868
H451	H	0.731684	0.029271	-0.633079
H452	H	1.231684	0.529271	-0.133079
H453	H	0.987185	-0.095123	-0.099976
H454	H	1.487185	0.404877	0.400024
H455	H	0.840430	-0.019506	-0.557750
H456	H	1.340430	0.480494	-0.057750
H457	H	0.975679	-0.749385	-0.099937
H458	H	1.475679	-0.249385	0.400063
C459	C	0.826725	-0.028902	-0.433847
C460	C	1.326725	0.471098	0.066153
C461	C	0.782823	-0.059152	-0.475333
C462	C	1.282823	0.440848	0.024667
C463	C	0.732585	-0.093730	-0.443672
C464	C	1.232585	0.406270	0.056328
H465	H	0.860926	-0.055152	-0.409027
H466	H	1.360926	0.444848	0.090973
H467	H	0.788212	-0.005584	-0.409053
H468	H	1.288212	0.494416	0.090947
H469	H	0.821331	-0.082468	-0.500116
H470	H	1.321331	0.417532	-0.000116
H471	H	0.748607	-0.032916	-0.500154
H472	H	1.248607	0.467084	-0.000154
H473	H	0.694071	-0.070412	-0.418879
H474	H	1.194071	0.429588	0.081121
H475	H	0.766791	-0.119977	-0.418854
H476	H	1.266791	0.380023	0.081146
H477	H	0.702785	-0.114255	-0.471816
H478	H	1.202785	0.385745	0.028184
H479	H	1.072357	0.140455	-0.149703
H480	H	1.572357	0.640455	0.350297
H481	H	0.980424	-0.476131	-0.155041
H482	H	1.480424	0.023869	0.344959
C483	C	0.876727	0.005763	-0.141170
C484	C	1.376727	0.505763	0.358830
C485	C	0.792813	0.021456	-0.156639
C486	C	1.292813	0.521456	0.343361
C487	C	0.742529	-0.013018	-0.124875
C488	C	1.242529	0.486982	0.375125
H489	H	0.892407	-0.033218	-0.151569
H490	H	1.392407	0.466782	0.348431
H491	H	0.883852	0.010723	-0.098726
H492	H	1.383852	0.510723	0.401274
H493	H	0.785693	0.016491	-0.199073
H494	H	1.285693	0.516491	0.300927
H495	H	0.777107	0.060431	-0.146238
H496	H	1.277107	0.560431	0.353762
H497	H	0.749653	-0.008059	-0.082432
H498	H	1.249653	0.491941	0.417568
H499	H	0.758216	-0.051997	-0.135277
H500	H	1.258216	0.448003	0.364723
H501	H	0.685587	-0.002372	-0.135362
H502	H	1.185587	0.497628	0.364638
