data_functionalizedCrystal
_audit_creation_method	'MofGen! by Chris Wilmer'
_symmetry_space_group_name_H-M	'P1'
_symmetry_Int_Tables_number	1
_symmetry_cell_setting	triclinic
loop_
_symmetry_equiv_pos_as_xyz
  x,y,z
_cell_length_a	18.101398
_cell_length_b	25.639239
_cell_length_c	18.101390
_cell_angle_alpha	89.965145
_cell_angle_beta	89.977223
_cell_angle_gamma	90.033952
loop_
_atom_site_label
_atom_site_type_symbol
_atom_site_fract_x
_atom_site_fract_y
_atom_site_fract_z
Zn1	Zn	1.132071	-0.208197	-0.418828
Zn2	Zn	1.465404	0.125136	-0.085495
Zn3	Zn	1.798737	0.458469	0.247838
Zn4	Zn	1.131954	-0.295641	-0.294982
Zn5	Zn	1.465287	0.037693	0.038351
Zn6	Zn	1.798620	0.371026	0.371684
Zn7	Zn	1.008233	-0.208214	-0.294989
Zn8	Zn	1.341566	0.125119	0.038344
Zn9	Zn	1.674900	0.458453	0.371677
Zn10	Zn	1.008164	-0.295596	-0.418771
Zn11	Zn	1.341497	0.037737	-0.085438
Zn12	Zn	1.674831	0.371070	0.247896
O13	O	1.070105	-0.251912	-0.356893
O14	O	1.403439	0.081421	-0.023559
O15	O	1.736772	0.414755	0.309774
O16	O	1.235688	-0.219808	-0.402421
O17	O	1.569021	0.113525	-0.069088
O18	O	1.902355	0.446858	0.264246
O19	O	1.115522	-0.284069	-0.191350
O20	O	1.448855	0.049265	0.141983
O21	O	1.782188	0.382598	0.475316
O22	O	1.024738	-0.135046	-0.311444
O23	O	1.358072	0.198287	0.021889
O24	O	1.691405	0.531620	0.355223
O25	O	1.235602	-0.284053	-0.311432
O26	O	1.568935	0.049281	0.021902
O27	O	1.902269	0.382614	0.355235
O28	O	1.115721	-0.135034	-0.402428
O29	O	1.449055	0.198299	-0.069094
O30	O	1.782388	0.531632	0.264239
O31	O	1.024625	-0.219837	-0.191356
O32	O	1.357958	0.113497	0.141978
O33	O	1.691291	0.446830	0.475311
O34	O	0.904591	-0.219794	-0.311388
O35	O	1.237924	0.113540	0.021945
O36	O	1.571258	0.446873	0.355278
O37	O	1.024621	-0.283977	-0.522411
O38	O	1.357954	0.049356	-0.189078
O39	O	1.691287	0.382690	0.144255
O40	O	0.904540	-0.283993	-0.402330
O41	O	1.237874	0.049340	-0.068997
O42	O	1.571207	0.382673	0.264337
O43	O	1.115654	-0.219765	-0.522454
O44	O	1.448988	0.113568	-0.189120
O45	O	1.782321	0.446901	0.144213
O46	O	1.115455	-0.368800	-0.311376
O47	O	1.448788	-0.035467	0.021957
O48	O	1.782121	0.297867	0.355290
O49	O	1.024507	-0.368767	-0.402323
O50	O	1.357840	-0.035434	-0.068990
O51	O	1.691174	0.297899	0.264344
C52	C	0.877695	-0.251891	-0.356854
C53	C	1.211028	0.081443	-0.023521
C54	C	1.544361	0.414776	0.309813
C55	C	0.795381	-0.251894	-0.356855
C56	C	1.128714	0.081439	-0.023522
C57	C	1.462047	0.414772	0.309812
C58	C	0.496290	-0.251927	-0.356917
C59	C	0.829623	0.081406	-0.023584
C60	C	1.162956	0.414740	0.309749
C61	C	0.527622	-0.211332	-0.299978
C62	C	0.860955	0.122001	0.033355
C63	C	1.194289	0.455334	0.366688
C64	C	0.613240	-0.211441	-0.299735
C65	C	0.946574	0.121892	0.033598
C66	C	1.279907	0.455225	0.366931
C67	C	0.644672	-0.251910	-0.356886
C68	C	0.978006	0.081423	-0.023553
C69	C	1.311339	0.414756	0.309780
C70	C	0.613544	-0.306988	-0.335559
C71	C	0.946878	0.026345	-0.002226
C72	C	1.280211	0.359679	0.331107
C73	C	0.527899	-0.306762	-0.335163
C74	C	0.861233	0.026571	-0.001830
C75	C	1.194566	0.359904	0.331503
C76	C	0.527905	-0.237923	-0.435317
C77	C	0.861238	0.095411	-0.101984
C78	C	1.194571	0.428744	0.231349
C79	C	0.613556	-0.236696	-0.434890
C80	C	0.946889	0.096637	-0.101556
C81	C	1.280223	0.429971	0.231777
C82	C	0.728532	-0.251904	-0.356870
C83	C	1.061865	0.081429	-0.023537
C84	C	1.395198	0.414762	0.309796
C85	C	0.412430	-0.251937	-0.356932
C86	C	0.745764	0.081397	-0.023598
C87	C	1.079097	0.414730	0.309735
C88	C	1.069981	-0.387755	-0.356859
C89	C	1.403314	-0.054421	-0.023525
C90	C	1.736647	0.278912	0.309808
C91	C	1.069995	-0.445869	-0.356869
C92	C	1.403329	-0.112535	-0.023536
C93	C	1.736662	0.220798	0.309798
C94	C	1.117585	-0.806236	-0.309617
C95	C	1.450919	-0.472903	0.023716
C96	C	1.784252	-0.139569	0.357049
C97	C	1.117614	-0.860840	-0.309627
C98	C	1.450947	-0.527507	0.023706
C99	C	1.784281	-0.194174	0.357039
O100	O	1.157948	-0.889081	-0.269415
O101	O	1.491281	-0.555747	0.063918
O102	O	1.824614	-0.222414	0.397252
N103	N	1.070235	-0.888151	-0.356942
N104	N	1.403569	-0.554818	-0.023608
N105	N	1.736902	-0.221484	0.309725
C106	C	1.022830	-0.860855	-0.404255
C107	C	1.356164	-0.527521	-0.070922
C108	C	1.689497	-0.194188	0.262412
O109	O	0.982534	-0.889098	-0.444501
O110	O	1.315868	-0.555765	-0.111168
O111	O	1.649201	-0.222432	0.222166
C112	C	1.022806	-0.806251	-0.404248
C113	C	1.356139	-0.472918	-0.070915
C114	C	1.689473	-0.139585	0.262419
C115	C	1.070182	-0.778943	-0.356925
C116	C	1.403516	-0.445610	-0.023592
C117	C	1.736849	-0.112277	0.309741
C118	C	1.164958	-0.778928	-0.262299
C119	C	1.498292	-0.445595	0.071034
C120	C	1.831625	-0.112261	0.404368
C121	C	1.164928	-0.724328	-0.262288
C122	C	1.498262	-0.390994	0.071045
C123	C	1.831595	-0.057661	0.404378
C124	C	1.117526	-0.697035	-0.309596
C125	C	1.450859	-0.363702	0.023737
C126	C	1.784192	-0.030368	0.357071
C127	C	1.070152	-0.724343	-0.356914
C128	C	1.403486	-0.391010	-0.023581
C129	C	1.736819	-0.057676	0.309752
C130	C	0.975405	-0.778956	-0.451564
C131	C	1.308739	-0.445623	-0.118231
C132	C	1.642072	-0.112289	0.215102
C133	C	0.975385	-0.724349	-0.451554
C134	C	1.308719	-0.391015	-0.118221
C135	C	1.642052	-0.057682	0.215113
C136	C	1.022762	-0.697041	-0.404231
C137	C	1.356095	-0.363708	-0.070898
C138	C	1.689428	-0.030374	0.262436
C139	C	1.022720	-0.642450	-0.404212
C140	C	1.356053	-0.309116	-0.070878
C141	C	1.689386	0.024217	0.262455
N142	N	1.070098	-0.615139	-0.356897
N143	N	1.403432	-0.281806	-0.023564
N144	N	1.736765	0.051528	0.309770
C145	C	1.117501	-0.642432	-0.309589
C146	C	1.450834	-0.309098	0.023744
C147	C	1.784168	0.024235	0.357077
C148	C	1.022886	-0.975525	-0.404266
C149	C	1.356220	-0.642192	-0.070933
C150	C	1.689553	-0.308859	0.262400
C151	C	1.022906	-1.030128	-0.404270
C152	C	1.356240	-0.696794	-0.070936
C153	C	1.689573	-0.363461	0.262397
C154	C	1.117691	-1.030110	-0.309643
C155	C	1.451024	-0.696776	0.023690
C156	C	1.784358	-0.363443	0.357024
C157	C	1.117667	-0.975506	-0.309636
C158	C	1.451000	-0.642173	0.023697
C159	C	1.784333	-0.308840	0.357030
C160	C	1.070265	-0.948215	-0.356952
C161	C	1.403598	-0.614881	-0.023618
C162	C	1.736931	-0.281548	0.309715
C163	C	1.117434	-0.527767	-0.309570
C164	C	1.450768	-0.194433	0.023763
C165	C	1.784101	0.138900	0.357097
C166	C	1.117398	-0.473161	-0.309561
C167	C	1.450731	-0.139828	0.023772
C168	C	1.784065	0.193505	0.357105
C169	C	1.022616	-0.473184	-0.404190
C170	C	1.355950	-0.139851	-0.070857
C171	C	1.689283	0.193483	0.262476
C172	C	1.022650	-0.527785	-0.404197
C173	C	1.355983	-0.194451	-0.070863
C174	C	1.689316	0.138882	0.262470
C175	C	1.070065	-0.555075	-0.356884
C176	C	1.403398	-0.221741	-0.023551
C177	C	1.736731	0.111592	0.309783
O178	O	0.982409	-0.614175	-0.444406
O179	O	1.315742	-0.280841	-0.111072
O180	O	1.649075	0.052492	0.222261
O181	O	1.157797	-0.614181	-0.269357
O182	O	1.491131	-0.280848	0.063977
O183	O	1.824464	0.052486	0.397310
C184	C	1.263267	-0.251934	-0.356932
C185	C	1.596600	0.081400	-0.023599
C186	C	1.929934	0.414733	0.309735
C187	C	1.345581	-0.251943	-0.356949
C188	C	1.678915	0.081390	-0.023615
C189	C	2.012248	0.414724	0.309718
C190	C	1.070143	-0.251865	-0.550055
C191	C	1.403476	0.081469	-0.216721
C192	C	1.736810	0.414802	0.116612
C193	C	1.070159	-0.251844	-0.632369
C194	C	1.403492	0.081489	-0.299036
C195	C	1.736826	0.414822	0.034298
C196	C	1.070250	-0.115539	-0.356943
C197	C	1.403584	0.217794	-0.023610
C198	C	1.736917	0.551128	0.309724
C199	C	1.070312	-0.057425	-0.356964
C200	C	1.403646	0.275908	-0.023631
C201	C	1.736979	0.609242	0.309702
C202	C	1.070185	-0.251828	-0.783077
C203	C	1.403519	0.081505	-0.449744
C204	C	1.736852	0.414839	-0.116411
C205	C	1.127463	-0.211424	-0.814458
C206	C	1.460797	0.121909	-0.481124
C207	C	1.794130	0.455243	-0.147791
C208	C	1.127703	-0.211533	-0.900076
C209	C	1.461036	0.121800	-0.566743
C210	C	1.794369	0.455133	-0.233409
C211	C	1.070212	-0.251811	-0.931460
C212	C	1.403545	0.081522	-0.598127
C213	C	1.736878	0.414856	-0.264793
C214	C	1.091077	-0.306959	-0.900349
C215	C	1.424410	0.026374	-0.567015
C216	C	1.757743	0.359708	-0.233682
C217	C	1.091477	-0.306735	-0.814704
C218	C	1.424811	0.026598	-0.481371
C219	C	1.758144	0.359932	-0.148037
C220	C	0.991903	-0.237562	-0.814628
C221	C	1.325236	0.095771	-0.481295
C222	C	1.658570	0.429105	-0.147961
C223	C	0.992338	-0.236337	-0.900280
C224	C	1.325672	0.096997	-0.566946
C225	C	1.659005	0.430330	-0.233613
C226	C	1.070225	-0.251805	-1.015320
C227	C	1.403558	0.081529	-0.681986
C228	C	1.736892	0.414862	-0.348653
C229	C	1.070174	-0.251838	-0.699218
C230	C	1.403507	0.081496	-0.365885
C231	C	1.736840	0.414829	-0.032551
C232	C	1.070110	-0.251922	-0.164482
C233	C	1.403444	0.081412	0.168851
C234	C	1.736777	0.414745	0.502184
C235	C	1.070238	-0.251795	-0.082169
C236	C	1.403571	0.081539	0.251165
C237	C	1.736905	0.414872	0.584498
H238	H	0.633694	-0.220700	-0.241642
H239	H	0.967027	0.112634	0.091692
H240	H	1.300360	0.445967	0.425025
H241	H	0.507170	-0.338033	-0.374826
H242	H	0.840504	-0.004699	-0.041493
H243	H	1.173837	0.328634	0.291840
H244	H	0.984019	-0.450954	-0.442706
H245	H	1.317353	-0.117621	-0.109372
H246	H	1.650686	0.215713	0.223961
C247	C	0.923296	-0.808983	-0.503626
C248	C	1.256629	-0.475649	-0.170292
C249	C	1.589962	-0.142316	0.163041
H250	H	0.895073	-0.784900	-0.531802
H251	H	1.228406	-0.451567	-0.198469
H252	H	1.561739	-0.118234	0.134865
H253	H	0.891049	-0.830321	-0.475280
H254	H	1.224382	-0.496988	-0.141946
H255	H	1.557715	-0.163655	0.191387
H256	H	0.951622	-0.830245	-0.535930
H257	H	1.284956	-0.496911	-0.202596
H258	H	1.618289	-0.163578	0.130737
H259	H	0.947411	-0.263599	-0.921640
H260	H	1.280744	0.069734	-0.588307
H261	H	1.614077	0.403067	-0.254973
C262	C	0.923242	-0.694331	-0.503603
C263	C	1.256576	-0.360998	-0.170269
C264	C	1.589909	-0.027664	0.163064
H265	H	0.895031	-0.718418	-0.531781
H266	H	1.228364	-0.385085	-0.198448
H267	H	1.561698	-0.051752	0.134886
H268	H	0.951541	-0.672994	-0.535894
H269	H	1.284874	-0.339661	-0.202561
H270	H	1.618208	-0.006328	0.130773
H271	H	0.890974	-0.673068	-0.475237
H272	H	1.224308	-0.339734	-0.141904
H273	H	1.557641	-0.006401	0.191429
H274	H	0.506073	-0.220486	-0.242223
H275	H	0.839406	0.112847	0.091111
H276	H	1.172739	0.446181	0.424444
H277	H	0.984074	-0.550020	-0.442733
H278	H	1.317408	-0.216687	-0.109400
H279	H	1.650741	0.116647	0.223934
C280	C	1.110119	-0.156299	-0.928500
C281	C	1.443453	0.177034	-0.595167
C282	C	1.776786	0.510368	-0.261834
H283	H	1.102768	-0.133590	-0.887704
H284	H	1.436102	0.199743	-0.554371
H285	H	1.769435	0.533076	-0.221037
H286	H	1.066578	-0.157285	-0.957743
H287	H	1.399911	0.176048	-0.624410
H288	H	1.733244	0.509382	-0.291077
H289	H	1.150179	-0.143939	-0.957578
H290	H	1.483512	0.189394	-0.624245
H291	H	1.816846	0.522727	-0.290911
H292	H	0.507887	-0.318638	-0.277849
H293	H	0.841220	0.014695	0.055484
H294	H	1.174553	0.348028	0.388818
H295	H	0.633902	-0.338045	-0.375733
H296	H	0.967235	-0.004711	-0.042399
H297	H	1.300569	0.328622	0.290934
C298	C	0.934255	-0.277309	-0.787205
C299	C	1.267588	0.056024	-0.453872
C300	C	1.600922	0.389357	-0.120539
H301	H	0.957739	-0.302477	-0.756676
H302	H	1.291072	0.030856	-0.423342
H303	H	1.624406	0.364190	-0.090009
H304	H	0.912273	-0.294241	-0.828367
H305	H	1.245607	0.039092	-0.495034
H306	H	1.578940	0.372425	-0.161700
H307	H	0.897197	-0.259730	-0.759638
H308	H	1.230530	0.073604	-0.426305
H309	H	1.563864	0.406937	-0.092971
H310	H	1.185717	-0.220986	-0.920577
H311	H	1.519050	0.112347	-0.587244
H312	H	1.852383	0.445680	-0.253910
H313	H	1.114586	-0.170413	-0.793886
H314	H	1.447919	0.162920	-0.460553
H315	H	1.781252	0.496253	-0.127219
C316	C	1.205383	-0.224046	-0.785412
C317	C	1.538716	0.109287	-0.452079
C318	C	1.872049	0.442621	-0.118745
H319	H	1.203160	-0.253833	-0.754246
H320	H	1.536493	0.079500	-0.420913
H321	H	1.869826	0.412833	-0.087580
H322	H	1.223733	-0.195151	-0.758185
H323	H	1.557066	0.138182	-0.424852
H324	H	1.890400	0.471516	-0.091519
H325	H	1.237325	-0.230953	-0.825891
H326	H	1.570658	0.102380	-0.492558
H327	H	1.903991	0.435714	-0.159224
C328	C	1.036464	-0.348737	-0.927805
C329	C	1.369797	-0.015404	-0.594472
C330	C	1.703130	0.317930	-0.261138
H331	H	1.050101	-0.381775	-0.908339
H332	H	1.383434	-0.048441	-0.575005
H333	H	1.716768	0.284892	-0.241672
H334	H	1.037607	-0.350028	-0.980238
H335	H	1.370941	-0.016695	-0.646905
H336	H	1.704274	0.316638	-0.313572
H337	H	0.987987	-0.340185	-0.911764
H338	H	1.321320	-0.006852	-0.578430
H339	H	1.654653	0.326482	-0.245097
C340	C	1.168769	-0.323031	-0.787728
C341	C	1.502102	0.010302	-0.454395
C342	C	1.835436	0.343636	-0.121061
H343	H	1.199629	-0.329723	-0.829111
H344	H	1.532962	0.003611	-0.495778
H345	H	1.866296	0.336944	-0.162445
H346	H	1.164835	-0.353681	-0.758477
H347	H	1.498169	-0.020348	-0.425144
H348	H	1.831502	0.312986	-0.091811
H349	H	1.189534	-0.295733	-0.758964
H350	H	1.522867	0.037600	-0.425631
H351	H	1.856200	0.370933	-0.092298
H352	H	0.634958	-0.319070	-0.278864
H353	H	0.968292	0.014264	0.054470
H354	H	1.301625	0.347597	0.387803
C355	C	1.037554	-0.348801	-0.786648
C356	C	1.370887	-0.015468	-0.453314
C357	C	1.704221	0.317865	-0.119981
H358	H	1.037430	-0.348947	-0.734164
H359	H	1.370764	-0.015614	-0.400831
H360	H	1.704097	0.317719	-0.067497
H361	H	1.052734	-0.382001	-0.804271
H362	H	1.386068	-0.048667	-0.470938
H363	H	1.719401	0.284666	-0.137604
H364	H	0.989226	-0.341401	-0.804193
H365	H	1.322559	-0.008068	-0.470860
H366	H	1.655892	0.325266	-0.137527
C367	C	0.500529	-0.277861	-0.492632
C368	C	0.833863	0.055472	-0.159298
C369	C	1.167196	0.388805	0.174035
H370	H	0.469980	-0.302950	-0.468938
H371	H	0.803314	0.030383	-0.135605
H372	H	1.136647	0.363717	0.197729
H373	H	0.541709	-0.294867	-0.514470
H374	H	0.875042	0.038466	-0.181137
H375	H	1.208376	0.371800	0.152196
H376	H	0.472992	-0.260405	-0.529838
H377	H	0.806326	0.072928	-0.196504
H378	H	1.139659	0.406261	0.136829
H379	H	1.155978	-0.450929	-0.271023
H380	H	1.489311	-0.117596	0.062311
H381	H	1.822644	0.215738	0.395644
C382	C	0.641678	-0.156266	-0.317778
C383	C	0.975012	0.177068	0.015555
C384	C	1.308345	0.510401	0.348889
H385	H	0.600888	-0.133582	-0.325320
H386	H	0.934221	0.199751	0.008013
H387	H	1.267555	0.533085	0.341347
H388	H	0.670958	-0.157395	-0.361309
H389	H	1.004292	0.175938	-0.027976
H390	H	1.337625	0.509271	0.305357
H391	H	0.670722	-0.143774	-0.277820
H392	H	1.004055	0.189559	0.055513
H393	H	1.337389	0.522892	0.388847
C394	C	1.169584	-0.557778	-0.257522
C395	C	1.502917	-0.224445	0.075812
C396	C	1.836250	0.108889	0.409145
H397	H	1.197784	-0.533688	-0.229338
H398	H	1.531118	-0.200354	0.103996
H399	H	1.864451	0.132979	0.437329
H400	H	1.201851	-0.579044	-0.285878
H401	H	1.535184	-0.245710	0.047456
H402	H	1.868517	0.087623	0.380789
H403	H	1.141280	-0.579112	-0.225225
H404	H	1.474613	-0.245779	0.108108
H405	H	1.807947	0.087555	0.441442
H406	H	0.506340	-0.198459	-0.454708
H407	H	0.839673	0.134875	-0.121374
H408	H	1.173006	0.468208	0.211959
C409	C	0.499824	-0.155991	-0.317819
C410	C	0.833157	0.177342	0.015514
C411	C	1.166491	0.510676	0.348848
H412	H	0.468858	-0.157145	-0.360150
H413	H	0.802191	0.176189	-0.026817
H414	H	1.135525	0.509522	0.306516
H415	H	0.540810	-0.133826	-0.327339
H416	H	0.874144	0.199508	0.005995
H417	H	1.207477	0.532841	0.339328
H418	H	0.472631	-0.142864	-0.276971
H419	H	0.805965	0.190469	0.056362
H420	H	1.139298	0.523803	0.389696
H421	H	1.147660	-0.319237	-0.921826
H422	H	1.480993	0.014097	-0.588493
H423	H	1.814327	0.347430	-0.255160
C424	C	0.971063	-0.181513	-0.927754
C425	C	1.304397	0.151820	-0.594421
C426	C	1.637730	0.485153	-0.261088
H427	H	0.923906	-0.172374	-0.908705
H428	H	1.257239	0.160959	-0.575372
H429	H	1.590573	0.494292	-0.242038
H430	H	0.969409	-0.181388	-0.980206
H431	H	1.302742	0.151946	-0.646872
H432	H	1.636075	0.485279	-0.313539
H433	H	1.006749	-0.156952	-0.911292
H434	H	1.340082	0.176381	-0.577959
H435	H	1.673416	0.509714	-0.244625
H436	H	0.972838	-0.198039	-0.793035
H437	H	1.306172	0.135294	-0.459702
H438	H	1.639505	0.468627	-0.126368
C439	C	0.641048	-0.181944	-0.456620
C440	C	0.974382	0.151389	-0.123287
C441	C	1.307715	0.484723	0.210047
H442	H	0.671367	-0.168410	-0.418322
H443	H	1.004701	0.164923	-0.084989
H444	H	1.338034	0.498257	0.248345
H445	H	0.599907	-0.159543	-0.463905
H446	H	0.933240	0.173791	-0.130571
H447	H	1.266573	0.507124	0.202762
H448	H	0.668850	-0.184104	-0.501036
H449	H	1.002184	0.149229	-0.167703
H450	H	1.335517	0.482562	0.165631
H451	H	0.634955	-0.264108	-0.479587
H452	H	0.968288	0.069225	-0.146254
H453	H	1.301621	0.402559	0.187080
H454	H	1.203508	-0.702097	-0.223756
H455	H	1.536842	-0.368763	0.109577
H456	H	1.870175	-0.035430	0.442911
C457	C	1.217102	-0.808942	-0.210251
C458	C	1.550435	-0.475608	0.123082
C459	C	1.883769	-0.142275	0.456415
H460	H	1.245303	-0.784850	-0.182070
H461	H	1.578637	-0.451517	0.151263
H462	H	1.911970	-0.118184	0.484597
H463	H	1.249368	-0.830210	-0.238604
H464	H	1.582701	-0.496877	0.094729
H465	H	1.916035	-0.163544	0.428063
H466	H	1.188797	-0.830273	-0.177952
H467	H	1.522130	-0.496939	0.155381
H468	H	1.855463	-0.163606	0.488715
H469	H	1.156245	-0.953275	-0.271102
H470	H	1.489578	-0.619942	0.062231
H471	H	1.822912	-0.286609	0.395564
H472	H	0.984321	-1.052357	-0.442798
H473	H	1.317654	-0.719024	-0.109465
H474	H	1.650987	-0.385690	0.223869
H475	H	0.984280	-0.953307	-0.442794
H476	H	1.317613	-0.619974	-0.109461
H477	H	1.650946	-0.286640	0.223873
C478	C	1.169832	-1.060138	-0.257603
C479	C	1.503165	-0.726805	0.075731
C480	C	1.836499	-0.393472	0.409064
H481	H	1.163061	-1.096568	-0.264391
H482	H	1.496394	-0.763235	0.068942
H483	H	1.829728	-0.429902	0.402275
H484	H	1.159019	-1.051223	-0.207832
H485	H	1.492353	-0.717890	0.125501
H486	H	1.825686	-0.384557	0.458835
H487	H	1.219584	-1.051156	-0.268491
H488	H	1.552918	-0.717822	0.064843
H489	H	1.886251	-0.384489	0.398176
