data_functionalizedCrystal
_audit_creation_method	'MofGen! by Chris Wilmer'
_symmetry_space_group_name_H-M	'P1'
_symmetry_Int_Tables_number	1
_symmetry_cell_setting	triclinic
loop_
_symmetry_equiv_pos_as_xyz
  x,y,z
_cell_length_a	17.000383
_cell_length_b	15.944545
_cell_length_c	15.021413
_cell_angle_alpha	89.990408
_cell_angle_beta	89.997113
_cell_angle_gamma	79.548238
loop_
_atom_site_label
_atom_site_type_symbol
_atom_site_fract_x
_atom_site_fract_y
_atom_site_fract_z
O1	O	0.102624	1.106930	0.073973
O2	O	0.602624	1.606930	0.573973
O3	O	0.115285	0.861443	0.073987
O4	O	0.615285	1.361443	0.573987
O5	O	-0.006911	0.999428	0.073976
O6	O	0.493089	1.499428	0.573976
O7	O	0.224820	0.968945	0.073984
O8	O	0.724820	1.468945	0.573984
O9	O	-0.006903	0.999443	-0.074089
O10	O	0.493097	1.499443	0.425911
O11	O	0.115293	0.861458	-0.074077
O12	O	0.615293	1.361458	0.425923
O13	O	0.102632	1.106944	-0.074091
O14	O	0.602632	1.606944	0.425909
Zn15	Zn	0.108964	0.984203	-0.097593
Zn16	Zn	0.608964	1.484203	0.402407
Zn17	Zn	0.108954	0.984184	0.097488
Zn18	Zn	0.608954	1.484184	0.597488
O19	O	0.224828	0.968959	-0.074080
O20	O	0.724828	1.468959	0.425920
C21	C	0.114764	0.830195	-0.000043
C22	C	0.614764	1.330195	0.499957
C23	C	0.113191	0.737065	-0.000038
C24	C	0.613191	1.237065	0.499962
C25	C	0.032748	0.472378	-0.000050
C26	C	0.532748	0.972378	0.499950
C27	C	0.071535	0.520100	-0.073054
C28	C	0.571535	1.020100	0.426946
C29	C	0.107581	0.401836	-0.000053
C30	C	0.607581	0.901836	0.499947
C31	C	0.071547	0.520065	0.072925
C32	C	0.571547	1.020065	0.572925
C33	C	0.110333	0.566546	-0.000044
C34	C	0.610333	1.066546	0.499956
C35	C	0.146348	0.448332	-0.073118
C36	C	0.646348	0.948332	0.426882
C37	C	0.146350	0.448294	0.072928
C38	C	0.646350	0.948294	0.572928
C39	C	0.185192	0.495979	-0.000094
C40	C	0.685192	0.995979	0.499906
C41	C	0.105993	0.306951	-0.000059
C42	C	0.605993	0.806951	0.499941
C43	C	0.111927	0.661428	-0.000045
C44	C	0.611927	1.161428	0.499955
C45	C	-0.036561	1.001072	-0.000056
C46	C	0.463439	1.501072	0.499944
C47	C	-0.124919	1.005941	-0.000053
C48	C	0.375081	1.505941	0.499947
C49	C	-0.625135	1.037375	-0.000051
C50	C	-0.125135	1.537375	0.499949
C51	C	-0.542112	1.032794	-0.000056
C52	C	-0.042112	1.532794	0.499944
C53	C	-0.491120	0.953285	-0.000048
C54	C	0.008880	1.453285	0.499952
C55	C	-0.523154	0.878351	-0.000043
C56	C	-0.023154	1.378351	0.499957
C57	C	-0.606176	0.882932	-0.000044
C58	C	-0.106176	1.382932	0.499956
C59	C	-0.239975	0.935588	-0.000049
C60	C	0.260025	1.435588	0.499951
C61	C	-0.156948	0.931012	-0.000045
C62	C	0.343052	1.431012	0.499955
C63	C	-0.175912	1.085457	-0.000061
C64	C	0.324088	1.585457	0.499939
C65	C	-0.258934	1.090031	-0.000057
C66	C	0.241066	1.590031	0.499943
C67	C	-0.290961	1.015097	-0.000056
C68	C	0.209039	1.515097	0.499944
C69	C	-0.406257	0.948600	-0.000050
C70	C	0.093743	1.448600	0.499950
C71	C	-0.375822	1.019782	-0.000060
C72	C	0.124178	1.519782	0.499940
C73	C	0.254478	0.967315	-0.000047
C74	C	0.754478	1.467315	0.499953
C75	C	0.342836	0.962447	-0.000044
C76	C	0.842836	1.462447	0.499956
N77	N	0.108970	0.984222	-0.230730
N78	N	0.608970	1.484222	0.269270
C79	C	0.103153	1.138192	-0.000059
C80	C	0.603153	1.638192	0.499941
C81	C	0.104726	1.231322	-0.000059
C82	C	0.604726	1.731322	0.499941
C83	C	0.052453	1.048039	-0.470395
C84	C	0.552453	1.548039	0.029605
C85	C	0.036993	0.973282	-0.529720
C86	C	0.536993	1.473282	-0.029720
C87	C	0.108960	0.984204	-0.412337
C88	C	0.608960	1.484204	0.087663
C89	C	0.124373	1.058946	-0.529754
C90	C	0.624373	1.558946	-0.029754
C91	C	0.108948	0.984193	-0.587761
C92	C	0.608948	1.484193	-0.087761
C93	C	0.093464	0.909411	-0.470356
C94	C	0.593464	1.409411	0.029644
C95	C	0.180875	0.995122	-0.470384
C96	C	0.680875	1.495122	0.029616
C97	C	0.165446	0.920308	-0.529683
C98	C	0.665446	1.420308	-0.029683
C99	C	0.108964	0.984211	-0.311280
C100	C	0.608964	1.484211	0.188720
C101	C	0.108944	0.984176	-0.688817
C102	C	0.608944	1.484176	-0.188817
N103	N	0.108941	0.984172	0.230626
N104	N	0.608941	1.484172	0.730626
H105	H	0.039934	0.551373	-0.134776
H106	H	0.539934	1.051373	0.365224
H107	H	-0.031700	0.461488	-0.000124
H108	H	0.468300	0.961488	0.499876
H109	H	-0.300447	1.154777	-0.000068
H110	H	0.199553	1.654777	0.499932
H111	H	-0.666648	1.102121	-0.000051
H112	H	-0.166648	1.602121	0.499949
H113	H	-0.481629	0.813612	-0.000041
H114	H	0.018371	1.313612	0.499959
H115	H	-0.516039	1.093809	-0.000064
H116	H	-0.016039	1.593809	0.499936
H117	H	-0.149826	1.146464	-0.000054
H118	H	0.350174	1.646464	0.499946
H119	H	0.177932	0.417194	-0.134903
H120	H	0.677932	0.917194	0.365097
H121	H	0.213229	0.866264	-0.555550
H122	H	0.713229	1.366264	-0.055550
H123	H	0.249689	0.506704	-0.000135
H124	H	0.749689	1.006704	0.499865
H125	H	-0.417344	1.084519	-0.000072
H126	H	0.082656	1.584519	0.499928
H127	H	-0.023829	0.964035	-0.555784
H128	H	0.476171	1.464035	-0.055784
H129	H	0.080353	0.846188	-0.444375
H130	H	0.580353	1.346188	0.055625
H131	H	0.177923	0.417008	0.134651
H132	H	0.677923	0.917008	0.634651
H133	H	-0.115431	0.866262	-0.000041
H134	H	0.384569	1.366262	0.499959
H135	H	-0.266040	0.874572	-0.000039
H136	H	0.233960	1.374572	0.499961
H137	H	0.137416	1.122159	-0.555845
H138	H	0.637416	1.622159	-0.055845
H139	H	0.241679	1.004394	-0.444301
H140	H	0.741679	1.504394	0.055699
H141	H	0.039927	0.551313	0.134641
H142	H	0.539927	1.051313	0.634641
H143	H	-0.632252	0.821917	-0.000045
H144	H	-0.132252	1.321917	0.499955
H145	H	-0.364730	0.883863	-0.000039
H146	H	0.135270	1.383863	0.499961
H147	H	0.004641	1.101972	-0.444362
H148	H	0.504641	1.601972	0.055638
