data_functionalizedCrystal
_audit_creation_method	'MofGen! by Chris Wilmer'
_symmetry_space_group_name_H-M	'P1'
_symmetry_Int_Tables_number	1
_symmetry_cell_setting	triclinic
loop_
_symmetry_equiv_pos_as_xyz
  x,y,z
_cell_length_a	10.686285
_cell_length_b	12.759401
_cell_length_c	12.759393
_cell_angle_alpha	90.022497
_cell_angle_beta	85.602987
_cell_angle_gamma	94.367583
loop_
_atom_site_label
_atom_site_type_symbol
_atom_site_fract_x
_atom_site_fract_y
_atom_site_fract_z
Zn1	Zn	-0.502261	-1.638402	-0.562049
Zn2	Zn	-0.002261	-1.138402	-0.062049
Zn3	Zn	-0.713300	-1.651796	-0.372917
Zn4	Zn	-0.213300	-1.151796	0.127083
Zn5	Zn	-0.502325	-1.462705	-0.386375
Zn6	Zn	-0.002325	-0.962705	0.113625
Zn7	Zn	-0.713209	-1.476190	-0.548555
Zn8	Zn	-0.213209	-0.976190	-0.048555
O9	O	-0.607774	-1.557273	-0.467474
O10	O	-0.107774	-1.057273	0.032526
O11	O	-0.530266	-1.787200	-0.536975
O12	O	-0.030266	-1.287200	-0.036975
O13	O	-0.685379	-1.626674	-0.227677
O14	O	-0.185379	-1.126674	0.272323
O15	O	-0.325740	-1.474763	-0.420958
O16	O	0.174260	-0.974763	0.079042
O17	O	-0.685316	-1.797041	-0.398020
O18	O	-0.185316	-1.297041	0.101980
O19	O	-0.325693	-1.603847	-0.550025
O20	O	0.174307	-1.103847	-0.050025
O21	O	-0.530376	-1.487750	-0.237564
O22	O	-0.030376	-0.987750	0.262436
O23	O	-0.530288	-1.317472	-0.407874
O24	O	-0.030288	-0.817472	0.092126
O25	O	-0.685161	-1.497745	-0.697370
O26	O	-0.185161	-0.997745	-0.197370
O27	O	-0.685224	-1.327379	-0.527027
O28	O	-0.185224	-0.827379	-0.027027
O29	O	-0.530178	-1.616922	-0.707284
O30	O	-0.030178	-1.116922	-0.207284
O31	O	-0.889864	-1.639750	-0.384936
O32	O	-0.389864	-1.139750	0.115064
O33	O	-0.889798	-1.510733	-0.513977
O34	O	-0.389798	-1.010733	-0.013977
C35	C	-0.607754	-1.284304	-0.467447
C36	C	-0.107754	-0.784304	0.032553
C37	C	-0.607776	-1.167529	-0.467458
C38	C	-0.107776	-0.667529	0.032542
C39	C	-0.935615	-1.578187	-0.446555
C40	C	-0.435615	-1.078187	0.053445
C41	C	-1.075867	-1.587230	-0.437640
C42	C	-0.575867	-1.087230	0.062360
C43	C	-0.688573	-1.117861	-0.529386
C44	C	-0.188573	-0.617861	-0.029386
C45	C	-0.688576	-1.008137	-0.529404
C46	C	-0.188576	-0.508137	-0.029404
C47	C	-0.526982	-0.997759	-0.405557
C48	C	-0.026982	-0.497759	0.094443
C49	C	-0.526974	-1.107480	-0.405546
C50	C	-0.026974	-0.607480	0.094454
C51	C	-0.278652	-1.536306	-0.488498
C52	C	0.221348	-1.036306	0.011502
C53	C	-0.138400	-1.527372	-0.497457
C54	C	0.361600	-1.027372	0.002543
C55	C	-0.607653	-1.557344	-0.741515
C56	C	-0.107653	-1.057344	-0.241515
C57	C	-0.607601	-1.557374	-0.858295
C58	C	-0.107601	-1.057374	-0.358295
C59	C	-0.607790	-0.831307	-0.467495
C60	C	-0.107790	-0.331307	0.032505
C61	C	-0.607788	-0.948084	-0.467487
C62	C	-0.107788	-0.448084	0.032513
C63	C	-0.526888	-1.619434	-0.918322
C64	C	-0.026888	-1.119434	-0.418322
C65	C	-0.526834	-1.619448	-1.028049
C66	C	-0.026834	-1.119448	-0.528049
C67	C	-0.688216	-1.495341	-1.017713
C68	C	-0.188216	-0.995341	-0.517713
C69	C	-0.688263	-1.495322	-0.907988
C70	C	-0.188263	-0.995322	-0.407988
C71	C	-0.607803	-1.557257	-0.194505
C72	C	-0.107803	-1.057257	0.305495
C73	C	-0.607500	-1.557408	-0.077748
C74	C	-0.107500	-1.057408	0.422252
H75	H	-0.754365	-1.166750	-0.579802
H76	H	-0.254365	-0.666750	-0.079802
N77	N	-0.439893	-1.686362	-0.864727
N78	N	0.060107	-1.186362	-0.364727
H79	H	-0.491205	-1.738310	-0.815944
H80	H	0.008795	-1.238310	-0.315944
H81	H	-0.388778	-1.725607	-0.919478
H82	H	0.111222	-1.225607	-0.419478
H83	H	-0.461171	-1.147920	-0.355117
H84	H	0.038829	-0.647920	0.144883
N85	N	-1.147076	-1.664282	-0.360764
N86	N	-0.647076	-1.164282	0.139236
H87	H	-1.085421	-1.702942	-0.322116
H88	H	-0.585421	-1.202942	0.177884
H89	H	-1.201839	-1.625031	-0.308659
H90	H	-0.701839	-1.125031	0.191341
N91	N	-0.775192	-1.428412	-1.071330
N92	N	-0.275192	-0.928412	-0.571330
H93	H	-0.833653	-1.474834	-1.113132
H94	H	-0.333653	-0.974834	-0.613132
H95	H	-0.826246	-1.389090	-1.016600
H96	H	-0.326246	-0.889090	-0.516600
N97	N	-1.067197	-1.450335	-0.574340
N98	N	-0.567197	-0.950335	-0.074340
H99	H	-1.128849	-1.411674	-0.612990
H100	H	-0.628849	-0.911674	-0.112990
H101	H	-1.012599	-1.398259	-0.534961
H102	H	-0.512599	-0.898259	-0.034961
H103	H	-0.461108	-1.669981	-1.076919
H104	H	0.038892	-1.169981	-0.576919
H105	H	-0.753988	-1.444778	-0.859113
H106	H	-0.253988	-0.944778	-0.359113
H107	H	-0.461198	-0.948854	-0.355148
H108	H	0.038802	-0.448854	0.144852
N109	N	-0.775727	-0.954566	-0.596192
N110	N	-0.275727	-0.454566	-0.096192
H111	H	-0.826912	-1.009259	-0.635407
H112	H	-0.326912	-0.509259	-0.135407
H113	H	-0.834057	-0.912743	-0.549622
H114	H	-0.334057	-0.412743	-0.049622
