data_functionalizedCrystal
_audit_creation_method	'MofGen! by Chris Wilmer'
_symmetry_space_group_name_H-M	'P1'
_symmetry_Int_Tables_number	1
_symmetry_cell_setting	triclinic
loop_
_symmetry_equiv_pos_as_xyz
  x,y,z
_cell_length_a	35.277629
_cell_length_b	35.288147
_cell_length_c	35.277611
_cell_angle_alpha	59.998082
_cell_angle_beta	89.998774
_cell_angle_gamma	60.000244
loop_
_atom_site_label
_atom_site_type_symbol
_atom_site_fract_x
_atom_site_fract_y
_atom_site_fract_z
O1	O	-0.260043	0.271233	-0.594403
O2	O	-0.204919	0.193634	-0.461657
O3	O	-0.204919	0.271232	-0.539277
O4	O	-0.260043	0.193634	-0.516783
O5	O	-0.267966	0.334259	-0.539277
O6	O	-0.267966	0.256660	-0.461657
O7	O	-0.323090	0.334260	-0.594403
Cu8	Cu	-0.301285	0.301215	-0.528030
Cu9	Cu	-0.226724	0.226679	-0.528030
O10	O	-0.323090	0.256661	-0.516783
C11	C	-0.163489	0.456605	-0.551584
C12	C	-0.186880	0.503374	-0.548365
C13	C	-0.117869	0.433910	-0.551905
C14	C	-0.163489	0.387983	-0.551584
C15	C	-0.186880	0.361380	-0.548365
C16	C	-0.117869	0.365392	-0.551905
C17	C	-0.094846	0.387983	-0.551584
C18	C	-0.044844	0.361381	-0.548365
C19	C	-0.186407	0.433910	-0.551905
C20	C	-0.004448	0.339888	-0.545763
C21	C	-0.205778	0.541158	-0.545763
C22	C	-0.205777	0.339887	-0.545763
C23	C	0.046232	0.312925	-0.542500
C24	C	-0.229486	0.588559	-0.542500
C25	C	-0.229486	0.312923	-0.542500
C26	C	-0.432020	0.466061	-0.966567
C27	C	-0.477640	0.511988	-0.989486
C28	C	-0.432021	0.466059	-0.897923
C29	C	-0.477641	0.511986	-0.920947
C30	C	-0.500663	0.534683	-0.966568
C31	C	-0.409102	0.443469	-0.920946
C32	C	-0.320829	0.342485	-1.008484
C33	C	-0.299071	0.317221	-1.030089
C34	C	-0.322526	0.338908	-1.075298
C35	C	-0.298939	0.311513	-1.098723
C36	C	-0.367739	0.385861	-1.098900
C37	C	-0.389492	0.411124	-1.077296
C38	C	-0.366035	0.389434	-1.032086
C39	C	-0.666194	0.687743	-1.077758
C40	C	-0.713071	0.731093	-1.099517
C41	C	-0.736589	0.752838	-1.076063
C42	C	-0.787417	0.799835	-1.099647
C43	C	-0.713225	0.731231	-1.030849
C44	C	-0.666348	0.687889	-1.009094
C45	C	-0.642835	0.666145	-1.032554
C46	C	-0.320835	0.342476	-0.732388
C47	C	-0.299080	0.317207	-0.685509
C48	C	-0.322536	0.338891	-0.661993
C49	C	-0.298951	0.311494	-0.611162
C50	C	-0.367747	0.385841	-0.685357
C51	C	-0.389500	0.411106	-0.732234
C52	C	-0.366038	0.389422	-0.755748
C53	C	-0.389627	0.416829	-1.008662
C54	C	-0.408431	0.438666	-0.989991
C55	C	-0.408434	0.438661	-0.847095
C56	C	-0.389631	0.416823	-0.806579
C57	C	-0.551491	0.581680	-0.990156
C58	C	-0.592006	0.619143	-1.008960
C59	C	-0.500373	0.061844	-0.493888
C60	C	-0.477351	0.015917	-0.493568
C61	C	-0.431730	0.061844	-0.493888
C62	C	-0.408812	0.015917	-0.493567
C63	C	-0.431731	-0.006778	-0.493888
C64	C	-0.477350	0.084435	-0.493568
C65	C	-0.665904	0.185424	-0.506316
C66	C	-0.712781	0.210688	-0.509830
C67	C	-0.736297	0.189003	-0.511594
C68	C	-0.787127	0.216399	-0.515412
C69	C	-0.712932	0.142050	-0.509840
C70	C	-0.666057	0.116785	-0.506320
C71	C	-0.642543	0.138474	-0.504558
C72	C	-0.389816	-0.159836	-0.506316
C73	C	-0.368211	-0.203186	-0.509829
C74	C	-0.323005	-0.224932	-0.511595
C75	C	-0.299578	-0.271929	-0.515412
C76	C	-0.299403	-0.203327	-0.509841
C77	C	-0.321005	-0.159985	-0.506320
C78	C	-0.366216	-0.138239	-0.504560
C79	C	-0.389813	0.185422	-0.506316
C80	C	-0.368209	0.210690	-0.509836
C81	C	-0.323002	0.189005	-0.511599
C82	C	-0.299576	0.216401	-0.515418
C83	C	-0.299402	0.142056	-0.509848
C84	C	-0.321008	0.116792	-0.506330
C85	C	-0.366213	0.138477	-0.504560
C86	C	-0.591716	0.111078	-0.500745
C87	C	-0.551201	0.089240	-0.497705
C88	C	-0.408306	0.089240	-0.497705
C89	C	-0.389635	0.111077	-0.500745
C90	C	-0.408308	-0.053775	-0.497705
C91	C	-0.389637	-0.091238	-0.500745
O92	O	0.196112	0.193636	-0.516783
O93	O	0.063368	0.271234	-0.539277
O94	O	0.140986	0.193635	-0.461657
O95	O	0.118494	0.271235	-0.594403
O96	O	0.140988	0.256662	-0.461657
O97	O	0.063370	0.334261	-0.539277
O98	O	0.196113	0.256663	-0.516783
Cu99	Cu	0.129742	0.301217	-0.528030
Cu100	Cu	0.129740	0.226681	-0.528030
O101	O	0.118495	0.334262	-0.594403
O102	O	-0.260048	0.712687	-0.516783
O103	O	-0.204920	0.602471	-0.539277
O104	O	-0.204922	0.602468	-0.461657
O105	O	-0.260046	0.712690	-0.594403
O106	O	-0.267968	0.602466	-0.461657
O107	O	-0.267966	0.602469	-0.539277
O108	O	-0.323094	0.712685	-0.516783
Cu109	Cu	-0.301286	0.657577	-0.528030
Cu110	Cu	-0.226728	0.657579	-0.528030
O111	O	-0.323092	0.712688	-0.594403
O112	O	-0.936924	0.925425	-1.130626
O113	O	-0.804178	0.815219	-1.075506
O114	O	-0.881790	0.815206	-1.075500
O115	O	-0.859312	0.925438	-1.130632
O116	O	-0.881789	0.815208	-1.138548
O117	O	-0.804177	0.815221	-1.138553
O118	O	-0.936923	0.925427	-1.193674
Cu119	Cu	-0.870550	0.870324	-1.171871
Cu120	Cu	-0.870551	0.870322	-1.097309
O121	O	-0.859311	0.925440	-1.193679
O122	O	-0.267959	0.256671	-1.193372
O123	O	-0.323082	0.334274	-1.138253
O124	O	-0.323078	0.256670	-1.138239
O125	O	-0.267963	0.334275	-1.193386
O126	O	-0.260029	0.193647	-1.075195
O127	O	-0.260032	0.271251	-1.075209
O128	O	-0.204910	0.193648	-1.130328
Cu129	Cu	-0.226714	0.226695	-1.097012
Cu130	Cu	-0.301278	0.301227	-1.171569
O131	O	-0.204913	0.271252	-1.130342
C132	C	-0.094838	0.071298	-0.234801
C133	C	-0.044836	0.024531	-0.211411
C134	C	-0.117860	0.093994	-0.211883
C135	C	-0.163483	0.139917	-0.303443
C136	C	-0.186876	0.166518	-0.353444
C137	C	-0.186401	0.162509	-0.280421
C138	C	-0.163481	0.139920	-0.234801
C139	C	-0.186872	0.166524	-0.211411
C140	C	-0.117862	0.093991	-0.280421
C141	C	-0.205770	0.188017	-0.192514
C142	C	-0.004439	-0.013251	-0.192514
C143	C	-0.205775	0.188009	-0.393840
C144	C	-0.229477	0.214982	-0.168807
C145	C	0.046241	-0.060652	-0.168807
C146	C	-0.229485	0.214970	-0.444519
C147	C	0.153294	0.139903	-0.234794
C148	C	0.150075	0.166503	-0.211401
C149	C	0.153613	0.093975	-0.211875
C150	C	0.153293	0.139906	-0.303438
C151	C	0.150074	0.166511	-0.353441
C152	C	0.153613	0.093979	-0.280416
C153	C	0.153292	0.071282	-0.234795
C154	C	0.150072	0.024513	-0.211404
C155	C	0.153615	0.162495	-0.280415
C156	C	0.147469	-0.013271	-0.192506
C157	C	0.147474	0.187995	-0.192503
C158	C	0.147473	0.188005	-0.393839
C159	C	0.144205	-0.060673	-0.168799
C160	C	0.144212	0.214956	-0.168793
C161	C	0.144210	0.214971	-0.444519
C162	C	-0.163496	0.387972	-0.234795
C163	C	-0.186887	0.361368	-0.211404
C164	C	-0.117876	0.365380	-0.211875
C165	C	-0.163494	0.456597	-0.303438
C166	C	-0.186884	0.503367	-0.353441
C167	C	-0.117874	0.433901	-0.280414
C168	C	-0.094853	0.387972	-0.234793
C169	C	-0.044852	0.361369	-0.211400
C170	C	-0.186413	0.433901	-0.280416
C171	C	-0.004455	0.339876	-0.192502
C172	C	-0.205785	0.339875	-0.192507
C173	C	-0.205781	0.541152	-0.393838
C174	C	0.046224	0.312912	-0.168792
C175	C	-0.229494	0.312910	-0.168800
C176	C	-0.229488	0.588556	-0.444519
C177	C	0.095604	0.534383	-0.966568
C178	C	0.095282	0.511688	-0.989486
C179	C	0.095602	0.465760	-0.897924
C180	C	0.095281	0.443170	-0.920946
C181	C	0.095602	0.465761	-0.966567
C182	C	0.095283	0.511688	-0.920947
C183	C	0.108034	0.687443	-1.008489
C184	C	0.111549	0.730793	-1.030095
C185	C	0.113313	0.752539	-1.075303
C186	C	0.117132	0.799536	-1.098730
C187	C	0.111559	0.730934	-1.098905
C188	C	0.108038	0.687592	-1.077300
C189	C	0.106276	0.665846	-1.032090
C190	C	0.108028	0.411435	-1.077755
C191	C	0.111541	0.386323	-1.099512
C192	C	0.113306	0.339366	-1.076057
C193	C	0.117121	0.312130	-1.099641
C194	C	0.111551	0.317524	-1.030843
C195	C	0.108030	0.342639	-1.009090
C196	C	0.106271	0.389597	-1.032551
C197	C	0.108029	0.411431	-0.732390
C198	C	0.111549	0.386315	-0.685510
C199	C	0.113312	0.339357	-0.661993
C200	C	0.117130	0.312121	-0.611162
C201	C	0.111559	0.317516	-0.685356
C202	C	0.108042	0.342632	-0.732234
C203	C	0.106273	0.389594	-0.755749
C204	C	0.102462	0.618844	-1.008665
C205	C	0.099421	0.581381	-0.989993
C206	C	0.099418	0.438528	-0.847095
C207	C	0.102459	0.416822	-0.806579
C208	C	0.099418	0.438529	-0.990154
C209	C	0.102458	0.416824	-1.008957
O210	O	0.118483	0.271218	-0.075190
O211	O	0.140989	0.193618	-0.130312
O212	O	0.063365	0.271214	-0.130318
O213	O	0.196106	0.193622	-0.075185
O214	O	0.063367	0.334243	-0.193365
O215	O	0.140990	0.256648	-0.193359
O216	O	0.118485	0.334247	-0.138237
Cu217	Cu	0.129737	0.301203	-0.171555
Cu218	Cu	0.129736	0.226663	-0.096995
O219	O	0.196108	0.256652	-0.138232
C220	C	-0.500386	1.061879	-0.966559
C221	C	-0.477370	1.084484	-0.989474
C222	C	-0.431744	0.993260	-0.897914
C223	C	-0.408833	1.015969	-0.920933
C224	C	-0.431754	1.061901	-0.966553
C225	C	-0.477360	1.015947	-0.920940
C226	C	-0.665901	1.116166	-1.008486
C227	C	-0.712775	1.141269	-1.030094
C228	C	-0.736294	1.188231	-1.075300
C229	C	-0.787120	1.215457	-1.098728
C230	C	-0.712935	1.210086	-1.098898
C231	C	-0.666063	1.184979	-1.077293
C232	C	-0.642546	1.138017	-1.032084
C233	C	-0.389864	1.185524	-1.077727
C234	C	-0.368266	1.210801	-1.099481
C235	C	-0.323065	1.189128	-1.076025
C236	C	-0.299646	1.216534	-1.099604
C237	C	-0.299460	1.142170	-1.030812
C238	C	-0.321054	1.116889	-1.009063
C239	C	-0.366261	1.138574	-1.032525
C240	C	-0.389816	0.840172	-0.732388
C241	C	-0.368210	0.796820	-0.685509
C242	C	-0.323007	0.775083	-0.661991
C243	C	-0.299579	0.728080	-0.611161
C244	C	-0.299414	0.796702	-0.685350
C245	C	-0.321021	0.840053	-0.732227
C246	C	-0.366222	0.861782	-0.755744
C247	C	-0.591722	1.110799	-1.008658
C248	C	-0.551210	1.089101	-0.989985
C249	C	-0.408319	0.946257	-0.847087
C250	C	-0.389646	0.908789	-0.806573
C251	C	-0.408339	1.089311	-0.990136
C252	C	-0.389674	1.111160	-1.008936
H253	H	-0.496125	0.530976	-0.902460
O254	O	0.154249	0.071373	-0.302526
C255	C	0.155126	0.075622	-0.372826
C256	C	0.154415	0.101271	-0.347840
H257	H	0.155250	0.099790	-0.409469
H258	H	0.187620	0.032732	-0.352820
H259	H	0.122996	0.075374	-0.374693
H260	H	0.186523	0.101557	-0.345966
H261	H	0.121900	0.144147	-0.367855
O262	O	0.154293	0.206542	-0.302496
C263	C	0.195218	0.244508	-0.340326
C264	C	0.194504	0.194592	-0.315335
H265	H	0.227731	0.234861	-0.350704
H266	H	0.163103	0.278768	-0.372716
H267	H	0.195363	0.256841	-0.316025
H268	H	0.194375	0.182211	-0.339598
H269	H	0.226617	0.160364	-0.282938
O270	O	-0.095804	0.071404	-0.302518
C271	C	-0.068542	0.083206	-0.367550
C272	C	-0.093520	0.108847	-0.342568
H273	H	-0.066696	0.113471	-0.399940
H274	H	-0.031895	0.046434	-0.343276
H275	H	-0.088575	0.070739	-0.377943
H276	H	-0.073525	0.121347	-0.332172
H277	H	-0.130168	0.145596	-0.366856
H278	H	-0.223886	0.452896	-0.552407
H279	H	-0.496122	0.530981	-1.026970
O280	O	-0.095822	0.071398	-0.167182
C281	C	-0.068458	0.083103	-0.113930
C282	C	-0.093440	0.108779	-0.164571
H283	H	-0.066515	0.113310	-0.111804
H284	H	-0.088487	0.070665	-0.091038
H285	H	-0.031844	0.046304	-0.101463
H286	H	-0.130054	0.145595	-0.177081
H287	H	-0.073376	0.121179	-0.187432
O288	O	0.154211	0.071391	-0.167163
C289	C	0.155152	0.075591	-0.101091
C290	C	0.154462	0.101230	-0.151728
H291	H	0.155365	0.099699	-0.088592
H292	H	0.123007	0.075378	-0.098943
H293	H	0.187630	0.032687	-0.078237
H294	H	0.122005	0.144144	-0.174612
H295	H	0.186628	0.101402	-0.153839
O296	O	-0.231147	0.456651	-0.302503
C297	C	-0.310050	0.535381	-0.340345
C298	C	-0.259410	0.509687	-0.315346
H299	H	-0.332916	0.578261	-0.350727
H300	H	-0.312194	0.535653	-0.372734
H301	H	-0.322534	0.511232	-0.316048
H302	H	-0.246893	0.533814	-0.339605
H303	H	-0.257295	0.509407	-0.282951
O304	O	-0.298057	1.071242	-0.965169
C305	C	-0.231202	0.979617	-0.914496
C306	C	-0.257192	1.031279	-0.964224
H307	H	-0.198163	0.947290	-0.913717
H308	H	-0.221805	0.988003	-0.889978
H309	H	-0.254420	0.965301	-0.902983
H310	H	-0.234000	1.045623	-0.975780
H311	H	-0.266596	1.022863	-0.988712
O312	O	-0.095764	0.321306	-0.167150
C313	C	-0.025467	0.256166	-0.101100
C314	C	-0.050457	0.306084	-0.151745
H315	H	0.011171	0.243837	-0.088632
H316	H	-0.045476	0.265758	-0.078204
H317	H	-0.023588	0.221925	-0.098982
H318	H	-0.052342	0.340348	-0.153908
H319	H	-0.030439	0.296449	-0.174618
H320	H	-0.426619	0.203078	-0.504868
O321	O	-0.364380	0.399391	-0.898966
C322	C	-0.298334	0.334227	-0.904084
C323	C	-0.348974	0.384152	-0.929036
H324	H	-0.285865	0.321885	-0.928382
H325	H	-0.275433	0.343814	-0.893673
H326	H	-0.296226	0.299995	-0.871708
H327	H	-0.351126	0.418406	-0.961428
H328	H	-0.371852	0.374521	-0.939413
H329	H	-0.301784	-0.142400	-0.504889
H330	H	-0.426671	1.203181	-1.096835
H331	H	-0.646757	1.077927	-0.971677
H332	H	0.094759	0.406216	-0.902461
H333	H	-0.647052	0.670044	-1.096864
O334	O	0.094689	0.534400	-1.034197
C335	C	0.093760	0.605589	-1.100267
C336	C	0.094442	0.579919	-1.049632
H337	H	0.093550	0.642402	-1.112765
H338	H	0.125906	0.575383	-1.102410
H339	H	0.061282	0.618004	-1.123125
H340	H	0.126898	0.567504	-1.026744
H341	H	0.062274	0.610141	-1.047526
O342	O	-0.095896	0.456640	-0.302524
C343	C	-0.101016	0.527792	-0.372823
C344	C	-0.125965	0.502106	-0.347838
H345	H	-0.125313	0.564549	-0.409467
H346	H	-0.090609	0.540278	-0.352818
H347	H	-0.068639	0.497538	-0.374689
H348	H	-0.158359	0.532332	-0.345966
H349	H	-0.136338	0.489609	-0.367852
H350	H	0.094769	0.530683	-0.902465
O351	O	-0.735830	0.752154	-1.143437
C352	C	-0.807988	0.818843	-1.207369
C353	C	-0.782267	0.795052	-1.157632
H354	H	-0.845540	0.853522	-1.218857
H355	H	-0.790230	0.834008	-1.231896
H356	H	-0.807242	0.786578	-1.208161
H357	H	-0.783005	0.827288	-1.156795
H358	H	-0.800033	0.779873	-1.133127
O359	O	-0.255518	0.121022	-0.511644
C360	C	-0.204761	0.095295	-0.552619
C361	C	-0.254479	0.119131	-0.550644
H362	H	-0.203903	0.093748	-0.584142
H363	H	-0.193359	0.121416	-0.555464
H364	H	-0.180204	0.053035	-0.519686
H365	H	-0.279070	0.161387	-0.583568
H366	H	-0.265842	0.092972	-0.547774
O367	O	-0.231099	0.206639	-0.302537
C368	C	-0.284313	0.298933	-0.367525
C369	C	-0.233680	0.248994	-0.342535
H370	H	-0.286416	0.333193	-0.399863
H371	H	-0.307203	0.289364	-0.377990
H372	H	-0.296802	0.311221	-0.343199
H373	H	-0.221149	0.236680	-0.366835
H374	H	-0.210821	0.258590	-0.332063
O375	O	0.113227	0.407614	-0.662891
C376	C	0.112869	0.478488	-0.667983
C377	C	0.110956	0.454428	-0.693657
H378	H	0.111044	0.516335	-0.692844
H379	H	0.082278	0.488863	-0.654592
H380	H	0.146739	0.448049	-0.637492
H381	H	0.077106	0.484841	-0.724166
H382	H	0.141571	0.444040	-0.707014
H383	H	-0.262269	0.278977	-0.666488
O384	O	0.106374	0.457009	-0.755265
C385	C	0.142312	0.500052	-0.797689
C386	C	0.144234	0.448407	-0.771803
H387	H	0.172923	0.493112	-0.811060
H388	H	0.108454	0.533918	-0.828202
H389	H	0.144151	0.511351	-0.772938
H390	H	0.142413	0.437059	-0.796518
H391	H	0.178089	0.414572	-0.741285
O392	O	0.106303	0.666404	-0.964580
C393	C	0.106687	0.670820	-0.898604
C394	C	0.108640	0.694709	-0.948331
H395	H	0.108586	0.693687	-0.885448
H396	H	0.072803	0.674225	-0.898598
H397	H	0.137261	0.626833	-0.874940
H398	H	0.078090	0.738703	-0.972024
H399	H	0.142543	0.691262	-0.948301
O400	O	-0.391192	0.256279	-0.511512
C401	C	-0.461726	0.321702	-0.511150
C402	C	-0.435748	0.270066	-0.509239
H403	H	-0.497757	0.332871	-0.509323
H404	H	-0.441511	0.314878	-0.480557
H405	H	-0.465149	0.355608	-0.545020
H406	H	-0.432318	0.236135	-0.475389
H407	H	-0.455973	0.276934	-0.539855
H408	H	0.112976	0.748381	-1.010877
O409	O	-0.735741	0.120975	-0.511611
C410	C	-0.760806	0.095300	-0.552612
C411	C	-0.734955	0.119166	-0.550654
H412	H	-0.760188	0.093840	-0.584180
H413	H	-0.743086	0.053014	-0.519713
H414	H	-0.798315	0.121415	-0.555406
H415	H	-0.697444	0.093093	-0.547876
H416	H	-0.752711	0.161459	-0.583553
H417	H	-0.647036	0.078555	-0.504889
O418	O	-0.391187	-0.224088	-0.511621
C419	C	-0.458062	-0.207889	-0.552587
C420	C	-0.432083	-0.184156	-0.550617
H421	H	-0.491136	-0.175613	-0.584107
H422	H	-0.434885	-0.242585	-0.555436
H423	H	-0.467411	-0.223035	-0.519652
H424	H	-0.422730	-0.168980	-0.583544
H425	H	-0.455274	-0.149483	-0.547744
O426	O	-0.499386	0.128470	-0.492873
C427	C	-0.537259	0.166476	-0.451989
C428	C	-0.512308	0.116565	-0.452710
H429	H	-0.547722	0.156872	-0.419525
H430	H	-0.512954	0.178788	-0.451784
H431	H	-0.569605	0.200734	-0.484149
H432	H	-0.479964	0.082273	-0.420556
H433	H	-0.536645	0.104299	-0.452939
O434	O	0.113297	0.752106	-1.142808
C435	C	0.118696	0.818966	-1.206598
C436	C	0.116741	0.795034	-1.156872
H437	H	0.121470	0.853684	-1.217988
H438	H	0.150246	0.786818	-1.207488
H439	H	0.085782	0.834134	-1.231146
H440	H	0.149632	0.779869	-1.132295
H441	H	0.085169	0.827199	-1.156020
O442	O	0.106360	0.666655	-1.100282
C443	C	0.106716	0.671387	-1.170819
C444	C	0.108629	0.695142	-1.144841
H445	H	0.108539	0.694415	-1.206853
H446	H	0.137308	0.627418	-1.150605
H447	H	0.072846	0.674763	-1.174238
H448	H	0.142478	0.691804	-1.141415
H449	H	0.078013	0.739100	-1.165065
H450	H	0.106592	0.449670	-1.096861
H451	H	0.112970	0.404109	-1.136324
H452	H	0.112982	0.279293	-1.011748
O453	O	-0.095761	0.456525	-0.552557
C454	C	-0.025473	0.452297	-0.553480
C455	C	-0.050456	0.426635	-0.552742
H456	H	0.011163	0.428137	-0.553620
H457	H	-0.045491	0.495187	-0.585978
H458	H	-0.023590	0.452547	-0.521352
H459	H	-0.052345	0.426347	-0.584847
H460	H	-0.030430	0.383760	-0.520223
H461	H	-0.301729	0.324814	-0.751530
H462	H	0.112992	0.279281	-0.666206
H463	H	0.106600	0.324854	-0.972278
O464	O	0.106323	0.321359	-0.754863
C465	C	0.106735	0.250451	-0.749757
C466	C	0.108672	0.274495	-0.724077
H467	H	0.108643	0.212552	-0.724874
H468	H	0.072853	0.280840	-0.780229
H469	H	0.137311	0.240143	-0.763174
H470	H	0.078120	0.284801	-0.710630
H471	H	0.142573	0.244092	-0.693627
O472	O	-0.095830	0.321252	-0.552443
C473	C	-0.068475	0.228946	-0.513298
C474	C	-0.093459	0.278904	-0.512647
H475	H	-0.066541	0.194692	-0.481121
H476	H	-0.088497	0.238490	-0.545752
H477	H	-0.031858	0.216664	-0.513490
H478	H	-0.130076	0.291212	-0.512437
H479	H	-0.073401	0.269333	-0.480196
H480	H	-0.371364	0.997004	-0.902433
H481	H	-0.732087	1.248320	-1.135706
H482	H	-0.495856	1.121441	-1.026958
H483	H	-0.301725	0.324820	-0.971673
H484	H	-0.495842	0.996947	-0.902459
H485	H	-0.732373	0.748939	-1.011753
H486	H	-0.387425	0.779224	-0.666492
H487	H	-0.426623	0.857868	-0.751531
O488	O	-0.735402	1.119989	-1.007095
C489	C	-0.730295	1.049081	-0.936574
C490	C	-0.704616	1.073128	-0.962566
H491	H	-0.705413	1.011184	-0.900571
H492	H	-0.760767	1.079470	-0.933091
H493	H	-0.743710	1.038770	-0.956837
H494	H	-0.691171	1.083437	-0.942325
H495	H	-0.674166	1.042724	-0.966054
O496	O	-0.643449	1.206291	-1.100272
C497	C	-0.648546	1.277178	-1.170803
C498	C	-0.674214	1.253105	-1.144829
H499	H	-0.673405	1.315025	-1.206836
H500	H	-0.635167	1.287557	-1.150586
H501	H	-0.618048	1.246746	-1.174226
H502	H	-0.704731	1.283511	-1.141401
H503	H	-0.687559	1.242714	-1.165057
H504	H	-0.426626	-0.142136	-0.504880
H505	H	-0.387488	1.249033	-1.136292
O506	O	-0.643128	0.206548	-0.504585
C507	C	-0.647930	0.277306	-0.504969
C508	C	-0.673778	0.253435	-0.506922
H509	H	-0.672702	0.315224	-0.506868
H510	H	-0.617451	0.246841	-0.471085
H511	H	-0.634505	0.287542	-0.535545
H512	H	-0.687234	0.243201	-0.476370
H513	H	-0.704234	0.283914	-0.540825
O514	O	-0.255499	-0.224500	-0.511576
C515	C	-0.191709	-0.291362	-0.516969
C516	C	-0.241436	-0.267428	-0.515017
H517	H	-0.180321	-0.326081	-0.519741
H518	H	-0.190817	-0.259216	-0.548519
H519	H	-0.167163	-0.306530	-0.484053
H520	H	-0.266011	-0.252263	-0.547910
H521	H	-0.242291	-0.299592	-0.483446
H522	H	-0.262653	1.124519	-1.011715
H523	H	-0.301806	0.857649	-0.751245
H524	H	-0.386831	0.403515	-1.135709
O525	O	-0.255163	0.271603	-1.007089
C526	C	-0.189345	0.206201	-0.936566
C527	C	-0.239073	0.257861	-0.962559
H528	H	-0.176318	0.195081	-0.900563
H529	H	-0.189277	0.172259	-0.933083
H530	H	-0.165613	0.213041	-0.956828
H531	H	-0.262834	0.251074	-0.942320
H532	H	-0.239104	0.291786	-0.966047
O533	O	-0.433417	0.456714	-1.100280
C534	C	-0.499219	0.522145	-1.170817
C535	C	-0.449479	0.470506	-1.144838
H536	H	-0.512217	0.533318	-1.206851
H537	H	-0.522988	0.515322	-1.150605
H538	H	-0.499263	0.556047	-1.174237
H539	H	-0.449391	0.436579	-1.141412
H540	H	-0.425731	0.477374	-1.165062
H541	H	-0.262619	0.779027	-0.666189
H542	H	-0.426312	0.449333	-0.751254
O543	O	-0.643728	0.666952	-0.965168
C544	C	-0.648817	0.671680	-0.899364
C545	C	-0.674491	0.695437	-0.949105
H546	H	-0.673675	0.694707	-0.886365
H547	H	-0.635429	0.627711	-0.875594
H548	H	-0.618325	0.675056	-0.899320
H549	H	-0.705002	0.692099	-0.949193
H550	H	-0.687846	0.739395	-0.972853
H551	H	-0.386847	0.403496	-0.666207
H552	H	-0.371329	-0.003075	-0.493052
H553	H	-0.495834	-0.003081	-0.493043
H554	H	-0.731801	0.248917	-0.511258
O555	O	-0.298031	0.071133	-0.504542
C556	C	-0.231152	-0.020476	-0.463584
C557	C	-0.257133	0.031194	-0.465548
H558	H	-0.198077	-0.052776	-0.432066
H559	H	-0.254326	-0.034855	-0.460736
H560	H	-0.221805	-0.012033	-0.496521
H561	H	-0.266484	0.022795	-0.432619
H562	H	-0.233945	0.045558	-0.468419
