data_functionalizedCrystal
_audit_creation_method	'MofGen! by Chris Wilmer'
_symmetry_space_group_name_H-M	'P1'
_symmetry_Int_Tables_number	1
_symmetry_cell_setting	triclinic
loop_
_symmetry_equiv_pos_as_xyz
  x,y,z
_cell_length_a	19.077105
_cell_length_b	11.169416
_cell_length_c	11.169409
_cell_angle_alpha	89.969126
_cell_angle_beta	87.679347
_cell_angle_gamma	87.706944
loop_
_atom_site_label
_atom_site_type_symbol
_atom_site_fract_x
_atom_site_fract_y
_atom_site_fract_z
Zn1	Zn	1.076092	-0.551539	-0.752302
Zn2	Zn	1.076028	-0.752275	-0.551620
Zn3	Zn	0.958386	-0.543533	-0.543570
Zn4	Zn	0.958390	-0.744103	-0.744203
O5	O	1.017224	-0.647862	-0.647924
O6	O	1.174576	-0.584937	-0.732440
O7	O	1.060393	-0.724654	-0.382600
O8	O	0.974025	-0.376647	-0.571279
O9	O	1.174528	-0.732417	-0.584999
O10	O	1.060504	-0.382529	-0.724634
O11	O	0.973962	-0.571293	-0.376686
O12	O	0.859894	-0.563369	-0.563426
O13	O	0.974033	-0.718489	-0.913229
O14	O	0.859898	-0.710727	-0.710830
O15	O	1.060508	-0.577013	-0.919180
O16	O	1.060397	-0.919139	-0.577146
O17	O	0.973970	-0.913135	-0.718635
C18	C	1.017196	-0.959685	-0.647913
C19	C	1.017249	-1.093089	-0.647952
C20	C	0.834358	-0.635293	-0.635376
C21	C	0.756127	-0.629945	-0.630036
C22	C	0.719394	-0.704270	-0.704153
C23	C	0.645888	-0.699229	-0.699141
C24	C	0.609116	-0.619868	-0.620007
C25	C	0.645854	-0.545536	-0.545888
C26	C	0.719359	-0.550571	-0.550906
C27	C	0.389278	-0.596562	-0.596788
C28	C	0.315768	-0.591534	-0.591773
C29	C	0.315807	-0.745226	-0.745029
C30	C	0.389313	-0.750260	-0.750035
C31	C	0.426045	-0.675923	-0.675920
N32	N	0.533981	-0.614716	-0.614880
N33	N	0.501179	-0.681070	-0.681054
C34	C	1.200804	-0.660481	-0.660521
C35	C	1.279035	-0.665859	-0.665889
C36	C	1.017278	-0.647733	-0.960970
C37	C	1.017301	-0.647678	-1.094372
C38	C	1.017271	-0.334823	-0.647962
C39	C	1.017291	-0.201425	-0.647979
C40	C	1.017211	-0.647908	-0.336098
C41	C	1.017324	-0.647634	-0.202706
H42	H	0.615983	-0.759753	-0.759494
C43	C	0.429108	-0.836461	-0.836077
C44	C	0.381205	-0.900454	-0.899935
C45	C	0.417838	-0.979866	-0.979214
H46	H	0.457767	-0.890770	-0.792165
H47	H	0.457787	-0.792602	-0.890470
H48	H	0.352538	-0.944309	-0.845550
H49	H	0.352545	-0.846176	-0.943872
H50	H	0.446517	-0.936008	-1.033607
H51	H	0.446496	-1.034167	-0.935293
H52	H	0.385342	-1.023287	-1.022560
C53	C	0.605893	-0.459565	-0.459824
C54	C	0.563680	-0.524540	-0.379880
C55	C	0.526866	-0.445385	-0.300570
H56	H	0.577179	-0.405337	-0.503726
H57	H	0.638276	-0.416035	-0.416330
H58	H	0.531302	-0.568049	-0.423369
H59	H	0.592377	-0.578764	-0.335950
H60	H	0.559249	-0.401856	-0.257076
H61	H	0.498156	-0.391161	-0.344482
H62	H	0.498225	-0.489459	-0.246312
H63	H	0.749329	-0.768897	-0.768589
C64	C	0.275799	-0.825782	-0.825447
C65	C	0.203556	-0.804369	-0.804143
C66	C	0.166680	-0.878543	-0.878221
H67	H	0.287750	-0.907270	-0.808644
H68	H	0.287831	-0.809116	-0.906962
H69	H	0.191529	-0.821044	-0.722647
H70	H	0.191584	-0.722896	-0.820954
H71	H	0.178712	-0.861877	-0.959735
H72	H	0.178636	-0.960027	-0.861411
H73	H	0.117660	-0.864017	-0.863784
H74	H	0.285830	-0.526896	-0.527339
H75	H	0.419176	-0.536041	-0.536429
H76	H	0.749266	-0.490042	-0.490559
