data_functionalizedCrystal
_audit_creation_method	'MofGen! by Chris Wilmer'
_symmetry_space_group_name_H-M	'P1'
_symmetry_Int_Tables_number	1
_symmetry_cell_setting	triclinic
loop_
_symmetry_equiv_pos_as_xyz
  x,y,z
_cell_length_a	25.639242
_cell_length_b	29.839131
_cell_length_c	25.639233
_cell_angle_alpha	89.980415
_cell_angle_beta	89.977834
_cell_angle_gamma	90.036947
loop_
_atom_site_label
_atom_site_type_symbol
_atom_site_fract_x
_atom_site_fract_y
_atom_site_fract_z
Zn1	Zn	0.799215	-0.178962	-0.295739
Zn2	Zn	0.799134	-0.254076	-0.208302
Zn3	Zn	0.711791	-0.178955	-0.208303
Zn4	Zn	0.711732	-0.254059	-0.295692
O5	O	0.755468	-0.216513	-0.252009
O6	O	0.872370	-0.188935	-0.284160
O7	O	0.787539	-0.244115	-0.135137
O8	O	0.723447	-0.116089	-0.219922
O9	O	0.872310	-0.244122	-0.219920
O10	O	0.787677	-0.116094	-0.284161
O11	O	0.723369	-0.188924	-0.135138
O12	O	0.638618	-0.188908	-0.219876
O13	O	0.723346	-0.244093	-0.368864
O14	O	0.638575	-0.244087	-0.284081
O15	O	0.787619	-0.188919	-0.368898
O16	O	0.787482	-0.316941	-0.219875
O17	O	0.723268	-0.316929	-0.284080
C18	C	0.619626	-0.216495	-0.251974
C19	C	0.561512	-0.216499	-0.251971
C20	C	0.201135	-0.245293	-0.285409
C21	C	0.146531	-0.245295	-0.285417
O22	O	0.118282	-0.269755	-0.313817
N23	N	0.119229	-0.216525	-0.252043
C24	C	0.146535	-0.187748	-0.218663
O25	O	0.118299	-0.163276	-0.190277
C26	C	0.201138	-0.187743	-0.218658
C27	C	0.228437	-0.216518	-0.252030
C28	C	0.228434	-0.274065	-0.318778
C29	C	0.283034	-0.274063	-0.318769
C30	C	0.310336	-0.245288	-0.285390
C31	C	0.283037	-0.216516	-0.252021
C32	C	0.228443	-0.158963	-0.185281
C33	C	0.283050	-0.158961	-0.185279
C34	C	0.310349	-0.187736	-0.218651
C35	C	0.364940	-0.187739	-0.218633
N36	N	0.392241	-0.216509	-0.252006
C37	C	0.364939	-0.245283	-0.285385
C38	C	0.031864	-0.187759	-0.218677
C39	C	-0.022738	-0.187766	-0.218679
C40	C	-0.022739	-0.245313	-0.285434
C41	C	0.031865	-0.245308	-0.285429
C42	C	0.059166	-0.216529	-0.252051
C43	C	0.479604	-0.245277	-0.285363
C44	C	0.534210	-0.245273	-0.285350
C45	C	0.534206	-0.187724	-0.218597
C46	C	0.479605	-0.187729	-0.218609
C47	C	0.452306	-0.216507	-0.251996
O48	O	0.393223	-0.163290	-0.190249
O49	O	0.393182	-0.269746	-0.313771
C50	C	0.755374	-0.333236	-0.251983
C51	C	0.755381	-0.383170	-0.251990
C52	C	0.788965	-0.692807	-0.218627
C53	C	0.789030	-0.880480	-0.218647
O54	O	0.817509	-0.904740	-0.190260
N55	N	0.755577	-0.903955	-0.252049
C56	C	0.722108	-0.880509	-0.285450
O57	O	0.693659	-0.904782	-0.313865
C58	C	0.722046	-0.692837	-0.285432
C59	C	0.755498	-0.669364	-0.252024
C60	C	0.822415	-0.669335	-0.185222
C61	C	0.822396	-0.622419	-0.185215
C62	C	0.788928	-0.598976	-0.218613
C63	C	0.755479	-0.622449	-0.252018
C64	C	0.688580	-0.669391	-0.318836
C65	C	0.688568	-0.622470	-0.318829
C66	C	0.722020	-0.598998	-0.285422
C67	C	0.721993	-0.552090	-0.285409
N68	N	0.755446	-0.528615	-0.252007
C69	C	0.788914	-0.552058	-0.218609
C70	C	0.722141	-0.979039	-0.285457
C71	C	0.722156	-1.025957	-0.285461
C72	C	0.789079	-1.025925	-0.218658
C73	C	0.789062	-0.979007	-0.218652
C74	C	0.755595	-0.955565	-0.252055
C75	C	0.788872	-0.453533	-0.218597
C76	C	0.788849	-0.406613	-0.218592
C77	C	0.721928	-0.406649	-0.285396
C78	C	0.721949	-0.453564	-0.285400
C79	C	0.755425	-0.477005	-0.251999
O80	O	0.693533	-0.527802	-0.313784
O81	O	0.817366	-0.527777	-0.190207
C82	C	0.788984	-0.739723	-0.218633
C83	C	0.755535	-0.763195	-0.252038
C84	C	0.722067	-0.739752	-0.285436
C85	C	0.755549	-0.810113	-0.252042
C86	C	0.789017	-0.833556	-0.218644
C87	C	0.822470	-0.810081	-0.185242
C88	C	0.822451	-0.763166	-0.185235
C89	C	0.688614	-0.763227	-0.318838
C90	C	0.688635	-0.810143	-0.318841
C91	C	0.722102	-0.833585	-0.285443
C92	C	0.891841	-0.216531	-0.252045
C93	C	0.949955	-0.216539	-0.252060
C94	C	0.755485	-0.216505	-0.388382
C95	C	0.755492	-0.216502	-0.446496
C96	C	0.755577	-0.099335	-0.252047
C97	C	0.755624	-0.049400	-0.252063
C98	C	0.789002	-0.187687	-0.806883
C99	C	0.789008	-0.187675	-0.861488
O100	O	0.817457	-0.163229	-0.889744
N101	N	0.755550	-0.216396	-0.888779
C102	C	0.722079	-0.245129	-0.861463
O103	O	0.693621	-0.269558	-0.889691
C104	C	0.722071	-0.245139	-0.806860
C105	C	0.755535	-0.216419	-0.779571
C106	C	0.822463	-0.158969	-0.779594
C107	C	0.822457	-0.158982	-0.724994
C108	C	0.788990	-0.187714	-0.697682
C109	C	0.755529	-0.216432	-0.724971
C110	C	0.688598	-0.273869	-0.779545
C111	C	0.688592	-0.273876	-0.724938
C112	C	0.722056	-0.245156	-0.697650
C113	C	0.722056	-0.245176	-0.643058
N114	N	0.755514	-0.216455	-0.615767
C115	C	0.788981	-0.187723	-0.643079
C116	C	0.722100	-0.245106	-0.976134
C117	C	0.722110	-0.245099	-1.030736
C118	C	0.789039	-0.187644	-1.030757
C119	C	0.789030	-0.187653	-0.976153
C120	C	0.755558	-0.216384	-0.948843
C121	C	0.788967	-0.187753	-0.528414
C122	C	0.788959	-0.187770	-0.473808
C123	C	0.722029	-0.245223	-0.473793
C124	C	0.722038	-0.245208	-0.528393
C125	C	0.755509	-0.216470	-0.555702
O126	O	0.693620	-0.269609	-0.614767
O127	O	0.817430	-0.163295	-0.614845
C128	C	0.755482	-0.216488	-0.116167
C129	C	0.755576	-0.216365	-0.058053
H130	H	0.556445	-0.164298	-0.191419
C131	C	0.651751	-0.596687	-0.355577
N132	N	0.624020	-0.577268	-0.383254
H133	H	0.816301	-0.959898	-0.191448
H134	H	0.816288	-0.164248	-1.053004
C135	C	0.825694	-0.479310	-0.181851
N136	N	0.853426	-0.498726	-0.154170
H137	H	0.849637	-0.603311	-0.158013
C138	C	0.651781	-0.695201	-0.355589
N139	N	0.624063	-0.714639	-0.383275
H140	H	0.457377	-0.164299	-0.191433
H141	H	0.694866	-0.268490	-1.052950
C142	C	0.685280	-0.276718	-0.946097
N143	N	0.657547	-0.300529	-0.923476
H144	H	0.816220	-0.164350	-0.550642
H145	H	0.694887	-0.959956	-0.312658
C146	C	0.651770	-0.305484	-0.694900
N147	N	0.624037	-0.329293	-0.672276
C148	C	0.651779	-0.305461	-0.809551
N149	N	0.624044	-0.329256	-0.832150
H150	H	0.849706	-0.135594	-0.702780
C151	C	0.825897	-1.051721	-0.181923
N152	N	0.853629	-1.071153	-0.154258
C153	C	0.825772	-0.156172	-0.443794
N154	N	0.853496	-0.132372	-0.421189
H155	H	0.694912	-1.045065	-0.312660
C156	C	0.685229	-0.276805	-0.558412
N157	N	0.657501	-0.300601	-0.581018
H158	H	0.206210	-0.297497	-0.345962
H159	H	-0.044960	-0.164338	-0.191499
H160	H	0.206226	-0.135532	-0.158104
H161	H	0.305276	-0.135522	-0.158101
C162	C	0.859232	-0.695115	-0.148475
N163	N	0.886962	-0.714529	-0.120792
C164	C	0.685215	-0.276824	-0.443739
N165	N	0.657482	-0.300623	-0.421101
C166	C	0.859284	-0.127361	-0.809629
N167	N	0.887024	-0.103554	-0.832247
C168	C	0.061888	-0.276960	-0.322143
N169	N	0.084499	-0.300801	-0.349799
C170	C	0.449583	-0.276937	-0.322087
N171	N	0.426971	-0.300786	-0.349744
H172	H	0.054089	-0.164324	-0.191493
H173	H	0.816089	-0.387503	-0.191385
C174	C	0.313055	-0.305716	-0.355484
N175	N	0.335664	-0.329558	-0.383141
C176	C	0.825839	-0.156056	-0.946141
N177	N	0.853564	-0.132254	-0.923538
H178	H	0.556434	-0.268707	-0.312526
H179	H	-0.044978	-0.268742	-0.312615
H180	H	0.694712	-0.472677	-0.312605
H181	H	0.694677	-0.387554	-0.312587
H182	H	0.849691	-0.744058	-0.158032
H183	H	0.849719	-0.829176	-0.158047
H184	H	0.661390	-0.829250	-0.346045
H185	H	0.661361	-0.744143	-0.346035
