data_functionalizedCrystal
_audit_creation_method	'MofGen! by Chris Wilmer'
_symmetry_space_group_name_H-M	'P1'
_symmetry_Int_Tables_number	1
_symmetry_cell_setting	triclinic
loop_
_symmetry_equiv_pos_as_xyz
  x,y,z
_cell_length_a	12.503572
_cell_length_b	9.065218
_cell_length_c	9.065218
_cell_angle_alpha	94.984115
_cell_angle_beta	86.422702
_cell_angle_gamma	86.429307
loop_
_atom_site_label
_atom_site_type_symbol
_atom_site_fract_x
_atom_site_fract_y
_atom_site_fract_z
O1	O	0.089319	-1.968796	0.207934
O2	O	0.422652	-1.635463	0.541268
O3	O	0.755985	-1.302130	0.874601
O4	O	0.089320	-1.539511	0.225681
O5	O	0.422653	-1.206178	0.559014
O6	O	0.755987	-0.872845	0.892347
O7	O	0.089317	-1.763027	0.002165
O8	O	0.422650	-1.429694	0.335499
O9	O	0.755984	-1.096360	0.668832
O10	O	0.089322	-1.745281	0.431450
O11	O	0.422655	-1.411947	0.764783
O12	O	0.755988	-1.078614	1.098117
O13	O	-0.089325	-1.746218	0.019003
O14	O	0.244009	-1.412884	0.352337
O15	O	0.577342	-1.079551	0.685670
O16	O	-0.089322	-1.522702	0.242519
O17	O	0.244011	-1.189369	0.575852
O18	O	0.577345	-0.856035	0.909185
O19	O	-0.089323	-1.951987	0.224772
O20	O	0.244010	-1.618654	0.558106
O21	O	0.577344	-1.285320	0.891439
Cu22	Cu	-0.105634	-1.735810	0.235183
Cu23	Cu	0.227700	-1.402476	0.568516
Cu24	Cu	0.561033	-1.069143	0.901850
Cu25	Cu	0.105631	-1.755689	0.215270
Cu26	Cu	0.438964	-1.422355	0.548604
Cu27	Cu	0.772297	-1.089022	0.881937
O28	O	-0.089320	-1.728471	0.448288
O29	O	0.244013	-1.395138	0.781621
O30	O	0.577346	-1.061805	1.114954
C31	C	-0.000001	-1.476120	0.232394
C32	C	0.333333	-1.142787	0.565728
C33	C	0.666666	-0.809454	0.899061
C34	C	-0.000000	-1.312277	0.227294
C35	C	0.333333	-0.978944	0.560628
C36	C	0.666666	-0.645611	0.893961
N37	N	-0.254226	-1.721839	0.249188
N38	N	0.079107	-1.388505	0.582521
N39	N	0.412441	-1.055172	0.915854
C40	C	-0.000002	-1.752917	-0.044402
C41	C	0.333331	-1.419583	0.288931
C42	C	0.666665	-1.086250	0.622264
C43	C	0.000003	-1.747818	-0.208246
C44	C	0.333336	-1.414484	0.125088
C45	C	0.666670	-1.081151	0.458421
C46	C	-0.473341	-1.701287	0.269802
C47	C	-0.140008	-1.367953	0.603135
C48	C	0.193326	-1.034620	0.936468
C49	C	-0.526669	-1.790218	0.180645
C50	C	-0.193336	-1.456885	0.513978
C51	C	0.139998	-1.123552	0.847311
C52	C	-0.648592	-1.778783	0.192115
C53	C	-0.315259	-1.445450	0.525448
C54	C	0.018075	-1.112116	0.858781
C55	C	-0.351407	-1.712720	0.258334
C56	C	-0.018073	-1.379387	0.591667
C57	C	0.315260	-1.046054	0.925000
N58	N	0.254223	-1.769671	0.201254
N59	N	0.587556	-1.436338	0.534587
N60	N	0.920890	-1.103005	0.867921
C61	C	0.000000	-2.015378	0.218059
C62	C	0.333333	-1.682045	0.551392
C63	C	0.666667	-1.348712	0.884725
C64	C	0.000007	-2.179222	0.223158
C65	C	0.333340	-1.845889	0.556491
C66	C	0.666673	-1.512555	0.889824
C67	C	0.000001	-1.738582	0.494855
C68	C	0.333335	-1.405248	0.828189
C69	C	0.666668	-1.071915	1.161522
C70	C	0.000003	-1.743682	0.658698
C71	C	0.333337	-1.410348	0.992031
C72	C	0.666670	-1.077015	1.325365
H73	H	-0.480757	-1.874944	0.095702
H74	H	-0.147424	-1.541611	0.429035
H75	H	0.185909	-1.208277	0.762368
F76	F	-0.533345	-1.590554	0.380827
F77	F	-0.200012	-1.257220	0.714160
F78	F	0.133322	-0.923887	1.047493
