data_functionalizedCrystal
_audit_creation_method	'MofGen! by Chris Wilmer'
_symmetry_space_group_name_H-M	'P1'
_symmetry_Int_Tables_number	1
_symmetry_cell_setting	triclinic
loop_
_symmetry_equiv_pos_as_xyz
  x,y,z
_cell_length_a	14.519731
_cell_length_b	10.540514
_cell_length_c	12.996460
_cell_angle_alpha	89.997025
_cell_angle_beta	89.994327
_cell_angle_gamma	84.102006
loop_
_atom_site_label
_atom_site_type_symbol
_atom_site_fract_x
_atom_site_fract_y
_atom_site_fract_z
O1	O	1.224743	0.166531	-0.085562
O2	O	0.956373	0.186098	-0.085562
O3	O	1.096693	-0.008456	-0.085563
O4	O	1.084423	0.361085	-0.085561
O5	O	1.096678	-0.008467	0.085570
O6	O	0.956358	0.186087	0.085571
O7	O	1.224728	0.166520	0.085572
Cu8	Cu	1.090542	0.176303	0.101198
Cu9	Cu	1.090559	0.176316	-0.101188
O10	O	1.084408	0.361074	0.085573
C11	C	0.922001	0.185176	0.000004
C12	C	0.819606	0.182429	0.000004
C13	C	1.095770	-0.055756	0.000001
C14	C	1.093032	-0.196678	-0.000007
C15	C	0.736450	0.180196	-0.000000
C16	C	0.632127	0.177407	-0.000001
C17	C	0.548976	0.175193	-0.000001
C18	C	0.444646	0.172404	-0.000003
C19	C	1.193387	-0.268397	-0.000004
C20	C	1.190572	-0.414982	0.000392
C21	C	1.038446	-0.388468	0.097537
C22	C	1.041972	-0.241964	0.097612
C23	C	1.040503	-0.241538	-0.097006
C24	C	1.039535	-0.388507	-0.098281
C25	C	1.259100	0.167442	0.000003
C26	C	1.361495	0.170190	-0.000003
C27	C	1.085331	0.408374	0.000006
C28	C	1.088069	0.549296	0.000007
N29	N	1.090536	0.176293	0.243545
N30	N	1.090572	0.176315	-0.243535
C31	C	1.090558	0.176317	0.663359
C32	C	1.090549	0.176314	0.546554
C33	C	1.090548	0.176306	0.453456
C34	C	1.090538	0.176302	0.336643
H35	H	1.229603	-0.458037	-0.069505
H36	H	1.233524	-0.238489	0.069782
H37	H	0.968253	-0.193214	0.101771
H38	H	1.072480	-0.431373	0.170397
Cl39	Cl	1.256254	-0.224974	-0.107974
Cl40	Cl	1.250553	-0.480032	0.108972
H41	H	1.078201	-0.214109	0.170797
Cl42	Cl	0.922208	-0.421741	0.102717
H43	H	1.073914	-0.210375	-0.170954
H44	H	1.075800	-0.429866	-0.170435
Cl45	Cl	0.924216	-0.424816	-0.107897
H46	H	0.966476	-0.193550	-0.097939
