data_functionalizedCrystal
_audit_creation_method	'MofGen! by Chris Wilmer'
_symmetry_space_group_name_H-M	'P1'
_symmetry_Int_Tables_number	1
_symmetry_cell_setting	triclinic
loop_
_symmetry_equiv_pos_as_xyz
  x,y,z
_cell_length_a	10.967926
_cell_length_b	10.967819
_cell_length_c	15.186229
_cell_angle_alpha	77.867327
_cell_angle_beta	102.130615
_cell_angle_gamma	97.833052
loop_
_atom_site_label
_atom_site_type_symbol
_atom_site_fract_x
_atom_site_fract_y
_atom_site_fract_z
O1	O	-0.175053	1.657215	-0.351275
O2	O	-0.191800	1.294057	-0.298708
O3	O	-0.001851	1.484011	-0.298707
O4	O	-0.365003	1.467261	-0.351276
O5	O	-0.001848	1.483998	-0.152247
O6	O	-0.191798	1.294044	-0.152248
O7	O	-0.175050	1.657202	-0.204815
Zn8	Zn	-0.183424	1.475621	-0.155278
Zn9	Zn	-0.183427	1.475638	-0.348245
O10	O	-0.365000	1.467248	-0.204816
C11	C	-0.190579	1.247550	-0.218236
C12	C	-0.186929	1.108993	-0.196657
C13	C	-0.181544	0.904028	-0.240622
C14	C	-0.185307	1.047234	-0.262919
C15	C	-0.411501	1.468474	-0.285288
C16	C	-0.550055	1.472123	-0.306868
C17	C	-0.611826	1.473744	-0.240619
C18	C	-0.755028	1.477515	-0.262921
C19	C	0.044650	1.482785	-0.218237
C20	C	0.183204	1.479135	-0.196663
C21	C	-0.176272	1.703709	-0.285289
C22	C	-0.179922	1.842265	-0.306874
N23	N	-0.183420	1.475618	-0.023584
N24	N	-0.183421	1.475650	-0.479938
C25	C	-0.099340	1.559759	0.202130
C26	C	-0.099337	1.559763	0.294319
C27	C	-0.267505	1.391500	0.294342
C28	C	-0.267501	1.391491	0.202156
C29	C	-0.183420	1.475628	0.156051
C30	C	-0.183421	1.475641	0.340426
C31	C	-0.183419	1.475644	0.440382
C32	C	-0.183420	1.475623	0.056089
H33	H	-0.185539	1.055856	-0.123424
C34	C	-0.826798	1.479416	-0.361859
N35	N	-0.880856	1.480852	-0.436378
H36	H	-0.558693	1.472332	-0.167388
H37	H	-0.186712	1.100371	-0.336153
C38	C	-0.360058	1.298993	0.151448
N39	N	-0.429788	1.229344	0.113250
C40	C	-0.621829	1.474024	-0.405801
N41	N	-0.675888	1.475460	-0.480320
H42	H	-0.181327	0.895407	-0.380103
H43	H	-0.030874	1.628266	0.164594
H44	H	-0.763670	1.477721	-0.123427
H45	H	-0.030869	1.628269	0.331835
C46	C	-0.359988	1.298953	0.345066
N47	N	-0.429647	1.229243	0.383271
H48	H	-0.180153	0.850884	-0.167394
