data_functionalizedCrystal
_audit_creation_method	'MofGen! by Chris Wilmer'
_symmetry_space_group_name_H-M	'P1'
_symmetry_Int_Tables_number	1
_symmetry_cell_setting	triclinic
loop_
_symmetry_equiv_pos_as_xyz
  x,y,z
_cell_length_a	16.109301
_cell_length_b	14.472310
_cell_length_c	16.109301
_cell_angle_alpha	89.997506
_cell_angle_beta	96.538519
_cell_angle_gamma	90.010306
loop_
_atom_site_label
_atom_site_type_symbol
_atom_site_fract_x
_atom_site_fract_y
_atom_site_fract_z
O1	O	1.103143	0.076785	-0.106861
O2	O	1.436476	0.410119	0.226472
O3	O	1.769809	0.743452	0.559805
O4	O	0.861081	0.076801	-0.120161
O5	O	1.194414	0.410134	0.213173
O6	O	1.527747	0.743467	0.546506
O7	O	0.988761	0.076783	0.007520
O8	O	1.322095	0.410117	0.340853
O9	O	1.655428	0.743450	0.674187
O10	O	0.975462	0.076803	-0.234542
O11	O	1.308795	0.410136	0.098791
O12	O	1.642129	0.743469	0.432125
O13	O	0.988729	-0.076899	0.007512
O14	O	1.322062	0.256434	0.340846
O15	O	1.655395	0.589768	0.674179
O16	O	0.861048	-0.076881	-0.120168
O17	O	1.194381	0.256452	0.213165
O18	O	1.527715	0.589785	0.546498
O19	O	1.103110	-0.076897	-0.106869
O20	O	1.436443	0.256437	0.226464
O21	O	1.769777	0.589770	0.559798
Cu22	Cu	0.982076	-0.090921	-0.113519
Cu23	Cu	1.315409	0.242412	0.219814
Cu24	Cu	1.648743	0.575745	0.553147
Cu25	Cu	0.982115	0.090825	-0.113510
Cu26	Cu	1.315448	0.424159	0.219823
Cu27	Cu	1.648781	0.757492	0.553156
O28	O	0.975429	-0.076879	-0.234550
O29	O	1.308763	0.256454	0.098784
O30	O	1.642096	0.589787	0.432117
C31	C	0.830090	-0.000039	-0.119626
C32	C	1.163423	0.333295	0.213708
C33	C	1.496756	0.666628	0.547041
C34	C	0.737794	-0.000033	-0.118011
C35	C	1.071128	0.333300	0.215323
C36	C	1.404461	0.666633	0.548656
N37	N	0.982055	-0.218752	-0.113525
N38	N	1.315388	0.114581	0.219809
N39	N	1.648721	0.447914	0.553142
C40	C	0.515522	-0.000038	-0.190018
C41	C	0.848855	0.333295	0.143315
C42	C	1.182188	0.666629	0.476648
C43	C	0.428801	-0.000044	-0.188494
C44	C	0.762135	0.333289	0.144839
C45	C	1.095468	0.666623	0.478172
C46	C	0.448676	-0.000053	-0.037006
C47	C	0.782009	0.333281	0.296328
C48	C	1.115342	0.666614	0.629661
C49	C	0.535394	-0.000053	-0.038530
C50	C	0.868728	0.333280	0.294803
C51	C	1.202061	0.666614	0.628136
C52	C	0.568815	-0.000041	-0.115039
C53	C	0.902148	0.333292	0.218294
C54	C	1.235482	0.666625	0.551627
C55	C	0.395376	-0.000047	-0.111990
C56	C	0.728709	0.333287	0.221343
C57	C	1.062042	0.666620	0.554676
C58	C	0.301350	-0.000053	-0.110337
C59	C	0.634683	0.333280	0.222996
C60	C	0.968016	0.666613	0.556329
C61	C	0.662847	-0.000036	-0.116693
C62	C	0.996180	0.333297	0.216641
C63	C	1.329514	0.666630	0.549974
C64	C	0.982114	-0.592844	-0.113507
C65	C	1.315447	-0.259510	0.219826
C66	C	1.648780	0.073823	0.553160
C67	C	0.913565	-0.553668	-0.181597
C68	C	1.246899	-0.220335	0.151736
C69	C	1.580232	0.112998	0.485069
C70	C	0.913723	-0.446580	-0.181846
C71	C	1.247057	-0.113247	0.151488
C72	C	1.580390	0.220086	0.484821
C73	C	0.982084	-0.407252	-0.113516
C74	C	1.315417	-0.073919	0.219817
C75	C	1.648750	0.259414	0.553151
C76	C	1.068828	-0.446093	-0.132440
C77	C	1.402161	-0.112760	0.200894
C78	C	1.735494	0.220574	0.534227
C79	C	1.068443	-0.553215	-0.132924
C80	C	1.401776	-0.219881	0.200410
C81	C	1.735109	0.113452	0.533743
C82	C	0.964692	-0.553379	-0.026291
C83	C	1.298025	-0.220045	0.307042
C84	C	1.631359	0.113288	0.640376
C85	C	0.962702	-0.446251	-0.026873
C86	C	1.296036	-0.112918	0.306460
C87	C	1.629369	0.220416	0.639794
C88	C	0.982072	-0.302364	-0.113519
C89	C	1.315406	0.030969	0.219814
C90	C	1.648739	0.364302	0.553147
C91	C	0.982131	-0.697732	-0.113506
C92	C	1.315464	-0.364398	0.219828
C93	C	1.648798	-0.031065	0.553161
C94	C	1.134101	-0.000055	-0.107404
C95	C	1.467435	0.333278	0.225929
C96	C	1.800768	0.666611	0.559263
C97	C	1.226397	-0.000055	-0.109019
C98	C	1.559730	0.333279	0.224314
C99	C	1.893063	0.666612	0.557648
N100	N	0.982143	0.218656	-0.113498
N101	N	1.315476	0.551990	0.219835
N102	N	1.648809	0.885323	0.553168
C103	C	0.988206	-0.000058	0.038491
C104	C	1.321540	0.333275	0.371824
C105	C	1.654873	0.666608	0.705158
C106	C	0.986591	-0.000059	0.130786
C107	C	1.319925	0.333274	0.464120
C108	C	1.653258	0.666607	0.797453
C109	C	0.975984	-0.000036	-0.265521
C110	C	1.309318	0.333298	0.067813
C111	C	1.642651	0.666631	0.401146
C112	C	0.977600	-0.000028	-0.357816
C113	C	1.310933	0.333305	-0.024483
C114	C	1.644266	0.666638	0.308851
C115	C	1.058599	-0.000049	0.353059
C116	C	1.391932	0.333284	0.686392
C117	C	1.725266	0.666617	1.019725
C118	C	1.057075	-0.000042	0.439779
C119	C	1.390408	0.333292	0.773112
C120	C	1.723742	0.666625	1.106446
C121	C	0.905586	-0.000036	0.419905
C122	C	1.238919	0.333298	0.753238
C123	C	1.572253	0.666631	1.086571
C124	C	0.907111	-0.000037	0.333186
C125	C	1.240444	0.333296	0.666519
C126	C	1.573778	0.666630	0.999853
C127	C	0.983620	-0.000048	0.299766
C128	C	1.316953	0.333285	0.633099
C129	C	1.650287	0.666618	0.966432
C130	C	0.980571	-0.000040	0.473205
C131	C	1.313904	0.333294	0.806538
C132	C	1.647238	0.666627	1.139871
C133	C	0.978918	-0.000031	0.567231
C134	C	1.312251	0.333302	0.900564
C135	C	1.645585	0.666635	1.233897
C136	C	0.985273	-0.000055	0.205734
C137	C	1.318607	0.333278	0.539067
C138	C	1.651940	0.666612	0.872400
H139	H	0.542730	-0.000035	-0.252317
H140	H	0.876063	0.333298	0.081017
H141	H	1.209396	0.666631	0.414350
H142	H	1.009388	-0.419484	0.026169
H143	H	1.342722	-0.086151	0.359502
H144	H	1.676055	0.247183	0.692836
H145	H	0.898892	-0.420866	-0.012511
H146	H	1.232226	-0.087533	0.320822
H147	H	1.565559	0.245801	0.654156
H148	H	1.083799	-0.578186	-0.196529
H149	H	1.417132	-0.244853	0.136804
H150	H	1.750465	0.088481	0.470137
H151	H	1.014681	-0.578712	0.024379
H152	H	1.348015	-0.245378	0.357713
H153	H	1.681348	0.087955	0.691046
H154	H	0.385413	-0.000043	-0.249550
H155	H	0.718746	0.333290	0.083783
H156	H	1.052080	0.666623	0.417117
H157	H	0.421454	-0.000068	0.025285
H158	H	0.754787	0.333265	0.358619
H159	H	1.088121	0.666599	0.691952
H160	H	0.578788	-0.000058	0.022530
H161	H	0.912122	0.333275	0.355864
H162	H	1.245455	0.666608	0.689197
H163	H	1.084551	-0.419252	-0.195320
H164	H	1.417885	-0.085918	0.138013
H165	H	1.751218	0.247415	0.471347
H166	H	0.849244	-0.420321	-0.170574
H167	H	1.182577	-0.086988	0.162759
H168	H	1.515911	0.246345	0.496092
H169	H	0.848877	-0.579453	-0.170512
H170	H	1.182210	-0.246120	0.162822
H171	H	1.515544	0.087213	0.496155
H172	H	0.924534	-0.580573	-0.245955
H173	H	1.257868	-0.247240	0.087378
H174	H	1.591201	0.086093	0.420711
H175	H	0.924846	-0.420942	-0.246568
H176	H	1.258180	-0.087608	0.086766
H177	H	1.591513	0.245725	0.420099
H178	H	1.121043	-0.579127	-0.085284
H179	H	1.454377	-0.245794	0.248049
H180	H	1.787710	0.087539	0.581382
H181	H	1.121055	-0.420617	-0.084164
H182	H	1.454388	-0.087283	0.249169
H183	H	1.787721	0.246050	0.582502
H184	H	0.902813	-0.580444	-0.008088
H185	H	1.236146	-0.247111	0.325245
H186	H	1.569480	0.086223	0.658578
H187	H	1.120897	-0.000057	0.325851
H188	H	1.454231	0.333277	0.659184
H189	H	1.787564	0.666610	0.992518
H190	H	0.846050	-0.000033	0.289792
H191	H	1.179384	0.333300	0.623126
H192	H	1.512717	0.666633	0.956459
H193	H	1.118130	-0.000040	0.483168
H194	H	1.451464	0.333293	0.816501
H195	H	1.784797	0.666626	1.149834
H196	H	0.843295	-0.000028	0.447127
H197	H	1.176628	0.333305	0.780460
H198	H	1.509962	0.666638	1.113793
