data_functionalizedCrystal
_audit_creation_method	'MofGen! by Chris Wilmer'
_symmetry_space_group_name_H-M	'P1'
_symmetry_Int_Tables_number	1
_symmetry_cell_setting	triclinic
loop_
_symmetry_equiv_pos_as_xyz
  x,y,z
_cell_length_a	6.817900
_cell_length_b	11.353959
_cell_length_c	14.858572
_cell_angle_alpha	104.864136
_cell_angle_beta	104.524003
_cell_angle_gamma	107.526623
loop_
_atom_site_label
_atom_site_type_symbol
_atom_site_fract_x
_atom_site_fract_y
_atom_site_fract_z
V1	V	-4.080045	-0.181811	-0.319400
O2	O	-4.023802	0.007890	-0.283163
O3	O	-4.072306	-0.359685	-0.346220
O4	O	-4.036129	-0.179386	-0.445469
O5	O	-4.060229	-0.173658	-0.183227
V6	V	-4.557823	-0.159077	-0.299589
O7	O	-4.353905	-0.231680	-0.362857
O8	O	-4.734161	-0.109207	-0.256133
O9	O	-4.342356	0.018798	-0.272770
O10	O	-4.731464	-0.348777	-0.335827
O11	O	-4.695036	-0.167229	-0.435763
O12	O	-4.378533	-0.161501	-0.173520
C13	C	-3.927053	-0.403036	-0.348665
C14	C	-4.002042	-0.548453	-0.371434
C15	C	-3.989874	-0.595303	-0.297737
C16	C	-4.067378	-0.745598	-0.321268
C17	C	-3.880904	-0.173044	-0.475266
C18	C	-3.926550	-0.172238	-0.578519
C19	C	-4.093616	-0.169294	-0.956610
C20	C	-4.047125	-0.170113	-0.851413
C21	C	-4.010085	-0.170767	-0.767568
C22	C	-3.963590	-0.171584	-0.662364
C23	C	-4.150952	0.062142	-0.270323
C24	C	-4.055202	0.207558	-0.247561
C25	C	-4.197101	-0.167847	-0.143719
C26	C	-4.130692	-0.168646	-0.040465
H27	H	-3.922089	-0.524144	-0.217223
Br28	Br	-4.180397	-0.864186	-0.455476
H29	H	-3.987414	-0.721289	-0.167040
Br30	Br	-4.115060	-0.667045	-0.505637
