data_functionalizedCrystal
_audit_creation_method	'MofGen! by Chris Wilmer'
_symmetry_space_group_name_H-M	'P1'
_symmetry_Int_Tables_number	1
_symmetry_cell_setting	triclinic
loop_
_symmetry_equiv_pos_as_xyz
  x,y,z
_cell_length_a	6.817900
_cell_length_b	16.418049
_cell_length_c	16.418042
_cell_angle_alpha	95.404742
_cell_angle_beta	103.389568
_cell_angle_gamma	103.389670
loop_
_atom_site_label
_atom_site_type_symbol
_atom_site_fract_x
_atom_site_fract_y
_atom_site_fract_z
V1	V	-4.025096	-0.116568	-0.261450
O2	O	-4.013114	0.004901	-0.256170
O3	O	-3.976170	-0.230460	-0.259954
O4	O	-3.976177	-0.115082	-0.375345
O5	O	-4.013107	-0.111276	-0.139981
V6	V	-4.508860	-0.102002	-0.246886
O7	O	-4.285827	-0.148518	-0.293398
O8	O	-4.698326	-0.070052	-0.214938
O9	O	-4.334579	0.011890	-0.248382
O10	O	-4.638239	-0.223471	-0.252167
O11	O	-4.638246	-0.107294	-0.368356
O12	O	-4.334573	-0.103488	-0.132992
C13	C	-3.821060	-0.258215	-0.255905
C14	C	-3.862341	-0.351326	-0.255441
C15	C	-4.139359	-0.569823	-0.258578
C16	C	-4.178135	-0.657312	-0.258150
C17	C	-3.813956	-0.648746	-0.249763
C18	C	-3.775186	-0.561260	-0.250198
C19	C	-3.937892	-0.521801	-0.254602
C20	C	-4.015438	-0.696774	-0.253738
C21	C	-4.057479	-0.791633	-0.253273
C22	C	-3.895850	-0.426936	-0.255068
C23	C	-3.821067	-0.111038	-0.403096
C24	C	-3.862350	-0.110577	-0.496207
C25	C	-4.139358	-0.113692	-0.714701
C26	C	-4.178129	-0.113252	-0.802187
C27	C	-3.813954	-0.104873	-0.793623
C28	C	-3.775183	-0.105308	-0.706138
C29	C	-3.937894	-0.109722	-0.666680
C30	C	-4.015436	-0.108847	-0.841652
C31	C	-4.057471	-0.108369	-0.936508
C32	C	-3.895856	-0.110198	-0.571817
C33	C	-4.153032	0.039641	-0.252429
C34	C	-4.090989	0.132751	-0.252899
C35	C	-4.153025	-0.107535	-0.105236
C36	C	-4.090980	-0.107992	-0.012124
H37	H	-3.611122	-0.522159	-0.246963
H38	H	-3.681490	-0.680884	-0.246177
N39	N	-4.395395	-0.709119	-0.262402
H40	H	-4.446724	-0.753886	-0.314586
H41	H	-4.492452	-0.670797	-0.265213
H42	H	-3.681487	-0.101281	-0.825761
N43	N	-4.314842	-0.527263	-0.263335
H44	H	-4.448356	-0.570964	-0.265793
H45	H	-4.333772	-0.499421	-0.315885
N46	N	-4.314841	-0.118450	-0.672140
H47	H	-4.448350	-0.120897	-0.715840
H48	H	-4.279584	-0.066627	-0.627758
N49	N	-4.395416	-0.117524	-0.853981
H50	H	-4.492598	-0.120383	-0.815706
H51	H	-4.446546	-0.169709	-0.898741
N52	N	-3.557871	-0.101026	-0.654344
H53	H	-3.560766	-0.153203	-0.626121
H54	H	-3.506692	-0.048802	-0.609633
