data_functionalizedCrystal
_audit_creation_method	'MofGen! by Chris Wilmer'
_symmetry_space_group_name_H-M	'P1'
_symmetry_Int_Tables_number	1
_symmetry_cell_setting	triclinic
loop_
_symmetry_equiv_pos_as_xyz
  x,y,z
_cell_length_a	14.044220
_cell_length_b	16.992695
_cell_length_c	16.053802
_cell_angle_alpha	92.747646
_cell_angle_beta	87.189254
_cell_angle_gamma	91.928550
loop_
_atom_site_label
_atom_site_type_symbol
_atom_site_fract_x
_atom_site_fract_y
_atom_site_fract_z
O1	O	1.275865	0.187010	-0.069318
O2	O	1.775865	0.687010	0.430682
O3	O	0.999378	0.180152	-0.069340
O4	O	1.499378	0.680152	0.430660
O5	O	1.136514	0.069361	-0.069337
O6	O	1.636514	0.569361	0.430663
O7	O	1.138730	0.297802	-0.069322
O8	O	1.638730	0.797802	0.430678
O9	O	1.128963	0.075431	0.069522
O10	O	1.628963	0.575431	0.569522
O11	O	0.991827	0.186222	0.069518
O12	O	1.491827	0.686222	0.569518
O13	O	1.268315	0.193081	0.069540
O14	O	1.768315	0.693081	0.569540
Zn15	Zn	1.128872	0.190616	0.091576
Zn16	Zn	1.628872	0.690616	0.591576
Zn17	Zn	1.138820	0.182617	-0.091376
Zn18	Zn	1.638820	0.682617	0.408624
O19	O	1.131179	0.303872	0.069537
O20	O	1.631179	0.803872	0.569537
C21	C	0.960061	0.180185	0.000086
C22	C	1.460061	0.680185	0.500086
C23	C	0.854157	0.171231	0.000077
C24	C	1.354157	0.671231	0.500077
N25	N	1.122090	0.196075	0.216436
N26	N	1.622090	0.696075	0.716436
C27	C	1.129887	0.042984	0.000089
C28	C	1.629887	0.542984	0.500089
C29	C	1.121379	-0.044656	0.000077
C30	C	1.621379	0.455344	0.500077
C31	C	0.660255	0.154861	0.000093
C32	C	1.160255	0.654861	0.500093
C33	C	0.607432	0.218368	0.000100
C34	C	1.107432	0.718368	0.500100
C35	C	0.499538	0.209260	0.000109
C36	C	0.999538	0.709260	0.500109
C37	C	0.768159	0.163968	0.000084
C38	C	1.268159	0.663968	0.500084
C39	C	1.307632	0.193048	0.000112
C40	C	1.807632	0.693048	0.500112
C41	C	1.413536	0.202002	0.000116
C42	C	1.913536	0.702002	0.500116
C43	C	1.137806	0.330249	0.000109
C44	C	1.637806	0.830249	0.500109
C45	C	1.146314	0.417889	0.000116
C46	C	1.646314	0.917889	0.500116
C47	C	1.064218	0.462387	0.000109
C48	C	1.564218	0.962387	0.500109
C49	C	1.072219	0.544732	0.000099
C50	C	1.572219	1.044732	0.500099
C51	C	1.162317	0.582579	0.000102
C52	C	1.662317	1.082579	0.500102
C53	C	1.244419	0.538075	0.000106
C54	C	1.744419	1.038075	0.500106
C55	C	1.236418	0.455730	0.000110
C56	C	1.736418	0.955730	0.500110
C57	C	1.195480	0.828495	0.000085
C58	C	1.695480	1.328495	0.500085
C59	C	1.203475	0.910846	0.000084
C60	C	1.703475	1.410846	0.500084
C61	C	1.031274	0.917498	0.000075
C62	C	1.531274	1.417498	0.500075
C63	C	1.023280	0.835152	0.000084
C64	C	1.523280	1.335152	0.500084
C65	C	1.105383	0.790655	0.000084
C66	C	1.605383	1.290655	0.500084
N67	N	1.170497	0.666749	0.000094
N68	N	1.670497	1.166749	0.500094
N69	N	1.097202	0.706485	0.000085
N70	N	1.597202	1.206485	0.500085
N71	N	1.145610	0.177153	-0.216236
N72	N	1.645610	0.677153	0.283764
C73	C	1.180466	0.148953	0.260132
C74	C	1.680466	0.648953	0.760132
C75	C	1.175731	0.152779	0.347538
C76	C	1.675731	0.652779	0.847538
C77	C	1.112624	0.203732	0.391248
C78	C	1.612624	0.703732	0.891248
C79	C	1.054242	0.250856	0.347546
C80	C	1.554242	0.750856	0.847546
C81	C	1.058973	0.247025	0.260141
C82	C	1.558973	0.747025	0.760141
C83	C	1.091958	0.220445	0.652657
C84	C	1.591958	0.720445	1.152657
C85	C	1.087234	0.224275	0.740068
C86	C	1.587234	0.724275	1.240068
C87	C	1.208722	0.126196	0.740054
C88	C	1.708722	0.626196	1.240054
C89	C	1.213451	0.122373	0.652648
C90	C	1.713451	0.622373	1.152648
C91	C	1.155065	0.169494	0.608954
C92	C	1.655065	0.669494	1.108954
N93	N	1.107785	0.207647	0.480592
N94	N	1.607785	0.707647	0.980592
N95	N	1.159900	0.165575	0.519612
N96	N	1.659900	0.665575	1.019612
H97	H	0.624449	0.093656	0.000093
H98	H	1.124449	0.593656	0.500093
H99	H	1.011436	0.285395	0.224565
H100	H	1.511436	0.785395	0.724565
C101	C	0.981912	0.593677	0.000101
C102	C	1.481912	1.093677	0.500101
H103	H	0.927107	0.559344	0.000112
H104	H	1.427107	1.059344	0.500112
H105	H	0.984076	0.623818	-0.048323
H106	H	1.484076	1.123818	0.451677
H107	H	0.978829	0.628059	0.048529
H108	H	1.478829	1.128059	0.548529
C109	C	1.249882	0.092902	0.212059
C110	C	1.749882	0.592902	0.712059
H111	H	1.283962	0.065381	0.250604
H112	H	1.783962	0.565381	0.750604
H113	H	1.293542	0.122555	0.177954
H114	H	1.793542	0.622555	0.677954
H115	H	1.214957	0.056177	0.177971
H116	H	1.714957	0.556177	0.677971
H117	H	1.256255	0.087832	0.775638
H118	H	1.756255	0.587832	1.275638
C119	C	1.239954	0.100953	0.395600
C120	C	1.739954	0.600953	0.895600
H121	H	1.278225	0.070068	0.357050
H122	H	1.778225	0.570068	0.857050
H123	H	1.201356	0.067215	0.429705
H124	H	1.701356	0.567215	0.929705
H125	H	1.279921	0.133609	0.429687
H126	H	1.779921	0.633609	0.929687
C127	C	0.924172	0.793526	0.000080
C128	C	1.424172	1.293526	0.500080
H129	H	0.876423	0.831822	0.000069
H130	H	1.376423	1.331822	0.500069
H131	H	0.914843	0.763665	0.048505
H132	H	1.414843	1.263665	0.548505
H133	H	0.920104	0.759420	-0.048347
H134	H	1.420104	1.259420	0.451653
C135	C	0.655794	0.301059	0.000094
C136	C	1.155794	0.801059	0.500094
H137	H	0.608461	0.339707	0.000104
H138	H	1.108461	0.839707	0.500104
H139	H	0.696998	0.305122	-0.048332
H140	H	1.196998	0.805122	0.451668
H141	H	0.691752	0.309365	0.048520
H142	H	1.191752	0.809365	0.548520
C143	C	1.343525	0.579704	0.000111
C144	C	1.843525	1.079704	0.500111
H145	H	1.336533	0.635119	0.000117
H146	H	1.836533	1.135119	0.500117
H147	H	1.380225	0.562721	-0.048308
H148	H	1.880225	1.062721	0.451692
H149	H	1.374953	0.566961	0.048544
H150	H	1.874953	1.066961	0.548544
C151	C	1.302585	0.952479	0.000082
C152	C	1.802585	1.452479	0.500082
H153	H	1.295587	1.007894	0.000089
H154	H	1.795587	1.507894	0.500089
H155	H	1.339281	0.935499	-0.048341
H156	H	1.839281	1.435499	0.451659
H157	H	1.334022	0.939739	0.048512
H158	H	1.834022	1.439739	0.548512
C159	C	0.984829	0.306905	0.395625
C160	C	1.484829	0.806905	0.895625
H161	H	0.990378	0.302445	0.453938
H162	H	1.490378	0.802445	0.953938
H163	H	0.921358	0.293240	0.381311
H164	H	1.421358	0.793240	0.881311
H165	H	0.999943	0.359618	0.381293
H166	H	1.499943	0.859618	0.881293
C167	C	0.940967	0.966442	0.000066
C168	C	1.440967	1.466442	0.500066
H169	H	0.886163	0.932108	0.000069
H170	H	1.386163	1.432108	0.500069
H171	H	0.943141	0.996581	-0.048359
H172	H	1.443141	1.496581	0.451641
H173	H	0.937873	1.000824	0.048493
H174	H	1.437873	1.500824	0.548493
H175	H	0.990850	0.431579	0.000116
H176	H	1.490850	0.931579	0.500116
H177	H	1.262334	0.792276	0.000091
H178	H	1.762334	1.292276	0.500091
H179	H	1.303270	0.419500	0.000112
H180	H	1.803270	0.919500	0.500112
C181	C	1.282862	0.066320	0.604573
C182	C	1.782862	0.566320	1.104573
H183	H	1.316945	0.038797	0.643116
H184	H	1.816945	0.538797	1.143116
H185	H	1.326520	0.095973	0.570468
H186	H	1.826520	0.595973	1.070468
H187	H	1.247935	0.029595	0.570485
H188	H	1.747935	0.529595	1.070485
H189	H	1.035843	0.265770	0.775653
H190	H	1.535843	0.765770	1.275653
H191	H	1.044420	0.258814	0.617088
H192	H	1.544420	0.758814	1.117088
