data_functionalizedCrystal
_audit_creation_method	'MofGen! by Chris Wilmer'
_symmetry_space_group_name_H-M	'P1'
_symmetry_Int_Tables_number	1
_symmetry_cell_setting	triclinic
loop_
_symmetry_equiv_pos_as_xyz
  x,y,z
_cell_length_a	12.811449
_cell_length_b	12.837942
_cell_length_c	11.295483
_cell_angle_alpha	94.530417
_cell_angle_beta	99.539705
_cell_angle_gamma	90.588229
loop_
_atom_site_label
_atom_site_type_symbol
_atom_site_fract_x
_atom_site_fract_y
_atom_site_fract_z
O1	O	-1.422916	0.121944	-0.252690
O2	O	-0.922916	0.621944	0.247310
O3	O	-1.116721	0.139454	-0.219625
O4	O	-0.616721	0.639454	0.280375
O5	O	-1.263028	-0.020181	-0.235417
O6	O	-0.763028	0.479819	0.264583
O7	O	-1.276608	0.281579	-0.236898
O8	O	-0.776608	0.781579	0.263102
O9	O	-1.250176	-0.006181	-0.035979
O10	O	-0.750176	0.493819	0.464021
O11	O	-1.103869	0.153454	-0.020187
O12	O	-0.603869	0.653454	0.479813
O13	O	-1.410063	0.135944	-0.053252
O14	O	-0.910063	0.635944	0.446748
Cu15	Cu	-1.255792	0.145977	-0.018509
Cu16	Cu	-0.755792	0.645977	0.481491
Cu17	Cu	-1.270992	0.129421	-0.254368
Cu18	Cu	-0.770992	0.629421	0.245632
O19	O	-1.263756	0.295579	-0.037460
O20	O	-0.763756	0.795579	0.462540
C21	C	-1.070831	0.145902	-0.115644
C22	C	-0.570831	0.645902	0.384356
C23	C	-0.953241	0.144245	-0.102946
C24	C	-0.453241	0.644245	0.397054
C25	C	-0.780497	0.149540	0.023658
C26	C	-0.280497	0.649540	0.523658
C27	C	-0.890983	0.151098	0.011732
C28	C	-0.390983	0.651098	0.511732
C29	C	-0.905004	0.135836	-0.205707
C30	C	-0.405004	0.635836	0.294293
C31	C	-0.794518	0.134277	-0.193781
C32	C	-0.294518	0.634277	0.306219
C33	C	-0.732268	0.141128	-0.079095
C34	C	-0.232268	0.641128	0.420905
C35	C	-0.621780	0.139563	-0.067170
C36	C	-0.121780	0.639563	0.432830
C37	C	-0.635803	0.124308	-0.284608
C38	C	-0.135803	0.624308	0.215392
C39	C	-0.746289	0.125866	-0.296534
C40	C	-0.246289	0.625866	0.203466
C41	C	-1.252015	-0.051786	-0.135203
C42	C	-0.752015	0.448214	0.364797
C43	C	-1.238334	-0.166818	-0.133728
C44	C	-0.738334	0.333182	0.366272
C45	C	-1.402809	-0.408321	-0.151513
C46	C	-0.902809	0.091679	0.348487
C47	C	-1.389959	-0.516404	-0.150128
C48	C	-0.889959	-0.016404	0.349872
C49	C	-1.199786	-0.491072	-0.129580
C50	C	-0.699786	0.008928	0.370420
C51	C	-1.212636	-0.382988	-0.130965
C52	C	-0.712636	0.117012	0.369035
C53	C	-1.314150	-0.341617	-0.141931
C54	C	-0.814150	0.158383	0.358069
C55	C	-1.326999	-0.233531	-0.143308
C56	C	-0.826999	0.266469	0.356692
C57	C	-1.136827	-0.208201	-0.122768
C58	C	-0.636827	0.291799	0.377232
C59	C	-1.123977	-0.316284	-0.121382
C60	C	-0.623977	0.183716	0.378618
C61	C	-0.455953	0.129496	-0.157232
C62	C	0.044047	0.629496	0.342768
C63	C	-0.573543	0.131154	-0.169931
C64	C	-0.073543	0.631154	0.330069
C65	C	-1.274769	0.327184	-0.137676
C66	C	-0.774769	0.827184	0.362324
C67	C	-1.288451	0.442216	-0.139159
C68	C	-0.788451	0.942216	0.360841
N69	N	-1.245109	0.157621	0.147380
N70	N	-0.745109	0.657621	0.647380
N71	N	-1.281682	0.117769	-0.420258
N72	N	-0.781682	0.617769	0.079742
C73	C	-1.358579	0.033891	0.384422
C74	C	-0.858579	0.533891	0.884422
C75	C	-1.350514	0.042698	0.509957
C76	C	-0.850514	0.542698	1.009957
C77	C	-1.220909	0.184036	0.523986
C78	C	-0.720909	0.684036	1.023986
C79	C	-1.228974	0.175229	0.398452
C80	C	-0.728974	0.675229	0.898452
C81	C	-1.297813	0.100155	0.328674
C82	C	-0.797813	0.600155	0.828674
C83	C	-1.305883	0.091354	0.203137
C84	C	-0.805883	0.591354	0.703137
C85	C	-1.176273	0.232687	0.217169
C86	C	-0.676273	0.732687	0.717169
C87	C	-1.168208	0.241493	0.342703
C88	C	-0.668208	0.741493	0.842703
H89	H	-0.729811	0.155124	0.117040
H90	H	-0.229811	0.655124	0.617040
H91	H	-1.409656	-0.199848	-0.152232
H92	H	-0.909656	0.300152	0.347768
H93	H	-0.571097	0.145148	0.026213
H94	H	-0.071097	0.645148	0.526213
H95	H	-1.126796	0.286646	0.171764
H96	H	-0.626796	0.786646	0.671764
H97	H	-0.796988	0.120292	-0.389908
H98	H	-0.296988	0.620292	0.110092
C99	C	-1.514466	-0.362808	-0.163565
C100	C	-1.014466	0.137192	0.336435
H101	H	-1.565429	-0.418016	-0.169077
H102	H	-1.065429	0.081984	0.330923
H103	H	-1.518946	-0.316291	-0.094984
H104	H	-1.018946	0.183709	0.405016
H105	H	-1.527914	-0.326051	-0.234090
H106	H	-1.027914	0.173949	0.265910
C107	C	-1.487483	-0.589775	-0.160662
C108	C	-0.987483	-0.089775	0.339338
H109	H	-1.549777	-0.549651	-0.167382
H110	H	-1.049777	-0.049651	0.332618
H111	H	-1.490904	-0.637346	-0.230095
H112	H	-0.990904	-0.137346	0.269905
H113	H	-1.481942	-0.627583	-0.090990
H114	H	-0.981942	-0.127583	0.409010
C115	C	-1.417360	-0.030190	0.571276
C116	C	-0.917360	0.469810	1.071276
H117	H	-1.459515	-0.076155	0.511735
H118	H	-0.959515	0.423845	1.011735
H119	H	-1.371829	-0.069785	0.624837
H120	H	-0.871829	0.430215	1.124837
H121	H	-1.461995	0.010407	0.615072
H122	H	-0.961995	0.510407	1.115072
C123	C	-1.092496	0.324072	0.419463
C124	C	-0.592496	0.824072	0.919463
H125	H	-1.096400	0.319832	0.502211
H126	H	-0.596400	0.819832	1.002211
H127	H	-1.022110	0.311580	0.406652
H128	H	-0.522110	0.811580	0.906652
H129	H	-1.112288	0.391759	0.396891
H130	H	-0.612288	0.891759	0.896891
H131	H	-0.930246	0.157951	0.095405
H132	H	-0.430246	0.657951	0.595405
H133	H	-1.041327	-0.349985	-0.112459
H134	H	-0.541327	0.150015	0.387541
C135	C	-1.088133	-0.536594	-0.117520
C136	C	-0.588133	-0.036594	0.382480
H137	H	-1.093183	-0.610518	-0.118062
H138	H	-0.593183	-0.110518	0.381938
H139	H	-1.055644	-0.518554	-0.183070
H140	H	-0.555644	-0.018554	0.316930
H141	H	-1.046692	-0.508804	-0.043965
H142	H	-0.546692	-0.008804	0.456035
H143	H	-0.596523	0.117462	-0.368277
H144	H	-0.096523	0.617462	0.131723
C145	C	-0.973491	0.128296	-0.331847
C146	C	-0.473491	0.628296	0.168153
H147	H	-1.046199	0.130423	-0.324227
H148	H	-0.546199	0.630423	0.175773
H149	H	-0.956291	0.185319	-0.374362
H150	H	-0.456291	0.685319	0.125638
H151	H	-0.960245	0.064476	-0.374767
H152	H	-0.460245	0.564476	0.125233
C153	C	-1.039299	-0.134825	-0.112236
C154	C	-0.539299	0.365175	0.387764
H155	H	-1.061488	-0.064528	-0.114640
H156	H	-0.561488	0.435472	0.385360
H157	H	-0.993641	-0.142456	-0.038243
H158	H	-0.493641	0.357544	0.461757
H159	H	-1.002611	-0.152214	-0.177349
H160	H	-0.502611	0.347786	0.322651
H161	H	-1.414638	-0.027230	0.327608
H162	H	-0.914638	0.472770	0.827608
C163	C	-1.381596	0.008774	0.126384
C164	C	-0.881596	0.508774	0.626384
H165	H	-1.416622	-0.029436	0.177571
H166	H	-0.916622	0.470564	0.677571
H167	H	-1.432521	0.042487	0.072239
H168	H	-0.932521	0.542487	0.572239
H169	H	-1.342345	-0.037694	0.082005
H170	H	-0.842345	0.462306	0.582005
H171	H	-1.164855	0.245152	0.580815
H172	H	-0.664855	0.745152	1.080815
