data_functionalizedCrystal
_audit_creation_method	'MofGen! by Chris Wilmer'
_symmetry_space_group_name_H-M	'P1'
_symmetry_Int_Tables_number	1
_symmetry_cell_setting	triclinic
loop_
_symmetry_equiv_pos_as_xyz
  x,y,z
_cell_length_a	10.540510
_cell_length_b	10.540539
_cell_length_c	9.130313
_cell_angle_alpha	89.997616
_cell_angle_beta	89.996236
_cell_angle_gamma	84.519401
loop_
_atom_site_label
_atom_site_type_symbol
_atom_site_fract_x
_atom_site_fract_y
_atom_site_fract_z
O1	O	1.685907	0.178720	-0.121801
O2	O	1.316490	0.195616	-0.121801
O3	O	1.509627	0.002460	-0.121799
O4	O	1.492770	0.371875	-0.121803
O5	O	1.509613	0.002455	0.121800
O6	O	1.316476	0.195610	0.121798
O7	O	1.685894	0.178714	0.121798
Cu8	Cu	1.501184	0.187162	0.144040
Cu9	Cu	1.501200	0.187168	-0.144044
O10	O	1.492757	0.371870	0.121796
C11	C	1.269179	0.194354	-0.000002
C12	C	1.128229	0.190587	-0.000002
C13	C	0.910774	0.324771	-0.000563
C14	C	1.057370	0.328789	-0.000005
C15	C	1.083462	0.119837	0.139102
C16	C	0.936701	0.116798	0.139210
C17	C	0.936910	0.113927	-0.137808
C18	C	1.083251	0.120482	-0.139638
C19	C	1.508356	-0.044845	-0.000002
C20	C	1.504574	-0.185793	-0.000010
C21	C	1.359655	-0.369204	-0.000557
C22	C	1.363489	-0.222587	-0.000009
C23	C	1.572463	-0.247461	0.139097
C24	C	1.567648	-0.394005	0.139214
C25	C	1.570532	-0.394517	-0.137804
C26	C	1.571832	-0.247535	-0.139643
C27	C	1.733204	0.179976	-0.000005
C28	C	1.874154	0.183743	-0.000014
C29	C	1.494028	0.419175	-0.000004
C30	C	1.497810	0.560123	-0.000006
N31	N	1.501182	0.187156	0.346663
N32	N	1.501212	0.187164	-0.346666
C33	C	1.586732	0.101663	0.423316
C34	C	1.586745	0.101664	0.576652
C35	C	1.415652	0.272661	0.576670
C36	C	1.415635	0.272653	0.423336
H37	H	1.114311	0.168967	0.242623
H38	H	1.656406	0.032046	0.639059
H39	H	1.669114	-0.441985	0.145525
N40	N	1.698379	-0.453749	-0.139013
N41	N	1.790019	-0.386787	-0.135532
H42	H	1.880310	-0.428620	-0.136380
N43	N	1.328275	0.360008	0.654971
N44	N	1.251894	0.436333	0.586507
H45	H	1.190180	0.498026	0.641803
H46	H	0.914756	0.010165	-0.138747
H47	H	1.656388	0.032045	0.360892
H48	H	1.345963	0.342272	0.360921
H49	H	1.304144	-0.399408	0.098640
H50	H	0.867261	0.378301	0.098630
H51	H	1.085768	0.384469	0.099877
N52	N	1.094179	0.398229	-0.125103
N53	N	1.011525	0.444059	-0.213432
H54	H	1.037514	0.493108	-0.301785
H55	H	1.525293	-0.204859	0.242615
N56	N	0.858144	0.392311	-0.125714
N57	N	0.793026	0.337302	-0.215965
H58	H	0.755847	0.385002	-0.304358
H59	H	0.913705	0.013432	0.145530
N60	N	0.886254	0.177446	0.269658
N61	N	0.959471	0.221721	0.359985
H62	H	0.923850	0.264556	0.452118
H63	H	1.522158	-0.206669	-0.242550
N64	N	1.295982	-0.170189	0.125284
N65	N	1.180641	-0.185292	0.141564
H66	H	1.132961	-0.148288	0.230058
H67	H	1.130852	0.018096	0.144277
H68	H	1.524876	-0.426063	-0.243238
H69	H	0.894368	0.157512	-0.243242
H70	H	1.111875	0.171958	-0.242546
H71	H	1.132319	0.019584	-0.148037
H72	H	1.517463	-0.422202	0.243199
H73	H	1.310070	-0.179975	-0.099726
H74	H	1.674694	-0.223325	-0.148043
N75	N	1.289759	-0.405068	-0.125713
N76	N	1.340943	-0.483138	-0.215965
H77	H	1.291581	-0.508472	-0.304364
N78	N	1.702439	-0.219433	0.145571
N79	N	1.746589	-0.153535	0.047501
H80	H	1.838386	-0.133738	0.052069
