data_functionalizedCrystal
_audit_creation_method	'MofGen! by Chris Wilmer'
_symmetry_space_group_name_H-M	'P1'
_symmetry_Int_Tables_number	1
_symmetry_cell_setting	triclinic
loop_
_symmetry_equiv_pos_as_xyz
  x,y,z
_cell_length_a	16.992701
_cell_length_b	17.019294
_cell_length_c	15.455313
_cell_angle_alpha	88.788101
_cell_angle_beta	87.136501
_cell_angle_gamma	87.022292
loop_
_atom_site_label
_atom_site_type_symbol
_atom_site_fract_x
_atom_site_fract_y
_atom_site_fract_z
O1	O	1.044227	0.163464	-0.084344
O2	O	0.815938	0.161637	-0.084208
O3	O	0.936044	0.048501	-0.075754
O4	O	0.924121	0.276600	-0.092799
O5	O	0.929176	0.054943	0.068027
O6	O	0.809069	0.168078	0.059572
O7	O	1.037359	0.169905	0.059436
Cu8	Cu	0.922587	0.169580	0.072633
Cu9	Cu	0.930710	0.161963	-0.097405
O10	O	0.917252	0.283041	0.050982
C11	C	0.783285	0.162506	-0.012142
C12	C	0.696224	0.155487	-0.011618
C13	C	0.207149	0.108327	-0.008097
C14	C	0.288952	0.114928	-0.008585
C15	C	0.320677	0.189258	-0.014144
C16	C	0.270594	0.256991	-0.019206
C17	C	0.188793	0.250390	-0.018711
C18	C	0.564340	0.216618	-0.016186
C19	C	0.646148	0.223215	-0.016682
C20	C	0.664500	0.081151	-0.006060
C21	C	0.582697	0.074556	-0.005572
C22	C	0.532621	0.142290	-0.010629
N23	N	0.404292	0.196007	-0.014645
N24	N	0.449007	0.135540	-0.010121
C25	C	0.932023	0.022400	-0.001674
C26	C	0.930263	-0.064969	0.004849
C27	C	0.933182	-0.109522	-0.070460
C28	C	0.931523	-0.191614	-0.064328
C29	C	0.926951	-0.229152	0.017115
C30	C	0.924029	-0.184593	0.092430
C31	C	0.925682	-0.102502	0.086297
C32	C	0.921766	-0.476839	0.039553
C33	C	0.920116	-0.558936	0.045681
C34	C	0.927608	-0.565951	-0.111078
C35	C	0.929265	-0.483858	-0.117204
C36	C	0.926340	-0.439306	-0.041889
C37	C	0.925257	-0.313064	0.023385
C38	C	0.928027	-0.355396	-0.048159
C39	C	1.070012	0.169037	-0.012632
C40	C	1.157073	0.176055	-0.013161
C41	C	0.921274	0.309142	-0.023100
C42	C	0.923034	0.396511	-0.029629
N43	N	0.916880	0.174938	0.192228
N44	N	0.936423	0.156599	-0.216999
C45	C	0.967923	0.126893	0.241212
C46	C	0.963614	0.130953	0.331717
C47	C	0.908265	0.183061	0.373235
C48	C	0.857216	0.231107	0.324244
C49	C	0.861522	0.227043	0.233741
C50	C	0.889680	0.200581	0.643507
C51	C	0.885380	0.204643	0.734016
C52	C	0.991777	0.104488	0.741483
C53	C	0.996081	0.100432	0.650978
C54	C	0.945030	0.148475	0.601995
N55	N	0.903861	0.187213	0.465745
N56	N	0.949430	0.144318	0.509487
H57	H	0.523578	0.271772	-0.020308
C58	C	0.343191	0.041299	-0.003123
C59	C	0.297901	-0.025209	0.001823
C60	C	0.347840	-0.093054	0.006847
H61	H	0.373104	0.043056	0.047041
H62	H	0.377871	0.038628	-0.053249
H63	H	0.263235	-0.022539	0.051944
H64	H	0.267990	-0.026993	-0.048336
H65	H	0.382519	-0.095725	-0.043279
H66	H	0.377750	-0.091288	0.057012
H67	H	0.317118	-0.138188	0.010196
C68	C	1.047322	0.052414	0.794610
C69	C	1.125460	0.069066	0.771273
C70	C	1.176648	0.021112	0.820202
H71	H	1.039483	-0.001284	0.783781
H72	H	1.036886	0.062298	0.854465
H73	H	1.135892	0.059176	0.711432
H74	H	1.133324	0.122754	0.782105
H75	H	1.166212	0.030996	0.880057
H76	H	1.168802	-0.032583	0.809369
H77	H	1.229670	0.032408	0.804380
H78	H	0.936909	-0.078965	-0.136780
C79	C	0.305090	0.337664	-0.025415
C80	C	0.355031	0.342295	-0.099993
C81	C	0.386813	0.416604	-0.105750
H82	H	0.334282	0.345518	0.024245
H83	H	0.263573	0.377079	-0.028407
H84	H	0.396542	0.302892	-0.096994
H85	H	0.325857	0.334456	-0.149667
H86	H	0.345296	0.456018	-0.108741
H87	H	0.416001	0.424451	-0.056086
H88	H	0.420696	0.419758	-0.156355
C89	C	1.028045	0.070238	0.196303
C90	C	1.071809	0.029017	0.258578
C91	C	1.127193	-0.023190	0.217243
H92	H	1.062512	0.098913	0.158721
H93	H	1.001456	0.034098	0.163610
H94	H	1.098398	0.065153	0.291256
H95	H	1.037364	0.000326	0.296163
H96	H	1.100603	-0.059331	0.184551
H97	H	1.161654	0.005491	0.179663
H98	H	1.156888	-0.051170	0.259491
H99	H	0.916388	-0.589497	0.112004
H100	H	0.929988	-0.602234	-0.172395
C101	C	0.825193	0.261234	0.778937
C102	C	0.781387	0.302420	0.716672
C103	C	0.725931	0.354545	0.758022
H104	H	0.851702	0.297406	0.811651
H105	H	0.790768	0.232475	0.816502
H106	H	0.815807	0.331177	0.679123
H107	H	0.754861	0.266268	0.683954
H108	H	0.691506	0.325786	0.795587
H109	H	0.752447	0.390712	0.790735
H110	H	0.696197	0.382491	0.715782
H111	H	0.919400	-0.440575	0.100880
H112	H	0.556873	0.014029	-0.001045
C113	C	0.834394	0.252797	0.590224
C114	C	0.878757	0.301223	0.534444
C115	C	0.827855	0.349335	0.485336
H116	H	0.800804	0.284484	0.627814
H117	H	0.803368	0.220892	0.557144
H118	H	0.909770	0.333125	0.567520
H119	H	0.912345	0.269557	0.496836
H120	H	0.796829	0.317429	0.452257
H121	H	0.794268	0.381016	0.522933
H122	H	0.857948	0.382192	0.447478
C123	C	1.018912	0.078695	0.384947
C124	C	0.974563	0.030232	0.440699
C125	C	1.025479	-0.017929	0.489737
H126	H	1.049960	0.110542	0.418051
H127	H	1.052481	0.047041	0.347285
H128	H	0.941008	0.061883	0.478357
H129	H	0.943517	-0.001631	0.407618
H130	H	1.059048	-0.049583	0.452074
H131	H	1.056524	0.013924	0.522835
H132	H	0.995396	-0.050822	0.527564
H133	H	0.148021	0.305541	-0.022832
H134	H	0.705280	0.026007	-0.001942
H135	H	0.933903	-0.227886	-0.125653
C136	C	0.172559	0.027693	-0.002112
C137	C	0.090204	0.036403	-0.002787
C138	C	0.058317	-0.037863	0.002717
H139	H	0.187255	0.001773	0.050121
H140	H	0.192089	-0.002670	-0.050168
H141	H	0.070681	0.066753	0.045266
H142	H	0.075486	0.062309	-0.055015
H143	H	0.077847	-0.068226	-0.045339
H144	H	0.073018	-0.063777	0.054950
H145	H	0.002436	-0.031964	0.002252
H146	H	0.920302	-0.215163	0.158742
C147	C	0.680746	0.303849	-0.022735
C148	C	0.763103	0.295128	-0.022104
C149	C	0.795003	0.369386	-0.027685
H150	H	0.661263	0.334255	0.025293
H151	H	0.666013	0.329728	-0.074990
H152	H	0.777830	0.269262	0.030145
H153	H	0.782609	0.264736	-0.070130
H154	H	0.780269	0.395264	-0.079940
H155	H	0.775514	0.399786	0.020345
H156	H	0.850885	0.363478	-0.027266
H157	H	0.932990	-0.453301	-0.183523
H158	H	0.923295	-0.066227	0.147622
H159	H	0.921537	-0.343637	0.089695
H160	H	0.812146	0.273532	0.358053
C161	C	0.932856	-0.314537	-0.136529
C162	C	0.866624	-0.262997	-0.144958
C163	C	0.871048	-0.225332	-0.226349
H164	H	0.934321	-0.352740	-0.180582
H165	H	0.979319	-0.285731	-0.141962
H166	H	0.820173	-0.291801	-0.139534
H167	H	0.865145	-0.224779	-0.100924
H168	H	0.917511	-0.196526	-0.231782
H169	H	0.872515	-0.263541	-0.270396
H170	H	0.826115	-0.190353	-0.232076
H171	H	1.041151	0.058001	0.617176
H172	H	0.819956	0.266165	0.193859
