data_functionalizedCrystal
_audit_creation_method	'MofGen! by Chris Wilmer'
_symmetry_space_group_name_H-M	'P1'
_symmetry_Int_Tables_number	1
_symmetry_cell_setting	triclinic
loop_
_symmetry_equiv_pos_as_xyz
  x,y,z
_cell_length_a	19.851628
_cell_length_b	17.052862
_cell_length_c	19.851628
_cell_angle_alpha	50.254932
_cell_angle_beta	90.001453
_cell_angle_gamma	70.263327
loop_
_atom_site_label
_atom_site_type_symbol
_atom_site_fract_x
_atom_site_fract_y
_atom_site_fract_z
Zr1	Zr	0.762790	0.878492	-0.202135
O2	O	0.676920	1.045970	-0.331410
O3	O	0.774070	0.711032	-0.147462
O4	O	0.795765	0.878499	-0.309697
O5	O	0.655224	0.878491	-0.058313
O6	O	0.906625	0.878483	-0.309681
O7	O	0.655225	0.878503	-0.169175
O8	O	0.867816	0.578915	-0.019472
O9	O	0.694033	1.178059	-0.348522
O10	O	0.879789	0.779892	-0.142307
O11	O	0.797055	0.779894	-0.059584
O12	O	0.822599	0.977065	-0.250595
O13	O	0.739865	0.977068	-0.167872
Zr14	Zr	0.939597	0.878448	-0.025298
Zr15	Zr	0.939598	0.878467	-0.202110
Zr16	Zr	0.762789	0.878472	-0.025323
Zr17	Zr	0.790083	1.089158	-0.229427
Zr18	Zr	0.912304	0.667781	0.001994
O19	O	0.928317	1.045908	-0.079971
O20	O	0.928319	1.045935	-0.331375
O21	O	0.676918	1.045943	-0.080006
O22	O	1.025467	0.710969	0.103977
O23	O	1.025469	0.710996	-0.147426
O24	O	0.774068	0.711004	0.103942
O25	O	1.047163	0.878448	-0.169120
O26	O	0.906622	0.878440	0.082264
O27	O	0.795763	0.878456	0.082249
O28	O	1.047162	0.878436	-0.058258
O29	O	0.834572	1.178040	-0.348503
O30	O	0.867815	0.578899	0.121070
O31	O	1.008354	0.578880	0.121090
O32	O	1.008355	0.578895	-0.019452
O33	O	0.694032	1.178044	-0.207980
O34	O	0.834571	1.178024	-0.207961
O35	O	0.879788	0.779874	0.023163
O36	O	0.962522	0.779871	-0.059561
O37	O	0.905332	0.977045	-0.167849
O38	O	0.822598	0.977047	-0.085125
C39	C	0.817054	0.614958	-0.079578
C40	C	0.805468	0.525524	-0.067992
C41	C	0.945550	0.273429	-0.208068
C42	C	0.956434	0.357461	-0.218960
C43	C	0.918694	0.399481	-0.181219
C44	C	0.870067	0.357461	-0.132584
C45	C	0.859177	0.273427	-0.121698
C46	C	0.832321	0.399478	-0.094848
C47	C	0.783693	0.357458	-0.046213
C48	C	0.772806	0.273432	-0.035328
C49	C	0.810546	0.231413	-0.073069
C50	C	0.843210	0.483512	-0.105735
C51	C	0.756837	0.483510	-0.019364
C52	C	0.745953	0.399478	-0.008472
C53	C	0.630033	0.878501	-0.113747
C54	C	0.554973	0.878511	-0.113758
C55	C	0.342442	0.985993	-0.172770
C56	C	0.313119	0.932260	-0.198499
C57	C	0.417563	0.878482	-0.113730
C58	C	0.313146	0.932222	-0.088018
C59	C	0.284828	0.878461	-0.113705
C60	C	0.389228	0.824748	-0.139504
C61	C	0.389255	0.824726	-0.028982
C62	C	0.359975	0.770913	-0.054681
C63	C	0.494027	0.878497	-0.113747
C64	C	0.208368	0.878438	-0.113689
C65	C	1.072354	0.878439	-0.113685
C66	C	1.147414	0.878428	-0.113675
C67	C	0.851195	0.878494	-0.334881
C68	C	0.851195	0.878502	-0.409942
C69	C	0.885333	1.141981	-0.147854
C70	C	0.896920	1.231415	-0.159440
C71	C	0.820009	0.985985	-0.695223
C72	C	0.780347	0.932271	-0.620808
C73	C	0.851192	0.878458	-0.680082
C74	C	0.890821	0.932227	-0.620790
C75	C	0.851193	0.878485	-0.547357
C76	C	0.811485	0.824743	-0.606655
C77	C	0.922004	0.824714	-0.606650
C78	C	0.882351	0.770922	-0.532212
C79	C	0.851190	0.878445	-0.756544
C80	C	0.851193	0.878490	-0.470892
C81	C	0.851192	0.878445	0.107449
C82	C	0.851192	0.878437	0.182510
C83	C	1.038215	0.614927	-0.079547
C84	C	1.101688	0.525483	-0.067951
C85	C	0.817053	0.614933	0.141587
C86	C	0.805466	0.525492	0.228234
C87	C	1.038213	0.614903	0.141618
C88	C	1.101686	0.525450	0.228275
C89	C	0.664174	1.142037	-0.369050
C90	C	0.600701	1.231489	-0.455708
C91	C	0.664172	1.142012	-0.147885
C92	C	0.600699	1.231456	-0.159482
C93	C	0.885334	1.142006	-0.369019
C94	C	0.896921	1.231447	-0.455667
C95	C	1.088310	0.483490	-0.105705
C96	C	1.147945	0.399459	-0.094827
C97	C	1.220956	0.357418	-0.046188
C98	C	1.234333	0.399419	-0.008434
C99	C	1.174700	0.483454	-0.019318
C100	C	0.843210	0.483478	0.312125
C101	C	0.832321	0.399450	0.393545
C102	C	0.783692	0.357431	0.391072
C103	C	0.745943	0.399453	0.307172
C104	C	0.756828	0.483485	0.225754
C105	C	1.174687	0.483441	0.225790
C106	C	1.234335	0.399403	0.307206
C107	C	1.220979	0.357370	0.391107
C108	C	1.147971	0.399387	0.393590
C109	C	1.088326	0.483429	0.312174
C110	C	0.527701	1.273508	-0.453224
C111	C	0.468057	1.357572	-0.534643
C112	C	0.481413	1.399610	-0.618545
C113	C	0.554421	1.357587	-0.621027
C114	C	0.614064	1.273530	-0.539609
C115	C	0.614078	1.273458	-0.121736
C116	C	0.554447	1.357512	-0.132637
C117	C	0.481436	1.399557	-0.181278
C118	C	0.468058	1.357551	-0.219029
C119	C	0.527689	1.273505	-0.208133
C120	C	0.945556	1.273440	-0.453164
C121	C	0.956457	1.357469	-0.534571
C122	C	0.918720	1.399509	-0.618479
C123	C	0.870083	1.357509	-0.620979
C124	C	0.859186	1.273476	-0.539572
H125	H	0.882803	0.517718	-0.145334
H126	H	0.774835	0.289006	0.457375
H127	H	0.335768	1.076899	-0.222750
F128	F	0.568624	1.402337	-0.710330
F129	F	0.807416	1.228801	-0.542251
F130	F	0.721044	0.228725	0.016422
H131	H	0.280234	0.977677	-0.066281
H132	H	1.137038	0.365272	-0.125573
H133	H	0.432840	1.468054	-0.684834
H134	H	0.673502	1.239319	-0.541642
H135	H	0.422041	0.779346	-0.161323
F136	F	0.716655	0.528185	0.136474
F137	F	0.368830	0.652026	0.010546
H138	H	0.726104	0.517725	0.011365
H139	H	1.269506	0.288990	-0.037332
H140	H	1.185576	0.517652	0.157482
H141	H	0.777895	0.779349	-0.601363
F142	F	0.432294	0.765378	0.064657
H143	H	0.927559	0.467903	-0.190090
F144	F	1.008219	1.402158	-0.531892
F145	F	1.312029	0.354697	0.304545
H146	H	0.927600	1.467935	-0.684758
H147	H	0.516811	1.239286	-0.384914
H148	H	0.793589	1.076883	-0.764859
H149	H	0.280196	0.977703	-0.270158
F150	F	0.390362	1.402278	-0.531982
H151	H	1.137107	0.365151	0.461913
H152	H	1.269553	0.288937	0.457395
H153	H	0.565353	1.391699	-0.101890
F154	F	0.694190	0.354721	0.304555
F155	F	1.010632	0.528125	0.314834
H156	H	0.432886	1.467993	-0.190143
F157	F	0.702074	0.991682	-0.627647
H158	H	0.839361	1.391751	-0.689308
F159	F	0.916800	0.652015	-0.441301
H160	H	0.673522	1.239232	-0.082122
H161	H	1.293787	0.365176	0.031167
H162	H	1.185603	0.517634	0.011433
H163	H	0.996025	0.391672	-0.258559
F164	F	0.390348	1.402307	-0.270792
H165	H	0.863066	0.365246	0.461851
F166	F	0.985727	1.228712	-0.363871
F167	F	0.985703	0.228714	-0.248238
F168	F	0.694204	0.354743	0.043291
F169	F	0.798965	0.141970	-0.061473
F170	F	1.000264	0.765362	-0.599869
H171	H	1.028866	0.517719	-0.145322
F172	F	0.513438	1.228806	-0.248306
F173	F	0.934627	0.991642	-0.627643
F174	F	0.894972	0.528180	0.314777
