data_functionalizedCrystal
_audit_creation_method	'MofGen! by Chris Wilmer'
_symmetry_space_group_name_H-M	'P1'
_symmetry_Int_Tables_number	1
_symmetry_cell_setting	triclinic
loop_
_symmetry_equiv_pos_as_xyz
  x,y,z
_cell_length_a	19.288859
_cell_length_b	10.654559
_cell_length_c	18.366186
_cell_angle_alpha	89.996405
_cell_angle_beta	89.990083
_cell_angle_gamma	83.811205
loop_
_atom_site_label
_atom_site_type_symbol
_atom_site_fract_x
_atom_site_fract_y
_atom_site_fract_z
O1	O	0.922384	0.156619	-0.060560
O2	O	0.720261	0.177760	-0.060558
O3	O	0.825966	-0.015649	-0.060559
O4	O	0.816679	0.350027	-0.060559
O5	O	0.825948	-0.015658	0.060541
O6	O	0.720243	0.177750	0.060542
O7	O	0.922366	0.156609	0.060539
Zn8	Zn	0.821302	0.167178	0.079768
Zn9	Zn	0.821325	0.167191	-0.079786
O10	O	0.816661	0.350018	0.060541
C11	C	0.694371	0.177076	-0.000008
C12	C	0.617254	0.175038	-0.000007
C13	C	0.825274	-0.062437	-0.000011
C14	C	0.823230	-0.201836	-0.000015
C15	C	0.053868	0.274734	-0.000008
C16	C	0.126327	0.276660	-0.000012
C17	C	0.170289	0.163177	-0.000011
C18	C	0.141786	0.047759	-0.000024
C19	C	0.069328	0.045836	-0.000028
C20	C	0.290997	0.078538	0.042419
C21	C	0.363453	0.080465	0.042427
C22	C	0.393774	0.169102	-0.000003
C23	C	0.351627	0.255832	-0.042431
C24	C	0.279169	0.253910	-0.042435
C25	C	0.248858	0.165249	-0.000007
C26	C	0.500837	0.286601	0.000001
C27	C	0.573297	0.288522	-0.000007
C28	C	0.588755	0.059618	-0.000012
C29	C	0.516295	0.057700	-0.000011
C30	C	0.472340	0.171195	-0.000001
C31	C	0.759071	-0.251999	-0.000016
C32	C	0.757154	-0.382980	-0.000011
C33	C	0.883561	-0.413624	-0.000006
C34	C	0.885477	-0.282645	-0.000006
C35	C	0.696823	-0.171190	-0.000025
C36	C	0.632659	-0.221353	-0.000027
C37	C	0.630743	-0.352334	-0.000022
C38	C	0.692990	-0.433152	-0.000014
C39	C	0.948256	0.157293	-0.000012
C40	C	1.025373	0.159331	-0.000018
C41	C	0.817353	0.396806	-0.000009
C42	C	0.819397	0.536205	-0.000009
N43	N	0.821290	0.167169	0.188659
N44	N	0.821342	0.167190	-0.188677
C45	C	0.868112	0.081570	0.226759
C46	C	0.868117	0.081564	0.302987
C47	C	0.821306	0.167179	0.341112
C48	C	0.774475	0.252785	0.303002
C49	C	0.774467	0.252780	0.226776
C50	C	0.812759	0.281601	0.461872
C51	C	0.812771	0.281607	0.538097
C52	C	0.821326	0.167195	0.576219
C53	C	0.829882	0.052771	0.538107
C54	C	0.829874	0.052766	0.461881
C55	C	0.821309	0.167194	0.423766
C56	C	0.868155	0.081583	0.696974
C57	C	0.868154	0.081575	0.773203
C58	C	0.774516	0.252807	0.773218
C59	C	0.774513	0.252804	0.696990
C60	C	0.821336	0.167193	0.658873
H61	H	0.018084	0.367151	-0.000004
N62	N	0.803538	0.405014	0.579200
H63	H	0.842388	0.457206	0.565918
H64	H	0.757172	0.452756	0.565927
H65	H	0.266317	0.006353	0.076971
N66	N	0.157070	0.401137	0.000008
H67	H	0.209642	0.385130	0.000010
H68	H	0.141041	0.450798	-0.044881
N69	N	0.038585	-0.078635	-0.000032
H70	H	0.054579	-0.128331	-0.044925
H71	H	0.054574	-0.128242	0.044888
N72	N	0.698884	-0.029918	-0.000029
H73	H	0.724149	-0.004379	0.044863
H74	H	0.724154	-0.004483	-0.044950
N75	N	0.918628	-0.010751	0.344090
H76	H	0.911529	0.002248	0.398163
H77	H	0.910185	-0.099810	0.330779
N78	N	0.803533	0.405013	0.420760
H79	H	0.842398	0.457182	0.434011
H80	H	0.804807	0.387542	0.366702
H81	H	0.376312	0.328012	-0.076980
H82	H	0.937721	-0.241801	-0.000005
H83	H	0.244857	0.324526	-0.076983
H84	H	0.736360	0.322493	0.334048
N85	N	0.453422	0.409005	0.000004
H86	H	0.482471	0.482407	0.000001
H87	H	0.423030	0.413192	-0.044890
N88	N	0.561545	-0.406452	-0.000024
H89	H	0.557923	-0.460110	0.044869
H90	H	0.522443	-0.335318	-0.000057
N91	N	0.918667	-0.010747	0.814294
H92	H	0.891874	-0.066245	0.845931
H93	H	0.948313	-0.064880	0.778525
N94	N	0.604035	0.412998	-0.000011
H95	H	0.565192	0.484599	-0.000006
H96	H	0.633758	0.418777	0.044880
N97	N	0.839101	-0.070637	0.420773
H98	H	0.800243	-0.122816	0.434048
H99	H	0.837817	-0.053161	0.366715
H100	H	0.906236	0.011857	0.195726
N101	N	0.189197	-0.074643	-0.000025
H102	H	0.239423	-0.055915	-0.000019
H103	H	0.179896	-0.124965	0.044865
H104	H	0.581980	-0.155543	-0.000027
H105	H	0.736338	0.322486	0.195754
N106	N	0.636155	-0.062792	-0.000013
H107	H	0.666571	-0.067091	-0.044904
H108	H	0.666510	-0.067035	0.044909
H109	H	0.836847	-0.040395	0.569144
H110	H	0.691424	-0.539805	-0.000010
H111	H	0.493095	-0.036274	-0.000014
H112	H	0.397763	0.009851	0.076978
H113	H	0.934240	-0.479435	-0.000001
H114	H	0.906279	0.011869	0.665938
H115	H	0.736399	0.322512	0.804258
H116	H	0.736389	0.322512	0.665967
