data_functionalizedCrystal
_audit_creation_method	'MofGen! by Chris Wilmer'
_symmetry_space_group_name_H-M	'P1'
_symmetry_Int_Tables_number	1
_symmetry_cell_setting	triclinic
loop_
_symmetry_equiv_pos_as_xyz
  x,y,z
_cell_length_a	15.995350
_cell_length_b	15.995350
_cell_length_c	14.472310
_cell_angle_alpha	90.001162
_cell_angle_beta	89.990621
_cell_angle_gamma	83.492375
loop_
_atom_site_label
_atom_site_type_symbol
_atom_site_fract_x
_atom_site_fract_y
_atom_site_fract_z
O1	O	1.110997	0.107921	-0.076758
O2	O	0.867221	0.121248	-0.076776
O3	O	0.995773	-0.007303	-0.076766
O4	O	0.982445	0.236472	-0.076769
O5	O	0.995740	-0.007296	0.076916
O6	O	0.867188	0.121256	0.076906
O7	O	1.110963	0.107928	0.076924
Cu8	Cu	0.989073	0.114593	0.090947
Cu9	Cu	0.989112	0.114584	-0.090800
O10	O	0.982412	0.236480	0.076913
C11	C	0.836010	0.120701	0.000062
C12	C	0.743060	0.119049	0.000055
C13	C	0.405312	0.113117	0.000074
C14	C	0.452746	0.021565	0.000418
C15	C	0.549436	0.023217	0.000065
C16	C	0.572873	0.116060	0.000065
C17	C	0.531804	0.161212	-0.087692
C18	C	0.435169	0.158912	-0.087759
C19	C	0.434792	0.160812	0.087007
C20	C	0.531737	0.160790	0.088160
C21	C	0.667570	0.117727	0.000057
C22	C	0.310614	0.111452	0.000076
C23	C	0.995205	-0.038494	0.000073
C24	C	0.993553	-0.131444	0.000068
C25	C	0.987621	-0.469192	0.000071
C26	C	0.896069	-0.421758	-0.000281
C27	C	0.897721	-0.325068	0.000066
C28	C	0.990564	-0.301631	0.000069
C29	C	1.035701	-0.342705	0.087831
C30	C	1.033401	-0.439340	0.087904
C31	C	1.035330	-0.439707	-0.086861
C32	C	1.035309	-0.342762	-0.088021
C33	C	0.992231	-0.206934	0.000071
C34	C	0.985956	-0.563890	0.000075
C35	C	1.142175	0.108476	0.000083
C36	C	1.235125	0.110127	0.000084
C37	C	0.982980	0.267671	0.000072
C38	C	0.984631	0.360621	0.000071
N39	N	0.989051	0.114598	0.218778
N40	N	0.989140	0.114572	-0.218631
C41	C	0.989111	0.114581	0.592869
C42	C	0.920095	0.183135	0.553698
C43	C	0.920254	0.183385	0.446610
C44	C	0.989081	0.114590	0.407278
C45	C	1.076445	0.133671	0.446122
C46	C	1.076057	0.134159	0.553243
C47	C	0.971542	0.026741	0.553398
C48	C	0.969538	0.027327	0.446270
C49	C	0.989069	0.114593	0.302390
C50	C	0.989128	0.114579	0.697757
H51	H	0.433166	-0.014865	-0.062168
H52	H	1.021872	-0.024275	0.578728
C53	C	1.147489	0.068017	0.411703
C54	C	1.239070	0.074238	0.441214
C55	C	1.310113	0.008583	0.406794
C56	C	1.289575	-0.063293	0.342864
C57	C	1.197990	-0.069517	0.313350
C58	C	1.126947	-0.003862	0.347770
H59	H	1.254278	0.127448	0.488542
H60	H	1.377911	0.013191	0.428643
H61	H	1.342165	-0.111895	0.317385
H62	H	1.182783	-0.122727	0.266022
H63	H	1.059150	-0.008470	0.325921
H64	H	0.859490	-0.440293	-0.063217
H65	H	1.129018	0.086196	0.579154
H66	H	0.931473	0.248569	0.420976
C67	C	0.887329	0.001968	0.589921
C68	C	0.816643	-0.013181	0.521802
C69	C	0.732426	-0.037941	0.558325
C70	C	0.718894	-0.047553	0.662967
C71	C	0.789582	-0.032405	0.731093
C72	C	0.873799	-0.007644	0.694569
H73	H	0.826659	-0.006065	0.444333
H74	H	0.680099	-0.049155	0.507893
H75	H	0.656551	-0.065883	0.690004
H76	H	0.779567	-0.039520	0.808561
H77	H	0.926127	0.003570	0.745001
H78	H	0.905272	0.012845	0.420883
C79	C	1.096967	0.220700	0.586992
C80	C	1.174919	0.226956	0.647940
C81	C	1.195828	0.313501	0.681683
C82	C	1.138784	0.393790	0.654477
C83	C	1.060826	0.387537	0.593525
C84	C	1.039918	0.300992	0.559783
H85	H	1.217151	0.167519	0.668083
H86	H	1.253537	0.318129	0.726803
H87	H	1.154261	0.457855	0.679455
H88	H	1.018594	0.446974	0.573383
H89	H	0.982208	0.296364	0.514662
H90	H	0.861973	-0.297200	0.063079
C91	C	1.126779	-0.322020	-0.095186
C92	C	1.155075	-0.274309	-0.179981
C93	C	1.246550	-0.253571	-0.187139
C94	C	1.309728	-0.280543	-0.109501
C95	C	1.281433	-0.328256	-0.024700
C96	C	1.189958	-0.348995	-0.017542
H97	H	1.108306	-0.254340	-0.237458
H98	H	1.267495	-0.218250	-0.249915
H99	H	1.377443	-0.265191	-0.114800
H100	H	1.328202	-0.348225	0.032778
H101	H	1.169013	-0.384315	0.045234
C102	C	0.587093	-0.025054	-0.085072
C103	C	0.575664	-0.118670	-0.097742
C104	C	0.613319	-0.166941	-0.182886
C105	C	0.662401	-0.121596	-0.255359
C106	C	0.673832	-0.027974	-0.242691
C107	C	0.636178	0.020297	-0.157547
H108	H	0.539328	-0.152242	-0.044091
H109	H	0.604856	-0.236247	-0.192263
H110	H	0.690275	-0.157329	-0.318387
H111	H	0.710168	0.005598	-0.296342
H112	H	0.644640	0.089602	-0.148170
C113	C	1.033037	-0.044823	0.410110
C114	C	1.127510	-0.045113	0.430761
C115	C	1.191019	-0.117259	0.394601
C116	C	1.160056	-0.189114	0.337791
C117	C	1.065579	-0.188826	0.317137
C118	C	1.002070	-0.116680	0.353297
H119	H	1.150435	0.008081	0.472818
H120	H	1.260958	-0.117472	0.409891
H121	H	1.207070	-0.242520	0.311023
H122	H	1.042654	-0.242020	0.275080
H123	H	0.932131	-0.116468	0.338007
C124	C	0.410447	0.114417	-0.176375
C125	C	0.478603	0.081222	-0.246588
C126	C	0.453887	0.036724	-0.335206
C127	C	0.361015	0.025423	-0.353610
C128	C	0.292853	0.058619	-0.283395
C129	C	0.317569	0.103116	-0.194777
H130	H	0.547358	0.089587	-0.232966
H131	H	0.504346	0.012150	-0.387184
H132	H	0.342719	-0.007517	-0.419210
H133	H	0.224099	0.050253	-0.297017
H134	H	0.267111	0.127690	-0.142799
H135	H	1.103909	-0.328579	0.091097
C136	C	1.126518	-0.482616	-0.087665
C137	C	1.186642	-0.464040	-0.166260
C138	C	1.277825	-0.506953	-0.167055
C139	C	1.308884	-0.568442	-0.089255
C140	C	1.248759	-0.587021	-0.010654
C141	C	1.157576	-0.544108	-0.009859
H142	H	1.163651	-0.418519	-0.223857
H143	H	1.322334	-0.493200	-0.225241
H144	H	1.376383	-0.600209	-0.089844
H145	H	1.271750	-0.632542	0.046944
H146	H	1.113068	-0.557861	0.048327
C147	C	0.993312	-0.304370	0.176061
C148	C	0.917802	-0.235853	0.168659
C149	C	0.875407	-0.197521	0.256886
C150	C	0.908521	-0.227706	0.352516
C151	C	0.984035	-0.296227	0.359922
C152	C	1.026430	-0.334559	0.271695
H153	H	0.893286	-0.213505	0.097864
H154	H	0.819507	-0.146797	0.251403
H155	H	0.877138	-0.199330	0.417828
H156	H	1.008552	-0.318575	0.430717
H157	H	1.082331	-0.385283	0.277178
H158	H	0.547101	0.228494	0.093461
C159	C	0.568608	0.116260	0.175871
C160	C	0.635752	0.039642	0.167582
C161	C	0.672630	-0.004889	0.255291
C162	C	0.642364	0.027198	0.351288
C163	C	0.575216	0.103820	0.359581
C164	C	0.538339	0.148352	0.271872
H165	H	0.658160	0.015885	0.096516
H166	H	0.722337	-0.061611	0.249152
H167	H	0.669663	-0.005767	0.416216
H168	H	0.552808	0.127577	0.430647
H169	H	0.488632	0.205073	0.278011
C170	C	0.846831	-0.448216	0.084259
C171	C	0.889388	-0.512648	0.153516
C172	C	0.840152	-0.539109	0.238057
C173	C	0.748358	-0.501139	0.253341
C174	C	0.705795	-0.436703	0.184082
C175	C	0.755032	-0.410242	0.099541
H176	H	0.957344	-0.540760	0.142204
H177	H	0.871660	-0.586809	0.289326
H178	H	0.711910	-0.520727	0.315923
H179	H	0.637839	-0.408592	0.195395
H180	H	0.723524	-0.362542	0.048272
C181	C	0.988890	-0.464065	0.176519
C182	C	1.035958	-0.525392	0.245942
C183	C	0.991444	-0.550111	0.334558
C184	C	0.899861	-0.513503	0.353751
C185	C	0.852788	-0.452173	0.284326
C186	C	0.897302	-0.427454	0.195710
H187	H	1.103758	-0.552495	0.231735
H188	H	1.026291	-0.595512	0.385950
H189	H	0.866909	-0.531802	0.419350
H190	H	0.784988	-0.425070	0.298533
H191	H	0.862455	-0.382053	0.144318
H192	H	0.577852	-0.012275	0.062973
H193	H	1.092297	0.197002	0.419285
C194	C	0.994915	-0.467454	-0.176726
C195	C	0.918067	-0.517251	-0.172317
C196	C	0.877642	-0.544998	-0.262176
C197	C	0.914064	-0.522948	-0.356444
C198	C	0.990917	-0.473149	-0.360856
C199	C	1.031342	-0.445401	-0.270998
H200	H	0.891101	-0.533576	-0.102531
H201	H	0.820750	-0.581863	-0.258909
H202	H	0.884139	-0.543488	-0.422962
H203	H	1.017883	-0.456824	-0.430642
H204	H	1.088234	-0.408536	-0.274265
C205	C	0.550885	0.253358	-0.092110
C206	C	0.604106	0.288761	-0.015901
C207	C	0.623187	0.380907	-0.020316
C208	C	0.589047	0.437650	-0.100942
C209	C	0.535822	0.402247	-0.177157
C210	C	0.516742	0.310101	-0.172742
H211	H	0.629382	0.246756	0.043788
H212	H	0.662588	0.407114	0.036104
H213	H	0.603172	0.505862	-0.104211
H214	H	0.510547	0.444252	-0.236846
H215	H	0.477341	0.283894	-0.229162
C216	C	0.990719	-0.305915	-0.175708
C217	C	0.951449	-0.364186	-0.243943
C218	C	0.906823	-0.327346	-0.331614
C219	C	0.901465	-0.232235	-0.351049
C220	C	0.940736	-0.173958	-0.282811
C221	C	0.985363	-0.210798	-0.195140
H222	H	0.955414	-0.434598	-0.229558
H223	H	0.877752	-0.370488	-0.382128
H224	H	0.868430	-0.204964	-0.415948
H225	H	0.936771	-0.103546	-0.297196
H226	H	1.014433	-0.167657	-0.144627
C227	C	0.570146	0.118832	-0.175923
C228	C	0.615910	0.170162	-0.245893
C229	C	0.654250	0.127775	-0.334121
C230	C	0.646826	0.034057	-0.352378
C231	C	0.601060	-0.017278	-0.282406
C232	C	0.562719	0.025110	-0.194179
H233	H	0.621407	0.239542	-0.232380
H234	H	0.688129	0.165777	-0.385918
H235	H	0.675208	0.002680	-0.417689
H236	H	0.595562	-0.086658	-0.295920
H237	H	0.528840	-0.012893	-0.142381
H238	H	0.855314	0.172016	0.420349
H239	H	0.402921	0.226128	-0.091741
H240	H	0.434210	-0.015027	0.063352
H241	H	0.414242	0.130885	0.153524
H242	H	0.403031	0.228313	0.087600
H243	H	0.862239	-0.296649	-0.062846
H244	H	1.100617	-0.471588	0.091888
H245	H	0.854945	0.171953	0.579481
H246	H	0.931159	0.247952	0.580608
