data_functionalizedCrystal
_audit_creation_method	'MofGen! by Chris Wilmer'
_symmetry_space_group_name_H-M	'P1'
_symmetry_Int_Tables_number	1
_symmetry_cell_setting	triclinic
loop_
_symmetry_equiv_pos_as_xyz
  x,y,z
_cell_length_a	12.759401
_cell_length_b	18.050588
_cell_length_c	12.759393
_cell_angle_alpha	90.032492
_cell_angle_beta	90.020787
_cell_angle_gamma	90.030043
loop_
_atom_site_label
_atom_site_type_symbol
_atom_site_fract_x
_atom_site_fract_y
_atom_site_fract_z
Zn1	Zn	1.606158	-0.295614	0.594001
Zn2	Zn	1.606003	-0.419822	0.418315
Zn3	Zn	1.430457	-0.295651	0.418337
Zn4	Zn	1.430403	-0.419768	0.593953
O5	O	1.518255	-0.357714	0.506152
O6	O	1.753158	-0.312097	0.570707
O7	O	1.582675	-0.403389	0.271297
O8	O	1.453851	-0.191722	0.441668
O9	O	1.753045	-0.403352	0.441632
O10	O	1.582938	-0.191694	0.570728
O11	O	1.453701	-0.312161	0.271313
O12	O	1.283428	-0.312108	0.441622
O13	O	1.453759	-0.403260	0.740980
O14	O	1.283389	-0.403296	0.570646
O15	O	1.582886	-0.312045	0.741016
O16	O	1.582623	-0.523739	0.441585
O17	O	1.453610	-0.523700	0.570625
C18	C	1.245288	-0.357701	0.506131
C19	C	1.128511	-0.357714	0.506148
C20	C	0.963861	-0.405165	0.438867
C21	C	1.073585	-0.405154	0.438847
C22	C	1.073708	-0.310275	0.573465
C23	C	0.963985	-0.310283	0.573479
C24	C	1.223459	-0.431573	0.314857
C25	C	1.278259	-0.479018	0.247552
C26	C	1.242597	-0.551471	0.231245
C27	C	1.152136	-0.576494	0.282259
C28	C	1.097342	-0.529054	0.349572
C29	C	1.133003	-0.456590	0.365858
C30	C	0.814110	-0.283872	0.697470
C31	C	0.759314	-0.236435	0.764789
C32	C	0.794974	-0.163980	0.781106
C33	C	0.885437	-0.138960	0.730112
C34	C	0.940233	-0.186397	0.662793
C35	C	0.904566	-0.258851	0.646474
C36	C	1.518122	-0.550666	0.506120
C37	C	1.518161	-0.633212	0.506142
C38	C	1.448114	-0.882043	0.576314
C39	C	1.543916	-0.832570	0.602093
C40	C	1.518379	-0.930332	0.506200
C41	C	1.422476	-0.832723	0.480443
C42	C	1.518267	-0.784347	0.506174
C43	C	1.614232	-0.881946	0.532029
C44	C	1.492728	-0.882104	0.410334
C45	C	1.588595	-0.832654	0.436076
C46	C	1.518443	-1.014430	0.506218
C47	C	1.518215	-0.700250	0.506156
C48	C	1.792288	-0.357727	0.506172
C49	C	1.909065	-0.357732	0.506181
C50	C	1.518334	-0.357642	0.780185
C51	C	1.518367	-0.357612	0.896962
C52	C	1.518418	-0.164008	0.506206
C53	C	1.518487	-0.081462	0.506229
C54	C	1.518237	-0.357731	0.233184
C55	C	1.518407	-0.357552	0.116408
C56	C	1.585608	-0.310109	0.951844
C57	C	1.585626	-0.310077	1.061568
C58	C	1.451159	-0.405058	1.061518
C59	C	1.451137	-0.405085	0.951796
C60	C	1.623270	-0.222456	1.211550
C61	C	1.690528	-0.174959	1.266436
C62	C	1.793045	-0.163573	1.230845
C63	C	1.828325	-0.199693	1.140370
C64	C	1.761073	-0.247196	1.085490
C65	C	1.658542	-0.258568	1.121079
C66	C	1.413503	-0.492707	0.801812
C67	C	1.346256	-0.540214	0.746930
C68	C	1.243737	-0.551608	0.782519
C69	C	1.208461	-0.515500	0.872997
C70	C	1.275708	-0.467994	0.927879
C71	C	1.378226	-0.456598	0.892283
H72	H	1.023693	-0.549428	0.391108
H73	H	1.648036	-0.811105	0.376771
H74	H	1.471044	-0.903877	0.329296
H75	H	1.695312	-0.903480	0.553897
H76	H	1.539791	-0.231717	1.240532
H77	H	1.341419	-0.811097	0.458669
H78	H	1.661793	-0.145550	1.340102
N79	N	1.571053	-0.805271	0.703786
N80	N	1.508457	-0.764792	0.752744
H81	H	1.527612	-0.745514	0.824569
N82	N	1.115725	-0.650508	0.265588
N83	N	1.091311	-0.671482	0.175443
H84	H	1.065592	-0.723756	0.163664
N85	N	1.129811	-0.261804	0.642194
N86	N	1.191047	-0.214445	0.605336
H87	H	1.230670	-0.180211	0.653877
N88	N	1.861756	-0.115049	1.286885
N89	N	1.953291	-0.104887	1.255096
H90	H	2.001814	-0.070613	1.294673
N91	N	1.298587	-0.599927	0.162499
N92	N	1.379352	-0.577581	0.116967
H93	H	1.418900	-0.611799	0.068411
N94	N	1.654286	-0.261612	0.895847
N95	N	1.714316	-0.219201	0.944868
H96	H	1.762820	-0.184948	0.905324
N97	N	0.666895	-0.261984	0.816869
N98	N	0.581333	-0.230006	0.801846
H99	H	0.516061	-0.248048	0.838626
H100	H	1.014032	-0.166075	0.621462
H101	H	1.396424	-0.443711	1.106178
H102	H	1.188989	-0.590299	0.737829
N103	N	1.370658	-0.453448	0.195455
N104	N	1.402485	-0.388751	0.210010
H105	H	1.467744	-0.370695	0.173220
N106	N	1.259891	-0.357559	0.331484
N107	N	1.340658	-0.335233	0.285935
H108	H	1.366394	-0.282960	0.297677
H109	H	0.914475	-0.079962	0.743400
N110	N	0.738998	-0.115536	0.849890
N111	N	0.658239	-0.137883	0.895431
H112	H	0.618709	-0.103670	0.944008
H113	H	1.374991	-0.569621	0.673264
N114	N	1.797116	-0.284088	0.993083
N115	N	1.888658	-0.273921	0.961316
H116	H	1.914116	-0.299973	0.896049
H117	H	1.911809	-0.190424	1.111404
H118	H	0.785067	-0.342871	0.684191
N119	N	1.239662	-0.431117	1.020304
N120	N	1.148125	-0.441297	1.052076
H121	H	1.122667	-0.415254	1.117351
H122	H	1.124983	-0.524780	0.901978
N123	N	1.373728	-0.909241	0.650773
N124	N	1.383320	-0.893338	0.745653
H125	H	1.330789	-0.912547	0.798243
N126	N	1.518221	-0.481051	0.765446
N127	N	1.533766	-0.454702	0.676217
H128	H	1.607723	-0.446471	0.650533
N129	N	0.907777	-0.453636	0.370121
N130	N	0.956720	-0.495982	0.310023
H131	H	0.917114	-0.530216	0.261467
