data_functionalizedCrystal
_audit_creation_method	'MofGen! by Chris Wilmer'
_symmetry_space_group_name_H-M	'P1'
_symmetry_Int_Tables_number	1
_symmetry_cell_setting	triclinic
loop_
_symmetry_equiv_pos_as_xyz
  x,y,z
_cell_length_a	29.839134
_cell_length_b	29.839131
_cell_length_c	29.839125
_cell_angle_alpha	89.982291
_cell_angle_beta	89.978020
_cell_angle_gamma	90.036281
loop_
_atom_site_label
_atom_site_type_symbol
_atom_site_fract_x
_atom_site_fract_y
_atom_site_fract_z
Zn1	Zn	0.686720	-0.178978	-0.254125
Zn2	Zn	1.020053	0.154355	0.079208
Zn3	Zn	1.353386	0.487689	0.412542
Zn4	Zn	0.686652	-0.254090	-0.178995
Zn5	Zn	1.019985	0.079243	0.154338
Zn6	Zn	1.353318	0.412577	0.487672
Zn7	Zn	0.611602	-0.178968	-0.178995
Zn8	Zn	0.944936	0.154365	0.154339
Zn9	Zn	1.278269	0.487699	0.487672
Zn10	Zn	0.611550	-0.254075	-0.254083
Zn11	Zn	0.944883	0.079258	0.079250
Zn12	Zn	1.278217	0.412592	0.412583
O13	O	0.649131	-0.216528	-0.216549
O14	O	0.982464	0.116806	0.116784
O15	O	1.315798	0.450139	0.450117
O16	O	0.749578	-0.188952	-0.244176
O17	O	1.082911	0.144381	0.089157
O18	O	1.416244	0.477715	0.422490
O19	O	0.676690	-0.244127	-0.116128
O20	O	1.010023	0.089206	0.217206
O21	O	1.343356	0.422540	0.550539
O22	O	0.621617	-0.116102	-0.188978
O23	O	0.954950	0.217231	0.144355
O24	O	1.288284	0.550564	0.477689
O25	O	0.749528	-0.244137	-0.188979
O26	O	1.082861	0.089197	0.144355
O27	O	1.416195	0.422530	0.477688
O28	O	0.676805	-0.116109	-0.244176
O29	O	1.010139	0.217224	0.089157
O30	O	1.343472	0.550557	0.422491
O31	O	0.621551	-0.188935	-0.116127
O32	O	0.954885	0.144398	0.217206
O33	O	1.288218	0.477731	0.550539
O34	O	0.548728	-0.188921	-0.188938
O35	O	0.882062	0.144413	0.144396
O36	O	1.215395	0.477746	0.477729
O37	O	0.621528	-0.244111	-0.316956
O38	O	0.954861	0.089222	0.016377
O39	O	1.288195	0.422556	0.349711
O40	O	0.548690	-0.244101	-0.244105
O41	O	0.882023	0.089232	0.089228
O42	O	1.215357	0.422565	0.422562
O43	O	0.676755	-0.188937	-0.316987
O44	O	1.010088	0.144396	0.016347
O45	O	1.343421	0.477729	0.349680
O46	O	0.676639	-0.316955	-0.188938
O47	O	1.009972	0.016378	0.144395
O48	O	1.343306	0.349712	0.477728
O49	O	0.621462	-0.316944	-0.244105
O50	O	0.954796	0.016389	0.089228
O51	O	1.288129	0.349723	0.422561
C52	C	0.532408	-0.216509	-0.216517
C53	C	0.865742	0.116825	0.116816
C54	C	1.199075	0.450158	0.450150
C55	C	0.482474	-0.216511	-0.216514
C56	C	0.815807	0.116822	0.116819
C57	C	1.149141	0.450155	0.450153
C58	C	0.172820	-0.245303	-0.245240
C59	C	0.506153	0.088031	0.088093
C60	C	0.839487	0.421364	0.421427
C61	C	-0.014853	-0.245315	-0.245260
C62	C	0.318480	0.088018	0.088073
C63	C	0.651814	0.421351	0.421407
O64	O	-0.039127	-0.269774	-0.269665
O65	O	0.294207	0.063560	0.063669
O66	O	0.627540	0.396893	0.397002
N67	N	-0.038311	-0.216544	-0.216583
N68	N	0.295022	0.116789	0.116750
N69	N	0.628356	0.450123	0.450083
C70	C	-0.014848	-0.187766	-0.187902
C71	C	0.318485	0.145568	0.145432
C72	C	0.651819	0.478901	0.478765
O73	O	-0.039107	-0.163291	-0.163514
O74	O	0.294226	0.170042	0.169819
O75	O	0.627560	0.503376	0.503152
C76	C	0.172824	-0.187751	-0.187884
C77	C	0.506157	0.145582	0.145449
C78	C	0.839491	0.478916	0.478782
C79	C	0.196280	-0.216527	-0.216560
C80	C	0.529613	0.116806	0.116774
C81	C	0.862946	0.450139	0.450107
C82	C	0.196276	-0.274076	-0.273913
C83	C	0.529609	0.059257	0.059420
C84	C	0.862942	0.392590	0.392753
C85	C	0.243191	-0.274075	-0.273906
C86	C	0.576525	0.059259	0.059427
C87	C	0.909858	0.392592	0.392760
C88	C	0.266651	-0.245299	-0.245226
C89	C	0.599984	0.088034	0.088107
C90	C	0.933318	0.421367	0.421441
C91	C	0.243195	-0.216526	-0.216553
C92	C	0.576529	0.116808	0.116781
C93	C	0.909862	0.450141	0.450114
C94	C	0.196286	-0.158971	-0.159205
C95	C	0.529620	0.174363	0.174128
C96	C	0.862953	0.507696	0.507461
C97	C	0.243207	-0.158969	-0.159204
C98	C	0.576541	0.174365	0.174129
C99	C	0.909874	0.507698	0.507462
C100	C	0.266663	-0.187745	-0.187880
C101	C	0.599996	0.145588	0.145454
C102	C	0.933330	0.478922	0.478787
C103	C	0.313570	-0.187749	-0.187865
C104	C	0.646904	0.145585	0.145468
C105	C	0.980237	0.478918	0.478801
N106	N	0.337029	-0.216520	-0.216542
N107	N	0.670362	0.116814	0.116791
N108	N	1.003695	0.450147	0.450125
C109	C	0.313569	-0.245295	-0.245222
C110	C	0.646902	0.088038	0.088111
C111	C	0.980235	0.421372	0.421444
C112	C	-0.113379	-0.187776	-0.187912
C113	C	0.219955	0.145557	0.145421
C114	C	0.553288	0.478891	0.478754
C115	C	-0.160297	-0.187780	-0.187916
C116	C	0.173037	0.145553	0.145417
C117	C	0.506370	0.478887	0.478751
C118	C	-0.160298	-0.245329	-0.245275
C119	C	0.173035	0.088004	0.088058
C120	C	0.506368	0.421337	0.421392
C121	C	-0.113380	-0.245327	-0.245269
C122	C	0.219954	0.088006	0.088065
C123	C	0.553287	0.421339	0.421398
C124	C	-0.089921	-0.216547	-0.216589
C125	C	0.243413	0.116786	0.116744
C126	C	0.576746	0.450119	0.450078
C127	C	0.412095	-0.245290	-0.245205
C128	C	0.745428	0.088044	0.088128
C129	C	1.078761	0.421377	0.421462
C130	C	0.459014	-0.245287	-0.245194
C131	C	0.792348	0.088047	0.088139
C132	C	1.125681	0.421380	0.421472
C133	C	0.459012	-0.187736	-0.187837
C134	C	0.792345	0.145597	0.145496
C135	C	1.125678	0.478931	0.478830
C136	C	0.412096	-0.187740	-0.187846
C137	C	0.745430	0.145593	0.145487
C138	C	1.078763	0.478926	0.478821
C139	C	0.388639	-0.216519	-0.216534
C140	C	0.721972	0.116815	0.116800
C141	C	1.055306	0.450148	0.450133
O142	O	0.337873	-0.163299	-0.163477
O143	O	0.671206	0.170034	0.169856
O144	O	1.004540	0.503367	0.503190
O145	O	0.337836	-0.269759	-0.269613
O146	O	0.671169	0.063574	0.063720
O147	O	1.004502	0.396908	0.397054
C148	C	0.125905	-0.245304	-0.245247
C149	C	0.459238	0.088029	0.088086
C150	C	0.792571	0.421362	0.421420
C151	C	0.102449	-0.216531	-0.216574
C152	C	0.435782	0.116803	0.116760
C153	C	0.769116	0.450136	0.450093
C154	C	0.125909	-0.187755	-0.187893
C155	C	0.459242	0.145578	0.145440
C156	C	0.792575	0.478911	0.478773
C157	C	0.055531	-0.216535	-0.216577
C158	C	0.388864	0.116798	0.116756
C159	C	0.722198	0.450132	0.450089
C160	C	0.032071	-0.245310	-0.245258
C161	C	0.365405	0.088023	0.088076
C162	C	0.698738	0.421356	0.421409
C163	C	0.055529	-0.274082	-0.273934
C164	C	0.388863	0.059252	0.059399
C165	C	0.722196	0.392585	0.392732
C166	C	0.102445	-0.274080	-0.273927
C167	C	0.435778	0.059253	0.059406
C168	C	0.769112	0.392587	0.392739
C169	C	0.102451	-0.158984	-0.159217
C170	C	0.435784	0.174349	0.174117
C171	C	0.769117	0.507682	0.507450
C172	C	0.055535	-0.158989	-0.159226
C173	C	0.388868	0.174345	0.174108
C174	C	0.722202	0.507678	0.507441
C175	C	0.032075	-0.187764	-0.187906
C176	C	0.365409	0.145569	0.145427
C177	C	0.698742	0.478903	0.478761
C178	C	0.649050	-0.333250	-0.216527
C179	C	0.982383	0.000083	0.116806
C180	C	1.315717	0.333416	0.450139
C181	C	0.649056	-0.383185	-0.216533
C182	C	0.982390	-0.049851	0.116801
C183	C	1.315723	0.283482	0.450134
C184	C	0.677914	-0.692821	-0.187866
C185	C	1.011247	-0.359488	0.145467
C186	C	1.344580	-0.026155	0.478801
C187	C	0.677969	-0.880494	-0.187883
C188	C	1.011303	-0.547161	0.145450
C189	C	1.344636	-0.213828	0.478783
O190	O	0.702441	-0.904753	-0.163493
O191	O	1.035774	-0.571420	0.169841
O192	O	1.369107	-0.238087	0.503174
N193	N	0.649224	-0.903970	-0.216583
N194	N	0.982557	-0.570636	0.116750
N195	N	1.315891	-0.237303	0.450083
C196	C	0.620465	-0.880524	-0.245283
C197	C	0.953799	-0.547191	0.088050
C198	C	1.287132	-0.213857	0.421384
O199	O	0.596020	-0.904798	-0.269698
O200	O	0.929354	-0.571464	0.063635
O201	O	1.262687	-0.238131	0.396969
C202	C	0.620412	-0.692852	-0.245268
C203	C	0.953746	-0.359519	0.088066
C204	C	1.287079	-0.026185	0.421399
C205	C	0.649156	-0.669379	-0.216563
C206	C	0.982489	-0.336045	0.116771
C207	C	1.315823	-0.002712	0.450104
C208	C	0.706656	-0.669348	-0.159164
C209	C	1.039989	-0.336015	0.174170
C210	C	1.373322	-0.002681	0.507503
C211	C	0.706640	-0.622433	-0.159158
C212	C	1.039973	-0.289099	0.174176
C213	C	1.373306	0.044234	0.507509
C214	C	0.677882	-0.598990	-0.187854
C215	C	1.011215	-0.265657	0.145479
C216	C	1.344549	0.067676	0.478812
C217	C	0.649140	-0.622463	-0.216557
C218	C	0.982474	-0.289130	0.116777
C219	C	1.315807	0.044203	0.450110
C220	C	0.591656	-0.669407	-0.273969
C221	C	0.924989	-0.336074	0.059364
C222	C	1.258323	-0.002740	0.392697
C223	C	0.591646	-0.622486	-0.273964
C224	C	0.924979	-0.289153	0.059370
C225	C	1.258313	0.044181	0.392703
C226	C	0.620390	-0.599013	-0.245259
C227	C	0.953723	-0.265680	0.088075
C228	C	1.287057	0.067654	0.421408
C229	C	0.620367	-0.552106	-0.245248
C230	C	0.953700	-0.218772	0.088086
C231	C	1.287033	0.114561	0.421419
N232	N	0.649112	-0.528630	-0.216548
N233	N	0.982445	-0.195297	0.116786
N234	N	1.315778	0.138037	0.450119
C235	C	0.677869	-0.552072	-0.187851
C236	C	1.011203	-0.218739	0.145482
C237	C	1.344536	0.114594	0.478816
C238	C	0.620494	-0.979055	-0.245289
C239	C	0.953828	-0.645721	0.088045
C240	C	1.287161	-0.312388	0.421378
C241	C	0.620507	-1.025973	-0.245292
C242	C	0.953840	-0.692639	0.088041
C243	C	1.287174	-0.359306	0.421375
C244	C	0.678012	-1.025939	-0.187893
C245	C	1.011345	-0.692606	0.145441
C246	C	1.344678	-0.359273	0.478774
C247	C	0.677996	-0.979021	-0.187887
C248	C	1.011330	-0.645687	0.145446
C249	C	1.344663	-0.312354	0.478779
C250	C	0.649239	-0.955579	-0.216589
C251	C	0.982573	-0.622246	0.116745
C252	C	1.315906	-0.288913	0.450078
C253	C	0.677834	-0.453547	-0.187841
C254	C	1.011167	-0.120213	0.145493
C255	C	1.344500	0.213120	0.478826
C256	C	0.677814	-0.406627	-0.187836
C257	C	1.011147	-0.073294	0.145497
C258	C	1.344481	0.260040	0.478831
C259	C	0.620311	-0.406664	-0.245237
C260	C	0.953644	-0.073331	0.088097
C261	C	1.286978	0.260002	0.421430
C262	C	0.620329	-0.453580	-0.245240
C263	C	0.953662	-0.120246	0.088093
C264	C	1.286996	0.213087	0.421427
C265	C	0.649094	-0.477020	-0.216540
C266	C	0.982427	-0.143686	0.116793
C267	C	1.315761	0.189647	0.450126
O268	O	0.595912	-0.527818	-0.269629
O269	O	0.929245	-0.194484	0.063704
O270	O	1.262578	0.138849	0.397038
O271	O	0.702318	-0.527791	-0.163447
O272	O	1.035651	-0.194457	0.169886
O273	O	1.368984	0.138876	0.503220
C274	C	0.677930	-0.739737	-0.187872
C275	C	1.011263	-0.406403	0.145462
C276	C	1.344596	-0.073070	0.478795
C277	C	0.649188	-0.763210	-0.216574
C278	C	0.982521	-0.429876	0.116759
C279	C	1.315855	-0.096543	0.450093
C280	C	0.620430	-0.739767	-0.245271
C281	C	0.953764	-0.406434	0.088063
C282	C	1.287097	-0.073101	0.421396
C283	C	0.649200	-0.810128	-0.216578
C284	C	0.982534	-0.476794	0.116756
C285	C	1.315867	-0.143461	0.450089
C286	C	0.677958	-0.833570	-0.187881
C287	C	1.011291	-0.500237	0.145452
C288	C	1.344625	-0.166903	0.478786
C289	C	0.706703	-0.810094	-0.159181
C290	C	1.040037	-0.476761	0.174152
C291	C	1.373370	-0.143428	0.507486
C292	C	0.706687	-0.763179	-0.159175
C293	C	1.040021	-0.429846	0.174158
C294	C	1.373354	-0.096512	0.507492
C295	C	0.591685	-0.763243	-0.273971
C296	C	0.925018	-0.429910	0.059363
C297	C	1.258352	-0.096576	0.392696
C298	C	0.591703	-0.810158	-0.273974
C299	C	0.925036	-0.476825	0.059360
C300	C	1.258370	-0.143492	0.392693
C301	C	0.620461	-0.833601	-0.245277
C302	C	0.953794	-0.500267	0.088056
C303	C	1.287127	-0.166934	0.421389
C304	C	0.766309	-0.216547	-0.216582
C305	C	1.099643	0.116786	0.116751
C306	C	1.432976	0.450120	0.450084
C307	C	0.816244	-0.216555	-0.216596
C308	C	1.149577	0.116778	0.116737
C309	C	1.482910	0.450111	0.450070
C310	C	0.649143	-0.216524	-0.333728
C311	C	0.982476	0.116810	-0.000395
C312	C	1.315810	0.450143	0.332939
C313	C	0.649148	-0.216522	-0.383662
C314	C	0.982482	0.116811	-0.050329
C315	C	1.315815	0.450145	0.283004
C316	C	0.649225	-0.099349	-0.216582
C317	C	0.982558	0.233984	0.116752
C318	C	1.315891	0.567317	0.450085
C319	C	0.649265	-0.049415	-0.216595
C320	C	0.982598	0.283918	0.116738
C321	C	1.315931	0.617252	0.450071
C322	C	0.677935	-0.187718	-0.693325
C323	C	1.011268	0.145615	-0.359991
C324	C	1.344602	0.478949	-0.026658
C325	C	0.677957	-0.187680	-0.880998
C326	C	1.011291	0.145654	-0.547665
C327	C	1.344624	0.478987	-0.214331
O328	O	0.702399	-0.163232	-0.905279
O329	O	1.035733	0.170101	-0.571946
O330	O	1.369066	0.503435	-0.238612
N331	N	0.649208	-0.216402	-0.904448
N332	N	0.982541	0.116932	-0.571114
N333	N	1.315875	0.450265	-0.237781
C334	C	0.620449	-0.245133	-0.880976
C335	C	0.953782	0.088200	-0.547643
C336	C	1.287115	0.421533	-0.214310
O337	O	0.595993	-0.269559	-0.905228
O338	O	0.929326	0.063774	-0.571895
O339	O	1.262659	0.397108	-0.238561
C340	C	0.620424	-0.245169	-0.693304
C341	C	0.953758	0.088164	-0.359971
C342	C	1.287091	0.421498	-0.026637
C343	C	0.649179	-0.216448	-0.669857
C344	C	0.982512	0.116885	-0.336523
C345	C	1.315846	0.450218	-0.003190
C346	C	0.706687	-0.158999	-0.669877
C347	C	1.040020	0.174334	-0.336544
C348	C	1.373354	0.507667	-0.003211
C349	C	0.706683	-0.159011	-0.622962
C350	C	1.040016	0.174323	-0.289629
C351	C	1.373349	0.507656	0.043705
C352	C	0.677927	-0.187741	-0.599494
C353	C	1.011260	0.145592	-0.266160
C354	C	1.344593	0.478926	0.067173
C355	C	0.649175	-0.216460	-0.622941
C356	C	0.982508	0.116874	-0.289608
C357	C	1.315842	0.450207	0.043726
C358	C	0.591663	-0.273898	-0.669833
C359	C	0.924997	0.059435	-0.336500
C360	C	1.258330	0.392769	-0.003167
C361	C	0.591659	-0.273903	-0.622912
C362	C	0.924992	0.059430	-0.289579
C363	C	1.258326	0.392763	0.043754
C364	C	0.620414	-0.245183	-0.599465
C365	C	0.953747	0.088151	-0.266132
C366	C	1.287080	0.421484	0.067202
C367	C	0.620415	-0.245202	-0.552558
C368	C	0.953748	0.088132	-0.219224
C369	C	1.287081	0.421465	0.114109
N370	N	0.649164	-0.216480	-0.529108
N371	N	0.982498	0.116854	-0.195774
N372	N	1.315831	0.450187	0.137559
C373	C	0.677920	-0.187749	-0.552576
C374	C	1.011254	0.145584	-0.219243
C375	C	1.344587	0.478917	0.114091
C376	C	0.620464	-0.245113	-0.979507
C377	C	0.953797	0.088220	-0.646173
C378	C	1.287131	0.421554	-0.312840
C379	C	0.620471	-0.245105	-1.026425
C380	C	0.953804	0.088229	-0.693091
C381	C	1.287137	0.421562	-0.359758
C382	C	0.677979	-0.187650	-1.026443
C383	C	1.011312	0.145683	-0.693110
C384	C	1.344645	0.479016	-0.359777
C385	C	0.677974	-0.187661	-0.979524
C386	C	1.011308	0.145672	-0.646191
C387	C	1.344641	0.479005	-0.312858
C388	C	0.649214	-0.216391	-0.956057
C389	C	0.982547	0.116942	-0.622724
C390	C	1.315880	0.450276	-0.289390
C391	C	0.677910	-0.187776	-0.454050
C392	C	1.011243	0.145557	-0.120717
C393	C	1.344576	0.478891	0.212617
C394	C	0.677904	-0.187792	-0.407130
C395	C	1.011238	0.145542	-0.073797
C396	C	1.344571	0.478875	0.259536
C397	C	0.620395	-0.245244	-0.407116
C398	C	0.953728	0.088089	-0.073783
C399	C	1.287061	0.421423	0.259551
C400	C	0.620401	-0.245230	-0.454032
C401	C	0.953735	0.088103	-0.120698
C402	C	1.287068	0.421436	0.212635
C403	C	0.649161	-0.216493	-0.477497
C404	C	0.982494	0.116840	-0.144164
C405	C	1.315827	0.450174	0.189169
O406	O	0.595982	-0.269633	-0.528248
O407	O	0.929315	0.063700	-0.194914
O408	O	1.262649	0.397034	0.138419
O409	O	0.702366	-0.163320	-0.528316
O410	O	1.035699	0.170013	-0.194983
O411	O	1.369032	0.503346	0.138350
C412	C	0.677939	-0.187706	-0.740240
C413	C	1.011273	0.145627	-0.406907
C414	C	1.344606	0.478960	-0.073574
C415	C	0.649187	-0.216425	-0.763688
C416	C	0.982521	0.116908	-0.430354
C417	C	1.315854	0.450242	-0.097021
C418	C	0.620431	-0.245155	-0.740219
C419	C	0.953765	0.088178	-0.406886
C420	C	1.287098	0.421511	-0.073553
C421	C	0.649194	-0.216417	-0.810605
C422	C	0.982527	0.116917	-0.477272
C423	C	1.315861	0.450250	-0.143939
C424	C	0.677950	-0.187686	-0.834074
C425	C	1.011283	0.145647	-0.500740
C426	C	1.344617	0.478980	-0.167407
C427	C	0.706699	-0.158964	-0.810624
C428	C	1.040033	0.174369	-0.477291
C429	C	1.373366	0.507702	-0.143957
C430	C	0.706695	-0.158976	-0.763708
C431	C	1.040029	0.174357	-0.430375
C432	C	1.373362	0.507691	-0.097042
C433	C	0.591682	-0.273877	-0.763669
C434	C	0.925015	0.059456	-0.430336
C435	C	1.258349	0.392789	-0.097002
C436	C	0.591689	-0.273864	-0.810585
C437	C	0.925022	0.059470	-0.477251
C438	C	1.258355	0.392803	-0.143918
C439	C	0.620445	-0.245133	-0.834053
C440	C	0.953778	0.088200	-0.500719
C441	C	1.287111	0.421533	-0.167386
C442	C	0.649145	-0.216499	-0.099827
C443	C	0.982478	0.116834	0.233506
C444	C	1.315811	0.450167	0.566840
C445	C	0.649227	-0.216374	-0.049893
C446	C	0.982560	0.116959	0.283440
C447	C	1.315893	0.450292	0.616774
H448	H	0.262305	-0.135529	-0.135852
H449	H	0.595638	0.197804	0.197481
H450	H	0.928972	0.531137	0.530815
O451	O	0.389291	-0.273181	-0.273118
O452	O	0.722625	0.060152	0.060215
O453	O	1.055958	0.393486	0.393549
C454	C	0.336333	-0.279330	-0.333754
C455	C	0.669666	0.054003	-0.000421
C456	C	1.002999	0.387336	0.332913
C457	C	0.362138	-0.247690	-0.302182
C458	C	0.695471	0.085643	0.031152
C459	C	1.028804	0.418976	0.364485
H460	H	0.314366	-0.258734	-0.357254
H461	H	0.647699	0.074599	-0.023921
H462	H	0.981032	0.407933	0.309413
H463	H	0.361141	-0.299886	-0.354277
H464	H	0.694475	0.033447	-0.020944
H465	H	1.027808	0.366781	0.312390
H466	H	0.314363	-0.302800	-0.313079
H467	H	0.647697	0.030533	0.020254
H468	H	0.981030	0.363866	0.353587
H469	H	0.384108	-0.224193	-0.322822
H470	H	0.717441	0.109140	0.010511
H471	H	1.050775	0.442474	0.343845
H472	H	0.337305	-0.227166	-0.281657
H473	H	0.670638	0.106167	0.051676
H474	H	1.003972	0.439501	0.385009
O475	O	0.481848	-0.273177	-0.273075
O476	O	0.815181	0.060156	0.060258
O477	O	1.148514	0.393489	0.393592
C478	C	0.534822	-0.279310	-0.333733
C479	C	0.868155	0.054024	-0.000400
C480	C	1.201489	0.387357	0.332934
C481	C	0.509002	-0.247676	-0.302180
C482	C	0.842335	0.085657	0.031154
C483	C	1.175669	0.418991	0.364487
H484	H	0.556775	-0.258704	-0.357278
H485	H	0.890108	0.074629	-0.023945
H486	H	1.223442	0.407963	0.309388
H487	H	0.556793	-0.302763	-0.313089
H488	H	0.890127	0.030570	0.020245
H489	H	1.223460	0.363903	0.353578
H490	H	0.509983	-0.299884	-0.354212
H491	H	0.843316	0.033449	-0.020879
H492	H	1.176650	0.366783	0.312454
H493	H	0.533808	-0.227073	-0.281694
H494	H	0.867142	0.106261	0.051640
H495	H	1.200475	0.439594	0.384973
H496	H	0.487024	-0.224252	-0.322850
H497	H	0.820357	0.109081	0.010483
H498	H	1.153690	0.442415	0.343817
H499	H	0.036441	-0.135556	-0.135871
H500	H	0.369775	0.197777	0.197463
H501	H	0.703108	0.531111	0.530796
H502	H	0.730076	-0.688430	-0.135795
H503	H	1.063409	-0.355097	0.197538
H504	H	1.396743	-0.021763	0.530871
H505	H	0.568233	-0.297294	-0.603808
H506	H	0.901567	0.036039	-0.270474
H507	H	1.234900	0.369372	0.062859
O508	O	0.592645	-1.048820	-0.273195
O509	O	0.925978	-0.715487	0.060138
O510	O	1.259311	-0.382154	0.393471
C511	C	0.586573	-1.101746	-0.333872
C512	C	0.919906	-0.768412	-0.000539
C513	C	1.253239	-0.435079	0.332795
C514	C	0.618175	-1.075909	-0.302289
C515	C	0.951509	-0.742576	0.031045
C516	C	1.284842	-0.409242	0.364378
H517	H	0.607202	-1.123646	-0.357408
H518	H	0.940535	-0.790313	-0.024075
H519	H	1.273869	-0.456979	0.309258
H520	H	0.563107	-1.123772	-0.313251
H521	H	0.896440	-0.790438	0.020083
H522	H	1.229774	-0.457105	0.353416
H523	H	0.566010	-1.076918	-0.354360
H524	H	0.899343	-0.743585	-0.021027
H525	H	1.232676	-0.410251	0.312307
H526	H	0.638767	-1.100705	-0.281794
H527	H	0.972101	-0.767371	0.051539
H528	H	1.305434	-0.434038	0.384872
H529	H	0.641611	-1.053876	-0.322936
H530	H	0.974945	-0.720543	0.010397
H531	H	1.308278	-0.387210	0.343731
O532	O	0.032715	-0.301969	-0.301843
O533	O	0.366048	0.031364	0.031490
O534	O	0.699382	0.364698	0.364823
C535	C	-0.020258	-0.308094	-0.362469
C536	C	0.313075	0.025239	-0.029136
C537	C	0.646409	0.358572	0.304197
C538	C	0.005562	-0.276466	-0.330898
C539	C	0.338896	0.056867	0.002436
C540	C	0.672229	0.390200	0.335769
H541	H	-0.042224	-0.287489	-0.385961
H542	H	0.291109	0.045844	-0.052628
H543	H	0.624442	0.379178	0.280705
H544	H	0.004541	-0.328654	-0.383001
H545	H	0.337874	0.004679	-0.049667
H546	H	0.671207	0.338013	0.283666
H547	H	-0.042229	-0.331562	-0.341793
H548	H	0.291104	0.001772	-0.008460
H549	H	0.624437	0.335105	0.324873
H550	H	0.027535	-0.252972	-0.351539
H551	H	0.360868	0.080361	-0.018206
H552	H	0.694201	0.413695	0.315128
H553	H	-0.019260	-0.255938	-0.310365
H554	H	0.314073	0.077395	0.022968
H555	H	0.647406	0.410728	0.356302
O556	O	0.592479	-0.272961	-0.956693
O557	O	0.925812	0.060373	-0.623359
O558	O	1.259146	0.393706	-0.290026
C559	C	0.531827	-0.279014	-0.903690
C560	C	0.865160	0.054319	-0.570357
C561	C	1.198493	0.387652	-0.237024
C562	C	0.563482	-0.247424	-0.929505
C563	C	0.896815	0.085909	-0.596172
C564	C	1.230149	0.419242	-0.262839
H565	H	0.508381	-0.258382	-0.881696
H566	H	0.841714	0.074952	-0.548363
H567	H	1.175048	0.408285	-0.215029
H568	H	0.511250	-0.299532	-0.928493
H569	H	0.844583	0.033801	-0.595159
H570	H	1.177916	0.367134	-0.261826
H571	H	0.552440	-0.302522	-0.881747
H572	H	0.885773	0.030811	-0.548414
H573	H	1.219106	0.364145	-0.215081
H574	H	0.542904	-0.223890	-0.951449
H575	H	0.876237	0.109444	-0.618116
H576	H	1.209570	0.442777	-0.284782
H577	H	0.584060	-0.226938	-0.904679
H578	H	0.917394	0.106395	-0.571346
H579	H	1.250727	0.439729	-0.238012
H580	H	0.730115	-0.135573	-0.829740
H581	H	1.063448	0.197761	-0.496407
H582	H	1.396782	0.531094	-0.163073
H583	H	0.568265	-0.297274	-0.744566
H584	H	0.901599	0.036059	-0.411233
H585	H	1.234932	0.369393	-0.077899
O586	O	0.125247	-0.302078	-0.301721
O587	O	0.458580	0.031255	0.031612
O588	O	0.791914	0.364589	0.364945
C589	C	0.178201	-0.362724	-0.307661
C590	C	0.511535	-0.029391	0.025672
C591	C	0.844868	0.303943	0.359005
C592	C	0.152402	-0.331051	-0.276130
C593	C	0.485735	0.002282	0.057203
C594	C	0.819069	0.335615	0.390536
H595	H	0.200170	-0.386151	-0.286984
H596	H	0.533503	-0.052817	0.046349
H597	H	0.866836	0.280516	0.379683
H598	H	0.153389	-0.383321	-0.328151
H599	H	0.486722	-0.049987	0.005182
H600	H	0.820056	0.283346	0.338515
H601	H	0.200169	-0.342123	-0.331198
H602	H	0.533502	-0.008790	0.002136
H603	H	0.866836	0.324543	0.335469
H604	H	0.130434	-0.351617	-0.252567
H605	H	0.463767	-0.018284	0.080767
H606	H	0.797100	0.315049	0.414100
H607	H	0.177239	-0.310453	-0.255672
H608	H	0.510572	0.022880	0.077662
H609	H	0.843905	0.356213	0.410995
H610	H	-0.094285	-0.268759	-0.268619
H611	H	0.239048	0.064575	0.064714
H612	H	0.572382	0.397908	0.398047
H613	H	-0.179407	-0.268759	-0.268628
H614	H	0.153926	0.064574	0.064706
H615	H	0.487260	0.397907	0.398039
H616	H	0.262285	-0.297506	-0.297258
H617	H	0.595618	0.035827	0.036076
H618	H	0.928951	0.369160	0.369409
O619	O	0.173541	-0.302011	-0.301837
O620	O	0.506874	0.031323	0.031496
O621	O	0.840208	0.364656	0.364830
C622	C	0.159202	-0.323928	-0.378217
C623	C	0.492535	0.009405	-0.044884
C624	C	0.825869	0.342738	0.288449
C625	C	0.184980	-0.292266	-0.346646
C626	C	0.518314	0.041067	-0.013312
C627	C	0.851647	0.374400	0.320021
H628	H	0.168434	-0.316055	-0.414452
H629	H	0.501768	0.017278	-0.081119
H630	H	0.835101	0.350611	0.252214
H631	H	0.168419	-0.360145	-0.370293
H632	H	0.501752	-0.026812	-0.036960
H633	H	0.835085	0.306521	0.296373
H634	H	0.121640	-0.319004	-0.373277
H635	H	0.454974	0.014329	-0.039944
H636	H	0.788307	0.347663	0.293390
H637	H	0.222548	-0.297151	-0.351568
H638	H	0.555881	0.036183	-0.018235
H639	H	0.889215	0.369516	0.315098
H640	H	0.175726	-0.256061	-0.354577
H641	H	0.509060	0.077272	-0.021244
H642	H	0.842393	0.410606	0.312089
O643	O	0.592403	-0.383935	-0.273177
O644	O	0.925737	-0.050602	0.060157
O645	O	1.259070	0.282732	0.393490
C646	C	0.570576	-0.369537	-0.349575
C647	C	0.903909	-0.036203	-0.016242
C648	C	1.237242	0.297130	0.317092
C649	C	0.602196	-0.395316	-0.317979
C650	C	0.935530	-0.061982	0.015354
C651	C	1.268863	0.271351	0.348687
H652	H	0.578488	-0.378721	-0.385805
H653	H	0.911822	-0.045388	-0.052472
H654	H	1.245155	0.287945	0.280862
H655	H	0.534348	-0.378800	-0.341693
H656	H	0.867681	-0.045467	-0.008360
H657	H	1.201014	0.287866	0.324974
H658	H	0.575502	-0.331975	-0.344615
H659	H	0.908836	0.001358	-0.011281
H660	H	1.242169	0.334692	0.322052
H661	H	0.597310	-0.432883	-0.322922
H662	H	0.930643	-0.099550	0.010411
H663	H	1.263977	0.233783	0.343745
H664	H	0.638413	-0.386015	-0.325869
H665	H	0.971746	-0.052681	0.007464
H666	H	1.305079	0.280652	0.340798
O667	O	0.592357	-0.476403	-0.273056
O668	O	0.925690	-0.143070	0.060277
O669	O	1.259023	0.190264	0.393610
C670	C	0.531734	-0.529451	-0.279049
C671	C	0.865067	-0.196117	0.054284
C672	C	1.198401	0.137216	0.387618
C673	C	0.563374	-0.503629	-0.247491
C674	C	0.896707	-0.170295	0.085842
C675	C	1.230041	0.163038	0.419176
H676	H	0.508300	-0.551476	-0.258392
H677	H	0.841633	-0.218142	0.074941
H678	H	1.174967	0.115191	0.408274
H679	H	0.511144	-0.504653	-0.299548
H680	H	0.844477	-0.171320	0.033786
H681	H	1.177811	0.162014	0.367119
H682	H	0.552360	-0.551363	-0.302576
H683	H	0.885694	-0.218030	0.030757
H684	H	1.219027	0.115303	0.364090
H685	H	0.542783	-0.481715	-0.223937
H686	H	0.876116	-0.148382	0.109397
H687	H	1.209449	0.184951	0.442730
H688	H	0.583965	-0.528450	-0.227024
H689	H	0.917299	-0.195117	0.106309
H690	H	1.250632	0.138216	0.439643
H691	H	0.701427	-1.045034	-0.164527
H692	H	1.034761	-0.711701	0.168806
H693	H	1.368094	-0.378367	0.502140
O694	O	-0.183009	-0.159788	-0.160043
O695	O	0.150324	0.173545	0.173290
O696	O	0.483657	0.506879	0.506624
C697	C	-0.178043	-0.102724	-0.103134
C698	C	0.155291	0.230609	0.230200
C699	C	0.488624	0.563942	0.563533
C700	C	-0.152267	-0.134398	-0.134683
C701	C	0.181066	0.198935	0.198650
C702	C	0.514399	0.532268	0.531984
H703	H	-0.153199	-0.082195	-0.082615
H704	H	0.180134	0.251138	0.250718
H705	H	0.513467	0.584472	0.584051
H706	H	-0.199973	-0.079235	-0.123781
H707	H	0.133361	0.254099	0.209552
H708	H	0.466694	0.587432	0.542885
H709	H	-0.200043	-0.123321	-0.079625
H710	H	0.133290	0.210012	0.253709
H711	H	0.466623	0.543346	0.587042
H712	H	-0.130242	-0.113838	-0.158198
H713	H	0.203091	0.219496	0.175135
H714	H	0.536424	0.552829	0.508468
H715	H	-0.130366	-0.157889	-0.114007
H716	H	0.202968	0.175444	0.219326
H717	H	0.536301	0.508778	0.552659
H718	H	0.568274	-0.297256	-0.829671
H719	H	0.901607	0.036077	-0.496338
H720	H	1.234941	0.369411	-0.163005
H721	H	0.701321	-0.164403	-0.388042
H722	H	1.034655	0.168930	-0.054708
H723	H	1.367988	0.502263	0.278625
O724	O	0.705696	-0.383756	-0.159966
O725	O	1.039029	-0.050423	0.173368
O726	O	1.372362	0.282910	0.506701
C727	C	0.731180	-0.311466	-0.134533
C728	C	1.064513	0.021867	0.198800
C729	C	1.397846	0.355201	0.532134
C730	C	0.699575	-0.337308	-0.166109
C731	C	1.032908	-0.003975	0.167224
C732	C	1.366241	0.329358	0.500557
H733	H	0.726249	-0.273908	-0.139496
H734	H	1.059582	0.059425	0.193838
H735	H	1.392915	0.392758	0.527171
H736	H	0.723318	-0.320682	-0.098291
H737	H	1.056652	0.012651	0.235042
H738	H	1.389985	0.345984	0.568376
H739	H	0.767397	-0.320681	-0.142459
H740	H	1.100730	0.012653	0.190874
H741	H	1.434063	0.345986	0.524208
H742	H	0.663347	-0.328108	-0.158224
H743	H	0.996680	0.005226	0.175110
H744	H	1.330014	0.338559	0.508443
H745	H	0.707474	-0.328090	-0.202342
H746	H	1.040808	0.005243	0.130991
H747	H	1.374141	0.338577	0.464325
H748	H	0.701327	-0.164374	-0.473150
H749	H	1.034660	0.168960	-0.139817
H750	H	1.367993	0.502293	0.193516
O751	O	0.734640	-0.131032	-0.741004
O752	O	1.067973	0.202301	-0.407671
O753	O	1.401307	0.535635	-0.074338
C754	C	0.791698	-0.074064	-0.745992
C755	C	1.125032	0.259270	-0.412659
C756	C	1.458365	0.592603	-0.079326
C757	C	0.760066	-0.105682	-0.771756
C758	C	1.093399	0.227651	-0.438422
C759	C	1.426732	0.560984	-0.105089
H760	H	0.812270	-0.053567	-0.770843
H761	H	1.145604	0.279767	-0.437510
H762	H	1.478937	0.613100	-0.104177
H763	H	0.771113	-0.050541	-0.724037
H764	H	1.104446	0.282792	-0.390703
H765	H	1.437779	0.616125	-0.057370
H766	H	0.815154	-0.094702	-0.724018
H767	H	1.148487	0.238632	-0.390685
H768	H	1.481821	0.571965	-0.057352
H769	H	0.736604	-0.085080	-0.793754
H770	H	1.069937	0.248253	-0.460421
H771	H	1.403271	0.581586	-0.127087
H772	H	0.780679	-0.129206	-0.793683
H773	H	1.114013	0.204128	-0.460350
H774	H	1.447346	0.537461	-0.127017
O775	O	0.563690	-0.692223	-0.301793
O776	O	0.897024	-0.358889	0.031541
O777	O	1.230357	-0.025556	0.364874
C778	C	0.503064	-0.745265	-0.307799
C779	C	0.836397	-0.411931	0.025534
C780	C	1.169731	-0.078598	0.358868
C781	C	0.534700	-0.719447	-0.276234
C782	C	0.868033	-0.386113	0.057099
C783	C	1.201366	-0.052780	0.390433
H784	H	0.479624	-0.767288	-0.287148
H785	H	0.812957	-0.433955	0.046185
H786	H	1.146290	-0.100622	0.379519
H787	H	0.482480	-0.720465	-0.328301
H788	H	0.815814	-0.387131	0.005032
H789	H	1.149147	-0.053798	0.338365
H790	H	0.523693	-0.767179	-0.331323
H791	H	0.857026	-0.433845	0.002010
H792	H	1.190360	-0.100512	0.335344
H793	H	0.514105	-0.697532	-0.252683
H794	H	0.847439	-0.364199	0.080650
H795	H	1.180772	-0.030865	0.413984
H796	H	0.555285	-0.744271	-0.255763
H797	H	0.888618	-0.410937	0.077570
H798	H	1.221951	-0.077604	0.410903
H799	H	0.177197	-0.135539	-0.135854
H800	H	0.510530	0.197794	0.197480
H801	H	0.843863	0.531128	0.530813
O802	O	0.734654	-0.740450	-0.131279
O803	O	1.067987	-0.407117	0.202055
O804	O	1.401320	-0.073783	0.535388
C805	C	0.791672	-0.745387	-0.074329
C806	C	1.125006	-0.412053	0.259005
C807	C	1.458339	-0.078720	0.592338
C808	C	0.760028	-0.771178	-0.105907
C809	C	1.093362	-0.437845	0.227426
C810	C	1.426695	-0.104512	0.560760
H811	H	0.812189	-0.770219	-0.053801
H812	H	1.145523	-0.436886	0.279532
H813	H	1.478856	-0.103553	0.612866
H814	H	0.815175	-0.723404	-0.094954
H815	H	1.148508	-0.390070	0.238379
H816	H	1.481841	-0.056737	0.571712
H817	H	0.771053	-0.723437	-0.050830
H818	H	1.104386	-0.390104	0.282504
H819	H	1.437719	-0.056771	0.615837
H820	H	0.780612	-0.793152	-0.129413
H821	H	1.113945	-0.459819	0.203921
H822	H	1.447279	-0.126485	0.537254
H823	H	0.736525	-0.793133	-0.085254
H824	H	1.069858	-0.459800	0.248080
H825	H	1.403192	-0.126467	0.581413
O826	O	0.592512	-0.956356	-0.273182
O827	O	0.925845	-0.623023	0.060152
O828	O	1.259178	-0.289690	0.393485
C829	C	0.535491	-0.961353	-0.330127
C830	C	0.868824	-0.628020	0.003206
C831	C	1.202157	-0.294686	0.336540
C832	C	0.567153	-0.987112	-0.298557
C833	C	0.900486	-0.653778	0.034777
C834	C	1.233820	-0.320445	0.368110
H835	H	0.514986	-0.986207	-0.350658
H836	H	0.848320	-0.652874	-0.017324
H837	H	1.181653	-0.319541	0.316009
H838	H	0.511977	-0.939431	-0.309495
H839	H	0.845311	-0.606097	0.023838
H840	H	1.178644	-0.272764	0.357172
H841	H	0.556095	-0.939346	-0.353624
H842	H	0.889428	-0.606013	-0.020291
H843	H	1.222762	-0.272680	0.313043
H844	H	0.546585	-1.009143	-0.275054
H845	H	0.879918	-0.675809	0.058280
H846	H	1.213252	-0.342476	0.391613
H847	H	0.590667	-1.009006	-0.319217
H848	H	0.924001	-0.675672	0.014117
H849	H	1.257334	-0.342339	0.347450
H850	H	0.597061	-0.268497	-1.045512
H851	H	0.930394	0.064836	-0.712178
H852	H	1.263727	0.398170	-0.378845
H853	H	0.730097	-0.135623	-0.603875
H854	H	1.063430	0.197711	-0.270542
H855	H	1.396764	0.531044	0.062791
H856	H	0.730117	-0.829189	-0.135814
H857	H	1.063451	-0.495856	0.197519
H858	H	1.396784	-0.162523	0.530853
O859	O	0.563826	-0.832937	-0.301925
O860	O	0.897160	-0.499603	0.031409
O861	O	1.230493	-0.166270	0.364742
C862	C	0.541959	-0.847247	-0.378325
C863	C	0.875293	-0.513913	-0.044991
C864	C	1.208626	-0.180580	0.288342
C865	C	0.573559	-0.821433	-0.346719
C866	C	0.906892	-0.488100	-0.013386
C867	C	1.240226	-0.154766	0.319947
H868	H	0.549810	-0.837949	-0.414547
H869	H	0.883144	-0.504615	-0.081214
H870	H	1.216477	-0.171282	0.252119
H871	H	0.546909	-0.884813	-0.373444
H872	H	0.880242	-0.551480	-0.040111
H873	H	1.213575	-0.218147	0.293223
H874	H	0.505739	-0.838065	-0.370374
H875	H	0.839073	-0.504731	-0.037041
H876	H	1.172406	-0.171398	0.296292
H877	H	0.609791	-0.830578	-0.354650
H878	H	0.943124	-0.497244	-0.021317
H879	H	1.276458	-0.163911	0.312016
H880	H	0.568571	-0.783873	-0.351606
H881	H	0.901904	-0.450539	-0.018272
H882	H	1.235237	-0.117206	0.315061
O883	O	-0.090545	-0.159882	-0.160026
O884	O	0.242788	0.173451	0.173308
O885	O	0.576121	0.506785	0.506641
C886	C	-0.037630	-0.153741	-0.099350
C887	C	0.295703	0.179593	0.233983
C888	C	0.629036	0.512926	0.567316
C889	C	-0.063450	-0.185379	-0.130913
C890	C	0.269884	0.147955	0.202420
C891	C	0.603217	0.481288	0.535754
H892	H	-0.015725	-0.174343	-0.075799
H893	H	0.317609	0.158991	0.257535
H894	H	0.650942	0.492324	0.590868
H895	H	-0.015612	-0.130282	-0.119987
H896	H	0.317722	0.203052	0.213346
H897	H	0.651055	0.536385	0.546680
H898	H	-0.062470	-0.133172	-0.078878
H899	H	0.270864	0.200161	0.254455
H900	H	0.604197	0.533494	0.587788
H901	H	-0.038643	-0.205976	-0.151392
H902	H	0.294691	0.127357	0.181942
H903	H	0.628024	0.460691	0.515275
H904	H	-0.085475	-0.208808	-0.110251
H905	H	0.247858	0.124525	0.223083
H906	H	0.581191	0.457859	0.556416
O907	O	0.705788	-0.476242	-0.159918
O908	O	1.039121	-0.142909	0.173415
O909	O	1.372455	0.190424	0.506748
C910	C	0.762836	-0.471245	-0.103000
C911	C	1.096170	-0.137912	0.230333
C912	C	1.429503	0.195421	0.563666
C913	C	0.731197	-0.445487	-0.134594
C914	C	1.064530	-0.112154	0.198739
C915	C	1.397864	0.221180	0.532073
H916	H	0.783395	-0.446391	-0.082524
H917	H	1.116728	-0.113058	0.250809
H918	H	1.450061	0.220276	0.584143
H919	H	0.742257	-0.493227	-0.079458
H920	H	1.075590	-0.159894	0.253876
H921	H	1.408923	0.173439	0.587209
H922	H	0.786304	-0.493193	-0.123657
H923	H	1.119637	-0.159859	0.209677
H924	H	1.452971	0.173474	0.543010
H925	H	0.707723	-0.423515	-0.113974
H926	H	1.041056	-0.090182	0.219360
H927	H	1.374390	0.243151	0.552693
H928	H	0.751805	-0.423533	-0.158138
H929	H	1.085138	-0.090200	0.175196
H930	H	1.418471	0.243133	0.508529
O931	O	0.563811	-0.740455	-0.301895
O932	O	0.897144	-0.407122	0.031439
O933	O	1.230477	-0.073789	0.364772
C934	C	0.557690	-0.687450	-0.362522
C935	C	0.891024	-0.354117	-0.029189
C936	C	1.224357	-0.020783	0.304144
C937	C	0.589314	-0.713234	-0.330934
C938	C	0.922648	-0.379900	0.002399
C939	C	1.255981	-0.046567	0.335733
H940	H	0.578297	-0.665428	-0.386003
H941	H	0.911630	-0.332095	-0.052669
H942	H	1.244964	0.001239	0.280664
H943	H	0.537159	-0.712273	-0.383066
H944	H	0.870492	-0.378939	-0.049732
H945	H	1.203826	-0.045606	0.283601
H946	H	0.534196	-0.665538	-0.341859
H947	H	0.867530	-0.332204	-0.008525
H948	H	1.200863	0.001129	0.324808
H949	H	0.612835	-0.735147	-0.351563
H950	H	0.946169	-0.401813	-0.018230
H951	H	1.279502	-0.068480	0.315104
H952	H	0.609814	-0.688387	-0.310389
H953	H	0.943147	-0.355054	0.022944
H954	H	1.276481	-0.021720	0.356277
H955	H	0.568229	-0.603402	-0.297337
H956	H	0.901562	-0.270069	0.035996
H957	H	1.234896	0.063264	0.369330
H958	H	0.392998	-0.164309	-0.164496
H959	H	0.726331	0.169024	0.168838
H960	H	1.059664	0.502357	0.502171
H961	H	0.730104	-0.135601	-0.688980
H962	H	1.063437	0.197732	-0.355647
H963	H	1.396770	0.531066	-0.022314
H964	H	0.701393	-0.164257	-1.045559
H965	H	1.034727	0.169076	-0.712226
H966	H	1.368060	0.502409	-0.378892
H967	H	0.121547	-0.135551	-0.135861
H968	H	0.454880	0.197782	0.197472
H969	H	0.788213	0.531115	0.530805
H970	H	0.478121	-0.164309	-0.164485
H971	H	0.811455	0.169024	0.168848
H972	H	1.144788	0.502358	0.502182
O973	O	0.734609	-0.599704	-0.131264
O974	O	1.067942	-0.266370	0.202069
O975	O	1.401275	0.066963	0.535403
C976	C	0.791634	-0.604640	-0.074320
C977	C	1.124967	-0.271307	0.259013
C978	C	1.458300	0.062026	0.592346
C979	C	0.759985	-0.630432	-0.105894
C980	C	1.093318	-0.297099	0.227439
C981	C	1.426652	0.036235	0.560773
H982	H	0.812152	-0.629473	-0.053794
H983	H	1.145485	-0.296140	0.279539
H984	H	1.478819	0.037194	0.612873
H985	H	0.815135	-0.582659	-0.094950
H986	H	1.148468	-0.249326	0.238384
H987	H	1.481801	0.084007	0.571717
H988	H	0.771018	-0.582689	-0.050820
H989	H	1.104351	-0.249356	0.282513
H990	H	1.437685	0.083978	0.615847
H991	H	0.780565	-0.652408	-0.129401
H992	H	1.113898	-0.319074	0.203933
H993	H	1.447231	0.014259	0.537266
H994	H	0.736483	-0.652385	-0.085237
H995	H	1.069816	-0.319051	0.248097
H996	H	1.403150	0.014282	0.581430
H997	H	0.568248	-0.297285	-0.688916
H998	H	0.901582	0.036048	-0.355583
H999	H	1.234915	0.369381	-0.022249
O1000	O	0.705918	-0.159718	-0.956819
O1001	O	1.039251	0.173616	-0.623486
O1002	O	1.372585	0.506949	-0.290152
C1003	C	0.762978	-0.102751	-0.961802
C1004	C	1.096312	0.230583	-0.628469
C1005	C	1.429645	0.563916	-0.295136
C1006	C	0.731347	-0.134369	-0.987568
C1007	C	1.064681	0.198965	-0.654235
C1008	C	1.398014	0.532298	-0.320902
H1009	H	0.783553	-0.082255	-0.986652
H1010	H	1.116886	0.251079	-0.653319
H1011	H	1.450220	0.584412	-0.319985
H1012	H	0.742391	-0.079228	-0.939849
H1013	H	1.075725	0.254106	-0.606515
H1014	H	1.409058	0.587439	-0.273182
H1015	H	0.786431	-0.123389	-0.939826
H1016	H	1.119765	0.209944	-0.606493
H1017	H	1.453098	0.543278	-0.273160
H1018	H	0.707888	-0.113767	-1.009569
H1019	H	1.041221	0.219567	-0.676236
H1020	H	1.374555	0.552900	-0.342902
H1021	H	0.751962	-0.157893	-1.009494
H1022	H	1.085296	0.175440	-0.676160
H1023	H	1.418629	0.508774	-0.342827
O1024	O	0.592431	-0.273147	-0.476742
O1025	O	0.925764	0.060187	-0.143408
O1026	O	1.259098	0.393520	0.189925
C1027	C	0.535410	-0.330153	-0.471766
C1028	C	0.868743	0.003180	-0.138432
C1029	C	1.202076	0.336513	0.194901
C1030	C	0.567060	-0.298557	-0.445996
C1031	C	0.900393	0.034776	-0.112662
C1032	C	1.233726	0.368109	0.220671
H1033	H	0.514895	-0.350713	-0.446919
H1034	H	0.848229	-0.017380	-0.113586
H1035	H	1.181562	0.315954	0.219748
H1036	H	0.511905	-0.309540	-0.493711
H1037	H	0.845239	0.023794	-0.160378
H1038	H	1.178572	0.357127	0.172956
H1039	H	0.556024	-0.353622	-0.493751
H1040	H	0.889358	-0.020289	-0.160417
H1041	H	1.222691	0.313045	0.172916
H1042	H	0.546481	-0.275082	-0.423986
H1043	H	0.879814	0.058251	-0.090653
H1044	H	1.213148	0.391584	0.242680
H1045	H	0.590565	-0.319199	-0.424079
H1046	H	0.923899	0.014134	-0.090745
H1047	H	1.257232	0.347468	0.242588
H1048	H	0.701402	-0.959912	-0.164514
H1049	H	1.034736	-0.626578	0.168820
H1050	H	1.368069	-0.293245	0.502153
H1051	H	0.596984	-0.268637	-0.388000
H1052	H	0.930317	0.064696	-0.054666
H1053	H	1.263650	0.398030	0.278667
