data_functionalizedCrystal
_audit_creation_method	'MofGen! by Chris Wilmer'
_symmetry_space_group_name_H-M	'P1'
_symmetry_Int_Tables_number	1
_symmetry_cell_setting	triclinic
loop_
_symmetry_equiv_pos_as_xyz
  x,y,z
_cell_length_a	18.215407
_cell_length_b	18.215399
_cell_length_c	18.215405
_cell_angle_alpha	89.969449
_cell_angle_beta	89.983379
_cell_angle_gamma	90.018561
loop_
_atom_site_label
_atom_site_type_symbol
_atom_site_fract_x
_atom_site_fract_y
_atom_site_fract_z
Zn1	Zn	-1.125072	-0.416077	-0.293154
Zn2	Zn	-1.124980	-0.293006	-0.416225
Zn3	Zn	-1.002004	-0.293028	-0.293159
Zn4	Zn	-1.001970	-0.416033	-0.416166
O5	O	-1.063507	-0.354536	-0.354676
O6	O	-1.228044	-0.399761	-0.309503
O7	O	-1.108643	-0.190024	-0.399928
O8	O	-1.018382	-0.309378	-0.190174
O9	O	-1.227977	-0.309341	-0.399922
O10	O	-1.108799	-0.399782	-0.190171
O11	O	-1.018293	-0.190040	-0.309512
O12	O	-0.899016	-0.309335	-0.309454
O13	O	-1.018324	-0.519023	-0.399821
O14	O	-0.898991	-0.399707	-0.399826
O15	O	-1.108766	-0.519056	-0.309445
O16	O	-1.108610	-0.309298	-0.519202
O17	O	-1.018235	-0.399686	-0.519158
C18	C	-0.872300	-0.354519	-0.354634
C19	C	-0.790502	-0.354529	-0.354634
C20	C	-0.525473	-0.401686	-0.307659
C21	C	-0.602332	-0.401685	-0.307651
C22	C	-0.602281	-0.307389	-0.401669
C23	C	-0.525424	-0.307395	-0.401680
C24	C	-0.487022	-0.354542	-0.354671
C25	C	-0.640738	-0.354535	-0.354651
C26	C	-0.724072	-0.354533	-0.354643
C27	C	-0.403683	-0.354545	-0.354680
C28	C	-1.063429	-0.354501	-0.545882
C29	C	-1.063463	-0.354510	-0.627681
C30	C	-1.063552	-0.546489	-0.354625
C31	C	-1.063571	-0.628288	-0.354604
C32	C	-0.255460	-0.354550	-0.354706
C33	C	-0.337259	-0.354548	-0.354688
C34	C	-1.110681	-0.816500	-0.307501
C35	C	-1.110690	-0.893359	-0.307480
C36	C	-1.016513	-0.893314	-0.401593
C37	C	-1.016501	-0.816456	-0.401610
C38	C	-1.063589	-0.778052	-0.354565
C39	C	-1.063610	-0.931768	-0.354527
C40	C	-1.063619	-1.015101	-0.354504
C41	C	-1.063579	-0.694713	-0.354587
C42	C	-1.063504	-0.163330	-0.354674
C43	C	-1.063628	-0.081531	-0.354488
C44	C	-1.110632	-0.307532	-0.815874
C45	C	-1.110665	-0.307550	-0.892732
C46	C	-1.016476	-0.401593	-0.892727
C47	C	-1.016447	-0.401579	-0.815869
C48	C	-1.063524	-0.354544	-0.777445
C49	C	-1.063586	-0.354576	-0.931161
C50	C	-1.063621	-0.354596	-1.014494
C51	C	-1.063490	-0.354525	-0.694106
C52	C	-1.063605	-0.354588	-0.162723
C53	C	-1.063647	-0.354610	-0.080924
H54	H	-1.149021	-0.785233	-0.269192
O55	O	-0.970641	-0.447241	-0.929972
C56	C	-0.897296	-0.431073	-0.911263
H57	H	-0.895769	-0.402770	-0.855481
H58	H	-0.864263	-0.484154	-0.908616
H59	H	-0.872547	-0.393222	-0.954563
O60	O	-0.488181	-0.261526	-0.447373
C61	C	-0.538555	-0.219920	-0.488871
H62	H	-0.593345	-0.217417	-0.458718
H63	H	-0.516320	-0.161926	-0.496655
H64	H	-0.546731	-0.246773	-0.544794
O65	O	-0.970833	-0.779135	-0.447438
C66	C	-0.986871	-0.797906	-0.520785
H67	H	-1.045664	-0.819045	-0.524508
H68	H	-0.980509	-0.747347	-0.557150
H69	H	-0.947411	-0.842503	-0.540007
H70	H	-0.633636	-0.440075	-0.269370
O71	O	-0.970752	-0.447225	-0.778421
C72	C	-0.980813	-0.437114	-0.702346
H73	H	-1.037618	-0.413061	-0.691833
H74	H	-0.975779	-0.492227	-0.673098
H75	H	-0.937177	-0.397878	-0.680591
O76	O	-0.488283	-0.447558	-0.261979
C77	C	-0.538706	-0.489156	-0.220472
H78	H	-0.593490	-0.491644	-0.250612
H79	H	-0.516526	-0.547156	-0.212700
H80	H	-0.546878	-0.462307	-0.164544
H81	H	-1.148966	-0.269234	-0.784590
H82	H	-1.149035	-0.924660	-0.269154
O83	O	-1.156447	-0.261811	-0.929948
C84	C	-1.198003	-0.220311	-0.879549
H85	H	-1.167838	-0.217724	-0.824786
H86	H	-1.205897	-0.162339	-0.901793
H87	H	-1.253876	-0.247310	-0.871316
H88	H	-0.633558	-0.269002	-0.439940
O89	O	-0.970846	-0.930736	-0.447270
C90	C	-0.980941	-1.006817	-0.437152
H91	H	-1.037749	-1.017331	-0.413058
H92	H	-0.975928	-1.036008	-0.492269
H93	H	-0.937312	-1.028633	-0.397948
