data_functionalizedCrystal
_audit_creation_method	'MofGen! by Chris Wilmer'
_symmetry_space_group_name_H-M	'P1'
_symmetry_Int_Tables_number	1
_symmetry_cell_setting	triclinic
loop_
_symmetry_equiv_pos_as_xyz
  x,y,z
_cell_length_a	9.065218
_cell_length_b	12.503552
_cell_length_c	9.065218
_cell_angle_alpha	93.573739
_cell_angle_beta	94.984115
_cell_angle_gamma	93.575569
loop_
_atom_site_label
_atom_site_type_symbol
_atom_site_fract_x
_atom_site_fract_y
_atom_site_fract_z
O1	O	1.968806	0.089319	-0.207941
O2	O	2.468806	0.589319	0.292059
O3	O	1.539521	0.089320	-0.225688
O4	O	2.039521	0.589320	0.274312
O5	O	1.763037	0.089317	-0.002172
O6	O	2.263037	0.589317	0.497828
O7	O	1.745291	0.089322	-0.431457
O8	O	2.245291	0.589322	0.068543
O9	O	1.746208	-0.089325	-0.018997
O10	O	2.246208	0.410675	0.481003
O11	O	1.522692	-0.089322	-0.242512
O12	O	2.022692	0.410678	0.257488
O13	O	1.951977	-0.089323	-0.224766
O14	O	2.451977	0.410677	0.275234
Cu15	Cu	1.735798	-0.105634	-0.235175
Cu16	Cu	2.235798	0.394366	0.264825
Cu17	Cu	1.755700	0.105631	-0.215278
Cu18	Cu	2.255700	0.605631	0.284722
O19	O	1.728462	-0.089320	-0.448281
O20	O	2.228462	0.410680	0.051719
C21	C	1.476120	-0.000001	-0.232394
C22	C	1.976120	0.499999	0.267606
C23	C	1.312277	-0.000000	-0.227294
C24	C	1.812277	0.500000	0.272706
N25	N	1.721810	-0.254227	-0.249168
N26	N	2.221810	0.245773	0.250832
C27	C	1.790268	-0.526661	-0.180683
C28	C	2.290268	-0.026661	0.319317
C29	C	1.701247	-0.473335	-0.269754
C30	C	2.201247	0.026665	0.230246
C31	C	1.712691	-0.351412	-0.258297
C32	C	2.212691	0.148588	0.241703
C33	C	1.778825	-0.648595	-0.192138
C34	C	2.278825	-0.148595	0.307862
C35	C	2.015378	0.000000	-0.218059
C36	C	2.515378	0.500000	0.281941
C37	C	2.179222	0.000007	-0.223158
C38	C	2.679222	0.500007	0.276842
C39	C	1.752917	-0.000002	0.044402
C40	C	2.252917	0.499998	0.544402
C41	C	1.747818	0.000003	0.208246
C42	C	2.247818	0.500003	0.708246
N43	N	1.769699	0.254224	-0.201273
N44	N	2.269699	0.754224	0.298727
C45	C	1.738582	0.000001	-0.494855
C46	C	2.238582	0.500001	0.005145
C47	C	1.743682	0.000003	-0.658698
C48	C	2.243682	0.500003	-0.158698
H49	H	1.616439	-0.519250	-0.354614
H50	H	2.116439	-0.019250	0.145386
H51	H	1.875072	-0.480751	-0.095830
H52	H	2.375072	0.019249	0.404170
