data_functionalizedCrystal
_audit_creation_method	'MofGen! by Chris Wilmer'
_symmetry_space_group_name_H-M	'P1'
_symmetry_Int_Tables_number	1
_symmetry_cell_setting	triclinic
loop_
_symmetry_equiv_pos_as_xyz
  x,y,z
_cell_length_a	17.699083
_cell_length_b	19.188930
_cell_length_c	16.176319
_cell_angle_alpha	89.988074
_cell_angle_beta	89.998611
_cell_angle_gamma	83.213899
loop_
_atom_site_label
_atom_site_type_symbol
_atom_site_fract_x
_atom_site_fract_y
_atom_site_fract_z
O1	O	1.003963	0.088294	-0.068640
O2	O	0.783569	0.099782	-0.068668
O3	O	0.900126	-0.007610	-0.068637
O4	O	0.887406	0.195687	-0.068671
O5	O	0.900110	-0.007617	0.068856
O6	O	0.783553	0.099775	0.068825
O7	O	1.003947	0.088288	0.068853
Cu8	Cu	0.893748	0.094031	0.081393
Cu9	Cu	0.893767	0.094039	-0.081208
O10	O	0.887390	0.195680	0.068822
C11	C	0.755365	0.099367	0.000075
C12	C	0.671348	0.098132	0.000065
C13	C	0.622644	0.161169	0.000055
C14	C	0.543702	0.160004	0.000065
C15	C	0.513466	0.095802	0.000081
C16	C	0.562176	0.032761	0.000093
C17	C	0.641117	0.033926	0.000088
C18	C	0.243819	0.028060	0.000115
C19	C	0.164873	0.026900	0.000117
C20	C	0.146405	0.154139	0.000092
C21	C	0.225345	0.155304	0.000087
C22	C	0.274049	0.092263	0.000104
C23	C	0.359646	0.093526	0.000094
C24	C	0.427870	0.094538	0.000085
C25	C	0.899706	-0.033625	0.000112
C26	C	0.898469	-0.111131	0.000119
C27	C	0.966861	-0.155978	0.000131
C28	C	0.965699	-0.228804	0.000118
C29	C	0.896142	-0.256778	0.000108
C30	C	0.827741	-0.211921	0.000091
C31	C	0.828905	-0.139098	0.000096
N32	N	0.842968	-0.364845	0.046893
N33	N	0.841868	-0.434025	0.046890
C34	C	0.892632	-0.476191	0.000091
N35	N	0.944550	-0.446565	-0.046694
N36	N	0.945653	-0.377379	-0.046687
C37	C	0.894873	-0.335742	0.000102
C38	C	0.959769	-0.600004	0.000088
C39	C	0.958604	-0.672830	0.000070
C40	C	0.820644	-0.655946	0.000051
C41	C	0.821811	-0.583121	0.000061
C42	C	0.891375	-0.555155	0.000084
C43	C	1.032151	0.088703	0.000108
C44	C	1.116167	0.089938	0.000113
C45	C	0.887810	0.221695	0.000071
C46	C	0.889046	0.299201	0.000059
N47	N	0.893741	0.094025	0.195758
N48	N	0.893781	0.094039	-0.195574
C49	C	0.945367	0.046491	0.239036
C50	C	0.945371	0.046490	0.325584
C51	C	0.893751	0.094027	0.368851
C52	C	0.842119	0.141563	0.325567
C53	C	0.842112	0.141560	0.239022
C54	C	0.842145	0.141576	0.674595
C55	C	0.842157	0.141577	0.761147
C56	C	0.945404	0.046506	0.761157
C57	C	0.945397	0.046503	0.674612
C58	C	0.893763	0.094036	0.631335
C59	C	0.893758	0.094036	0.537491
C60	C	0.893759	0.094031	0.462694
H61	H	0.680771	-0.017406	0.000096
N62	N	0.293551	-0.036339	0.000129
N63	N	0.266541	-0.093656	0.000137
H64	H	0.301666	-0.139141	0.000146
H65	H	0.987405	0.007784	0.203814
N66	N	0.749585	-0.684500	0.000048
N67	N	0.688524	-0.644445	0.000044
H68	H	0.638335	-0.664613	0.000040
H69	H	0.140258	-0.025384	0.000131
H70	H	0.800119	0.180289	0.796374
H71	H	1.023506	-0.133213	0.000147
N72	N	0.531294	-0.032821	0.000093
N73	N	0.546295	-0.075286	-0.057859
H74	H	0.524485	-0.121605	-0.057863
H75	H	0.766119	-0.546605	0.000056
N76	N	0.789396	0.190130	0.630410
N77	N	0.743312	0.232569	0.669054
H78	H	0.706054	0.266862	0.637846
N79	N	0.998109	-0.002072	0.369778
N80	N	1.044196	-0.044510	0.331137
H81	H	1.081444	-0.078811	0.362348
N82	N	0.998143	-0.002065	0.805352
N83	N	1.044227	-0.044504	0.766709
H84	H	1.081475	-0.078807	0.797918
N85	N	0.493942	0.224389	0.000064
N86	N	0.423461	0.223343	0.000084
H87	H	0.388316	0.268817	0.000091
N88	N	0.789389	0.190112	0.369774
N89	N	0.789401	0.190109	0.447046
H90	H	0.752161	0.224398	0.478267
H91	H	1.021394	-0.265325	0.000125
N92	N	1.028477	-0.718632	0.000090
N93	N	1.074779	-0.716160	0.058060
H94	H	1.124129	-0.748507	0.058076
N95	N	0.998117	-0.002066	0.630420
N96	N	0.974245	-0.045382	0.582147
H97	H	1.011478	-0.079687	0.550938
N98	N	0.756697	-0.240504	0.000074
N99	N	0.755666	-0.305526	0.000070
H100	H	0.705489	-0.325713	0.000054
N101	N	0.653539	0.226745	0.000032
N102	N	0.695526	0.241594	-0.057930
H103	H	0.717344	0.287909	-0.057944
H104	H	0.773210	-0.102582	0.000086
N105	N	1.030830	-0.571443	0.000113
N106	N	1.091891	-0.611498	0.000120
H107	H	1.142079	-0.591329	0.000139
H108	H	0.800071	0.180266	0.203785
N109	N	0.256217	0.220891	0.000063
N110	N	0.212722	0.277171	0.000054
H111	H	0.234524	0.323494	0.000039
H112	H	0.106741	0.205470	0.000082
