data_functionalizedCrystal
_audit_creation_method	'MofGen! by Chris Wilmer'
_symmetry_space_group_name_H-M	'P1'
_symmetry_Int_Tables_number	1
_symmetry_cell_setting	triclinic
loop_
_symmetry_equiv_pos_as_xyz
  x,y,z
_cell_length_a	17.038278
_cell_length_b	10.654550
_cell_length_c	9.730223
_cell_angle_alpha	90.000193
_cell_angle_beta	89.999541
_cell_angle_gamma	92.202298
loop_
_atom_site_label
_atom_site_type_symbol
_atom_site_fract_x
_atom_site_fract_y
_atom_site_fract_z
O1	O	1.038886	-0.272844	-0.114295
O2	O	0.811231	-0.268514	-0.114295
O3	O	0.930293	-0.088426	-0.114290
O4	O	0.919825	-0.452932	-0.114300
O5	O	0.930292	-0.088430	0.114290
O6	O	0.811230	-0.268519	0.114285
O7	O	1.038885	-0.272848	0.114285
Zn8	Zn	0.925057	-0.270684	0.150577
Zn9	Zn	0.925059	-0.270678	-0.150587
O10	O	0.919823	-0.452937	0.114280
C11	C	0.782080	-0.264576	-0.000005
C12	C	0.695222	-0.252820	-0.000005
C13	C	0.204407	-0.180598	-0.000009
C14	C	0.286019	-0.191654	-0.000001
C15	C	0.318117	-0.310654	-0.000010
C16	C	0.268598	-0.418606	-0.000014
C17	C	0.186988	-0.407549	-0.000012
C18	C	0.564093	-0.349715	-0.000007
C19	C	0.645710	-0.360764	-0.000013
C20	C	0.663125	-0.133811	0.000002
C21	C	0.581512	-0.122764	-0.000004
C22	C	0.532000	-0.230716	-0.000000
C23	C	0.401538	-0.321958	-0.000006
C24	C	0.448581	-0.219412	0.000006
C25	C	0.929524	-0.041559	-0.000001
C26	C	0.927224	0.098098	-0.000006
C27	C	1.068036	-0.276786	-0.000008
C28	C	1.154895	-0.288542	-0.000016
C29	C	0.920593	-0.499804	-0.000011
C30	C	0.922892	-0.639461	-0.000016
N31	N	0.925062	-0.270688	0.356113
C32	C	0.997326	0.171076	-0.000002
C33	C	0.995160	0.302297	-0.000012
C34	C	0.852785	0.287552	-0.000024
C35	C	0.854952	0.156333	-0.000024
C36	C	1.079525	0.179590	0.000011
C37	C	1.077359	0.310812	0.000002
N38	N	0.925061	-0.270665	-0.356123
C39	C	0.977796	-0.190975	0.428042
C40	C	0.977794	-0.190960	0.571925
C41	C	0.872321	-0.350381	0.571938
C42	C	0.872320	-0.350389	0.428058
C43	C	1.038692	-0.098938	0.428035
C44	C	1.038690	-0.098923	0.571918
H45	H	0.703445	-0.045923	0.000001
N46	N	0.415797	-0.097860	-0.000014
N47	N	0.430736	-0.023116	-0.096371
H48	H	0.407576	0.062731	-0.096392
N49	N	1.112352	0.131813	0.123816
N50	N	1.072326	0.058325	0.198305
H51	H	1.095507	0.024579	0.285745
H52	H	1.025336	-0.001166	0.388984
H53	H	0.829373	-0.415286	0.369495
H54	H	0.427681	-0.418849	-0.000018
H55	H	1.098807	-0.126022	0.610968
H56	H	1.102202	0.354150	-0.098693
N57	N	1.119844	0.138983	-0.119984
N58	N	1.128445	0.024487	-0.140291
H59	H	1.156919	-0.004195	-0.225036
N60	N	0.818451	-0.431777	0.645452
N61	N	0.818454	-0.431753	0.773915
H62	H	0.780407	-0.489240	0.825834
H63	H	1.108330	0.349694	0.095660
N64	N	0.778966	0.347043	-0.000001
N65	N	0.731545	0.327457	0.096357
H66	H	0.679408	0.369472	0.096379
H67	H	1.095490	-0.134800	0.383408
N68	N	1.014832	0.017716	0.627896
N69	N	0.948287	0.056626	0.600919
H70	H	0.931432	0.138999	0.640453
N71	N	0.171636	-0.059031	-0.000013
N72	N	0.215857	0.037336	-0.000005
H73	H	0.192716	0.123198	-0.000005
H74	H	0.326329	-0.103754	0.000011
H75	H	0.671840	-0.457673	-0.000001
N76	N	0.548745	-0.001194	0.000027
N77	N	0.563697	0.073540	0.096387
H78	H	0.540559	0.159404	0.096407
N79	N	0.513536	-0.459994	-0.000004
N80	N	0.542209	-0.566234	-0.000017
H81	H	0.506501	-0.644125	-0.000015
N82	N	0.301384	-0.540163	0.000007
N83	N	0.344979	-0.571655	0.096358
H84	H	0.368133	-0.657507	0.096372
N85	N	0.136398	-0.517798	-0.000038
N86	N	0.063534	-0.507912	-0.000037
H87	H	0.027804	-0.585778	-0.000051
N88	N	0.783337	0.081806	-0.000053
N89	N	0.718817	0.133821	-0.000069
H90	H	0.668236	0.081187	-0.000089
