data_functionalizedCrystal
_audit_creation_method	'MofGen! by Chris Wilmer'
_symmetry_space_group_name_H-M	'P1'
_symmetry_Int_Tables_number	1
_symmetry_cell_setting	triclinic
loop_
_symmetry_equiv_pos_as_xyz
  x,y,z
_cell_length_a	18.215407
_cell_length_b	16.120484
_cell_length_c	18.215399
_cell_angle_alpha	92.869346
_cell_angle_beta	89.980650
_cell_angle_gamma	92.926015
loop_
_atom_site_label
_atom_site_type_symbol
_atom_site_fract_x
_atom_site_fract_y
_atom_site_fract_z
Zn1	Zn	1.110209	-0.331903	-0.430960
Zn2	Zn	1.443542	0.001430	-0.097626
Zn3	Zn	1.776876	0.334764	0.235707
Zn4	Zn	1.103877	-0.471325	-0.314129
Zn5	Zn	1.437210	-0.137992	0.019204
Zn6	Zn	1.770543	0.195341	0.352538
Zn7	Zn	0.987141	-0.331931	-0.307908
Zn8	Zn	1.320475	0.001402	0.025425
Zn9	Zn	1.653808	0.334735	0.358758
Zn10	Zn	0.980868	-0.471278	-0.437152
Zn11	Zn	1.314201	-0.137945	-0.103818
Zn12	Zn	1.647534	0.195389	0.229515
O13	O	1.045524	-0.401609	-0.372537
O14	O	1.378857	-0.068276	-0.039204
O15	O	1.712190	0.265057	0.294130
O16	O	1.212353	-0.350406	-0.415474
O17	O	1.545686	-0.017072	-0.082140
O18	O	1.879020	0.316261	0.251193
O19	O	1.088367	-0.452866	-0.210321
O20	O	1.421700	-0.119533	0.123013
O21	O	1.755033	0.213801	0.456346
O22	O	1.008742	-0.215262	-0.319037
O23	O	1.342076	0.118072	0.014297
O24	O	1.675409	0.451405	0.347630
O25	O	1.207700	-0.452839	-0.329639
O26	O	1.541034	-0.119505	0.003695
O27	O	1.874367	0.213828	0.337028
O28	O	1.099160	-0.215241	-0.409442
O29	O	1.432493	0.118093	-0.076109
O30	O	1.765826	0.451426	0.257225
O31	O	1.002602	-0.350454	-0.205751
O32	O	1.335935	-0.017120	0.127583
O33	O	1.669269	0.316213	0.460916
O34	O	0.883325	-0.350408	-0.325041
O35	O	1.216659	-0.017074	0.008293
O36	O	1.549992	0.316259	0.341626
O37	O	0.998050	-0.452758	-0.539313
O38	O	1.331383	-0.119425	-0.205980
O39	O	1.664716	0.213909	0.127354
O40	O	0.878716	-0.452785	-0.419995
O41	O	1.212049	-0.119452	-0.086662
O42	O	1.545383	0.213881	0.246671
O43	O	1.093076	-0.350360	-0.534764
O44	O	1.426410	-0.017026	-0.201431
O45	O	1.759743	0.316307	0.131903
O46	O	1.082283	-0.587985	-0.335643
O47	O	1.415617	-0.254652	-0.002309
O48	O	1.748950	0.078682	0.331024
O49	O	0.991909	-0.587950	-0.426027
O50	O	1.325243	-0.254617	-0.092694
O51	O	1.658576	0.078716	0.240640
C52	C	0.854318	-0.401595	-0.372515
C53	C	1.187651	-0.068262	-0.039182
C54	C	1.520985	0.265072	0.294151
C55	C	0.772519	-0.401609	-0.372524
C56	C	1.105852	-0.068276	-0.039191
C57	C	1.439185	0.265058	0.294142
C58	C	0.581940	-0.455001	-0.421912
C59	C	0.915273	-0.121668	-0.088579
C60	C	1.248607	0.211666	0.244755
C61	C	0.505081	-0.455003	-0.421921
C62	C	0.838415	-0.121670	-0.088588
C63	C	1.171748	0.211663	0.244745
C64	C	0.509859	-0.348233	-0.323179
C65	C	0.843192	-0.014900	0.010154
C66	C	1.176525	0.318434	0.343488
C67	C	0.586716	-0.348227	-0.323174
C68	C	0.920050	-0.014893	0.010159
C69	C	1.253383	0.318440	0.343493
C70	C	0.622755	-0.401615	-0.372539
C71	C	0.956088	-0.068282	-0.039206
C72	C	1.289421	0.265051	0.294127
C73	C	0.469038	-0.401624	-0.372554
C74	C	0.802372	-0.068291	-0.039221
C75	C	1.135705	0.265042	0.294113
C76	C	0.385705	-0.401627	-0.372564
C77	C	0.719038	-0.068293	-0.039230
C78	C	1.052371	0.265040	0.294103
C79	C	0.706094	-0.401612	-0.372531
C80	C	1.039427	-0.068279	-0.039198
C81	C	1.372761	0.265055	0.294136
C82	C	1.035748	-0.618218	-0.382198
C83	C	1.369082	-0.284884	-0.048865
C84	C	1.702415	0.048449	0.284469
C85	C	1.031634	-0.710884	-0.386355
C86	C	1.364967	-0.377550	-0.053022
C87	C	1.698300	-0.044217	0.280311
C88	C	1.024126	-0.880546	-0.393961
C89	C	1.357459	-0.547212	-0.060628
C90	C	1.690793	-0.213879	0.272706
C91	C	1.067053	-0.921833	-0.351125
C92	C	1.400387	-0.588499	-0.017792
C93	C	1.733720	-0.255166	0.315541
C94	C	1.062876	-1.016238	-0.355357
C95	C	1.396209	-0.682905	-0.022024
C96	C	1.729543	-0.349572	0.311310
C97	C	1.028302	-0.786131	-0.389730
C98	C	1.361636	-0.452798	-0.056397
C99	C	1.694969	-0.119465	0.276936
C100	C	1.237476	-0.401624	-0.372559
C101	C	1.570809	-0.068291	-0.039226
C102	C	1.904143	0.265042	0.294107
C103	C	1.319274	-0.401631	-0.372569
C104	C	1.652608	-0.068297	-0.039236
C105	C	1.985941	0.265036	0.294098
C106	C	1.045570	-0.401550	-0.564487
C107	C	1.378903	-0.068217	-0.231154
C108	C	1.712236	0.265116	0.102179
C109	C	1.045589	-0.401525	-0.646285
C110	C	1.378922	-0.068192	-0.312952
C111	C	1.712256	0.265142	0.020381
C112	C	1.055357	-0.184155	-0.362855
C113	C	1.388691	0.149178	-0.029521
C114	C	1.722024	0.482512	0.303812
C115	C	1.059548	-0.091489	-0.358729
C116	C	1.392881	0.241844	-0.025395
C117	C	1.726214	0.575178	0.307938
C118	C	1.095100	-0.348134	-0.908972
C119	C	1.428433	-0.014801	-0.575639
C120	C	1.761766	0.318532	-0.242306
C121	C	1.095090	-0.348157	-0.832114
C122	C	1.428423	-0.014824	-0.498781
C123	C	1.761757	0.318510	-0.165448
C124	C	0.996144	-0.454795	-0.836842
C125	C	1.329477	-0.121462	-0.503508
C126	C	1.662810	0.211872	-0.170175
C127	C	0.996157	-0.454776	-0.913698
C128	C	1.329491	-0.121443	-0.580365
C129	C	1.662824	0.211891	-0.247032
C130	C	1.045635	-0.401441	-0.949761
C131	C	1.378968	-0.068108	-0.616428
C132	C	1.712301	0.265226	-0.283095
C133	C	1.045611	-0.401482	-0.796047
C134	C	1.378944	-0.068149	-0.462714
C135	C	1.712278	0.265184	-0.129380
C136	C	1.045600	-0.401507	-0.712714
C137	C	1.378934	-0.068174	-0.379381
C138	C	1.712267	0.265159	-0.046048
C139	C	1.045647	-0.401417	-1.033099
C140	C	1.378980	-0.068084	-0.699766
C141	C	1.712313	0.265250	-0.366433
C142	C	1.045523	-0.401608	-0.181331
C143	C	1.378856	-0.068275	0.152003
C144	C	1.712190	0.265059	0.485336
C145	C	1.045657	-0.401398	-0.099523
C146	C	1.378990	-0.068065	0.233810
C147	C	1.712323	0.265268	0.567144
H148	H	0.471853	-0.498474	-0.462126
H149	H	0.805186	-0.165141	-0.128793
H150	H	1.138520	0.168193	0.204540
H151	H	1.106942	-0.886278	-0.311274
H152	H	1.440275	-0.552945	0.022060
H153	H	1.773608	-0.219612	0.355393
H154	H	0.955860	-0.498217	-0.807470
H155	H	1.289193	-0.164884	-0.474136
H156	H	1.622527	0.168449	-0.140803
N157	N	0.620808	-0.512582	-0.475156
N158	N	0.954141	-0.179248	-0.141823
N159	N	1.287475	0.154085	0.191511
H160	H	0.608035	-0.499707	-0.527183
H161	H	0.941369	-0.166374	-0.193850
H162	H	1.274702	0.166960	0.139484
H163	H	0.675679	-0.504455	-0.467598
H164	H	1.009012	-0.171122	-0.134265
H165	H	1.342345	0.162211	0.199069
N166	N	0.971286	-0.927638	-0.446737
N167	N	1.304619	-0.594305	-0.113403
N168	N	1.637952	-0.260972	0.219930
H169	H	0.919364	-0.912601	-0.434591
H170	H	1.252697	-0.579268	-0.101258
H171	H	1.586030	-0.245935	0.232075
H172	H	0.983396	-0.912472	-0.498646
H173	H	1.316730	-0.579139	-0.165313
H174	H	1.650063	-0.245805	0.168020
N175	N	1.148460	-0.290610	-0.947871
N176	N	1.481793	0.042723	-0.614537
N177	N	1.815127	0.376057	-0.281204
H178	H	1.179794	-0.256845	-0.910365
H179	H	1.513128	0.076489	-0.577032
H180	H	1.846461	0.409822	-0.243699
H181	H	1.180991	-0.324535	-0.981276
H182	H	1.514324	0.008798	-0.647943
H183	H	1.847658	0.342132	-0.314610
N184	N	0.630737	-0.290633	-0.269923
N185	N	0.964070	0.042701	0.063411
N186	N	1.297403	0.376034	0.396744
H187	H	0.616763	-0.303502	-0.217895
H188	H	0.950097	0.029831	0.115438
H189	H	1.283430	0.363164	0.448772
H190	H	0.684881	-0.298749	-0.277475
H191	H	1.018214	0.034585	0.055859
H192	H	1.351547	0.367918	0.389192
N193	N	1.148444	-0.290665	-0.788120
N194	N	1.481778	0.042668	-0.454786
N195	N	1.815111	0.376001	-0.121453
H196	H	1.179788	-0.256878	-0.822630
H197	H	1.513121	0.076455	-0.489297
H198	H	1.846455	0.409788	-0.155964
H199	H	1.120226	-0.252093	-0.754507
H200	H	1.453559	0.081241	-0.421174
H201	H	1.786893	0.414574	-0.087841
H202	H	0.955876	-0.498189	-0.946910
H203	H	1.289209	-0.164856	-0.613577
H204	H	1.622543	0.168478	-0.280243
H205	H	0.480507	-0.304767	-0.282986
H206	H	0.813840	0.028566	0.050347
H207	H	1.147173	0.361900	0.383680
