data_functionalizedCrystal
_audit_creation_method	'MofGen! by Chris Wilmer'
_symmetry_space_group_name_H-M	'P1'
_symmetry_Int_Tables_number	1
_symmetry_cell_setting	triclinic
loop_
_symmetry_equiv_pos_as_xyz
  x,y,z
_cell_length_a	19.077236
_cell_length_b	19.077068
_cell_length_c	19.076919
_cell_angle_alpha	94.470751
_cell_angle_beta	90.112677
_cell_angle_gamma	85.291395
loop_
_atom_site_label
_atom_site_type_symbol
_atom_site_fract_x
_atom_site_fract_y
_atom_site_fract_z
Zn1	Zn	-1.047584	-0.256314	-0.450390
Zn2	Zn	-1.047497	-0.369471	-0.337231
Zn3	Zn	-0.934815	-0.255944	-0.328156
Zn4	Zn	-0.924923	-0.378891	-0.450332
O5	O	-0.988705	-0.315155	-0.391527
O6	O	-1.146064	-0.267537	-0.439202
O7	O	-1.036653	-0.350314	-0.237539
O8	O	-0.953950	-0.157183	-0.340597
O9	O	-1.146000	-0.350673	-0.356065
O10	O	-1.036801	-0.157455	-0.430402
O11	O	-0.953866	-0.266906	-0.230872
O12	O	-0.835011	-0.276041	-0.340540
O13	O	-0.937090	-0.366728	-0.548828
O14	O	-0.827743	-0.366369	-0.430302
O15	O	-1.027209	-0.276672	-0.548871
O16	O	-1.027061	-0.469531	-0.356008
O17	O	-0.937006	-0.476452	-0.439102
C18	C	-0.805839	-0.322188	-0.384430
C19	C	-0.727607	-0.325214	-0.381412
C20	C	-0.980969	-0.498612	-0.398550
C21	C	-0.977723	-0.577094	-0.401580
C22	C	-1.172284	-0.308096	-0.398652
C23	C	-1.250515	-0.305088	-0.401689
C24	C	-0.981056	-0.322792	-0.575100
C25	C	-0.977797	-0.326047	-0.653328
C26	C	-0.690881	-0.283426	-0.423350
C27	C	-0.617374	-0.286266	-0.420507
C28	C	-0.580594	-0.330898	-0.375730
C29	C	-0.617325	-0.372687	-0.333787
C30	C	-0.690831	-0.369843	-0.336626
C31	C	-0.360752	-0.344033	-0.362585
C32	C	-0.287240	-0.346876	-0.359750
C33	C	-0.287295	-0.260453	-0.446471
C34	C	-0.360802	-0.257616	-0.449309
C35	C	-0.397527	-0.299403	-0.407363
N36	N	-0.505458	-0.333803	-0.372825
N37	N	-0.472662	-0.296493	-0.410265
C38	C	-1.023118	-0.610338	-0.359779
C39	C	-1.020069	-0.684080	-0.362634
C40	C	-0.971621	-0.724577	-0.407285
C41	C	-0.926224	-0.691328	-0.449090
C42	C	-0.929277	-0.617587	-0.446239
C43	C	-0.957462	-0.945508	-0.420451
C44	C	-0.954411	-1.019254	-0.423297
C45	C	-1.048258	-1.012002	-0.336841
C46	C	-1.051303	-0.938260	-0.333991
C47	C	-1.005909	-0.905017	-0.375798
N48	N	-0.968502	-0.799954	-0.410202
N49	N	-1.009032	-0.829642	-0.372885
C50	C	-0.996489	-0.130982	-0.384494
C51	C	-0.999806	-0.052499	-0.381497
C52	C	-1.023183	-0.280690	-0.690103
C53	C	-1.020112	-0.283745	-0.763606
C54	C	-0.971657	-0.332161	-0.800332
C55	C	-0.926266	-0.377520	-0.763552
C56	C	-0.929334	-0.374461	-0.690050
C57	C	-0.957447	-0.346336	-1.020156
C58	C	-0.954384	-0.349393	-1.093664
C59	C	-1.048229	-0.255618	-1.093712
C60	C	-1.051296	-0.252565	-1.020209
C61	C	-1.005902	-0.297921	-0.983435
N62	N	-0.968519	-0.335287	-0.875464
N63	N	-1.009038	-0.294792	-0.908304
C64	C	-0.996366	-0.307495	-0.208668
C65	C	-0.999770	-0.304037	-0.130439
H66	H	-0.720822	-0.247083	-0.459815
Br67	Br	-1.117060	-0.186858	-0.970371
Br68	Br	-0.567535	-0.229551	-0.477427
Br69	Br	-0.410713	-0.197049	-0.510088
H70	H	-1.062642	-0.241266	-0.660206
H71	H	-1.085185	-0.218691	-1.123662
Br72	Br	-0.867671	-0.572468	-0.502975
Br73	Br	-1.081742	-0.222219	-0.813515
H74	H	-0.720732	-0.403871	-0.302475
H75	H	-1.085216	-1.039077	-0.302805
H76	H	-0.914967	-1.052225	-0.459670
Br77	Br	-0.895855	-0.900402	-0.477190
Br78	Br	-0.860502	-0.443224	-0.813394
H79	H	-0.914924	-0.388821	-1.123564
Br80	Br	-0.237451	-0.203745	-0.503393
H81	H	-0.886779	-0.724306	-0.485450
H82	H	-0.920494	-0.383278	-0.990225
Br83	Br	-1.081684	-0.729195	-0.305906
Br84	Br	-0.237322	-0.407473	-0.298997
Br85	Br	-1.117065	-0.883305	-0.273399
H86	H	-0.892369	-0.411388	-0.660108
Br87	Br	-0.567410	-0.433254	-0.273010
Br88	Br	-0.410585	-0.400725	-0.305639
H89	H	-1.062567	-0.577370	-0.323416
