data_functionalizedCrystal
_audit_creation_method	'MofGen! by Chris Wilmer'
_symmetry_space_group_name_H-M	'P1'
_symmetry_Int_Tables_number	1
_symmetry_cell_setting	triclinic
loop_
_symmetry_equiv_pos_as_xyz
  x,y,z
_cell_length_a	17.666332
_cell_length_b	13.339070
_cell_length_c	19.188925
_cell_angle_alpha	99.385922
_cell_angle_beta	89.993867
_cell_angle_gamma	89.990959
loop_
_atom_site_label
_atom_site_type_symbol
_atom_site_fract_x
_atom_site_fract_y
_atom_site_fract_z
O1	O	0.062973	-1.340732	-0.349727
O2	O	0.062969	-1.046410	-0.303824
O3	O	0.062967	-1.202067	-0.226783
O4	O	0.062975	-1.185074	-0.426767
O5	O	-0.062930	-1.202040	-0.226772
O6	O	-0.062928	-1.046382	-0.303813
O7	O	-0.062923	-1.340705	-0.349716
Cu8	Cu	-0.074421	-1.193541	-0.326763
Cu9	Cu	0.074467	-1.193573	-0.326776
O10	O	-0.062921	-1.185047	-0.426756
C11	C	0.000020	-1.008741	-0.296064
C12	C	0.000019	-0.896542	-0.272951
N13	N	-0.179140	-1.193526	-0.326755
C14	C	0.000019	-1.201504	-0.200659
C15	C	0.000021	-1.199855	-0.122831
C16	C	-0.218751	-1.262473	-0.292669
C17	C	-0.297999	-1.262479	-0.292667
C18	C	-0.337632	-1.193547	-0.326765
C19	C	-0.298012	-1.124587	-0.360852
C20	C	-0.218766	-1.124576	-0.360847
N21	N	-0.462049	-1.180406	-0.385999
N22	N	-0.537329	-1.180423	-0.386002
C23	C	-0.576396	-1.193574	-0.326780
N24	N	-0.537339	-1.206728	-0.267555
N25	N	-0.462052	-1.206717	-0.267553
C26	C	-0.423562	-1.193551	-0.326773
C27	C	-0.701936	-1.262532	-0.292688
C28	C	-0.781185	-1.262530	-0.292684
C29	C	-0.781198	-1.124643	-0.360875
C30	C	-0.701950	-1.124639	-0.360873
C31	C	-0.662324	-1.193589	-0.326781
N32	N	0.179186	-1.193597	-0.326780
C33	C	0.000027	-1.378373	-0.357476
C34	C	0.000034	-1.490572	-0.380588
C35	C	0.000038	-0.530949	-0.452664
C36	C	0.000042	-0.636365	-0.474382
C37	C	0.000036	-0.701415	-0.424026
C38	C	0.000026	-0.661038	-0.351949
C39	C	0.000028	-0.555611	-0.330229
C40	C	0.000026	-0.726077	-0.301591
C41	C	0.000017	-0.685700	-0.229514
C42	C	0.000018	-0.580284	-0.207797
C43	C	0.000024	-0.515234	-0.258153
C44	C	0.000024	-0.831503	-0.323311
C45	C	0.000014	-0.856165	-0.200875
C46	C	0.000010	-0.750749	-0.179158
C47	C	0.000028	-1.185610	-0.452881
C48	C	0.000032	-1.187259	-0.530708
C49	C	0.000041	-1.280147	0.423215
C50	C	0.000034	-1.281706	0.350087
C51	C	0.000033	-1.190371	0.323038
C52	C	0.000020	-1.097471	0.369125
C53	C	0.000019	-1.095915	0.442252
N54	N	0.042884	-1.124257	0.215303
N55	N	0.042887	-1.125741	0.145835
C56	C	0.000034	-1.195053	0.102712
N57	N	-0.042812	-1.262839	0.131680
N58	N	-0.042811	-1.261358	0.201154
C59	C	0.000034	-1.192047	0.243746
C60	C	0.000035	-1.289637	-0.022659
C61	C	0.000023	-1.291191	-0.095788
C62	C	0.000016	-1.106953	-0.076748
C63	C	0.000020	-1.105401	-0.003620
C64	C	0.000033	-1.196746	0.023419
H65	H	-0.330255	-1.318626	-0.264909
C66	C	-0.709925	-0.988358	-0.428283
C67	C	-0.658405	-1.048860	-0.398351
H68	H	-0.683040	-0.941576	-0.451424
H69	H	-0.740843	-0.952137	-0.392190
H70	H	-0.740823	-1.030330	-0.461544
H71	H	-0.627510	-1.006888	-0.365086
H72	H	-0.627473	-1.085083	-0.434449
H73	H	0.000029	-0.864367	-0.381996
H74	H	0.000041	-0.787248	-0.441713
H75	H	0.000018	-1.029762	0.033897
H76	H	0.000049	-0.477978	-0.493656
H77	H	0.000021	-0.429395	-0.240474
C78	C	-0.419498	-1.063392	-0.391146
C79	C	-0.341575	-1.048818	-0.398335
H80	H	-0.446389	-1.016614	-0.414290
H81	H	-0.432492	-1.052626	-0.342464
H82	H	-0.432458	-1.130816	-0.411820
H83	H	-0.328613	-0.981396	-0.377656
H84	H	-0.328575	-1.059576	-0.447027
H85	H	0.000016	-1.023105	0.347098
C86	C	0.064727	-0.909668	-0.103210
C87	C	0.000008	-0.927658	-0.145518
H88	H	0.064726	-0.953815	-0.069041
H89	H	0.064723	-0.841115	-0.079962
H90	H	0.108625	-0.921893	-0.131935
H91	H	-0.043890	-0.915427	-0.116793
H92	H	0.000006	-0.996228	-0.168767
H93	H	0.000019	-0.547413	-0.149107
C94	C	0.000013	-0.600093	-0.091507
C95	C	0.000008	-0.706359	-0.099931
H96	H	0.000016	-0.572691	-0.042596
H97	H	-0.043886	-0.577747	-0.113094
H98	H	0.043920	-0.577774	-0.113109
H99	H	-0.043902	-0.728678	-0.078334
H100	H	0.043912	-0.728714	-0.078335
C101	C	0.000046	-0.601391	-0.593218
C102	C	0.000045	-0.680745	-0.553605
H103	H	0.000042	-0.628792	-0.642129
H104	H	0.043947	-0.560801	-0.582205
H105	H	-0.043860	-0.560773	-0.582190
H106	H	0.043954	-0.721359	-0.564628
H107	H	-0.043860	-0.721352	-0.564622
C108	C	-0.226740	-0.988284	-0.428252
C109	C	-0.175221	-1.048791	-0.398324
H110	H	-0.199854	-0.941504	-0.451393
H111	H	-0.257656	-0.952063	-0.392158
H112	H	-0.257640	-1.030254	-0.461513
H113	H	-0.144324	-1.006822	-0.365059
H114	H	-0.144292	-1.085015	-0.434422
H115	H	-0.186490	-1.318614	-0.264908
H116	H	0.000047	-1.354527	0.445226
H117	H	0.000042	-1.357349	0.312564
H118	H	-0.669672	-1.318672	-0.264926
H119	H	0.000009	-1.020272	0.479769
H120	H	0.000045	-1.364015	-0.000642
C121	C	0.064761	-1.448702	-0.134540
C122	C	0.000034	-1.393302	-0.146440
H123	H	0.064768	-1.511739	-0.165814
H124	H	0.064759	-1.460845	-0.087124
H125	H	0.108653	-1.411099	-0.142623
H126	H	-0.043859	-1.430902	-0.138352
H127	H	0.000028	-1.381163	-0.193868
H128	H	0.000009	-1.032587	-0.098770
C129	C	-0.805580	-1.322460	-0.183448
C130	C	-0.824726	-1.338327	-0.255214
H131	H	-0.832458	-1.369261	-0.160319
H132	H	-0.818588	-1.255054	-0.162778
H133	H	-0.752711	-1.332322	-0.178579
H134	H	-0.877595	-1.328458	-0.260083
H135	H	-0.811724	-1.405749	-0.275890
H136	H	-0.813467	-1.068513	-0.388635
