data_functionalizedCrystal
_audit_creation_method	'MofGen! by Chris Wilmer'
_symmetry_space_group_name_H-M	'P1'
_symmetry_Int_Tables_number	1
_symmetry_cell_setting	triclinic
loop_
_symmetry_equiv_pos_as_xyz
  x,y,z
_cell_length_a	21.395362
_cell_length_b	13.897448
_cell_length_c	21.395364
_cell_angle_alpha	90.000997
_cell_angle_beta	90.036401
_cell_angle_gamma	90.033571
loop_
_atom_site_label
_atom_site_type_symbol
_atom_site_fract_x
_atom_site_fract_y
_atom_site_fract_z
Zn1	Zn	0.957869	-0.383857	0.354598
Zn2	Zn	1.457869	0.116143	0.854598
Zn3	Zn	0.957810	-0.545096	0.249826
Zn4	Zn	1.457810	-0.045096	0.749826
Zn5	Zn	0.853098	-0.383861	0.249799
Zn6	Zn	1.353098	0.116139	0.749799
Zn7	Zn	0.853077	-0.545157	0.354531
Zn8	Zn	1.353077	-0.045157	0.854531
O9	O	0.905464	-0.464493	0.302188
O10	O	1.405464	0.035507	0.802188
O11	O	1.045539	-0.405219	0.340739
O12	O	1.545539	0.094781	0.840739
O13	O	0.943903	-0.523683	0.162144
O14	O	1.443903	-0.023683	0.662144
O15	O	0.867030	-0.248879	0.263718
O16	O	1.367030	0.251121	0.763718
O17	O	1.045495	-0.523680	0.263763
O18	O	1.545495	-0.023680	0.763763
O19	O	0.944005	-0.248876	0.340713
O20	O	1.444005	0.251124	0.840713
O21	O	0.866972	-0.405225	0.162125
O22	O	1.366972	0.094775	0.662125
O23	O	0.765417	-0.405284	0.263653
O24	O	1.265417	0.094716	0.763653
O25	O	0.866995	-0.523784	0.442217
O26	O	1.366995	-0.023784	0.942217
O27	O	0.765402	-0.523787	0.340598
O28	O	1.265402	-0.023787	0.840598
O29	O	0.943985	-0.405278	0.442267
O30	O	1.443985	0.094722	0.942267
O31	O	0.943883	-0.680085	0.263698
O32	O	1.443883	-0.180085	0.763698
O33	O	0.866937	-0.680130	0.340624
O34	O	1.366937	-0.180130	0.840624
C35	C	0.742676	-0.464544	0.302116
C36	C	1.242676	0.035456	0.802116
C37	C	0.673035	-0.464589	0.302100
C38	C	1.173035	0.035411	0.802100
C39	C	0.905418	-0.715107	0.302170
C40	C	1.405418	-0.215107	0.802170
C41	C	0.905456	-0.822321	0.302183
C42	C	1.405456	-0.322321	0.802183
C43	C	0.640330	-0.526375	0.342105
C44	C	1.140330	-0.026375	0.842105
C45	C	0.574895	-0.526351	0.342133
C46	C	1.074895	-0.026351	0.842133
C47	C	0.542166	-0.464551	0.302144
C48	C	1.042166	0.035449	0.802144
C49	C	0.574879	-0.402753	0.262136
C50	C	1.074879	0.097247	0.762136
C51	C	0.640313	-0.402772	0.262113
C52	C	1.140313	0.097228	0.762113
C53	C	0.438448	-0.456759	0.245739
C54	C	0.938448	0.043241	0.745739
C55	C	0.373015	-0.456747	0.245760
C56	C	0.873015	0.043253	0.745760
C57	C	0.340346	-0.464489	0.302213
C58	C	0.840346	0.035511	0.802213
C59	C	0.373117	-0.472262	0.358647
C60	C	0.873117	0.027738	0.858647
C61	C	0.438552	-0.472281	0.358625
C62	C	0.938552	0.027719	0.858625
C63	C	0.471214	-0.464524	0.302164
C64	C	0.971214	0.035476	0.802164
C65	C	0.236688	-0.526253	0.342253
C66	C	0.736688	-0.026253	0.842253
C67	C	0.171252	-0.526222	0.342282
C68	C	0.671252	-0.026222	0.842282
C69	C	0.171238	-0.402629	0.262279
C70	C	0.671238	0.097371	0.762279
C71	C	0.236673	-0.402654	0.262255
C72	C	0.736673	0.097346	0.762255
C73	C	0.269394	-0.464471	0.302241
C74	C	0.769394	0.035529	0.802241
C75	C	0.905521	-1.018616	0.302223
C76	C	1.405521	-0.518616	0.802223
C77	C	0.905483	-0.909383	0.302203
C78	C	1.405483	-0.409383	0.802203
C79	C	1.068887	-0.464442	0.302262
C80	C	1.568887	0.035558	0.802262
C81	C	1.138528	-0.464421	0.302293
C82	C	1.638528	0.035579	0.802293
C83	C	0.905494	-0.464537	0.465612
C84	C	1.405494	0.035463	0.965612
C85	C	0.905507	-0.464556	0.535253
C86	C	1.405507	0.035444	1.035253
C87	C	0.905527	-0.212900	0.302220
C88	C	1.405527	0.287100	0.802220
C89	C	0.905553	-0.105686	0.302234
C90	C	1.405553	0.394314	0.802234
C91	C	0.945590	-0.402861	0.567993
C92	C	1.445590	0.097139	1.067993
C93	C	0.945580	-0.402845	0.633428
C94	C	1.445580	0.097155	1.133428
C95	C	0.905495	-0.464542	0.666121
C96	C	1.405495	0.035458	1.166121
C97	C	0.865404	-0.526242	0.633373
C98	C	1.365404	-0.026242	1.133373
C99	C	0.865410	-0.526249	0.567939
C100	C	1.365410	-0.026249	1.067939
C101	C	0.900518	-0.551437	0.769788
C102	C	1.400518	-0.051437	1.269788
C103	C	0.900516	-0.551432	0.835221
C104	C	1.400516	-0.051432	1.335221
C105	C	0.905472	-0.464520	0.867942
C106	C	1.405472	0.035480	1.367942
C107	C	0.910443	-0.377610	0.835222
C108	C	1.410443	0.122390	1.335222
C109	C	0.910449	-0.377617	0.769788
C110	C	1.410449	0.122383	1.269788
C111	C	0.905483	-0.464541	0.737074
C112	C	1.405483	0.035459	1.237074
C113	C	0.945547	-0.402801	0.971634
C114	C	1.445547	0.097199	1.471634
C115	C	0.945533	-0.402784	1.037071
C116	C	1.445533	0.097216	1.537071
C117	C	0.865360	-0.526190	1.037015
C118	C	1.365360	-0.026190	1.537015
C119	C	0.865370	-0.526199	0.971580
C120	C	1.365370	-0.026199	1.471580
C121	C	0.905467	-0.464506	0.938893
C122	C	1.405467	0.035494	1.438893
C123	C	0.905436	-0.464477	1.139401
C124	C	1.405436	0.035523	1.639401
C125	C	0.905446	-0.464481	1.069760
C126	C	1.405446	0.035519	1.569760
H127	H	0.666968	-0.576710	0.374666
H128	H	1.166968	-0.076710	0.874666
Cl129	Cl	0.995961	-0.325259	0.674596
Cl130	Cl	1.495961	0.174741	1.174596
Cl131	Cl	0.815017	-0.603817	0.526778
Cl132	Cl	1.315017	-0.103817	1.026778
Cl133	Cl	0.277790	-0.324978	0.211958
Cl134	Cl	0.777790	0.175022	0.711958
Cl135	Cl	0.681430	-0.325091	0.211816
Cl136	Cl	1.181430	0.174909	0.711816
H137	H	0.914495	-0.306853	0.743150
H138	H	1.414495	0.193147	1.243150
H139	H	0.465232	-0.478608	0.404575
H140	H	0.965232	0.021392	0.904575
Cl141	Cl	0.332055	-0.481990	0.429623
Cl142	Cl	0.832055	0.018010	0.929623
H143	H	0.896315	-0.622194	0.743152
H144	H	1.396315	-0.122194	1.243152
Cl145	Cl	0.814980	-0.603768	0.930419
Cl146	Cl	1.314980	-0.103768	1.430419
Cl147	Cl	0.894273	-0.660688	0.876348
Cl148	Cl	1.394273	-0.160688	1.376348
H149	H	0.548261	-0.576665	0.374713
H150	H	1.048261	-0.076665	0.874713
H151	H	0.832715	-0.576415	1.063633
H152	H	1.332715	-0.076415	1.563633
H153	H	0.832764	-0.576474	0.659996
H154	H	1.332764	-0.076474	1.159996
Cl155	Cl	0.277827	-0.603958	0.392523
Cl156	Cl	0.777827	-0.103958	0.892523
Cl157	Cl	0.130137	-0.603899	0.392583
Cl158	Cl	0.630137	-0.103899	0.892583
H159	H	0.144591	-0.352306	0.229722
H160	H	0.644591	0.147694	0.729722
Cl161	Cl	0.331823	-0.446973	0.174816
Cl162	Cl	0.831823	0.053027	0.674816
Cl163	Cl	0.916676	-0.268341	0.876350
Cl164	Cl	1.416676	0.231659	1.376350
H165	H	0.465042	-0.450450	0.199764
H166	H	0.965042	0.049550	0.699764
Cl167	Cl	0.995949	-0.325241	0.930540
Cl168	Cl	1.495949	0.174759	1.430540
Cl169	Cl	0.995994	-0.325298	0.526905
Cl170	Cl	1.495994	0.174702	1.026905
Cl171	Cl	0.995937	-0.325231	1.078231
Cl172	Cl	1.495937	0.174769	1.578231
H173	H	0.548227	-0.352434	0.229578
H174	H	1.048227	0.147566	0.729578
