data_functionalizedCrystal
_audit_creation_method	'MofGen! by Chris Wilmer'
_symmetry_space_group_name_H-M	'P1'
_symmetry_Int_Tables_number	1
_symmetry_cell_setting	triclinic
loop_
_symmetry_equiv_pos_as_xyz
  x,y,z
_cell_length_a	19.288859
_cell_length_b	16.974813
_cell_length_c	18.366186
_cell_angle_alpha	86.339196
_cell_angle_beta	89.990083
_cell_angle_gamma	83.264704
loop_
_atom_site_label
_atom_site_type_symbol
_atom_site_fract_x
_atom_site_fract_y
_atom_site_fract_z
O1	O	0.921533	0.098615	-0.066374
O2	O	1.421533	0.598615	0.433626
O3	O	0.719296	0.111926	-0.067156
O4	O	1.219296	0.611926	0.432844
O5	O	0.826051	-0.009853	-0.059978
O6	O	1.326051	0.490147	0.440022
O7	O	0.814777	0.220394	-0.073552
O8	O	1.314777	0.720394	0.426448
O9	O	0.826033	-0.009859	0.061122
O10	O	1.326033	0.490141	0.561122
O11	O	0.719277	0.111920	0.053944
O12	O	1.219277	0.611920	0.553944
O13	O	0.921515	0.098609	0.054726
O14	O	1.421515	0.598609	0.554726
Zn15	Zn	0.820393	0.105264	0.073562
Zn16	Zn	1.320393	0.605264	0.573562
Zn17	Zn	0.820417	0.105271	-0.085992
Zn18	Zn	1.320417	0.605271	0.414008
O19	O	0.814759	0.220388	0.047548
O20	O	1.314759	0.720388	0.547548
C21	C	0.693409	0.111496	-0.006581
C22	C	1.193409	0.611496	0.493419
C23	C	0.616303	0.110212	-0.006504
C24	C	1.116303	0.610212	0.493496
C25	C	0.052375	0.172986	-0.010206
C26	C	0.552375	0.672986	0.489794
C27	C	0.124824	0.174199	-0.010282
C28	C	0.624824	0.674199	0.489718
C29	C	0.169402	0.102744	-0.006068
C30	C	0.669402	0.602744	0.493932
C31	C	0.141526	0.030071	-0.001797
C32	C	0.641526	0.530071	0.498203
C33	C	0.069079	0.028861	-0.001729
C34	C	0.569079	0.528861	0.498271
C35	C	0.290570	0.049451	0.039503
C36	C	0.790570	0.549451	0.539503
C37	C	0.363016	0.050665	0.039440
C38	C	0.863016	0.550665	0.539440
C39	C	0.392855	0.106475	-0.006280
C40	C	0.892855	0.606475	0.493720
C41	C	0.350237	0.161085	-0.051928
C42	C	0.850237	0.661085	0.448072
C43	C	0.277790	0.159874	-0.051860
C44	C	0.777790	0.659874	0.448140
C45	C	0.247960	0.104049	-0.006141
C46	C	0.747960	0.604049	0.493859
C47	C	0.499279	0.180458	-0.010638
C48	C	0.999279	0.680458	0.489362
C49	C	0.571730	0.181668	-0.010717
C50	C	1.071730	0.681668	0.489283
C51	C	0.588431	0.037538	-0.002225
C52	C	1.088431	0.537538	0.497775
C53	C	0.515982	0.036331	-0.002153
C54	C	1.015982	0.536331	0.497847
C55	C	0.471410	0.107793	-0.006356
C56	C	0.971410	0.607793	0.493644
C57	C	0.825613	-0.039313	0.002307
C58	C	1.325613	0.460687	0.502307
C59	C	0.824326	-0.127086	0.007477
C60	C	1.324326	0.372914	0.507477
C61	C	0.823733	-0.168313	-0.056105
C62	C	1.323733	0.331687	0.443895
C63	C	0.822520	-0.250784	-0.051245
C64	C	1.322520	0.249216	0.448755
C65	C	0.821904	-0.292026	0.017197
C66	C	1.321904	0.207974	0.517197
C67	C	0.822495	-0.250792	0.080784
C68	C	1.322495	0.249208	0.580784
C69	C	0.823704	-0.168322	0.075924
C70	C	1.323704	0.331678	0.575924
C71	C	0.818284	-0.538675	0.038813
C72	C	1.318284	-0.038675	0.538813
C73	C	0.817077	-0.621151	0.043669
C74	C	1.317077	-0.121151	0.543669
C75	C	0.817100	-0.621137	-0.088361
C76	C	1.317100	-0.121137	0.411639
C77	C	0.818313	-0.538666	-0.093216
C78	C	1.318313	-0.038666	0.406784
C79	C	0.818900	-0.497439	-0.029629
C80	C	1.318900	0.002561	0.470371
N81	N	0.820666	-0.376325	0.022167
N82	N	1.320666	0.123675	0.522167
N83	N	0.820134	-0.413141	-0.034599
N84	N	1.320134	0.086859	0.465401
C85	C	0.947401	0.099039	-0.005851
C86	C	1.447401	0.599039	0.494149
C87	C	1.024507	0.100323	-0.005932
C88	C	1.524507	0.600323	0.494068
C89	C	0.815197	0.249848	-0.014739
C90	C	1.315197	0.749848	0.485261
C91	C	0.816484	0.337621	-0.019913
C92	C	1.316484	0.837621	0.480087
N93	N	0.820382	0.105258	0.182454
N94	N	1.320382	0.605258	0.682454
N95	N	0.820434	0.105271	-0.194883
N96	N	1.320434	0.605271	0.305117
C97	C	0.867669	0.051360	0.223731
C98	C	1.367669	0.551360	0.723731
C99	C	0.867673	0.051357	0.299959
C100	C	1.367673	0.551357	0.799959
C101	C	0.820397	0.105264	0.334906
C102	C	1.320397	0.605264	0.834906
C103	C	0.773101	0.159166	0.293619
C104	C	1.273101	0.659166	0.793619
C105	C	0.773094	0.159163	0.217393
C106	C	1.273094	0.659163	0.717393
C107	C	0.811229	0.177310	0.451419
C108	C	1.311229	0.677310	0.951419
C109	C	0.811241	0.177314	0.527644
C110	C	1.311241	0.677314	1.027644
C111	C	0.820417	0.105274	0.570013
C112	C	1.320417	0.605274	1.070013
C113	C	0.829595	0.033227	0.536148
C114	C	1.329595	0.533227	1.036148
C115	C	0.829587	0.033224	0.459922
C116	C	1.329587	0.533224	0.959922
C117	C	0.820400	0.105274	0.417560
C118	C	1.320400	0.605274	0.917560
C119	C	0.867711	0.051368	0.693946
C120	C	1.367711	0.551368	1.193946
C121	C	0.867711	0.051364	0.770175
C122	C	1.367711	0.551364	1.270175
C123	C	0.773142	0.159180	0.763833
C124	C	1.273142	0.659180	1.263833
C125	C	0.773140	0.159178	0.687606
C126	C	1.273140	0.659178	1.187606
C127	C	0.820428	0.105273	0.652666
C128	C	1.320428	0.605273	1.152666
H129	H	0.016089	0.231176	-0.013632
H130	H	0.516089	0.731176	0.486368
C131	C	0.821813	-0.296161	0.156072
C132	C	1.321813	0.203839	0.656072
N133	N	0.821301	-0.330332	0.212781
N134	N	1.321301	0.169668	0.712781
C135	C	0.824358	-0.122972	0.145869
C136	C	1.324358	0.377028	0.645869
N137	N	0.824849	-0.088816	0.198555
N138	N	1.324849	0.411184	0.698555
C139	C	0.230914	0.219936	-0.102079
C140	C	0.730914	0.719936	0.397921
N141	N	0.195608	0.265172	-0.139908
N142	N	0.695608	0.765172	0.360092
H143	H	0.397710	0.006202	0.076612
H144	H	0.897710	0.506202	0.576612
H145	H	0.824238	-0.134741	-0.111839
H146	H	1.324238	0.365259	0.388161
C147	C	0.155486	0.254137	-0.014979
C148	C	0.655486	0.754137	0.485021
N149	N	0.178578	0.314347	-0.018515
N150	N	0.678578	0.814347	0.481485
H151	H	0.906181	0.007465	0.333573
H152	H	1.406181	0.507465	0.833573
H153	H	0.816572	-0.654728	0.099406
H154	H	1.316572	-0.154728	0.599406
C155	C	0.383054	0.222479	-0.102226
C156	C	0.883054	0.722479	0.397774
N157	N	0.407775	0.268719	-0.140109
N158	N	0.907775	0.768719	0.359891
H159	H	0.462987	0.238647	-0.014061
H160	H	0.962987	0.738647	0.485939
H161	H	0.906172	0.007466	0.195286
H162	H	1.406172	0.507466	0.695286
H163	H	0.594417	0.240841	-0.014204
H164	H	1.094417	0.740841	0.485796
H165	H	0.837059	-0.025439	0.432353
H166	H	1.337059	0.474561	0.932353
C167	C	0.839687	-0.046023	0.582749
C168	C	1.339687	0.453977	1.082749
N169	N	0.847289	-0.105712	0.617852
N170	N	1.347289	0.394288	1.117852
H171	H	0.046390	-0.030312	0.001752
H172	H	0.546390	0.469688	0.501752
H173	H	0.816621	-0.654713	-0.140130
H174	H	1.316621	-0.154713	0.359870
C175	C	0.801139	0.256566	0.564887
C176	C	1.301139	0.756566	1.064887
N177	N	0.793525	0.316261	0.592938
N178	N	1.293525	0.816261	1.092938
C179	C	0.721095	0.218461	0.332063
C180	C	1.221095	0.718461	0.832063
N181	N	0.681919	0.263121	0.361018
N182	N	1.181919	0.763121	0.861018
C183	C	0.821931	-0.296141	-0.121191
C184	C	1.321931	0.203859	0.378809
N185	N	0.821510	-0.330307	-0.173877
N186	N	1.321510	0.169693	0.326123
H187	H	0.818776	-0.505120	0.090590
H188	H	1.318776	-0.005120	0.590590
H189	H	0.624726	-0.020641	0.001200
H190	H	1.124726	0.479359	0.501200
H191	H	0.906214	0.007473	0.665497
H192	H	1.406214	0.507473	1.165497
C193	C	0.485326	-0.043606	0.002565
C194	C	0.985326	0.456394	0.502565
N195	N	0.462237	-0.103817	0.006120
N196	N	0.962237	0.396183	0.506120
H197	H	0.266283	0.004000	0.076736
H198	H	0.766283	0.504000	0.576736
C199	C	0.190564	-0.048529	0.002843
C200	C	0.690564	0.451471	0.502843
N201	N	0.227499	-0.107733	0.006337
N202	N	0.727499	0.392267	0.506337
C203	C	0.919722	-0.007944	0.815581
C204	C	1.419722	0.492056	1.315581
N205	N	0.958894	-0.052620	0.849782
N206	N	1.458894	0.447380	1.349782
H207	H	0.734637	0.203069	0.653995
H208	H	1.234637	0.703069	1.153995
H209	H	0.803745	0.235977	0.416928
H210	H	1.303745	0.735977	0.916928
C211	C	0.818990	-0.493306	-0.168508
C212	C	1.318990	0.006694	0.331492
N213	N	0.819503	-0.459141	-0.225220
N214	N	1.319503	0.040859	0.274780
H215	H	0.734647	0.203069	0.792287
H216	H	1.234647	0.703069	1.292287
C217	C	0.721102	0.218491	0.171984
C218	C	1.221102	0.718491	0.671984
N219	N	0.681953	0.263191	0.137780
N220	N	1.181953	0.763191	0.637780
