data_functionalizedCrystal
_audit_creation_method	'MofGen! by Chris Wilmer'
_symmetry_space_group_name_H-M	'P1'
_symmetry_Int_Tables_number	1
_symmetry_cell_setting	triclinic
loop_
_symmetry_equiv_pos_as_xyz
  x,y,z
_cell_length_a	21.295419
_cell_length_b	21.295417
_cell_length_c	21.295411
_cell_angle_alpha	90.020597
_cell_angle_beta	90.024539
_cell_angle_gamma	90.044503
loop_
_atom_site_label
_atom_site_type_symbol
_atom_site_fract_x
_atom_site_fract_y
_atom_site_fract_z
Zn1	Zn	0.962359	-0.250432	0.355916
Zn2	Zn	1.295692	0.082901	0.689249
Zn3	Zn	1.629026	0.416234	1.022582
Zn4	Zn	0.962263	-0.355684	0.250643
Zn5	Zn	1.295596	-0.022351	0.583976
Zn6	Zn	1.628930	0.310982	0.917310
Zn7	Zn	0.857082	-0.250460	0.250661
Zn8	Zn	1.190416	0.082873	0.583994
Zn9	Zn	1.523749	0.416207	0.917327
Zn10	Zn	0.857053	-0.355695	0.355875
Zn11	Zn	1.190386	-0.022361	0.689208
Zn12	Zn	1.523720	0.310972	1.022541
O13	O	0.909689	-0.303068	0.303274
O14	O	1.243023	0.030266	0.636607
O15	O	1.576356	0.363599	0.969940
O16	O	1.050436	-0.264378	0.341961
O17	O	1.383769	0.068955	0.675294
O18	O	1.717102	0.402288	1.008627
O19	O	0.948282	-0.341733	0.162556
O20	O	1.281616	-0.008400	0.495889
O21	O	1.614949	0.324934	0.829223
O22	O	0.871100	-0.162367	0.264648
O23	O	1.204433	0.170966	0.597981
O24	O	1.537767	0.504300	0.931314
O25	O	1.050365	-0.341706	0.264617
O26	O	1.383698	-0.008373	0.597951
O27	O	1.717032	0.324960	0.931284
O28	O	0.948446	-0.162347	0.341978
O29	O	1.281780	0.170987	0.675311
O30	O	1.615113	0.504320	1.008645
O31	O	0.871007	-0.264425	0.162569
O32	O	1.204340	0.068908	0.495902
O33	O	1.537673	0.402241	0.829236
O34	O	0.768989	-0.264436	0.264608
O35	O	1.102322	0.068898	0.597941
O36	O	1.435656	0.402231	0.931275
O37	O	0.871050	-0.341724	0.443970
O38	O	1.204384	-0.008391	0.777303
O39	O	1.537717	0.324942	1.110636
O40	O	0.768968	-0.341751	0.341908
O41	O	1.102301	-0.008418	0.675242
O42	O	1.435634	0.324915	1.008575
O43	O	0.948418	-0.264388	0.444000
O44	O	1.281751	0.068945	0.777333
O45	O	1.615085	0.402278	1.110666
O46	O	0.948254	-0.443775	0.264578
O47	O	1.281588	-0.110442	0.597911
O48	O	1.614921	0.222892	0.931244
O49	O	0.870957	-0.443783	0.341891
O50	O	1.204290	-0.110449	0.675224
O51	O	1.537624	0.222884	1.008558
C52	C	0.746138	-0.303098	0.303256
C53	C	1.079471	0.030235	0.636589
C54	C	1.412804	0.363569	0.969923
C55	C	0.676170	-0.303126	0.303263
C56	C	1.009503	0.030207	0.636597
C57	C	1.342836	0.363541	0.969930
C58	C	0.643362	-0.262927	0.343598
C59	C	0.976695	0.070406	0.676932
C60	C	1.310029	0.403739	1.010265
C61	C	0.577620	-0.262910	0.343601
C62	C	0.910953	0.070423	0.676934
C63	C	1.244286	0.403756	1.010267
C64	C	0.544687	-0.303104	0.303275
C65	C	0.878020	0.030230	0.636608
C66	C	1.211354	0.363563	0.969941
C67	C	0.577502	-0.343305	0.262932
C68	C	0.910836	-0.009972	0.596265
C69	C	1.244169	0.323361	0.929599
C70	C	0.643244	-0.343317	0.262926
C71	C	0.976577	-0.009983	0.596260
C72	C	1.309910	0.323350	0.929593
N73	N	0.441412	-0.358181	0.298356
N74	N	0.774746	-0.024847	0.631689
N75	N	1.108079	0.308486	0.965023
N76	N	0.378961	-0.358168	0.298365
N77	N	0.712294	-0.024835	0.631699
N78	N	1.045628	0.308498	0.965032
C79	C	0.346612	-0.303071	0.303289
C80	C	0.679946	0.030262	0.636622
C81	C	1.013279	0.363596	0.969955
N82	N	0.379074	-0.247985	0.308215
N83	N	0.712408	0.085348	0.641548
N84	N	1.045741	0.418681	0.974882
N85	N	0.441532	-0.247999	0.308209
N86	N	0.774865	0.085335	0.641542
N87	N	1.108198	0.418668	0.974876
C88	C	0.473402	-0.303095	0.303276
C89	C	0.806735	0.030238	0.636610
C90	C	1.140068	0.363571	0.969943
C91	C	0.242519	-0.262850	0.343628
C92	C	0.575853	0.070483	0.676962
C93	C	0.909186	0.403816	1.010295
C94	C	0.176776	-0.262832	0.343626
C95	C	0.510109	0.070501	0.676960
C96	C	0.843442	0.403834	1.010293
C97	C	0.176660	-0.343233	0.262961
C98	C	0.509993	-0.009900	0.596294
C99	C	0.843326	0.323434	0.929628
C100	C	0.242402	-0.343245	0.262960
C101	C	0.575736	-0.009912	0.596293
C102	C	0.909069	0.323421	0.929626
C103	C	0.275328	-0.303055	0.303297
C104	C	0.608661	0.030278	0.636630
C105	C	0.941995	0.363612	0.969963
C106	C	0.909609	-0.466619	0.303242
C107	C	1.242942	-0.133286	0.636575
C108	C	1.576276	0.200047	0.969908
C109	C	0.909632	-0.536588	0.303249
C110	C	1.242966	-0.203254	0.636582
C111	C	1.576299	0.130079	0.969916
C112	C	0.949884	-0.569386	0.343544
C113	C	1.283217	-0.236053	0.676877
C114	C	1.616550	0.097280	1.010210
C115	C	0.949906	-0.635129	0.343559
C116	C	1.283239	-0.301796	0.676893
C117	C	1.616572	0.031538	1.010226
C118	C	0.909683	-0.668070	0.303269
C119	C	1.243017	-0.334737	0.636602
C120	C	1.576350	-0.001403	0.969936
C121	C	0.869424	-0.635263	0.262971
C122	C	1.202758	-0.301930	0.596305
C123	C	1.536091	0.031403	0.929638
C124	C	0.869399	-0.569522	0.262962
C125	C	1.202732	-0.236189	0.596295
C126	C	1.536065	0.097145	0.929628
N127	N	0.904924	-0.771324	0.248178
N128	N	1.238257	-0.437990	0.581511
N129	N	1.571591	-0.104657	0.914845
N130	N	0.904952	-0.833775	0.248189
N131	N	1.238285	-0.500442	0.581522
N132	N	1.571619	-0.167108	0.914856
C133	C	0.909757	-0.866145	0.303297
C134	C	1.243090	-0.532811	0.636631
C135	C	1.576424	-0.199478	0.969964
N136	N	0.914545	-0.833704	0.358395
N137	N	1.247879	-0.500370	0.691729
N138	N	1.581212	-0.167037	1.025062
N139	N	0.914521	-0.771247	0.358383
N140	N	1.247854	-0.437913	0.691717
N141	N	1.581187	-0.104580	1.025050
C142	C	0.909706	-0.739355	0.303276
C143	C	1.243040	-0.406022	0.636609
C144	C	1.576373	-0.072689	0.969942
C145	C	0.950034	-0.970229	0.343612
C146	C	1.283368	-0.636896	0.676946
C147	C	1.616701	-0.303562	1.010279
C148	C	0.950052	-1.035973	0.343629
C149	C	1.283386	-0.702640	0.676962
C150	C	1.616719	-0.369306	1.010296
C151	C	0.869574	-1.036106	0.263035
C152	C	1.202907	-0.702772	0.596369
C153	C	1.536241	-0.369439	0.929702
C154	C	0.869553	-0.970363	0.263024
C155	C	1.202886	-0.637030	0.596358
C156	C	1.536220	-0.303697	0.929691
C157	C	0.909786	-0.937429	0.303312
C158	C	1.243120	-0.604096	0.636645
C159	C	1.576453	-0.270762	0.969979
C160	C	1.073880	-0.303038	0.303292
C161	C	1.407213	0.030295	0.636625
C162	C	1.740546	0.363629	0.969958
C163	C	1.143848	-0.303025	0.303299
C164	C	1.477181	0.030308	0.636633
C165	C	1.810514	0.363641	0.969966
C166	C	0.909742	-0.303055	0.467464
C167	C	1.243075	0.030279	0.800797
C168	C	1.576408	0.363612	1.134131
C169	C	0.909764	-0.303049	0.537432
C170	C	1.243097	0.030284	0.870765
C171	C	1.576430	0.363618	1.204099
C172	C	0.909787	-0.138878	0.303319
C173	C	1.243120	0.194456	0.636653
C174	C	1.576454	0.527789	0.969986
C175	C	0.909829	-0.068909	0.303339
C176	C	1.243162	0.264424	0.636672
C177	C	1.576495	0.597757	0.970006
C178	C	0.909674	-0.303036	0.139722
C179	C	1.243007	0.030298	0.473055
C180	C	1.576340	0.363631	0.806389
C181	C	0.909773	-0.302864	0.069754
C182	C	1.243107	0.030469	0.403088
C183	C	1.576440	0.363803	0.736421
C184	C	0.950048	-0.262778	0.570315
C185	C	1.283381	0.070555	0.903649
C186	C	1.616714	0.403888	1.236982
C187	C	0.950047	-0.262751	0.636058
C188	C	1.283380	0.070582	0.969391
C189	C	1.616713	0.403916	1.302725
C190	C	0.909769	-0.303006	0.668915
C191	C	1.243102	0.030328	1.002248
C192	C	1.576435	0.363661	1.335581
C193	C	0.869477	-0.343279	0.636023
C194	C	1.202811	-0.009946	0.969357
C195	C	1.536144	0.323388	1.302690
C196	C	0.869475	-0.343301	0.570282
C197	C	1.202808	-0.009967	0.903615
C198	C	1.536141	0.323366	1.236949
N199	N	0.904913	-0.358075	0.772131
N200	N	1.238246	-0.024741	1.105464
N201	N	1.571579	0.308592	1.438798
N202	N	0.904919	-0.358052	0.834582
N203	N	1.238252	-0.024719	1.167916
N204	N	1.571585	0.308615	1.501249
C205	C	0.909773	-0.302942	0.866989
C206	C	1.243106	0.030392	1.200323
C207	C	1.576439	0.363725	1.533656
N208	N	0.914633	-0.247853	0.834586
N209	N	1.247966	0.085480	1.167919
N210	N	1.581299	0.418813	1.501252
N211	N	0.914630	-0.247876	0.772128
N212	N	1.247963	0.085457	1.105462
N213	N	1.581297	0.418790	1.438795
C214	C	0.909767	-0.302986	0.740200
C215	C	1.243100	0.030347	1.073533
C216	C	1.576433	0.363680	1.406867
C217	C	0.950058	-0.262638	0.971158
C218	C	1.283391	0.070695	1.304492
C219	C	1.616724	0.404029	1.637825
C220	C	0.950052	-0.262610	1.036902
C221	C	1.283386	0.070724	1.370235
C222	C	1.616719	0.404057	1.703569
C223	C	0.869486	-0.343143	1.036866
C224	C	1.202820	-0.009810	1.370200
C225	C	1.536153	0.323523	1.703533
C226	C	0.869488	-0.343166	0.971124
C227	C	1.202821	-0.009833	1.304457
C228	C	1.536155	0.323501	1.637790
C229	C	0.909777	-0.302914	0.938274
C230	C	1.243111	0.030419	1.271607
C231	C	1.576444	0.363752	1.604940
H232	H	0.149847	-0.375959	0.230127
H233	H	0.483180	-0.042626	0.563460
H234	H	0.816513	0.290708	0.896793
Br235	Br	0.814830	-0.679967	0.208297
Br236	Br	1.148164	-0.346634	0.541630
Br237	Br	1.481497	-0.013300	0.874964
H238	H	0.836685	-0.375913	1.063618
H239	H	1.170018	-0.042580	1.396951
H240	H	1.503351	0.290754	1.730284
H241	H	0.982678	-0.661839	0.376379
H242	H	1.316011	-0.328506	0.709713
H243	H	1.649345	0.004828	1.043046
H244	H	0.836621	-0.542817	0.230148
H245	H	1.169954	-0.209483	0.563482
H246	H	1.503287	0.123850	0.896815
H247	H	0.982855	-0.229813	1.063675
H248	H	1.316189	0.103520	1.397008
H249	H	1.649522	0.436854	1.730341
Br250	Br	1.004674	-1.080487	0.398330
Br251	Br	1.338007	-0.747154	0.731663
Br252	Br	1.671341	-0.413821	1.064996
Br253	Br	0.814815	-0.397823	0.926493
Br254	Br	1.148149	-0.064490	1.259826
Br255	Br	1.481482	0.268843	1.593160
Br256	Br	1.004723	-0.208149	0.525736
Br257	Br	1.338056	0.125185	0.859069
Br258	Br	1.671389	0.458518	1.192403
Br259	Br	1.004706	-0.208078	0.680695
Br260	Br	1.338039	0.125255	1.014029
Br261	Br	1.671372	0.458588	1.347362
Br262	Br	0.814922	-0.925847	0.208337
Br263	Br	1.148255	-0.592514	0.541670
Br264	Br	1.481588	-0.259181	0.875004
H265	H	0.836681	-0.376052	0.662779
H266	H	1.170014	-0.042719	0.996113
H267	H	1.503347	0.290614	1.329446
Br268	Br	0.532810	-0.397849	0.208199
Br269	Br	0.866144	-0.064516	0.541532
Br270	Br	1.199477	0.268818	0.874865
H271	H	0.670166	-0.230200	0.376443
H272	H	1.003500	0.103133	0.709777
H273	H	1.336833	0.436466	1.043110
Br274	Br	1.004634	-0.925529	0.398288
Br275	Br	1.337967	-0.592195	0.731622
Br276	Br	1.671301	-0.258862	1.064955
Br277	Br	0.687771	-0.397873	0.208178
Br278	Br	1.021105	-0.064540	0.541512
Br279	Br	1.354438	0.268793	0.874845
H280	H	0.836668	-0.376093	0.543509
H281	H	1.170001	-0.042760	0.876842
H282	H	1.503335	0.290574	1.210175
Br283	Br	0.533085	-0.208349	0.398343
Br284	Br	0.866419	0.124985	0.731676
Br285	Br	1.199752	0.458318	1.065009
Br286	Br	1.004732	-0.208010	0.926572
Br287	Br	1.338065	0.125323	1.259906
Br288	Br	1.671399	0.458656	1.593239
H289	H	0.269329	-0.230121	0.376469
H290	H	0.602662	0.103212	0.709803
H291	H	0.935996	0.436546	1.043136
Br292	Br	0.814982	-1.080804	0.208358
Br293	Br	1.148315	-0.747471	0.541691
Br294	Br	1.481648	-0.414138	0.875025
H295	H	0.150065	-0.230094	0.376471
H296	H	0.483398	0.103240	0.709804
H297	H	0.816732	0.436573	1.043138
H298	H	0.982642	-0.542573	0.376350
H299	H	1.315976	-0.209240	0.709683
H300	H	1.649309	0.124093	1.043017
H301	H	0.269114	-0.375982	0.230117
H302	H	0.602448	-0.042649	0.563450
H303	H	0.935781	0.290684	0.896784
