data_functionalizedCrystal
_audit_creation_method	'MofGen! by Chris Wilmer'
_symmetry_space_group_name_H-M	'P1'
_symmetry_Int_Tables_number	1
_symmetry_cell_setting	triclinic
loop_
_symmetry_equiv_pos_as_xyz
  x,y,z
_cell_length_a	16.120490
_cell_length_b	10.686285
_cell_length_c	10.686551
_cell_angle_alpha	80.915481
_cell_angle_beta	82.497748
_cell_angle_gamma	82.516228
loop_
_atom_site_label
_atom_site_type_symbol
_atom_site_fract_x
_atom_site_fract_y
_atom_site_fract_z
Zn1	Zn	1.341638	-0.546043	-0.774513
Zn2	Zn	1.841638	-0.046043	-0.274513
Zn3	Zn	1.341570	-0.774618	-0.546006
Zn4	Zn	1.841570	-0.274618	-0.046006
Zn5	Zn	1.191191	-0.551645	-0.551565
Zn6	Zn	1.691191	-0.051645	-0.051565
Zn7	Zn	1.211208	-0.748919	-0.748929
Zn8	Zn	1.711208	-0.248919	-0.248929
O9	O	1.271402	-0.655306	-0.655253
O10	O	1.771402	-0.155306	-0.155253
O11	O	1.459148	-0.584775	-0.752581
O12	O	1.959148	-0.084775	-0.252581
O13	O	1.313216	-0.758140	-0.368514
O14	O	1.813216	-0.258140	0.131486
O15	O	1.202799	-0.372683	-0.594173
O16	O	1.702799	0.127317	-0.094173
O17	O	1.459098	-0.752708	-0.584698
O18	O	1.959098	-0.252708	-0.084698
O19	O	1.313332	-0.368567	-0.757972
O20	O	1.813332	0.131433	-0.257972
O21	O	1.202733	-0.594323	-0.372599
O22	O	1.702733	-0.094323	0.127401
O23	O	1.076327	-0.569404	-0.569365
O24	O	1.576327	-0.069404	-0.069365
O25	O	1.236916	-0.708908	-0.930552
O26	O	1.736916	-0.208908	-0.430552
O27	O	1.091033	-0.714340	-0.714368
O28	O	1.591033	-0.214340	-0.214368
O29	O	1.332742	-0.559855	-0.949348
O30	O	1.832742	-0.059855	-0.449348
O31	O	1.332626	-0.949428	-0.559890
O32	O	1.832626	-0.449428	-0.059890
O33	O	1.236850	-0.930548	-0.708978
O34	O	1.736850	-0.430548	-0.208978
C35	C	1.286927	-0.986198	-0.631084
C36	C	1.786927	-0.486198	-0.131084
C37	C	1.293647	-1.127757	-0.620792
C38	C	1.793647	-0.627757	-0.120792
C39	C	1.053209	-0.639692	-0.639695
C40	C	1.553209	-0.139692	-0.139695
C41	C	0.959868	-0.633040	-0.633067
C42	C	1.459868	-0.133040	-0.133067
C43	C	0.754685	-0.689799	-0.689637
C44	C	1.254685	-0.189799	-0.189637
C45	C	0.788979	-0.620908	-0.620963
C46	C	1.288979	-0.120908	-0.120963
C47	C	0.884070	-0.627660	-0.627699
C48	C	1.384070	-0.127660	-0.127699
C49	C	0.659585	-0.683048	-0.682902
C50	C	1.159585	-0.183048	-0.182902
C51	C	1.490447	-0.670983	-0.670873
C52	C	1.990447	-0.170983	-0.170873
C53	C	1.583791	-0.677663	-0.677529
C54	C	2.083791	-0.177663	-0.177529
C55	C	1.287069	-0.630890	-0.987455
C56	C	1.787069	-0.130890	-0.487455
C57	C	1.293746	-0.620485	-1.129019
C58	C	1.793746	-0.120485	-0.629019
C59	C	1.255840	-0.323123	-0.679546
C60	C	1.755840	0.176877	-0.179546
C61	C	1.249209	-0.181566	-0.689898
C62	C	1.749209	0.318434	-0.189898
C63	C	1.255839	-0.679540	-0.324354
C64	C	1.755839	-0.179540	0.175646
C65	C	1.249308	-0.689597	-0.182828
C66	C	1.749308	-0.189597	0.317172
H67	H	1.206022	-1.119338	-0.756939
H68	H	1.706022	-0.619338	-0.256939
Cl69	Cl	1.360319	-1.223836	-0.517264
Cl70	Cl	1.860319	-0.723836	-0.017264
Cl71	Cl	1.182686	-0.793250	-1.086749
Cl72	Cl	1.682686	-0.293250	-0.586749
H73	H	0.746923	-0.556857	-0.557110
H74	H	1.246923	-0.056857	-0.057110
H75	H	0.796738	-0.753846	-0.753483
H76	H	1.296738	-0.253846	-0.253483
Cl77	Cl	1.360381	-0.516842	-1.225103
Cl78	Cl	1.860381	-0.016842	-0.725103
