data_functionalizedCrystal
_audit_creation_method	'MofGen! by Chris Wilmer'
_symmetry_space_group_name_H-M	'P1'
_symmetry_Int_Tables_number	1
_symmetry_cell_setting	triclinic
loop_
_symmetry_equiv_pos_as_xyz
  x,y,z
_cell_length_a	12.759400
_cell_length_b	12.759401
_cell_length_c	10.686551
_cell_angle_alpha	94.395706
_cell_angle_beta	85.594162
_cell_angle_gamma	89.989237
loop_
_atom_site_label
_atom_site_type_symbol
_atom_site_fract_x
_atom_site_fract_y
_atom_site_fract_z
Zn1	Zn	-0.372729	-1.651856	-0.713459
Zn2	Zn	-0.561929	-1.638264	-0.502457
Zn3	Zn	-0.386252	-1.462673	-0.502474
Zn4	Zn	-0.548357	-1.476143	-0.713407
O5	O	-0.467317	-1.557234	-0.607949
O6	O	-0.397847	-1.797075	-0.685483
O7	O	-0.549965	-1.603646	-0.325878
O8	O	-0.237435	-1.487819	-0.530491
O9	O	-0.536852	-1.787089	-0.530461
O10	O	-0.227500	-1.626811	-0.685500
O11	O	-0.420895	-1.474640	-0.325890
O12	O	-0.407735	-1.317438	-0.530441
O13	O	-0.513720	-1.510777	-0.889995
O14	O	-0.526833	-1.327334	-0.685412
O15	O	-0.384687	-1.639872	-0.890033
O16	O	-0.707152	-1.616707	-0.530411
O17	O	-0.697181	-1.497598	-0.685395
C18	C	-0.467280	-1.284265	-0.607923
C19	C	-0.467287	-1.167489	-0.607942
C20	C	-0.395023	-1.117828	-0.688786
C21	C	-0.395037	-1.008104	-0.688790
C22	C	-0.539588	-0.997713	-0.527104
C23	C	-0.539568	-1.107434	-0.527094
C24	C	-0.322742	-1.177883	-0.769634
C25	C	-0.250473	-1.128222	-0.850485
C26	C	-0.250487	-1.018498	-0.850490
C27	C	-0.322770	-0.958435	-0.769643
C28	C	-0.740286	-1.557170	-0.607923
C29	C	-0.857060	-1.557241	-0.607954
C30	C	-0.917074	-1.619342	-0.527343
C31	C	-1.026795	-1.619409	-0.527382
C32	C	-1.016480	-1.495266	-0.688646
C33	C	-0.906760	-1.495205	-0.688613
C34	C	-0.867374	-1.681378	-0.446684
C35	C	-0.927388	-1.743482	-0.366065
C36	C	-1.037109	-1.743550	-0.366104
C37	C	-1.086817	-1.681512	-0.446761
C38	C	-0.193280	-1.557328	-0.608003
C39	C	-0.076502	-1.557369	-0.608026
C40	C	-0.446181	-1.578343	-0.937080
C41	C	-0.437175	-1.587339	-1.077336
C42	C	-0.467342	-0.831268	-0.607968
C43	C	-0.467321	-0.948044	-0.607957
C44	C	-0.488294	-1.536267	-0.280099
C45	C	-0.497005	-1.527475	-0.139843
H46	H	-0.598412	-1.147869	-0.461264
O47	O	-0.760777	-1.681327	-0.446876
C48	C	-0.716279	-1.715992	-0.567816
H49	H	-0.774828	-1.702707	-0.640508
H50	H	-0.641472	-1.669972	-0.590172
H51	H	-0.696555	-1.803327	-0.570566
O52	O	-0.322553	-1.284475	-0.769749
C53	C	-0.243281	-1.326837	-0.858464
H54	H	-0.180786	-1.264755	-0.876272
H55	H	-0.205793	-1.397804	-0.820471
H56	H	-0.279162	-1.352206	-0.950383
O57	O	-0.180302	-1.186458	-0.929188
C58	C	-0.195378	-1.167739	-1.054907
H59	H	-0.235616	-1.088234	-1.057440
H60	H	-0.115986	-1.167635	-1.111651
H61	H	-0.246721	-1.232211	-1.097291
H62	H	-0.555121	-1.469343	-1.086059
O63	O	-0.878942	-1.803649	-0.287762
C64	C	-0.769230	-1.790295	-0.305032
H65	H	-0.751641	-1.711825	-0.346269
H66	H	-0.733631	-1.791397	-0.210505
H67	H	-0.733700	-1.856865	-0.372283
H68	H	-0.191636	-0.978067	-0.916313
H69	H	-0.322755	-0.869090	-0.769626
H70	H	-0.598439	-0.948801	-0.461285
O71	O	-1.064706	-1.435124	-0.767165
C72	C	-1.029741	-1.466035	-0.892947
H73	H	-0.999100	-1.550360	-0.899401
H74	H	-1.097882	-1.460982	-0.955297
H75	H	-0.963970	-1.411761	-0.925855
H76	H	-1.085970	-1.794126	-0.300469
O77	O	-1.193413	-1.681669	-0.446608
C78	C	-1.235726	-1.749811	-0.358192
H79	H	-1.177249	-1.759807	-0.284458
H80	H	-1.312251	-1.715114	-0.310304
H81	H	-1.251895	-1.829612	-0.408317
H82	H	-0.857896	-1.444638	-0.754255
H83	H	-0.379061	-1.645482	-1.131127
