data_functionalizedCrystal
_audit_creation_method	'MofGen! by Chris Wilmer'
_symmetry_space_group_name_H-M	'P1'
_symmetry_Int_Tables_number	1
_symmetry_cell_setting	triclinic
loop_
_symmetry_equiv_pos_as_xyz
  x,y,z
_cell_length_a	15.298068
_cell_length_b	29.839131
_cell_length_c	15.296720
_cell_angle_alpha	80.362437
_cell_angle_beta	91.645182
_cell_angle_gamma	99.700155
loop_
_atom_site_label
_atom_site_type_symbol
_atom_site_fract_x
_atom_site_fract_y
_atom_site_fract_z
Zn1	Zn	1.253295	-0.133649	0.727329
Zn2	Zn	1.278520	-0.193987	0.580844
Zn3	Zn	1.132178	-0.129284	0.555497
Zn4	Zn	1.106733	-0.219174	0.701861
O5	O	1.192681	-0.169024	0.641382
O6	O	1.379222	-0.132940	0.729164
O7	O	1.280312	-0.173037	0.454923
O8	O	1.148336	-0.066992	0.578341
O9	O	1.397755	-0.177270	0.621542
O10	O	1.237321	-0.070200	0.704585
O11	O	1.172796	-0.125500	0.436301
O12	O	1.006221	-0.149922	0.553646
O13	O	1.104970	-0.220196	0.827797
O14	O	0.987527	-0.215963	0.661179
O15	O	1.212648	-0.157362	0.846509
O16	O	1.255640	-0.260199	0.596846
O17	O	1.129429	-0.278703	0.685757
C18	C	0.965090	-0.185202	0.601899
C19	C	0.867722	-0.192136	0.585028
C20	C	0.554603	-0.119577	0.761961
C21	C	0.646085	-0.113064	0.777817
C22	C	0.701498	-0.132831	0.729621
C23	C	0.665422	-0.159113	0.665567
C24	C	0.573931	-0.165630	0.649714
C25	C	0.720826	-0.178884	0.617374
C26	C	0.684749	-0.205166	0.553320
C27	C	0.593267	-0.211682	0.537470
C28	C	0.537853	-0.191914	0.585666
C29	C	0.812317	-0.172367	0.633226
C30	C	0.831645	-0.218420	0.520980
C31	C	0.740163	-0.224934	0.505124
C32	C	1.192531	-0.285753	0.641312
C33	C	1.192541	-0.335688	0.641324
C34	C	1.258487	-0.635677	0.595186
C35	C	1.258589	-0.823346	0.595239
O36	O	1.314539	-0.839408	0.555955
N37	N	1.192852	-0.856459	0.641480
C38	C	1.127087	-0.842654	0.687716
O39	O	1.071181	-0.875125	0.727055
C40	C	1.126989	-0.654986	0.687668
C41	C	1.192726	-0.621874	0.641416
C42	C	1.324219	-0.602566	0.548939
C43	C	1.324190	-0.555652	0.548923
C44	C	1.258429	-0.541848	0.595153
C45	C	1.192697	-0.574959	0.641400
C46	C	1.061229	-0.641181	0.733908
C47	C	1.061212	-0.594260	0.733894
C48	C	1.126949	-0.561148	0.687643
C49	C	1.126907	-0.514242	0.687613
N50	N	1.192645	-0.481128	0.641372
C51	C	1.258406	-0.494932	0.595142
C52	C	1.127142	-0.941181	0.687736
C53	C	1.127165	-0.988098	0.687747
C54	C	1.258669	-0.968787	0.595271
C55	C	1.258641	-0.921870	0.595256
C56	C	1.192880	-0.908068	0.641495
C57	C	1.258339	-0.396409	0.595110
C58	C	1.258302	-0.349491	0.595094
C59	C	1.126802	-0.368806	0.687573
C60	C	1.126836	-0.415720	0.687586
C61	C	1.192612	-0.429519	0.641352
O62	O	1.070992	-0.498146	0.726884
O63	O	1.314315	-0.462454	0.555824
C64	C	1.258516	-0.682592	0.595203
C65	C	1.192784	-0.715703	0.641450
C66	C	1.127023	-0.701899	0.687680
C67	C	1.192807	-0.762619	0.641461
C68	C	1.258568	-0.776423	0.595230
C69	C	1.324306	-0.743309	0.548989
C70	C	1.324277	-0.696395	0.548973
C71	C	1.061285	-0.735013	0.733921
C72	C	1.061319	-0.781926	0.733933
C73	C	1.127080	-0.795730	0.687703
C74	C	1.421161	-0.152782	0.681021
C75	C	1.518526	-0.145861	0.697912
C76	C	1.153157	-0.192075	0.869819
C77	C	1.136314	-0.201899	0.967166
C78	C	1.192853	-0.051839	0.641477
C79	C	1.192926	-0.001901	0.641517
C80	C	1.232103	-0.146026	0.413843
C81	C	1.249115	-0.136064	0.316526
C82	C	1.313094	-0.098734	1.280538
C83	C	1.328924	-0.089505	1.189078
C84	C	1.280773	-0.117602	1.133595
C85	C	1.216789	-0.154931	1.169582
C86	C	1.200962	-0.164163	1.261053
C87	C	1.168641	-0.183031	1.114110
C88	C	1.104657	-0.220360	1.150097
C89	C	1.088832	-0.229590	1.241559
C90	C	1.136983	-0.201493	1.297041
C91	C	1.184468	-0.173799	1.022639
C92	C	1.072336	-0.239228	1.003154
C93	C	1.056505	-0.248457	1.094615
H94	H	0.876762	-0.234519	0.481739
H95	H	1.073258	-0.357560	0.725211
C96	C	0.953208	-0.254596	1.323996
C97	C	1.018518	-0.270627	1.281130
H98	H	0.909806	-0.279933	1.348431
H99	H	0.925892	-0.233811	1.282520
H100	H	0.979633	-0.239180	1.370118
H101	H	0.992093	-0.286040	1.235004
H102	H	1.045836	-0.291420	1.322609
C103	C	0.768451	-0.269801	0.395760
C104	C	0.700502	-0.253825	0.434721
H105	H	0.743964	-0.287635	0.352294
H106	H	0.797529	-0.288320	0.440035
H107	H	0.809935	-0.244281	0.368516
H108	H	0.659021	-0.279346	0.461972
H109	H	0.671409	-0.235305	0.390439
C110	C	1.388296	-0.335123	0.503689
C111	C	1.330568	-0.313095	0.544256
H112	H	1.432911	-0.312654	0.472310
H113	H	1.355969	-0.352777	0.463549
H114	H	1.415169	-0.354871	0.547700
H115	H	1.303690	-0.293349	0.500244
H116	H	1.362900	-0.295433	0.584399
C117	C	0.931236	-0.618065	0.825318
C118	C	0.988923	-0.579090	0.784724
H119	H	0.886607	-0.608699	0.856693
H120	H	0.963590	-0.637006	0.865465
H121	H	0.904379	-0.634916	0.781322
H122	H	1.015786	-0.562241	0.828721
H123	H	0.956565	-0.560141	0.744574
C124	C	0.519091	-0.049877	0.800043
C125	C	0.493696	-0.097853	0.814940
H126	H	0.481491	-0.036467	0.832760
H127	H	0.514260	-0.038390	0.738631
H128	H	0.578741	-0.042239	0.818651
H129	H	0.434048	-0.105492	0.796326
H130	H	0.498519	-0.109344	0.876365
H131	H	0.775987	-0.127525	0.742531
C132	C	1.307556	-0.047824	1.385572
C133	C	1.366018	-0.067854	1.341524
H134	H	1.340236	-0.028757	1.423219
H135	H	1.267197	-0.071377	1.420088
H136	H	1.275598	-0.029746	1.343278
H137	H	1.397972	-0.085934	1.383818
H138	H	1.406394	-0.044298	1.307006
C139	C	1.378336	-0.439488	0.603505
C140	C	1.330653	-0.411567	0.544297
H141	H	1.422984	-0.448841	0.572134
H142	H	1.339202	-0.465926	0.631029
H143	H	1.405172	-0.422627	0.647496
H144	H	1.303812	-0.428429	0.500309
H145	H	1.369794	-0.385124	0.516759
C146	C	0.992893	-0.814360	0.874790
C147	C	0.989056	-0.818321	0.784780
H148	H	0.948288	-0.836830	0.906184
H149	H	0.983466	-0.784445	0.881382
H150	H	1.049523	-0.819129	0.897851
H151	H	0.932428	-0.813549	0.761717
H152	H	0.998476	-0.848244	0.778183
C153	C	0.996852	-0.430092	0.778998
C154	C	1.054578	-0.452119	0.738425
H155	H	0.952251	-0.452563	0.810395
H156	H	0.969968	-0.410352	0.734997
H157	H	1.029190	-0.412431	0.819132
H158	H	1.022242	-0.469778	0.698286
H159	H	1.081465	-0.471867	0.782432
H160	H	1.124098	-0.209005	1.371517
H161	H	0.675451	-0.091667	0.829972
H162	H	0.463360	-0.197219	0.572765
C163	C	1.454264	-0.682035	0.457574
C164	C	1.396543	-0.660002	0.498139
H165	H	1.498884	-0.659569	0.426196
H166	H	1.421933	-0.699688	0.417434
H167	H	1.481132	-0.701785	0.501586
H168	H	1.369671	-0.640255	0.454126
H169	H	1.428878	-0.642342	0.538282
H170	H	1.377849	-0.754556	0.511344
H171	H	0.841681	-0.150968	0.685379
C172	C	1.220146	-0.098876	0.988107
C173	C	1.298175	-0.107478	1.033060
H174	H	1.230893	-0.092633	0.926039
H175	H	1.201479	-0.073040	1.006161
H176	H	1.175150	-0.125127	1.001626
H177	H	1.343170	-0.081225	1.019547
H178	H	1.316854	-0.133317	1.014999
H179	H	1.381022	-0.059113	1.159784
H180	H	1.377721	-0.528694	0.511264
H181	H	1.007736	-0.723779	0.771568
H182	H	1.004409	-0.278850	1.123929
C183	C	1.046798	-0.254127	0.854294
C184	C	1.019399	-0.270115	0.942176
H185	H	1.014116	-0.273194	0.816646
H186	H	1.108229	-0.255009	0.849513
H187	H	1.036613	-0.223339	0.837118
H188	H	1.029590	-0.300903	0.959354
H189	H	0.957953	-0.269239	0.946960
H190	H	0.563896	-0.233086	0.485319
C191	C	1.388624	-0.907506	0.503849
C192	C	1.330905	-0.885475	0.544422
H193	H	1.433242	-0.885038	0.472470
H194	H	1.356292	-0.925157	0.463708
H195	H	1.415495	-0.927257	0.547857
H196	H	1.304029	-0.865727	0.500413
H197	H	1.363242	-0.867816	0.584566
H198	H	1.377774	-0.613798	0.511294
H199	H	1.312214	-0.980033	0.557629
H200	H	1.073629	-1.015054	0.725400
H201	H	1.073589	-0.929948	0.725391
C202	C	1.028619	-0.706674	0.849613
C203	C	0.988974	-0.677569	0.784760
H204	H	0.984008	-0.729140	0.881006
H205	H	1.060950	-0.689013	0.889738
H206	H	1.067773	-0.721615	0.822071
H207	H	0.949824	-0.662626	0.812302
H208	H	0.956628	-0.695234	0.744629
H209	H	1.236563	-0.143406	0.993348
