data_functionalizedCrystal
_audit_creation_method	'MofGen! by Chris Wilmer'
_symmetry_space_group_name_H-M	'P1'
_symmetry_Int_Tables_number	1
_symmetry_cell_setting	triclinic
loop_
_symmetry_equiv_pos_as_xyz
  x,y,z
_cell_length_a	10.489741
_cell_length_b	10.723024
_cell_length_c	9.798715
_cell_angle_alpha	90.001978
_cell_angle_beta	90.001001
_cell_angle_gamma	84.503522
loop_
_atom_site_label
_atom_site_type_symbol
_atom_site_fract_x
_atom_site_fract_y
_atom_site_fract_z
O1	O	-1.693940	-0.176060	-0.113403
O2	O	-1.322734	-0.192587	-0.113424
O3	O	-1.516899	-0.002753	-0.113408
O4	O	-1.499774	-0.365895	-0.113419
O5	O	-1.516885	-0.002752	0.113574
O6	O	-1.322719	-0.192586	0.113558
O7	O	-1.693925	-0.176060	0.113579
Zn8	Zn	-1.508320	-0.184323	0.149607
Zn9	Zn	-1.508339	-0.184324	-0.149452
O10	O	-1.499760	-0.365894	0.113563
C11	C	-1.275196	-0.191338	0.000065
C12	C	-1.133569	-0.187604	0.000057
C13	C	-1.741464	-0.177308	0.000088
C14	C	-1.883091	-0.181043	0.000087
C15	C	-1.065506	-0.066818	0.000073
C16	C	-0.973349	-0.123876	-0.111840
C17	C	-0.973369	-0.123905	0.111947
C18	C	-1.043278	-0.244712	-0.111949
C19	C	-1.043307	-0.244723	0.111939
C20	C	-0.951178	-0.301869	-0.000002
C21	C	-1.515646	0.043748	0.000082
C22	C	-1.511917	0.182305	0.000077
C23	C	-1.501013	-0.412395	0.000071
C24	C	-1.504742	-0.550951	0.000067
N25	N	-1.508316	-0.184322	0.353707
C26	C	-1.620562	0.257221	0.000081
C27	C	-1.616711	0.400426	0.000076
N28	N	-1.508353	-0.184315	-0.353551
C29	C	-1.589841	-0.104264	0.421490
C30	C	-1.589861	-0.104260	0.578653
H31	H	-1.115259	0.032476	-0.000064
H32	H	-1.416051	0.224185	0.000062
H33	H	-0.942374	-0.072769	-0.206453
H34	H	-1.074314	-0.295789	0.206556
H35	H	-1.659619	-0.035722	0.363174
Cl36	Cl	-0.925585	-0.044970	0.258027
Cl37	Cl	-1.361131	0.349671	0.000072
Cl38	Cl	-1.090825	-0.323555	-0.258193
Cl39	Cl	-0.874766	-0.455330	-0.000096
Cl40	Cl	-1.697634	0.001560	0.668644
H41	H	-1.716428	0.215340	0.000095
Cl42	Cl	-1.760317	0.499811	0.000092
Cl43	Cl	-1.400590	-0.290152	0.556467
Cl44	Cl	-1.400567	-0.290137	0.443737
