data_functionalizedCrystal
_audit_creation_method	'MofGen! by Chris Wilmer'
_symmetry_space_group_name_H-M	'P1'
_symmetry_Int_Tables_number	1
_symmetry_cell_setting	triclinic
loop_
_symmetry_equiv_pos_as_xyz
  x,y,z
_cell_length_a	16.109301
_cell_length_b	16.109301
_cell_length_c	14.586319
_cell_angle_alpha	90.000846
_cell_angle_beta	90.000787
_cell_angle_gamma	96.538519
loop_
_atom_site_label
_atom_site_type_symbol
_atom_site_fract_x
_atom_site_fract_y
_atom_site_fract_z
O1	O	-1.103131	0.106866	-0.076173
O2	O	-0.603131	0.606866	0.423827
O3	O	-0.861069	0.120165	-0.076186
O4	O	-0.361069	0.620165	0.423814
O5	O	-0.988749	-0.007515	-0.076184
O6	O	-0.488749	0.492485	0.423816
O7	O	-0.975450	0.234547	-0.076175
O8	O	-0.475450	0.734547	0.423825
O9	O	-0.988741	-0.007517	0.076297
O10	O	-0.488741	0.492483	0.576297
O11	O	-0.861060	0.120164	0.076295
O12	O	-0.361060	0.620164	0.576295
O13	O	-1.103122	0.106864	0.076308
O14	O	-0.603122	0.606864	0.576308
Cu15	Cu	-0.982090	0.113514	0.090224
Cu16	Cu	-0.482090	0.613514	0.590224
Cu17	Cu	-0.982101	0.113516	-0.090102
Cu18	Cu	-0.482101	0.613516	0.409898
O19	O	-0.975441	0.234545	0.076306
O20	O	-0.475441	0.734545	0.576306
C21	C	-0.830090	0.119626	0.000052
C22	C	-0.330090	0.619626	0.500052
C23	C	-0.737794	0.118011	0.000047
C24	C	-0.237794	0.618011	0.500047
C25	C	-0.988206	-0.038491	0.000053
C26	C	-0.488206	0.461509	0.500053
C27	C	-0.986591	-0.130786	0.000044
C28	C	-0.486591	0.369214	0.500044
N29	N	-0.982089	0.113512	0.217056
N30	N	-0.482089	0.613512	0.717056
C31	C	-1.134101	0.107404	0.000067
C32	C	-0.634101	0.607404	0.500067
C33	C	-1.226397	0.109019	0.000067
C34	C	-0.726397	0.609019	0.500067
C35	C	-0.515522	0.190018	0.000060
C36	C	-0.015522	0.690018	0.500060
C37	C	-0.428801	0.188494	0.000066
C38	C	0.071199	0.688494	0.500066
C39	C	-0.448676	0.037006	0.000057
C40	C	0.051324	0.537006	0.500057
C41	C	-0.535394	0.038530	0.000057
C42	C	-0.035394	0.538530	0.500057
C43	C	-0.568815	0.115039	0.000054
C44	C	-0.068815	0.615039	0.500054
C45	C	-0.395376	0.111990	0.000059
C46	C	0.104624	0.611990	0.500059
C47	C	-0.301350	0.110337	0.000066
C48	C	0.198650	0.610337	0.500066
C49	C	-0.662847	0.116693	0.000050
C50	C	-0.162847	0.616693	0.500050
C51	C	-0.975984	0.265521	0.000066
C52	C	-0.475984	0.765521	0.500066
C53	C	-0.977600	0.357816	0.000070
C54	C	-0.477600	0.857816	0.500070
C55	C	-0.905592	0.580088	0.000053
C56	C	-0.405592	1.080088	0.500053
C57	C	-0.907116	0.666809	0.000046
C58	C	-0.407116	1.166809	0.500046
C59	C	-1.058605	0.646934	0.000058
C60	C	-0.558605	1.146934	0.500058
C61	C	-1.057080	0.560216	0.000059
C62	C	-0.557080	1.060216	0.500059
C63	C	-0.980571	0.526795	0.000060
C64	C	-0.480571	1.026795	0.500060
C65	C	-0.983620	0.700234	0.000053
C66	C	-0.483620	1.200234	0.500053
C67	C	-0.985273	0.794260	0.000046
C68	C	-0.485273	1.294260	0.500046
C69	C	-0.978917	0.432763	0.000066
C70	C	-0.478917	0.932763	0.500066
N71	N	-0.982109	0.113511	-0.216934
N72	N	-0.482109	0.613511	0.283066
C73	C	-1.038644	0.056994	0.452063
C74	C	-0.538644	0.556994	0.952063
C75	C	-1.038647	0.056992	0.548044
C76	C	-0.538647	0.556992	1.048044
C77	C	-0.925547	0.170032	0.548052
C78	C	-0.425547	0.670032	1.048052
C79	C	-0.925541	0.170030	0.452072
C80	C	-0.425541	0.670030	0.952072
C81	C	-0.982095	0.113511	0.404081
C82	C	-0.482095	0.613511	0.904081
C83	C	-0.982103	0.113512	0.596041
C84	C	-0.482103	0.613512	1.096041
C85	C	-0.982105	0.113510	0.700108
C86	C	-0.482105	0.613510	1.200108
C87	C	-0.982092	0.113512	0.300007
C88	C	-0.482092	0.613512	0.800007
H89	H	-0.542730	0.252317	0.000065
H90	H	-0.042730	0.752317	0.500065
C91	C	-0.370182	0.270971	0.000066
C92	C	0.129818	0.770971	0.500066
H93	H	-0.402510	0.316752	0.000057
H94	H	0.097490	0.816752	0.500057
H95	H	-0.335939	0.273528	0.053239
H96	H	0.164061	0.773528	0.553239
H97	H	-0.335942	0.273524	-0.053115
H98	H	0.164058	0.773524	0.446885
H99	H	-0.843293	0.552881	0.000057
H100	H	-0.343293	1.052881	0.500057
H101	H	-0.879487	0.216053	0.413002
H102	H	-0.379487	0.716053	0.913002
C103	C	-1.139558	0.501586	0.000061
C104	C	-0.639558	1.001586	0.500061
H105	H	-1.127691	0.445154	0.000049
H106	H	-0.627691	0.945154	0.500049
H107	H	-1.170932	0.511710	0.053234
H108	H	-0.670932	1.011710	0.553234
H109	H	-1.170928	0.511716	-0.053120
H110	H	-0.670928	1.011716	0.446880
C111	C	-0.824639	0.725428	0.000043
C112	C	-0.324639	1.225428	0.500043
H113	H	-0.778858	0.693101	0.000051
H114	H	-0.278858	1.193101	0.500051
H115	H	-0.822085	0.759669	-0.053131
H116	H	-0.322085	1.259669	0.446869
H117	H	-0.822083	0.759671	0.053223
H118	H	-0.322083	1.259671	0.553223
H119	H	-0.578788	-0.022530	0.000055
H120	H	-0.078788	0.477470	0.500055
H121	H	-1.120896	0.674156	0.000066
H122	H	-0.620896	1.174156	0.500066
C123	C	-0.863351	0.232205	0.600846
C124	C	-0.363351	0.732205	1.100846
H125	H	-0.871458	0.224119	0.664880
H126	H	-0.371458	0.724119	1.164880
H127	H	-0.807866	0.223163	0.585124
H128	H	-0.307866	0.723163	1.085124
H129	H	-0.872371	0.287697	0.585111
H130	H	-0.372371	0.787697	1.085111
C131	C	-0.411910	-0.047147	0.000048
C132	C	0.088090	0.452853	0.500048
H133	H	-0.352630	-0.037318	0.000038
H134	H	0.147370	0.462682	0.500038
H135	H	-0.430202	-0.078024	0.053217
H136	H	0.069798	0.421976	0.553217
H137	H	-0.430207	-0.078012	-0.053136
H138	H	0.069793	0.421988	0.446864
C139	C	-1.100843	-0.005181	0.399275
C140	C	-0.600843	0.494819	0.899275
H141	H	-1.134516	-0.038846	0.441602
H142	H	-0.634516	0.461154	0.941602
H143	H	-1.135442	0.024732	0.361828
H144	H	-0.635442	0.524732	0.861828
H145	H	-1.070937	-0.039802	0.361840
H146	H	-0.570937	0.460198	0.861840
H147	H	-1.084694	0.010969	0.587109
H148	H	-0.584694	0.510969	1.087109
