data_functionalizedCrystal
_audit_creation_method	'MofGen! by Chris Wilmer'
_symmetry_space_group_name_H-M	'P1'
_symmetry_Int_Tables_number	1
_symmetry_cell_setting	triclinic
loop_
_symmetry_equiv_pos_as_xyz
  x,y,z
_cell_length_a	6.817900
_cell_length_b	8.749630
_cell_length_c	12.200875
_cell_angle_alpha	93.117997
_cell_angle_beta	107.143593
_cell_angle_gamma	105.181985
loop_
_atom_site_label
_atom_site_type_symbol
_atom_site_fract_x
_atom_site_fract_y
_atom_site_fract_z
V1	V	-4.075833	-0.219162	-0.356169
V2	V	-3.575833	0.280838	0.143831
O3	O	-4.054691	0.010162	-0.350922
O4	O	-3.554691	0.510162	0.149078
O5	O	-4.034441	-0.434206	-0.352259
O6	O	-3.534441	0.065794	0.147741
O7	O	-4.045446	-0.215953	-0.512179
O8	O	-3.545446	0.284047	-0.012179
O9	O	-4.043609	-0.209602	-0.189895
O10	O	-3.543609	0.290398	0.310105
V11	V	-4.556219	-0.191713	-0.336460
V12	V	-4.056219	0.308287	0.163540
O13	O	-4.343973	-0.279374	-0.399402
O14	O	-3.843973	0.220626	0.100598
O15	O	-4.738276	-0.131502	-0.293228
O16	O	-4.238276	0.368498	0.206772
O17	O	-4.374405	0.023331	-0.340370
O18	O	-3.874405	0.523331	0.159630
O19	O	-4.694758	-0.421038	-0.341708
O20	O	-4.194758	0.078962	0.158292
O21	O	-4.705840	-0.201274	-0.502735
O22	O	-4.205840	0.298726	-0.002735
O23	O	-4.363399	-0.194922	-0.180450
O24	O	-3.863399	0.305078	0.319550
C25	C	-3.880564	-0.486625	-0.346260
C26	C	-3.380564	0.013375	0.153740
C27	C	-3.928127	-0.662427	-0.344103
C28	C	-3.428127	-0.162427	0.155897
C29	C	-3.894601	-0.208219	-0.550253
C30	C	-3.394601	0.291781	-0.050253
C31	C	-3.951086	-0.207018	-0.677782
C32	C	-3.451086	0.292982	-0.177782
C33	C	-4.054462	-0.204822	-0.911271
C34	C	-3.554462	0.295178	-0.411271
C35	C	-3.996928	-0.206043	-0.781341
C36	C	-3.496928	0.293957	-0.281341
C37	C	-4.191624	0.075741	-0.346366
C38	C	-3.691624	0.575741	0.153634
C39	C	-4.123299	0.251542	-0.348530
C40	C	-3.623299	0.751542	0.151470
C41	C	-4.177586	-0.202662	-0.142371
C42	C	-3.677586	0.297338	0.357629
C43	C	-4.100339	-0.203855	-0.014840
C44	C	-3.600339	0.296145	0.485160
H45	H	-3.797416	-0.723275	-0.338670
H46	H	-3.297416	-0.223275	0.161330
H47	H	-4.254009	-0.687621	-0.353976
H48	H	-3.754009	-0.187621	0.146024
