data_functionalizedCrystal
_audit_creation_method	'MofGen! by Chris Wilmer'
_symmetry_space_group_name_H-M	'P1'
_symmetry_Int_Tables_number	1
_symmetry_cell_setting	triclinic
loop_
_symmetry_equiv_pos_as_xyz
  x,y,z
_cell_length_a	19.077105
_cell_length_b	29.839131
_cell_length_c	19.077314
_cell_angle_alpha	87.671017
_cell_angle_beta	89.892247
_cell_angle_gamma	87.737628
loop_
_atom_site_label
_atom_site_type_symbol
_atom_site_fract_x
_atom_site_fract_y
_atom_site_fract_z
Zn1	Zn	1.058190	-0.194756	-0.440402
Zn2	Zn	1.062792	-0.273014	-0.322884
Zn3	Zn	0.945405	-0.195004	-0.318193
Zn4	Zn	0.940619	-0.266962	-0.435639
O5	O	1.001752	-0.232434	-0.379280
O6	O	1.157132	-0.207566	-0.428769
O7	O	1.051149	-0.265302	-0.223929
O8	O	0.960444	-0.132105	-0.334435
O9	O	1.160512	-0.265062	-0.342429
O10	O	1.043307	-0.131923	-0.424221
O11	O	0.964906	-0.207989	-0.220482
O12	O	0.846440	-0.202120	-0.329816
O13	O	0.952286	-0.254747	-0.534604
O14	O	0.842923	-0.254987	-0.416103
O15	O	1.038665	-0.201697	-0.538103
O16	O	1.046508	-0.335077	-0.337811
O17	O	0.956748	-0.330630	-0.420652
C18	C	0.819185	-0.227924	-0.371935
C19	C	0.741082	-0.226005	-0.368809
C20	C	0.702579	-0.252674	-0.412195
C21	C	0.629192	-0.250865	-0.409261
C22	C	0.594310	-0.222389	-0.362938
C23	C	0.632818	-0.195717	-0.319550
C24	C	0.706204	-0.197524	-0.322488
C25	C	0.375027	-0.214026	-0.349346
C26	C	0.301636	-0.212222	-0.346410
C27	C	0.298015	-0.267369	-0.436123
C28	C	0.371402	-0.269176	-0.439053
C29	C	0.409904	-0.242502	-0.395668
N30	N	0.519298	-0.220540	-0.359937
N31	N	0.484915	-0.244349	-0.398673
C32	C	1.001626	-0.349154	-0.379240
C33	C	1.001636	-0.399089	-0.379249
C34	C	1.048569	-0.711037	-0.336213
C35	C	1.048654	-0.898712	-0.336244
O36	O	1.088459	-0.924935	-0.299623
N37	N	1.001895	-0.919878	-0.379338
C38	C	0.955114	-0.894123	-0.422432
O39	O	0.915350	-0.916432	-0.459092
C40	C	0.955033	-0.706449	-0.422404
C41	C	1.001790	-0.685285	-0.379302
C42	C	1.095323	-0.689873	-0.293115
C43	C	1.095298	-0.642957	-0.293105
C44	C	1.048520	-0.617205	-0.336193
C45	C	1.001766	-0.638370	-0.379292
C46	C	0.908256	-0.680695	-0.465500
C47	C	0.908241	-0.633774	-0.465491
C48	C	0.954998	-0.612610	-0.422388
C49	C	0.954963	-0.565702	-0.422370
N50	N	1.001722	-0.544536	-0.379275
C51	C	1.048500	-0.570287	-0.336187
C52	C	0.955160	-0.992654	-0.422442
C53	C	0.955179	-1.039572	-0.422448
C54	C	1.048720	-1.044158	-0.336261
C55	C	1.048697	-0.997239	-0.336252
C56	C	1.001919	-0.971488	-0.379348
C57	C	1.048445	-0.471761	-0.336169
C58	C	1.048414	-0.424840	-0.336160
C59	C	0.954876	-0.420259	-0.422349
C60	C	0.954904	-0.467175	-0.422355
C61	C	1.001694	-0.492925	-0.379263
O62	O	0.915184	-0.539451	-0.458977
O63	O	1.088270	-0.547969	-0.299544
C64	C	1.048593	-0.757953	-0.336223
C65	C	1.001839	-0.779117	-0.379322
C66	C	0.955060	-0.753365	-0.422410
C67	C	1.001858	-0.826035	-0.379328
C68	C	1.048637	-0.851787	-0.336240
C69	C	1.095396	-0.830621	-0.293145
C70	C	1.095372	-0.783705	-0.293135
C71	C	0.908301	-0.774532	-0.465504
C72	C	0.908329	-0.821448	-0.465510
C73	C	0.955108	-0.847199	-0.422422
C74	C	1.185031	-0.236961	-0.386654
C75	C	1.263133	-0.238891	-0.389796
C76	C	0.994428	-0.227519	-0.562563
C77	C	0.991308	-0.225425	-0.640668
C78	C	1.001896	-0.115258	-0.379336
C79	C	1.001958	-0.065324	-0.379360
C80	C	1.034740	-0.254280	-0.679159
C81	C	1.031808	-0.252306	-0.752546
C82	C	0.985439	-0.221480	-0.787442
C83	C	0.942005	-0.192623	-0.748946
C84	C	0.944941	-0.194594	-0.675560
C85	C	0.971846	-0.212382	-1.006730
C86	C	0.968911	-0.210414	-1.080121
C87	C	1.058716	-0.270098	-1.083717
C88	C	1.061645	-0.272068	-1.010329
C89	C	1.018213	-0.243209	-0.971839
N90	N	0.982439	-0.219464	-0.862455
N91	N	1.021217	-0.245224	-0.896827
C92	C	1.009087	-0.237298	-0.196711
C93	C	1.012344	-0.239269	-0.118612
H94	H	0.266660	-0.289085	-0.471445
H95	H	1.086490	-0.407611	-0.301059
C96	C	0.857672	-0.844481	-0.512358
C97	C	0.895639	-0.871155	-0.559024
C98	C	0.849005	-0.892382	-0.602189
H99	H	0.829795	-0.822469	-0.538084
H100	H	0.828167	-0.862805	-0.484254
H101	H	0.925132	-0.852832	-0.587125
H102	H	0.923514	-0.893174	-0.533318
H103	H	0.819500	-0.910707	-0.574084
H104	H	0.821130	-0.870368	-0.627909
H105	H	0.874758	-0.910487	-0.633852
H106	H	0.597847	-0.272582	-0.444590
C107	C	0.904328	-0.964643	-0.469114
C108	C	0.860912	-0.937696	-0.427478
C109	C	0.814082	-0.911884	-0.470445
H110	H	0.876417	-0.983918	-0.494789
H111	H	0.929926	-0.946131	-0.500824
H112	H	0.835316	-0.956207	-0.395780
H113	H	0.888804	-0.918412	-0.401803
H114	H	0.839680	-0.893371	-0.502155
H115	H	0.786176	-0.931162	-0.496118
H116	H	0.784623	-0.893594	-0.442201
C117	C	0.918595	-0.176984	-1.118138
C118	C	0.925310	-0.181444	-1.190643
C119	C	0.878969	-0.150661	-1.225686
H120	H	0.929359	-0.147357	-1.106620
H121	H	0.871836	-0.182712	-1.104249
H122	H	0.972059	-0.175714	-1.204526
H123	H	0.914540	-0.211065	-1.202181
H124	H	0.832209	-0.156389	-1.211798
H125	H	0.889736	-0.121036	-1.214163
H126	H	0.883513	-0.153686	-1.274884
H127	H	0.399798	-0.292365	-0.476773
C128	C	1.146027	-0.717900	-0.246331
C129	C	1.108128	-0.745127	-0.199671
C130	C	1.154823	-0.770959	-0.156584
H131	H	1.173909	-0.698638	-0.220600
H132	H	1.175523	-0.736223	-0.274490
H133	H	1.078643	-0.726805	-0.171515
H134	H	1.080248	-0.764398	-0.225382
H135	H	1.184319	-0.789283	-0.184743
H136	H	1.182703	-0.751694	-0.130858
H137	H	1.129115	-0.789439	-0.124924
H138	H	0.737552	-0.175805	-0.287162
C139	C	1.078993	-0.283690	-0.794210
C140	C	1.120212	-0.311118	-0.747943
C141	C	1.163682	-0.340039	-0.786297
H142	H	1.108551	-0.266546	-0.824082
H143	H	1.050957	-0.301854	-0.821734
H144	H	1.148245	-0.292956	-0.720431
H145	H	1.090672	-0.328272	-0.718070
H146	H	1.135647	-0.358204	-0.813822
H147	H	1.193236	-0.322892	-0.816168
H148	H	1.191650	-0.358656	-0.754911
H149	H	1.072501	-0.279380	-0.650752
C150	C	0.891683	-0.159199	-0.786958
C151	C	0.898392	-0.163656	-0.859464
C152	C	0.852039	-0.132878	-0.894501
H153	H	0.902438	-0.129570	-0.775440
H154	H	0.844927	-0.164933	-0.773065
H155	H	0.945138	-0.157919	-0.873352
H156	H	0.887631	-0.193278	-0.871003
H157	H	0.805282	-0.138612	-0.880608
H158	H	0.862798	-0.103251	-0.882978
H159	H	0.856580	-0.135901	-0.943700
H160	H	1.086547	-0.492721	-0.301081
C161	C	0.263890	-0.181257	-0.296094
C162	C	0.313314	-0.158275	-0.258740
C163	C	0.278568	-0.129745	-0.212391
H164	H	0.236466	-0.198481	-0.264217
H165	H	0.234225	-0.160262	-0.321873
H166	H	0.342967	-0.179267	-0.232963
H167	H	0.340740	-0.141042	-0.290599
H168	H	0.248903	-0.108750	-0.238170
H169	H	0.251145	-0.146972	-0.180519
H170	H	0.312096	-0.114145	-0.187046
C171	C	1.112070	-0.305547	-0.972575
C172	C	1.149497	-0.330386	-1.021992
C173	C	1.195962	-0.361226	-0.987239
H174	H	1.086396	-0.325269	-0.942854
H175	H	1.143888	-0.289893	-0.945206
H176	H	1.117683	-0.346039	-1.049348
H177	H	1.175185	-0.310676	-1.051715
H178	H	1.227780	-0.345572	-0.959871
H179	H	1.170282	-0.380945	-0.957519
H180	H	1.221366	-0.378079	-1.020764
C181	C	0.416910	-0.185146	-0.302199
C182	C	0.460821	-0.212781	-0.258782
C183	C	0.499422	-0.186191	-0.215344
H184	H	0.385703	-0.167924	-0.274127
H185	H	0.444527	-0.165587	-0.330261
H186	H	0.433206	-0.232332	-0.230723
H187	H	0.492042	-0.230002	-0.286835
H188	H	0.527040	-0.166632	-0.243407
H189	H	0.468211	-0.168971	-0.187277
H190	H	0.529225	-0.204937	-0.185885
H191	H	1.094077	-0.293592	-1.115062
H192	H	0.909575	-0.171096	-0.644221
C193	C	1.145992	-0.619900	-0.246336
C194	C	1.135960	-0.573298	-0.255529
C195	C	1.182644	-0.552046	-0.212450
H196	H	1.192815	-0.628394	-0.258519
H197	H	1.137632	-0.628597	-0.198688
H198	H	1.144326	-0.564604	-0.303167
H199	H	1.089147	-0.564791	-0.243342
H200	H	1.174284	-0.560744	-0.164802
H201	H	1.229465	-0.560544	-0.224637
H202	H	1.175840	-0.520425	-0.218677
C203	C	1.099543	-0.974347	-0.289435
C204	C	1.140520	-1.006947	-0.251715
C205	C	1.187375	-0.985879	-0.208585
H206	H	1.073988	-0.956229	-0.257653
H207	H	1.129097	-0.956064	-0.317552
H208	H	1.110969	-1.025222	-0.223600
H209	H	1.166090	-1.025067	-0.283479
H210	H	1.216930	-0.967595	-0.236703
H211	H	1.161814	-0.967761	-0.176808
H212	H	1.215188	-1.007994	-0.182992
H213	H	0.604412	-0.172530	-0.281836
H214	H	0.730975	-0.275864	-0.449914
H215	H	1.086809	-1.065133	-0.301177
C216	C	0.904378	-1.062464	-0.469315
C217	C	0.863424	-1.029863	-0.507060
C218	C	0.816627	-1.050932	-0.550253
H219	H	0.874798	-1.080757	-0.441261
H220	H	0.929999	-1.080571	-0.501077
H221	H	0.837806	-1.011764	-0.475303
H222	H	0.892985	-1.011568	-0.535128
H223	H	0.842248	-1.069039	-0.582014
H224	H	0.787052	-1.069225	-0.522194
H225	H	0.788839	-1.028816	-0.575873
C226	C	0.857462	-0.703581	-0.512378
C227	C	0.816514	-0.670977	-0.550122
C228	C	0.769720	-0.692042	-0.593323
H229	H	0.827878	-0.721876	-0.484330
H230	H	0.883085	-0.721687	-0.544139
H231	H	0.790893	-0.652879	-0.518364
H232	H	0.846079	-0.652681	-0.578184
H233	H	0.795343	-0.710148	-0.625085
H234	H	0.740141	-0.710336	-0.565270
H235	H	0.741935	-0.669924	-0.618943
C236	C	0.857564	-0.605792	-0.512372
C237	C	0.895502	-0.578598	-0.559049
C238	C	0.848844	-0.552820	-0.602250
H239	H	0.828016	-0.587444	-0.484317
H240	H	0.829734	-0.625103	-0.538083
H241	H	0.923321	-0.559289	-0.533340
H242	H	0.925048	-0.596935	-0.587120
H243	H	0.821013	-0.572131	-0.627961
H244	H	0.819298	-0.534475	-0.574189
H245	H	0.874578	-0.534370	-0.633929
C246	C	0.904108	-0.490072	-0.469226
C247	C	0.863147	-0.457475	-0.506969
C248	C	0.816359	-0.478547	-0.550166
H249	H	0.874532	-0.508371	-0.441175
H250	H	0.929736	-0.508175	-0.500988
H251	H	0.837522	-0.439380	-0.475211
H252	H	0.892704	-0.439174	-0.535033
H253	H	0.841986	-0.496650	-0.581929
H254	H	0.786788	-0.496845	-0.522110
H255	H	0.788566	-0.456433	-0.575785
H256	H	0.936478	-0.188885	-0.975400
H257	H	0.916787	-0.399285	-0.457429
H258	H	0.870209	-0.753568	-0.500593
H259	H	1.133446	-0.766477	-0.258037
H260	H	1.133483	-0.851596	-0.258059
