data_functionalizedCrystal
_audit_creation_method	'MofGen! by Chris Wilmer'
_symmetry_space_group_name_H-M	'P1'
_symmetry_Int_Tables_number	1
_symmetry_cell_setting	triclinic
loop_
_symmetry_equiv_pos_as_xyz
  x,y,z
_cell_length_a	23.532407
_cell_length_b	23.532407
_cell_length_c	22.010155
_cell_angle_alpha	90.000423
_cell_angle_beta	89.996931
_cell_angle_gamma	97.151322
loop_
_atom_site_label
_atom_site_type_symbol
_atom_site_fract_x
_atom_site_fract_y
_atom_site_fract_z
O1	O	0.755264	-0.069127	-0.050455
O2	O	1.088597	0.264206	0.282878
O3	O	1.421930	0.597540	0.616211
O4	O	0.589400	-0.079130	-0.050474
O5	O	0.922734	0.254203	0.282859
O6	O	1.256067	0.587537	0.616193
O7	O	0.677334	0.008803	-0.050453
O8	O	1.010667	0.342137	0.282880
O9	O	1.344000	0.675470	0.616214
O10	O	0.667330	-0.157060	-0.050476
O11	O	1.000664	0.176273	0.282857
O12	O	1.333997	0.509607	0.616190
O13	O	0.677318	0.008790	0.050597
O14	O	1.010651	0.342123	0.383931
O15	O	1.343984	0.675457	0.717264
O16	O	0.589384	-0.079143	0.050576
O17	O	0.922718	0.254190	0.383910
O18	O	1.256051	0.587523	0.717243
O19	O	0.755248	-0.069140	0.050595
O20	O	1.088581	0.264193	0.383928
O21	O	1.421914	0.597527	0.717262
Cu22	Cu	0.672315	-0.074143	0.059812
Cu23	Cu	1.005648	0.259190	0.393146
Cu24	Cu	1.338981	0.592524	0.726479
Cu25	Cu	0.672333	-0.074127	-0.059691
Cu26	Cu	1.005667	0.259206	0.273642
Cu27	Cu	1.339000	0.592539	0.606975
O28	O	0.667314	-0.157073	0.050574
O29	O	1.000648	0.176260	0.383907
O30	O	1.333981	0.509593	0.717241
C31	C	0.568176	-0.078882	0.000049
C32	C	0.901510	0.254451	0.333382
C33	C	1.234843	0.587785	0.666715
C34	C	0.504959	-0.078116	0.000042
C35	C	0.838293	0.255217	0.333375
C36	C	1.171626	0.588551	0.666709
C37	C	0.105856	-0.125350	0.000063
C38	C	0.439190	0.207984	0.333396
C39	C	0.772523	0.541317	0.666730
C40	C	0.046456	-0.124638	0.000067
C41	C	0.379789	0.208695	0.333400
C42	C	0.713123	0.542029	0.666733
O43	O	0.009711	-0.168424	0.000083
O44	O	0.343045	0.164909	0.333416
O45	O	0.676378	0.498243	0.666749
N46	N	0.023830	-0.072362	0.000073
N47	N	0.357163	0.260972	0.333407
N48	N	0.690496	0.594305	0.666740
C49	C	0.060607	-0.020794	0.000082
C50	C	0.393941	0.312540	0.333415
C51	C	0.727274	0.645873	0.666749
O52	O	0.035908	0.023737	0.000088
O53	O	0.369241	0.357070	0.333422
O54	O	0.702574	0.690404	0.666755
C55	C	0.120006	-0.021506	0.000082
C56	C	0.453340	0.311828	0.333416
C57	C	0.786673	0.645161	0.666749
C58	C	0.142629	-0.073785	0.000070
C59	C	0.475962	0.259548	0.333403
C60	C	0.809296	0.592881	0.666737
C61	C	0.128479	-0.177625	0.000051
C62	C	0.461813	0.155708	0.333385
C63	C	0.795146	0.489042	0.666718
C64	C	0.187876	-0.178336	0.000046
C65	C	0.521209	0.154997	0.333380
C66	C	0.854542	0.488330	0.666713
C67	C	0.224649	-0.126772	0.000053
C68	C	0.557982	0.206561	0.333386
C69	C	0.891315	0.539895	0.666720
C70	C	0.202025	-0.074497	0.000065
C71	C	0.535359	0.258837	0.333398
C72	C	0.868692	0.592170	0.666732
C73	C	0.156783	0.030062	0.000096
C74	C	0.490116	0.363395	0.333429
C75	C	0.823450	0.696729	0.666762
C76	C	0.216185	0.029345	0.000097
C77	C	0.549519	0.362679	0.333430
C78	C	0.882852	0.696012	0.666763
C79	C	0.238808	-0.022934	0.000084
C80	C	0.572141	0.310399	0.333417
C81	C	0.905475	0.643732	0.666751
C82	C	0.298194	-0.023643	0.000067
C83	C	0.631528	0.309690	0.333400
C84	C	0.964861	0.643023	0.666734
N85	N	0.320820	-0.075920	0.000061
N86	N	0.654154	0.257414	0.333394
N87	N	0.987487	0.590747	0.666727
C88	C	0.284048	-0.127484	0.000054
C89	C	0.617381	0.205849	0.333387
C90	C	0.950714	0.539183	0.666720
C91	C	-0.064135	-0.019302	0.000082
C92	C	0.269198	0.314031	0.333415
C93	C	0.602532	0.647365	0.666749
C94	C	-0.123533	-0.018589	0.000077
C95	C	0.209800	0.314744	0.333410
C96	C	0.543134	0.648077	0.666744
C97	C	-0.137680	-0.122434	0.000063
C98	C	0.195653	0.210899	0.333396
C99	C	0.528986	0.544232	0.666730
C100	C	-0.078281	-0.123146	0.000064
C101	C	0.255052	0.210187	0.333397
C102	C	0.588385	0.543520	0.666730
C103	C	-0.041509	-0.071578	0.000076
C104	C	0.291824	0.261755	0.333409
C105	C	0.625158	0.595088	0.666742
C106	C	0.408784	-0.128974	0.000043
C107	C	0.742118	0.204360	0.333376
C108	C	1.075451	0.537693	0.666709
C109	C	0.468186	-0.129680	0.000035
C110	C	0.801520	0.203653	0.333369
C111	C	1.134853	0.536986	0.666702
C112	C	0.482329	-0.025836	0.000052
C113	C	0.815662	0.307497	0.333386
C114	C	1.148995	0.640831	0.666719
C115	C	0.422932	-0.025129	0.000057
C116	C	0.756265	0.308204	0.333390
C117	C	1.089598	0.641538	0.666723
C118	C	0.386160	-0.076702	0.000054
C119	C	0.719494	0.256631	0.333387
C120	C	1.052827	0.589964	0.666721
O121	O	0.334974	0.020119	0.000054
O122	O	0.668307	0.353453	0.333387
O123	O	1.001640	0.686786	0.666720
O124	O	0.308755	-0.172007	0.000055
O125	O	0.642089	0.161326	0.333389
O126	O	0.975422	0.494660	0.666722
C127	C	0.677071	0.030013	0.000074
C128	C	1.010404	0.363346	0.333407
C129	C	1.343738	0.696679	0.666740
C130	C	0.676305	0.093230	0.000078
C131	C	1.009638	0.426563	0.333412
C132	C	1.342972	0.759896	0.666745
C133	C	0.776472	-0.069388	0.000071
C134	C	1.109805	0.263945	0.333404
C135	C	1.443138	0.597278	0.666737
C136	C	0.839689	-0.070154	0.000073
C137	C	1.173022	0.263179	0.333407
C138	C	1.506355	0.596513	0.666740
C139	C	0.667577	-0.178283	0.000046
C140	C	1.000910	0.155051	0.333379
C141	C	1.334244	0.488384	0.666712
C142	C	0.668343	-0.241500	0.000037
C143	C	1.001676	0.091833	0.333371
C144	C	1.335010	0.425167	0.666704
N145	N	0.672305	-0.074153	0.143865
N146	N	1.005639	0.259180	0.477198
N147	N	1.338972	0.592513	0.810531
C148	C	0.723539	0.492333	0.000050
C149	C	1.056872	0.825666	0.333384
C150	C	1.390205	1.158999	0.666717
C151	C	0.722827	0.551733	0.000046
C152	C	1.056160	0.885066	0.333379
C153	C	1.389494	1.218400	0.666712
O154	O	0.766613	0.588478	0.000028
O155	O	1.099946	0.921811	0.333361
O156	O	1.433280	1.255144	0.666695
N157	N	0.670551	0.574359	0.000040
N158	N	1.003884	0.907693	0.333373
N159	N	1.337217	1.241026	0.666707
C160	C	0.618983	0.537582	0.000033
C161	C	0.952316	0.870915	0.333366
C162	C	1.285649	1.204248	0.666700
O163	O	0.574452	0.562281	0.000027
O164	O	0.907785	0.895615	0.333361
O165	O	1.241119	1.228948	0.666694
C166	C	0.619695	0.478182	0.000033
C167	C	0.953028	0.811516	0.333367
C168	C	1.286361	1.144849	0.666700
C169	C	0.671974	0.455560	0.000045
C170	C	1.005308	0.788893	0.333378
C171	C	1.338641	1.122227	0.666712
C172	C	0.775814	0.469710	0.000061
C173	C	1.109147	0.803043	0.333394
C174	C	1.442481	1.136376	0.666728
C175	C	0.776525	0.410313	0.000067
C176	C	1.109859	0.743647	0.333400
C177	C	1.443192	1.076980	0.666734
C178	C	0.724961	0.373540	0.000062
C179	C	1.058294	0.706874	0.333395
C180	C	1.391628	1.040207	0.666729
C181	C	0.672685	0.396164	0.000051
C182	C	1.006019	0.729497	0.333384
C183	C	1.339352	1.062830	0.666718
C184	C	0.568127	0.441406	0.000022
C185	C	0.901460	0.774739	0.333356
C186	C	1.234794	1.108073	0.666689
C187	C	0.568844	0.382004	0.000022
C188	C	0.902177	0.715337	0.333355
C189	C	1.235510	1.048670	0.666689
C190	C	0.621123	0.359381	0.000034
C191	C	0.954457	0.692714	0.333367
C192	C	1.287790	1.026048	0.666700
C193	C	0.621832	0.299995	0.000052
C194	C	0.955166	0.633328	0.333385
C195	C	1.288499	0.966661	0.666718
N196	N	0.674109	0.277368	0.000057
N197	N	1.007442	0.610702	0.333390
N198	N	1.340775	0.944035	0.666724
C199	C	0.725673	0.314141	0.000062
C200	C	1.059006	0.647475	0.333396
C201	C	1.392340	0.980808	0.666729
C202	C	0.617491	0.662324	0.000031
C203	C	0.950824	0.995657	0.333365
C204	C	1.284158	1.328991	0.666698
C205	C	0.616778	0.721722	0.000035
C206	C	0.950112	1.055055	0.333369
C207	C	1.283445	1.388389	0.666702
C208	C	0.720623	0.735869	0.000047
C209	C	1.053957	1.069203	0.333380
C210	C	1.387290	1.402536	0.666713
C211	C	0.721335	0.676470	0.000047
C212	C	1.054669	1.009804	0.333380
C213	C	1.388002	1.343137	0.666714
C214	C	0.669767	0.639698	0.000037
C215	C	1.003101	0.973031	0.333370
C216	C	1.336434	1.306365	0.666703
C217	C	0.727163	0.189405	0.000075
C218	C	1.060496	0.522738	0.333408
C219	C	1.393829	0.856071	0.666742
C220	C	0.727869	0.130003	0.000083
C221	C	1.061203	0.463336	0.333417
C222	C	1.394536	0.796669	0.666750
C223	C	0.624025	0.115860	0.000069
C224	C	0.957358	0.449194	0.333402
C225	C	1.290692	0.782527	0.666736
C226	C	0.623318	0.175257	0.000064
C227	C	0.956651	0.508591	0.333397
C228	C	1.289985	0.841924	0.666730
C229	C	0.674891	0.212029	0.000065
C230	C	1.008225	0.545362	0.333398
C231	C	1.341558	0.878695	0.666731
O232	O	0.578070	0.263215	0.000067
O233	O	0.911403	0.596549	0.333400
O234	O	1.244736	0.929882	0.666733
O235	O	0.770196	0.289433	0.000060
O236	O	1.103529	0.622767	0.333393
O237	O	1.436863	0.956100	0.666727
N238	N	0.672347	-0.074112	-0.143744
N239	N	1.005680	0.259221	0.189589
N240	N	1.339014	0.592555	0.522923
C241	C	0.711273	-0.035196	0.563653
C242	C	1.044606	0.298137	0.896987
C243	C	1.377939	0.631471	1.230320
C244	C	0.711275	-0.035192	0.627261
C245	C	1.044609	0.298141	0.960594
C246	C	1.377942	0.631475	1.293928
O247	O	0.744384	-0.002076	0.660160
O248	O	1.077717	0.331257	0.993494
O249	O	1.411050	0.664590	1.326827
N250	N	0.672333	-0.074115	0.659072
N251	N	1.005667	0.259218	0.992405
N252	N	1.339000	0.592551	1.325739
C253	C	0.633382	-0.113041	0.627272
C254	C	0.966715	0.220292	0.960605
C255	C	1.300049	0.553625	1.293938
O256	O	0.600259	-0.146148	0.660170
O257	O	0.933592	0.187185	0.993503
O258	O	1.266925	0.520519	1.326837
C259	C	0.633377	-0.113042	0.563665
C260	C	0.966711	0.220291	0.896999
C261	C	1.300044	0.553625	1.230332
C262	C	0.672326	-0.074120	0.531858
C263	C	1.005659	0.259213	0.865191
C264	C	1.338992	0.592547	1.198524
C265	C	0.750217	0.003723	0.531846
C266	C	1.083551	0.337057	0.865179
C267	C	1.416884	0.670390	1.198513
C268	C	0.750215	0.003719	0.468243
C269	C	1.083549	0.337052	0.801576
C270	C	1.416882	0.670385	1.134909
C271	C	0.711268	-0.035205	0.436447
C272	C	1.044602	0.298128	0.769780
C273	C	1.377935	0.631461	1.103114
C274	C	0.672324	-0.074125	0.468255
C275	C	1.005657	0.259209	0.801588
C276	C	1.338990	0.592542	1.134921
C277	C	0.594424	-0.151965	0.531866
C278	C	0.927757	0.181368	0.865200
C279	C	1.261091	0.514702	1.198533
C280	C	0.594422	-0.151962	0.468256
C281	C	0.927755	0.181371	0.801589
C282	C	1.261089	0.514705	1.134922
C283	C	0.633370	-0.113040	0.436448
C284	C	0.966704	0.220293	0.769781
C285	C	1.300037	0.553627	1.103115
C286	C	0.633374	-0.113054	0.372856
C287	C	0.966708	0.220280	0.706189
C288	C	1.300041	0.553613	1.039522
N289	N	0.672317	-0.074130	0.341045
N290	N	1.005650	0.259203	0.674378
N291	N	1.338983	0.592536	1.007712
C292	C	0.711263	-0.035206	0.372841
C293	C	1.044597	0.298127	0.706174
C294	C	1.377930	0.631460	1.039507
C295	C	0.633395	-0.113036	0.760850
C296	C	0.966728	0.220297	1.094183
C297	C	1.300061	0.553631	1.427516
C298	C	0.633402	-0.113039	0.824455
C299	C	0.966735	0.220295	1.157788
C300	C	1.300069	0.553628	1.491122
C301	C	0.711294	-0.035188	0.824440
C302	C	1.044628	0.298145	1.157773
C303	C	1.377961	0.631478	1.491106
C304	C	0.711290	-0.035189	0.760833
C305	C	1.044623	0.298144	1.094167
C306	C	1.377956	0.631478	1.427500
C307	C	0.672337	-0.074113	0.729039
C308	C	1.005670	0.259221	1.062372
C309	C	1.339003	0.592554	1.395705
C310	C	0.711256	-0.035220	0.239269
C311	C	1.044590	0.298114	0.572603
C312	C	1.377923	0.631447	0.905936
C313	C	0.711252	-0.035229	0.175660
C314	C	1.044586	0.298104	0.508994
C315	C	1.377919	0.631437	0.842327
C316	C	0.633358	-0.113077	0.175681
C317	C	0.966691	0.220256	0.509014
C318	C	1.300025	0.553589	0.842348
C319	C	0.633364	-0.113070	0.239284
C320	C	0.966697	0.220264	0.572618
C321	C	1.300031	0.553597	0.905951
C322	C	0.672315	-0.074136	0.271077
C323	C	1.005649	0.259197	0.604410
C324	C	1.338982	0.592531	0.937744
O325	O	0.600282	-0.146151	0.339916
O326	O	0.933615	0.187182	0.673249
O327	O	1.266948	0.520516	1.006583
O328	O	0.744376	-0.002100	0.339935
O329	O	1.077710	0.331233	0.673268
O330	O	1.411043	0.664567	1.006601
H331	H	-0.034198	0.022693	0.000086
H332	H	0.299136	0.356027	0.333420
H333	H	0.632469	0.689360	0.666753
H334	H	0.378851	-0.170970	0.000042
H335	H	0.712185	0.162363	0.333376
H336	H	1.045518	0.495697	0.666709
Cl337	Cl	0.551053	0.750154	0.000032
Cl338	Cl	0.884386	1.083487	0.333366
Cl339	Cl	1.217719	1.416821	0.666699
H340	H	0.743004	-0.003495	0.734939
H341	H	1.076338	0.329838	1.068273
H342	H	1.409671	0.663172	1.401606
H343	H	0.098544	-0.219617	0.000048
H344	H	0.431877	0.113716	0.333381
H345	H	0.765211	0.447049	0.666714
H346	H	0.769159	0.219337	0.000073
H347	H	1.102492	0.552671	0.333407
H348	H	1.435826	0.886004	0.666740
H349	H	0.575496	0.632386	0.000028
H350	H	0.908829	0.965720	0.333362
H351	H	1.242162	1.299053	0.666695
Cl352	Cl	0.557594	0.203698	0.000061
Cl353	Cl	0.890928	0.537031	0.333394
Cl354	Cl	1.224261	0.870365	0.666727
H355	H	0.525555	0.459814	0.000009
H356	H	0.858889	0.793148	0.333342
H357	H	1.192222	1.126481	0.666676
Cl358	Cl	0.545457	-0.200896	0.571840
Cl359	Cl	0.878790	0.132437	0.905174
Cl360	Cl	1.212123	0.465770	1.238507
Cl361	Cl	-0.049848	-0.188872	0.000050
Cl362	Cl	0.283485	0.144462	0.333383
Cl363	Cl	0.616819	0.477795	0.666717
H364	H	0.526850	0.352066	0.000013
H365	H	0.860183	0.685399	0.333346
H366	H	1.193516	1.018732	0.666680
Cl367	Cl	0.799186	0.052663	0.571807
Cl368	Cl	1.132519	0.385996	0.905140
Cl369	Cl	1.465853	0.719330	1.238474
H370	H	0.512280	0.016146	0.000056
H371	H	0.845613	0.349480	0.333389
H372	H	1.178946	0.682813	0.666722
Cl373	Cl	0.559205	0.069621	0.000061
Cl374	Cl	0.892538	0.402954	0.333394
Cl375	Cl	1.225872	0.736288	0.666728
Cl376	Cl	0.760255	0.013746	0.864425
Cl377	Cl	1.093588	0.347080	1.197758
Cl378	Cl	1.426922	0.680413	1.531091
Cl379	Cl	0.584404	-0.162008	0.279269
Cl380	Cl	0.917738	0.171325	0.612602
Cl381	Cl	1.251071	0.504659	0.945936
Cl382	Cl	0.760221	0.013704	0.135677
Cl383	Cl	1.093554	0.347037	0.469011
Cl384	Cl	1.426887	0.680371	0.802344
Cl385	Cl	0.394491	0.040595	0.000075
Cl386	Cl	0.727824	0.373928	0.333409
Cl387	Cl	1.061158	0.707261	0.666742
H388	H	0.781929	0.035414	0.442349
H389	H	1.115262	0.368747	0.775682
H390	H	1.448595	0.702081	1.109015
H391	H	0.742973	-0.003516	0.265148
H392	H	1.076307	0.329818	0.598481
H393	H	1.409640	0.663151	0.931814
Cl394	Cl	0.584444	-0.161979	0.864434
Cl395	Cl	0.917777	0.171355	1.197768
Cl396	Cl	1.251111	0.504688	1.531101
Cl397	Cl	0.216306	-0.244063	0.000035
Cl398	Cl	0.549639	0.089270	0.333368
Cl399	Cl	0.882973	0.422604	0.666701
Cl400	Cl	-0.183920	-0.187258	0.000058
Cl401	Cl	0.149413	0.146075	0.333391
Cl402	Cl	0.482746	0.479408	0.666724
Cl403	Cl	0.840647	0.515929	0.000069
Cl404	Cl	1.173980	0.849262	0.333402
Cl405	Cl	1.507314	1.182596	0.666735
H406	H	0.601676	-0.144737	0.734966
H407	H	0.935009	0.188596	1.068299
H408	H	1.268343	0.521930	1.401632
H409	H	0.562700	-0.183658	0.442372
H410	H	0.896033	0.149675	0.775705
H411	H	1.229367	0.483009	1.109038
H412	H	0.486602	-0.172255	0.000025
H413	H	0.819935	0.161079	0.333358
H414	H	1.153269	0.494412	0.666691
H415	H	0.770443	0.111587	0.000094
H416	H	1.103777	0.444920	0.333428
H417	H	1.437110	0.778254	0.666761
Cl418	Cl	0.842252	0.381883	0.000064
Cl419	Cl	1.175585	0.715216	0.333398
Cl420	Cl	1.508919	1.048550	0.666731
H421	H	0.138375	0.072634	0.000106
H422	H	0.471708	0.405967	0.333440
H423	H	0.805041	0.739300	0.666773
Cl424	Cl	0.584399	-0.162009	0.135699
Cl425	Cl	0.917732	0.171324	0.469033
Cl426	Cl	1.251065	0.504658	0.802366
H427	H	-0.141947	0.023982	0.000078
H428	H	0.191387	0.357315	0.333411
H429	H	0.524720	0.690648	0.666744
Cl430	Cl	0.787061	0.648037	0.000061
Cl431	Cl	1.120394	0.981370	0.333394
Cl432	Cl	1.453727	1.314704	0.666727
H433	H	0.246123	0.071339	0.000107
H434	H	0.579457	0.404673	0.333440
H435	H	0.912790	0.738006	0.666773
H436	H	0.762610	0.765821	0.000048
H437	H	1.095943	1.099154	0.333382
H438	H	1.429276	1.432488	0.666715
