data_functionalizedCrystal
_audit_creation_method	'MofGen! by Chris Wilmer'
_symmetry_space_group_name_H-M	'P1'
_symmetry_Int_Tables_number	1
_symmetry_cell_setting	triclinic
loop_
_symmetry_equiv_pos_as_xyz
  x,y,z
_cell_length_a	21.295419
_cell_length_b	29.839131
_cell_length_c	21.295411
_cell_angle_alpha	89.971982
_cell_angle_beta	89.975461
_cell_angle_gamma	90.050029
loop_
_atom_site_label
_atom_site_type_symbol
_atom_site_fract_x
_atom_site_fract_y
_atom_site_fract_z
Zn1	Zn	0.962335	-0.178727	-0.355883
Zn2	Zn	0.962229	-0.253843	-0.250597
Zn3	Zn	0.857058	-0.178747	-0.250628
Zn4	Zn	0.857019	-0.253850	-0.355829
O5	O	0.909660	-0.216292	-0.303234
O6	O	1.050410	-0.188680	-0.341927
O7	O	0.948249	-0.243886	-0.162512
O8	O	0.871084	-0.115877	-0.264627
O9	O	1.050332	-0.243867	-0.264573
O10	O	0.948431	-0.115863	-0.341957
O11	O	0.870981	-0.188714	-0.162535
O12	O	0.768963	-0.188721	-0.264574
O13	O	0.871017	-0.243880	-0.443925
O14	O	0.768935	-0.243899	-0.341864
O15	O	0.948392	-0.188687	-0.443965
O16	O	0.948211	-0.316711	-0.264520
O17	O	0.870914	-0.316716	-0.341834
C18	C	0.746108	-0.216313	-0.303217
C19	C	0.676140	-0.216333	-0.303224
C20	C	0.643337	-0.187644	-0.343564
C21	C	0.577594	-0.187632	-0.343567
C22	C	0.544658	-0.216317	-0.303235
C23	C	0.577469	-0.245008	-0.262888
C24	C	0.643211	-0.245016	-0.262882
N25	N	0.441378	-0.255624	-0.298310
N26	N	0.378926	-0.255615	-0.298319
C27	C	0.346583	-0.216294	-0.303249
N28	N	0.379051	-0.176981	-0.308183
N29	N	0.441508	-0.176990	-0.308177
C30	C	0.473372	-0.216311	-0.303237
C31	C	0.242494	-0.187590	-0.343594
C32	C	0.176750	-0.187577	-0.343592
C33	C	0.176627	-0.244956	-0.262917
C34	C	0.242369	-0.244965	-0.262915
C35	C	0.275299	-0.216282	-0.303257
C36	C	0.909564	-0.333014	-0.303181
C37	C	0.909581	-0.382949	-0.303180
C38	C	0.949926	-0.692550	-0.343558
C39	C	0.949994	-0.880223	-0.343595
O40	O	0.984203	-0.904451	-0.377887
N41	N	0.909767	-0.903734	-0.303304
C42	C	0.869517	-0.880324	-0.263003
O43	O	0.835299	-0.904628	-0.228739
C44	C	0.869446	-0.692651	-0.262969
C45	C	0.909680	-0.669143	-0.303259
C46	C	0.990156	-0.669041	-0.383844
C47	C	0.990141	-0.622126	-0.383832
C48	C	0.949895	-0.598719	-0.343533
C49	C	0.909665	-0.622227	-0.303246
C50	C	0.829194	-0.669242	-0.222672
C51	C	0.829178	-0.622321	-0.222668
C52	C	0.869412	-0.598813	-0.262958
C53	C	0.869405	-0.551905	-0.262935
N54	N	0.909632	-0.528394	-0.303227
C55	C	0.949877	-0.551801	-0.343525
C56	C	0.869558	-0.978854	-0.263023
C57	C	0.869577	-1.025772	-0.263031
C58	C	0.950053	-1.025668	-0.343624
C59	C	0.950037	-0.978749	-0.343613
C60	C	0.909785	-0.955343	-0.303315
C61	C	0.949843	-0.453275	-0.343496
C62	C	0.949826	-0.406356	-0.343478
C63	C	0.869348	-0.406464	-0.262888
C64	C	0.869367	-0.453379	-0.262903
C65	C	0.909616	-0.476784	-0.303212
O66	O	0.835209	-0.527648	-0.228667
O67	O	0.984081	-0.527489	-0.377795
C68	C	0.949941	-0.739465	-0.343570
C69	C	0.909710	-0.762974	-0.303283
C70	C	0.869465	-0.739567	-0.262984
C71	C	0.909729	-0.809892	-0.303291
C72	C	0.949974	-0.833298	-0.343590
C73	C	0.990201	-0.809787	-0.383881
C74	C	0.990186	-0.762872	-0.383869
C75	C	0.829238	-0.763078	-0.222693
C76	C	0.829257	-0.809994	-0.222708
C77	C	0.869502	-0.833400	-0.263007
C78	C	1.073850	-0.216270	-0.303252
C79	C	1.143818	-0.216261	-0.303260
C80	C	0.909712	-0.216282	-0.467425
C81	C	0.909735	-0.216278	-0.537393
C82	C	0.909774	-0.099113	-0.303301
C83	C	0.909822	-0.049179	-0.303330
C84	C	0.950022	-0.187538	-0.570281
C85	C	0.950021	-0.187519	-0.636024
C86	C	0.909739	-0.216247	-0.668875
C87	C	0.869444	-0.244989	-0.635979
C88	C	0.869442	-0.245005	-0.570238
N89	N	0.904878	-0.255549	-0.772085
N90	N	0.904884	-0.255533	-0.834536
C91	C	0.909743	-0.216202	-0.866950
N92	N	0.914609	-0.176886	-0.834554
N93	N	0.914606	-0.176903	-0.772096
C94	C	0.909737	-0.216233	-0.740161
C95	C	0.950032	-0.187438	-0.971124
C96	C	0.950027	-0.187418	-1.036868
C97	C	0.869453	-0.244893	-1.036822
C98	C	0.869455	-0.244909	-0.971079
C99	C	0.909748	-0.216182	-0.938235
C100	C	0.909644	-0.216269	-0.139683
C101	C	0.909744	-0.216146	-0.069715
H102	H	0.550648	-0.268363	-0.230049
H103	H	0.669919	-0.268379	-0.230031
H104	H	0.550880	-0.164268	-0.376415
F105	F	0.141839	-0.157038	-0.386528
H106	H	0.982827	-0.164113	-0.662807
F107	F	0.277543	-0.157061	-0.386526
H108	H	0.149810	-0.268312	-0.230078
H109	H	0.836648	-0.268279	-1.063569
H110	H	0.982823	-1.044734	-0.376436
F111	F	0.826762	-1.050787	-0.220142
H112	H	0.269078	-0.268329	-0.230068
H113	H	0.982831	-0.164146	-0.543543
H114	H	0.836644	-0.268379	-0.662731
F115	F	0.826553	-0.478400	-0.220015
H116	H	0.836652	-0.268315	-0.944301
H117	H	0.982613	-0.472325	-0.376324
F118	F	0.678379	-0.157117	-0.386499
H119	H	1.022928	-0.688094	-0.416664
H120	H	0.982799	-0.959611	-0.376420
F121	F	0.786335	-0.597414	-0.179777
F122	F	0.826560	-0.275595	-0.535234
H123	H	0.982592	-0.387216	-0.376287
H124	H	0.796494	-0.829130	-0.189894
F125	F	1.032960	-0.597112	-0.426718
F126	F	0.786398	-0.738173	-0.179802
H127	H	0.982838	-0.164045	-0.944381
H128	H	0.836779	-0.959800	-0.230206
H129	H	0.796431	-0.688375	-0.189864
F130	F	0.992916	-0.156832	-1.071870
F131	F	1.033035	-0.834707	-0.426768
F132	F	0.826519	-0.381544	-0.220001
F133	F	1.033008	-0.737858	-0.426751
