data_functionalizedCrystal
_audit_creation_method	'MofGen! by Chris Wilmer'
_symmetry_space_group_name_H-M	'P1'
_symmetry_Int_Tables_number	1
_symmetry_cell_setting	triclinic
loop_
_symmetry_equiv_pos_as_xyz
  x,y,z
_cell_length_a	6.817900
_cell_length_b	11.168121
_cell_length_c	14.125465
_cell_angle_alpha	94.659390
_cell_angle_beta	100.398878
_cell_angle_gamma	108.508496
loop_
_atom_site_label
_atom_site_type_symbol
_atom_site_fract_x
_atom_site_fract_y
_atom_site_fract_z
V1	V	-4.016762	-0.173620	-0.299984
O2	O	-3.978122	0.009459	-0.294266
O3	O	-3.993684	-0.345333	-0.297941
O4	O	-3.952441	-0.170460	-0.430814
O5	O	-4.019650	-0.166624	-0.160472
V6	V	-4.499172	-0.151779	-0.283297
O7	O	-4.280462	-0.221529	-0.336590
O8	O	-4.685669	-0.103870	-0.246691
O9	O	-4.299043	0.019933	-0.285340
O10	O	-4.655209	-0.334859	-0.289015
O11	O	-4.613680	-0.158775	-0.422809
O12	O	-4.340286	-0.154940	-0.152467
C13	C	-3.845360	-0.387208	-0.293210
C14	C	-3.907672	-0.527582	-0.292411
C15	C	-4.108875	-0.596259	-0.296618
C16	C	-4.173281	-0.741343	-0.295793
C17	C	-3.792749	-0.164138	-0.462703
C18	C	-3.821611	-0.162690	-0.569657
C19	C	-3.874512	-0.160035	-0.765480
C20	C	-4.060790	-0.165361	-0.817801
C21	C	-4.090227	-0.163884	-0.926764
C22	C	-3.845067	-0.161513	-0.656507
C23	C	-4.110711	0.061802	-0.290068
C24	C	-4.027637	0.202175	-0.290873
C25	C	-4.163321	-0.161265	-0.120573
C26	C	-4.113697	-0.162707	-0.013618
H27	H	-4.345642	-0.800379	-0.299383
H28	H	-4.198166	-0.171043	-0.780763
H29	H	-4.233452	-0.547647	-0.300837
O30	O	-3.822016	-0.727253	-0.286450
C31	C	-3.746549	-0.633767	-0.202873
H32	H	-3.886046	-0.614092	-0.179246
H33	H	-3.657349	-0.669578	-0.141594
C34	C	-3.424841	-0.534018	-0.255293
C35	C	-3.596172	-0.509845	-0.226278
H36	H	-3.332073	-0.457578	-0.269727
H37	H	-3.475679	-0.597004	-0.311598
H38	H	-3.350532	-0.563863	-0.204222
H39	H	-3.670493	-0.480016	-0.277354
H40	H	-3.545343	-0.446851	-0.169982
O41	O	-3.710887	-0.153344	-0.809820
C42	C	-3.777172	-0.153324	-0.910317
H43	H	-3.956983	-0.198675	-0.932903
H44	H	-3.727440	-0.050916	-0.926514
C45	C	-3.453015	-0.174679	-0.939964
C46	C	-3.673861	-0.230389	-0.967706
H47	H	-3.389282	-0.222210	-0.975365
H48	H	-3.408353	-0.174687	-0.872257
H49	H	-3.411601	-0.089340	-0.953463
H50	H	-3.715273	-0.315720	-0.954196
H51	H	-3.718528	-0.230397	-1.035413
H52	H	-3.783099	-0.576196	-0.288204
