data_functionalizedCrystal
_audit_creation_method	'MofGen! by Chris Wilmer'
_symmetry_space_group_name_H-M	'P1'
_symmetry_Int_Tables_number	1
_symmetry_cell_setting	triclinic
loop_
_symmetry_equiv_pos_as_xyz
  x,y,z
_cell_length_a	10.654549
_cell_length_b	10.654551
_cell_length_c	9.130313
_cell_angle_alpha	89.998448
_cell_angle_beta	90.000181
_cell_angle_gamma	95.513860
loop_
_atom_site_label
_atom_site_type_symbol
_atom_site_fract_x
_atom_site_fract_y
_atom_site_fract_z
O1	O	1.667832	-0.176422	-0.121775
O2	O	1.302354	-0.193222	-0.121780
O3	O	1.493495	-0.002083	-0.121778
O4	O	1.476691	-0.367561	-0.121777
O5	O	1.493493	-0.002088	0.121820
O6	O	1.302352	-0.193227	0.121818
O7	O	1.667830	-0.176428	0.121824
Cu8	Cu	1.485091	-0.184828	0.144064
Cu9	Cu	1.485093	-0.184822	-0.144020
O10	O	1.476688	-0.367566	0.121822
C11	C	1.255555	-0.191990	0.000018
C12	C	1.116112	-0.188295	0.000016
C13	C	1.714629	-0.177660	0.000022
C14	C	1.854072	-0.181354	0.000014
C15	C	2.144056	0.040269	-0.000002
C16	C	2.092518	0.156287	-0.000003
C17	C	1.961500	0.159763	0.000003
C18	C	1.882015	0.047207	0.000006
C19	C	1.933552	-0.068811	0.000007
C20	C	2.064575	-0.072274	0.000005
C21	C	1.905609	-0.297373	0.000015
C22	C	2.036627	-0.300851	0.000019
C23	C	1.826124	-0.409928	0.000018
C24	C	1.877661	-0.525949	0.000029
C25	C	2.008688	-0.529420	0.000024
C26	C	2.088164	-0.416869	0.000020
C27	C	1.492260	0.044712	0.000018
C28	C	1.488568	0.184155	0.000008
C29	C	1.477924	-0.414362	0.000022
C30	C	1.481616	-0.553805	0.000023
N31	N	1.485098	-0.184831	0.346686
C32	C	1.486837	0.249670	-0.132775
C33	C	1.483357	0.380691	-0.132769
C34	C	1.483344	0.380671	0.132816
C35	C	1.486815	0.249651	0.132808
C36	C	1.488590	0.184174	-0.265576
C37	C	1.486860	0.249689	-0.398370
C38	C	1.483380	0.380710	-0.398363
C39	C	1.481629	0.446215	-0.265562
N40	N	1.485096	-0.184808	-0.346643
C41	C	1.569757	-0.100224	0.423339
C42	C	1.569754	-0.100209	0.576676
C43	C	1.400428	-0.269420	0.576693
C44	C	1.400426	-0.269428	0.423359
C45	C	1.654429	-0.015628	0.346666
C46	C	1.739096	0.068985	0.423319
C47	C	1.739092	0.069000	0.576655
C48	C	1.654422	-0.015598	0.653339
H49	H	2.250739	0.037450	0.000009
H50	H	1.654418	-0.015570	0.778197
O51	O	1.318016	-0.351471	0.651116
C52	C	1.193520	-0.329917	0.613624
H53	H	1.192036	-0.229360	0.571459
H54	H	1.130623	-0.343766	0.714468
H55	H	1.157230	-0.399193	0.524632
H56	H	1.654442	-0.015635	0.221811
O57	O	1.488374	0.185911	-0.527277
C58	C	1.381783	0.096875	-0.535238
H59	H	1.346118	0.072804	-0.419944
H60	H	1.408634	0.007736	-0.591463
H61	H	1.304409	0.138087	-0.600745
O62	O	1.698834	-0.406719	0.000215
C63	C	1.647407	-0.468224	0.126398
H64	H	1.714757	-0.536952	0.168457
H65	H	1.552886	-0.522089	0.098027
H66	H	1.632991	-0.395369	0.214741
O67	O	1.821247	0.151085	0.348608
C68	C	1.803055	0.132978	0.196834
H69	H	1.757041	0.033541	0.175885
H70	H	1.898025	0.146136	0.138533
H71	H	1.739390	0.204611	0.153353
O72	O	1.800325	-0.635189	-0.000166
C73	C	1.723730	-0.640033	-0.126351
H74	H	1.716243	-0.540289	-0.168421
H75	H	1.625679	-0.685952	-0.097980
H76	H	1.767328	-0.697774	-0.214687
H77	H	1.808023	0.137904	0.639065
H78	H	1.331488	-0.338321	0.360948
O79	O	1.481431	0.444215	0.261849
C80	C	1.373716	0.398899	0.342645
H81	H	1.298780	0.353609	0.264945
H82	H	1.334989	0.480603	0.402883
H83	H	1.400277	0.325843	0.425439
H84	H	2.157249	0.247927	-0.000009
H85	H	1.919540	0.254235	-0.000005
O86	O	1.478401	0.573508	-0.265386
C87	C	1.585826	0.630585	-0.192586
H88	H	1.624039	0.559525	-0.115034
H89	H	1.559067	0.715253	-0.127321
H90	H	1.661237	0.663133	-0.276531
O91	O	2.058597	-0.642201	-0.000173
C92	C	2.018100	-0.710857	-0.126354
H93	H	1.926949	-0.675832	-0.168415
H94	H	2.000826	-0.815287	-0.097982
H95	H	2.093777	-0.696971	-0.214698
O96	O	1.754772	0.050808	0.000065
C97	C	1.726328	0.177342	0.000013
H98	H	1.809743	0.240060	0.046129
H99	H	1.639522	0.186611	0.070729
H100	H	1.706719	0.207675	-0.116859
H101	H	2.194848	-0.419684	0.000023
H102	H	1.488197	0.196305	0.240932
H103	H	1.491427	0.077491	-0.265596
H104	H	1.481959	0.434047	-0.506490
