data_functionalizedCrystal
_audit_creation_method	'MofGen! by Chris Wilmer'
_symmetry_space_group_name_H-M	'P1'
_symmetry_Int_Tables_number	1
_symmetry_cell_setting	triclinic
loop_
_symmetry_equiv_pos_as_xyz
  x,y,z
_cell_length_a	13.897449
_cell_length_b	25.639240
_cell_length_c	13.897441
_cell_angle_alpha	90.041488
_cell_angle_beta	90.020733
_cell_angle_gamma	90.034037
loop_
_atom_site_label
_atom_site_type_symbol
_atom_site_fract_x
_atom_site_fract_y
_atom_site_fract_z
Zn1	Zn	1.474602	-0.208116	0.545308
Zn2	Zn	1.474453	-0.295559	0.383979
Zn3	Zn	1.313291	-0.208141	0.384027
Zn4	Zn	1.313230	-0.295524	0.545232
O5	O	1.393894	-0.251835	0.464636
O6	O	1.609564	-0.219720	0.523920
O7	O	1.453038	-0.283987	0.249003
O8	O	1.334776	-0.134973	0.405473
O9	O	1.609454	-0.283963	0.405392
O10	O	1.453291	-0.134954	0.523966
O11	O	1.334633	-0.219762	0.249039
O12	O	1.178301	-0.219729	0.405399
O13	O	1.334673	-0.283905	0.680223
O14	O	1.178257	-0.283929	0.523835
O15	O	1.453232	-0.219686	0.680280
O16	O	1.452979	-0.368719	0.405317
O17	O	1.334529	-0.368694	0.523789
C18	C	1.143280	-0.251828	0.464614
C19	C	1.036066	-0.251838	0.464628
C20	C	0.839771	-0.251840	0.464653
C21	C	0.949003	-0.251837	0.464636
C22	C	1.393758	-0.387678	0.464561
C23	C	1.393788	-0.445792	0.464561
C24	C	1.455635	-0.806107	0.526447
C25	C	1.455663	-0.860711	0.526466
O26	O	1.508086	-0.888907	0.579007
N27	N	1.394028	-0.888074	0.464729
C28	C	1.332353	-0.860830	0.402976
O29	O	1.279929	-0.889119	0.350466
C30	C	1.332320	-0.806227	0.402962
C31	C	1.393967	-0.778867	0.464696
C32	C	1.517276	-0.778747	0.588177
C33	C	1.517248	-0.724146	0.588156
C34	C	1.455580	-0.696906	0.526405
C35	C	1.393939	-0.724266	0.464675
C36	C	1.270641	-0.778984	0.341214
C37	C	1.270613	-0.724377	0.341206
C38	C	1.332260	-0.697017	0.402940
C39	C	1.332244	-0.642425	0.402903
N40	N	1.393879	-0.615062	0.464640
C41	C	1.455548	-0.642302	0.526391
C42	C	1.332425	-0.975501	0.403011
C43	C	1.332461	-1.030103	0.403020
C44	C	1.455771	-1.029980	0.526512
C45	C	1.455739	-0.975377	0.526498
C46	C	1.394060	-0.948138	0.464748
C47	C	1.455486	-0.527637	0.526341
C48	C	1.455456	-0.473032	0.526312
C49	C	1.332143	-0.473160	0.402823
C50	C	1.332176	-0.527760	0.402849
C51	C	1.393851	-0.554998	0.464615
O52	O	1.279845	-0.614195	0.350392
O53	O	1.507954	-0.614007	0.578900
C54	C	1.645487	-0.251843	0.464659
C55	C	1.752701	-0.251846	0.464669
C56	C	1.393962	-0.251789	0.716229
C57	C	1.393992	-0.251769	0.823443
C58	C	1.394057	-0.115462	0.464733
C59	C	1.394127	-0.057348	0.464775
C60	C	1.393881	-0.251843	0.214022
C61	C	1.394039	-0.251716	0.106809
C62	C	1.394018	-0.251734	1.019739
C63	C	1.394000	-0.251755	0.910506
H64	H	1.505701	-0.549808	0.576644
H65	H	1.282202	-0.953325	0.352719
N66	N	1.204089	-0.695003	0.274593
H67	H	1.243299	-0.672352	0.229916
H68	H	1.159365	-0.672379	0.313808
H69	H	1.281986	-0.550038	0.352572
N70	N	1.583726	-0.694642	0.654757
H71	H	1.574358	-0.655916	0.645387
H72	H	1.652629	-0.704162	0.639814
N73	N	1.583770	-0.808122	0.654810
H74	H	1.622800	-0.782496	0.693915
H75	H	1.628457	-0.830779	0.615618
N76	N	1.204151	-0.808485	0.274627
H77	H	1.165083	-0.782935	0.235516
H78	H	1.159501	-0.831142	0.313857
H79	H	1.505983	-1.052169	0.576795
N80	N	1.521950	-0.443522	0.592897
H81	H	1.561016	-0.469068	0.632020
H82	H	1.482651	-0.420863	0.637493
N83	N	1.522226	-0.945869	0.593082
H84	H	1.561296	-0.971416	0.632198
H85	H	1.482927	-0.923214	0.637685
H86	H	1.282273	-1.052375	0.352739
N87	N	1.265637	-0.443774	0.336217
H88	H	1.274978	-0.405032	0.345579
H89	H	1.196744	-0.453341	0.351173
