data_functionalizedCrystal
_audit_creation_method	'MofGen! by Chris Wilmer'
_symmetry_space_group_name_H-M	'P1'
_symmetry_Int_Tables_number	1
_symmetry_cell_setting	triclinic
loop_
_symmetry_equiv_pos_as_xyz
  x,y,z
_cell_length_a	12.645330
_cell_length_b	19.077105
_cell_length_c	19.077174
_cell_angle_alpha	94.516248
_cell_angle_beta	92.276947
_cell_angle_gamma	92.285767
loop_
_atom_site_label
_atom_site_type_symbol
_atom_site_fract_x
_atom_site_fract_y
_atom_site_fract_z
Zn1	Zn	-0.515087	-1.093748	-0.441871
Zn2	Zn	-0.684943	-1.088947	-0.323992
Zn3	Zn	-0.500268	-0.971132	-0.319268
Zn4	Zn	-0.684874	-0.975841	-0.437110
O5	O	-0.596293	-1.032417	-0.380560
O6	O	-0.543849	-1.191762	-0.430204
O7	O	-0.654273	-1.069339	-0.224716
O8	O	-0.353889	-0.987436	-0.335547
O9	O	-0.668642	-1.188235	-0.343599
O10	O	-0.364777	-1.077521	-0.425623
O11	O	-0.518592	-0.982780	-0.221244
O12	O	-0.518525	-0.873106	-0.330930
O13	O	-0.668524	-0.995462	-0.536392
O14	O	-0.654155	-0.876566	-0.417509
O15	O	-0.543782	-1.082087	-0.539890
O16	O	-0.833278	-1.073905	-0.338983
O17	O	-0.833227	-0.990806	-0.422090
C18	C	-0.584725	-0.849257	-0.373190
C19	C	-0.579803	-0.770901	-0.370054
C20	C	-0.871719	-1.032365	-0.380548
C21	C	-0.989553	-1.032408	-0.380570
C22	C	-0.607798	-1.039835	-0.564435
C23	C	-0.612701	-1.042997	-0.642791
C24	C	-1.157153	-0.980362	-0.433029
C25	C	-1.034565	-0.980078	-0.432842
C26	C	-1.028198	-1.009319	-0.305469
C27	C	-1.150797	-1.009001	-0.305787
C28	C	-1.162550	-1.107851	-0.402621
C29	C	-1.040017	-1.107459	-0.404227
C30	C	-0.319794	-1.032489	-0.380589
C31	C	-0.201966	-1.032519	-0.380601
C32	C	-0.607907	-1.216292	-0.387960
C33	C	-0.612856	-1.294649	-0.391113
C34	C	-0.648203	-0.735906	-0.413587
C35	C	-0.643565	-0.662282	-0.410643
C36	C	-0.570530	-0.623654	-0.364164
C37	C	-0.502122	-0.658655	-0.320629
C38	C	-0.506757	-0.732277	-0.323577
C39	C	-0.549082	-0.403272	-0.350526
C40	C	-0.544455	-0.329644	-0.347580
C41	C	-0.685897	-0.333277	-0.437596
C42	C	-0.690529	-0.406900	-0.440536
C43	C	-0.622118	-0.441894	-0.397004
N44	N	-0.565789	-0.548399	-0.361152
N45	N	-0.626854	-0.517148	-0.400020
C46	C	-0.544365	-0.999417	-0.677795
C47	C	-0.548980	-1.002385	-0.751419
C48	C	-0.621928	-1.048936	-0.790038
C49	C	-0.690272	-1.092517	-0.755029
C50	C	-0.685661	-1.089545	-0.681406
C51	C	-0.643298	-1.062653	-1.010420
C52	C	-0.647902	-1.065622	-1.084048
C53	C	-0.506611	-0.975490	-1.080434
C54	C	-0.502002	-0.972525	-1.006810
C55	C	-0.570350	-1.016103	-0.971807
N56	N	-0.626645	-1.051972	-0.865294
N57	N	-0.565637	-1.013063	-0.896553
C58	C	-0.584758	-1.025068	-0.197403
C59	C	-0.579565	-1.022043	-0.119053
H60	H	-1.008675	-0.994869	-0.488436
F61	F	-0.767915	-1.142056	-0.796131
H62	H	-1.191585	-1.146746	-0.364472
H63	H	-0.998823	-1.045972	-0.265207
F64	F	-0.725943	-0.777009	-0.463054
H65	H	-1.190833	-0.995045	-0.488798
F66	F	-0.433954	-0.769521	-0.277245
H67	H	-1.015267	-1.124817	-0.459512
F68	F	-0.758398	-1.135926	-0.644152
H69	H	-0.993153	-0.954719	-0.286893
H70	H	-0.750004	-0.438346	-0.478383
F71	F	-1.192011	-0.907906	-0.413893
F72	F	-0.466724	-0.288535	-0.298103
H73	H	-1.197906	-1.128332	-0.456612
F74	F	-0.476270	-0.440505	-0.304197
F75	F	-0.758701	-0.296028	-0.483920
F76	F	-0.466718	-0.949875	-0.636701
H77	H	-1.001052	-0.924290	-0.418018
F78	F	-0.424387	-0.617542	-0.271166
F79	F	-0.476284	-0.955976	-0.788669
H80	H	-0.442603	-0.934616	-0.975371
H81	H	-0.450967	-0.940010	-1.108941
H82	H	-0.707306	-1.103533	-1.115490
F83	F	-0.716035	-1.109037	-0.973177
H84	H	-1.175036	-0.953844	-0.287480
H85	H	-1.180190	-1.045180	-0.265231
F86	F	-1.000424	-1.161241	-0.358265
F87	F	-0.716366	-0.625041	-0.456977
