data_functionalizedCrystal
_audit_creation_method	'MofGen! by Chris Wilmer'
_symmetry_space_group_name_H-M	'P1'
_symmetry_Int_Tables_number	1
_symmetry_cell_setting	triclinic
loop_
_symmetry_equiv_pos_as_xyz
  x,y,z
_cell_length_a	16.959455
_cell_length_b	16.120444
_cell_length_c	16.959447
_cell_angle_alpha	92.867280
_cell_angle_beta	89.985678
_cell_angle_gamma	92.923490
loop_
_atom_site_label
_atom_site_type_symbol
_atom_site_fract_x
_atom_site_fract_y
_atom_site_fract_z
Zn1	Zn	1.192388	-0.331959	-0.462855
Zn2	Zn	1.185592	-0.471387	-0.337374
Zn3	Zn	1.060215	-0.331985	-0.330694
Zn4	Zn	1.053466	-0.471325	-0.469510
O5	O	1.122915	-0.401664	-0.400108
O6	O	1.302097	-0.350469	-0.446221
O7	O	1.168941	-0.452932	-0.225879
O8	O	1.083417	-0.215316	-0.342645
O9	O	1.297104	-0.452907	-0.354030
O10	O	1.180524	-0.215296	-0.439743
O11	O	1.076827	-0.350514	-0.220971
O12	O	0.948710	-0.350454	-0.349097
O13	O	1.071914	-0.452801	-0.579236
O14	O	0.943751	-0.452826	-0.451085
O15	O	1.173979	-0.350409	-0.574347
O16	O	1.162397	-0.588045	-0.360483
O17	O	1.065324	-0.587999	-0.457563
C18	C	0.917550	-0.401637	-0.400089
C19	C	0.829693	-0.401645	-0.400100
C20	C	0.460777	-0.348315	-0.347107
C21	C	0.455654	-0.455082	-0.453158
C22	C	0.538200	-0.455070	-0.453153
C23	C	0.582039	-0.401681	-0.400123
C24	C	0.543331	-0.348303	-0.347098
C25	C	0.576914	-0.508452	-0.506171
C26	C	0.659466	-0.508443	-0.506167
C27	C	0.703306	-0.455049	-0.453141
C28	C	0.664593	-0.401669	-0.400114
C29	C	0.708431	-0.348279	-0.347084
C30	C	0.669720	-0.294894	-0.294061
C31	C	0.587171	-0.294909	-0.294071
C32	C	0.785855	-0.455034	-0.453130
C33	C	0.790985	-0.348268	-0.347076
C34	C	1.112412	-0.618272	-0.410487
C35	C	1.107991	-0.710938	-0.414954
C36	C	1.146044	-0.921883	-0.377108
C37	C	1.099933	-0.880594	-0.423117
C38	C	1.104418	-0.786189	-0.418574
C39	C	1.141560	-1.016297	-0.381650
C40	C	1.329082	-0.401692	-0.400128
C41	C	1.416938	-0.401704	-0.400137
C42	C	1.122952	-0.401595	-0.606273
C43	C	1.122967	-0.401566	-0.694129
C44	C	1.133482	-0.184210	-0.389706
C45	C	1.137984	-0.091544	-0.385273
C46	C	1.069925	-0.454788	-1.068148
C47	C	1.176207	-0.348167	-1.063052
C48	C	1.176185	-0.348185	-0.980507
C49	C	1.123033	-0.401506	-0.941779
C50	C	1.069903	-0.454810	-0.985596
C51	C	1.229319	-0.294888	-0.936684
C52	C	1.229300	-0.294904	-0.854134
C53	C	1.176144	-0.348222	-0.815404
C54	C	1.123011	-0.401527	-0.859226
C55	C	1.069859	-0.454848	-0.820498
C56	C	1.016722	-0.508150	-0.864318
C57	C	1.016746	-0.508127	-0.946866
C58	C	1.176119	-0.348244	-0.732857
C59	C	1.069837	-0.454869	-0.737946
C60	C	1.122928	-0.401673	-0.194743
C61	C	1.123077	-0.401467	-0.106877
H62	H	0.826674	-0.304786	-0.303896
C63	C	1.203915	-0.873855	-0.319281
N64	N	1.247499	-0.837670	-0.275723
H65	H	0.541215	-0.551925	-0.549340
H66	H	0.705424	-0.251428	-0.250881
C67	C	1.287774	-0.236230	-0.979290
N68	N	1.331800	-0.192041	-1.011384
H69	H	1.026547	-0.498283	-0.706419
C70	C	0.702040	-0.567164	-0.564496
N71	N	0.734109	-0.611392	-0.608431
H72	H	0.973449	-0.551568	-0.832775
H73	H	0.973487	-0.551525	-0.982552
H74	H	1.026660	-0.498183	-1.103830
C75	C	0.544582	-0.236194	-0.235748
N76	N	0.512501	-0.191973	-0.191818
C77	C	1.234665	-0.289512	-1.105656
N78	N	1.278695	-0.245326	-1.137748
C79	C	1.287744	-0.236263	-0.805939
N80	N	1.331761	-0.192091	-0.769637
C81	C	0.418194	-0.289593	-0.288785
N82	N	0.386120	-0.245364	-0.244856
C83	C	0.407429	-0.513809	-0.511486
N84	N	0.371102	-0.558042	-0.555423
H85	H	1.219384	-0.304849	-0.697182
H86	H	1.057089	-0.916147	-0.465920
C87	C	0.828434	-0.513754	-0.511452
N88	N	0.860503	-0.557983	-0.555385
