data_functionalizedCrystal
_audit_creation_method	'MofGen! by Chris Wilmer'
_symmetry_space_group_name_H-M	'P1'
_symmetry_Int_Tables_number	1
_symmetry_cell_setting	triclinic
loop_
_symmetry_equiv_pos_as_xyz
  x,y,z
_cell_length_a	19.902436
_cell_length_b	23.196402
_cell_length_c	23.196402
_cell_angle_alpha	90.003744
_cell_angle_beta	60.002259
_cell_angle_gamma	59.998416
loop_
_atom_site_label
_atom_site_type_symbol
_atom_site_fract_x
_atom_site_fract_y
_atom_site_fract_z
Zr1	Zr	0.735494	-0.075734	0.555369
O2	O	0.875671	-0.167792	0.463313
O3	O	0.595315	-0.047505	0.583587
O4	O	0.735493	-0.167785	0.583579
O5	O	0.735494	0.047358	0.463329
O6	O	0.735494	-0.167788	0.678449
O7	O	0.735493	-0.047512	0.463321
O8	O	0.484742	0.047371	0.678463
O9	O	0.986247	-0.167802	0.463315
O10	O	0.652975	-0.035478	0.666424
O11	O	0.652975	0.035325	0.595630
O12	O	0.818016	-0.106289	0.595621
O13	O	0.818016	-0.035486	0.524826
Zr14	Zr	0.735499	0.075568	0.706688
Zr15	Zr	0.735497	-0.075739	0.706675
Zr16	Zr	0.735497	0.075573	0.555381
Zr17	Zr	0.911851	-0.075748	0.555372
Zr18	Zr	0.559143	0.075582	0.706685
O19	O	0.875678	0.047339	0.678470
O20	O	0.875675	-0.167800	0.678452
O21	O	0.875675	0.047346	0.463331
O22	O	0.595323	0.167626	0.798744
O23	O	0.595319	-0.047512	0.798725
O24	O	0.595319	0.167634	0.583605
O25	O	0.735499	-0.047524	0.798728
O26	O	0.735501	0.167619	0.678478
O27	O	0.735499	0.167622	0.583608
O28	O	0.735501	0.047346	0.798736
O29	O	0.986249	-0.167806	0.583584
O30	O	0.484744	0.167640	0.678473
O31	O	0.484746	0.167635	0.798742
O32	O	0.484744	0.047367	0.798731
O33	O	0.986249	-0.047533	0.463325
O34	O	0.986252	-0.047537	0.583594
O35	O	0.652977	0.106123	0.666436
O36	O	0.652977	0.035320	0.737230
O37	O	0.818019	-0.035491	0.666427
O38	O	0.818019	0.035311	0.595633
C39	C	0.514901	-0.000065	0.631024
C40	C	0.440033	-0.000059	0.631023
C41	C	0.735493	-0.000077	0.441767
C42	C	0.735492	-0.000074	0.377533
C43	C	0.735500	0.189178	0.631044
C44	C	0.735501	0.253412	0.631050
C45	C	0.168023	-0.000092	0.631030
C46	C	0.196262	0.044788	0.586588
C47	C	0.274380	0.044603	0.586347
C48	C	0.302970	-0.000075	0.631027
C49	C	0.338532	-0.077012	0.598448
C50	C	0.260694	-0.076776	0.598113
C51	C	0.133510	0.031349	0.708073
C52	C	0.210562	0.032916	0.707961
C53	C	0.379239	-0.000069	0.631025
C54	C	0.091759	-0.000102	0.631029
C55	C	0.956092	-0.000101	0.631032
C56	C	1.030960	-0.000108	0.631034
C57	C	0.735493	-0.189345	0.631012
C58	C	0.735492	-0.253578	0.631007
C59	C	0.821649	0.246624	0.594094
C60	C	0.821650	0.306979	0.594084
C61	C	0.735499	0.374120	0.631043
C62	C	0.649340	0.380906	0.668000
C63	C	0.649341	0.320551	0.668004
C64	C	0.669496	0.498061	0.692943
C65	C	0.669498	0.558412	0.692942
C66	C	0.735492	0.560274	0.631031
C67	C	0.801498	0.501770	0.569122
C68	C	0.801500	0.441416	0.569126
C69	C	0.735488	0.439568	0.631043
C70	C	0.821646	0.618927	0.594061
C71	C	0.821644	0.679284	0.594049
C72	C	0.649332	0.753211	0.667972
C73	C	0.649337	0.692854	0.667977
C74	C	0.735496	0.625715	0.631023
C75	C	0.649345	0.036882	0.384317
C76	C	0.649344	0.036885	0.323962
C77	C	0.735494	-0.000082	0.256825
C78	C	0.821653	-0.037040	0.250044
C79	C	0.821652	-0.037036	0.310398
C80	C	0.801497	-0.061998	0.132892
C81	C	0.801495	-0.062004	0.072540
C82	C	0.735502	-0.000093	0.070671
C83	C	0.669495	0.061823	0.129168
C84	C	0.669494	0.061827	0.189522
C85	C	0.735505	-0.000090	0.191377
C86	C	0.649347	0.036869	0.012014
C87	C	0.649349	0.036874	-0.048343
C88	C	0.821662	-0.037057	-0.122261
C89	C	0.821657	-0.037055	-0.061904
C90	C	0.735497	-0.000094	0.005231
C91	C	0.735500	-0.000090	0.820290
C92	C	0.735501	-0.000092	0.884523
C93	C	0.514905	-0.000071	0.820286
C94	C	0.440038	-0.000067	0.884518
C95	C	0.514905	0.189197	0.631040
C96	C	0.440038	0.253437	0.631044
C97	C	0.514908	0.189190	0.820302
C98	C	0.440042	0.253428	0.884540
C99	C	0.956085	-0.189356	0.441755
C100	C	1.030951	-0.253594	0.377517
C101	C	0.956089	-0.000095	0.441771
C102	C	1.030956	-0.000099	0.377539
C103	C	0.956089	-0.189363	0.631016
C104	C	1.030956	-0.253603	0.631012
C105	C	0.404878	-0.037028	0.877722
C106	C	0.334543	-0.037038	0.938069
C107	C	0.299363	-0.000084	1.005212
C108	C	0.334530	0.036878	1.012007
C109	C	0.404869	0.036884	0.951660
C110	C	0.404881	0.320566	0.668007
C111	C	0.334545	0.380932	0.668008
C112	C	0.299363	0.374167	0.631051
C113	C	0.334527	0.307030	0.594084
C114	C	0.404866	0.246666	0.594079
C115	C	0.404885	0.246636	0.951667
C116	C	0.334550	0.306988	1.012030
C117	C	0.299370	0.374132	1.005266
C118	C	0.334535	0.380922	0.938132
C119	C	0.404873	0.320570	0.877769
C120	C	1.066117	-0.246802	0.310390
C121	C	1.136474	-0.307154	0.250026
C122	C	1.171658	-0.374298	0.256791
C123	C	1.136488	-0.381088	0.323925
C124	C	1.066138	-0.320736	0.384287
C125	C	1.066122	0.036855	0.384335
C126	C	1.136478	0.036849	0.323987
C127	C	1.171660	-0.000108	0.256845
C128	C	1.136490	-0.037066	0.250050
C129	C	1.066141	-0.037064	0.310397
C130	C	1.066115	-0.246815	0.667977
C131	C	1.136451	-0.307169	0.667987
C132	C	1.171631	-0.374311	0.631028
C133	C	1.136464	-0.381097	0.594062
C134	C	1.066125	-0.320744	0.594057
H135	H	0.247736	0.101258	0.608200
O136	O	0.223494	0.439224	1.070374
H137	H	0.204954	0.423214	1.118185
O138	O	1.028207	-0.328065	0.554182
H139	H	1.087267	-0.357373	0.497381
H140	H	0.891798	-0.067138	0.195376
O141	O	1.174439	-0.076926	0.177630
H142	H	1.229258	-0.070709	0.136816
H143	H	0.615753	0.112241	0.237146
O144	O	0.442826	-0.076899	0.805308
H145	H	0.383779	-0.055551	0.799167
H146	H	0.131757	0.101585	0.608325
O147	O	0.296619	0.299657	1.084434
H148	H	0.332889	0.242828	1.078991
O149	O	0.223487	0.439283	0.631072
H150	H	0.250476	0.439260	0.576044
O151	O	0.872689	-0.128781	0.134893
H152	H	0.917259	-0.119571	0.143264
H153	H	0.222220	0.023174	0.530094
O154	O	1.028180	-0.174404	0.707848
H155	H	0.973364	-0.133568	0.701637
O156	O	1.174376	-0.299816	0.177625
H157	H	1.206397	-0.270493	0.171498
H158	H	0.891806	-0.067128	0.304869
O159	O	0.239572	-0.123483	0.638208
H160	H	0.284952	-0.146144	0.657746
H161	H	0.579190	0.066979	0.329486
O162	O	0.442778	0.327906	0.805370
H163	H	0.497604	0.274664	0.764526
H164	H	1.165144	-0.435763	0.329424
O165	O	1.247510	-0.439405	0.631025
H166	H	1.266052	-0.423398	0.662933
O167	O	0.442821	0.174224	0.958978
H168	H	0.497635	0.133390	0.905731
O169	O	0.556416	0.076749	0.456724
H170	H	0.552291	0.117598	0.485994
O171	O	0.296610	0.453339	0.707893
H172	H	0.332880	0.447896	0.733602
O173	O	0.442771	0.076763	0.959000
H174	H	0.497595	0.070563	0.905762
H175	H	1.165077	-0.301629	0.698087
O176	O	1.028198	-0.328065	0.456689
H177	H	1.064479	-0.384895	0.451244
O178	O	0.296569	0.453345	0.930845
H179	H	0.310057	0.482613	0.956585
O180	O	1.247525	-0.000089	0.191767
H181	H	1.311640	-0.055120	0.159888
H182	H	0.226169	0.003626	0.743864
O183	O	0.914582	-0.076931	-0.194669
H184	H	0.955892	-0.055573	-0.200810
O185	O	1.028197	0.076706	0.456749
H186	H	1.064492	0.102388	0.451325
O187	O	1.174381	-0.453511	0.554214
H188	H	1.206427	-0.459664	0.497410
O189	O	0.223493	-0.000094	1.070294
H190	H	0.250491	-0.023232	1.102160
H191	H	0.405535	-0.102356	0.542297
H192	H	1.037510	-0.067154	0.304853
O193	O	0.296575	0.076742	1.084426
H194	H	0.241748	0.070531	1.125241
H195	H	1.228941	-0.423434	0.207634
H196	H	1.165101	0.066948	0.329534
H197	H	0.579195	0.435577	0.698091
O198	O	0.296569	0.299743	0.554229
H199	H	0.332831	0.242923	0.528518
H200	H	0.114654	-0.001184	0.741342
O201	O	0.914573	-0.076926	-0.069215
H202	H	0.974481	-0.102638	-0.126038
H203	H	0.338838	0.022805	0.529518
O204	O	0.442631	0.174286	0.554283
H205	H	0.474645	0.168106	0.497476
H206	H	0.359425	-0.111899	0.629263
O207	O	0.299810	-0.110111	0.523019
H208	H	0.374032	-0.126245	0.487285
O209	O	0.914568	0.671961	0.554180
H210	H	0.918685	0.697704	0.591486
O211	O	0.914578	0.174213	0.554230
H212	H	0.918705	0.144953	0.591543
O213	O	1.028181	-0.174387	0.303086
H214	H	1.064473	-0.179815	0.246262
H215	H	0.065464	0.087133	0.735292
O216	O	0.296613	-0.076898	0.930734
H217	H	0.332884	-0.102580	0.873906
O218	O	0.598305	0.128608	0.127171
H219	H	0.636551	0.143749	0.083274
O220	O	0.172447	0.108010	0.740194
H221	H	0.219124	0.121784	0.701591
O222	O	0.914568	0.299668	0.554229
H223	H	0.974479	0.242843	0.528538
O224	O	0.442816	0.327875	0.707873
H225	H	0.520416	0.302132	0.670562
O226	O	0.872682	0.378317	0.502359
H227	H	0.918572	0.389746	0.459304
H228	H	0.891803	0.564258	0.563967
O229	O	0.872681	0.503766	0.502337
H230	H	0.861585	0.555564	0.512730
O231	O	0.556407	0.825620	0.707851
H232	H	0.570877	0.866449	0.701649
H233	H	0.615756	0.606041	0.743353
O234	O	0.556420	0.700169	0.707870
H235	H	0.496512	0.756995	0.733583
H236	H	0.579188	0.326084	0.698098
O237	O	0.598317	0.496054	0.759723
H238	H	0.552432	0.546867	0.802773
H239	H	0.579191	0.066981	0.066679
H240	H	0.579195	0.066974	-0.042813
H241	H	0.855239	-0.112420	0.024917
