data_functionalizedCrystal
_audit_creation_method	'MofGen! by Chris Wilmer'
_symmetry_space_group_name_H-M	'P1'
_symmetry_Int_Tables_number	1
_symmetry_cell_setting	triclinic
loop_
_symmetry_equiv_pos_as_xyz
  x,y,z
_cell_length_a	19.805407
_cell_length_b	16.625546
_cell_length_c	19.805399
_cell_angle_alpha	90.027867
_cell_angle_beta	90.019573
_cell_angle_gamma	90.022468
loop_
_atom_site_label
_atom_site_type_symbol
_atom_site_fract_x
_atom_site_fract_y
_atom_site_fract_z
Zn1	Zn	1.034754	-0.321020	0.382718
Zn2	Zn	1.534754	0.178980	0.882718
Zn3	Zn	1.034677	-0.455857	0.269529
Zn4	Zn	1.534677	0.044143	0.769529
Zn5	Zn	0.921569	-0.321043	0.269543
Zn6	Zn	1.421569	0.178957	0.769543
Zn7	Zn	0.921540	-0.455815	0.382676
Zn8	Zn	1.421540	0.044185	0.882676
O9	O	0.978135	-0.388434	0.326117
O10	O	1.478135	0.111566	0.826117
O11	O	1.129461	-0.338915	0.367716
O12	O	1.629461	0.161085	0.867716
O13	O	1.019652	-0.438001	0.174815
O14	O	1.519652	0.061999	0.674815
O15	O	0.936628	-0.208207	0.284579
O16	O	1.436628	0.291793	0.784579
O17	O	1.129404	-0.437980	0.284556
O18	O	1.629404	0.062020	0.784556
O19	O	1.019784	-0.208191	0.367729
O20	O	1.519784	0.291809	0.867729
O21	O	0.936553	-0.338953	0.174825
O22	O	1.436553	0.161047	0.674825
O23	O	0.826848	-0.338912	0.284538
O24	O	1.326848	0.161088	0.784538
O25	O	0.936579	-0.437907	0.477398
O26	O	1.436579	0.062093	0.977398
O27	O	0.826827	-0.437928	0.367657
O28	O	1.326827	0.062072	0.867657
O29	O	1.019756	-0.338874	0.477429
O30	O	1.519756	0.161126	0.977429
O31	O	1.019625	-0.568684	0.284515
O32	O	1.519625	-0.068684	0.784515
O33	O	0.936504	-0.568653	0.367644
O34	O	1.436504	-0.068653	0.867644
C35	C	0.802279	-0.388418	0.326095
C36	C	1.302279	0.111582	0.826095
C37	C	0.727047	-0.388431	0.326102
C38	C	1.227047	0.111569	0.826102
C39	C	0.691710	-0.440067	0.369311
C40	C	1.191710	0.059933	0.869311
C41	C	0.621021	-0.440068	0.369321
C42	C	1.121021	0.059932	0.869321
C43	C	0.585671	-0.388437	0.326117
C44	C	1.085671	0.111563	0.826117
C45	C	0.621014	-0.336796	0.282905
C46	C	1.121014	0.163204	0.782905
C47	C	0.691701	-0.336791	0.282899
C48	C	1.191701	0.163209	0.782899
C49	C	0.335941	-0.336814	0.282927
C50	C	0.835941	0.163186	0.782927
C51	C	0.265248	-0.336825	0.282935
C52	C	0.765248	0.163175	0.782935
C53	C	0.265261	-0.440091	0.369349
C54	C	0.765261	0.059909	0.869349
C55	C	0.335948	-0.440086	0.369343
C56	C	0.835948	0.059914	0.869343
C57	C	0.371284	-0.388442	0.326134
C58	C	0.871284	0.111558	0.826134
C59	C	0.447932	-0.388440	0.326125
C60	C	0.947932	0.111560	0.826125
C61	C	0.509024	-0.388443	0.326122
C62	C	1.009024	0.111557	0.826122
C63	C	0.978071	-0.597925	0.326088
C64	C	1.478071	-0.097925	0.826088
C65	C	0.978105	-0.687546	0.326099
C66	C	1.478105	-0.187546	0.826099
C67	C	0.978224	-1.015721	0.326169
C68	C	1.478224	-0.515721	0.826169
C69	C	0.978189	-0.924413	0.326152
C70	C	1.478189	-0.424413	0.826152
C71	C	0.978164	-0.851636	0.326134
C72	C	1.478164	-0.351636	0.826134
C73	C	0.978130	-0.760322	0.326117
C74	C	1.478130	-0.260322	0.826117
C75	C	1.154678	-0.388450	0.326139
C76	C	1.654678	0.111550	0.826139
C77	C	1.229910	-0.388457	0.326149
C78	C	1.729910	0.111543	0.826149
C79	C	0.978173	-0.388383	0.502660
C80	C	1.478173	0.111617	1.002660
C81	C	0.978189	-0.388361	0.577892
C82	C	1.478189	0.111639	1.077892
C83	C	0.978218	-0.178125	0.326160
C84	C	1.478218	0.321875	0.826160
C85	C	0.978253	-0.088504	0.326178
C86	C	1.478253	0.411496	0.826178
C87	C	0.978136	-0.388426	0.150261
C88	C	1.478136	0.111574	0.650261
C89	C	0.978251	-0.388221	0.075029
C90	C	1.478251	0.111779	0.575029
C91	C	1.021501	-0.336792	0.613253
C92	C	1.521501	0.163208	1.113253
C93	C	1.021508	-0.336769	0.683941
C94	C	1.521508	0.163231	1.183941
C95	C	0.978206	-0.388319	0.719267
C96	C	1.478206	0.111681	1.219267
C97	C	0.934889	-0.439890	0.683901
C98	C	1.434889	0.060110	1.183901
C99	C	0.934880	-0.439909	0.613214
C100	C	1.434880	0.060091	1.113214
C101	C	0.934928	-0.439815	0.968974
C102	C	1.434928	0.060185	1.468974
C103	C	0.934942	-0.439794	1.039667
C104	C	1.434942	0.060206	1.539667
C105	C	1.021556	-0.336675	1.039702
C106	C	1.521556	0.163325	1.539702
C107	C	1.021546	-0.336694	0.969015
C108	C	1.521546	0.163306	1.469015
C109	C	0.978227	-0.388262	0.933655
C110	C	1.478227	0.111738	1.433655
C111	C	0.978219	-0.388285	0.857006
C112	C	1.478219	0.111715	1.357006
C113	C	0.978217	-0.388300	0.795914
C114	C	1.478217	0.111700	1.295914
H115	H	0.236481	-0.482139	0.404534
H116	H	0.736481	0.017861	0.904534
C117	C	1.069203	-0.279944	1.078597
C118	C	1.569203	0.220056	1.578597
H119	H	1.094996	-0.249253	1.047433
H120	H	1.594996	0.250747	1.547433
H121	H	1.043333	-0.244799	1.106174
H122	H	1.543333	0.255201	1.606174
H123	H	1.098688	-0.310789	1.106170
H124	H	1.598688	0.189211	1.606170
C125	C	1.069166	-0.280065	0.722839
C126	C	1.569166	0.219935	1.222839
H127	H	1.062971	-0.287434	0.769997
H128	H	1.562971	0.212566	1.269997
H129	H	1.114632	-0.291892	0.711254
H130	H	1.614632	0.208108	1.211254
H131	H	1.059293	-0.225883	0.711270
H132	H	1.559293	0.274117	1.211270
C133	C	0.226362	-0.280021	0.235417
C134	C	0.726362	0.219979	0.735417
H135	H	0.179202	-0.287427	0.241606
H136	H	0.679202	0.212573	0.741606
H137	H	0.237964	-0.225862	0.245410
H138	H	0.737964	0.274138	0.745410
H139	H	0.237921	-0.291744	0.189916
H140	H	0.737921	0.208256	0.689916
C141	C	0.730588	-0.496860	0.416838
C142	C	1.230588	0.003140	0.916838
H143	H	0.699416	-0.527606	0.442577
H144	H	1.199416	-0.027606	0.942577
H145	H	0.758144	-0.531951	0.390894
H146	H	1.258144	-0.031951	0.890894
H147	H	0.758182	-0.466054	0.446376
H148	H	1.258182	0.033946	0.946376
C149	C	0.582153	-0.496916	0.416810
C150	C	1.082153	0.003084	0.916810
H151	H	0.613330	-0.527686	0.442522
H152	H	1.113330	-0.027686	0.942522
H153	H	0.554579	-0.466168	0.446366
H154	H	1.054579	0.033832	0.946366
H155	H	0.554577	-0.531994	0.390825
H156	H	1.054577	-0.031994	0.890825
C157	C	1.069175	-0.279989	0.930157
C158	C	1.569175	0.220011	1.430157
H159	H	1.062969	-0.287391	0.882994
H160	H	1.562969	0.212609	1.382994
H161	H	1.059293	-0.225810	0.941751
H162	H	1.559293	0.274190	1.441751
H163	H	1.114653	-0.291794	0.941746
H164	H	1.614653	0.208206	1.441746
H165	H	0.720472	-0.294740	0.247717
H166	H	1.220472	0.205260	0.747717
C167	C	0.887309	-0.496500	1.078527
C168	C	1.387309	0.003500	1.578527
H169	H	0.893527	-0.489108	1.125690
H170	H	1.393527	0.010892	1.625690
H171	H	0.841834	-0.484698	1.066941
H172	H	1.341834	0.015302	1.566941
H173	H	0.897193	-0.550682	1.066932
H174	H	1.397193	-0.050682	1.566932
C175	C	0.887266	-0.496521	0.930087
C176	C	1.387266	0.003479	1.430087
H177	H	0.861479	-0.527218	0.961252
H178	H	1.361479	-0.027218	1.461252
H179	H	0.857787	-0.465664	0.902523
H180	H	1.357787	0.034336	1.402523
H181	H	0.913125	-0.531674	0.902500
H182	H	1.413125	-0.031674	1.402500
C183	C	0.887238	-0.496634	0.574313
C184	C	1.387238	0.003366	1.074313
H185	H	0.893429	-0.489256	0.527155
H186	H	1.393429	0.010744	1.027155
H187	H	0.897121	-0.550808	0.585886
H188	H	1.397121	-0.050808	1.085886
H189	H	0.841766	-0.484818	0.585893
H190	H	1.341766	0.015182	1.085893
C191	C	0.374829	-0.496877	0.416870
C192	C	0.874829	0.003123	0.916870
H193	H	0.343659	-0.527624	0.442611
H194	H	0.843659	-0.027624	0.942611
H195	H	0.402386	-0.531966	0.390926
H196	H	0.902386	-0.031966	0.890926
H197	H	0.402422	-0.466068	0.446406
H198	H	0.902422	0.033932	0.946406
H199	H	0.592226	-0.294754	0.247730
H200	H	1.092226	0.205246	0.747730
H201	H	0.364703	-0.294769	0.247739
H202	H	0.864703	0.205231	0.747739
H203	H	0.899630	-0.481861	0.712669
H204	H	1.399630	0.018139	1.212669
H205	H	1.056764	-0.294817	0.584496
H206	H	1.556764	0.205183	1.084496
