data_functionalizedCrystal
_audit_creation_method	'MofGen! by Chris Wilmer'
_symmetry_space_group_name_H-M	'P1'
_symmetry_Int_Tables_number	1
_symmetry_cell_setting	triclinic
loop_
_symmetry_equiv_pos_as_xyz
  x,y,z
_cell_length_a	16.959455
_cell_length_b	15.297327
_cell_length_c	15.296720
_cell_angle_alpha	107.319222
_cell_angle_beta	99.656931
_cell_angle_gamma	99.704834
loop_
_atom_site_label
_atom_site_type_symbol
_atom_site_fract_x
_atom_site_fract_y
_atom_site_fract_z
Zn1	Zn	1.048915	-0.461307	-0.589952
Zn2	Zn	1.548915	0.038693	-0.089952
Zn3	Zn	1.048826	-0.589929	-0.461346
Zn4	Zn	1.548826	-0.089929	0.038654
Zn5	Zn	0.944405	-0.434427	-0.434457
Zn6	Zn	1.444405	0.065573	0.065543
Zn7	Zn	0.889053	-0.616759	-0.616772
Zn8	Zn	1.389053	-0.116759	-0.116772
O9	O	0.982800	-0.525605	-0.525632
O10	O	1.482800	-0.025605	-0.025632
O11	O	1.159507	-0.478390	-0.572920
O12	O	1.659507	0.021610	-0.072920
O13	O	1.058101	-0.546823	-0.327658
O14	O	1.558101	-0.046823	0.172342
O15	O	0.981471	-0.307858	-0.432607
O16	O	1.481471	0.192142	0.067393
O17	O	1.159441	-0.572888	-0.478434
O18	O	1.659441	-0.072888	0.021566
O19	O	1.058254	-0.327606	-0.546848
O20	O	1.558254	0.172394	-0.046848
O21	O	0.981383	-0.432577	-0.307903
O22	O	1.481383	0.067423	0.192097
O23	O	0.826459	-0.458592	-0.458613
O24	O	1.326459	0.041408	0.041387
O25	O	0.887132	-0.618615	-0.743336
O26	O	1.387132	-0.118615	-0.243336
O27	O	0.785793	-0.592551	-0.592559
O28	O	1.285793	-0.092551	-0.092559
O29	O	1.004582	-0.504406	-0.723631
O30	O	1.504582	-0.004406	-0.223631
O31	O	1.004429	-0.723623	-0.504441
O32	O	1.504429	-0.223623	-0.004441
O33	O	0.887045	-0.743335	-0.618632
O34	O	1.387045	-0.243335	-0.118632
C35	C	0.939739	-0.767225	-0.567385
C36	C	1.439739	-0.267225	-0.067385
C37	C	0.921384	-0.870596	-0.585278
C38	C	1.421384	-0.370596	-0.085278
C39	C	0.777447	-0.525567	-0.525580
C40	C	1.277447	-0.025567	-0.025580
C41	C	0.689589	-0.525577	-0.525583
C42	C	1.189589	-0.025577	-0.025583
C43	C	1.114254	-1.120833	-0.398064
C44	C	1.614254	-0.620833	0.101936
C45	C	1.131500	-1.023710	-0.381247
C46	C	1.631500	-0.523710	0.118753
C47	C	1.078973	-0.985427	-0.432254
C48	C	1.578973	-0.485427	0.067746
C49	C	1.009196	-1.044276	-0.500079
C50	C	1.509196	-0.544276	-0.000079
C51	C	0.991945	-1.141408	-0.516892
C52	C	1.491945	-0.641408	-0.016892
C53	C	0.956664	-1.006001	-0.551082
C54	C	1.456664	-0.506001	-0.051082
C55	C	0.886888	-1.064851	-0.618907
C56	C	1.386888	-0.564851	-0.118907
C57	C	0.869640	-1.161973	-0.635717
C58	C	1.369640	-0.661973	-0.135717
C59	C	0.922167	-1.200256	-0.584711
C60	C	1.422167	-0.700256	-0.084711
C61	C	0.973915	-0.908870	-0.534269
C62	C	1.473915	-0.408870	-0.034269
C63	C	0.851606	-0.929444	-0.653097
C64	C	1.351606	-0.429444	-0.153097
C65	C	0.834361	-1.026568	-0.669913
C66	C	1.334361	-0.526568	-0.169913
C67	C	0.318072	-0.574746	-0.476392
C68	C	0.818072	-0.074746	0.023608
C69	C	0.318097	-0.476561	-0.574998
C70	C	0.818097	0.023439	-0.074998
C71	C	0.400649	-0.476542	-0.574972
C72	C	0.900649	0.023458	-0.074972
C73	C	0.441917	-0.525627	-0.525657
C74	C	0.941917	-0.025627	-0.025657
C75	C	0.400632	-0.574731	-0.476368
C76	C	0.900632	-0.074731	0.023632
C77	C	0.441938	-0.427447	-0.624269
C78	C	0.941938	0.072553	-0.124269
C79	C	0.524496	-0.427427	-0.624247
C80	C	1.024496	0.072573	-0.124247
C81	C	0.565766	-0.476506	-0.574926
C82	C	1.065766	0.023494	-0.074926
C83	C	0.524476	-0.525611	-0.525633
C84	C	1.024476	-0.025611	-0.025633
C85	C	0.565744	-0.574696	-0.476318
C86	C	1.065744	-0.074696	0.023682
C87	C	0.524457	-0.623796	-0.427019
C88	C	1.024457	-0.123796	0.072981
C89	C	0.441903	-0.623811	-0.427047
C90	C	0.941903	-0.123811	0.072953
C91	C	0.648321	-0.476492	-0.574898
C92	C	1.148321	0.023508	-0.074898
C93	C	0.648304	-0.574681	-0.476293
C94	C	1.148304	-0.074681	0.023707
C95	C	1.188954	-0.525645	-0.525685
C96	C	1.688954	-0.025645	-0.025685
C97	C	1.276805	-0.525662	-0.525707
C98	C	1.776805	-0.025662	-0.025707
C99	C	0.939693	-0.567502	-0.768165
C100	C	1.439693	-0.067502	-0.268165
C101	C	0.921324	-0.585356	-0.871519
C102	C	1.421324	-0.085356	-0.371519
C103	C	1.026047	-0.283046	-0.483736
C104	C	1.526047	0.216954	0.016264
C105	C	1.044476	-0.179682	-0.465883
C106	C	1.544476	0.320318	0.034117
C107	C	1.114148	-0.397839	-1.121819
C108	C	1.614148	0.102161	-0.621819
C109	C	1.131412	-0.381066	-1.024714
C110	C	1.631412	0.118934	-0.524714
C111	C	1.078891	-0.432136	-0.986410
C112	C	1.578891	0.067864	-0.486410
C113	C	1.009104	-0.499984	-1.045222
C114	C	1.509104	0.000016	-0.545222
C115	C	0.991842	-0.516763	-1.142338
C116	C	1.491842	-0.016763	-0.642338
C117	C	0.956585	-0.551061	-1.006929
C118	C	1.456585	-0.051061	-0.506929
C119	C	0.886798	-0.618908	-1.065740
C120	C	1.386798	-0.118908	-0.565740
C121	C	0.869539	-0.635685	-1.162846
C122	C	1.369539	-0.135685	-0.662846
C123	C	0.922059	-0.584614	-1.201150
C124	C	1.422059	-0.084614	-0.701150
C125	C	0.973847	-0.534281	-0.909813
C126	C	1.473847	-0.034281	-0.409813
C127	C	0.851541	-0.653206	-0.930331
C128	C	1.351541	-0.153206	-0.430331
C129	C	0.834277	-0.669979	-1.027437
C130	C	1.334277	-0.169979	-0.527437
C131	C	1.025796	-0.483805	-0.284030
C132	C	1.525796	0.016195	0.215970
C133	C	1.044365	-0.465689	-0.180632
C134	C	1.544365	0.034311	0.319368
H135	H	1.093018	-0.906344	-0.418557
H136	H	1.593018	-0.406344	0.081443
H137	H	0.681932	-0.436518	-0.615039
H138	H	1.181932	0.063482	-0.115039
H139	H	0.408280	-0.663785	-0.386910
H140	H	0.908280	-0.163785	0.113090
N141	N	0.794942	-0.888166	-0.708112
N142	N	1.294942	-0.388166	-0.208112
H143	H	0.816459	-0.817708	-0.687172
H144	H	1.316459	-0.317708	-0.187172
H145	H	0.792382	-0.916580	-0.777469
H146	H	1.292382	-0.416580	-0.277469
H147	H	0.808775	-0.694794	-0.899146
H148	H	1.308775	-0.194794	-0.399146
H149	H	0.777548	-1.074496	-0.725137
H150	H	1.277548	-0.574496	-0.225137
N151	N	1.170794	-0.342768	-1.163132
N152	N	1.670794	0.157232	-0.663132
H153	H	1.149269	-0.363697	-1.233575
H154	H	1.649269	0.136303	-0.733575
H155	H	1.173355	-0.273415	-1.134690
H156	H	1.673355	0.226585	-0.634690
H157	H	0.558066	-0.663767	-0.386873
H158	H	1.058066	-0.163767	0.113127
H159	H	0.777456	-0.725221	-1.075334
H160	H	1.277456	-0.225221	-0.575334
H161	H	1.030668	-0.479039	-0.861937
H162	H	1.530668	0.020961	-0.361937
H163	H	1.188310	-0.975798	-0.326024
H164	H	1.688310	-0.475798	0.173976
H165	H	0.812816	-1.209885	-0.690934
H166	H	1.312816	-0.709885	-0.190934
H167	H	0.558104	-0.387446	-0.664388
H168	H	1.058104	0.112554	-0.164388
H169	H	1.092952	-0.418476	-0.907342
H170	H	1.592952	0.081524	-0.407342
H171	H	1.030727	-0.860963	-0.479045
H172	H	1.530727	-0.360963	0.020955
N173	N	1.170891	-1.162120	-0.343040
N174	N	1.670891	-0.662120	0.156960
H175	H	1.149370	-1.232578	-0.363979
H176	H	1.649370	-0.732578	0.136021
H177	H	1.227780	-1.147607	-0.354618
H178	H	1.727780	-0.647607	0.145382
H179	H	0.284454	-0.614719	-0.436251
H180	H	0.784454	-0.114719	0.063749
H181	H	0.908131	-1.279342	-0.598401
H182	H	1.408131	-0.779342	-0.098401
N183	N	1.206678	-0.307897	-0.961285
N184	N	1.706678	0.192103	-0.461285
H185	H	1.237329	-0.278088	-1.000283
H186	H	1.737329	0.221912	-0.500283
H187	H	1.189343	-0.257892	-0.913550
H188	H	1.689343	0.242108	-0.413550
H189	H	0.681899	-0.614648	-0.436131
H190	H	1.181899	-0.114648	0.063869
N191	N	0.903421	-0.602682	-1.305884
N192	N	1.403421	-0.102682	-0.805884
H193	H	0.947275	-0.560022	-1.321219
H194	H	1.447275	-0.060022	-0.821219
H195	H	0.902391	-0.670536	-1.340256
H196	H	1.402391	-0.170536	-0.840256
N197	N	0.794277	-0.708871	-1.226283
N198	N	1.294277	-0.208871	-0.726283
H199	H	0.763624	-0.738678	-1.187286
H200	H	1.263624	-0.238678	-0.687286
H201	H	0.757289	-0.677970	-1.260029
H202	H	1.257289	-0.177970	-0.760029
H203	H	0.284490	-0.436605	-0.615154
H204	H	0.784490	0.063395	-0.115154
H205	H	0.408330	-0.387492	-0.664425
H206	H	0.908330	0.112508	-0.164425
