data_functionalizedCrystal
_audit_creation_method	'MofGen! by Chris Wilmer'
_symmetry_space_group_name_H-M	'P1'
_symmetry_Int_Tables_number	1
_symmetry_cell_setting	triclinic
loop_
_symmetry_equiv_pos_as_xyz
  x,y,z
_cell_length_a	6.817900
_cell_length_b	14.125469
_cell_length_c	17.110486
_cell_angle_alpha	96.594463
_cell_angle_beta	99.060439
_cell_angle_gamma	100.398878
loop_
_atom_site_label
_atom_site_type_symbol
_atom_site_fract_x
_atom_site_fract_y
_atom_site_fract_z
V1	V	-3.961356	-0.132828	-0.246415
O2	O	-3.966155	0.006678	-0.242039
O3	O	-3.897893	-0.263659	-0.244427
O4	O	-3.891468	-0.130655	-0.354023
O5	O	-3.972624	-0.127246	-0.131684
V6	V	-4.449720	-0.116157	-0.232729
O7	O	-4.211995	-0.169397	-0.276437
O8	O	-4.649278	-0.079587	-0.202708
O9	O	-4.289976	0.014674	-0.234717
O10	O	-4.562318	-0.255662	-0.237105
O11	O	-4.555848	-0.121738	-0.347460
O12	O	-4.296401	-0.118329	-0.125121
C13	C	-3.739925	-0.295557	-0.240462
C14	C	-3.769180	-0.402512	-0.239554
C15	C	-3.822808	-0.598339	-0.237903
C16	C	-4.007635	-0.650657	-0.241244
C17	C	-4.037476	-0.759622	-0.240325
C18	C	-3.792959	-0.489364	-0.238822
C19	C	-3.731728	-0.125896	-0.380262
C20	C	-3.755771	-0.124986	-0.468230
C21	C	-3.947800	-0.129360	-0.513578
C22	C	-3.970379	-0.128503	-0.596233
C23	C	-3.800928	-0.123280	-0.633540
C24	C	-3.608882	-0.118903	-0.588185
C25	C	-3.586304	-0.119752	-0.505531
C26	C	-3.860056	-0.120469	-0.882901
C27	C	-3.882651	-0.119623	-0.965562
C28	C	-4.244146	-0.129222	-0.973603
C29	C	-4.221552	-0.130077	-0.890948
C30	C	-4.029508	-0.125694	-0.845600
C31	C	-3.824004	-0.122408	-0.718027
C32	C	-4.006433	-0.126560	-0.761114
C33	C	-4.111286	0.046567	-0.238680
C34	C	-4.061268	0.153521	-0.239593
C35	C	-4.119484	-0.123091	-0.098879
C36	C	-4.074680	-0.123997	-0.010910
H37	H	-4.126745	-0.132060	-0.633151
H38	H	-4.143458	-0.613612	-0.244792
O39	O	-3.718144	-0.114717	-1.001857
C40	C	-3.560112	-0.191883	-1.101082
C41	C	-3.746504	-0.197570	-1.060032
H42	H	-3.582996	-0.258851	-1.148137
H43	H	-3.418929	-0.188955	-1.054512
H44	H	-3.540479	-0.123585	-1.131025
H45	H	-3.766329	-0.265862	-1.030091
H46	H	-3.887589	-0.200445	-1.106637
H47	H	-3.686995	-0.635381	-0.234353
O48	O	-3.659520	-0.117215	-0.754345
C49	C	-3.448945	-0.026937	-0.832422
C50	C	-3.635290	-0.032712	-0.791339
H51	H	-3.429270	0.041390	-0.862327
H52	H	-3.471665	-0.093885	-0.879485
H53	H	-3.307845	-0.024010	-0.785811
H54	H	-3.776476	-0.035608	-0.837891
H55	H	-3.612394	0.034235	-0.744261
H56	H	-4.085792	-0.133619	-0.483210
O57	O	-3.673644	-0.116454	-0.838843
C58	C	-3.464673	-0.195832	-0.751604
C59	C	-3.675914	-0.200425	-0.801422
H60	H	-3.466426	-0.263723	-0.721350
H61	H	-3.423552	-0.128438	-0.704100
H62	H	-3.347602	-0.191958	-0.792535
H63	H	-3.793124	-0.204336	-0.760556
H64	H	-3.716862	-0.267809	-0.848934
O65	O	-3.444387	-0.113701	-0.624497
C66	C	-3.233788	-0.023421	-0.702565
C67	C	-3.420155	-0.029200	-0.661495
H68	H	-3.214112	0.044903	-0.732474
H69	H	-3.256484	-0.090371	-0.749625
H70	H	-3.092700	-0.020487	-0.655947
H71	H	-3.561330	-0.032104	-0.708055
H72	H	-3.397283	0.037749	-0.614421
O73	O	-3.399909	-0.115646	-0.461413
C74	C	-3.190820	-0.194797	-0.374014
C75	C	-3.402027	-0.199562	-0.423927
H76	H	-3.192450	-0.262644	-0.343707
H77	H	-3.149980	-0.127367	-0.326548
H78	H	-3.073616	-0.190875	-0.414887
H79	H	-3.519371	-0.203521	-0.383117
H80	H	-3.442694	-0.266981	-0.471399
H81	H	-4.359541	-0.134329	-0.860578
H82	H	-4.400502	-0.132788	-1.010534
H83	H	-4.144397	-0.130809	-0.730734
