data_functionalizedCrystal
_audit_creation_method	'MofGen! by Chris Wilmer'
_symmetry_space_group_name_H-M	'P1'
_symmetry_Int_Tables_number	1
_symmetry_cell_setting	triclinic
loop_
_symmetry_equiv_pos_as_xyz
  x,y,z
_cell_length_a	27.440280
_cell_length_b	27.440280
_cell_length_c	19.851628
_cell_angle_alpha	59.998962
_cell_angle_beta	90.008448
_cell_angle_gamma	59.992170
loop_
_atom_site_label
_atom_site_type_symbol
_atom_site_fract_x
_atom_site_fract_y
_atom_site_fract_z
Zr1	Zr	-0.063985	0.533431	0.648937
O2	O	-0.141829	0.635127	0.541351
O3	O	-0.040110	0.431747	0.681922
O4	O	-0.141800	0.533436	0.681898
O5	O	0.040063	0.533430	0.541390
O6	O	-0.141790	0.533427	0.792760
O7	O	-0.040139	0.533438	0.541375
O8	O	0.040115	0.351524	0.792803
O9	O	-0.141842	0.715333	0.541347
O10	O	-0.029934	0.473560	0.778720
O11	O	0.029913	0.473561	0.695996
O12	O	-0.089814	0.593287	0.695968
O13	O	-0.029968	0.593288	0.613244
Zr14	Zr	0.063944	0.533403	0.825773
Zr15	Zr	-0.063969	0.533416	0.825749
Zr16	Zr	0.063928	0.533418	0.648961
Zr17	Zr	-0.064005	0.661351	0.648931
Zr18	Zr	0.063964	0.405484	0.825780
O19	O	0.040069	0.635087	0.792788
O20	O	-0.141807	0.635106	0.792754
O21	O	0.040047	0.635109	0.541385
O22	O	0.141788	0.431708	0.933360
O23	O	-0.040088	0.431726	0.933326
O24	O	0.141766	0.431729	0.681956
O25	O	-0.040104	0.533405	0.933320
O26	O	0.141759	0.533398	0.792812
O27	O	0.141750	0.533408	0.681951
O28	O	0.040098	0.533397	0.933335
O29	O	-0.141829	0.715321	0.681888
O30	O	0.141789	0.351513	0.792822
O31	O	0.141801	0.351502	0.933364
O32	O	0.040127	0.351512	0.933345
O33	O	-0.040168	0.715323	0.541366
O34	O	-0.040155	0.715311	0.681907
O35	O	0.089774	0.473548	0.778742
O36	O	0.029927	0.473547	0.861466
O37	O	-0.029953	0.593274	0.778714
O38	O	0.029893	0.593275	0.695990
C39	C	0.000005	0.373410	0.737364
C40	C	0.000014	0.319105	0.737366
C41	C	-0.044234	0.026616	0.676269
C42	C	-0.044240	-0.024401	0.676268
O43	O	-0.081841	-0.013201	0.624335
N44	N	-0.000044	-0.094115	0.737352
C45	C	0.044158	-0.112812	0.798446
O46	O	0.081750	-0.176793	0.850403
C47	C	0.044162	-0.061795	0.798449
C48	C	-0.000034	0.007919	0.737356
C49	C	-0.088427	0.096326	0.615181
C50	C	-0.088420	0.147340	0.615181
C51	C	-0.044220	0.128643	0.676268
C52	C	-0.000027	0.058932	0.737356
C53	C	0.088361	-0.080492	0.859545
C54	C	0.088360	-0.029468	0.859544
C55	C	0.044164	0.040245	0.798451
C56	C	0.044180	0.091249	0.798443
N57	N	-0.000017	0.160962	0.737359
C58	C	-0.044217	0.179659	0.676272
C59	C	0.044148	-0.219947	0.798435
C60	C	0.044147	-0.270963	0.798429
C61	C	-0.044252	-0.182549	0.676252
C62	C	-0.044249	-0.131532	0.676255
C63	C	-0.000049	-0.150233	0.737351
C64	C	-0.044198	0.286788	0.676276
C65	C	-0.044186	0.337802	0.676279
C66	C	0.044211	0.249383	0.798458
C67	C	0.044201	0.198373	0.798453
C68	C	-0.000009	0.217081	0.737358
O69	O	0.081760	0.080099	0.850352
O70	O	-0.081807	0.243641	0.624329
C71	C	-0.160020	0.533433	0.737325
C72	C	-0.214323	0.533439	0.737315
C73	C	-0.551015	0.533397	0.798452
C74	C	-0.602032	0.533392	0.798460
O75	O	-0.628403	0.533361	0.850420
N76	N	-0.627556	0.533398	0.737384
C77	C	-0.602055	0.533402	0.676302
O78	O	-0.628448	0.533407	0.624354
C79	C	-0.551035	0.533402	0.676299
C80	C	-0.525518	0.533403	0.737374
C81	C	-0.525497	0.533396	0.859523
C82	C	-0.474483	0.533403	0.859514
C83	C	-0.448987	0.533409	0.798435
C84	C	-0.474505	0.533409	0.737365
C85	C	-0.525533	0.533402	0.615221
C86	C	-0.474510	0.533402	0.615224
C87	C	-0.448993	0.533402	0.676298
C88	C	-0.397995	0.533422	0.676278
N89	N	-0.372472	0.533416	0.737354
C90	C	-0.397968	0.533409	0.798432
C91	C	-0.709198	0.533401	0.676315
C92	C	-0.760219	0.533406	0.676314
C93	C	-0.760193	0.533394	0.798472
C94	C	-0.709173	0.533394	0.798469
C95	C	-0.683675	0.533395	0.737390
C96	C	-0.290836	0.533423	0.798410
C97	C	-0.239819	0.533432	0.798394
C98	C	-0.239848	0.533441	0.676238
C99	C	-0.290862	0.533435	0.676251
C100	C	-0.316354	0.533424	0.737344
O101	O	-0.371591	0.533450	0.624347
O102	O	-0.371563	0.533396	0.850378
C103	C	0.159979	0.533401	0.737385
C104	C	0.214282	0.533396	0.737395
C105	C	-0.000040	0.533436	0.516191
C106	C	-0.000046	0.533442	0.441129
C107	C	-0.000046	0.693425	0.737347
C108	C	-0.000055	0.747730	0.737344
C109	C	-0.032676	0.598707	0.214664
C110	C	-0.056320	0.566080	0.192300
C111	C	-0.000029	0.533425	0.303723
C112	C	0.023604	0.566056	0.192346
C113	C	-0.000013	0.533412	0.170991
C114	C	-0.023707	0.500797	0.282347
C115	C	0.056249	0.500783	0.282391
C116	C	0.032619	0.468108	0.260080
C117	C	-0.000040	0.533434	0.380185
C118	C	-0.000003	0.533398	0.094534
C119	C	-0.000001	0.533398	0.958520
C120	C	0.000006	0.533392	1.033581
C121	C	0.000025	0.373391	0.958528
C122	C	0.000040	0.319079	1.033592
C123	C	0.160005	0.373394	0.737393
C124	C	0.214316	0.319083	0.737406
C125	C	0.160024	0.373375	0.958558
C126	C	0.214342	0.319058	1.033632
C127	C	-0.160065	0.693460	0.516152
C128	C	-0.214383	0.747777	0.441078
C129	C	-0.000065	0.693444	0.516182
C130	C	-0.000081	0.747755	0.441118
C131	C	-0.160046	0.693441	0.737317
C132	C	-0.214357	0.747752	0.737304
C133	C	-0.031205	0.293581	1.025650
C134	C	-0.031203	0.242557	1.096174
C135	C	0.000049	0.217028	1.174639
C136	C	0.031295	0.242532	1.182579
C137	C	0.031288	0.293559	1.112056
C138	C	0.271074	0.293571	0.780605
C139	C	0.322110	0.242548	0.780614
C140	C	0.316387	0.217034	0.737429
C141	C	0.259623	0.242550	0.694225
C142	C	0.208589	0.293576	0.694211
C143	C	0.208611	0.293550	1.112076
C144	C	0.259643	0.242520	1.182623
C145	C	0.316406	0.216996	1.174724
C146	C	0.322136	0.242510	1.096272
C147	C	0.271105	0.293542	1.025727
C148	C	-0.208652	0.773291	0.362634
C149	C	-0.259684	0.824337	0.292087
C150	C	-0.316447	0.849863	0.299986
C151	C	-0.322177	0.824346	0.378438
C152	C	-0.271145	0.773305	0.448984
C153	C	0.031159	0.773259	0.449060
C154	C	0.031143	0.824297	0.378536
C155	C	-0.000110	0.849828	0.300071
C156	C	-0.031354	0.824322	0.292131
C157	C	-0.031341	0.773288	0.362654
C158	C	-0.208615	0.773250	0.780498
C159	C	-0.259641	0.824273	0.780502
C160	C	-0.316409	0.849802	0.737307
C161	C	-0.322149	0.824298	0.694112
C162	C	-0.271124	0.773272	0.694113
H163	H	-0.124413	0.204101	0.565439
H164	H	0.056613	0.752476	0.512944
H165	H	-0.162397	0.752473	0.815672
Br166	Br	0.131582	0.328181	1.122819
Br167	Br	-0.325498	0.533448	0.593352
Br168	Br	-0.073739	0.738678	0.351861
Br169	Br	-0.000122	0.919089	0.204368
H170	H	-0.254955	0.845033	0.815675
Br171	Br	0.078596	0.376056	0.291018
Br172	Br	-0.674549	0.533394	0.881359
Br173	Br	0.073706	0.207877	1.289074
H174	H	-0.357996	0.891423	0.242537
H175	H	0.056735	0.314313	1.118534
Br176	Br	-0.073765	0.858976	0.185636
Br177	Br	-0.385653	0.919054	0.737312
H178	H	0.275745	0.314340	0.815772
Br179	Br	0.104197	0.224021	0.881355
H180	H	-0.103907	0.593674	0.153480
H181	H	-0.080175	0.394567	0.626524
Br182	Br	-0.399196	0.858957	0.635485
H183	H	-0.546301	0.533401	0.565490
Br184	Br	0.385659	0.147738	1.270474
H185	H	0.368324	0.221778	0.815799
H186	H	-0.162437	0.752510	0.356187
Br187	Br	0.385655	0.147783	0.737455
H188	H	0.254967	0.221752	1.246496
Br189	Br	0.251867	0.207916	0.635620
H190	H	-0.043742	0.473229	0.321040
Br191	Br	-0.205193	0.533437	0.881283
Br192	Br	0.104143	-0.245338	0.881354
H193	H	-0.060323	0.653907	0.196205
H194	H	-0.311584	0.533413	0.848158
H195	H	0.103826	0.473212	0.321209
H196	H	-0.080234	-0.074770	0.626504
Br197	Br	-0.205239	0.533452	0.593347
Br198	Br	0.056906	0.612057	0.127676
Br199	Br	-0.251894	0.858954	0.185627
Br200	Br	-0.104239	-0.157183	0.593348
Br201	Br	-0.073625	0.328217	0.919171
Br202	Br	-0.073610	0.207954	1.085379
Br203	Br	0.148347	-0.054855	0.942468
H204	H	-0.368400	0.845136	0.384860
Br205	Br	0.131563	0.328190	0.635582
H206	H	-0.275819	0.752532	0.512854
H207	H	-0.275807	0.752517	0.658936
H208	H	0.368360	0.221721	1.089853
H209	H	0.056587	0.845056	0.385017
H210	H	0.124349	-0.137250	0.909295
Br211	Br	-0.104198	0.312185	0.593361
Br212	Br	0.278894	0.328151	0.919270
H213	H	-0.124423	0.111562	0.565435
H214	H	0.080142	-0.327724	0.848170
H215	H	0.080195	0.141608	0.848192
H216	H	-0.453709	0.533400	0.909248
Br217	Br	-0.794806	0.533385	0.881365
Br218	Br	-0.560090	0.533386	0.942427
H219	H	-0.780997	0.533416	0.626574
H220	H	-0.453750	0.533400	0.565487
Br221	Br	0.000051	0.147776	1.270342
Br222	Br	-0.674601	0.533409	0.593409
