data_functionalizedCrystal
_audit_creation_method	'MofGen! by Chris Wilmer'
_symmetry_space_group_name_H-M	'P1'
_symmetry_Int_Tables_number	1
_symmetry_cell_setting	triclinic
loop_
_symmetry_equiv_pos_as_xyz
  x,y,z
_cell_length_a	10.489741
_cell_length_b	10.654550
_cell_length_c	9.130313
_cell_angle_alpha	89.990405
_cell_angle_beta	90.002593
_cell_angle_gamma	95.487962
loop_
_atom_site_label
_atom_site_type_symbol
_atom_site_fract_x
_atom_site_fract_y
_atom_site_fract_z
O1	O	0.179158	-1.667928	0.121919
O2	O	0.196228	-1.302458	0.121895
O3	O	0.002091	-1.493509	0.121899
O4	O	0.373295	-1.476877	0.121915
O5	O	0.002092	-1.493486	-0.121700
O6	O	0.196229	-1.302435	-0.121703
O7	O	0.179160	-1.667905	-0.121680
Cu8	Cu	0.187694	-1.485168	-0.143934
Cu9	Cu	0.187693	-1.485195	0.144150
O10	O	0.373296	-1.476854	-0.121683
C11	C	-0.045439	-1.492241	0.000100
C12	C	-0.187067	-1.488483	0.000103
C13	C	0.194975	-1.255648	0.000093
C14	C	0.191225	-1.116203	0.000084
C15	C	0.180412	-1.714715	0.000126
C16	C	0.184162	-1.854160	0.000145
C17	C	-0.255148	-1.366923	0.000106
C18	C	-0.347298	-1.424335	-0.119997
C19	C	-0.347274	-1.424387	0.120172
C20	C	-0.277351	-1.545946	-0.120099
C21	C	-0.277318	-1.545981	0.120178
C22	C	-0.369440	-1.603481	0.000045
C23	C	0.420826	-1.478122	0.000118
C24	C	0.562454	-1.481880	0.000126
N25	N	0.187695	-1.485158	-0.346557
C26	C	0.305530	-1.036771	0.000110
C27	C	0.301999	-0.905748	0.000135
C28	C	0.069849	-0.933603	0.000114
C29	C	0.073381	-1.064623	0.000078
C30	C	0.423374	-1.088351	0.000116
C31	C	0.537688	-1.008917	0.000144
C32	C	0.534157	-0.877895	0.000169
C33	C	0.416312	-0.826306	0.000166
C34	C	0.265768	-1.562067	-0.576529
C35	C	0.265778	-1.562035	-0.423192
C36	C	0.109606	-1.408298	-0.423266
C37	C	0.109604	-1.408323	-0.576600
C38	C	0.343846	-1.638958	-0.653157
C39	C	0.421937	-1.715817	-0.576458
C40	C	0.421947	-1.715785	-0.423122
C41	C	0.343866	-1.638895	-0.346483
N42	N	0.187682	-1.485215	0.346772
H43	H	-0.205449	-1.266977	-0.000022
H44	H	-0.246298	-1.597381	0.221728
F45	F	-0.387800	-1.357097	-0.252725
F46	F	0.343895	-1.638852	-0.183287
F47	F	0.026498	-1.326528	-0.658233
F48	F	-0.387742	-1.357143	0.252882
H49	H	0.633633	-1.050930	0.000134
F50	F	-0.055561	-0.878693	0.000116
H51	H	0.343844	-1.638996	-0.778011
F52	F	-0.434107	-1.734234	-0.000029
H53	H	-0.246543	-1.597326	-0.221751
F54	F	0.505043	-1.797632	-0.658024
F55	F	0.505075	-1.797565	-0.341497
F56	F	0.427141	-1.227794	0.000096
F57	F	0.655817	-0.793359	0.000184
F58	F	0.412560	-0.686858	0.000173
H59	H	-0.019696	-1.129299	0.000061
H60	H	0.046036	-1.345698	-0.360855
