data_functionalizedCrystal
_audit_creation_method	'MofGen! by Chris Wilmer'
_symmetry_space_group_name_H-M	'P1'
_symmetry_Int_Tables_number	1
_symmetry_cell_setting	triclinic
loop_
_symmetry_equiv_pos_as_xyz
  x,y,z
_cell_length_a	14.519709
_cell_length_b	16.109301
_cell_length_c	12.996460
_cell_angle_alpha	89.998286
_cell_angle_beta	90.000602
_cell_angle_gamma	96.429187
loop_
_atom_site_label
_atom_site_type_symbol
_atom_site_fract_x
_atom_site_fract_y
_atom_site_fract_z
O1	O	1.223638	-0.108980	0.085436
O2	O	1.723638	0.391020	0.585436
O3	O	0.955134	-0.121814	0.085468
O4	O	1.455134	0.378186	0.585468
O5	O	1.096762	0.005621	0.085441
O6	O	1.596762	0.505621	0.585441
O7	O	1.082010	-0.236415	0.085464
O8	O	1.582010	0.263585	0.585464
O9	O	1.096744	0.005614	-0.085693
O10	O	1.596744	0.505614	0.414307
O11	O	0.955116	-0.121822	-0.085666
O12	O	1.455116	0.378178	0.414334
O13	O	1.223620	-0.108987	-0.085698
O14	O	1.723620	0.391013	0.414302
Cu15	Cu	1.089366	-0.115405	-0.101308
Cu16	Cu	1.589366	0.384595	0.398692
Cu17	Cu	1.089388	-0.115396	0.101078
Cu18	Cu	1.589388	0.384604	0.601078
O19	O	1.081992	-0.236423	-0.085670
O20	O	1.581992	0.263577	0.414330
C21	C	0.920766	-0.121220	-0.000095
C22	C	1.420766	0.378780	0.499905
C23	C	0.818389	-0.119427	-0.000083
C24	C	1.318389	0.380573	0.499917
C25	C	0.443507	-0.112829	-0.000130
C26	C	0.943507	0.387171	0.499870
C27	C	0.547811	-0.114661	-0.000117
C28	C	1.047811	0.385339	0.499883
C29	C	0.630945	-0.116128	-0.000106
C30	C	1.130945	0.383872	0.499894
C31	C	0.735256	-0.117961	-0.000094
C32	C	1.235256	0.382039	0.499906
C33	C	1.096156	0.036593	-0.000127
C34	C	1.596156	0.536593	0.499873
C35	C	1.094364	0.128892	-0.000128
C36	C	1.594364	0.628892	0.499872
C37	C	1.257988	-0.109582	-0.000132
C38	C	1.757988	0.390418	0.499868
C39	C	1.360365	-0.111374	-0.000137
C40	C	1.860365	0.388626	0.499863
C41	C	1.082599	-0.267395	-0.000101
C42	C	1.582599	0.232605	0.499899
C43	C	1.084390	-0.359693	-0.000093
C44	C	1.584390	0.140307	0.499907
N45	N	1.089358	-0.115411	-0.243655
N46	N	1.589358	0.384589	0.256345
C47	C	1.174238	0.351026	-0.000121
C48	C	1.674238	0.851026	0.499879
C49	C	1.172547	0.437749	-0.000112
C50	C	1.672547	0.937749	0.499888
C51	C	1.004510	0.418166	-0.000096
C52	C	1.504510	0.918166	0.499904
C53	C	1.006202	0.331444	-0.000098
C54	C	1.506202	0.831444	0.499902
C55	C	1.091068	0.297877	-0.000115
C56	C	1.591068	0.797877	0.499885
C57	C	1.087686	0.471322	-0.000105
C58	C	1.587686	0.971322	0.499895
C59	C	1.085852	0.565351	-0.000096
C60	C	1.585852	1.065351	0.499904
C61	C	1.092902	0.203842	-0.000123
C62	C	1.592902	0.703842	0.499877
C63	C	1.089362	-0.115413	-0.336761
C64	C	1.589362	0.384587	0.163239
C65	C	1.089371	-0.115407	-0.453566
C66	C	1.589371	0.384593	0.046434
C67	C	1.089382	-0.115398	-0.546664
C68	C	1.589382	0.384602	-0.046664
C69	C	1.089392	-0.115393	-0.663477
C70	C	1.589392	0.384607	-0.163477
N71	N	1.089404	-0.115384	0.243425
N72	N	1.589404	0.384616	0.743425
H73	H	1.243341	0.323699	-0.000133
H74	H	1.743341	0.823699	0.499867
H75	H	1.240272	0.481020	-0.000115
H76	H	1.740272	0.981020	0.499885
H77	H	0.938471	0.288168	-0.000090
H78	H	1.438471	0.788168	0.499910
O79	O	0.922156	0.450913	-0.000135
O80	O	1.422156	0.950913	0.499865
C81	C	0.845076	0.575833	-0.000073
C82	C	1.345076	1.075833	0.499927
C83	C	0.938409	0.538861	-0.000049
C84	C	1.438409	1.038861	0.499951
H85	H	0.858184	0.646943	0.000019
H86	H	1.358184	1.146943	0.500019
H87	H	0.803960	0.554014	-0.071706
H88	H	1.303960	1.054014	0.428294
H89	H	0.803982	0.553903	0.071533
H90	H	1.303982	1.053903	0.571533
H91	H	0.979578	0.560773	-0.071605
H92	H	1.479578	1.060773	0.428395
H93	H	0.979455	0.560676	0.071632
H94	H	1.479455	1.060676	0.571632
