data_functionalizedCrystal
_audit_creation_method	'MofGen! by Chris Wilmer'
_symmetry_space_group_name_H-M	'P1'
_symmetry_Int_Tables_number	1
_symmetry_cell_setting	triclinic
loop_
_symmetry_equiv_pos_as_xyz
  x,y,z
_cell_length_a	19.077105
_cell_length_b	12.827892
_cell_length_c	19.076919
_cell_angle_alpha	92.275535
_cell_angle_beta	90.076224
_cell_angle_gamma	87.711903
loop_
_atom_site_label
_atom_site_type_symbol
_atom_site_fract_x
_atom_site_fract_y
_atom_site_fract_z
Zn1	Zn	1.058323	-0.505562	-0.440440
Zn2	Zn	1.062981	-0.673587	-0.322941
Zn3	Zn	0.945540	-0.491563	-0.318233
Zn4	Zn	0.940802	-0.672957	-0.435693
O5	O	1.001912	-0.585917	-0.379327
O6	O	1.157274	-0.533973	-0.428810
O7	O	1.051334	-0.643846	-0.223985
O8	O	0.960534	-0.347187	-0.334460
O9	O	1.160695	-0.657421	-0.342484
O10	O	1.043396	-0.357472	-0.424245
O11	O	0.965050	-0.510114	-0.220526
O12	O	0.846579	-0.509503	-0.329857
O13	O	0.952460	-0.656347	-0.534655
O14	O	0.843098	-0.642772	-0.416155
O15	O	1.038802	-0.533362	-0.538142
O16	O	1.046740	-0.819737	-0.337881
O17	O	0.956976	-0.819274	-0.420720
C18	C	0.819342	-0.574551	-0.371981
C19	C	0.741237	-0.569714	-0.368855
C20	C	1.001868	-0.857424	-0.379313
C21	C	1.001913	-0.973581	-0.379333
C22	C	0.702753	-0.636925	-0.412246
C23	C	0.629365	-0.632367	-0.409312
C24	C	0.594463	-0.560602	-0.362983
C25	C	0.632953	-0.493385	-0.319590
C26	C	0.706339	-0.497938	-0.322528
C27	C	0.375174	-0.539528	-0.349389
C28	C	0.301782	-0.534981	-0.346453
C29	C	0.298199	-0.673963	-0.436177
C30	C	0.371587	-0.678514	-0.439108
C31	C	0.410071	-0.611293	-0.395717
N32	N	0.519449	-0.555944	-0.359982
N33	N	0.485083	-0.615947	-0.398723
C34	C	1.046380	-1.025566	-0.338391
C35	C	1.046427	-1.145620	-0.338411
C36	C	1.185194	-0.597329	-0.386702
C37	C	1.263298	-0.602192	-0.389845
C38	C	0.994583	-0.596346	-0.562607
C39	C	0.991460	-0.600790	-0.640711
C40	C	1.001974	-0.313353	-0.379357
C41	C	1.002000	-0.197202	-0.379370
C42	C	1.034945	-0.538849	-0.679221
C43	C	1.032002	-0.543020	-0.752607
C44	C	0.985578	-0.609138	-0.787481
C45	C	0.942089	-0.671081	-0.748966
C46	C	0.945028	-0.666904	-0.675581
C47	C	0.971962	-0.628492	-1.006763
C48	C	0.969027	-0.632667	-1.080153
C49	C	1.058939	-0.504604	-1.083789
C50	C	1.061878	-0.500438	-1.010402
C51	C	1.018386	-0.562376	-0.971894
N52	N	0.982570	-0.613406	-0.862494
N53	N	1.021391	-0.558103	-0.896882
C54	C	1.009252	-0.575456	-0.196761
C55	C	1.012511	-0.570727	-0.118663
H56	H	0.731165	-0.695367	-0.449970
O57	O	1.079946	-0.474556	-0.645266
C58	C	1.041652	-0.402138	-0.601228
H59	H	0.988834	-0.435057	-0.588080
H60	H	1.032811	-0.325830	-0.629211
C61	C	1.147983	-0.341215	-0.549231
C62	C	1.083114	-0.381650	-0.533078
H63	H	1.173559	-0.328572	-0.507194
H64	H	1.173783	-0.390001	-0.578902
H65	H	1.140607	-0.277629	-0.572552
H66	H	1.090491	-0.445241	-0.509766
H67	H	1.057316	-0.332874	-0.503401
H68	H	1.067413	-0.492584	-0.783958
H69	H	1.099683	-0.446600	-0.982013
O70	O	0.956440	-1.026385	-0.421131
C71	C	0.887005	-0.994681	-0.402900
H72	H	0.886568	-0.913795	-0.375861
H73	H	0.864876	-1.052617	-0.365778
C74	C	0.842180	-1.090397	-0.502865
C75	C	0.841642	-0.991048	-0.469661
H76	H	0.814196	-1.088160	-0.544045
H77	H	0.888959	-1.111760	-0.515147
H78	H	0.823741	-1.138666	-0.471923
H79	H	0.860089	-0.942784	-0.500599
H80	H	0.794865	-0.969676	-0.457385
H81	H	1.084418	-0.981195	-0.303327
O82	O	1.101109	-0.444469	-1.121302
C83	C	1.088574	-0.462348	-1.193553
H84	H	1.033938	-0.493770	-1.201387
H85	H	1.129410	-0.521774	-1.216052
C86	C	1.160632	-0.320566	-1.221877
C87	C	1.093523	-0.359150	-1.231499
H88	H	1.163688	-0.256911	-1.245285
H89	H	1.169079	-0.308522	-1.173201
H90	H	1.194654	-0.370097	-1.240626
H91	H	1.059504	-0.309626	-1.212742
H92	H	1.085071	-0.371183	-1.280173
O93	O	0.923864	-0.696919	-1.113921
C94	C	0.886120	-0.750712	-1.064197
H95	H	0.885787	-0.704781	-1.011793
H96	H	0.912143	-0.831237	-1.057418
C97	C	0.810592	-0.819155	-1.154193
C98	C	0.810179	-0.762737	-1.089831
H99	H	0.763750	-0.826578	-1.170006
H100	H	0.836023	-0.782918	-1.187694
H101	H	0.832282	-0.886253	-1.148535
H102	H	0.788498	-0.695637	-1.095492
H103	H	0.784743	-0.798964	-1.056332
O104	O	0.929815	-0.688718	-0.969296
C105	C	0.971495	-0.756315	-0.928461
H106	H	1.025195	-0.722155	-0.919603
H107	H	0.978069	-0.835842	-0.957051
C108	C	0.869648	-0.810829	-0.868083
C109	C	0.935602	-0.768868	-0.857198
H110	H	0.847507	-0.818577	-0.824125
H111	H	0.841567	-0.765291	-0.895595
H112	H	0.875136	-0.877097	-0.891909
H113	H	0.930113	-0.702596	-0.833379
H114	H	0.963681	-0.814396	-0.829679
O115	O	0.902770	-0.727190	-0.638279
C116	C	0.861156	-0.786432	-0.684794
H117	H	0.887838	-0.794808	-0.738267
H118	H	0.807480	-0.745298	-0.690446
C119	C	0.819394	-0.885108	-0.590059
C120	C	0.852168	-0.895403	-0.655734
H121	H	0.813846	-0.952325	-0.572133
H122	H	0.847428	-0.845193	-0.558720
H123	H	0.774667	-0.850826	-0.594778
H124	H	0.896898	-0.929673	-0.651013
H125	H	0.824142	-0.935326	-0.687072
O126	O	0.412444	-0.474187	-0.307171
C127	C	0.365899	-0.409855	-0.265665
H128	H	0.313683	-0.449275	-0.261085
H129	H	0.357071	-0.331539	-0.291181
C130	C	0.461649	-0.343710	-0.197668
C131	C	0.397518	-0.392130	-0.192038
H132	H	0.481153	-0.332772	-0.152253
H133	H	0.493008	-0.387048	-0.225634
H134	H	0.454283	-0.278452	-0.218935
H135	H	0.404886	-0.457392	-0.170780
H136	H	0.366161	-0.348802	-0.164067
H137	H	0.273368	-0.476530	-0.308731
H138	H	0.904287	-0.724912	-0.777367
H139	H	0.604530	-0.434948	-0.281871
H140	H	0.598034	-0.687098	-0.444645
H141	H	1.084495	-1.190325	-0.303357
O142	O	0.405377	-0.748257	-0.484175
C143	C	0.355673	-0.806622	-0.521832
H144	H	0.303268	-0.760721	-0.522224
H145	H	0.348883	-0.883972	-0.495693
C146	C	0.445706	-0.884273	-0.597264
C147	C	0.381342	-0.827892	-0.597751
H148	H	0.461540	-0.897398	-0.644094
H149	H	0.479194	-0.844954	-0.571893
H150	H	0.440039	-0.948725	-0.575478
H151	H	0.387012	-0.763436	-0.619529
H152	H	0.347856	-0.867201	-0.623129
H153	H	0.737673	-0.443203	-0.287198
O154	O	0.260709	-0.739145	-0.478301
C155	C	0.188452	-0.719759	-0.465765
H156	H	0.179350	-0.637135	-0.442441
H157	H	0.169109	-0.778235	-0.427442
C158	C	0.159127	-0.832685	-0.563992
C159	C	0.147948	-0.731202	-0.535350
H160	H	0.134141	-0.839748	-0.606914
H161	H	0.207808	-0.845749	-0.572437
H162	H	0.143008	-0.881403	-0.532049
H163	H	0.164075	-0.682487	-0.567289
H164	H	0.099269	-0.718130	-0.526912
H165	H	0.963926	-1.152504	-0.414421
