data_functionalizedCrystal
_audit_creation_method	'MofGen! by Chris Wilmer'
_symmetry_space_group_name_H-M	'P1'
_symmetry_Int_Tables_number	1
_symmetry_cell_setting	triclinic
loop_
_symmetry_equiv_pos_as_xyz
  x,y,z
_cell_length_a	21.395364
_cell_length_b	19.120786
_cell_length_c	19.120904
_cell_angle_alpha	90.133503
_cell_angle_beta	87.577865
_cell_angle_gamma	92.480057
loop_
_atom_site_label
_atom_site_type_symbol
_atom_site_fract_x
_atom_site_fract_y
_atom_site_fract_z
Zn1	Zn	0.931946	-0.295776	0.384484
Zn2	Zn	1.181946	-0.045776	0.634484
Zn3	Zn	1.431946	0.204224	0.884484
Zn4	Zn	1.681946	0.454224	1.134484
Zn5	Zn	0.932254	-0.408020	0.262244
Zn6	Zn	1.182254	-0.158020	0.512244
Zn7	Zn	1.432254	0.091980	0.762244
Zn8	Zn	1.682254	0.341980	1.012244
Zn9	Zn	0.831825	-0.290824	0.267262
Zn10	Zn	1.081825	-0.040824	0.517262
Zn11	Zn	1.331825	0.209176	0.767262
Zn12	Zn	1.581825	0.459176	1.017262
Zn13	Zn	0.822871	-0.413014	0.379439
Zn14	Zn	1.072871	-0.163014	0.629439
Zn15	Zn	1.322871	0.086986	0.879439
Zn16	Zn	1.572871	0.336986	1.129439
O17	O	0.879724	-0.351908	0.323357
O18	O	1.129724	-0.101908	0.573357
O19	O	1.379724	0.148092	0.823357
O20	O	1.629724	0.398092	1.073357
O21	O	1.019665	-0.310648	0.368281
O22	O	1.269665	-0.060648	0.618281
O23	O	1.519665	0.189352	0.868281
O24	O	1.769665	0.439352	1.118281
O25	O	0.922807	-0.388311	0.164805
O26	O	1.172807	-0.138311	0.414805
O27	O	1.422807	0.111689	0.664805
O28	O	1.672807	0.361689	0.914805
O29	O	0.848725	-0.193369	0.287023
O30	O	1.098725	0.056631	0.537023
O31	O	1.348725	0.306631	0.787023
O32	O	1.598725	0.556631	1.037023
O33	O	1.019891	-0.393113	0.278471
O34	O	1.269891	-0.143113	0.528471
O35	O	1.519891	0.106887	0.778471
O36	O	1.769891	0.356887	1.028471
O37	O	0.922284	-0.197007	0.373146
O38	O	1.172284	0.052993	0.623146
O39	O	1.422284	0.302993	0.873146
O40	O	1.672284	0.552993	1.123146
O41	O	0.849023	-0.302208	0.168491
O42	O	1.099023	-0.052208	0.418491
O43	O	1.349023	0.197792	0.668491
O44	O	1.599023	0.447792	0.918491
O45	O	0.742959	-0.307050	0.282131
O46	O	0.992959	-0.057050	0.532131
O47	O	1.242959	0.192950	0.782131
O48	O	1.492959	0.442950	1.032131
O49	O	0.833464	-0.401625	0.478213
O50	O	1.083464	-0.151625	0.728213
O51	O	1.333464	0.098375	0.978213
O52	O	1.583464	0.348375	1.228213
O53	O	0.736381	-0.396823	0.364547
O54	O	0.986381	-0.146823	0.614547
O55	O	1.236381	0.103177	0.864547
O56	O	1.486381	0.353177	1.114547
O57	O	0.913601	-0.315490	0.481920
O58	O	1.163601	-0.065490	0.731920
O59	O	1.413601	0.184510	0.981920
O60	O	1.663601	0.434510	1.231920
O61	O	0.914125	-0.506794	0.273578
O62	O	1.164125	-0.256794	0.523578
O63	O	1.414125	-0.006794	0.773578
O64	O	1.664125	0.243206	1.023578
O65	O	0.833762	-0.510463	0.359681
O66	O	1.083762	-0.260463	0.609681
O67	O	1.333762	-0.010463	0.859681
O68	O	1.583762	0.239537	1.109681
C69	C	0.716936	-0.351942	0.323336
C70	C	0.966936	-0.101942	0.573336
C71	C	1.216936	0.148058	0.823336
C72	C	1.466936	0.398058	1.073336
C73	C	0.647293	-0.351974	0.323343
C74	C	0.897293	-0.101974	0.573343
C75	C	1.147293	0.148026	0.823343
C76	C	1.397293	0.398026	1.073343
C77	C	0.614479	-0.309110	0.370173
C78	C	0.864479	-0.059110	0.620173
C79	C	1.114479	0.190890	0.870173
C80	C	1.364479	0.440890	1.120173
C81	C	0.549045	-0.309092	0.370176
C82	C	0.799045	-0.059092	0.620176
C83	C	1.049045	0.190908	0.870176
C84	C	1.299045	0.440908	1.120176
C85	C	0.516425	-0.351949	0.323357
C86	C	0.766425	-0.101949	0.573357
C87	C	1.016425	0.148051	0.823357
C88	C	1.266425	0.398051	1.073357
C89	C	0.549247	-0.394815	0.276518
C90	C	0.799247	-0.144815	0.526518
C91	C	1.049247	0.105185	0.776518
C92	C	1.299247	0.355185	1.026518
C93	C	0.614681	-0.394827	0.276511
C94	C	0.864681	-0.144827	0.526511
C95	C	1.114681	0.105173	0.776511
C96	C	1.364681	0.355173	1.026511
C97	C	0.410630	-0.414850	0.315025
C98	C	0.660630	-0.164850	0.565025
C99	C	0.910630	0.085150	0.815025
C100	C	1.160630	0.335150	1.065025
C101	C	0.345197	-0.414839	0.315037
C102	C	0.595197	-0.164839	0.565037
C103	C	0.845197	0.085161	0.815037
C104	C	1.095197	0.335161	1.065037
C105	C	0.314605	-0.351911	0.323374
C106	C	0.564605	-0.101911	0.573374
C107	C	0.814605	0.148089	0.823374
C108	C	1.064605	0.398089	1.073374
C109	C	0.349454	-0.288993	0.331714
C110	C	0.599454	-0.038993	0.581714
C111	C	0.849454	0.211007	0.831714
C112	C	1.099454	0.461007	1.081714
C113	C	0.414888	-0.289005	0.331707
C114	C	0.664888	-0.039005	0.581707
C115	C	0.914888	0.210995	0.831707
C116	C	1.164888	0.460995	1.081707
C117	C	0.445473	-0.351941	0.323359
C118	C	0.695473	-0.101941	0.573359
C119	C	0.945473	0.148059	0.823359
C120	C	1.195473	0.398059	1.073359
C121	C	0.210840	-0.309024	0.370210
C122	C	0.460840	-0.059024	0.620210
C123	C	0.710840	0.190976	0.870210
C124	C	0.960840	0.440976	1.120210
C125	C	0.145404	-0.309004	0.370209
C126	C	0.395404	-0.059004	0.620209
C127	C	0.645404	0.190996	0.870209
C128	C	0.895404	0.440996	1.120209
C129	C	0.145607	-0.394734	0.276554
C130	C	0.395607	-0.144734	0.526554
C131	C	0.645607	0.105266	0.776554
C132	C	0.895607	0.355266	1.026554
C133	C	0.211042	-0.394748	0.276552
C134	C	0.461042	-0.144748	0.526552
C135	C	0.711042	0.105252	0.776552
C136	C	0.961042	0.355252	1.026552
C137	C	0.243654	-0.351894	0.323384
C138	C	0.493654	-0.101894	0.573384
C139	C	0.743654	0.148106	0.823384
C140	C	0.993654	0.398106	1.073384
C141	C	0.873021	-0.534069	0.315553
C142	C	1.123021	-0.284069	0.565553
C143	C	1.373021	-0.034069	0.815553
C144	C	1.623021	0.215931	1.065553
C145	C	0.870210	-0.611998	0.312238
C146	C	1.120210	-0.361998	0.562238
C147	C	1.370210	-0.111998	0.812238
C148	C	1.620210	0.138002	1.062238
C149	C	0.907157	-0.650445	0.355556
C150	C	1.157157	-0.400445	0.605556
C151	C	1.407157	-0.150445	0.855556
C152	C	1.657157	0.099555	1.105556
C153	C	0.904513	-0.723669	0.352442
C154	C	1.154513	-0.473669	0.602442
C155	C	1.404513	-0.223669	0.852442
C156	C	1.654513	0.026331	1.102442
C157	C	0.864926	-0.758444	0.306006
C158	C	1.114926	-0.508444	0.556006
C159	C	1.364926	-0.258444	0.806006
C160	C	1.614926	-0.008444	1.056006
C161	C	0.827975	-0.719992	0.262686
C162	C	1.077975	-0.469992	0.512686
C163	C	1.327975	-0.219992	0.762686
C164	C	1.577975	0.030008	1.012686
C165	C	0.830616	-0.646770	0.265803
C166	C	1.080616	-0.396770	0.515803
C167	C	1.330616	-0.146770	0.765803
C168	C	1.580616	0.103230	1.015803
C169	C	0.855034	-0.979435	0.294350
C170	C	1.105034	-0.729435	0.544350
C171	C	1.355034	-0.479435	0.794350
C172	C	1.605034	-0.229435	1.044350
C173	C	0.852398	-1.052662	0.291234
C174	C	1.102398	-0.802662	0.541234
C175	C	1.352398	-0.552662	0.791234
C176	C	1.602398	-0.302662	1.041234
C177	C	0.928934	-1.056334	0.380992
C178	C	1.178934	-0.806334	0.630992
C179	C	1.428934	-0.556334	0.880992
C180	C	1.678934	-0.306334	1.130992
C181	C	0.931575	-0.983111	0.384103
C182	C	1.181575	-0.733111	0.634103
C183	C	1.431575	-0.483111	0.884103
C184	C	1.681575	-0.233111	1.134103
C185	C	0.894622	-0.944665	0.340785
C186	C	1.144622	-0.694665	0.590785
C187	C	1.394622	-0.444665	0.840785
C188	C	1.644622	-0.194665	1.090785
C189	C	0.862224	-0.833290	0.302820
C190	C	1.112224	-0.583290	0.552820
C191	C	1.362224	-0.333290	0.802820
C192	C	1.612224	-0.083290	1.052820
C193	C	0.897321	-0.869821	0.343975
C194	C	1.147321	-0.619821	0.593975
C195	C	1.397321	-0.369821	0.843975
C196	C	1.647321	-0.119821	1.093975
C197	C	1.043148	-0.351876	0.323379
C198	C	1.293148	-0.101876	0.573379
C199	C	1.543148	0.148124	0.823379
C200	C	1.793148	0.398124	1.073379
C201	C	1.112789	-0.351862	0.323388
C202	C	1.362789	-0.101862	0.573388
C203	C	1.612789	0.148138	0.823388
C204	C	1.862789	0.398138	1.073388
C205	C	0.872500	-0.359667	0.506215
C206	C	1.122500	-0.109667	0.756215
C207	C	1.372500	0.140333	1.006215
C208	C	1.622500	0.390333	1.256215
C209	C	0.869421	-0.362973	0.584138
C210	C	1.119421	-0.112973	0.834138
C211	C	1.369421	0.137027	1.084138
C212	C	1.619421	0.387027	1.334138
C213	C	0.886469	-0.169038	0.331207
C214	C	1.136469	0.080962	0.581207
C215	C	1.386469	0.330962	0.831207
C216	C	1.636469	0.580962	1.081207
C217	C	0.889344	-0.091109	0.334553
C218	C	1.139344	0.158891	0.584553
C219	C	1.389344	0.408891	0.834553
C220	C	1.639344	0.658891	1.084553
C221	C	0.886958	-0.344129	0.141213
C222	C	1.136958	-0.094129	0.391213
C223	C	1.386958	0.155871	0.641213
C224	C	1.636958	0.405871	0.891213
C225	C	0.890165	-0.340626	0.063299
C226	C	1.140165	-0.090626	0.313299
C227	C	1.390165	0.159374	0.563299
C228	C	1.640165	0.409374	0.813299
C229	C	0.909696	-0.319683	0.622678
C230	C	1.159696	-0.069683	0.872678
C231	C	1.409696	0.180317	1.122678
C232	C	1.659696	0.430317	1.372678
C233	C	0.906795	-0.322787	0.695895
C234	C	1.156795	-0.072787	0.945895
C235	C	1.406795	0.177213	1.195895
C236	C	1.656795	0.427213	1.445895
C237	C	0.863623	-0.369185	0.730571
C238	C	1.113623	-0.119185	0.980571
C239	C	1.363623	0.130815	1.230571
C240	C	1.613623	0.380815	1.480571
C241	C	0.823344	-0.412477	0.692026
C242	C	1.073344	-0.162477	0.942026
C243	C	1.323344	0.087523	1.192026
C244	C	1.573344	0.337523	1.442026
C245	C	0.826242	-0.409369	0.618810
C246	C	1.076242	-0.159369	0.868810
C247	C	1.326242	0.090631	1.118810
C248	C	1.576242	0.340631	1.368810
C249	C	0.852784	-0.380810	0.951538
C250	C	1.102784	-0.130810	1.201538
C251	C	1.352784	0.119190	1.451538
C252	C	1.602784	0.369190	1.701538
C253	C	0.849891	-0.383916	1.024759
C254	C	1.099891	-0.133916	1.274759
C255	C	1.349891	0.116084	1.524759
C256	C	1.599891	0.366084	1.774759
C257	C	0.933342	-0.294224	1.028623
C258	C	1.183342	-0.044224	1.278623
C259	C	1.433342	0.205776	1.528623
C260	C	1.683342	0.455776	1.778623
C261	C	0.936238	-0.291123	0.955405
C262	C	1.186238	-0.041123	1.205405
C263	C	1.436238	0.208877	1.455405
C264	C	1.686238	0.458877	1.705405
C265	C	0.895957	-0.334413	0.916867
C266	C	1.145957	-0.084413	1.166867
C267	C	1.395957	0.165587	1.416867
C268	C	1.645957	0.415587	1.666867
C269	C	0.860659	-0.372361	0.805410
C270	C	1.110659	-0.122361	1.055410
C271	C	1.360659	0.127639	1.305410
C272	C	1.610659	0.377639	1.555410
C273	C	0.898918	-0.331233	0.842029
C274	C	1.148918	-0.081233	1.092029
C275	C	1.398918	0.168767	1.342029
C276	C	1.648918	0.418767	1.592029
H277	H	0.443259	-0.237775	0.338495
H278	H	0.693259	0.012225	0.588495
H279	H	0.943259	0.262225	0.838495
H280	H	1.193259	0.512225	1.088495
Br281	Br	0.307945	-0.203585	0.343031
Br282	Br	0.557945	0.046415	0.593031
Br283	Br	0.807945	0.296415	0.843031
Br284	Br	1.057945	0.546415	1.093031
Br285	Br	0.968294	-0.256716	0.575624
Br286	Br	1.218294	-0.006716	0.825624
Br287	Br	1.468294	0.243284	1.075624
Br288	Br	1.718294	0.493284	1.325624
H289	H	0.237394	-0.274126	0.408340
H290	H	0.487394	-0.024126	0.658340
H291	H	0.737394	0.225874	0.908340
H292	H	0.987394	0.475874	1.158340
Br293	Br	0.804876	-0.927268	0.235570
Br294	Br	1.054876	-0.677268	0.485570
Br295	Br	1.304876	-0.427268	0.735570
Br296	Br	1.554876	-0.177268	0.985570
Br297	Br	0.297909	-0.500228	0.303734
Br298	Br	0.547909	-0.250228	0.553734
Br299	Br	0.797909	-0.000228	0.803734
Br300	Br	1.047909	0.249772	1.053734
Br301	Br	0.504502	-0.250914	0.433734
Br302	Br	0.754502	-0.000914	0.683734
Br303	Br	1.004502	0.249086	0.933734
Br304	Br	1.254502	0.499086	1.183734
H305	H	0.934603	-0.754969	0.387711
H306	H	1.184603	-0.504969	0.637711
H307	H	1.434603	-0.254969	0.887711
H308	H	1.684603	-0.004969	1.137711
H309	H	0.795740	-0.748311	0.224879
H310	H	1.045740	-0.498311	0.474879
H311	H	1.295740	-0.248311	0.724879
H312	H	1.545740	0.001689	0.974879
Br313	Br	0.985303	-0.935921	0.447125
Br314	Br	1.235303	-0.685921	0.697125
Br315	Br	1.485303	-0.435921	0.947125
Br316	Br	1.735303	-0.185921	1.197125
H317	H	0.939395	-0.622137	0.393366
H318	H	1.189395	-0.372137	0.643366
H319	H	1.439395	-0.122137	0.893366
H320	H	1.689395	0.127863	1.143366
Br321	Br	0.771577	-0.468119	0.566506
Br322	Br	1.021577	-0.218119	0.816506
Br323	Br	1.271577	0.031881	1.066506
Br324	Br	1.521577	0.281881	1.316506
H325	H	0.820158	-1.080974	0.253419
H326	H	1.070158	-0.830974	0.503419
H327	H	1.320158	-0.580974	0.753419
H328	H	1.570158	-0.330974	1.003419
Br329	Br	0.988005	-0.235476	1.080928
Br330	Br	1.238005	0.014524	1.330928
Br331	Br	1.488005	0.264524	1.580928
Br332	Br	1.738005	0.514524	1.830928
Br333	Br	0.961485	-0.264066	0.748195
Br334	Br	1.211485	-0.014066	0.998195
Br335	Br	1.461485	0.235934	1.248195
Br336	Br	1.711485	0.485934	1.498195
Br337	Br	0.791294	-0.446887	1.071820
Br338	Br	1.041294	-0.196887	1.321820
Br339	Br	1.291294	0.053113	1.571820
Br340	Br	1.541294	0.303113	1.821820
H341	H	0.435532	-0.466096	0.308235
H342	H	0.685532	-0.216096	0.558235
H343	H	0.935532	0.033904	0.808235
H344	H	1.185532	0.283904	1.058235
H345	H	0.959018	-1.087645	0.416260
H346	H	1.209018	-0.837645	0.666260
H347	H	1.459018	-0.587645	0.916260
H348	H	1.709018	-0.337645	1.166260
H349	H	0.522684	-0.429710	0.238396
H350	H	0.772684	-0.179710	0.488396
H351	H	1.022684	0.070290	0.738396
H352	H	1.272684	0.320290	0.988396
H353	H	0.800530	-0.615467	0.230530
H354	H	1.050530	-0.365467	0.480530
H355	H	1.300530	-0.115467	0.730530
H356	H	1.550530	0.134533	0.980530
Br357	Br	0.951039	-0.822625	0.406999
Br358	Br	1.201039	-0.572625	0.656999
Br359	Br	1.451039	-0.322625	0.906999
Br360	Br	1.701039	-0.072625	1.156999
Br361	Br	0.802071	-0.435330	0.852477
Br362	Br	1.052071	-0.185330	1.102477
Br363	Br	1.302071	0.064670	1.352477
Br364	Br	1.552071	0.314670	1.602477
H365	H	0.788190	-0.450253	0.720265
H366	H	1.038190	-0.200253	0.970265
H367	H	1.288190	0.049747	1.220265
H368	H	1.538190	0.299747	1.470265
Br369	Br	0.658736	-0.250952	0.433730
Br370	Br	0.908736	-0.000952	0.683730
Br371	Br	1.158736	0.249048	0.933730
Br372	Br	1.408736	0.499048	1.183730
Br373	Br	0.994833	-0.228154	0.908350
Br374	Br	1.244833	0.021846	1.158350
Br375	Br	1.494833	0.271846	1.408350
Br376	Br	1.744833	0.521846	1.658350
H377	H	0.118688	-0.274096	0.408343
H378	H	0.368688	-0.024096	0.658343
H379	H	0.618688	0.225904	0.908343
H380	H	0.868688	0.475904	1.158343
H381	H	0.641398	-0.429733	0.238375
H382	H	0.891398	-0.179733	0.488375
H383	H	1.141398	0.070267	0.738375
H384	H	1.391398	0.320267	0.988375
H385	H	0.829994	-0.861612	0.265010
H386	H	1.079994	-0.611612	0.515010
H387	H	1.329994	-0.361612	0.765010
H388	H	1.579994	-0.111612	1.015010
H389	H	0.119049	-0.429630	0.238432
H390	H	0.369049	-0.179630	0.488432
H391	H	0.619049	0.070370	0.738432
H392	H	0.869049	0.320370	0.988432
H393	H	0.819993	-0.416069	0.920169
H394	H	1.069993	-0.166069	1.170169
H395	H	1.319993	0.083931	1.420169
H396	H	1.569993	0.333931	1.670169
H397	H	0.237759	-0.429655	0.238420
H398	H	0.487759	-0.179655	0.488420
H399	H	0.737759	0.070345	0.738420
H400	H	0.987759	0.320345	0.988420
H401	H	0.934067	-0.293453	0.813793
H402	H	1.184067	-0.043453	1.063793
H403	H	1.434067	0.206547	1.313793
H404	H	1.684067	0.456547	1.563793
