data_functionalizedCrystal
_audit_creation_method	'MofGen! by Chris Wilmer'
_symmetry_space_group_name_H-M	'P1'
_symmetry_Int_Tables_number	1
_symmetry_cell_setting	triclinic
loop_
_symmetry_equiv_pos_as_xyz
  x,y,z
_cell_length_a	15.711784
_cell_length_b	23.532357
_cell_length_c	14.184742
_cell_angle_alpha	104.871693
_cell_angle_beta	99.905229
_cell_angle_gamma	101.208546
loop_
_atom_site_label
_atom_site_type_symbol
_atom_site_fract_x
_atom_site_fract_y
_atom_site_fract_z
O1	O	1.161558	0.326954	0.083533
O2	O	1.661558	0.826954	0.583533
O3	O	0.910274	0.283665	0.083517
O4	O	1.410274	0.783665	0.583517
O5	O	1.043512	0.223984	0.083505
O6	O	1.543512	0.723984	0.583505
O7	O	1.028320	0.386636	0.083545
O8	O	1.528320	0.886636	0.583545
O9	O	1.008775	0.193674	-0.083362
O10	O	1.508775	0.693674	0.416638
O11	O	0.875538	0.253355	-0.083350
O12	O	1.375538	0.753355	0.416650
O13	O	1.126821	0.296644	-0.083334
O14	O	1.626821	0.796644	0.416666
Cu15	Cu	0.998008	0.272232	-0.098579
Cu16	Cu	1.498008	0.772232	0.401421
Cu17	Cu	1.039088	0.308077	0.098761
Cu18	Cu	1.539088	0.808077	0.598761
O19	O	0.993584	0.356325	-0.083322
O20	O	1.493584	0.856325	0.416678
C21	C	0.860764	0.261439	0.000081
C22	C	1.360764	0.761439	0.500081
C23	C	0.764991	0.240361	0.000075
C24	C	1.264991	0.740361	0.500075
C25	C	0.640742	0.161012	0.000054
C26	C	1.140742	0.661012	0.500054
C27	C	0.730734	0.180824	0.000060
C28	C	1.230734	0.680824	0.500060
C29	C	0.709263	0.280112	0.000089
C30	C	1.209263	0.780112	0.500089
C31	C	0.619269	0.260310	0.000087
C32	C	1.119269	0.760310	0.500087
C33	C	0.585015	0.200759	0.000069
C34	C	1.085015	0.700759	0.500069
C35	C	0.563542	0.300057	0.000103
C36	C	1.063542	0.800057	0.500103
C37	C	0.473555	0.280255	0.000096
C38	C	0.973555	0.780255	0.500096
C39	C	0.439293	0.220707	0.000075
C40	C	0.939293	0.720707	0.500075
C41	C	0.495027	0.180958	0.000063
C42	C	0.995027	0.680958	0.500063
C43	C	0.597796	0.359606	0.000114
C44	C	1.097796	0.859606	0.500114
C45	C	0.542070	0.399353	0.000129
C46	C	1.042070	0.899353	0.500129
C47	C	0.452082	0.379553	0.000130
C48	C	0.952082	0.879553	0.500130
C49	C	0.417820	0.320004	0.000108
C50	C	0.917820	0.820004	0.500108
C51	C	0.396347	0.419302	0.000142
C52	C	0.896347	0.919302	0.500142
C53	C	0.306360	0.399501	0.000136
C54	C	0.806360	0.899501	0.500136
C55	C	0.327833	0.300203	0.000102
C56	C	0.827833	0.800203	0.500102
C57	C	1.025762	0.187531	0.000068
C58	C	1.525762	0.687531	0.500068
C59	C	1.024617	0.124069	0.000059
C60	C	1.524617	0.624069	0.500059
C61	C	1.036387	-0.252933	0.091072
C62	C	1.536387	0.247067	0.591072
C63	C	1.035302	-0.312562	0.091077
C64	C	1.535302	0.187438	0.591077
O65	O	1.050814	-0.329352	0.168435
O66	O	1.550814	0.170648	0.668435
N67	N	1.015829	-0.358909	0.000119
N68	N	1.515829	0.141091	0.500119
C69	C	0.997430	-0.345626	-0.090851
C70	C	1.497430	0.154374	0.409149
O71	O	0.980766	-0.390524	-0.168217
O72	O	1.480766	0.109476	0.331783
C73	C	0.998510	-0.285999	-0.090855
C74	C	1.498510	0.214001	0.409145
C75	C	1.017993	-0.239653	0.000109
C76	C	1.517993	0.260347	0.500109
C77	C	1.055868	-0.206588	0.182028
C78	C	1.555868	0.293412	0.682028
C79	C	1.056955	-0.146963	0.182022
C80	C	1.556955	0.353037	0.682022
C81	C	1.038561	-0.133683	0.091060
C82	C	1.538561	0.366317	0.591060
C83	C	1.019080	-0.180028	0.000103
C84	C	1.519080	0.319972	0.500103
C85	C	0.980106	-0.272718	-0.181824
C86	C	1.480106	0.227282	0.318176
C87	C	0.981186	-0.213086	-0.181821
C88	C	1.481186	0.286914	0.318179
C89	C	1.000670	-0.166739	-0.090856
C90	C	1.500670	0.333261	0.409144
C91	C	1.001773	-0.107123	-0.090866
C92	C	1.501773	0.392877	0.409134
N93	N	1.021247	-0.060776	0.000092
N94	N	1.521247	0.439224	0.500092
C95	C	1.039641	-0.074056	0.091055
C96	C	1.539641	0.425944	0.591055
C97	C	0.995164	-0.470846	-0.090834
C98	C	1.495164	0.029154	0.409166
C99	C	0.994090	-0.530472	-0.090830
C100	C	1.494090	-0.030472	0.409170
C101	C	1.031960	-0.497403	0.091098
C102	C	1.531960	0.002597	0.591098
C103	C	1.033040	-0.437776	0.091093
C104	C	1.533040	0.062224	0.591093
C105	C	1.014637	-0.424499	0.000124
C106	C	1.514637	0.075501	0.500124
C107	C	1.041923	0.051160	0.091035
C108	C	1.541923	0.551160	0.591035
C109	C	1.043011	0.110789	0.091021
C110	C	1.543011	0.610789	0.591021
C111	C	1.005137	0.077714	-0.090906
C112	C	1.505137	0.577714	0.409094
C113	C	1.004052	0.018091	-0.090893
C114	C	1.504052	0.518091	0.409107
C115	C	1.022444	0.004816	0.000086
C116	C	1.522444	0.504816	0.500086
O117	O	0.986266	-0.090288	-0.168184
O118	O	1.486266	0.409712	0.331816
O119	O	1.056291	-0.029155	0.168408
O120	O	1.556291	0.470845	0.668408
C121	C	1.176332	0.318871	0.000104
C122	C	1.676332	0.818871	0.500104
C123	C	1.272106	0.339950	0.000117
C124	C	1.772106	0.839950	0.500117
C125	C	1.011333	0.392779	0.000117
C126	C	1.511333	0.892779	0.500117
C127	C	1.012480	0.456243	0.000133
C128	C	1.512480	0.956243	0.500133
N129	N	0.969120	0.247022	-0.237377
N130	N	1.469120	0.747022	0.262623
C131	C	0.884328	0.173006	-0.394963
C132	C	1.384328	0.673006	0.105037
C133	C	0.906184	0.192089	-0.289921
C134	C	1.406184	0.692089	0.210079
C135	C	1.010223	0.282895	-0.289862
C136	C	1.510223	0.782895	0.210138
C137	C	0.988373	0.263821	-0.394907
C138	C	1.488373	0.763821	0.105093
C139	C	0.925426	0.208876	-0.447449
C140	C	1.425426	0.708876	0.052551
C141	C	1.029471	0.299691	-0.447392
C142	C	1.529471	0.799691	0.052608
C143	C	1.007626	0.280617	-0.552427
C144	C	1.507626	0.780617	-0.052427
C145	C	0.944684	0.225674	-0.604977
C146	C	1.444684	0.725674	-0.104977
C147	C	0.903581	0.189802	-0.552484
C148	C	1.403581	0.689802	-0.052484
C149	C	1.092423	0.354634	-0.394848
C150	C	1.592423	0.854634	0.105152
C151	C	1.133521	0.390504	-0.447333
C152	C	1.633521	0.890504	0.052667
C153	C	1.111671	0.371433	-0.552370
C154	C	1.611671	0.871433	-0.052370
C155	C	1.048729	0.316489	-0.604920
C156	C	1.548729	0.816489	-0.104920
C157	C	1.152774	0.407304	-0.604863
C158	C	1.652774	0.907304	-0.104863
C159	C	1.130929	0.388230	-0.709898
C160	C	1.630929	0.888230	-0.209898
C161	C	1.026884	0.297415	-0.709955
C162	C	1.526884	0.797415	-0.209955
N163	N	1.067982	0.333285	0.237560
N164	N	1.567982	0.833285	0.737560
H165	H	0.569971	0.447839	0.000140
H166	H	1.069971	0.947839	0.500140
H167	H	1.110208	0.370162	-0.309321
H168	H	1.610208	0.870162	0.190679
N169	N	1.175244	0.426918	-0.766519
N170	N	1.675244	0.926918	-0.266519
H171	H	1.208634	0.403071	-0.810091
H172	H	1.708634	0.903071	-0.310091
H173	H	1.218388	0.464614	-0.717234
H174	H	1.718388	0.964614	-0.217234
H175	H	0.978238	-0.568202	-0.164902
H176	H	1.478238	-0.068202	0.335098
H177	H	0.966187	-0.202283	-0.255900
H178	H	1.466187	0.297717	0.244100
H179	H	1.046935	-0.508226	0.165165
H180	H	1.546935	-0.008226	0.665165
N181	N	1.220665	0.466564	-0.548193
N182	N	1.720665	0.966564	-0.048193
H183	H	1.279737	0.465136	-0.566460
H184	H	1.779737	0.965136	-0.066460
H185	H	1.228197	0.473171	-0.473707
H186	H	1.728197	0.973171	0.026293
H187	H	1.072818	-0.109232	0.256095
H188	H	1.572818	0.390768	0.756095
N189	N	0.694853	0.380964	0.000113
N190	N	1.194853	0.880964	0.500113
H191	H	0.733625	0.377481	0.061968
H192	H	1.233625	0.877481	0.561968
H193	H	0.708013	0.424709	0.000080
H194	H	1.208013	0.924709	0.500080
N195	N	0.983054	-0.031899	-0.189000
N196	N	1.483054	0.468101	0.311000
H197	H	0.971570	-0.014435	-0.246625
H198	H	1.471570	0.485565	0.253375
H199	H	0.928280	-0.063880	-0.192965
H200	H	1.428280	0.436120	0.307035
N201	N	0.975324	-0.456528	-0.188956
N202	N	1.475324	0.043472	0.311044
H203	H	0.962827	-0.494939	-0.246570
H204	H	1.462827	0.005061	0.253430
H205	H	1.028443	-0.425984	-0.192920
H206	H	1.528443	0.074016	0.307080
N207	N	1.201417	0.449762	-0.390661
N208	N	1.701417	0.949762	0.109339
H209	H	1.209022	0.456402	-0.316157
H210	H	1.709022	0.956402	0.183843
H211	H	1.180180	0.484214	-0.409010
H212	H	1.680180	0.984214	0.090990
N213	N	0.246251	0.442370	0.000156
N214	N	0.746251	0.942370	0.500156
H215	H	0.270094	0.478754	0.062025
H216	H	0.770094	0.978754	0.562025
H217	H	0.184065	0.420739	0.000109
H218	H	0.684065	0.920739	0.500109
H219	H	0.424249	0.467787	0.000147
H220	H	0.924249	0.967787	0.500147
H221	H	1.058880	0.148524	0.165098
H222	H	1.558880	0.648524	0.665098
N223	N	1.061783	0.036849	0.189160
N224	N	1.561783	0.536849	0.689160
H225	H	1.074297	0.075264	0.246772
H226	H	1.574297	0.575264	0.746772
H227	H	1.115658	0.019359	0.193110
H228	H	1.615658	0.519359	0.693110
H229	H	0.366017	0.204583	0.000060
H230	H	0.866017	0.704583	0.500060
N231	N	0.985306	0.092045	-0.189013
N232	N	1.485306	0.592045	0.310987
H233	H	0.988950	0.136852	-0.175205
H234	H	1.488950	0.636852	0.324795
H235	H	0.923352	0.067881	-0.228736
H236	H	1.423352	0.567881	0.271264
H237	H	0.964242	-0.310445	-0.255897
H238	H	1.464242	0.189555	0.244103
N239	N	0.458073	0.116725	0.000031
N240	N	0.958073	0.616725	0.500031
H241	H	0.392609	0.110214	0.000024
H242	H	0.892609	0.610214	0.500024
H243	H	0.491362	0.109736	0.061884
H244	H	0.991362	0.609736	0.561884
N245	N	0.746210	0.344342	0.000119
N246	N	1.246210	0.844342	0.500119
H247	H	0.712978	0.351370	-0.061729
H248	H	1.212978	0.851370	0.438271
H249	H	0.811675	0.350816	0.000159
H250	H	1.311675	0.850816	0.500159
N251	N	0.603778	0.096782	0.000028
N252	N	1.103778	0.596782	0.500028
H253	H	0.579793	0.097590	0.061880
H254	H	1.079793	0.597590	0.561880
H255	H	0.652769	0.074637	-0.000017
H256	H	1.152769	0.574637	0.499983
H257	H	1.070845	-0.217392	0.256105
H258	H	1.570845	0.282608	0.756105
H259	H	1.048903	-0.400043	0.165164
H260	H	1.548903	0.099957	0.665164
H261	H	0.975618	0.252677	-0.752738
H262	H	1.475618	0.752677	-0.252738
H263	H	0.926903	0.210143	-0.690503
H264	H	1.426903	0.710143	-0.190503
H265	H	0.852315	0.145064	-0.595267
H266	H	1.352315	0.645064	-0.095267
H267	H	0.833062	0.128268	-0.437746
H268	H	1.333062	0.628268	0.062254
H269	H	0.872710	0.162876	-0.247191
H270	H	1.372710	0.662876	0.252809
N271	N	0.290870	0.235975	0.000090
N272	N	0.790870	0.735975	0.500090
H273	H	0.324096	0.228950	0.061944
H274	H	0.824096	0.728950	0.561944
H275	H	0.298343	0.206517	-0.061812
H276	H	0.798343	0.706517	0.438188
N277	N	1.078119	0.342152	-0.233190
N278	N	1.578119	0.842152	0.266810
H279	H	1.085725	0.348793	-0.158686
H280	H	1.585725	0.848793	0.341314
H281	H	1.056883	0.376605	-0.251539
H282	H	1.556883	0.876605	0.248461
H283	H	0.776105	0.148453	0.000051
H284	H	1.276105	0.648453	0.500051
