data_functionalizedCrystal
_audit_creation_method	'MofGen! by Chris Wilmer'
_symmetry_space_group_name_H-M	'P1'
_symmetry_Int_Tables_number	1
_symmetry_cell_setting	triclinic
loop_
_symmetry_equiv_pos_as_xyz
  x,y,z
_cell_length_a	19.077399
_cell_length_b	18.215404
_cell_length_c	18.215399
_cell_angle_alpha	89.972485
_cell_angle_beta	87.724914
_cell_angle_gamma	87.676682
loop_
_atom_site_label
_atom_site_type_symbol
_atom_site_fract_x
_atom_site_fract_y
_atom_site_fract_z
Zn1	Zn	1.075974	0.247799	0.371016
Zn2	Zn	1.575974	0.747799	0.871016
Zn3	Zn	1.075889	0.370874	0.247954
Zn4	Zn	1.575889	0.870874	0.747954
Zn5	Zn	0.958278	0.252765	0.252897
Zn6	Zn	1.458278	0.752765	0.752897
Zn7	Zn	0.958248	0.375773	0.375910
Zn8	Zn	1.458248	0.875773	0.875910
O9	O	1.017097	0.311803	0.311944
O10	O	1.517097	0.811803	0.811944
O11	O	1.174452	0.259996	0.350575
O12	O	1.674452	0.759996	0.850575
O13	O	1.060264	0.355235	0.145626
O14	O	1.560264	0.855235	0.645626
O15	O	0.973939	0.149120	0.268586
O16	O	1.473939	0.649120	0.768586
O17	O	1.174390	0.350419	0.260162
O18	O	1.674390	0.850419	0.760162
O19	O	1.060410	0.145471	0.355367
O20	O	1.560410	0.645471	0.855367
O21	O	0.973856	0.268461	0.149258
O22	O	1.473856	0.768461	0.649258
O23	O	0.859784	0.273212	0.273332
O24	O	1.359784	0.773212	0.773332
O25	O	0.973887	0.358769	0.478244
O26	O	1.473887	0.858769	0.978244
O27	O	0.859762	0.363585	0.363709
O28	O	1.359762	0.863585	0.863709
O29	O	1.060381	0.264747	0.474648
O30	O	1.560381	0.764747	0.974648
O31	O	1.060235	0.474510	0.264907
O32	O	1.560235	0.974510	0.764907
O33	O	0.973804	0.478109	0.358916
O34	O	1.473804	0.978109	0.858916
C35	C	0.834236	0.319469	0.319588
C36	C	1.334236	0.819469	0.819588
C37	C	0.756007	0.322767	0.322876
C38	C	1.256007	0.822767	0.822876
C39	C	0.719246	0.277192	0.277443
C40	C	1.219246	0.777192	0.777443
C41	C	0.645742	0.280297	0.280532
C42	C	1.145742	0.780297	0.780532
C43	C	0.609000	0.328973	0.329058
C44	C	1.109000	0.828973	0.829058
C45	C	0.645766	0.374552	0.374492
C46	C	1.145766	0.874552	0.874492
C47	C	0.719269	0.371451	0.371399
C48	C	1.219269	0.871451	0.871399
C49	C	0.389170	0.343305	0.343342
C50	C	0.889170	0.843305	0.843342
C51	C	0.315662	0.346402	0.346434
C52	C	0.815662	0.846402	0.846434
C53	C	0.315643	0.252147	0.252472
C54	C	0.815643	0.752147	0.752472
C55	C	0.389147	0.249047	0.249386
C56	C	0.889147	0.749047	0.749386
C57	C	0.425907	0.294629	0.294818
C58	C	0.925907	0.794629	0.794818
N59	N	0.533867	0.332146	0.332218
N60	N	1.033867	0.832146	0.832218
N61	N	0.501039	0.291459	0.291654
N62	N	1.001039	0.791459	0.791654
C63	C	1.017026	0.503012	0.311922
C64	C	1.517026	1.003012	0.811922
C65	C	1.017060	0.584809	0.311934
C66	C	1.517060	1.084809	0.811934
C67	C	1.017140	0.311750	0.503895
C68	C	1.517140	0.811750	1.003895
C69	C	1.017158	0.311728	0.585694
C70	C	1.517158	0.811728	1.085694
C71	C	1.200672	0.304107	0.304271
C72	C	1.700672	0.804107	0.804271
C73	C	1.278901	0.300827	0.301001
C74	C	1.778901	0.800827	0.801001
C75	C	1.062174	0.771100	0.263076
C76	C	1.562174	1.271100	0.763076
C77	C	1.062206	0.847957	0.263096
C78	C	1.562206	1.347957	0.763096
C79	C	0.972128	0.851749	0.360914
C80	C	1.472128	1.351749	0.860914
C81	C	0.972100	0.774893	0.360896
C82	C	1.472100	1.274893	0.860896
C83	C	1.017121	0.734570	0.311973
C84	C	1.517121	1.234570	0.811973
C85	C	1.017183	0.888284	0.312011
C86	C	1.517183	1.388284	0.812011
C87	C	1.017218	0.971616	0.312034
C88	C	1.517218	1.471616	0.812034
C89	C	1.017087	0.651233	0.311951
C90	C	1.517087	1.151233	0.811951
C91	C	1.017192	1.119846	0.311995
C92	C	1.517192	1.619846	0.811995
C93	C	1.017244	1.038045	0.312050
C94	C	1.517244	1.538045	0.812050
C95	C	1.017095	0.311800	0.120738
C96	C	1.517095	0.811800	0.620738
C97	C	1.017213	0.311610	0.038935
C98	C	1.517213	0.811610	0.538935
C99	C	1.062212	0.262726	0.772016
C100	C	1.562212	0.762726	1.272016
C101	C	1.062220	0.262704	0.848874
C102	C	1.562220	0.762704	1.348874
C103	C	0.972155	0.360614	0.852607
C104	C	1.472155	0.860614	1.352607
C105	C	0.972143	0.360632	0.775750
C106	C	1.472143	0.860632	1.275750
C107	C	1.017176	0.311688	0.735456
C108	C	1.517176	0.811688	1.235456
C109	C	1.017196	0.311649	0.889172
C110	C	1.517196	0.811649	1.389172
C111	C	1.017204	0.311626	0.972505
C112	C	1.517204	0.811626	1.472505
C113	C	1.017166	0.311711	0.652118
C114	C	1.517166	0.811711	1.152118
H115	H	0.419058	0.209415	0.209866
H116	H	0.919058	0.709415	0.709866
C117	C	0.962347	0.460001	0.939420
C118	C	1.462347	0.960001	1.439420
C119	C	0.922662	0.414416	0.896900
C120	C	1.422662	0.914416	1.396900
H121	H	0.931792	0.493220	0.966760
H122	H	1.431792	0.993220	1.466760
H123	H	0.989164	0.430838	0.972191
H124	H	1.489164	0.930838	1.472191
H125	H	0.992992	0.486869	0.908142
H126	H	1.492992	0.986869	1.408142
H127	H	0.892021	0.387544	0.928179
H128	H	1.392021	0.887544	1.428179
H129	H	0.895834	0.443582	0.864126
H130	H	1.395834	0.943582	1.364126
C131	C	0.962309	0.460053	0.689694
C132	C	1.462309	0.960053	1.189694
C133	C	0.922638	0.414455	0.735556
C134	C	1.422638	0.914455	1.235556
H135	H	0.931746	0.493275	0.664876
H136	H	1.431746	0.993275	1.164876
H137	H	0.992957	0.486912	0.718391
H138	H	1.492957	0.986912	1.218391
H139	H	0.989122	0.430896	0.654702
H140	H	1.489122	0.930896	1.154702
H141	H	0.895829	0.443613	0.770551
H142	H	1.395829	0.943613	1.270551
H143	H	0.891978	0.387594	0.706857
H144	H	1.391978	0.887594	1.206857
H145	H	1.098878	0.222871	0.739211
H146	H	1.598878	0.722871	1.239211
C147	C	1.096526	0.746060	0.137048
C148	C	1.596526	1.246060	0.637048
C149	C	1.111665	0.726777	0.209305
C150	C	1.611665	1.226777	0.709305
H151	H	1.127086	0.718701	0.103853
H152	H	1.627086	1.218701	0.603853
H153	H	1.049246	0.735494	0.128212
H154	H	1.549246	1.235494	0.628212
H155	H	1.102993	0.797062	0.130071
H156	H	1.602993	1.297062	0.630071
H157	H	1.105194	0.675776	0.216283
H158	H	1.605194	1.175776	0.716283
H159	H	1.158957	0.737338	0.218143
H160	H	1.658957	1.237338	0.718143
C161	C	1.151250	0.165935	0.837459
C162	C	1.651250	0.665935	1.337459
C163	C	1.111728	0.208886	0.889060
C164	C	1.611728	0.708886	1.389060
H165	H	1.181818	0.132712	0.862269
H166	H	1.681818	0.632712	1.362269
H167	H	1.120595	0.139079	0.808768
H168	H	1.620595	0.639079	1.308768
H169	H	1.178150	0.196889	0.806351
H170	H	1.678150	0.696889	1.306351
H171	H	1.084824	0.177933	0.920164
H172	H	1.584824	0.677933	1.420164
H173	H	1.142387	0.235745	0.917763
H174	H	1.642387	0.735745	1.417763
H175	H	0.749156	0.237550	0.237933
H176	H	1.249156	0.737550	0.737933
H177	H	0.285749	0.386039	0.385954
H178	H	0.785749	0.886039	0.885954
C179	C	0.932169	0.971248	0.404368
C180	C	1.432169	1.471248	0.904368
C181	C	0.922635	0.896074	0.414681
C182	C	1.422635	1.396074	0.914681
H183	H	0.901608	0.998610	0.437558
H184	H	1.401608	1.498610	0.937558
H185	H	0.979449	0.981808	0.413211
H186	H	1.479449	1.481808	0.913211
H187	H	0.921903	0.984310	0.355341
H188	H	1.421903	1.484310	0.855341
H189	H	0.932906	0.883012	0.463707
H190	H	1.432906	1.383012	0.963707
H191	H	0.875344	0.885509	0.405843
H192	H	1.375344	1.385509	0.905843
H193	H	0.615814	0.243190	0.243531
H194	H	1.115814	0.743190	0.743531
H195	H	0.935412	0.745148	0.400718
H196	H	1.435412	1.245148	0.900718
C197	C	0.232947	0.245288	0.156972
C198	C	0.732947	0.745288	0.656972
C199	C	0.275238	0.202053	0.202525
C200	C	0.775238	0.702053	0.702525
H201	H	0.208008	0.214361	0.126132
H202	H	0.708008	0.714361	0.626132
H203	H	0.200548	0.274710	0.186316
H204	H	0.700548	0.774710	0.686316
H205	H	0.261610	0.276107	0.127567
H206	H	0.761610	0.776107	0.627567
H207	H	0.246574	0.171238	0.231935
H208	H	0.746574	0.671238	0.731935
H209	H	0.307641	0.172618	0.173179
H210	H	0.807641	0.672618	0.673179
C211	C	0.381796	0.436775	0.436534
C212	C	0.881796	0.936775	0.936534
C213	C	0.429571	0.393403	0.393286
C214	C	0.929571	0.893403	0.893286
H215	H	0.406741	0.467701	0.467372
H216	H	0.906741	0.967701	0.967372
H217	H	0.353106	0.466092	0.405627
H218	H	0.853106	0.966092	0.905627
H219	H	0.353148	0.405946	0.465944
H220	H	0.853148	0.905946	0.965944
H221	H	0.458215	0.424233	0.363873
H222	H	0.958215	0.924233	0.863873
H223	H	0.458272	0.364084	0.424197
H224	H	0.958272	0.864084	0.924197
C225	C	0.533101	0.421152	0.420961
C226	C	1.033101	0.921152	0.920961
C227	C	0.605381	0.428056	0.427835
C228	C	1.105381	0.928056	0.927835
H229	H	0.508172	0.454180	0.453898
H230	H	1.008172	0.954180	0.953898
H231	H	0.521032	0.432370	0.372009
H232	H	1.021032	0.932370	0.872009
H233	H	0.521081	0.372224	0.432325
H234	H	1.021081	0.872224	0.932325
H235	H	0.617402	0.476984	0.416465
H236	H	1.117402	0.976984	0.916465
H237	H	0.617456	0.416843	0.476797
H238	H	1.117456	0.916843	0.976797
H239	H	0.749199	0.408562	0.408396
H240	H	1.249199	0.908562	0.908396
H241	H	1.098894	0.877696	0.223280
H242	H	1.598894	1.377696	0.723280
