data_functionalizedCrystal
_audit_creation_method	'MofGen! by Chris Wilmer'
_symmetry_space_group_name_H-M	'P1'
_symmetry_Int_Tables_number	1
_symmetry_cell_setting	triclinic
loop_
_symmetry_equiv_pos_as_xyz
  x,y,z
_cell_length_a	8.597213
_cell_length_b	8.634740
_cell_length_c	8.140239
_cell_angle_alpha	89.998579
_cell_angle_beta	82.295622
_cell_angle_gamma	92.879744
loop_
_atom_site_label
_atom_site_type_symbol
_atom_site_fract_x
_atom_site_fract_y
_atom_site_fract_z
O1	O	2.117343	0.230680	-0.436293
O2	O	2.617343	0.730680	0.063707
O3	O	1.663080	0.248377	-0.371999
O4	O	2.163080	0.748377	0.128001
O5	O	1.868708	0.014728	-0.401099
O6	O	2.368708	0.514728	0.098901
O7	O	1.911715	0.464328	-0.407193
O8	O	2.411715	0.964328	0.092807
O9	O	1.868695	0.014725	-0.127870
O10	O	2.368695	0.514725	0.372130
O11	O	1.663066	0.248374	-0.098770
O12	O	2.163066	0.748374	0.401230
O13	O	2.117330	0.230677	-0.163064
O14	O	2.617330	0.730677	0.336936
Zn15	Zn	1.890196	0.239525	-0.087536
Zn16	Zn	2.390196	0.739525	0.412464
Zn17	Zn	1.890214	0.239529	-0.447527
Zn18	Zn	2.390214	0.739529	0.052473
O19	O	1.911701	0.464325	-0.133964
O20	O	2.411701	0.964325	0.366036
C21	C	1.604313	0.246475	-0.227069
C22	C	2.104313	0.746475	0.272931
C23	C	1.429225	0.240793	-0.202288
C24	C	1.929225	0.740793	0.297712
C25	C	1.858959	-0.042870	-0.263108
C26	C	2.358959	0.457130	0.236892
C27	C	1.829910	-0.214492	-0.259004
C28	C	2.329910	0.285508	0.240996
C29	C	2.176096	0.232579	-0.307998
C30	C	2.676096	0.732579	0.192002
C31	C	2.351184	0.238260	-0.332789
C32	C	2.851184	0.738260	0.167211
C33	C	1.921450	0.521924	-0.271959
C34	C	2.421450	1.021924	0.228041
C35	C	1.950499	0.693545	-0.276074
C36	C	2.450499	1.193545	0.223926
N37	N	1.890195	0.239521	0.158147
N38	N	2.390195	0.739521	0.658147
N39	N	1.890225	0.239520	-0.693211
N40	N	2.390225	0.739520	-0.193211
H41	H	1.418318	0.240451	-0.463469
H42	H	1.918318	0.740451	0.036531
H43	H	1.362084	0.238620	-0.071599
H44	H	1.862084	0.738620	0.428401
H45	H	2.075963	-0.253893	-0.293888
H46	H	2.575963	0.246107	0.206112
H47	H	1.704438	-0.267060	-0.241256
H48	H	2.204438	0.232940	0.258744
