data_functionalizedCrystal
_audit_creation_method	'MofGen! by Chris Wilmer'
_symmetry_space_group_name_H-M	'P1'
_symmetry_Int_Tables_number	1
_symmetry_cell_setting	triclinic
loop_
_symmetry_equiv_pos_as_xyz
  x,y,z
_cell_length_a	10.686220
_cell_length_b	13.897448
_cell_length_c	10.685880
_cell_angle_alpha	94.337649
_cell_angle_beta	89.641569
_cell_angle_gamma	94.399460
loop_
_atom_site_label
_atom_site_type_symbol
_atom_site_fract_x
_atom_site_fract_y
_atom_site_fract_z
Zn1	Zn	1.972236	-0.301104	-0.562360
Zn2	Zn	2.305569	0.032230	-0.229027
Zn3	Zn	2.638903	0.365563	0.104307
Zn4	Zn	1.956009	-0.451098	-0.352601
Zn5	Zn	2.289342	-0.117764	-0.019268
Zn6	Zn	2.622675	0.215569	0.314066
Zn7	Zn	1.746365	-0.303069	-0.368682
Zn8	Zn	2.079699	0.030264	-0.035349
Zn9	Zn	2.413032	0.363597	0.297984
Zn10	Zn	1.762425	-0.475615	-0.578372
Zn11	Zn	2.095758	-0.142282	-0.245038
Zn12	Zn	2.429091	0.191051	0.088295
O13	O	1.859259	-0.382721	-0.465504
O14	O	2.192592	-0.049388	-0.132170
O15	O	2.525925	0.283945	0.201163
O16	O	2.145627	-0.309917	-0.521104
O17	O	2.478960	0.023416	-0.187770
O18	O	2.812293	0.356750	0.145563
O19	O	1.914687	-0.422023	-0.179193
O20	O	2.248021	-0.088690	0.154140
O21	O	2.581354	0.244643	0.487473
O22	O	1.776398	-0.167825	-0.394403
O23	O	2.109731	0.165509	-0.061070
O24	O	2.443064	0.498842	0.272264
O25	O	2.133705	-0.420117	-0.366995
O26	O	2.467038	-0.086784	-0.033661
O27	O	2.800371	0.246550	0.299672
O28	O	1.942344	-0.166380	-0.536697
O29	O	2.275677	0.166953	-0.203364
O30	O	2.609011	0.500286	0.129969
O31	O	1.760663	-0.313268	-0.191008
O32	O	2.093996	0.020066	0.142325
O33	O	2.427330	0.353399	0.475658
O34	O	1.572952	-0.337041	-0.409929
O35	O	1.906286	-0.003708	-0.076596
O36	O	2.239619	0.329625	0.256737
O37	O	1.803768	-0.461904	-0.751788
O38	O	2.137102	-0.128571	-0.418455
O39	O	2.470435	0.204763	-0.085122
O40	O	1.584751	-0.463810	-0.563987
O41	O	1.918084	-0.130477	-0.230654
O42	O	2.251418	0.202857	0.102680
O43	O	1.957916	-0.333691	-0.740025
O44	O	2.291249	-0.000358	-0.406691
O45	O	2.624583	0.332976	-0.073358
O46	O	1.930259	-0.589334	-0.382521
O47	O	2.263593	-0.256001	-0.049187
O48	O	2.596926	0.077333	0.284146
O49	O	1.788034	-0.607347	-0.548394
O50	O	2.121367	-0.274014	-0.215060
O51	O	2.454700	0.059320	0.118273
C52	C	1.533335	-0.403300	-0.490441
C53	C	1.866669	-0.069967	-0.157108
C54	C	2.200002	0.263366	0.176225
C55	C	1.393906	-0.412129	-0.501140
C56	C	1.727239	-0.078796	-0.167806
C57	C	2.060573	0.254538	0.165527
C58	C	1.859164	-0.633340	-0.465474
C59	C	2.192498	-0.300006	-0.132141
C60	C	2.525831	0.033327	0.201192
C61	C	1.859242	-0.740550	-0.465495
C62	C	2.192575	-0.407217	-0.132162
C63	C	2.525909	-0.073883	0.201172
C64	C	1.859380	-0.936841	-0.465564
C65	C	2.192713	-0.603508	-0.132230
C66	C	2.526046	-0.270174	0.201103
C67	C	1.859300	-0.827611	-0.465530
C68	C	2.192633	-0.494278	-0.132196
C69	C	2.525967	-0.160945	0.201137
C70	C	2.186455	-0.362063	-0.440469
C71	C	2.519788	-0.028730	-0.107136
C72	C	2.853122	0.304604	0.226197
C73	C	2.325886	-0.353259	-0.429801
C74	C	2.659220	-0.019926	-0.096468
C75	C	2.992553	0.313407	0.236866
C76	C	1.884444	-0.400313	-0.792695
C77	C	2.217777	-0.066980	-0.459362
C78	C	2.551110	0.266354	-0.126028
C79	C	1.895176	-0.407810	-0.932124
C80	C	2.228509	-0.074476	-0.598791
C81	C	2.561843	0.258857	-0.265458
C82	C	1.859390	-0.131124	-0.465558
C83	C	2.192723	0.202209	-0.132225
C84	C	2.526056	0.535543	0.201109
C85	C	1.859445	-0.023908	-0.465581
C86	C	2.192779	0.309425	-0.132248
C87	C	2.526112	0.642759	0.201086
C88	C	1.834244	-0.365124	-0.139580
C89	C	2.167577	-0.031791	0.193753
C90	C	2.500910	0.301543	0.527087
C91	C	1.823755	-0.357341	-0.000133
C92	C	2.157088	-0.024007	0.333201
C93	C	2.490421	0.309326	0.666534
H94	H	1.374319	-0.296105	-0.360540
H95	H	1.707653	0.037228	-0.027206
H96	H	2.040986	0.370561	0.306127
H97	H	1.345466	-0.469292	-0.570398
H98	H	1.678800	-0.135959	-0.237064
H99	H	2.012133	0.197374	0.096269
H100	H	1.964543	-0.456758	-0.980573
H101	H	2.297876	-0.123425	-0.647239
H102	H	2.631210	0.209909	-0.313906
H103	H	1.754387	-0.308400	-0.951691
H104	H	2.087720	0.024934	-0.618358
H105	H	2.421053	0.358267	-0.285024
