data_functionalizedCrystal
_audit_creation_method	'MofGen! by Chris Wilmer'
_symmetry_space_group_name_H-M	'P1'
_symmetry_Int_Tables_number	1
_symmetry_cell_setting	triclinic
loop_
_symmetry_equiv_pos_as_xyz
  x,y,z
_cell_length_a	16.625548
_cell_length_b	29.839131
_cell_length_c	29.839125
_cell_angle_alpha	89.982291
_cell_angle_beta	89.987766
_cell_angle_gamma	90.042488
loop_
_atom_site_label
_atom_site_type_symbol
_atom_site_fract_x
_atom_site_fract_y
_atom_site_fract_z
Zn1	Zn	1.232508	-0.178904	-0.254008
Zn2	Zn	1.232386	-0.254016	-0.178878
Zn3	Zn	1.097689	-0.178902	-0.178891
Zn4	Zn	1.097596	-0.254009	-0.253979
O5	O	1.165045	-0.216457	-0.216439
O6	O	1.345324	-0.188871	-0.244049
O7	O	1.214507	-0.244054	-0.116013
O8	O	1.115663	-0.116035	-0.188872
O9	O	1.345235	-0.244055	-0.188851
O10	O	1.214714	-0.116036	-0.244061
O11	O	1.115545	-0.188868	-0.116022
O12	O	0.984845	-0.188861	-0.188844
O13	O	1.115504	-0.244044	-0.316850
O14	O	0.984776	-0.244042	-0.244012
O15	O	1.214623	-0.188864	-0.316872
O16	O	1.214416	-0.316882	-0.188823
O17	O	1.115386	-0.316877	-0.244000
C18	C	0.955554	-0.216451	-0.216427
C19	C	0.865933	-0.216459	-0.216432
C20	C	0.537757	-0.216462	-0.216451
C21	C	0.629066	-0.216460	-0.216444
C22	C	0.701842	-0.216461	-0.216441
C23	C	0.793156	-0.216458	-0.216435
C24	C	1.164899	-0.333180	-0.216417
C25	C	1.164911	-0.383114	-0.216422
C26	C	1.216703	-0.692748	-0.187751
C27	C	1.216803	-0.880421	-0.187768
O28	O	1.260724	-0.904677	-0.163373
N29	N	1.165212	-0.903899	-0.216473
C30	C	1.113596	-0.880457	-0.245178
O31	O	1.069723	-0.904733	-0.269597
C32	C	1.113501	-0.692785	-0.245162
C33	C	1.165090	-0.669309	-0.216452
C34	C	1.268288	-0.669272	-0.159043
C35	C	1.268260	-0.622356	-0.159038
C36	C	1.216646	-0.598917	-0.187739
C37	C	1.165061	-0.622393	-0.216446
C38	C	1.061890	-0.669343	-0.273869
C39	C	1.061872	-0.622422	-0.273863
C40	C	1.113461	-0.598946	-0.245153
C41	C	1.113419	-0.552038	-0.245142
N42	N	1.165010	-0.528560	-0.216437
C43	C	1.216624	-0.551999	-0.187736
C44	C	1.113648	-0.978987	-0.245183
C45	C	1.113671	-1.025905	-0.245186
C46	C	1.216879	-1.025866	-0.187777
C47	C	1.216852	-0.978947	-0.187772
C48	C	1.165239	-0.955509	-0.216478
C49	C	1.216560	-0.453473	-0.187725
C50	C	1.216524	-0.406554	-0.187721
C51	C	1.113319	-0.406597	-0.245131
C52	C	1.113351	-0.453513	-0.245134
C53	C	1.164978	-0.476949	-0.216430
O54	O	1.069528	-0.527753	-0.269528
O55	O	1.260503	-0.527715	-0.163327
C56	C	1.216732	-0.739663	-0.187756
C57	C	1.165147	-0.763139	-0.216464
C58	C	1.113533	-0.739700	-0.245165
C59	C	1.165169	-0.810057	-0.216467
C60	C	1.216783	-0.833496	-0.187766
C61	C	1.268374	-0.810018	-0.159061
C62	C	1.268345	-0.763102	-0.159055
C63	C	1.061942	-0.763179	-0.273870
C64	C	1.061974	-0.810094	-0.273873
C65	C	1.113588	-0.833534	-0.245172
C66	C	1.375354	-0.216464	-0.216452
C67	C	1.464975	-0.216467	-0.216457
C68	C	1.165067	-0.216453	-0.333617
C69	C	1.165076	-0.216452	-0.383552
C70	C	1.165213	-0.099279	-0.216471
C71	C	1.165284	-0.049345	-0.216485
C72	C	1.216742	-0.187644	-0.693209
C73	C	1.216782	-0.187606	-0.880883
O74	O	1.260650	-0.163156	-0.905159
N75	N	1.165183	-0.216331	-0.904337
C76	C	1.113566	-0.245066	-0.880871
O77	O	1.069674	-0.269494	-0.905126
C78	C	1.113523	-0.245102	-0.693198
C79	C	1.165131	-0.216378	-0.669746
C80	C	1.268345	-0.158923	-0.669757
C81	C	1.268337	-0.158934	-0.622842
C82	C	1.216727	-0.187668	-0.599379
C83	C	1.165124	-0.216389	-0.622831
C84	C	1.061903	-0.273834	-0.669733
C85	C	1.061896	-0.273839	-0.622812
C86	C	1.113504	-0.245116	-0.599359
C87	C	1.113506	-0.245134	-0.552452
N88	N	1.165104	-0.216409	-0.528997
C89	C	1.216715	-0.187676	-0.552461
C90	C	1.113594	-0.245046	-0.979401
C91	C	1.113606	-0.245038	-1.026319
C92	C	1.216820	-0.187577	-1.026328
C93	C	1.216812	-0.187588	-0.979409
C94	C	1.165193	-0.216321	-0.955947
C95	C	1.216696	-0.187703	-0.453935
C96	C	1.216686	-0.187718	-0.407015
C97	C	1.113469	-0.245177	-0.407011
C98	C	1.113482	-0.245163	-0.453926
C99	C	1.165098	-0.216423	-0.477387
O100	O	1.069654	-0.269568	-0.528146
O101	O	1.260589	-0.163244	-0.528197
C102	C	1.216749	-0.187633	-0.740125
C103	C	1.165146	-0.216355	-0.763577
C104	C	1.113535	-0.245088	-0.740114
C105	C	1.165158	-0.216346	-0.810495
C106	C	1.216768	-0.187613	-0.833958
C107	C	1.268367	-0.158888	-0.810504
C108	C	1.268360	-0.158899	-0.763588
C109	C	1.061936	-0.273813	-0.763568
C110	C	1.061949	-0.273800	-0.810484
C111	C	1.113559	-0.245066	-0.833947
C112	C	1.165069	-0.216429	-0.099717
C113	C	1.165216	-0.216304	-0.049782
H114	H	1.258534	-0.387441	-0.164340
C115	C	1.273593	-0.155972	-1.052143
H116	H	1.266201	-0.160082	-1.083444
H117	H	1.327758	-0.162547	-1.044457
H118	H	1.261827	-0.125786	-1.044461
H119	H	1.019877	-0.688449	-0.297245
H120	H	1.258601	-0.472550	-0.164352
H121	H	1.310397	-0.829110	-0.135690
H122	H	1.258860	-0.959836	-0.164394
C123	C	1.325064	-0.695048	-0.127466
H124	H	1.355773	-0.674340	-0.110369
H125	H	1.360190	-0.713326	-0.144664
H126	H	1.294247	-0.713372	-0.107874
H127	H	1.258724	-0.164298	-0.473031
H128	H	1.071560	-0.268446	-0.960302
C129	C	1.005157	-0.737402	-0.305440
H130	H	0.974435	-0.758108	-0.322531
H131	H	1.035954	-0.719070	-0.325031
H132	H	0.970032	-0.719131	-0.288229
H133	H	1.019878	-0.297224	-0.688819
C134	C	1.273650	-1.051655	-0.156205
H135	H	1.266273	-1.082959	-0.160323
H136	H	1.261890	-1.043986	-0.126013
H137	H	1.327818	-1.043936	-0.162811
C138	C	1.005133	-0.305457	-0.597006
H139	H	0.974412	-0.322566	-0.617695
H140	H	0.970017	-0.288285	-0.578696
H141	H	1.035965	-0.325038	-0.578710
C142	C	1.005224	-0.835913	-0.305457
H143	H	0.974490	-0.815230	-0.322552
H144	H	0.970121	-0.854247	-0.288262
H145	H	1.036064	-0.854185	-0.325052
C146	C	1.056843	-0.276637	-1.052112
H147	H	1.026101	-0.293746	-1.031414
H148	H	1.087656	-0.296211	-1.070414
H149	H	1.021735	-0.259444	-1.070413
H150	H	1.258834	-0.164198	-0.960317
H151	H	1.258715	-0.164327	-0.387923
H152	H	1.071466	-0.268557	-0.473022
H153	H	1.310373	-0.135522	-0.688856
H154	H	1.071452	-0.268572	-0.387898
H155	H	1.310270	-0.603244	-0.135661
C156	C	1.325122	-0.127299	-0.737797
H157	H	1.355851	-0.110185	-0.758496
H158	H	1.360231	-0.144485	-0.719493
H159	H	1.294298	-0.107724	-0.719497
C160	C	1.325099	-0.127333	-0.597050
H161	H	1.355827	-0.110219	-0.617749
H162	H	1.360208	-0.144518	-0.578746
H163	H	1.294274	-0.107758	-0.578750
H164	H	1.019924	-0.297194	-0.829575
H165	H	1.310393	-0.135494	-0.829616
C166	C	1.056920	-1.051726	-0.276764
H167	H	1.064317	-1.083027	-0.272656
H168	H	1.068680	-1.044016	-0.306953
H169	H	1.002747	-1.044069	-0.270158
C170	C	1.056862	-0.953211	-0.276757
H171	H	1.026138	-0.973917	-0.293847
H172	H	1.087661	-0.934882	-0.296350
H173	H	1.021739	-0.934937	-0.259548
C174	C	1.005098	-0.596642	-0.305441
H175	H	0.974377	-0.617346	-0.322536
H176	H	1.035907	-0.578313	-0.325028
H177	H	0.969969	-0.578368	-0.288236
H178	H	1.019909	-0.297213	-0.744469
H179	H	1.071346	-0.472628	-0.268514
C180	C	1.056553	-0.380808	-0.276703
H181	H	1.063936	-0.349504	-0.272589
H182	H	1.002386	-0.388528	-0.270106
H183	H	1.068331	-0.388477	-0.306896
H184	H	1.310354	-0.743991	-0.135677
