data_functionalizedCrystal
_audit_creation_method	'MofGen! by Chris Wilmer'
_symmetry_space_group_name_H-M	'P1'
_symmetry_Int_Tables_number	1
_symmetry_cell_setting	triclinic
loop_
_symmetry_equiv_pos_as_xyz
  x,y,z
_cell_length_a	10.723024
_cell_length_b	14.044220
_cell_length_c	9.798715
_cell_angle_alpha	89.995876
_cell_angle_beta	89.996609
_cell_angle_gamma	88.828373
loop_
_atom_site_label
_atom_site_type_symbol
_atom_site_fract_x
_atom_site_fract_y
_atom_site_fract_z
O1	O	1.670498	0.133040	-0.113486
O2	O	1.308619	0.145774	-0.113491
O3	O	1.484127	0.001387	-0.113476
O4	O	1.494990	0.277427	-0.113502
O5	O	1.484112	0.001387	0.113507
O6	O	1.308605	0.145774	0.113491
O7	O	1.670483	0.133039	0.113496
Zn8	Zn	1.489542	0.139407	0.149532
Zn9	Zn	1.489561	0.139407	-0.149527
O10	O	1.494976	0.277427	0.113480
C11	C	1.262020	0.144847	-0.000001
C12	C	1.123188	0.142075	-0.000002
C13	C	1.056288	0.222866	-0.000011
C14	C	0.912798	0.220002	-0.000013
C15	C	1.479364	-0.033958	0.000016
C16	C	1.465180	-0.139276	0.000018
C17	C	1.439248	-0.332106	-0.000002
C18	C	1.539849	-0.389085	-0.000005
C19	C	1.525420	-0.496383	-0.000016
C20	C	1.453675	-0.224799	0.000009
C21	C	1.717083	0.133966	0.000002
C22	C	1.855914	0.136739	-0.000005
C23	C	1.499738	0.312772	-0.000015
C24	C	1.513923	0.418090	-0.000025
N25	N	1.489538	0.139406	0.353631
N26	N	1.489573	0.139401	-0.353627
C27	C	1.563202	0.078514	0.421415
C28	C	1.563222	0.078511	0.578578
H29	H	0.913420	0.067571	-0.000006
H30	H	1.342291	-0.363906	-0.000007
N31	N	1.058355	0.047640	-0.000004
H32	H	1.122714	-0.005883	0.000001
H33	H	1.004447	0.042852	0.084141
H34	H	1.636814	-0.357284	-0.000095
N35	N	0.836652	0.311635	-0.000015
H36	H	0.782295	0.314364	-0.084156
H37	H	0.782366	0.314300	0.084185
N38	N	1.406016	0.208453	0.569178
H39	H	1.356869	0.249085	0.636021
H40	H	1.458680	0.250571	0.509876
N41	N	1.646693	0.009435	0.344181
H42	H	1.634830	0.019219	0.242857
H43	H	1.736577	0.020779	0.369047
N44	N	1.646775	0.009458	0.655777
H45	H	1.634948	0.019246	0.757105
H46	H	1.624635	-0.057901	0.630884
N47	N	1.406015	0.208460	0.430870
H48	H	1.356851	0.249096	0.364043
H49	H	1.346690	0.171844	0.490167
N50	N	1.121117	0.317303	-0.000011
H51	H	1.214432	0.305962	-0.000008
H52	H	1.096086	0.354564	-0.084161
