data_functionalizedCrystal
_audit_creation_method	'MofGen! by Chris Wilmer'
_symmetry_space_group_name_H-M	'P1'
_symmetry_Int_Tables_number	1
_symmetry_cell_setting	triclinic
loop_
_symmetry_equiv_pos_as_xyz
  x,y,z
_cell_length_a	17.640112
_cell_length_b	19.121063
_cell_length_c	17.640968
_cell_angle_alpha	81.648500
_cell_angle_beta	92.139080
_cell_angle_gamma	103.148881
loop_
_atom_site_label
_atom_site_type_symbol
_atom_site_fract_x
_atom_site_fract_y
_atom_site_fract_z
Zn1	Zn	1.247036	-0.020114	-0.196194
Zn2	Zn	1.215936	-0.164540	-0.077209
Zn3	Zn	1.092687	-0.065650	-0.097361
Zn4	Zn	1.115017	-0.155325	-0.229281
O5	O	1.167669	-0.101407	-0.150011
O6	O	1.349741	-0.024071	-0.158129
O7	O	1.177226	-0.174335	0.025122
O8	O	1.116833	0.038363	-0.105059
O9	O	1.326892	-0.130180	-0.070712
O10	O	1.230232	0.071818	-0.177670
O11	O	1.086676	-0.101681	0.010316
O12	O	0.988819	-0.092746	-0.137142
O13	O	1.154890	-0.114475	-0.329896
O14	O	1.005224	-0.158630	-0.234062
O15	O	1.251884	-0.015136	-0.305587
O16	O	1.198878	-0.261289	-0.102795
O17	O	1.124733	-0.254519	-0.214521
C18	C	0.969322	-0.129630	-0.191380
C19	C	0.884471	-0.141717	-0.209096
C20	C	0.562686	-0.009571	-0.015428
C21	C	0.482957	-0.020940	-0.032086
C22	C	0.500055	-0.089704	-0.132851
C23	C	0.579787	-0.078338	-0.116204
C24	C	0.611096	-0.038271	-0.057491
C25	C	0.628197	-0.107038	-0.158266
C26	C	0.707921	-0.095675	-0.141618
C27	C	0.739236	-0.055612	-0.082906
C28	C	0.690820	-0.026908	-0.040842
C29	C	0.596886	-0.147109	-0.216975
C30	C	0.645295	-0.175809	-0.259038
C31	C	0.725022	-0.164442	-0.242393
C32	C	0.756337	-0.124379	-0.183682
C33	C	0.773438	-0.193146	-0.284457
C34	C	0.853163	-0.181784	-0.267809
C35	C	0.836061	-0.113017	-0.167033
C36	C	1.160878	-0.283301	-0.160074
C37	C	1.158048	-0.361101	-0.164389
C38	C	1.195368	-0.401138	-0.108278
C39	C	1.192712	-0.474238	-0.112340
C40	C	1.152731	-0.507299	-0.172510
C41	C	1.115410	-0.467255	-0.228626
C42	C	1.118071	-0.394156	-0.224567
C43	C	1.142766	-0.727835	-0.187679
C44	C	1.140106	-0.800941	-0.191733
C45	C	1.217410	-0.807918	-0.075447
C46	C	1.220063	-0.734818	-0.071390
C47	C	1.182746	-0.694779	-0.127508
C48	C	1.150013	-0.582019	-0.176662
C49	C	1.185469	-0.620060	-0.123359
C50	C	1.366791	-0.073074	-0.108482
C51	C	1.451644	-0.061001	-0.090784
C52	C	1.209347	-0.058698	-0.345729
C53	C	1.227107	-0.040499	-0.429132
C54	C	1.174511	0.081204	-0.139922
C55	C	1.177426	0.159022	-0.135622
C56	C	1.033051	-0.239247	-0.766711
C57	C	1.049756	-0.222134	-0.845077
C58	C	1.150747	-0.118701	-0.819756
C59	C	1.134048	-0.135803	-0.741387
C60	C	1.075199	-0.196077	-0.714871
C61	C	1.176197	-0.092633	-0.689546
C62	C	1.159501	-0.109736	-0.611183
C63	C	1.100657	-0.170009	-0.584660
C64	C	1.058504	-0.213180	-0.636508
C65	C	1.235048	-0.032362	-0.716063
C66	C	1.277197	0.010807	-0.664223
C67	C	1.260498	-0.006292	-0.585859
C68	C	1.201654	-0.066565	-0.559336
C69	C	1.302651	0.036879	-0.534012
C70	C	1.285956	0.019776	-0.455648
C71	C	1.184959	-0.083668	-0.480973
C72	C	1.126199	-0.143893	0.044957
C73	C	1.108594	-0.161874	0.128402
H74	H	0.531968	-0.156359	-0.230528
Br75	Br	1.249623	-0.356279	-0.026608
Br76	Br	1.078002	-0.193228	-0.478309
Br77	Br	1.343162	0.078359	-0.385288
H78	H	0.443545	0.002440	0.002166
H79	H	0.861557	-0.080377	-0.119234
Br80	Br	1.067426	-0.339816	-0.300724
H81	H	1.015429	-0.257293	-0.887285
H82	H	1.218025	-0.593138	-0.074370
Br83	Br	1.095755	-0.626893	-0.258321
H84	H	1.107560	-0.827852	-0.240742
H85	H	1.223101	-0.506834	-0.066648
Br86	Br	0.953175	-0.321042	-0.730719
H87	H	0.804153	-0.046363	-0.069350
Br88	Br	0.918866	-0.220739	-0.324890
H89	H	0.747933	-0.225774	-0.332256
H90	H	1.252619	-0.707901	-0.022394
Br91	Br	0.978629	-0.294975	-0.600515
Br92	Br	1.061157	-0.512121	-0.310293
H93	H	1.248641	-0.018440	-0.779872
Br94	Br	1.230614	-0.036906	-0.855749
Br95	Br	1.357064	0.092602	-0.700216
H96	H	0.619792	-0.208434	-0.306840
Br97	Br	1.382524	0.118668	-0.570006
H98	H	0.716316	0.005731	0.006957
Br99	Br	1.268057	-0.862257	0.000707
H100	H	0.588182	0.023068	0.032371
H101	H	1.112379	-0.695242	-0.233372
Br102	Br	0.457554	-0.144092	-0.212519
H103	H	1.137021	-0.132735	-0.459385
