data_functionalizedCrystal
_audit_creation_method	'MofGen! by Chris Wilmer'
_symmetry_space_group_name_H-M	'P1'
_symmetry_Int_Tables_number	1
_symmetry_cell_setting	triclinic
loop_
_symmetry_equiv_pos_as_xyz
  x,y,z
_cell_length_a	14.971486
_cell_length_b	15.995292
_cell_length_c	14.048226
_cell_angle_alpha	89.996759
_cell_angle_beta	89.998499
_cell_angle_gamma	83.541372
loop_
_atom_site_label
_atom_site_type_symbol
_atom_site_fract_x
_atom_site_fract_y
_atom_site_fract_z
O1	O	1.186798	0.109119	-0.079044
O2	O	1.686798	0.609119	0.420956
O3	O	0.926380	0.122186	-0.079069
O4	O	1.426380	0.622186	0.420931
O5	O	1.063735	-0.006231	-0.079058
O6	O	1.563735	0.493769	0.420942
O7	O	1.049443	0.237537	-0.079056
O8	O	1.549443	0.737537	0.420944
O9	O	1.063718	-0.006239	0.079264
O10	O	1.563718	0.493761	0.579264
O11	O	0.926364	0.122179	0.079252
O12	O	1.426364	0.622179	0.579252
O13	O	1.186782	0.109112	0.079277
O14	O	1.686782	0.609112	0.579277
Zn15	Zn	1.056570	0.115644	0.104401
Zn16	Zn	1.556570	0.615644	0.604401
Zn17	Zn	1.056592	0.115654	-0.104194
Zn18	Zn	1.556592	0.615654	0.395806
O19	O	1.049427	0.237529	0.079265
O20	O	1.549427	0.737529	0.579265
C21	C	0.893048	0.121598	0.000088
C22	C	1.393048	0.621598	0.500088
C23	C	0.793753	0.119847	0.000078
C24	C	1.293753	0.619847	0.500078
C25	C	0.736425	0.195289	0.000080
C26	C	1.236425	0.695289	0.500080
C27	C	0.643128	0.193638	0.000094
C28	C	1.143128	0.693638	0.500094
C29	C	0.607161	0.116545	0.000100
C30	C	1.107161	0.616545	0.500100
C31	C	0.664496	0.041098	0.000101
C32	C	1.164496	0.541098	0.500101
C33	C	0.757792	0.042749	0.000093
C34	C	1.257792	0.542749	0.500093
C35	C	0.470038	0.037661	0.000114
C36	C	0.970038	0.537661	0.500114
C37	C	0.376737	0.036009	0.000119
C38	C	0.876737	0.536009	0.500119
C39	C	0.355375	0.188550	0.000115
C40	C	0.855375	0.688550	0.500115
C41	C	0.448670	0.190202	0.000107
C42	C	0.948670	0.690202	0.500107
C43	C	0.505999	0.114754	0.000106
C44	C	1.005999	0.614754	0.500106
C45	C	1.063145	-0.037431	0.000101
C46	C	1.563145	0.462569	0.500101
C47	C	1.061401	-0.130386	0.000093
C48	C	1.561401	0.369614	0.500093
C49	C	1.054990	-0.468130	0.000101
C50	C	1.554990	0.031870	0.500101
C51	C	1.154129	-0.444719	0.000465
C52	C	1.654129	0.055281	0.500465
C53	C	1.156014	-0.348041	0.000105
C54	C	1.656014	0.151959	0.500105
C55	C	1.058171	-0.300571	0.000098
C56	C	1.558171	0.199429	0.500098
C57	C	1.008616	-0.329718	-0.090313
C58	C	1.508616	0.170282	0.409687
C59	C	1.007422	-0.426509	-0.090385
C60	C	1.507422	0.073491	0.409615
C61	C	1.005379	-0.426377	0.089655
C62	C	1.505379	0.073623	0.589655
C63	C	1.009053	-0.329881	0.090847
C64	C	1.509053	0.170119	0.590847
C65	C	1.059964	-0.205873	0.000093
C66	C	1.559964	0.294127	0.500093
C67	C	1.053195	-0.562828	0.000100
C68	C	1.553195	-0.062828	0.500100
C69	C	1.220114	0.109700	0.000118
C70	C	1.720114	0.609700	0.500118
C71	C	1.319408	0.111451	0.000121
C72	C	1.819408	0.611451	0.500121
C73	C	1.050017	0.268729	0.000105
C74	C	1.550017	0.768729	0.500105
C75	C	1.051760	0.361684	0.000106
C76	C	1.551760	0.861684	0.500106
N77	N	1.056562	0.115637	0.246762
N78	N	1.556562	0.615637	0.746762
N79	N	1.056607	0.115655	-0.246554
N80	N	1.556607	0.615655	0.253446
C81	C	1.117401	0.058797	0.296585
C82	C	1.617401	0.558797	0.796585
C83	C	1.117407	0.058797	0.396243
C84	C	1.617407	0.558797	0.896243
C85	C	1.056577	0.115640	0.446076
C86	C	1.556577	0.615640	0.946076
C87	C	0.995731	0.172483	0.396245
C88	C	1.495731	0.672483	0.896245
C89	C	0.995721	0.172479	0.296590
C90	C	1.495721	0.672479	0.796590
C91	C	0.995757	0.172489	0.603960
C92	C	1.495757	0.672489	1.103960
C93	C	0.995767	0.172495	0.703622
C94	C	1.495767	0.672495	1.203622
C95	C	1.117443	0.058807	0.703613
C96	C	1.617443	0.558807	1.203613
C97	C	1.117433	0.058803	0.603957
C98	C	1.617433	0.558803	1.103957
C99	C	1.056588	0.115646	0.554134
C100	C	1.556588	0.615646	1.054134
H101	H	0.477951	0.252978	0.000094
H102	H	0.977951	0.752978	0.500094
H103	H	0.765701	0.258067	0.000075
H104	H	1.265701	0.758067	0.500075
H105	H	1.045137	-0.311283	0.157732
H106	H	1.545137	0.188717	0.657732
H107	H	1.166985	0.012523	0.744185
H108	H	1.666985	0.512523	1.244185
H109	H	0.936617	-0.297922	-0.093679
H110	H	1.436617	0.202078	0.406321
H111	H	1.166947	0.012513	0.436809
H112	H	1.666947	0.512513	0.936809
H113	H	1.166970	0.012520	0.563384
H114	H	1.666970	0.512520	1.063384
H115	H	0.308692	0.249983	0.000119
H116	H	0.808692	0.749983	0.500119
H117	H	0.946232	0.218782	0.744191
H118	H	1.446232	0.718782	1.244191
H119	H	0.946207	0.218775	0.563397
H120	H	1.446207	0.718775	1.063397
H121	H	0.596454	0.255071	0.000095
H122	H	1.096454	0.755071	0.500095
H123	H	1.043042	-0.309619	-0.157591
H124	H	1.543042	0.190381	0.342409
H125	H	0.946197	0.218764	0.436825
H126	H	1.446197	0.718764	0.936825
H127	H	0.347456	-0.026767	0.000125
H128	H	0.847456	0.473233	0.500125
H129	H	0.946178	0.218762	0.256024
H130	H	1.446178	0.718762	0.756024
H131	H	0.932405	-0.440441	0.090259
H132	H	1.432405	0.059559	0.590259
H133	H	0.516714	-0.023777	0.000115
H134	H	1.016714	0.476223	0.500115
H135	H	0.635205	-0.021673	0.000119
H136	H	1.135205	0.478327	0.500119
H137	H	0.804468	-0.018684	0.000091
H138	H	1.304468	0.481316	0.500091
H139	H	1.194825	-0.328981	0.064914
H140	H	1.694825	0.171019	0.564914
H141	H	1.192136	-0.473695	-0.064002
H142	H	1.692136	0.026305	0.435998
H143	H	1.192335	-0.472681	0.065303
H144	H	1.692335	0.027319	0.565303
H145	H	1.195067	-0.329595	-0.064812
H146	H	1.695067	0.170405	0.435188
H147	H	0.937637	-0.296983	0.096302
H148	H	1.437637	0.203017	0.596302
H149	H	1.036593	-0.454438	0.158186
H150	H	1.536593	0.045562	0.658186
H151	H	1.041756	-0.453288	-0.157965
H152	H	1.541756	0.046712	0.342035
H153	H	0.934733	-0.441132	-0.094487
H154	H	1.434733	0.058868	0.405513
H155	H	1.166940	0.012512	0.256018
H156	H	1.666940	0.512512	0.756018
