data_functionalizedCrystal
_audit_creation_method	'MofGen! by Chris Wilmer'
_symmetry_space_group_name_H-M	'P1'
_symmetry_Int_Tables_number	1
_symmetry_cell_setting	triclinic
loop_
_symmetry_equiv_pos_as_xyz
  x,y,z
_cell_length_a	16.120484
_cell_length_b	21.395362
_cell_length_c	21.395355
_cell_angle_alpha	90.043940
_cell_angle_beta	92.880721
_cell_angle_gamma	87.057600
loop_
_atom_site_label
_atom_site_type_symbol
_atom_site_fract_x
_atom_site_fract_y
_atom_site_fract_z
Zn1	Zn	-0.331659	-0.945244	-0.367215
Zn2	Zn	0.001675	-0.611911	-0.033882
Zn3	Zn	0.335008	-0.278578	0.299451
Zn4	Zn	-0.471058	-0.939845	-0.267746
Zn5	Zn	-0.137724	-0.606511	0.065587
Zn6	Zn	0.195609	-0.273178	0.398921
Zn7	Zn	-0.331698	-0.840458	-0.262418
Zn8	Zn	0.001636	-0.507125	0.070915
Zn9	Zn	0.334969	-0.173791	0.404249
Zn10	Zn	-0.471075	-0.835126	-0.372451
Zn11	Zn	-0.137741	-0.501792	-0.039118
Zn12	Zn	0.195592	-0.168459	0.294215
O13	O	-0.401372	-0.890168	-0.317458
O14	O	-0.068039	-0.556835	0.015876
O15	O	0.265295	-0.223502	0.349209
O16	O	-0.350127	-1.032207	-0.354059
O17	O	-0.016794	-0.698874	-0.020726
O18	O	0.316540	-0.365540	0.312608
O19	O	-0.452580	-0.926633	-0.179362
O20	O	-0.119247	-0.593299	0.153972
O21	O	0.214086	-0.259966	0.487305
O22	O	-0.215024	-0.858849	-0.271898
O23	O	0.118310	-0.525516	0.061435
O24	O	0.451643	-0.192183	0.394768
O25	O	-0.452543	-1.028240	-0.280979
O26	O	-0.119209	-0.694906	0.052354
O27	O	0.214124	-0.361573	0.385687
O28	O	-0.214995	-0.935836	-0.348892
O29	O	0.118338	-0.602502	-0.015559
O30	O	0.451671	-0.269169	0.317774
O31	O	-0.350193	-0.853614	-0.175447
O32	O	-0.016860	-0.520280	0.157886
O33	O	0.316474	-0.186947	0.491220
O34	O	-0.350210	-0.752072	-0.276976
O35	O	-0.016876	-0.418738	0.056358
O36	O	0.316457	-0.085405	0.389691
O37	O	-0.452572	-0.849761	-0.459434
O38	O	-0.119238	-0.516428	-0.126101
O39	O	0.214095	-0.183095	0.207232
O40	O	-0.452609	-0.748154	-0.357817
O41	O	-0.119276	-0.414821	-0.024483
O42	O	0.214057	-0.081488	0.308850
O43	O	-0.350144	-0.930665	-0.455587
O44	O	-0.016810	-0.597332	-0.122254
O45	O	0.316523	-0.263999	0.211079
O46	O	-0.587728	-0.921462	-0.286057
O47	O	-0.254395	-0.588129	0.047277
O48	O	0.078938	-0.254796	0.380610
O49	O	-0.587741	-0.844526	-0.362983
O50	O	-0.254408	-0.511192	-0.029650
O51	O	0.078926	-0.177859	0.303683
C52	C	-0.617986	-0.881846	-0.325680
C53	C	-0.284652	-0.548513	0.007653
C54	C	0.048681	-0.215180	0.340987
C55	C	-0.710654	-0.878344	-0.329218
C56	C	-0.377320	-0.545010	0.004115
C57	C	-0.043987	-0.211677	0.337448
C58	C	-0.401416	-0.727379	-0.317387
C59	C	-0.068083	-0.394046	0.015947
C60	C	0.265250	-0.060712	0.349280
C61	C	-0.401455	-0.657736	-0.317372
C62	C	-0.068122	-0.324403	0.015961
C63	C	0.265211	0.008931	0.349295
C64	C	-0.401328	-1.053593	-0.317529
C65	C	-0.067995	-0.720260	0.015804
C66	C	0.265338	-0.386927	0.349137
C67	C	-0.401310	-1.123235	-0.317560
C68	C	-0.067977	-0.789902	0.015773
C69	C	0.265357	-0.456569	0.349107
C70	C	-0.880320	-0.871952	-0.335692
C71	C	-0.546986	-0.538619	-0.002358
C72	C	-0.213653	-0.205285	0.330975
C73	C	-0.921584	-0.908497	-0.299234
C74	C	-0.588251	-0.575163	0.034099
C75	C	-0.254917	-0.241830	0.367433
C76	C	-1.015992	-0.904940	-0.302836
C77	C	-0.682659	-0.571607	0.030498
C78	C	-0.349325	-0.238274	0.363831
C79	C	-0.785903	-0.875507	-0.332091
C80	C	-0.452570	-0.542174	0.001243
C81	C	-0.119237	-0.208841	0.334576
C82	C	-0.183913	-0.898540	-0.309217
C83	C	0.149421	-0.565206	0.024116
C84	C	0.482754	-0.231873	0.357450
C85	C	-0.091245	-0.902107	-0.305705
C86	C	0.242089	-0.568774	0.027628
C87	C	0.575422	-0.235440	0.360961
C88	C	-0.401355	-0.890221	-0.480880
C89	C	-0.068022	-0.556888	-0.147547
C90	C	0.265311	-0.223554	0.185786
C91	C	-0.401348	-0.890243	-0.550521
C92	C	-0.068015	-0.556910	-0.217188
C93	C	0.265319	-0.223577	0.116145
C94	C	-0.454845	-0.622997	-0.359409
C95	C	-0.121512	-0.289663	-0.026075
C96	C	0.211821	0.043670	0.307258
C97	C	-0.454825	-0.557562	-0.359436
C98	C	-0.121492	-0.224229	-0.026102
C99	C	0.211842	0.109104	0.307231
C100	C	-0.401423	-0.526869	-0.317415
C101	C	-0.068090	-0.193536	0.015918
C102	C	0.265244	0.139798	0.349251
C103	C	-0.348022	-0.561617	-0.275375
C104	C	-0.014689	-0.228283	0.057958
C105	C	0.318644	0.105050	0.391291
C106	C	-0.348039	-0.627050	-0.275354
C107	C	-0.014705	-0.293717	0.057980
C108	C	0.318628	0.039617	0.391313
C109	C	-0.394707	-0.423400	-0.260754
C110	C	-0.061373	-0.090066	0.072579
C111	C	0.271960	0.243267	0.405912
C112	C	-0.394696	-0.357967	-0.260775
C113	C	-0.061363	-0.024634	0.072558
C114	C	0.271970	0.308699	0.405891
C115	C	-0.401369	-0.325050	-0.317482
C116	C	-0.068035	0.008283	0.015851
C117	C	0.265298	0.341616	0.349184
C118	C	-0.408069	-0.357574	-0.374171
C119	C	-0.074735	-0.024240	-0.040838
C120	C	0.258598	0.309093	0.292496
C121	C	-0.408085	-0.423007	-0.374149
C122	C	-0.074751	-0.089674	-0.040816
C123	C	0.258582	0.243660	0.292517
C124	C	-0.401399	-0.455918	-0.317434
C125	C	-0.068066	-0.122584	0.015899
C126	C	0.265267	0.210749	0.349232
C127	C	-0.454740	-0.219359	-0.359552
C128	C	-0.121406	0.113974	-0.026219
C129	C	0.211927	0.447307	0.307115
C130	C	-0.454713	-0.153924	-0.359580
C131	C	-0.121380	0.179410	-0.026247
C132	C	0.211953	0.512743	0.307087
C133	C	-0.347915	-0.157979	-0.275514
C134	C	-0.014582	0.175354	0.057819
C135	C	0.318751	0.508687	0.391152
C136	C	-0.347937	-0.223414	-0.275492
C137	C	-0.014604	0.109920	0.057842
C138	C	0.318730	0.443253	0.391175
C139	C	-0.401354	-0.254100	-0.317510
C140	C	-0.068020	0.079234	0.015823
C141	C	0.265313	0.412567	0.349157
C142	C	-0.348011	-0.932368	-0.581232
C143	C	-0.014678	-0.599035	-0.247899
C144	C	0.318655	-0.265702	0.085434
C145	C	-0.347976	-0.932369	-0.646666
C146	C	-0.014642	-0.599035	-0.313333
C147	C	0.318691	-0.265702	0.020000
C148	C	-0.401291	-0.890250	-0.681388
C149	C	-0.067958	-0.556917	-0.348054
C150	C	0.265375	-0.223584	-0.014721
C151	C	-0.454632	-0.848117	-0.650669
C152	C	-0.121298	-0.514784	-0.317336
C153	C	0.212035	-0.181451	0.015998
C154	C	-0.454660	-0.848114	-0.585236
C155	C	-0.121327	-0.514781	-0.251902
C156	C	0.212007	-0.181447	0.081431
C157	C	-0.476362	-0.882419	-0.787910
C158	C	-0.143029	-0.549086	-0.454577
C159	C	0.190305	-0.215752	-0.121243
C160	C	-0.476335	-0.882427	-0.853342
C161	C	-0.143002	-0.549094	-0.520009
C162	C	0.190332	-0.215760	-0.186675
C163	C	-0.401203	-0.890258	-0.883205
C164	C	-0.067870	-0.556924	-0.549872
C165	C	0.265464	-0.223591	-0.216538
C166	C	-0.326096	-0.898094	-0.847628
C167	C	0.007238	-0.564760	-0.514295
C168	C	0.340571	-0.231427	-0.180961
C169	C	-0.326124	-0.898090	-0.782195
C170	C	0.007209	-0.564757	-0.448862
C171	C	0.340542	-0.231423	-0.115528
C172	C	-0.401266	-0.890249	-0.752339
C173	C	-0.067933	-0.556916	-0.419006
C174	C	0.265401	-0.223583	-0.085672
C175	C	-0.347823	-0.932385	-0.984867
C176	C	-0.014490	-0.599052	-0.651534
C177	C	0.318844	-0.265719	-0.318200
C178	C	-0.347786	-0.932382	-1.050302
C179	C	-0.014453	-0.599048	-0.716969
C180	C	0.318881	-0.265715	-0.383636
C181	C	-0.454449	-0.848133	-1.054304
C182	C	-0.121116	-0.514800	-0.720970
C183	C	0.212217	-0.181467	-0.387637
C184	C	-0.454479	-0.848134	-0.988870
C185	C	-0.121146	-0.514801	-0.655536
C186	C	0.212187	-0.181467	-0.322203
C187	C	-0.401167	-0.890263	-0.954155
C188	C	-0.067834	-0.556930	-0.620822
C189	C	0.265499	-0.223597	-0.287488
C190	C	-0.401329	-0.890154	-0.154668
C191	C	-0.067995	-0.556821	0.178665
C192	C	0.265338	-0.223487	0.511998
C193	C	-0.401101	-0.890262	-0.085019
C194	C	-0.067768	-0.556929	0.248314
C195	C	0.265566	-0.223595	0.581648
H196	H	-0.915892	-0.837996	-0.369606
H197	H	-0.582559	-0.504663	-0.036273
H198	H	-0.249226	-0.171330	0.297061
O199	O	-0.290374	-0.260889	-0.230137
O200	O	0.042960	0.072445	0.103197
O201	O	0.376293	0.405778	0.436530
H202	H	-0.253245	-0.228554	-0.200914
H203	H	0.080088	0.104779	0.132420
H204	H	0.413422	0.438112	0.465753
O205	O	-0.874467	-0.953479	-0.254305
O206	O	-0.541134	-0.620146	0.079028
O207	O	-0.207800	-0.286812	0.412361
H208	H	-0.891179	-0.942141	-0.205743
H209	H	-0.557845	-0.608808	0.127590
H210	H	-0.224512	-0.275474	0.460923
O211	O	-0.512004	-0.802703	-0.955732
O212	O	-0.178670	-0.469369	-0.622398
O213	O	0.154663	-0.136036	-0.289065
H214	H	-0.474692	-0.772266	-0.924483
H215	H	-0.141359	-0.438932	-0.591149
H216	H	0.191974	-0.105599	-0.257816
H217	H	-0.537528	-0.875875	-0.763601
H218	H	-0.204195	-0.542542	-0.430268
H219	H	0.129139	-0.209209	-0.096934
H220	H	-0.498340	-0.647977	-0.393624
H221	H	-0.165007	-0.314644	-0.060291
H222	H	0.168326	0.018690	0.273043
O223	O	-0.511952	-0.802704	-1.091748
O224	O	-0.178618	-0.469371	-0.758415
O225	O	0.154715	-0.136037	-0.425082
H226	H	-0.497663	-0.754080	-1.078611
H227	H	-0.164330	-0.420747	-0.745278
H228	H	0.169004	-0.087414	-0.411945
H229	H	-0.498301	-0.529272	-0.393669
H230	H	-0.164968	-0.195939	-0.060336
H231	H	0.168365	0.137395	0.272997
H232	H	-0.413500	-0.330774	-0.420348
H233	H	-0.080167	0.002559	-0.087014
H234	H	0.253166	0.335892	0.246319
H235	H	-0.413538	-0.449485	-0.420307
H236	H	-0.080204	-0.116151	-0.086974
H237	H	0.253129	0.217182	0.246359
O238	O	-0.512137	-0.802687	-0.688112
O239	O	-0.178803	-0.469353	-0.354779
O240	O	0.154530	-0.136020	-0.021446
H241	H	-0.503162	-0.809769	-0.738773
H242	H	-0.169828	-0.476436	-0.405439
H243	H	0.163505	-0.143102	-0.072106
H244	H	-0.304430	-0.132990	-0.241303
H245	H	0.028903	0.200344	0.092030
H246	H	0.362236	0.533677	0.425363
H247	H	-0.389246	-0.331492	-0.214616
H248	H	-0.055913	0.001842	0.118717
H249	H	0.277421	0.335175	0.452051
H250	H	-0.498230	-0.244345	-0.393769
H251	H	-0.164897	0.088988	-0.060435
H252	H	0.168436	0.422321	0.272898
O253	O	-0.512411	-0.116445	-0.404843
O254	O	-0.179078	0.216888	-0.071509
O255	O	0.154256	0.550221	0.261824
H256	H	-0.549600	-0.148777	-0.434021
H257	H	-0.216267	0.184556	-0.100688
H258	H	0.117066	0.517889	0.232645
O259	O	-0.290317	-0.977820	-0.947424
O260	O	0.043017	-0.644487	-0.614091
O261	O	0.376350	-0.311153	-0.280757
H262	H	-0.327638	-1.008266	-0.919065
H263	H	0.005695	-0.674932	-0.585732
H264	H	0.339028	-0.341599	-0.252398
O265	O	-0.290450	-0.977800	-0.679812
O266	O	0.042884	-0.644467	-0.346478
O267	O	0.376217	-0.311133	-0.013145
H268	H	-0.304746	-1.026426	-0.667845
H269	H	0.028587	-0.693092	-0.334512
H270	H	0.361920	-0.359759	-0.001178
H271	H	-0.264916	-0.904471	-0.871941
H272	H	0.068417	-0.571138	-0.538607
H273	H	0.401750	-0.237805	-0.205274
H274	H	-0.389270	-0.450195	-0.214573
H275	H	-0.055936	-0.116862	0.118760
H276	H	0.277397	0.216471	0.452093
O277	O	-0.290441	-0.528517	-0.230039
O278	O	0.042893	-0.195184	0.103295
O279	O	0.376226	0.138150	0.436628
H280	H	-0.299411	-0.477180	-0.237107
H281	H	0.033922	-0.143846	0.096227
H282	H	0.367256	0.189487	0.429560
H283	H	-0.304559	-0.655335	-0.241122
H284	H	0.028774	-0.322002	0.092211
H285	H	0.362107	0.011332	0.425544
O286	O	-0.290511	-0.977803	-0.543789
O287	O	0.042823	-0.644470	-0.210455
O288	O	0.376156	-0.311137	0.122878
H289	H	-0.253412	-1.007093	-0.576141
H290	H	0.079921	-0.673760	-0.242808
H291	H	0.413254	-0.340427	0.090525
H292	H	-0.264969	-0.904469	-0.753231
H293	H	0.068364	-0.571136	-0.419897
H294	H	0.401697	-0.237802	-0.086564
H295	H	-0.304348	-0.966684	-1.075305
H296	H	0.028985	-0.633351	-0.741972
H297	H	0.362319	-0.300017	-0.408639
O298	O	-0.557337	-0.873969	-0.891714
O299	O	-0.224004	-0.540636	-0.558380
O300	O	0.109330	-0.207302	-0.225047
H301	H	-0.609584	-0.868508	-0.859957
H302	H	-0.276251	-0.535174	-0.526624
H303	H	0.057083	-0.201841	-0.193290
O304	O	-0.512171	-0.802665	-0.552105
O305	O	-0.178838	-0.469331	-0.218771
O306	O	0.154496	-0.135998	0.114562
H307	H	-0.549235	-0.773371	-0.587238
H308	H	-0.215901	-0.440038	-0.253905
H309	H	0.117432	-0.106705	0.079428
