data_functionalizedCrystal
_audit_creation_method	'MofGen! by Chris Wilmer'
_symmetry_space_group_name_H-M	'P1'
_symmetry_Int_Tables_number	1
_symmetry_cell_setting	triclinic
loop_
_symmetry_equiv_pos_as_xyz
  x,y,z
_cell_length_a	14.853566
_cell_length_b	14.853559
_cell_length_c	9.130307
_cell_angle_alpha	89.998895
_cell_angle_beta	90.001328
_cell_angle_gamma	83.632934
loop_
_atom_site_label
_atom_site_type_symbol
_atom_site_fract_x
_atom_site_fract_y
_atom_site_fract_z
O1	O	1.196358	0.117698	-0.121695
O2	O	0.933898	0.131720	-0.121719
O3	O	1.072143	-0.006521	-0.121705
O4	O	1.058113	0.255939	-0.121709
O5	O	1.072138	-0.006523	0.121894
O6	O	0.933894	0.131719	0.121880
O7	O	1.196354	0.117696	0.121904
Cu8	Cu	1.065123	0.124708	0.144135
Cu9	Cu	1.065129	0.124709	-0.143949
O10	O	1.058109	0.255938	0.121890
C11	C	0.900307	0.131085	0.000078
C12	C	0.800223	0.129181	0.000069
C13	C	1.071506	-0.040111	0.000092
C14	C	1.069605	-0.140195	0.000084
C15	C	0.377041	0.121131	-0.132691
C16	C	0.377058	0.121130	0.132890
C17	C	0.471092	0.122918	0.132885
C18	C	0.518105	0.123813	0.000090
C19	C	0.471084	0.122921	-0.132700
C20	C	0.518119	0.123819	0.265673
C21	C	0.612158	0.125607	0.265674
C22	C	0.659174	0.126496	0.132877
C23	C	0.612147	0.125604	0.000082
C24	C	0.659160	0.126499	-0.132713
C25	C	0.612136	0.125600	-0.265510
C26	C	0.518099	0.123811	-0.265496
C27	C	0.753210	0.128286	0.132863
C28	C	0.753202	0.128289	-0.132722
C29	C	1.061544	-0.563369	-0.132703
C30	C	1.061539	-0.563365	0.132878
C31	C	1.063333	-0.469332	0.132879
C32	C	1.064230	-0.422313	0.000087
C33	C	1.063335	-0.469327	-0.132706
C34	C	1.064219	-0.422310	0.265670
C35	C	1.066011	-0.328271	0.265677
C36	C	1.066916	-0.281250	0.132883
C37	C	1.066021	-0.328270	0.000085
C38	C	1.066919	-0.281251	-0.132707
C39	C	1.066031	-0.328270	-0.265507
C40	C	1.064239	-0.422307	-0.265499
C41	C	1.068708	-0.187214	0.132875
C42	C	1.068710	-0.187209	-0.132710
C43	C	1.229945	0.118332	0.000104
C44	C	1.330028	0.120236	0.000104
C45	C	1.058745	0.289528	0.000090
C46	C	1.060646	0.389612	0.000089
N47	N	1.065126	0.124706	0.346757
N48	N	1.065133	0.124704	-0.346572
C49	C	1.187592	0.002328	0.346760
C50	C	1.248830	-0.058858	0.423427
C51	C	1.248839	-0.058859	0.576761
C52	C	1.187601	0.002332	0.653430
C53	C	1.126362	0.063518	0.576762
C54	C	1.126362	0.063514	0.423425
C55	C	1.003894	0.185890	0.576760
C56	C	1.003888	0.185896	0.423426
C57	C	0.942656	0.247080	0.653429
C58	C	0.881420	0.308272	0.576761
C59	C	0.881414	0.308271	0.423418
C60	C	0.942649	0.247083	0.346759
H61	H	0.791474	0.129016	-0.240861
C62	C	0.814064	0.375575	0.661094
C63	C	0.814210	0.375717	0.829755
C64	C	0.746853	0.443023	0.914093
C65	C	0.679350	0.510186	0.829770
C66	C	0.679201	0.510046	0.661099
C67	C	0.746558	0.442741	0.576761
H68	H	0.864183	0.325997	0.892184
H69	H	0.746964	0.443125	1.038955
H70	H	0.629488	0.560009	0.892202
H71	H	0.629228	0.559766	0.598670
H72	H	0.746447	0.442638	0.451900
C73	C	0.325319	0.120144	-0.278762
C74	C	0.270815	0.040687	-0.315278
C75	C	0.219092	0.039700	-0.461349
C76	C	0.221873	0.118169	-0.570905
C77	C	0.276380	0.197631	-0.534392
C78	C	0.328103	0.198619	-0.388321
H79	H	0.268755	-0.017405	-0.234176
H80	H	0.178743	-0.019123	-0.488378
H81	H	0.183585	0.117438	-0.679035
H82	H	0.278440	0.255724	-0.615494
H83	H	0.368452	0.257442	-0.361292
H84	H	1.187598	0.002330	0.221907
H85	H	0.650425	0.126335	-0.373632
H86	H	1.069410	-0.148933	0.240999
C87	C	1.060525	-0.615092	0.278931
C88	C	0.982529	-0.592018	0.388443
C89	C	0.981504	-0.643753	0.534498
C90	C	1.058475	-0.718563	0.571040
C91	C	1.136477	-0.741642	0.461525
C92	C	1.137502	-0.689906	0.315470
H93	H	0.925545	-0.536635	0.361395
H94	H	0.923762	-0.626669	0.615568
H95	H	1.057717	-0.756861	0.679159
H96	H	1.193460	-0.797024	0.488573
H97	H	1.195244	-0.706991	0.234400
H98	H	1.063483	-0.460599	0.373782
C99	C	1.060565	-0.615085	-0.278777
C100	C	1.139036	-0.612295	-0.388320
C101	C	1.138057	-0.664013	-0.534394
C102	C	1.058605	-0.718520	-0.570925
C103	C	0.980128	-0.721313	-0.461379
C104	C	0.981107	-0.669595	-0.315305
H105	H	1.197856	-0.571944	-0.361280
H106	H	1.196151	-0.661946	-0.615486
H107	H	1.057880	-0.756805	-0.679057
H108	H	0.921307	-0.761664	-0.488419
H109	H	0.923013	-0.671662	-0.234212
C110	C	1.316192	-0.126165	0.339094
C111	C	1.316214	-0.126152	0.170433
C112	C	1.383575	-0.193460	0.086108
C113	C	1.450914	-0.260781	0.170444
C114	C	1.450895	-0.260796	0.339115
C115	C	1.383534	-0.193488	0.423440
H116	H	1.266363	-0.076315	0.107993
H117	H	1.383589	-0.193449	-0.038754
H118	H	1.500779	-0.310607	0.108022
H119	H	1.500746	-0.310633	0.401555
H120	H	1.383520	-0.193499	0.548302
H121	H	0.479804	0.123077	-0.373613
C122	C	0.804929	0.129281	0.278930
C123	C	0.879719	0.052292	0.315477
C124	C	0.931433	0.053287	0.461556
C125	C	0.908357	0.131272	0.571088
C126	C	0.833563	0.208267	0.534543
C127	C	0.781849	0.207271	0.388465
H128	H	0.896805	-0.005443	0.234392
H129	H	0.986801	-0.003710	0.488607
H130	H	0.946639	0.132009	0.679224
H131	H	0.816477	0.266001	0.615628
H132	H	0.726481	0.264268	0.361413
H133	H	1.069445	-0.148933	-0.240847
H134	H	1.066756	-0.289974	-0.373626
H135	H	0.338773	0.120407	0.241005
H136	H	0.479833	0.123096	0.373787
H137	H	0.942662	0.247074	0.778281
H138	H	0.650438	0.126338	0.373805
H139	H	1.063515	-0.460598	-0.373618
H140	H	1.066738	-0.289996	0.373811
H141	H	1.298702	-0.108685	0.639184
H142	H	1.187605	0.002320	0.778282
H143	H	0.831543	0.358093	0.361003
H144	H	0.942653	0.247079	0.221906
