data_functionalizedCrystal
_audit_creation_method	'MofGen! by Chris Wilmer'
_symmetry_space_group_name_H-M	'P1'
_symmetry_Int_Tables_number	1
_symmetry_cell_setting	triclinic
loop_
_symmetry_equiv_pos_as_xyz
  x,y,z
_cell_length_a	14.519709
_cell_length_b	10.654550
_cell_length_c	13.596369
_cell_angle_alpha	90.000219
_cell_angle_beta	89.999684
_cell_angle_gamma	95.917462
loop_
_atom_site_label
_atom_site_type_symbol
_atom_site_fract_x
_atom_site_fract_y
_atom_site_fract_z
O1	O	1.224724	-0.164615	-0.081663
O2	O	0.956347	-0.184001	-0.081693
O3	O	1.096706	0.008491	-0.081671
O4	O	1.084365	-0.357107	-0.081685
O5	O	1.096689	0.008480	0.081912
O6	O	0.956330	-0.184012	0.081890
O7	O	1.224706	-0.164625	0.081920
Zn8	Zn	1.090515	-0.174320	0.107877
Zn9	Zn	1.090538	-0.174306	-0.107650
O10	O	1.084348	-0.357117	0.081898
C11	C	0.921974	-0.183103	0.000095
C12	C	0.819579	-0.180396	0.000083
N13	N	1.090506	-0.174329	0.254969
C14	C	1.095791	0.055275	0.000120
C15	C	1.093080	0.194692	0.000118
C16	C	0.444631	-0.170428	0.000128
C17	C	0.548954	-0.173196	0.000116
C18	C	0.632102	-0.175412	0.000105
C19	C	0.736431	-0.178180	0.000094
C20	C	1.259079	-0.165524	0.000130
C21	C	1.361475	-0.168231	0.000135
C22	C	1.085262	-0.403901	0.000105
C23	C	1.087973	-0.543318	0.000100
C24	C	1.175721	0.274972	0.000127
C25	C	1.173168	0.405968	0.000115
C26	C	1.005326	0.376391	0.000089
C27	C	1.007880	0.245397	0.000094
N28	N	1.090554	-0.174288	-0.254742
C29	C	1.090511	-0.174332	0.343967
C30	C	1.090520	-0.174323	0.455618
C31	C	1.090532	-0.174309	0.544609
C32	C	1.090542	-0.174302	0.656267
H33	H	1.245096	0.233692	0.000144
H34	H	0.935959	0.417692	0.000071
H35	H	1.240463	0.471328	0.000120
H36	H	0.940579	0.180029	0.000084
