data_functionalizedCrystal
_audit_creation_method	'MofGen! by Chris Wilmer'
_symmetry_space_group_name_H-M	'P1'
_symmetry_Int_Tables_number	1
_symmetry_cell_setting	triclinic
loop_
_symmetry_equiv_pos_as_xyz
  x,y,z
_cell_length_a	19.805407
_cell_length_b	18.101395
_cell_length_c	19.805380
_cell_angle_alpha	89.896172
_cell_angle_beta	89.929483
_cell_angle_gamma	90.031104
loop_
_atom_site_label
_atom_site_type_symbol
_atom_site_fract_x
_atom_site_fract_y
_atom_site_fract_z
Zn1	Zn	1.035054	-0.294271	-0.382732
Zn2	Zn	1.368388	0.039062	-0.049399
Zn3	Zn	1.701721	0.372395	0.283934
Zn4	Zn	1.034859	-0.418285	-0.269549
Zn5	Zn	1.368192	-0.084952	0.063785
Zn6	Zn	1.701526	0.248382	0.397118
Zn7	Zn	0.921768	-0.294462	-0.269557
Zn8	Zn	1.255101	0.038871	0.063777
Zn9	Zn	1.588435	0.372205	0.397110
Zn10	Zn	0.921823	-0.418076	-0.382696
Zn11	Zn	1.255156	-0.084742	-0.049362
Zn12	Zn	1.588490	0.248591	0.283971
O13	O	0.978376	-0.356273	-0.326133
O14	O	1.311709	-0.022940	0.007200
O15	O	1.645043	0.310393	0.340533
O16	O	1.129745	-0.310730	-0.367730
O17	O	1.463078	0.022603	-0.034397
O18	O	1.796412	0.355937	0.298936
O19	O	1.019753	-0.402027	-0.174833
O20	O	1.353086	-0.068694	0.158501
O21	O	1.686419	0.264640	0.491834
O22	O	0.936854	-0.190804	-0.284588
O23	O	1.270188	0.142530	0.048745
O24	O	1.603521	0.475863	0.382078
O25	O	1.129601	-0.401842	-0.284575
O26	O	1.462935	-0.068509	0.048759
O27	O	1.796268	0.264824	0.382092
O28	O	1.020085	-0.190664	-0.367738
O29	O	1.353419	0.142670	-0.034405
O30	O	1.686752	0.476003	0.298929
O31	O	0.936665	-0.311055	-0.174839
O32	O	1.269999	0.022279	0.158495
O33	O	1.603332	0.355612	0.491828
O34	O	0.827059	-0.310852	-0.284553
O35	O	1.160392	0.022482	0.048781
O36	O	1.493726	0.355815	0.382114
O37	O	0.936948	-0.401485	-0.477418
O38	O	1.270281	-0.068152	-0.144084
O39	O	1.603615	0.265181	0.189249
O40	O	0.827099	-0.401670	-0.367676
O41	O	1.160433	-0.068337	-0.034342
O42	O	1.493766	0.264997	0.298991
O43	O	1.020138	-0.310527	-0.477444
O44	O	1.353472	0.022807	-0.144111
O45	O	1.686805	0.356140	0.189222
O46	O	1.019806	-0.521890	-0.284539
O47	O	1.353139	-0.188557	0.048794
O48	O	1.686473	0.144776	0.382127
O49	O	0.936759	-0.521736	-0.367668
O50	O	1.270092	-0.188403	-0.034335
O51	O	1.603425	0.144930	0.298999
C52	C	0.802520	-0.356259	-0.326112
C53	C	1.135853	-0.022926	0.007222
C54	C	1.469187	0.310407	0.340555
C55	C	0.727288	-0.356271	-0.326118
C56	C	1.060621	-0.022938	0.007215
C57	C	1.393955	0.310396	0.340548
C58	C	0.978286	-0.548684	-0.326113
C59	C	1.311619	-0.215351	0.007220
C60	C	1.644952	0.117983	0.340553
C61	C	0.978309	-0.630998	-0.326128
C62	C	1.311642	-0.297665	0.007206
C63	C	1.644975	0.035669	0.340539
C64	C	0.691983	-0.403632	-0.369330
C65	C	1.025316	-0.070298	-0.035997
C66	C	1.358649	0.263035	0.297336
C67	C	0.621294	-0.403633	-0.369340
C68	C	0.954627	-0.070300	-0.036006
C69	C	1.287961	0.263034	0.297327
C70	C	0.585913	-0.356277	-0.326133
C71	C	0.919246	-0.022944	0.007200
C72	C	1.252579	0.310390	0.340533
C73	C	0.621223	-0.308911	-0.282919
C74	C	0.954556	0.024422	0.050414
C75	C	1.287890	0.357756	0.383747
C76	C	0.691910	-0.308907	-0.282914
C77	C	1.025243	0.024427	0.050419
C78	C	1.358577	0.357760	0.383753
C79	C	0.336150	-0.308927	-0.282942
C80	C	0.669483	0.024406	0.050391
C81	C	1.002816	0.357739	0.383725
C82	C	0.265458	-0.308937	-0.282949
C83	C	0.598791	0.024396	0.050384
C84	C	0.932124	0.357730	0.383717
C85	C	0.265534	-0.403654	-0.369368
C86	C	0.598867	-0.070320	-0.036034
C87	C	0.932200	0.263013	0.297299
C88	C	0.336221	-0.403649	-0.369362
C89	C	0.669554	-0.070316	-0.036029
C90	C	1.002888	0.263017	0.297305
C91	C	0.371525	-0.356281	-0.326151
C92	C	0.704858	-0.022948	0.007182
C93	C	1.038192	0.310386	0.340516
C94	C	0.448174	-0.356279	-0.326142
C95	C	0.781507	-0.022946	0.007191
C96	C	1.114840	0.310387	0.340525
C97	C	0.509265	-0.356282	-0.326138
C98	C	0.842599	-0.022949	0.007195
C99	C	1.175932	0.310385	0.340528
C100	C	0.978457	-0.930089	-0.326164
C101	C	1.311791	-0.596756	0.007169
C102	C	1.645124	-0.263422	0.340503
C103	C	0.926328	-0.898698	-0.378596
C104	C	1.259661	-0.565364	-0.045263
C105	C	1.592994	-0.232031	0.288070
C106	C	0.926080	-0.813080	-0.378432
C107	C	1.259413	-0.479747	-0.045099
C108	C	1.592746	-0.146413	0.288234
C109	C	0.978384	-0.781707	-0.326147
C110	C	1.311717	-0.448373	0.007187
C111	C	1.645050	-0.115040	0.340520
C112	C	0.959009	-0.812962	-0.254812
C113	C	1.292343	-0.479629	0.078522
C114	C	1.625676	-0.146295	0.411855
C115	C	0.958673	-0.898607	-0.255125
C116	C	1.292007	-0.565274	0.078208
C117	C	1.625340	-0.231940	0.411541
C118	C	1.050075	-0.898406	-0.344439
C119	C	1.383408	-0.565073	-0.011106
C120	C	1.716741	-0.231739	0.322228
C121	C	1.049655	-0.812753	-0.346003
C122	C	1.382988	-0.479419	-0.012670
C123	C	1.716322	-0.146086	0.320663
C124	C	0.978343	-0.697847	-0.326132
C125	C	1.311676	-0.364514	0.007201
C126	C	1.645010	-0.031180	0.340534
C127	C	0.978496	-1.013948	-0.326174
C128	C	1.311829	-0.680615	0.007160
C129	C	1.645163	-0.347282	0.340493
C130	C	1.154919	-0.356288	-0.326156
C131	C	1.488252	-0.022955	0.007178
C132	C	1.821585	0.310378	0.340511
C133	C	1.230151	-0.356294	-0.326165
C134	C	1.563484	-0.022961	0.007168
C135	C	1.896817	0.310372	0.340501
C136	C	0.978571	-0.355961	-0.502677
C137	C	1.311905	-0.022628	-0.169343
C138	C	1.645238	0.310705	0.163990
C139	C	0.978654	-0.355828	-0.577909
C140	C	1.311988	-0.022495	-0.244576
C141	C	1.645321	0.310838	0.088758
C142	C	0.978485	-0.163111	-0.326168
C143	C	1.311819	0.170222	0.007165
C144	C	1.645152	0.503555	0.340498
C145	C	0.978532	-0.080797	-0.326183
C146	C	1.311865	0.252536	0.007150
C147	C	1.645199	0.585869	0.340484
C148	C	0.978221	-0.356531	-0.150277
C149	C	1.311554	-0.023198	0.183056
C150	C	1.644887	0.310136	0.516390
C151	C	0.978269	-0.356455	-0.075045
C152	C	1.311602	-0.023122	0.258288
C153	C	1.644935	0.310211	0.591622
C154	C	0.935056	-0.308852	0.386710
C155	C	1.268390	0.024481	0.720043
C156	C	1.601723	0.357814	1.053377
C157	C	0.934999	-0.308944	0.316022
C158	C	1.268332	0.024390	0.649355
C159	C	1.601665	0.357723	0.982688
C160	C	0.978543	-0.356008	0.280716
C161	C	1.311876	-0.022674	0.614049
C162	C	1.645210	0.310659	0.947382
C163	C	1.022143	-0.402989	0.316102
C164	C	1.355476	-0.069655	0.649435
C165	C	1.688810	0.263678	0.982768
C166	C	1.022197	-0.402901	0.386789
C167	C	1.355530	-0.069567	0.720122
C168	C	1.688863	0.263766	1.053455
C169	C	1.021926	-0.403345	0.031029
C170	C	1.355260	-0.070012	0.364363
C171	C	1.688593	0.263321	0.697696
C172	C	1.021871	-0.403428	-0.039663
C173	C	1.355204	-0.070095	0.293671
C174	C	1.688537	0.263239	0.627004
C175	C	0.934728	-0.309388	-0.039738
C176	C	1.268062	0.023945	0.293596
C177	C	1.601395	0.357279	0.626929
C178	C	0.934782	-0.309300	0.030949
C179	C	1.268115	0.024033	0.364282
C180	C	1.601449	0.357366	0.697616
C181	C	0.978379	-0.356284	0.066329
C182	C	1.311713	-0.022950	0.399662
C183	C	1.645046	0.310383	0.732996
C184	C	0.978440	-0.356185	0.142977
C185	C	1.311774	-0.022852	0.476311
C186	C	1.645107	0.310481	0.809644
C187	C	0.978486	-0.356103	0.204069
C188	C	1.311819	-0.022769	0.537402
C189	C	1.645152	0.310564	0.870736
H190	H	0.592552	-0.442199	-0.404527
H191	H	0.925885	-0.108866	-0.071193
H192	H	1.259218	0.224467	0.262140
O193	O	0.729990	-0.257832	-0.236297
O194	O	1.063323	0.075502	0.097036
O195	O	1.396656	0.408835	0.430370
H196	H	0.716459	-0.199709	-0.247993
H197	H	1.049792	0.133625	0.085341
H198	H	1.383125	0.466958	0.418674
O199	O	1.068838	-0.454197	-0.077741
O200	O	1.402172	-0.120864	0.255592
O201	O	1.735505	0.212470	0.588925
H202	H	1.061480	-0.446356	-0.132838
H203	H	1.394814	-0.113023	0.200495
H204	H	1.728147	0.220311	0.533828
O205	O	0.888093	-0.258087	0.424789
O206	O	1.221427	0.075246	0.758123
O207	O	1.554760	0.408580	1.091456
H208	H	0.857764	-0.225441	0.388308
H209	H	1.191097	0.107892	0.721641
H210	H	1.524431	0.441225	1.054975
O211	O	0.942131	-0.785048	-0.448491
O212	O	1.275465	-0.451715	-0.115158
O213	O	1.608798	-0.118381	0.218176
H214	H	0.899401	-0.751102	-0.467225
H215	H	1.232734	-0.417768	-0.133892
H216	H	1.566067	-0.084435	0.199442
O217	O	0.887981	-0.258271	0.277858
O218	O	1.221315	0.075063	0.611191
O219	O	1.554648	0.408396	0.944525
H220	H	0.857719	-0.225521	0.314284
H221	H	1.191053	0.107812	0.647617
H222	H	1.524386	0.441146	0.980950
H223	H	0.236780	-0.442220	-0.404555
H224	H	0.570114	-0.108887	-0.071222
H225	H	0.903447	0.224446	0.262112
H226	H	0.899326	-0.270973	0.059692
H227	H	1.232659	0.062360	0.393025
H228	H	1.565993	0.395693	0.726358
H229	H	1.067726	-0.919879	-0.395570
H230	H	1.401060	-0.586546	-0.062236
H231	H	1.734393	-0.253213	0.271097
H232	H	0.906319	-0.918672	-0.239645
H233	H	1.239653	-0.585339	0.093688
H234	H	1.572986	-0.252006	0.427022
O235	O	1.069022	-0.785669	-0.415537
O236	O	1.402355	-0.452335	-0.082203
O237	O	1.735689	-0.119002	0.251130
H238	H	1.028064	-0.750240	-0.435874
H239	H	1.361397	-0.416907	-0.102541
H240	H	1.694731	-0.083573	0.230793
H241	H	0.592410	-0.270350	-0.247743
H242	H	0.925743	0.062984	0.085590
H243	H	1.259076	0.396317	0.418924
H244	H	1.057704	-0.441148	0.415595
H245	H	1.391037	-0.107815	0.748928
H246	H	1.724370	0.225519	1.082262
H247	H	0.720785	-0.442197	-0.404512
H248	H	1.054119	-0.108864	-0.071178
H249	H	1.387452	0.224470	0.262155
H250	H	0.938337	-0.919168	-0.431662
H251	H	1.271670	-0.585834	-0.098328
H252	H	1.605003	-0.252501	0.235005
O253	O	1.069105	-0.453758	0.278026
O254	O	1.402439	-0.120425	0.611359
O255	O	1.735772	0.212909	0.944693
H256	H	1.122159	-0.440631	0.291458
H257	H	1.455493	-0.107297	0.624791
H258	H	1.788826	0.226036	0.958124
H259	H	0.995781	-0.792651	-0.214680
H260	H	1.329114	-0.459317	0.118653
H261	H	1.662447	-0.125984	0.451986
O262	O	0.890393	-0.784677	-0.233933
O263	O	1.223726	-0.451343	0.099401
O264	O	1.557059	-0.118010	0.432734
H265	H	0.869979	-0.748368	-0.274243
H266	H	1.203312	-0.415035	0.059090
H267	H	1.536646	-0.081702	0.392424
H268	H	0.873567	-0.920302	-0.366643
H269	H	1.206900	-0.586968	-0.033310
H270	H	1.540234	-0.253635	0.300023
O271	O	0.887699	-0.258713	-0.077896
O272	O	1.221033	0.074620	0.255437
O273	O	1.554366	0.407954	0.588771
H274	H	0.898979	-0.200487	-0.064507
H275	H	1.232312	0.132846	0.268826
H276	H	1.565645	0.466180	0.602160
H277	H	1.090554	-0.791392	-0.310598
H278	H	1.423887	-0.458059	0.022735
H279	H	1.757221	-0.124725	0.356069
O280	O	1.068963	-0.453999	0.069186
O281	O	1.402297	-0.120666	0.402519
O282	O	1.735630	0.212668	0.735852
H283	H	1.099242	-0.486727	0.032757
H284	H	1.432575	-0.153394	0.366091
H285	H	1.765908	0.179939	0.699424
O286	O	0.227291	-0.257852	-0.236353
O287	O	0.560625	0.075482	0.096981
O288	O	0.893958	0.408815	0.430314
H289	H	0.263716	-0.224906	-0.206309
H290	H	0.597049	0.108427	0.127024
H291	H	0.930382	0.441761	0.460357
O292	O	0.374213	-0.257856	-0.236315
O293	O	0.707547	0.075478	0.097018
O294	O	1.040880	0.408811	0.430352
H295	H	0.360681	-0.199731	-0.248002
H296	H	0.694014	0.133602	0.085332
H297	H	1.027348	0.466936	0.418665
H298	H	0.872996	-0.792674	-0.366327
H299	H	1.206330	-0.459341	-0.032994
H300	H	1.539663	-0.126008	0.300340
H301	H	0.365025	-0.442214	-0.404543
H302	H	0.698358	-0.108881	-0.071210
H303	H	1.031692	0.224453	0.262124
H304	H	0.994992	-0.919383	-0.214727
H305	H	1.328325	-0.586050	0.118606
H306	H	1.661658	-0.252717	0.451939
O307	O	1.101561	-0.925467	-0.293969
O308	O	1.434895	-0.592134	0.039364
O309	O	1.768228	-0.258801	0.372698
H310	H	1.076305	-0.961287	-0.256037
H311	H	1.409639	-0.627954	0.077297
H312	H	1.742972	-0.294621	0.410630
