data_functionalizedCrystal
_audit_creation_method	'MofGen! by Chris Wilmer'
_symmetry_space_group_name_H-M	'P1'
_symmetry_Int_Tables_number	1
_symmetry_cell_setting	triclinic
loop_
_symmetry_equiv_pos_as_xyz
  x,y,z
_cell_length_a	6.817900
_cell_length_b	10.943574
_cell_length_c	10.943624
_cell_angle_alpha	91.772393
_cell_angle_beta	108.838799
_cell_angle_gamma	108.837846
loop_
_atom_site_label
_atom_site_type_symbol
_atom_site_fract_x
_atom_site_fract_y
_atom_site_fract_z
V1	V	-4.115492	-0.178596	-0.402524
O2	O	-4.073204	0.008617	-0.394890
O3	O	-4.093439	-0.354160	-0.399743
O4	O	-4.093454	-0.175834	-0.578091
O5	O	-4.073188	-0.170944	-0.215308
V6	V	-4.592290	-0.156205	-0.380134
O7	O	-4.391502	-0.227713	-0.451636
O8	O	-4.766477	-0.107089	-0.331022
O9	O	-4.391136	0.019358	-0.382915
O10	O	-4.751974	-0.343419	-0.387769
O11	O	-4.751990	-0.163858	-0.567350
O12	O	-4.391120	-0.158968	-0.204568
C13	C	-3.943996	-0.396959	-0.393386
C14	C	-4.007427	-0.540485	-0.392284
C15	C	-3.890258	-0.703489	-0.384276
C16	C	-4.003635	-0.637681	-0.495234
C17	C	-3.893183	-0.604393	-0.281389
C18	C	-4.233990	-0.730421	-0.501411
C19	C	-4.123465	-0.697124	-0.287470
C20	C	-4.237013	-0.631364	-0.398458
C21	C	-3.944014	-0.169485	-0.620884
C22	C	-4.007454	-0.168388	-0.764411
C23	C	-3.852284	-0.161001	-0.841560
C24	C	-4.041640	-0.270645	-0.947533
C25	C	-3.931163	-0.056802	-0.914179
C26	C	-4.196021	-0.278135	-0.868507
C27	C	-4.085464	-0.064194	-0.835130
C28	C	-4.274957	-0.173870	-0.941074
C29	C	-4.203921	0.062151	-0.389268
C30	C	-4.119730	0.205675	-0.390379
C31	C	-4.203902	-0.165321	-0.161767
C32	C	-4.119700	-0.166411	-0.018239
H33	H	-4.378572	-0.784968	-0.594490
O34	O	-3.638391	-0.154453	-0.789613
C35	C	-3.271989	-0.033857	-0.637290
C36	C	-3.514123	-0.041086	-0.696034
H37	H	-3.171459	0.057779	-0.561600
H38	H	-3.199566	-0.030262	-0.718127
H39	H	-3.265729	-0.123802	-0.588590
H40	H	-3.520578	0.048837	-0.744723
H41	H	-3.586442	-0.044744	-0.615144
H42	H	-4.023777	-0.357925	-0.996468
O43	O	-4.328643	-0.389814	-0.843766
C44	C	-4.417325	-0.516128	-0.679890
C45	C	-4.266959	-0.389611	-0.707729
H46	H	-4.367539	-0.515993	-0.569907
H47	H	-4.398921	-0.604069	-0.727250
H48	H	-4.596961	-0.521943	-0.721918
H49	H	-4.087264	-0.383669	-0.665703
H50	H	-4.285553	-0.301730	-0.660394
O51	O	-3.942822	-0.606175	-0.600180
C52	C	-4.051650	-0.636922	-0.834707
C53	C	-4.120807	-0.672739	-0.715980
H54	H	-4.195527	-0.690700	-0.928361
H55	H	-3.903312	-0.666366	-0.828678
H56	H	-4.004943	-0.527094	-0.834971
H57	H	-4.167627	-0.782557	-0.715641
H58	H	-4.269070	-0.643201	-0.722053
H59	H	-4.383203	-0.599718	-0.404497
O60	O	-4.488742	-0.180150	-0.992694
C61	C	-4.738817	-0.075266	-1.109565
C62	C	-4.496608	-0.067966	-1.051132
H63	H	-4.745259	0.015410	-1.156850
H64	H	-4.811754	-0.080592	-1.028822
H65	H	-4.838775	-0.166085	-1.186364
H66	H	-4.396471	0.022845	-0.974348
H67	H	-4.423845	-0.062711	-1.131947
O68	O	-3.798524	0.054927	-0.938833
C69	C	-3.669162	0.290169	-0.907111
C70	C	-3.819525	0.163746	-0.879123
H71	H	-3.686054	0.378182	-0.858828
H72	H	-3.720230	0.290502	-1.017066
H73	H	-3.489743	0.295409	-0.866084
H74	H	-3.998986	0.158424	-0.920069
H75	H	-3.768269	0.163465	-0.769159
H76	H	-4.174655	-0.723695	-0.199608
O77	O	-3.720359	-0.539295	-0.170500
C78	C	-3.341480	-0.501896	-0.037834
C79	C	-3.537049	-0.575718	-0.163437
H80	H	-3.193211	-0.531296	-0.032096
H81	H	-3.390883	-0.527397	0.050819
H82	H	-3.295526	-0.392258	-0.039287
H83	H	-3.583099	-0.685373	-0.162112
H84	H	-3.487541	-0.550109	-0.252035
H85	H	-3.744387	-0.735399	-0.378404
H86	H	-4.103243	0.023090	-0.786160
