data_functionalizedCrystal
_audit_creation_method	'MofGen! by Chris Wilmer'
_symmetry_space_group_name_H-M	'P1'
_symmetry_Int_Tables_number	1
_symmetry_cell_setting	triclinic
loop_
_symmetry_equiv_pos_as_xyz
  x,y,z
_cell_length_a	17.077402
_cell_length_b	12.759401
_cell_length_c	12.759393
_cell_angle_alpha	89.980198
_cell_angle_beta	89.965312
_cell_angle_gamma	90.021969
loop_
_atom_site_label
_atom_site_type_symbol
_atom_site_fract_x
_atom_site_fract_y
_atom_site_fract_z
Zn1	Zn	-0.312489	1.606207	-0.593958
Zn2	Zn	0.187511	2.106207	-0.093958
Zn3	Zn	-0.443775	1.606073	-0.418265
Zn4	Zn	0.056225	2.106073	0.081735
Zn5	Zn	-0.312526	1.430505	-0.418296
Zn6	Zn	0.187474	1.930505	0.081704
Zn7	Zn	-0.443715	1.430472	-0.593906
Zn8	Zn	0.056285	1.930472	-0.093906
O9	O	-0.378126	1.518314	-0.506106
O10	O	0.121874	2.018314	-0.006106
O11	O	-0.329915	1.753210	-0.570660
O12	O	0.170085	2.253210	-0.070660
O13	O	-0.426405	1.582741	-0.271248
O14	O	0.073595	2.082741	0.228752
O15	O	-0.202674	1.453882	-0.441633
O16	O	0.297326	1.953882	0.058367
O17	O	-0.426370	1.753111	-0.441580
O18	O	0.073630	2.253111	0.058420
O19	O	-0.202647	1.582969	-0.570691
O20	O	0.297353	2.082969	-0.070691
O21	O	-0.329977	1.453753	-0.271271
O22	O	0.170023	1.953753	0.228729
O23	O	-0.329918	1.283480	-0.441583
O24	O	0.170082	1.783480	0.058417
O25	O	-0.426267	1.453826	-0.740934
O26	O	0.073733	1.953826	-0.240934
O27	O	-0.426302	1.283456	-0.570602
O28	O	0.073698	1.783456	-0.070602
O29	O	-0.329856	1.582937	-0.740972
O30	O	0.170144	2.082937	-0.240972
O31	O	-0.553614	1.582709	-0.441529
O32	O	-0.053614	2.082709	0.058471
O33	O	-0.553570	1.453696	-0.570572
O34	O	-0.053570	1.953696	-0.070572
C35	C	-0.378108	1.245347	-0.506091
C36	C	0.121892	1.745347	-0.006091
C37	C	-0.378119	1.128570	-0.506109
C38	C	0.121881	1.628570	-0.006109
C39	C	-0.328004	0.964023	-0.573432
C40	C	0.171996	1.464023	-0.073432
C41	C	-0.327988	1.073747	-0.573425
C42	C	0.172012	1.573747	-0.073425
C43	C	-0.428274	1.073664	-0.438803
C44	C	0.071726	1.573664	0.061197
C45	C	-0.428293	0.963942	-0.438816
C46	C	0.071707	1.463942	0.061184
C47	C	-0.582074	1.518213	-0.506064
C48	C	-0.082074	2.018213	-0.006064
C49	C	-0.669324	1.518265	-0.506081
C50	C	-0.169324	2.018265	-0.006081
C51	C	-0.710311	1.585511	-0.438961
C52	C	-0.210311	2.085511	0.061039
C53	C	-0.792292	1.585563	-0.438988
C54	C	-0.292292	2.085563	0.061012
C55	C	-0.833283	1.518362	-0.506130
C56	C	-0.333283	2.018362	-0.006130
C57	C	-0.792290	1.451114	-0.573258
C58	C	-0.292290	1.951114	-0.073258
C59	C	-0.710311	1.451068	-0.573236
C60	C	-0.210311	1.951068	-0.073236
C61	C	-0.963160	1.451211	-0.573298
C62	C	-0.463160	1.951211	-0.073298
C63	C	-1.045145	1.451255	-0.573319
C64	C	-0.545145	1.951255	-0.073319
C65	C	-1.045141	1.585705	-0.439050
C66	C	-0.545141	2.085705	0.060950
C67	C	-0.963162	1.585660	-0.439028
C68	C	-0.463162	2.085660	0.060972
C69	C	-0.922174	1.518410	-0.506154
C70	C	-0.422174	2.018410	-0.006154
C71	C	-0.173382	1.518445	-0.506171
C72	C	0.326618	2.018445	-0.006171
C73	C	-0.086132	1.518500	-0.506199
C74	C	0.413868	2.018500	-0.006199
C75	C	-0.378051	1.518393	-0.780140
C76	C	0.121949	2.018393	-0.280140
C77	C	-0.378019	1.518426	-0.896916
C78	C	0.121981	2.018426	-0.396916
C79	C	-0.378145	1.792347	-0.506122
C80	C	0.121855	2.292347	-0.006122
C81	C	-0.378153	1.909124	-0.506129
C82	C	0.121847	2.409124	-0.006129
C83	C	-0.327810	1.585660	-0.951800
C84	C	0.172190	2.085660	-0.451800
C85	C	-0.327776	1.585677	-1.061524
C86	C	0.172224	2.085677	-0.561524
C87	C	-0.428167	1.451226	-1.061471
C88	C	0.071833	1.951226	-0.561471
C89	C	-0.428196	1.451203	-0.951749
C90	C	0.071804	1.951203	-0.451749
C91	C	-0.378145	1.518296	-0.233139
C92	C	0.121855	2.018296	0.266861
C93	C	-0.377956	1.518466	-0.116363
C94	C	0.122044	2.018466	0.383637
H95	H	-0.469135	0.919242	-0.384009
H96	H	0.030865	1.419242	0.115991
H97	H	-0.676941	1.640229	-0.384281
H98	H	-0.176941	2.140229	0.115719
H99	H	-1.078516	1.640466	-0.384397
H100	H	-0.578516	2.140466	0.115603
Cl101	Cl	-0.843815	1.670107	-0.354607
Cl102	Cl	-0.343815	2.170107	0.145393
Cl103	Cl	-0.491317	1.366668	-0.882747
Cl104	Cl	0.008683	1.866668	-0.382747
H105	H	-1.078518	1.396554	-0.628012
H106	H	-0.578518	1.896554	-0.128012
Cl107	Cl	-0.911635	1.366668	-0.657689
Cl108	Cl	-0.411635	1.866668	-0.157689
H109	H	-0.287177	0.919394	-0.628243
H110	H	0.212823	1.419394	-0.128243
H111	H	-0.287152	1.118441	-0.628231
H112	H	0.212848	1.618441	-0.128231
H113	H	-0.929786	1.640374	-0.384350
H114	H	-0.429786	2.140374	0.115650
H115	H	-0.825672	1.396402	-0.627931
H116	H	-0.325672	1.896402	-0.127931
Cl117	Cl	-0.264726	1.670164	-0.882871
Cl118	Cl	0.235274	2.170164	-0.382871
H119	H	-0.676940	1.396311	-0.627893
H120	H	-0.176940	1.896311	-0.127893
H121	H	-0.286889	1.640424	-1.106205
H122	H	0.213111	2.140424	-0.606205
Cl123	Cl	-0.491248	1.366727	-1.130412
Cl124	Cl	0.008752	1.866727	-0.630412
H125	H	-0.469095	1.118309	-0.383997
H126	H	0.030905	1.618309	0.116003
