data_functionalizedCrystal
_audit_creation_method	'MofGen! by Chris Wilmer'
_symmetry_space_group_name_H-M	'P1'
_symmetry_Int_Tables_number	1
_symmetry_cell_setting	triclinic
loop_
_symmetry_equiv_pos_as_xyz
  x,y,z
_cell_length_a	12.759395
_cell_length_b	18.101397
_cell_length_c	12.759387
_cell_angle_alpha	90.037018
_cell_angle_beta	90.020509
_cell_angle_gamma	90.022002
loop_
_atom_site_label
_atom_site_type_symbol
_atom_site_fract_x
_atom_site_fract_y
_atom_site_fract_z
Zn1	Zn	1.606227	-0.294760	0.593960
Zn2	Zn	2.106227	0.205240	1.093960
Zn3	Zn	1.606100	-0.418620	0.418261
Zn4	Zn	2.106100	0.081380	0.918261
Zn5	Zn	1.430525	-0.294801	0.418297
Zn6	Zn	1.930525	0.205199	0.918297
Zn7	Zn	1.430499	-0.418568	0.593900
Zn8	Zn	1.930499	0.081432	1.093900
O9	O	1.518338	-0.356687	0.506104
O10	O	2.018338	0.143313	1.006104
O11	O	1.753231	-0.311196	0.570663
O12	O	2.253231	0.188804	1.070663
O13	O	1.582767	-0.402234	0.271245
O14	O	2.082767	0.097766	0.771245
O15	O	1.453896	-0.191162	0.441638
O16	O	1.953896	0.308838	0.941638
O17	O	1.753137	-0.402195	0.441578
O18	O	2.253137	0.097805	0.941578
O19	O	1.582983	-0.191133	0.570697
O20	O	2.082983	0.308867	1.070697
O21	O	1.453773	-0.311264	0.271271
O22	O	1.953773	0.188736	0.771271
O23	O	1.283500	-0.311213	0.441581
O24	O	1.783500	0.188787	0.941581
O25	O	1.453853	-0.402105	0.740929
O26	O	1.953853	0.097895	1.240929
O27	O	1.283482	-0.402145	0.570596
O28	O	1.783482	0.097855	1.070596
O29	O	1.582959	-0.311145	0.740973
O30	O	2.082959	0.188855	1.240973
O31	O	1.582742	-0.522246	0.441520
O32	O	2.082742	-0.022246	0.941520
O33	O	1.453729	-0.522208	0.570561
O34	O	1.953729	-0.022208	1.070561
C35	C	1.245370	-0.356678	0.506086
C36	C	1.745370	0.143322	1.006086
C37	C	1.128593	-0.356692	0.506103
C38	C	1.628593	0.143308	1.006103
C39	C	1.128613	-0.451532	0.640230
C40	C	1.628613	0.048468	1.140230
C41	C	1.073761	-0.498958	0.707296
C42	C	1.573761	0.001042	1.207296
C43	C	0.964040	-0.498967	0.707309
C44	C	1.464040	0.001033	1.207309
C45	C	0.909167	-0.451543	0.640250
C46	C	1.409167	0.048457	1.140250
C47	C	0.964018	-0.404118	0.573184
C48	C	1.464018	0.095882	1.073184
C49	C	1.073742	-0.404115	0.573176
C50	C	1.573742	0.095885	1.073176
C51	C	0.963999	-0.309275	0.439065
C52	C	1.463999	0.190725	0.939065
C53	C	1.073720	-0.309269	0.439045
C54	C	1.573720	0.190731	0.939045
C55	C	0.909126	-0.261852	0.372007
C56	C	1.409126	0.238148	0.872007
C57	C	0.963977	-0.214429	0.304934
C58	C	1.463977	0.285571	0.804934
C59	C	1.073705	-0.214422	0.304923
C60	C	1.573705	0.285578	0.804923
C61	C	1.128572	-0.261843	0.371979
C62	C	1.628572	0.238157	0.871979
C63	C	1.518248	-0.549098	0.506053
C64	C	2.018248	-0.049098	1.006053
C65	C	1.518305	-0.631412	0.506067
C66	C	2.018305	-0.131412	1.006067
C67	C	1.518439	-0.930503	0.506163
C68	C	2.018439	-0.430503	1.006163
C69	C	1.599384	-0.899171	0.424756
C70	C	2.099384	-0.399171	0.924756
C71	C	1.599665	-0.813553	0.424967
C72	C	2.099665	-0.313553	0.924967
C73	C	1.518373	-0.782120	0.506114
C74	C	2.018373	-0.282120	1.006114
C75	C	1.548394	-0.813118	0.616855
C76	C	2.048394	-0.313118	1.116855
C77	C	1.549020	-0.898763	0.616412
C78	C	2.049020	-0.398763	1.116412
C79	C	1.407258	-0.899016	0.477787
C80	C	1.907258	-0.399016	0.977787
C81	C	1.407807	-0.813367	0.475315
C82	C	1.907807	-0.313367	0.975315
C83	C	1.518334	-0.698261	0.506094
C84	C	2.018334	-0.198261	1.006094
C85	C	1.518481	-1.014362	0.506191
C86	C	2.018481	-0.514362	1.006191
C87	C	1.792371	-0.356697	0.506123
C88	C	2.292371	0.143303	1.006123
C89	C	1.909148	-0.356701	0.506131
C90	C	2.409148	0.143299	1.006131
C91	C	1.518417	-0.356615	0.780138
C92	C	2.018417	0.143385	1.280138
C93	C	1.518451	-0.356584	0.896915
C94	C	2.018451	0.143416	1.396915
C95	C	1.518456	-0.163525	0.506178
C96	C	2.018456	0.336475	1.006178
C97	C	1.518507	-0.081211	0.506210
C98	C	2.018507	0.418789	1.006210
C99	C	1.518319	-0.356706	0.233137
C100	C	2.018319	0.143294	0.733137
C101	C	1.518489	-0.356528	0.116361
C102	C	2.018489	0.143472	0.616361
C103	C	1.652898	-0.261872	0.896980
C104	C	2.152898	0.238128	1.396980
C105	C	1.720136	-0.214506	0.951874
C106	C	2.220136	0.285494	1.451874
C107	C	1.720162	-0.214479	1.061595
C108	C	2.220162	0.285521	1.561595
C109	C	1.652940	-0.261822	1.116426
C110	C	2.152940	0.238178	1.616426
C111	C	1.585701	-0.309189	1.061533
C112	C	2.085701	0.190811	1.561533
C113	C	1.585685	-0.309212	0.951808
C114	C	2.085685	0.190788	1.451808
C115	C	1.451251	-0.403895	1.061467
C116	C	1.951251	0.096105	1.561467
C117	C	1.451229	-0.403927	0.951745
C118	C	1.951229	0.096073	1.451745
C119	C	1.384028	-0.451238	1.116298
C120	C	1.884028	0.048762	1.616298
C121	C	1.316794	-0.498610	1.061404
C122	C	1.816794	0.001390	1.561404
C123	C	1.316772	-0.498636	0.951676
C124	C	1.816772	0.001364	1.451676
C125	C	1.383990	-0.451294	0.896852
C126	C	1.883990	0.048706	1.396852
H127	H	1.217954	-0.451535	0.640218
H128	H	1.717954	0.048465	1.140218
O129	O	1.132853	-0.163268	0.232577
O130	O	1.632853	0.336732	0.732577
H131	H	1.182876	-0.125623	0.279691
H132	H	1.682876	0.374377	0.779691
H133	H	0.919380	-0.537581	0.761925
H134	H	1.419380	-0.037581	1.261925
O135	O	1.656672	-0.925144	0.648245
O136	O	2.156672	-0.425144	1.148245
H137	H	1.650352	-0.959242	0.720237
H138	H	2.150352	-0.459242	1.220237
O139	O	1.244229	-0.549710	0.892469
O140	O	1.744229	-0.049710	1.392469
H141	H	1.197492	-0.582620	0.949033
H142	H	1.697492	-0.082620	1.449033
O143	O	1.246914	-0.261839	0.371960
O144	O	1.746914	0.238161	0.871960
H145	H	1.275889	-0.246940	0.451240
H146	H	1.775889	0.253060	0.951240
O147	O	1.574787	-0.785784	0.316203
O148	O	2.074787	-0.285784	0.816203
H149	H	1.641085	-0.751812	0.287077
H150	H	2.141085	-0.251812	0.787077
H151	H	0.919291	-0.175817	0.250345
H152	H	1.419291	0.324183	0.750345
H153	H	1.118451	-0.537568	0.761895
H154	H	1.618451	-0.037568	1.261895
O155	O	0.790824	-0.451573	0.640227
O156	O	1.290824	0.048427	1.140227
H157	H	0.761901	-0.492528	0.698113
H158	H	1.261901	0.007472	1.198113
H159	H	1.580828	-0.919821	0.342397
H160	H	2.080828	-0.419821	0.842397
H161	H	1.492646	-0.919486	0.679156
H162	H	1.992646	-0.419486	1.179156
H163	H	0.819785	-0.261859	0.372027
H164	H	1.319785	0.238141	0.872027
O165	O	1.383962	-0.451330	0.778509
O166	O	1.883962	0.048670	1.278509
H167	H	1.362759	-0.395480	0.749596
H168	H	1.862759	0.104520	1.249596
H169	H	1.681291	-0.920636	0.443314
H170	H	2.181291	-0.420636	0.943314
O171	O	1.472704	-0.786143	0.699373
O172	O	1.972704	-0.286143	1.199373
H173	H	1.412744	-0.750268	0.662241
H174	H	1.912744	-0.250268	1.162241
O175	O	1.792675	-0.163377	1.120792
O176	O	2.292675	0.336623	1.620792
H177	H	1.745676	-0.125681	1.170776
H178	H	2.245676	0.374319	1.670776
O179	O	1.708752	-0.786325	0.449835
O180	O	2.208752	-0.286325	0.949835
H181	H	1.761509	-0.834331	0.461770
H182	H	2.261509	-0.334331	0.961770
H183	H	1.346948	-0.919278	0.537079
H184	H	1.846948	-0.419278	1.037079
O185	O	1.654845	-0.784640	0.649240
O186	O	2.154845	-0.284640	1.149240
H187	H	1.686540	-0.748417	0.586648
H188	H	2.186540	-0.248417	1.086648
H189	H	1.262062	-0.537149	1.106056
H190	H	1.762062	-0.037149	1.606056
O191	O	1.371081	-0.927701	0.372668
O192	O	1.871081	-0.427701	0.872668
H193	H	1.431949	-0.964725	0.339473
H194	H	1.931949	-0.464725	0.839473
O195	O	1.377803	-0.786539	0.367369
O196	O	1.877803	-0.286539	0.867369
H197	H	1.441363	-0.751094	0.335778
H198	H	1.941363	-0.251094	0.835778
O199	O	1.323612	-0.785034	0.548093
O200	O	1.823612	-0.285034	1.048093
H201	H	1.341634	-0.802370	0.629554
H202	H	1.841634	-0.302370	1.129554
H203	H	1.652957	-0.261789	1.205767
H204	H	2.152957	0.238211	1.705767
H205	H	1.652894	-0.261897	0.807639
H206	H	2.152894	0.238103	1.307639
H207	H	1.774865	-0.175958	0.907218
H208	H	2.274865	0.324042	1.407218
H209	H	1.384050	-0.451210	1.205639
H210	H	1.884050	0.048790	1.705639
