data_functionalizedCrystal
_audit_creation_method	'MofGen! by Chris Wilmer'
_symmetry_space_group_name_H-M	'P1'
_symmetry_Int_Tables_number	1
_symmetry_cell_setting	triclinic
loop_
_symmetry_equiv_pos_as_xyz
  x,y,z
_cell_length_a	10.686220
_cell_length_b	19.121063
_cell_length_c	10.686551
_cell_angle_alpha	91.787201
_cell_angle_beta	89.691918
_cell_angle_gamma	96.652836
loop_
_atom_site_label
_atom_site_type_symbol
_atom_site_fract_x
_atom_site_fract_y
_atom_site_fract_z
Zn1	Zn	1.960178	-0.171149	0.576393
Zn2	Zn	2.460178	0.328851	1.076393
Zn3	Zn	1.934959	-0.298212	0.377034
Zn4	Zn	2.434959	0.201788	0.877034
Zn5	Zn	1.733026	-0.189107	0.384180
Zn6	Zn	2.233026	0.310893	0.884180
Zn7	Zn	1.741490	-0.296789	0.602695
Zn8	Zn	2.241490	0.203211	1.102695
O9	O	1.842413	-0.238814	0.485075
O10	O	2.342413	0.261186	0.985075
O11	O	2.132864	-0.181084	0.535949
O12	O	2.632864	0.318916	1.035949
O13	O	1.894076	-0.291850	0.203100
O14	O	2.394076	0.208150	0.703100
O15	O	1.770171	-0.088483	0.401661
O16	O	2.270171	0.411517	0.901661
O17	O	2.114336	-0.274436	0.389481
O18	O	2.614336	0.225564	0.889481
O19	O	1.937058	-0.075289	0.542879
O20	O	2.437058	0.424711	1.042879
O21	O	1.745717	-0.211691	0.208351
O22	O	2.245717	0.288309	0.708351
O23	O	1.558117	-0.210311	0.427165
O24	O	2.058117	0.289689	0.927165
O25	O	1.784596	-0.272012	0.774087
O26	O	2.284596	0.227988	1.274087
O27	O	1.564336	-0.289425	0.587707
O28	O	2.064336	0.210575	1.087707
O29	O	1.945265	-0.179704	0.754764
O30	O	2.445265	0.320296	1.254764
O31	O	1.902282	-0.396264	0.414984
O32	O	2.402282	0.103736	0.914984
O33	O	1.760141	-0.395219	0.580777
O34	O	2.260141	0.104781	1.080777
C35	C	1.515583	-0.251663	0.511066
C36	C	2.015583	0.248337	1.011066
C37	C	1.375765	-0.257175	0.522216
C38	C	1.875765	0.242825	1.022216
C39	C	1.829430	-0.421212	0.499984
C40	C	2.329430	0.078788	0.999984
C41	C	1.823994	-0.499236	0.506394
C42	C	2.323994	0.000764	1.006394
C43	C	1.895514	-0.536407	0.423148
C44	C	2.395514	-0.036407	0.923148
C45	C	1.890409	-0.609719	0.429183
C46	C	2.390409	-0.109719	0.929183
C47	C	1.813778	-0.645858	0.518461
C48	C	2.313778	-0.145858	1.018461
C49	C	1.742256	-0.608681	0.601716
C50	C	2.242256	-0.108681	1.101716
C51	C	1.747368	-0.535371	0.595685
C52	C	2.247368	-0.035371	1.095685
C53	C	1.794644	-0.867182	0.540991
C54	C	2.294644	-0.367182	1.040991
C55	C	1.789534	-0.940498	0.547013
C56	C	2.289534	-0.440498	1.047013
C57	C	1.937690	-0.941530	0.374481
C58	C	2.437690	-0.441530	0.874481
C59	C	1.942789	-0.868219	0.368454
C60	C	2.442789	-0.368219	0.868454
C61	C	1.871272	-0.831048	0.451713
C62	C	2.371272	-0.331048	0.951713
C63	C	1.808556	-0.720794	0.524630
C64	C	2.308556	-0.220794	1.024630
C65	C	1.876502	-0.756113	0.445549
C66	C	2.376502	-0.256113	0.945549
C67	C	2.170519	-0.225915	0.458984
C68	C	2.670519	0.274085	0.958984
C69	C	2.310339	-0.220419	0.447865
C70	C	2.810339	0.279581	0.947865
C71	C	1.868688	-0.223696	0.811038
C72	C	2.368688	0.276304	1.311038
C73	C	1.879884	-0.217254	0.949944
C74	C	2.379884	0.282746	1.449944
C75	C	1.855484	-0.055701	0.470134
C76	C	2.355484	0.444299	0.970134
C77	C	1.861053	0.022331	0.463766
C78	C	2.361053	0.522331	0.963766
C79	C	1.816317	-0.253820	0.160371
C80	C	2.316317	0.246180	0.660371
C81	C	1.805378	-0.260055	0.021430
C82	C	2.305378	0.239945	0.521430
H83	H	1.361289	-0.184734	0.375679
H84	H	1.861289	0.315266	0.875679
H85	H	1.733028	-0.301629	0.976364
H86	H	2.233028	0.198371	1.476364
F87	F	1.309166	-0.303830	0.616565
F88	F	1.809166	0.196170	1.116565
F89	F	1.974471	-0.162915	1.008850
F90	F	2.474471	0.337085	1.508850
F91	F	1.977068	-0.497953	0.328119
F92	F	2.477068	0.002047	0.828119
F93	F	2.024366	-0.829761	0.273445
F94	F	2.524366	-0.329761	0.773445
F95	F	2.013803	-0.981095	0.285883
F96	F	2.513803	-0.481095	0.785883
F97	F	1.966534	-0.649276	0.340584
F98	F	2.466534	-0.149276	0.840584
H99	H	1.727149	-0.969919	0.619734
H100	H	2.227149	-0.469919	1.119734
F101	F	1.660707	-0.647145	0.696738
F102	F	2.160707	-0.147145	1.196738
H103	H	1.736409	-0.836924	0.608781
H104	H	2.236409	-0.336924	1.108781
F105	F	1.727000	-0.759263	0.619642
F106	F	2.227000	-0.259263	1.119642
H107	H	1.689131	-0.505106	0.663474
H108	H	2.189131	-0.005106	1.163474
F109	F	1.958062	-0.717649	0.350541
F110	F	2.458062	-0.217649	0.850541
