data_functionalizedCrystal
_audit_creation_method	'MofGen! by Chris Wilmer'
_symmetry_space_group_name_H-M	'P1'
_symmetry_Int_Tables_number	1
_symmetry_cell_setting	triclinic
loop_
_symmetry_equiv_pos_as_xyz
  x,y,z
_cell_length_a	21.395362
_cell_length_b	18.101395
_cell_length_c	21.395364
_cell_angle_alpha	90.001096
_cell_angle_beta	90.036401
_cell_angle_gamma	90.046983
loop_
_atom_site_label
_atom_site_type_symbol
_atom_site_fract_x
_atom_site_fract_y
_atom_site_fract_z
Zn1	Zn	0.957811	-0.294709	0.354598
Zn2	Zn	0.957727	-0.418500	0.249825
Zn3	Zn	0.853040	-0.294711	0.249799
Zn4	Zn	0.852994	-0.418547	0.354530
O5	O	0.905393	-0.356617	0.302188
O6	O	1.045478	-0.311109	0.340739
O7	O	0.943823	-0.402061	0.162144
O8	O	0.866992	-0.191078	0.263718
O9	O	1.045416	-0.402058	0.263763
O10	O	0.943967	-0.191076	0.340713
O11	O	0.866910	-0.311114	0.162124
O12	O	0.765356	-0.311159	0.263652
O13	O	0.866915	-0.402138	0.442217
O14	O	0.765323	-0.402141	0.340598
O15	O	0.943923	-0.311154	0.442266
O16	O	0.943779	-0.522139	0.263697
O17	O	0.866833	-0.522174	0.340623
C18	C	0.742605	-0.356656	0.302115
C19	C	0.672964	-0.356691	0.302099
C20	C	0.905309	-0.549027	0.302169
C21	C	0.905331	-0.631342	0.302182
C22	C	0.640250	-0.404127	0.342104
C23	C	0.574815	-0.404109	0.342132
C24	C	0.542096	-0.356662	0.302144
C25	C	0.574818	-0.309216	0.262135
C26	C	0.640252	-0.309230	0.262113
C27	C	0.438378	-0.350679	0.245738
C28	C	0.372946	-0.350670	0.245759
C29	C	0.340275	-0.356614	0.302213
C30	C	0.373046	-0.362582	0.358647
C31	C	0.438480	-0.362596	0.358624
C32	C	0.471143	-0.356641	0.302164
C33	C	0.236608	-0.404033	0.342252
C34	C	0.171172	-0.404010	0.342281
C35	C	0.171176	-0.309121	0.262278
C36	C	0.236612	-0.309140	0.262255
C37	C	0.269324	-0.356601	0.302241
C38	C	0.905468	-0.930432	0.302216
C39	C	0.857168	-0.899160	0.350736
C40	C	0.856938	-0.813542	0.350584
C41	C	0.905400	-0.782050	0.302200
C42	C	0.887526	-0.813171	0.236161
C43	C	0.887215	-0.898817	0.236451
C44	C	0.971748	-0.898764	0.319154
C45	C	0.971358	-0.813113	0.320602
C46	C	0.905362	-0.698190	0.302187
C47	C	0.905504	-1.014292	0.302225
C48	C	1.068816	-0.356578	0.302261
C49	C	1.138458	-0.356562	0.302292
C50	C	0.905423	-0.356651	0.465611
C51	C	0.905436	-0.356666	0.535252
C52	C	0.905494	-0.163455	0.302220
C53	C	0.905537	-0.081141	0.302234
C54	C	0.945529	-0.309299	0.567992
C55	C	0.945519	-0.309286	0.633428
C56	C	0.905424	-0.356655	0.666121
C57	C	0.865324	-0.404025	0.633373
C58	C	0.865330	-0.404031	0.567939
C59	C	0.900434	-0.423369	0.769787
C60	C	0.900432	-0.423365	0.835220
C61	C	0.905401	-0.356638	0.867941
C62	C	0.910385	-0.289912	0.835222
C63	C	0.910392	-0.289918	0.769788
C64	C	0.905413	-0.356654	0.737073
C65	C	0.945485	-0.309253	0.971634
C66	C	0.945472	-0.309240	1.037071
C67	C	0.865280	-0.403985	1.037014
C68	C	0.865290	-0.403992	0.971579
C69	C	0.905397	-0.356627	0.938893
C70	C	0.905366	-0.356605	1.139400
C71	C	0.905375	-0.356608	1.069759
H72	H	0.666880	-0.442772	0.374665
F73	F	1.018786	-0.925203	0.272972
H74	H	0.978166	-0.270710	0.660090
H75	H	0.978118	-0.270663	1.063726
H76	H	0.807810	-0.793129	0.339363
F77	F	0.931197	-0.925857	0.187583
F78	F	0.823887	-0.925027	0.217701
F79	F	0.895133	-0.494379	0.870037
H80	H	0.548174	-0.442738	0.374712
F81	F	0.473354	-0.368945	0.418683
H82	H	0.868239	-0.919730	0.399862
F83	F	0.993049	-0.926954	0.381026
H84	H	0.832676	-0.442591	0.659996
F85	F	0.793345	-0.927401	0.336264
H86	H	0.914448	-0.235588	0.743150
F87	F	0.136355	-0.454498	0.384866
H88	H	0.832680	-0.442602	0.541282
H89	H	0.978139	-0.270682	0.945019
H90	H	0.832627	-0.442546	1.063632
F91	F	0.915676	-0.218891	0.870041
F92	F	0.932061	-0.786507	0.187617
F93	F	0.136359	-0.258620	0.219722
F94	F	0.895159	-0.494396	0.734969
F95	F	0.822620	-0.454410	0.936733
F96	F	0.824868	-0.785234	0.217074
H97	H	0.346447	-0.367421	0.404617
F98	F	0.675070	-0.258739	0.219532
F99	F	0.271430	-0.258653	0.219673
F100	F	1.020886	-0.785082	0.277784
F101	F	0.988211	-0.258885	0.533209
F102	F	0.271425	-0.454541	0.384811
H103	H	0.346269	-0.345815	0.199807
H104	H	0.464973	-0.345836	0.199764
H105	H	0.868121	-0.792500	0.399551
F106	F	0.539995	-0.258716	0.219579
H107	H	0.984837	-0.792772	0.369204
