data_functionalizedCrystal
_audit_creation_method	'MofGen! by Chris Wilmer'
_symmetry_space_group_name_H-M	'P1'
_symmetry_Int_Tables_number	1
_symmetry_cell_setting	triclinic
loop_
_symmetry_equiv_pos_as_xyz
  x,y,z
_cell_length_a	8.559649
_cell_length_b	16.109301
_cell_length_c	15.186229
_cell_angle_alpha	90.005167
_cell_angle_beta	90.003029
_cell_angle_gamma	76.620073
loop_
_atom_site_label
_atom_site_type_symbol
_atom_site_fract_x
_atom_site_fract_y
_atom_site_fract_z
O1	O	-2.120140	0.028207	-0.073213
O2	O	-1.654914	-0.014732	-0.073219
O3	O	-1.900307	0.128583	-0.073207
O4	O	-1.874747	-0.115108	-0.073225
O5	O	-1.900291	0.128584	0.073250
O6	O	-1.654898	-0.014731	0.073238
O7	O	-2.120124	0.028208	0.073244
Zn8	Zn	-1.887508	0.006738	0.096494
Zn9	Zn	-1.887530	0.006737	-0.096469
O10	O	-1.874731	-0.115107	0.073232
C11	C	-1.595374	-0.017985	0.000009
C12	C	-1.417989	-0.027671	0.000007
C13	C	-1.899264	0.159492	0.000022
C14	C	-1.896160	0.251590	0.000023
C15	C	-2.179664	0.031461	0.000014
C16	C	-2.357049	0.041147	0.000011
C17	C	-1.875774	-0.146016	0.000001
C18	C	-1.878878	-0.238114	-0.000006
N19	N	-1.887505	0.006740	0.228187
C20	C	-2.034553	0.482679	0.000011
C21	C	-2.031624	0.569213	0.000004
C22	C	-1.740473	0.530789	0.000004
C23	C	-1.743404	0.444257	0.000005
C24	C	-1.890449	0.420205	0.000013
C25	C	-1.884589	0.593271	0.000005
C26	C	-1.881412	0.687094	-0.000003
C27	C	-1.893627	0.326376	0.000019
N28	N	-1.887545	0.006743	-0.228162
C29	C	-1.996202	0.070183	0.453915
C30	C	-1.996207	0.070186	0.546105
C31	C	-1.778837	-0.056704	0.546103
C32	C	-1.778825	-0.056702	0.453915
C33	C	-1.887517	0.006741	0.407824
C34	C	-1.887534	0.006742	0.592201
C35	C	-1.887538	0.006744	0.692158
C36	C	-1.887511	0.006741	0.307861
H37	H	-1.440580	0.107476	0.000011
H38	H	-1.334449	-0.094004	-0.000003
H39	H	-2.154287	0.463099	0.000016
C40	C	-2.188256	0.636915	0.000050
C41	C	-2.317649	0.597325	0.000079
C42	C	-2.461968	0.659665	0.000132
H43	H	-2.193401	0.671497	-0.051011
H44	H	-2.193247	0.671469	0.051142
H45	H	-2.312660	0.562785	-0.051008
H46	H	-2.312557	0.562748	0.051136
H47	H	-2.466959	0.694219	0.051224
H48	H	-2.467097	0.694243	-0.050930
H49	H	-2.549778	0.632812	0.000160
H50	H	-1.620755	0.550384	-0.000001
H51	H	-1.626050	0.393387	0.000003
C52	C	-2.114266	0.139165	0.404031
C53	C	-2.209418	0.194738	0.464133
C54	C	-2.318180	0.258304	0.418215
H55	H	-2.180915	0.113594	0.368057
H56	H	-2.056840	0.170171	0.368096
H57	H	-2.266839	0.163737	0.500053
H58	H	-2.142813	0.220330	0.500109
H59	H	-2.260754	0.289310	0.382280
H60	H	-2.384817	0.232726	0.382243
H61	H	-2.382743	0.296023	0.458987
C62	C	-2.113958	0.139144	0.596194
C63	C	-2.028882	0.184649	0.649110
C64	C	-2.137302	0.248191	0.695255
H65	H	-2.180498	0.113563	0.632223
H66	H	-2.178660	0.176973	0.555565
H67	H	-1.964207	0.146827	0.689734
H68	H	-1.962347	0.210249	0.613103
H69	H	-2.202004	0.286020	0.654626
H70	H	-2.203836	0.222603	0.731279
H71	H	-2.079594	0.279079	0.731158
C72	C	-1.661025	-0.125539	0.596307
C73	C	-1.684325	-0.111978	0.686907
C74	C	-1.575842	-0.175382	0.733180
H75	H	-1.554316	-0.123349	0.581315
H76	H	-1.678362	-0.179942	0.581239
H77	H	-1.666975	-0.057589	0.701969
H78	H	-1.791012	-0.114177	0.701925
H79	H	-1.593180	-0.229785	0.718111
H80	H	-1.469141	-0.173186	0.718181
H81	H	-1.591647	-0.166194	0.794656
C82	C	-1.660746	-0.125684	0.404025
C83	C	-1.565599	-0.181263	0.464119
C84	C	-1.456824	-0.244820	0.418193
H85	H	-1.594096	-0.100106	0.368068
H86	H	-1.718162	-0.156688	0.368072
H87	H	-1.508187	-0.150263	0.500057
H88	H	-1.632204	-0.206862	0.500078
H89	H	-1.514239	-0.275824	0.382240
H90	H	-1.390185	-0.219234	0.382237
H91	H	-1.392263	-0.282542	0.458959
