data_functionalizedCrystal
_audit_creation_method	'MofGen! by Chris Wilmer'
_symmetry_space_group_name_H-M	'P1'
_symmetry_Int_Tables_number	1
_symmetry_cell_setting	triclinic
loop_
_symmetry_equiv_pos_as_xyz
  x,y,z
_cell_length_a	15.021413
_cell_length_b	19.288864
_cell_length_c	19.288865
_cell_angle_alpha	83.136245
_cell_angle_beta	89.985874
_cell_angle_gamma	89.980256
loop_
_atom_site_label
_atom_site_type_symbol
_atom_site_fract_x
_atom_site_fract_y
_atom_site_fract_z
O1	O	0.074328	-0.921349	-0.086652
O2	O	0.324328	-0.671349	0.163348
O3	O	0.574328	-0.421349	0.413348
O4	O	0.824328	-0.171349	0.663348
O5	O	0.074268	-0.719089	-0.098340
O6	O	0.324268	-0.469089	0.151660
O7	O	0.574268	-0.219089	0.401660
O8	O	0.824268	0.030911	0.651660
O9	O	0.074282	-0.826063	0.008634
O10	O	0.324282	-0.576063	0.258634
O11	O	0.574282	-0.326063	0.508634
O12	O	0.824282	-0.076063	0.758634
O13	O	0.074314	-0.814375	-0.193626
O14	O	0.324314	-0.564375	0.056374
O15	O	0.574314	-0.314375	0.306374
O16	O	0.824314	-0.064375	0.556374
O17	O	-0.073782	-0.826052	0.008646
O18	O	0.176218	-0.576052	0.258646
O19	O	0.426218	-0.326052	0.508646
O20	O	0.676218	-0.076052	0.758646
O21	O	-0.073796	-0.719078	-0.098329
O22	O	0.176204	-0.469078	0.151671
O23	O	0.426204	-0.219078	0.401671
O24	O	0.676204	0.030922	0.651671
O25	O	-0.073737	-0.921338	-0.086640
O26	O	0.176263	-0.671338	0.163360
O27	O	0.426263	-0.421338	0.413360
O28	O	0.676263	-0.171338	0.663360
Zn29	Zn	-0.097275	-0.820206	-0.092483
Zn30	Zn	0.152725	-0.570206	0.157517
Zn31	Zn	0.402725	-0.320206	0.407517
Zn32	Zn	0.652725	-0.070206	0.657517
Zn33	Zn	0.097806	-0.820221	-0.092498
Zn34	Zn	0.347806	-0.570221	0.157502
Zn35	Zn	0.597806	-0.320221	0.407502
Zn36	Zn	0.847806	-0.070221	0.657502
O37	O	-0.073750	-0.814363	-0.193615
O38	O	0.176250	-0.564363	0.056385
O39	O	0.426250	-0.314363	0.306385
O40	O	0.676250	-0.064363	0.556385
C41	C	0.000228	-0.693207	-0.097959
C42	C	0.250228	-0.443207	0.152041
C43	C	0.500228	-0.193207	0.402041
C44	C	0.750228	0.056793	0.652041
C45	C	0.000205	-0.616103	-0.096830
C46	C	0.250205	-0.366103	0.153170
C47	C	0.500205	-0.116103	0.403170
C48	C	0.750205	0.133897	0.653170
N49	N	-0.230412	-0.820201	-0.092472
N50	N	0.019588	-0.570201	0.157528
N51	N	0.269588	-0.320201	0.407528
N52	N	0.519588	-0.070201	0.657528
N53	N	0.230944	-0.820231	-0.092503
N54	N	0.480944	-0.570231	0.157497
N55	N	0.730944	-0.320231	0.407497
N56	N	0.980944	-0.070231	0.657497
C57	C	0.470604	-0.869794	-0.043106
C58	C	0.720604	-0.619794	0.206894
C59	C	0.970604	-0.369794	0.456894
C60	C	1.220604	-0.119794	0.706894
C61	C	0.529987	-0.882917	-0.105871
C62	C	0.779987	-0.632917	0.144129
C63	C	1.029987	-0.382917	0.394129
C64	C	1.279987	-0.132917	0.644129
C65	C	0.412551	-0.820221	-0.092494
C66	C	0.662551	-0.570221	0.157506
C67	C	0.912551	-0.320221	0.407506
C68	C	1.162551	-0.070221	0.657506
C69	C	0.529910	-0.807120	-0.029720
C70	C	0.779910	-0.557120	0.220280
C71	C	1.029910	-0.307120	0.470280
C72	C	1.279910	-0.057120	0.720280
C73	C	0.587975	-0.820213	-0.092480
C74	C	0.837975	-0.570213	0.157520
C75	C	1.087975	-0.320213	0.407520
C76	C	1.337975	-0.070213	0.657520
C77	C	0.470627	-0.833376	-0.155291
C78	C	0.720627	-0.583376	0.094709
C79	C	0.970627	-0.333376	0.344709
C80	C	1.220627	-0.083376	0.594709
C81	C	0.470544	-0.757552	-0.079099
C82	C	0.720544	-0.507552	0.170901
C83	C	0.970544	-0.257552	0.420901
C84	C	1.220544	-0.007552	0.670901
C85	C	0.529901	-0.770649	-0.141909
C86	C	0.779901	-0.520649	0.108091
C87	C	1.029901	-0.270649	0.358091
C88	C	1.279901	-0.020649	0.608091
C89	C	0.311493	-0.820228	-0.092501
C90	C	0.561493	-0.570228	0.157499
C91	C	0.811493	-0.320228	0.407499
C92	C	1.061493	-0.070228	0.657499
C93	C	0.689030	-0.820206	-0.092480
C94	C	0.939030	-0.570206	0.157520
C95	C	1.189030	-0.320206	0.407520
C96	C	1.439030	-0.070206	0.657520
C97	C	0.000247	-0.825682	0.034516
C98	C	0.250247	-0.575682	0.284516
C99	C	0.500247	-0.325682	0.534516
C100	C	0.750247	-0.075682	0.784516
C101	C	0.000239	-0.824553	0.111620
C102	C	0.250239	-0.574553	0.361620
C103	C	0.500239	-0.324553	0.611620
C104	C	0.750239	-0.074553	0.861620
C105	C	0.000305	-0.947220	-0.087022
C106	C	0.250305	-0.697220	0.162978
C107	C	0.500305	-0.447220	0.412978
C108	C	0.750305	-0.197220	0.662978
C109	C	0.000335	-1.024324	-0.088151
C110	C	0.250335	-0.774324	0.161849
C111	C	0.500335	-0.524324	0.411849
C112	C	0.750335	-0.274324	0.661849
C113	C	0.000229	-0.571407	-0.159598
C114	C	0.250229	-0.321407	0.090402
C115	C	0.500229	-0.071407	0.340402
C116	C	0.750229	0.178593	0.590402
C117	C	0.000238	-0.498960	-0.158537
C118	C	0.250238	-0.248960	0.091463
C119	C	0.500238	0.001040	0.341463
C120	C	0.750238	0.251040	0.591463
C121	C	0.000242	-0.471212	-0.094705
C122	C	0.250242	-0.221212	0.155295
C123	C	0.500242	0.028788	0.405295
C124	C	0.750242	0.278788	0.655295
C125	C	0.000213	-0.515918	-0.031929
C126	C	0.250213	-0.265918	0.218071
C127	C	0.500213	-0.015918	0.468071
C128	C	0.750213	0.234082	0.718071
C129	C	0.000194	-0.588364	-0.032991
C130	C	0.250194	-0.338364	0.217009
C131	C	0.500194	-0.088364	0.467009
C132	C	0.750194	0.161636	0.717009
C133	C	0.052137	-0.362954	-0.044530
C134	C	0.302137	-0.112954	0.205470
C135	C	0.552137	0.137046	0.455470
C136	C	0.802137	0.387046	0.705470
C137	C	0.052161	-0.290510	-0.043470
C138	C	0.302161	-0.040510	0.206530
C139	C	0.552161	0.209490	0.456530
C140	C	0.802161	0.459490	0.706530
C141	C	0.000295	-0.247767	-0.091425
C142	C	0.250295	0.002233	0.158575
C143	C	0.500295	0.252233	0.408575
C144	C	0.750295	0.502233	0.658575
C145	C	-0.051584	-0.277475	-0.140452
C146	C	0.198416	-0.027475	0.109548
C147	C	0.448416	0.222525	0.359548
C148	C	0.698416	0.472525	0.609548
C149	C	-0.051602	-0.349921	-0.141515
C150	C	0.198398	-0.099921	0.108485
C151	C	0.448398	0.150079	0.358485
C152	C	0.698398	0.400079	0.608485
C153	C	0.000262	-0.392658	-0.093546
C154	C	0.250262	-0.142658	0.156454
C155	C	0.500262	0.107342	0.406454
C156	C	0.750262	0.357342	0.656454
C157	C	0.000328	-0.124514	-0.153047
C158	C	0.250328	0.125486	0.096953
C159	C	0.500328	0.375486	0.346953
C160	C	0.750328	0.625486	0.596953
C161	C	0.000333	-0.052066	-0.151984
C162	C	0.250333	0.197934	0.098016
C163	C	0.500333	0.447934	0.348016
C164	C	0.750333	0.697934	0.598016
C165	C	0.000316	-0.069026	-0.025374
C166	C	0.250316	0.180974	0.224626
C167	C	0.500316	0.430974	0.474626
C168	C	0.750316	0.680974	0.724626
C169	C	0.000303	-0.141473	-0.026439
C170	C	0.250303	0.108527	0.223561
C171	C	0.500303	0.358527	0.473561
C172	C	0.750303	0.608527	0.723561
C173	C	0.000313	-0.169212	-0.090278
C174	C	0.250313	0.080788	0.159722
C175	C	0.500313	0.330788	0.409722
C176	C	0.750313	0.580788	0.659722
C177	C	0.000286	-0.814745	-0.219497
C178	C	0.250286	-0.564745	0.030503
C179	C	0.500286	-0.314745	0.280503
C180	C	0.750286	-0.064745	0.530503
C181	C	0.000300	-0.815874	-0.296601
C182	C	0.250300	-0.565874	-0.046601
C183	C	0.500300	-0.315874	0.203399
C184	C	0.750300	-0.065874	0.453399
C185	C	0.000253	-0.887321	0.156316
C186	C	0.250253	-0.637321	0.406316
C187	C	0.500253	-0.387321	0.656316
C188	C	0.750253	-0.137321	0.906316
C189	C	0.000267	-0.886260	0.228763
C190	C	0.250267	-0.636260	0.478763
C191	C	0.500267	-0.386260	0.728763
C192	C	0.750267	-0.136260	0.978763
C193	C	0.000249	-0.822428	0.256511
C194	C	0.250249	-0.572428	0.506511
C195	C	0.500249	-0.322428	0.756511
C196	C	0.750249	-0.072428	1.006511
C197	C	0.000240	-0.759652	0.211805
C198	C	0.250240	-0.509652	0.461805
C199	C	0.500240	-0.259652	0.711805
C200	C	0.750240	-0.009652	0.961805
C201	C	0.000235	-0.760714	0.139359
C202	C	0.250235	-0.510714	0.389359
C203	C	0.500235	-0.260714	0.639359
C204	C	0.750235	-0.010714	0.889359
C205	C	-0.051630	-0.772244	0.364802
C206	C	0.198370	-0.522244	0.614802
C207	C	0.448370	-0.272244	0.864802
C208	C	0.698370	-0.022244	1.114802
C209	C	-0.051630	-0.771184	0.437247
C210	C	0.198370	-0.521184	0.687247
C211	C	0.448370	-0.271184	0.937247
C212	C	0.698370	-0.021184	1.187247
C213	C	0.000268	-0.819148	0.479956
C214	C	0.250268	-0.569148	0.729956
C215	C	0.500268	-0.319148	0.979956
C216	C	0.750268	-0.069148	1.229956
C217	C	0.052155	-0.868183	0.450214
C218	C	0.302155	-0.618183	0.700214
C219	C	0.552155	-0.368183	0.950214
C220	C	0.802155	-0.118183	1.200214
C221	C	0.052150	-0.869246	0.377769
C222	C	0.302150	-0.619246	0.627769
C223	C	0.552150	-0.369246	0.877769
C224	C	0.802150	-0.119246	1.127769
C225	C	0.000254	-0.821269	0.335065
C226	C	0.250254	-0.571269	0.585065
C227	C	0.500254	-0.321269	0.835065
C228	C	0.750254	-0.071269	1.085065
C229	C	0.000298	-0.880770	0.603209
C230	C	0.250298	-0.630770	0.853209
C231	C	0.500298	-0.380770	1.103209
C232	C	0.750298	-0.130770	1.353209
C233	C	0.000317	-0.879707	0.675657
C234	C	0.250317	-0.629707	0.925657
C235	C	0.500317	-0.379707	1.175657
C236	C	0.750317	-0.129707	1.425657
C237	C	0.000281	-0.753097	0.658697
C238	C	0.250281	-0.503097	0.908697
C239	C	0.500281	-0.253097	1.158697
C240	C	0.750281	-0.003097	1.408697
C241	C	0.000271	-0.754162	0.586250
C242	C	0.250271	-0.504162	0.836250
C243	C	0.500271	-0.254162	1.086250
C244	C	0.750271	-0.004162	1.336250
C245	C	0.000275	-0.818000	0.558511
C246	C	0.250275	-0.568000	0.808511
C247	C	0.500275	-0.318000	1.058511
C248	C	0.750275	-0.068000	1.308511
H249	H	0.444569	-0.911746	-0.001393
H250	H	0.694569	-0.661746	0.248607
H251	H	0.944569	-0.411746	0.498607
H252	H	1.194569	-0.161746	0.748607
H253	H	0.000260	-0.939303	0.133736
H254	H	0.250260	-0.689303	0.383736
H255	H	0.500260	-0.439303	0.633736
H256	H	0.750260	-0.189303	0.883736
Br257	Br	-0.121976	-0.219476	-0.205542
Br258	Br	0.128024	0.030524	0.044458
Br259	Br	0.378024	0.280524	0.294458
Br260	Br	0.628024	0.530524	0.544458
H261	H	0.556097	-0.935912	-0.117200
H262	H	0.806097	-0.685912	0.132800
H263	H	1.056097	-0.435912	0.382800
H264	H	1.306097	-0.185912	0.632800
Br265	Br	0.573029	-0.700766	-0.211584
Br266	Br	0.823029	-0.450766	0.038416
Br267	Br	1.073029	-0.200766	0.288416
Br268	Br	1.323029	0.049234	0.538416
H269	H	0.444695	-0.844511	-0.208386
H270	H	0.694695	-0.594511	0.041614
H271	H	0.944695	-0.344511	0.291614
H272	H	1.194695	-0.094511	0.541614
Br273	Br	0.426992	-0.669249	-0.060185
Br274	Br	0.676992	-0.419249	0.189815
Br275	Br	0.926992	-0.169249	0.439815
Br276	Br	1.176992	0.080751	0.689815
H277	H	0.555952	-0.796042	0.023361
H278	H	0.805952	-0.546042	0.273361
H279	H	1.055952	-0.296042	0.523361
H280	H	1.305952	-0.046042	0.773361
Br281	Br	0.122580	-0.250196	0.023057
Br282	Br	0.372580	-0.000196	0.273057
Br283	Br	0.622580	0.249804	0.523057
Br284	Br	0.872580	0.499804	0.773057
Br285	Br	0.000251	-0.668972	0.525587
Br286	Br	0.250251	-0.418972	0.775587
Br287	Br	0.500251	-0.168972	1.025587
Br288	Br	0.750251	0.081028	1.275587
Br289	Br	0.000290	-0.971451	0.289434
Br290	Br	0.250290	-0.721451	0.539434
Br291	Br	0.500290	-0.471451	0.789434
Br292	Br	0.750290	-0.221451	1.039434
Br293	Br	0.000295	-0.967406	0.565558
Br294	Br	0.250295	-0.717406	0.815558
Br295	Br	0.500295	-0.467406	1.065558
Br296	Br	0.750295	-0.217406	1.315558
Br297	Br	-0.122007	-0.390239	-0.208046
Br298	Br	0.127993	-0.140239	0.041954
Br299	Br	0.377993	0.109761	0.291954
Br300	Br	0.627993	0.359761	0.541954
Br301	Br	0.122569	-0.935787	0.337405
Br302	Br	0.372569	-0.685787	0.587405
Br303	Br	0.622569	-0.435787	0.837405
Br304	Br	0.872569	-0.185787	1.087405
H305	H	-0.093875	-0.731254	0.461456
H306	H	0.156125	-0.481254	0.711456
H307	H	0.406125	-0.231254	0.961456
H308	H	0.656125	0.018746	1.211456
Br309	Br	0.000160	-0.649028	0.052201
Br310	Br	0.250160	-0.399028	0.302201
Br311	Br	0.500160	-0.149028	0.552201
Br312	Br	0.750160	0.100972	0.802201
H313	H	0.000239	-0.593987	-0.211580
H314	H	0.250239	-0.343987	0.038420
H315	H	0.500239	-0.093987	0.288420
H316	H	0.750239	0.156013	0.538420
Br317	Br	0.000265	-0.438288	-0.243728
Br318	Br	0.250265	-0.188288	0.006272
Br319	Br	0.500265	0.061712	0.256272
Br320	Br	0.750265	0.311712	0.506272
H321	H	0.000324	-0.147101	-0.205028
H322	H	0.250324	0.102899	0.044972
H323	H	0.500324	0.352899	0.294972
H324	H	0.750324	0.602899	0.544972
Br325	Br	0.000357	0.008596	-0.237177
Br326	Br	0.250357	0.258596	0.012823
Br327	Br	0.500357	0.508596	0.262823
Br328	Br	0.750357	0.758596	0.512823
Br329	Br	0.000306	-0.031377	0.061257
Br330	Br	0.250306	0.218623	0.311257
Br331	Br	0.500306	0.468623	0.561257
Br332	Br	0.750306	0.718623	0.811257
Br333	Br	-0.122070	-0.707145	0.306846
Br334	Br	0.127930	-0.457145	0.556846
Br335	Br	0.377930	-0.207145	0.806846
Br336	Br	0.627930	0.042855	1.056846
H337	H	0.000227	-0.707679	0.234401
H338	H	0.250227	-0.457679	0.484401
H339	H	0.500227	-0.207679	0.734401
H340	H	0.750227	0.042321	0.984401
H341	H	0.000270	-0.701123	0.681288
H342	H	0.250270	-0.451123	0.931288
H343	H	0.500270	-0.201123	1.181288
H344	H	0.750270	0.048877	1.431288
Br345	Br	0.000273	-0.202136	0.058751
Br346	Br	0.250273	0.047864	0.308751
Br347	Br	0.500273	0.297864	0.558751
Br348	Br	0.750273	0.547864	0.808751
H349	H	0.094378	-0.397750	-0.005477
H350	H	0.344378	-0.147750	0.244523
H351	H	0.594378	0.102250	0.494523
H352	H	0.844378	0.352250	0.744523
H353	H	0.000228	-0.493322	0.020044
H354	H	0.250228	-0.243322	0.270044
H355	H	0.500228	0.006678	0.520044
H356	H	0.750228	0.256678	0.770044
H357	H	0.094416	-0.907240	0.484988
H358	H	0.344416	-0.657240	0.734988
H359	H	0.594416	-0.407240	0.984988
H360	H	0.844416	-0.157240	1.234988
H361	H	0.000334	-0.930822	0.712049
H362	H	0.250334	-0.680822	0.962049
H363	H	0.500334	-0.430822	1.212049
H364	H	0.750334	-0.180822	1.462049
H365	H	0.000223	-0.709599	0.102967
H366	H	0.250223	-0.459599	0.352967
H367	H	0.500223	-0.209599	0.602967
H368	H	0.750223	0.040401	0.852967
