data_functionalizedCrystal
_audit_creation_method	'MofGen! by Chris Wilmer'
_symmetry_space_group_name_H-M	'P1'
_symmetry_Int_Tables_number	1
_symmetry_cell_setting	triclinic
loop_
_symmetry_equiv_pos_as_xyz
  x,y,z
_cell_length_a	16.625548
_cell_length_b	29.839131
_cell_length_c	16.625539
_cell_angle_alpha	89.962116
_cell_angle_beta	89.982945
_cell_angle_gamma	90.036296
loop_
_atom_site_label
_atom_site_type_symbol
_atom_site_fract_x
_atom_site_fract_y
_atom_site_fract_z
Zn1	Zn	1.232581	-0.178848	-0.455845
Zn2	Zn	1.232462	-0.253976	-0.320985
Zn3	Zn	1.097751	-0.178863	-0.321026
Zn4	Zn	1.097683	-0.253953	-0.455775
O5	O	1.165119	-0.216410	-0.388408
O6	O	1.345398	-0.188818	-0.437968
O7	O	1.214571	-0.244028	-0.208158
O8	O	1.115715	-0.115994	-0.338956
O9	O	1.345311	-0.244014	-0.338887
O10	O	1.214774	-0.115983	-0.438007
O11	O	1.115600	-0.188843	-0.208188
O12	O	0.984910	-0.188820	-0.338888
O13	O	1.115599	-0.243974	-0.568617
O14	O	0.984860	-0.243989	-0.437888
O15	O	1.214708	-0.188795	-0.568668
O16	O	1.214506	-0.316841	-0.338820
O17	O	1.115484	-0.316823	-0.437849
C18	C	0.955629	-0.216404	-0.388385
C19	C	0.866007	-0.216412	-0.388395
C20	C	0.537832	-0.216415	-0.388429
C21	C	0.629140	-0.216413	-0.388417
C22	C	0.701917	-0.216413	-0.388411
C23	C	0.793231	-0.216411	-0.388401
C24	C	1.164996	-0.333133	-0.388340
C25	C	1.165018	-0.383067	-0.388338
C26	C	1.216688	-0.692670	-0.440057
C27	C	1.216776	-0.880343	-0.440106
O28	O	1.260587	-0.904573	-0.484029
N29	N	1.165256	-0.903852	-0.388497
C30	C	1.113708	-0.880440	-0.336877
O31	O	1.069884	-0.904742	-0.292988
C32	C	1.113617	-0.692768	-0.336833
C33	C	1.165145	-0.669261	-0.388439
C34	C	1.268212	-0.669163	-0.491660
C35	C	1.268193	-0.622248	-0.491644
C36	C	1.216650	-0.598839	-0.440026
C37	C	1.165126	-0.622346	-0.388423
C38	C	1.062065	-0.669357	-0.285217
C39	C	1.062045	-0.622436	-0.285212
C40	C	1.113574	-0.598929	-0.336818
C41	C	1.113564	-0.552022	-0.336790
N42	N	1.165083	-0.528512	-0.388398
C43	C	1.216626	-0.551921	-0.440016
C44	C	1.113760	-0.978971	-0.336902
C45	C	1.113784	-1.025889	-0.336912
C46	C	1.216851	-1.025788	-0.440142
C47	C	1.216831	-0.978869	-0.440128
C48	C	1.165280	-0.955462	-0.388511
C49	C	1.216582	-0.453395	-0.439979
C50	C	1.216561	-0.406476	-0.439956
C51	C	1.113491	-0.406580	-0.336729
C52	C	1.113515	-0.453496	-0.336749
C53	C	1.165063	-0.476902	-0.388380
O54	O	1.069769	-0.527762	-0.292896
O55	O	1.260431	-0.527611	-0.483911
C56	C	1.216707	-0.739585	-0.440073
C57	C	1.165184	-0.763092	-0.388471
C58	C	1.113641	-0.739683	-0.336852
C59	C	1.165207	-0.810010	-0.388480
C60	C	1.216750	-0.833419	-0.440099
C61	C	1.268270	-0.809910	-0.491707
C62	C	1.268250	-0.762994	-0.491691
C63	C	1.062122	-0.763193	-0.285244
C64	C	1.062146	-0.810108	-0.285263
C65	C	1.113689	-0.833517	-0.336882
C66	C	1.375428	-0.216417	-0.388431
C67	C	1.465049	-0.216420	-0.388441
C68	C	1.165159	-0.216380	-0.598717
C69	C	1.165176	-0.216368	-0.688338
C70	C	1.165265	-0.099232	-0.388494
C71	C	1.165327	-0.049297	-0.388530
C72	C	1.165189	-0.216358	-0.761121
C73	C	1.165208	-0.216341	-0.852429
C74	C	1.165227	-0.216325	-0.925206
C75	C	1.165247	-0.216309	-1.016520
C76	C	1.165126	-0.216407	-0.178917
C77	C	1.165266	-0.216293	-0.089296
H78	H	1.258552	-0.472447	-0.482027
N79	N	1.061167	-1.049905	-0.284191
N80	N	1.089578	-1.076093	-0.232841
H81	H	1.052414	-1.093055	-0.195608
H82	H	1.310241	-0.828977	-0.533734
N83	N	1.269212	-0.382462	-0.492656
N84	N	1.320604	-0.356277	-0.464314
H85	H	1.357793	-0.339320	-0.501529
H86	H	1.020105	-0.688488	-0.243194
H87	H	1.258820	-1.044855	-0.482171
H88	H	1.258789	-0.959733	-0.482150
N89	N	1.060831	-0.382662	-0.284020
N90	N	0.986428	-0.387931	-0.289310
H91	H	0.949233	-0.371037	-0.252088
H92	H	1.310149	-0.603111	-0.533669
H93	H	1.071780	-0.959915	-0.294868
H94	H	1.310184	-0.688218	-0.533699
N95	N	1.009375	-0.598533	-0.232484
N96	N	0.963374	-0.619530	-0.186418
H97	H	0.926176	-0.602650	-0.149178
H98	H	1.071563	-0.472636	-0.294720
H99	H	1.310210	-0.743858	-0.533714
N100	N	1.009508	-0.834110	-0.232533
N101	N	0.963493	-0.813198	-0.186452
H102	H	0.926314	-0.830147	-0.149216
H103	H	1.020148	-0.744137	-0.243211
