data_functionalizedCrystal
_audit_creation_method	'MofGen! by Chris Wilmer'
_symmetry_space_group_name_H-M	'P1'
_symmetry_Int_Tables_number	1
_symmetry_cell_setting	triclinic
loop_
_symmetry_equiv_pos_as_xyz
  x,y,z
_cell_length_a	10.686220
_cell_length_b	13.033855
_cell_length_c	13.034059
_cell_angle_alpha	88.988717
_cell_angle_beta	86.540308
_cell_angle_gamma	87.740064
loop_
_atom_site_label
_atom_site_type_symbol
_atom_site_fract_x
_atom_site_fract_y
_atom_site_fract_z
Zn1	Zn	2.045803	-0.338331	-0.418095
Zn2	Zn	2.379136	-0.004998	-0.084762
Zn3	Zn	2.712469	0.328336	0.248571
Zn4	Zn	2.038873	-0.489262	-0.224660
Zn5	Zn	2.372206	-0.155929	0.108673
Zn6	Zn	2.705539	0.177405	0.442007
Zn7	Zn	1.809395	-0.333447	-0.259002
Zn8	Zn	2.142728	-0.000114	0.074332
Zn9	Zn	2.476061	0.333220	0.407665
Zn10	Zn	1.861327	-0.523280	-0.406285
Zn11	Zn	2.194660	-0.189947	-0.072952
Zn12	Zn	2.527993	0.143387	0.260382
O13	O	1.938849	-0.421080	-0.327010
O14	O	2.272183	-0.087747	0.006323
O15	O	2.605516	0.245587	0.339656
O16	O	2.218125	-0.346160	-0.383006
O17	O	2.551458	-0.012827	-0.049673
O18	O	2.884791	0.320507	0.283660
O19	O	1.983798	-0.452312	-0.086624
O20	O	2.317131	-0.118979	0.246710
O21	O	2.650465	0.214355	0.580043
O22	O	1.821921	-0.191484	-0.299420
O23	O	2.155255	0.141849	0.033913
O24	O	2.488588	0.475183	0.367246
O25	O	2.213033	-0.457048	-0.240890
O26	O	2.546367	-0.123715	0.092443
O27	O	2.879700	0.209618	0.425776
O28	O	1.995609	-0.195072	-0.416306
O29	O	2.328943	0.138261	-0.082972
O30	O	2.662276	0.471594	0.250361
O31	O	1.815202	-0.337835	-0.111854
O32	O	2.148535	-0.004502	0.221479
O33	O	2.481868	0.328831	0.554812
O34	O	1.643042	-0.370821	-0.287968
O35	O	1.976376	-0.037488	0.045365
O36	O	2.309709	0.295846	0.378698
O37	O	1.910432	-0.515027	-0.550443
O38	O	2.243765	-0.181693	-0.217110
O39	O	2.577098	0.151640	0.116223
O40	O	1.681197	-0.510291	-0.396177
O41	O	2.014530	-0.176957	-0.062844
O42	O	2.347863	0.156376	0.270490
O43	O	2.045965	-0.379146	-0.559120
O44	O	2.379299	-0.045812	-0.225787
O45	O	2.712632	0.287521	0.107546
O46	O	2.034154	-0.636385	-0.229438
O47	O	2.367488	-0.303052	0.103895
O48	O	2.700821	0.030281	0.437228
O49	O	1.903712	-0.661378	-0.362877
O50	O	2.237045	-0.328045	-0.029544
O51	O	2.570379	0.005288	0.303789
C52	C	1.617200	-0.443718	-0.344518
C53	C	1.950534	-0.110385	-0.011185
C54	C	2.283867	0.222949	0.322149
C55	C	1.479605	-0.453430	-0.352029
C56	C	1.812938	-0.120097	-0.018695
C57	C	2.146271	0.213237	0.314638
C58	C	1.973854	-0.685859	-0.291170
C59	C	2.307187	-0.352526	0.042163
C60	C	2.640520	-0.019193	0.375496
C61	C	1.988948	-0.799129	-0.275865
C62	C	2.322281	-0.465796	0.057468
C63	C	2.655615	-0.132462	0.390801
C64	C	1.931072	-0.862026	-0.335013
C65	C	2.264405	-0.528693	-0.001680
C66	C	2.597738	-0.195360	0.331653
C67	C	1.946671	-0.979097	-0.319197
C68	C	2.280004	-0.645764	0.014137
C69	C	2.613338	-0.312430	0.347470
C70	C	2.261754	-0.398354	-0.309435
C71	C	2.595088	-0.065021	0.023898
C72	C	2.928421	0.268312	0.357232
C73	C	2.399357	-0.388670	-0.301945
C74	C	2.732691	-0.055337	0.031388
C75	C	3.066024	0.277997	0.364721
C76	C	1.984764	-0.451426	-0.592788
C77	C	2.318098	-0.118092	-0.259455
C78	C	2.651431	0.215241	0.073879
C79	C	2.004331	-0.464357	-0.706047
C80	C	2.337664	-0.131024	-0.372713
C81	C	2.670997	0.202310	-0.039380
C82	C	1.903745	-0.155267	-0.363011
C83	C	2.237079	0.178067	-0.029678
C84	C	2.570412	0.511400	0.303655
C85	C	1.888786	-0.041993	-0.378353
C86	C	2.222120	0.291340	-0.045019
C87	C	2.555453	0.624674	0.288314
C88	C	1.893174	-0.390774	-0.062273
C89	C	2.226507	-0.057441	0.271060
C90	C	2.559841	0.275893	0.604394
C91	C	1.873810	-0.377538	0.050959
C92	C	2.207143	-0.044205	0.384293
C93	C	2.540476	0.289128	0.717626
C94	C	1.949071	-0.427783	0.113941
C95	C	2.282404	-0.094450	0.447274
C96	C	2.615738	0.238883	0.780608
C97	C	1.929059	-0.414105	0.230973
C98	C	2.262392	-0.080772	0.564306
C99	C	2.595726	0.252561	0.897639
H100	H	1.869967	-0.829207	-0.397358
H101	H	2.203300	-0.495874	-0.064025
H102	H	2.536634	-0.162540	0.269308
H103	H	1.794557	-0.324399	0.083681
H104	H	2.127890	0.008934	0.417014
H105	H	2.461223	0.342268	0.750347
H106	H	2.028316	-0.480931	0.081220
H107	H	2.361649	-0.147598	0.414554
H108	H	2.694982	0.185735	0.747887
Br109	Br	2.136424	-0.552948	0.239437
Br110	Br	2.469757	-0.219615	0.572770
Br111	Br	2.803091	0.113718	0.906103
H112	H	2.050043	-0.831951	-0.213515
H113	H	2.383376	-0.498618	0.119819
H114	H	2.716709	-0.165284	0.453152
Br115	Br	1.796950	-0.325532	0.285494
Br116	Br	2.130283	0.007801	0.618827
Br117	Br	2.463617	0.341135	0.952160
Br118	Br	1.460289	-0.283875	-0.220893
Br119	Br	1.793623	0.049459	0.112440
Br120	Br	2.126956	0.382792	0.445774
Br121	Br	2.048503	-1.033785	-0.215262
Br122	Br	2.381836	-0.700452	0.118072
Br123	Br	2.715170	-0.367118	0.451405
H124	H	1.443038	-0.516313	-0.400650
H125	H	1.776371	-0.182980	-0.067317
H126	H	2.109704	0.150353	0.266017
Br127	Br	1.786922	-0.987307	-0.482267
Br128	Br	2.120255	-0.653974	-0.148933
Br129	Br	2.453588	-0.320641	0.184400
