data_functionalizedCrystal
_audit_creation_method	'MofGen! by Chris Wilmer'
_symmetry_space_group_name_H-M	'P1'
_symmetry_Int_Tables_number	1
_symmetry_cell_setting	triclinic
loop_
_symmetry_equiv_pos_as_xyz
  x,y,z
_cell_length_a	10.654559
_cell_length_b	10.654551
_cell_length_c	9.730223
_cell_angle_alpha	89.998425
_cell_angle_beta	89.996501
_cell_angle_gamma	84.487023
loop_
_atom_site_label
_atom_site_type_symbol
_atom_site_fract_x
_atom_site_fract_y
_atom_site_fract_z
O1	O	1.667833	0.176453	-0.114288
O2	O	1.302356	0.193247	-0.114288
O3	O	1.493497	0.002112	-0.114289
O4	O	1.476692	0.367589	-0.114287
O5	O	1.493484	0.002106	0.114291
O6	O	1.302344	0.193242	0.114292
O7	O	1.667821	0.176448	0.114292
Zn8	Zn	1.485080	0.184844	0.150584
Zn9	Zn	1.485096	0.184851	-0.150580
O10	O	1.476680	0.367584	0.114292
C11	C	1.255552	0.192009	0.000002
C12	C	1.116109	0.188313	0.000001
C13	C	1.064569	0.072301	0.000004
C14	C	0.933547	0.068835	-0.000006
C15	C	0.905616	0.297404	-0.000017
C16	C	1.036636	0.300868	-0.000016
C17	C	1.080694	-0.059662	0.000016
C18	C	0.949672	-0.063128	0.000006
C19	C	1.492256	-0.044689	-0.000002
C20	C	1.488564	-0.184132	-0.000011
C21	C	1.486839	-0.249642	-0.124608
C22	C	1.483358	-0.380662	-0.124601
C23	C	1.483335	-0.380653	0.124609
C24	C	1.486806	-0.249634	0.124601
C25	C	1.486858	-0.249648	-0.268488
C26	C	1.483378	-0.380669	-0.268481
C27	C	1.714625	0.177686	-0.000001
C28	C	1.854067	0.181383	-0.000010
C29	C	1.477920	0.414385	0.000003
C30	C	1.481613	0.553828	0.000003
N31	N	1.485078	0.184839	0.356120
N32	N	1.485108	0.184847	-0.356117
C33	C	1.569744	0.100240	0.428046
C34	C	1.569757	0.100240	0.571929
C35	C	1.400433	0.269450	0.571948
C36	C	1.400415	0.269442	0.428067
H37	H	0.920297	-0.114731	0.095667
H38	H	1.331464	0.338333	0.369502
Br39	Br	1.489098	-0.160725	0.293703
Br40	Br	1.480941	-0.469555	0.293718
Br41	Br	1.150299	-0.142550	-0.159402
Br42	Br	1.342217	-0.172501	-0.360574
Br43	Br	1.639527	-0.200349	-0.342895
Br44	Br	1.156769	-0.126104	0.164518
H45	H	1.638698	0.031351	0.630487
H46	H	1.331504	0.338334	0.630542
Br47	Br	1.628037	-0.457829	-0.360544
Br48	Br	1.106580	0.458319	-0.000059
Br49	Br	1.684641	-0.014581	0.330408
H50	H	0.840893	0.389042	-0.000031
Br51	Br	0.890280	-0.133166	-0.164492
Br52	Br	1.330717	-0.429967	-0.342898
