data_functionalizedCrystal
_audit_creation_method	'MofGen! by Chris Wilmer'
_symmetry_space_group_name_H-M	'P1'
_symmetry_Int_Tables_number	1
_symmetry_cell_setting	triclinic
loop_
_symmetry_equiv_pos_as_xyz
  x,y,z
_cell_length_a	10.654550
_cell_length_b	27.732048
_cell_length_c	9.730223
_cell_angle_alpha	89.993758
_cell_angle_beta	89.996251
_cell_angle_gamma	83.563778
loop_
_atom_site_label
_atom_site_type_symbol
_atom_site_fract_x
_atom_site_fract_y
_atom_site_fract_z
O1	O	1.664980	0.067884	-0.114419
O2	O	1.299230	0.074351	-0.114399
O3	O	1.493465	0.000792	-0.114384
O4	O	1.470746	0.141444	-0.114435
O5	O	1.493462	0.000793	0.114196
O6	O	1.299228	0.074353	0.114181
O7	O	1.664978	0.067886	0.114161
Zn8	Zn	1.482102	0.071120	0.150463
Zn9	Zn	1.482105	0.071117	-0.150701
O10	O	1.470743	0.141445	0.114145
C11	C	1.252451	0.073878	-0.000106
C12	C	1.113067	0.072457	-0.000097
C13	C	1.031761	0.115768	-0.000133
C14	C	0.900796	0.114430	-0.000156
C15	C	0.932457	0.026466	-0.000114
C16	C	1.063419	0.027805	-0.000080
C17	C	1.013480	0.166553	-0.000163
C18	C	0.882516	0.165215	-0.000187
C19	C	1.492987	-0.017217	-0.000090
C20	C	1.491551	-0.070881	-0.000078
C21	C	1.597290	-0.409038	-0.000155
C22	C	1.591962	-0.610731	-0.000174
O23	O	1.688653	-0.641384	-0.000239
N24	N	1.476789	-0.630572	-0.000166
C25	C	1.362940	-0.599986	-0.000163
O26	O	1.264856	-0.621490	-0.000171
C27	C	1.368269	-0.398294	-0.000154
C28	C	1.483449	-0.378456	-0.000147
C29	C	1.712461	-0.389199	-0.000150
C30	C	1.713792	-0.338779	-0.000138
C31	C	1.599951	-0.308197	-0.000131
C32	C	1.484780	-0.328036	-0.000135
C33	C	1.254421	-0.367709	-0.000160
C34	C	1.255764	-0.317284	-0.000161
C35	C	1.370944	-0.297446	-0.000155
C36	C	1.372271	-0.247034	-0.000115
N37	N	1.487444	-0.227193	-0.000123
C38	C	1.601284	-0.257775	-0.000131
C39	C	1.360150	-0.705877	-0.000165
C40	C	1.358817	-0.756300	-0.000164
C41	C	1.587840	-0.767041	-0.000178
C42	C	1.589171	-0.716618	-0.000169
C43	C	1.475323	-0.686036	-0.000172
C44	C	1.604070	-0.151888	-0.000104
C45	C	1.605391	-0.101463	-0.000086
C46	C	1.376369	-0.090726	-0.000080
C47	C	1.375047	-0.141147	-0.000090
C48	C	1.488908	-0.171727	-0.000107
O49	O	1.275631	-0.216352	-0.000065
O50	O	1.699354	-0.236261	-0.000153
C51	C	1.595959	-0.459458	-0.000167
C52	C	1.480788	-0.479296	-0.000172
C53	C	1.366948	-0.448715	-0.000164
C54	C	1.479455	-0.529719	-0.000172
C55	C	1.593296	-0.560301	-0.000179
C56	C	1.708469	-0.540460	-0.000187
C57	C	1.709800	-0.490040	-0.000175
C58	C	1.251774	-0.468556	-0.000157
C59	C	1.250453	-0.518976	-0.000167
C60	C	1.364293	-0.549558	-0.000175
C61	C	1.711757	0.068360	-0.000135
C62	C	1.851141	0.069780	-0.000153
C63	C	1.471221	0.159454	-0.000152
C64	C	1.472657	0.213118	-0.000172
N65	N	1.482110	0.071121	0.355999
N66	N	1.482108	0.071112	-0.356238
C67	C	1.568138	0.038560	0.427932
C68	C	1.568135	0.038554	0.571815
C69	C	1.396071	0.103675	0.571820
C70	C	1.396069	0.103678	0.427939
C71	C	1.667482	0.000964	0.427930
C72	C	1.667479	0.000959	0.571813
H73	H	1.048457	0.182723	-0.098857
H74	H	1.803591	-0.473893	-0.000170
O75	O	1.794846	0.011931	0.623550
H76	H	1.857200	0.017313	0.534771
H77	H	1.041976	0.186415	0.095495
H78	H	1.326018	0.130181	0.630409
O79	O	1.151120	-0.018908	-0.000018
H80	H	1.094591	-0.050181	-0.000020
H81	H	1.801162	-0.565369	-0.000187
O82	O	1.303263	0.138793	0.350359
H83	H	1.317703	0.133323	0.238223
O84	O	1.130188	-0.389098	-0.000166
H85	H	1.075554	-0.376838	-0.093339
O86	O	1.787615	0.016553	0.368804
H87	H	1.764516	0.049441	0.304624
O88	O	1.234582	-0.777691	-0.000145
H89	H	1.252767	-0.817892	-0.000133
H90	H	0.892018	-0.009888	-0.000121
O91	O	1.237348	-0.672895	-0.000160
H92	H	1.232480	-0.649668	0.093002
O93	O	1.128978	-0.435577	-0.000122
H94	H	1.073800	-0.442677	-0.093274
H95	H	0.836198	0.180563	0.098492
H96	H	1.805169	-0.414094	-0.000162
H97	H	1.638442	-0.034148	0.616444
O98	O	0.826152	0.190561	-0.126905
H99	H	0.902423	0.204025	-0.188934
O100	O	1.729625	-0.080065	-0.000101
H101	H	1.808558	-0.109805	-0.000129
H102	H	1.696787	-0.176781	-0.000123
H103	H	1.807584	-0.322632	-0.000139
O104	O	1.132968	-0.284298	-0.000149
H105	H	1.052662	-0.306568	-0.000140
O106	O	1.713399	-0.695221	-0.000188
H107	H	1.792328	-0.724962	-0.000204
H108	H	1.680533	-0.791950	-0.000184
O109	O	1.253589	-0.057735	-0.000064
H110	H	1.198423	-0.064832	-0.093226
H111	H	1.281258	-0.157300	-0.000057
H112	H	1.647601	-0.036185	0.388891
O113	O	1.126215	-0.540371	-0.000171
H114	H	1.047286	-0.510630	-0.000176
