data_functionalizedCrystal
_audit_creation_method	'MofGen! by Chris Wilmer'
_symmetry_space_group_name_H-M	'P1'
_symmetry_Int_Tables_number	1
_symmetry_cell_setting	triclinic
loop_
_symmetry_equiv_pos_as_xyz
  x,y,z
_cell_length_a	18.101390
_cell_length_b	13.897449
_cell_length_c	13.897448
_cell_angle_alpha	89.981028
_cell_angle_beta	89.968763
_cell_angle_gamma	90.018199
loop_
_atom_site_label
_atom_site_type_symbol
_atom_site_fract_x
_atom_site_fract_y
_atom_site_fract_z
Zn1	Zn	-0.418719	-1.474678	-0.383945
Zn2	Zn	-0.294881	-1.474580	-0.545269
Zn3	Zn	-0.294895	-1.313375	-0.383993
Zn4	Zn	-0.418684	-1.313349	-0.545203
O5	O	-0.356795	-1.393996	-0.464603
O6	O	-0.402301	-1.609647	-0.405352
O7	O	-0.191250	-1.453165	-0.523922
O8	O	-0.311340	-1.334824	-0.249005
O9	O	-0.311318	-1.609574	-0.523876
O10	O	-0.402314	-1.453333	-0.248970
O11	O	-0.191260	-1.334728	-0.405434
O12	O	-0.311306	-1.178390	-0.405370
O13	O	-0.522322	-1.334781	-0.523765
O14	O	-0.402254	-1.178371	-0.523811
O15	O	-0.522348	-1.453309	-0.405289
O16	O	-0.311284	-1.453140	-0.680242
O17	O	-0.402241	-1.334685	-0.680194
C18	C	-0.356778	-1.143381	-0.464590
C19	C	-0.356788	-1.036167	-0.464607
C20	C	-0.356773	-1.393925	-0.715217
C21	C	-0.356789	-1.393983	-0.822431
C22	C	-0.549957	-1.394053	-0.464514
C23	C	-0.632271	-1.394077	-0.464477
C24	C	-0.931362	-1.394129	-0.464417
C25	C	-0.900053	-1.468949	-0.390137
C26	C	-0.814435	-1.468716	-0.389862
C27	C	-0.782980	-1.394104	-0.464447
C28	C	-0.814054	-1.292481	-0.436832
C29	C	-0.899699	-1.292929	-0.436275
C30	C	-0.899776	-1.420037	-0.566502
C31	C	-0.814126	-1.422267	-0.565982
C32	C	-0.699120	-1.394084	-0.464465
C33	C	-1.015222	-1.394143	-0.464396
C34	C	-0.164384	-1.393994	-0.464621
C35	C	-0.082071	-1.394156	-0.464386
C36	C	-0.356812	-1.645588	-0.464616
C37	C	-0.356820	-1.752802	-0.464622
C38	C	-0.356808	-0.839872	-0.464611
C39	C	-0.356795	-0.949105	-0.464606
C40	C	-0.356835	-1.394085	-1.018726
C41	C	-0.356812	-1.394026	-0.909493
C42	C	-0.356833	-1.394092	-0.213010
C43	C	-0.356849	-1.394134	-0.105796
H44	H	-0.793426	-1.544071	-0.407155
O45	O	-0.788669	-1.361849	-0.635493
C46	C	-0.810774	-1.266913	-0.614317
H47	H	-0.861444	-1.268601	-0.565596
H48	H	-0.824903	-1.227728	-0.683992
H49	H	-0.763851	-1.227642	-0.576240
H50	H	-0.920029	-1.365547	-0.621848
H51	H	-0.920654	-1.544551	-0.407217
O52	O	-0.789840	-1.224050	-0.499318
C53	C	-0.818738	-1.133774	-0.472419
H54	H	-0.870979	-1.144703	-0.427884
H55	H	-0.832554	-1.090492	-0.539738
H56	H	-0.776050	-1.093127	-0.427885
H57	H	-0.921590	-1.452015	-0.314932
H58	H	-0.793961	-1.451565	-0.314235
O59	O	-0.923589	-1.266573	-0.347315
C60	C	-0.966954	-1.182643	-0.354739
H61	H	-0.951902	-1.142492	-0.423557
H62	H	-0.956115	-1.134359	-0.289965
H63	H	-1.027909	-1.203208	-0.356696
O64	O	-0.924537	-1.224220	-0.497986
C65	C	-1.002428	-1.223943	-0.498045
H66	H	-1.023611	-1.297065	-0.473069
H67	H	-1.023322	-1.208895	-0.573940
H68	H	-1.023336	-1.165645	-0.447176
O69	O	-0.789964	-1.511473	-0.590981
C70	C	-0.818230	-1.535980	-0.682261
H71	H	-0.870251	-1.492201	-0.697045
H72	H	-0.832236	-1.615945	-0.683803
H73	H	-0.775061	-1.519611	-0.739747
O74	O	-0.788361	-1.265856	-0.348838
C75	C	-0.710545	-1.261908	-0.351010
H76	H	-0.689093	-1.309541	-0.411657
H77	H	-0.687594	-1.288464	-0.279396
H78	H	-0.692023	-1.184528	-0.363730
H79	H	-0.921420	-1.492843	-0.591648
