data_functionalizedCrystal
_audit_creation_method	'MofGen! by Chris Wilmer'
_symmetry_space_group_name_H-M	'P1'
_symmetry_Int_Tables_number	1
_symmetry_cell_setting	triclinic
loop_
_symmetry_equiv_pos_as_xyz
  x,y,z
_cell_length_a	10.967926
_cell_length_b	12.837942
_cell_length_c	9.482944
_cell_angle_alpha	99.464719
_cell_angle_beta	88.407388
_cell_angle_gamma	89.656601
loop_
_atom_site_label
_atom_site_type_symbol
_atom_site_fract_x
_atom_site_fract_y
_atom_site_fract_z
O1	O	1.627555	0.110906	-0.286865
O2	O	1.279716	0.135347	-0.199716
O3	O	1.445922	-0.027601	-0.241367
O4	O	1.461350	0.273854	-0.245214
O5	O	1.409097	-0.055654	-0.473934
O6	O	1.242892	0.107294	-0.432284
O7	O	1.590731	0.082852	-0.519433
Cu8	Cu	1.413449	0.092512	-0.497094
Cu9	Cu	1.456998	0.125688	-0.222055
O10	O	1.424526	0.245801	-0.477782
C11	C	1.216473	0.121662	-0.304768
C12	C	1.082890	0.122667	-0.271299
C13	C	1.004257	0.108582	-0.376855
C14	C	0.866191	0.109621	-0.342266
C15	C	1.422299	-0.080129	-0.356344
C16	C	1.406757	-0.194851	-0.352448
C17	C	1.593605	-0.440072	-0.399231
C18	C	1.579008	-0.547864	-0.395571
C19	C	1.362968	-0.518229	-0.341459
C20	C	1.377565	-0.410437	-0.345119
C21	C	1.492887	-0.371363	-0.374008
C22	C	1.507481	-0.263570	-0.377677
C23	C	1.291445	-0.233935	-0.323555
C24	C	1.276848	-0.341728	-0.319896
C25	C	1.653975	0.096538	-0.414378
C26	C	1.787560	0.095534	-0.447837
C27	C	1.448150	0.298330	-0.362801
C28	C	1.463693	0.413053	-0.366689
N29	N	1.382828	0.069177	-0.690543
C30	C	1.422499	0.099387	-0.940093
C31	C	1.447967	0.118812	-0.779056
N32	N	1.487628	0.149015	-0.028608
H33	H	1.039152	0.095750	-0.492832
H34	H	1.047995	0.135491	-0.155323
C35	C	1.076424	-0.215475	-0.269712
C36	C	1.180723	-0.158408	-0.295834
H37	H	1.008071	-0.168848	-0.252614
H38	H	1.088058	-0.248339	-0.188307
H39	H	1.062400	-0.267931	-0.350517
H40	H	1.194752	-0.105958	-0.215025
H41	H	1.169088	-0.125528	-0.377248
H42	H	1.601381	-0.231759	-0.401205
H43	H	1.687502	-0.408259	-0.422767
H44	H	1.347889	0.042512	-0.983535
H45	H	0.831303	0.122446	-0.226282
C46	C	0.962302	0.080538	-0.608380
C47	C	0.834644	0.078215	-0.604417
H48	H	0.991367	0.069851	-0.705045
H49	H	0.993301	0.026209	-0.561971
H50	H	0.988814	0.147139	-0.560831
H51	H	0.808132	0.011611	-0.651958
H52	H	0.803633	0.132547	-0.650846
C53	C	1.522270	0.296371	-0.750509
C54	C	1.548704	0.195592	-0.720443
H55	H	1.584464	0.343767	-0.714329
H56	H	1.446070	0.320319	-0.706552
H57	H	1.518368	0.293374	-0.851041
H58	H	1.552596	0.198587	-0.619909
H59	H	1.624924	0.171639	-0.764394
C60	C	1.561926	0.326570	-1.000054
C61	C	1.588360	0.225791	-0.969988
H62	H	1.624120	0.373966	-0.963875
H63	H	1.485726	0.350518	-0.956098
H64	H	1.558024	0.323573	-1.100586
H65	H	1.592252	0.228786	-0.869454
H66	H	1.664580	0.201838	-1.013940
H67	H	1.661024	-0.603804	-0.416107
H68	H	1.182957	-0.373556	-0.296370
C69	C	1.244680	-0.670315	-0.311821
C70	C	1.236215	-0.561193	-0.309707
H71	H	1.166425	-0.696838	-0.292228
H72	H	1.299501	-0.684269	-0.241236
H73	H	1.273839	-0.703846	-0.403445
H74	H	1.207065	-0.527662	-0.218079
H75	H	1.181375	-0.547231	-0.380296
C76	C	1.276235	-0.011866	-0.897312
C77	C	1.282090	-0.007600	-0.749160
H78	H	1.214039	-0.059259	-0.933495
H79	H	1.352418	-0.035770	-0.941353
H80	H	1.258256	0.056537	-0.917558
H81	H	1.300078	-0.076002	-0.728913
H82	H	1.205889	0.016299	-0.705104
