data_functionalizedCrystal
_audit_creation_method	'MofGen! by Chris Wilmer'
_symmetry_space_group_name_H-M	'P1'
_symmetry_Int_Tables_number	1
_symmetry_cell_setting	triclinic
loop_
_symmetry_equiv_pos_as_xyz
  x,y,z
_cell_length_a	21.295418
_cell_length_b	21.295417
_cell_length_c	21.295411
_cell_angle_alpha	89.978356
_cell_angle_beta	89.956262
_cell_angle_gamma	90.046319
loop_
_atom_site_label
_atom_site_type_symbol
_atom_site_fract_x
_atom_site_fract_y
_atom_site_fract_z
Zn1	Zn	0.962356	-0.250415	-0.356234
Zn2	Zn	1.295689	0.082918	-0.022900
Zn3	Zn	1.629022	0.416251	0.310433
Zn4	Zn	0.962258	-0.355667	-0.250959
Zn5	Zn	1.295592	-0.022334	0.082374
Zn6	Zn	1.628925	0.311000	0.415708
Zn7	Zn	0.857079	-0.250445	-0.250943
Zn8	Zn	1.190412	0.082889	0.082390
Zn9	Zn	1.523746	0.416222	0.415723
Zn10	Zn	0.857048	-0.355680	-0.356155
Zn11	Zn	1.190382	-0.022346	-0.022822
Zn12	Zn	1.523715	0.310987	0.310511
O13	O	0.909685	-0.303052	-0.303573
O14	O	1.243019	0.030282	0.029760
O15	O	1.576352	0.363615	0.363094
O16	O	1.050432	-0.264360	-0.342308
O17	O	1.383766	0.068974	-0.008975
O18	O	1.717099	0.402307	0.324359
O19	O	0.948278	-0.341716	-0.162867
O20	O	1.281611	-0.008383	0.170466
O21	O	1.614945	0.324950	0.503799
O22	O	0.871098	-0.162351	-0.264937
O23	O	1.204431	0.170982	0.068397
O24	O	1.537764	0.504315	0.401730
O25	O	1.050361	-0.341688	-0.264963
O26	O	1.383694	-0.008354	0.068370
O27	O	1.717027	0.324979	0.401704
O28	O	0.948444	-0.162330	-0.342293
O29	O	1.281778	0.171004	-0.008960
O30	O	1.615111	0.504337	0.324374
O31	O	0.871003	-0.264410	-0.162856
O32	O	1.204337	0.068923	0.170477
O33	O	1.537670	0.402257	0.503811
O34	O	0.768985	-0.264422	-0.264861
O35	O	1.102319	0.068911	0.068473
O36	O	1.435652	0.402245	0.401806
O37	O	0.871046	-0.341709	-0.444255
O38	O	1.204379	-0.008376	-0.110922
O39	O	1.537712	0.324958	0.222411
O40	O	0.768963	-0.341738	-0.342160
O41	O	1.102296	-0.008404	-0.008826
O42	O	1.435630	0.324929	0.324507
O43	O	0.948415	-0.264372	-0.444313
O44	O	1.281748	0.068962	-0.110979
O45	O	1.615081	0.402295	0.222354
O46	O	0.948248	-0.443758	-0.264887
O47	O	1.281582	-0.110425	0.068446
O48	O	1.614915	0.222909	0.401779
O49	O	0.870951	-0.443767	-0.342175
O50	O	1.204284	-0.110434	-0.008841
O51	O	1.537618	0.222899	0.324492
C52	C	0.746134	-0.303085	-0.303500
C53	C	1.079467	0.030249	0.029833
C54	C	1.412800	0.363582	0.363166
C55	C	0.676166	-0.303114	-0.303484
C56	C	1.009499	0.030219	0.029849
C57	C	1.342832	0.363553	0.363182
C58	C	0.643304	-0.343426	-0.343674
C59	C	0.976637	-0.010092	-0.010340
C60	C	1.309970	0.323241	0.322993
C61	C	0.577561	-0.343410	-0.343702
C62	C	0.910894	-0.010077	-0.010369
C63	C	1.244228	0.323257	0.322965
C64	C	0.544683	-0.303090	-0.303530
C65	C	0.878016	0.030244	0.029804
C66	C	1.211350	0.363577	0.363137
C67	C	0.577553	-0.262770	-0.263337
C68	C	0.910886	0.070563	0.069996
C69	C	1.244220	0.403896	0.403329
C70	C	0.643294	-0.262783	-0.263315
C71	C	0.976627	0.070551	0.070018
C72	C	1.309961	0.403884	0.403352
N73	N	0.441407	-0.298163	-0.248472
N74	N	0.774740	0.035171	0.084861
N75	N	1.108074	0.368504	0.418195
N76	N	0.378956	-0.298155	-0.248495
N77	N	0.712289	0.035179	0.084838
N78	N	1.045622	0.368512	0.418171
C79	C	0.346608	-0.303050	-0.303596
C80	C	0.679942	0.030284	0.029737
C81	C	1.013275	0.363617	0.363070
N82	N	0.379072	-0.307965	-0.358675
N83	N	0.712405	0.025368	-0.025341
N84	N	1.045739	0.358702	0.307992
N85	N	0.441529	-0.307976	-0.358650
N86	N	0.774862	0.025357	-0.025317
N87	N	1.108196	0.358691	0.308016
C88	C	0.473398	-0.303072	-0.303550
C89	C	0.806731	0.030262	0.029783
C90	C	1.140064	0.363595	0.363117
C91	C	0.242461	-0.343346	-0.343820
C92	C	0.575794	-0.010013	-0.010486
C93	C	0.909128	0.323320	0.322847
C94	C	0.176717	-0.343326	-0.343849
C95	C	0.510051	-0.009993	-0.010516
C96	C	0.843384	0.323340	0.322818
C97	C	0.176710	-0.262690	-0.263479
C98	C	0.510044	0.070643	0.069854
C99	C	0.843377	0.403977	0.403188
C100	C	0.242453	-0.262707	-0.263455
C101	C	0.575786	0.070627	0.069878
C102	C	0.909119	0.403960	0.403211
C103	C	0.275324	-0.303038	-0.303625
C104	C	0.608657	0.030295	0.029709
C105	C	0.941991	0.363628	0.363042
C106	C	0.909603	-0.466603	-0.303538
C107	C	1.242936	-0.133270	0.029795
C108	C	1.576269	0.200063	0.363129
C109	C	0.909625	-0.536571	-0.303544
C110	C	1.242958	-0.203238	0.029789
C111	C	1.576292	0.130095	0.363123
C112	C	0.949910	-0.569412	-0.263342
C113	C	1.283243	-0.236079	0.069991
C114	C	1.616576	0.097254	0.403325
C115	C	0.949939	-0.635155	-0.263356
C116	C	1.283272	-0.301822	0.069977
C117	C	1.616606	0.031512	0.403311
C118	C	0.909673	-0.668054	-0.303566
C119	C	1.243006	-0.334721	0.029767
C120	C	1.576340	-0.001387	0.363101
C121	C	0.869386	-0.635205	-0.343776
C122	C	1.202719	-0.301872	-0.010443
C123	C	1.536052	0.031462	0.322891
C124	C	0.869362	-0.569464	-0.343765
C125	C	1.202695	-0.236130	-0.010432
C126	C	1.536028	0.097203	0.322902
N127	N	0.854606	-0.771336	-0.308340
N128	N	1.187939	-0.438002	0.024993
N129	N	1.521272	-0.104669	0.358326
N130	N	0.854630	-0.833787	-0.308347
N131	N	1.187964	-0.500454	0.024986
N132	N	1.521297	-0.167120	0.358320
C133	C	0.909743	-0.866129	-0.303602
C134	C	1.243077	-0.532795	0.029731
C135	C	1.576410	-0.199462	0.363065
N136	N	0.964832	-0.833659	-0.298838
N137	N	1.298166	-0.500326	0.034496
N138	N	1.631499	-0.166993	0.367829
N139	N	0.964807	-0.771202	-0.298828
N140	N	1.298140	-0.437869	0.034506
N141	N	1.631474	-0.104535	0.367839
C142	C	0.909695	-0.739339	-0.303582
C143	C	1.243028	-0.406006	0.029751
C144	C	1.576361	-0.072673	0.363084
C145	C	0.950063	-0.970255	-0.263413
C146	C	1.283397	-0.636922	0.069920
C147	C	1.616730	-0.303588	0.403254
C148	C	0.950094	-1.035999	-0.263431
C149	C	1.283427	-0.702665	0.069902
C150	C	1.616760	-0.369332	0.403235
C151	C	0.869535	-1.036048	-0.343848
C152	C	1.202868	-0.702714	-0.010515
C153	C	1.536201	-0.369381	0.322819
C154	C	0.869510	-0.970305	-0.343833
C155	C	1.202843	-0.636972	-0.010500
C156	C	1.536176	-0.303638	0.322834
C157	C	0.909773	-0.937413	-0.303612
C158	C	1.243106	-0.604079	0.029721
C159	C	1.576440	-0.270746	0.363055
C160	C	1.073876	-0.303019	-0.303646
C161	C	1.407209	0.030314	0.029687
C162	C	1.740542	0.363648	0.363021
C163	C	1.143844	-0.303005	-0.303677
C164	C	1.477177	0.030328	0.029656
C165	C	1.810510	0.363662	0.362990
C166	C	0.909738	-0.303038	-0.467763
C167	C	1.243071	0.030295	-0.134430
C168	C	1.576404	0.363628	0.198903
C169	C	0.909760	-0.303033	-0.537731
C170	C	1.243093	0.030301	-0.204398
C171	C	1.576427	0.363634	0.128935
C172	C	0.909785	-0.138861	-0.303622
C173	C	1.243119	0.194472	0.029712
C174	C	1.576452	0.527805	0.363045
C175	C	0.909828	-0.068893	-0.303642
C176	C	1.243161	0.264440	0.029691
C177	C	1.576495	0.597773	0.363024
C178	C	0.950044	-0.262761	-0.570629
C179	C	1.283377	0.070572	-0.237296
C180	C	1.616711	0.403905	0.096038
C181	C	0.950043	-0.262734	-0.636371
C182	C	1.283377	0.070599	-0.303038
C183	C	1.616710	0.403933	0.030295
C184	C	0.909765	-0.302989	-0.669214
C185	C	1.243098	0.030344	-0.335881
C186	C	1.576431	0.363677	-0.002547
C187	C	0.869473	-0.343263	-0.636308
C188	C	1.202806	-0.009930	-0.302975
C189	C	1.536139	0.323403	0.030358
C190	C	0.869470	-0.343285	-0.570567
C191	C	1.202804	-0.009952	-0.237234
C192	C	1.536137	0.323382	0.096100
N193	N	0.904908	-0.358058	-0.772428
N194	N	1.238241	-0.024725	-0.439094
N195	N	1.571575	0.308608	-0.105761
N196	N	0.904914	-0.358036	-0.834879
N197	N	1.238247	-0.024703	-0.501546
N198	N	1.571581	0.308631	-0.168213
C199	C	0.909769	-0.302926	-0.867289
C200	C	1.243102	0.030408	-0.533955
C201	C	1.576435	0.363741	-0.200622
N202	N	0.914629	-0.247837	-0.834888
N203	N	1.247963	0.085496	-0.501554
N204	N	1.581296	0.418830	-0.168221
N205	N	0.914627	-0.247860	-0.772430
N206	N	1.247960	0.085473	-0.439097
N207	N	1.581293	0.418807	-0.105764
C208	C	0.909763	-0.302970	-0.740499
C209	C	1.243096	0.030363	-0.407166
C210	C	1.576429	0.363697	-0.073833
C211	C	0.950054	-0.262621	-0.971472
C212	C	1.283388	0.070712	-0.638139
C213	C	1.616721	0.404045	-0.304805
C214	C	0.950049	-0.262593	-1.037216
C215	C	1.283382	0.070740	-0.703882
C216	C	1.616716	0.404074	-0.370549
C217	C	0.869482	-0.343128	-1.037151
C218	C	1.202815	-0.009795	-0.703818
C219	C	1.536148	0.323539	-0.370485
C220	C	0.869484	-0.343151	-0.971409
C221	C	1.202817	-0.009817	-0.638076
C222	C	1.536150	0.323516	-0.304742
C223	C	0.909773	-0.302898	-0.938573
C224	C	1.243107	0.030435	-0.605240
C225	C	1.576440	0.363769	-0.271906
C226	C	0.909670	-0.303019	-0.140021
C227	C	1.243003	0.030314	0.193312
C228	C	1.576336	0.363647	0.526645
C229	C	0.909769	-0.302848	-0.070054
C230	C	1.243103	0.030486	0.263280
C231	C	1.576436	0.363819	0.596613
H232	H	0.269226	-0.376183	-0.376531
H233	H	0.602560	-0.042850	-0.043198
H234	H	0.935893	0.290483	0.290135
Cl235	Cl	1.000690	-0.212155	-0.529353
Cl236	Cl	1.334024	0.121179	-0.196020
Cl237	Cl	1.667357	0.454512	0.137314
Cl238	Cl	1.000707	-0.211971	-1.078573
Cl239	Cl	1.334040	0.121362	-0.745240
Cl240	Cl	1.667373	0.454696	-0.411907
Cl241	Cl	0.684608	-0.212101	-0.212787
Cl242	Cl	1.017942	0.121232	0.120547
Cl243	Cl	1.351275	0.454566	0.453880
Cl244	Cl	0.135384	-0.211997	-0.212980
Cl245	Cl	0.468717	0.121336	0.120353
Cl246	Cl	0.802051	0.454670	0.453687
Cl247	Cl	0.818918	-1.077400	-0.394403
Cl248	Cl	1.152251	-0.744067	-0.061069
Cl249	Cl	1.485585	-0.410734	0.272264
H250	H	0.836602	-0.661996	-0.376516
H251	H	1.169935	-0.328662	-0.043183
H252	H	1.503268	0.004671	0.290150
Cl253	Cl	0.818860	-0.929017	-0.394373
Cl254	Cl	1.152194	-0.595684	-0.061040
Cl255	Cl	1.485527	-0.262350	0.272294
H256	H	0.836557	-0.542724	-0.376503
H257	H	1.169890	-0.209391	-0.043170
H258	H	1.503223	0.123943	0.290163
Cl259	Cl	1.000678	-0.212091	-0.677737
Cl260	Cl	1.334011	0.121243	-0.344404
Cl261	Cl	1.667344	0.454576	-0.011070
Cl262	Cl	0.818834	-0.393868	-0.677595
Cl263	Cl	1.152168	-0.060534	-0.344262
Cl264	Cl	1.485501	0.272799	-0.010928
H265	H	0.982902	-1.062737	-0.230695
H266	H	1.316235	-0.729403	0.102638
H267	H	1.649569	-0.396070	0.435971
Cl268	Cl	0.818823	-0.393917	-0.529208
Cl269	Cl	1.152157	-0.060583	-0.195875
Cl270	Cl	1.485490	0.272750	0.137459
Cl271	Cl	1.000699	-0.212016	-0.930190
Cl272	Cl	1.334033	0.121317	-0.596856
Cl273	Cl	1.667366	0.454651	-0.263523
Cl274	Cl	0.818840	-0.393783	-0.930050
Cl275	Cl	1.152173	-0.060450	-0.596716
Cl276	Cl	1.485507	0.272884	-0.263383
Cl277	Cl	0.283767	-0.212028	-0.212927
Cl278	Cl	0.617101	0.121305	0.120407
Cl279	Cl	0.950434	0.454639	0.453740
Cl280	Cl	0.135405	-0.394005	-0.394381
Cl281	Cl	0.468738	-0.060672	-0.061048
Cl282	Cl	0.802071	0.272662	0.272285
H283	H	0.670063	-0.376266	-0.376384
H284	H	1.003397	-0.042932	-0.043050
H285	H	1.336730	0.290401	0.290283
Cl286	Cl	0.536240	-0.394092	-0.394229
Cl287	Cl	0.869574	-0.060758	-0.060896
Cl288	Cl	1.202907	0.272575	0.272437
Cl289	Cl	1.000536	-0.528065	-0.212788
Cl290	Cl	1.333869	-0.194732	0.120546
Cl291	Cl	1.667202	0.138601	0.453879
Cl292	Cl	0.536221	-0.212079	-0.212838
Cl293	Cl	0.869555	0.121255	0.120495
Cl294	Cl	1.202888	0.454588	0.453828
H295	H	0.982746	-0.661899	-0.230619
H296	H	1.316079	-0.328566	0.102715
H297	H	1.649412	0.004767	0.436048
H298	H	0.982850	-0.943473	-0.230664
H299	H	1.316184	-0.610140	0.102669
H300	H	1.649517	-0.276806	0.436002
Cl301	Cl	0.818839	-0.393730	-1.078433
Cl302	Cl	1.152173	-0.060396	-0.745100
Cl303	Cl	1.485506	0.272937	-0.411766
