data_functionalizedCrystal
_audit_creation_method	'MofGen! by Chris Wilmer'
_symmetry_space_group_name_H-M	'P1'
_symmetry_Int_Tables_number	1
_symmetry_cell_setting	triclinic
loop_
_symmetry_equiv_pos_as_xyz
  x,y,z
_cell_length_a	21.395361
_cell_length_b	12.759401
_cell_length_c	21.395355
_cell_angle_alpha	90.021356
_cell_angle_beta	90.021511
_cell_angle_gamma	90.030869
loop_
_atom_site_label
_atom_site_type_symbol
_atom_site_fract_x
_atom_site_fract_y
_atom_site_fract_z
Zn1	Zn	-0.249508	1.606168	0.354195
Zn2	Zn	0.250492	2.106168	0.854195
Zn3	Zn	-0.354268	1.606005	0.249412
Zn4	Zn	0.145732	2.106005	0.749412
Zn5	Zn	-0.249509	1.430461	0.249437
Zn6	Zn	0.250491	1.930461	0.749437
Zn7	Zn	-0.354252	1.430410	0.354158
Zn8	Zn	0.145748	1.930410	0.854158
O9	O	-0.301884	1.518261	0.301801
O10	O	0.198116	2.018261	0.801801
O11	O	-0.263412	1.753167	0.340300
O12	O	0.236588	2.253167	0.840300
O13	O	-0.340378	1.582672	0.161737
O14	O	0.159622	2.082672	0.661737
O15	O	-0.161831	1.453859	0.263360
O16	O	0.338169	1.953859	0.763360
O17	O	-0.340378	1.753047	0.263316
O18	O	0.159622	2.253047	0.763316
O19	O	-0.161831	1.582950	0.340325
O20	O	0.338169	2.082950	0.840325
O21	O	-0.263412	1.453701	0.161756
O22	O	0.236588	1.953701	0.661756
O23	O	-0.263397	1.283433	0.263324
O24	O	0.236603	1.783433	0.763324
O25	O	-0.340351	1.453771	0.441841
O26	O	0.159649	1.953771	0.941841
O27	O	-0.340351	1.283395	0.340262
O28	O	0.159649	1.783395	0.840262
O29	O	-0.263396	1.582900	0.441868
O30	O	0.236604	2.082900	0.941868
O31	O	-0.441944	1.582621	0.263281
O32	O	0.058056	2.082621	0.763281
O33	O	-0.441932	1.453613	0.340237
O34	O	0.058068	1.953613	0.840237
C35	C	-0.301873	1.245294	0.301792
C36	C	0.198127	1.745294	0.801792
C37	C	-0.301883	1.128517	0.301803
C38	C	0.198117	1.628517	0.801803
C39	C	-0.342018	1.073663	0.341798
C40	C	0.157982	1.573663	0.841798
C41	C	-0.342025	0.963938	0.341805
C42	C	0.157975	1.463938	0.841805
C43	C	-0.261763	0.963933	0.261816
C44	C	0.238237	1.463933	0.761816
C45	C	-0.261752	1.073655	0.261813
C46	C	0.238248	1.573655	0.761813
C47	C	-0.388358	1.073665	0.387978
C48	C	0.111642	1.573665	0.887978
C49	C	-0.388366	0.963941	0.387984
C50	C	0.111634	1.463941	0.887984
C51	C	-0.464672	1.518122	0.301766
C52	C	0.035328	2.018122	0.801766
C53	C	-0.534313	1.518159	0.301772
C54	C	-0.034313	2.018159	0.801772
C55	C	-0.567012	1.585393	0.261742
C56	C	-0.067012	2.085393	0.761742
C57	C	-0.632447	1.585442	0.261756
C58	C	-0.132447	2.085442	0.761756
C59	C	-0.665182	1.518238	0.301793
C60	C	-0.165182	2.018238	0.801793
C61	C	-0.632475	1.450999	0.341831
C62	C	-0.132475	1.950999	0.841831
C63	C	-0.567041	1.450959	0.341820
C64	C	-0.067041	1.950959	0.841820
C65	C	-0.768897	1.423640	0.306706
C66	C	-0.268897	1.923640	0.806706
C67	C	-0.834330	1.423678	0.306713
C68	C	-0.334330	1.923678	0.806713
C69	C	-0.867002	1.518360	0.301830
C70	C	-0.367002	2.018360	0.801830
C71	C	-0.834234	1.613008	0.296928
C72	C	-0.334234	2.113008	0.796928
C73	C	-0.768800	1.612969	0.296917
C74	C	-0.268800	2.112969	0.796917
C75	C	-0.736134	1.518274	0.301810
C76	C	-0.236134	2.018274	0.801810
C77	C	-0.970653	1.585653	0.261813
C78	C	-0.470653	2.085653	0.761813
C79	C	-1.036090	1.585704	0.261831
C80	C	-0.536090	2.085704	0.761831
C81	C	-1.036117	1.451251	0.341904
C82	C	-0.536117	1.951251	0.841904
C83	C	-0.970682	1.451210	0.341888
C84	C	-0.470682	1.951210	0.841888
C85	C	-0.937954	1.518410	0.301840
C86	C	-0.437954	2.018410	0.801840
C87	C	-0.138461	1.518429	0.301849
C88	C	0.361539	2.018429	0.801849
C89	C	-0.068820	1.518500	0.301870
C90	C	0.431180	2.018500	0.801870
C91	C	-0.301872	1.518348	0.465224
C92	C	0.198128	2.018348	0.965224
C93	C	-0.301866	1.518385	0.534865
C94	C	0.198134	2.018385	1.034865
C95	C	-0.301897	1.792294	0.301809
C96	C	0.198103	2.292294	0.801809
C97	C	-0.301902	1.909071	0.301813
C98	C	0.198098	2.409071	0.801813
C99	C	-0.301852	1.518234	0.139013
C100	C	0.198148	2.018234	0.639013
C101	C	-0.301681	1.518401	0.069372
C102	C	0.198319	2.018401	0.569372
C103	C	-0.261794	1.585620	0.567593
C104	C	0.238206	2.085620	1.067593
C105	C	-0.261767	1.585618	0.633029
C106	C	0.238233	2.085618	1.133029
C107	C	-0.301824	1.518393	0.665734
C108	C	0.198176	2.018393	1.165734
C109	C	-0.341899	1.451146	0.632997
C110	C	0.158101	1.951146	1.132997
C111	C	-0.341920	1.451142	0.567563
C112	C	0.158080	1.951142	1.067563
C113	C	-0.358239	1.510050	0.769396
C114	C	0.141761	2.010050	1.269396
C115	C	-0.358219	1.510061	0.834829
C116	C	0.141781	2.010061	1.334829
C117	C	-0.301757	1.518400	0.867554
C118	C	0.198243	2.018400	1.367554
C119	C	-0.245315	1.526749	0.834838
C120	C	0.254685	2.026749	1.334838
C121	C	-0.245336	1.526745	0.769404
C122	C	0.254664	2.026745	1.269404
C123	C	-0.301805	1.518390	0.736686
C124	C	0.198195	2.018390	1.236686
C125	C	-0.261653	1.585637	0.971235
C126	C	0.238347	2.085637	1.471235
C127	C	-0.261625	1.585628	1.036672
C128	C	0.238375	2.085628	1.536672
C129	C	-0.341762	1.451161	1.036639
C130	C	0.158238	1.951161	1.536639
C131	C	-0.341784	1.451164	0.971204
C132	C	0.158216	1.951164	1.471204
C133	C	-0.301730	1.518408	0.938506
C134	C	0.198270	2.018408	1.438506
H135	H	-0.434423	1.107656	0.370507
H136	H	0.065577	1.607656	0.870507
H137	H	-1.062712	1.640461	0.229235
H138	H	-0.562712	2.140461	0.729235
C139	C	-0.420301	1.500890	0.870814
C140	C	0.079699	2.000890	1.370814
H141	H	-0.412204	1.502104	0.914471
H142	H	0.087796	2.002104	1.414471
H143	H	-0.440337	1.436909	0.860081
H144	H	0.059663	1.936909	1.360081
H145	H	-0.446660	1.558022	0.860096
H146	H	0.053340	2.058022	1.360096
H147	H	-0.944057	1.396457	0.374482
H148	H	-0.444057	1.896457	0.874482
H149	H	-0.374551	1.396386	0.540916
H150	H	0.125449	1.896386	1.040916
C151	C	-0.183256	1.535916	0.733416
C152	C	0.316744	2.035916	1.233416
H153	H	-0.191359	1.534725	0.689760
H154	H	0.308641	2.034725	1.189760
H155	H	-0.156895	1.478792	0.744128
H156	H	0.343105	1.978792	1.244128
H157	H	-0.163220	1.599904	0.744150
H158	H	0.336780	2.099904	1.244150
C159	C	-0.364988	0.918020	0.450301
C160	C	0.135012	1.418020	0.950301
H161	H	-0.354575	0.973497	0.478050
H162	H	0.145425	1.473497	0.978050
H163	H	-0.329045	0.876135	0.442926
H164	H	0.170955	1.376135	0.942926
H165	H	-0.396929	0.876109	0.468377
H166	H	0.103071	1.376109	0.968377
H167	H	-1.062769	1.396537	0.374506
H168	H	-0.562769	1.896537	0.874506
C169	C	-0.370898	1.113961	0.453559
C170	C	0.129102	1.613961	0.953559
H171	H	-0.370899	1.188418	0.453555
H172	H	0.129101	1.688418	0.953555
H173	H	-0.330484	1.089186	0.464479
H174	H	0.169516	1.589186	0.964479
H175	H	-0.400551	1.089149	0.483102
H176	H	0.099449	1.589149	0.983102
C177	C	-0.453894	0.923649	0.370303
C178	C	0.046106	1.423649	0.870303
H179	H	-0.480836	0.981537	0.363020
H180	H	0.019164	1.481537	0.863020
H181	H	-0.470070	0.882305	0.403486
H182	H	0.029930	1.382305	0.903486
H183	H	-0.451200	0.882260	0.333485
H184	H	0.048800	1.382260	0.833485
H185	H	-0.944005	1.640375	0.229205
H186	H	-0.444005	2.140375	0.729205
H187	H	-0.374419	1.396420	0.944556
H188	H	0.125581	1.896420	1.444556
H189	H	-0.404205	1.502978	0.742757
H190	H	0.095795	2.002978	1.242757
H191	H	-0.861005	1.346609	0.310698
H192	H	-0.361005	1.846609	0.810698
C193	C	-0.732963	1.319483	0.312082
C194	C	-0.232963	1.819483	0.812082
H195	H	-0.761849	1.263122	0.314995
H196	H	-0.261849	1.763122	0.814995
H197	H	-0.707418	1.320804	0.348397
H198	H	-0.207418	1.820804	0.848397
H199	H	-0.707462	1.310261	0.276162
H200	H	-0.207462	1.810261	0.776162
C201	C	-0.531072	1.376993	0.385852
C202	C	-0.031072	1.876993	0.885852
H203	H	-0.559936	1.336970	0.409698
H204	H	-0.059936	1.836970	0.909698
H205	H	-0.505506	1.417142	0.413166
H206	H	-0.005506	1.917142	0.913166
H207	H	-0.505587	1.331214	0.361851
H208	H	-0.005587	1.831214	0.861851
C209	C	-0.668480	1.377074	0.385870
C210	C	-0.168480	1.877074	0.885870
H211	H	-0.712134	1.386719	0.380139
H212	H	-0.212134	1.886719	0.880139
H213	H	-0.657728	1.392408	0.427974
H214	H	-0.157728	1.892408	0.927974
H215	H	-0.657798	1.306481	0.376658
H216	H	-0.157798	1.806481	0.876658
C217	C	-0.385961	1.377199	0.668967
C218	C	0.114039	1.877199	1.168967
H219	H	-0.409828	1.337149	0.640101
H220	H	0.090172	1.837149	1.140101
H221	H	-0.413255	1.417361	0.694499
H222	H	0.086745	1.917361	1.194499
H223	H	-0.361979	1.331447	0.694485
H224	H	0.138021	1.831447	1.194485
H225	H	-0.540367	1.640114	0.229133
H226	H	-0.040367	2.140114	0.729133
C227	C	-0.217732	1.659576	0.531629
C228	C	0.282268	2.159576	1.031629
H229	H	-0.193859	1.699613	0.560497
H230	H	0.306141	2.199613	1.060497
H231	H	-0.241709	1.705325	0.506109
H232	H	0.258291	2.205325	1.006109
H233	H	-0.190435	1.619407	0.506099
H234	H	0.309565	2.119407	1.006099
H235	H	-0.659075	1.640196	0.229158
H236	H	-0.159075	2.140196	0.729158
H237	H	-0.229132	1.640367	0.659681
H238	H	0.270868	2.140367	1.159681
H239	H	-0.199339	1.533541	0.861482
H240	H	0.300661	2.033541	1.361482
H241	H	-0.742121	1.690033	0.292927
H242	H	-0.242121	2.190033	0.792927
C243	C	-0.217586	1.659582	0.935265
C244	C	0.282414	2.159582	1.435265
H245	H	-0.193708	1.699612	0.964131
H246	H	0.306292	2.199612	1.464131
H247	H	-0.241559	1.705338	0.909746
H248	H	0.258441	2.205338	1.409746
H249	H	-0.190294	1.619404	0.909734
H250	H	0.309706	2.119404	1.409734
H251	H	-0.374370	1.396414	1.063267
H252	H	0.125630	1.896414	1.563267
C253	C	-0.217603	1.133991	0.217820
C254	C	0.282397	1.633991	0.717820
H255	H	-0.193710	1.085601	0.194001
H256	H	0.306290	1.585601	0.694001
H257	H	-0.190337	1.176831	0.241837
H258	H	0.309663	1.676831	0.741837
H259	H	-0.241529	1.176755	0.190470
H260	H	0.258471	1.676755	0.690470
C261	C	-0.217623	0.903586	0.217828
C262	C	0.282377	1.403586	0.717828
H263	H	-0.193716	0.951973	0.194011
H264	H	0.306284	1.451973	0.694011
H265	H	-0.241550	0.860744	0.190486
H266	H	0.258450	1.360744	0.690486
H267	H	-0.190360	0.860824	0.241855
H268	H	0.309640	1.360824	0.741855
C269	C	-0.870164	1.717165	0.291562
C270	C	-0.370164	2.217165	0.791562
H271	H	-0.913827	1.703639	0.292278
H272	H	-0.413827	2.203639	0.792278
H273	H	-0.859447	1.750790	0.253435
H274	H	-0.359447	2.250790	0.753435
H275	H	-0.859394	1.761318	0.325672
H276	H	-0.359394	2.261318	0.825672
C277	C	-0.217544	1.659591	1.072673
C278	C	0.282456	2.159591	1.572673
H279	H	-0.193698	1.699641	1.043825
H280	H	0.306302	2.199641	1.543825
H281	H	-0.190230	1.619436	1.098192
H282	H	0.309770	2.119436	1.598192
H283	H	-0.241512	1.705342	1.098207
H284	H	0.258488	2.205342	1.598207
