data_functionalizedCrystal
_audit_creation_method	'MofGen! by Chris Wilmer'
_symmetry_space_group_name_H-M	'P1'
_symmetry_Int_Tables_number	1
_symmetry_cell_setting	triclinic
loop_
_symmetry_equiv_pos_as_xyz
  x,y,z
_cell_length_a	17.077404
_cell_length_b	12.645330
_cell_length_c	17.077396
_cell_angle_alpha	90.026204
_cell_angle_beta	90.019501
_cell_angle_gamma	90.012871
loop_
_atom_site_label
_atom_site_type_symbol
_atom_site_fract_x
_atom_site_fract_y
_atom_site_fract_z
Zn1	Zn	1.200110	-0.422033	0.443855
Zn2	Zn	1.700110	0.077967	0.943855
Zn3	Zn	1.200041	-0.599318	0.312594
Zn4	Zn	1.700041	-0.099318	0.812594
Zn5	Zn	1.068842	-0.422070	0.312603
Zn6	Zn	1.568842	0.077930	0.812603
Zn7	Zn	1.068834	-0.599256	0.443818
Zn8	Zn	1.568834	-0.099256	0.943818
O9	O	1.134457	-0.510669	0.378218
O10	O	1.634457	-0.010669	0.878218
O11	O	1.309948	-0.445561	0.426455
O12	O	1.809948	0.054439	0.926455
O13	O	1.182612	-0.575848	0.202749
O14	O	1.682612	-0.075848	0.702749
O15	O	1.086288	-0.273718	0.330033
O16	O	1.586288	0.226282	0.830033
O17	O	1.309897	-0.575812	0.330018
O18	O	1.809897	-0.075812	0.830018
O19	O	1.182730	-0.273691	0.426464
O20	O	1.682730	0.226309	0.926464
O21	O	1.086221	-0.445624	0.202755
O22	O	1.586221	0.054376	0.702755
O23	O	0.958994	-0.445563	0.329997
O24	O	1.458994	0.054437	0.829997
O25	O	1.086273	-0.575705	0.553670
O26	O	1.586273	-0.075705	1.053670
O27	O	0.958988	-0.575741	0.426400
O28	O	1.458988	-0.075741	0.926400
O29	O	1.182722	-0.445500	0.553697
O30	O	1.682722	0.054500	1.053697
O31	O	1.182603	-0.747657	0.329982
O32	O	1.682603	-0.247657	0.829982
O33	O	1.086206	-0.747611	0.426392
O34	O	1.586206	-0.247611	0.926392
C35	C	0.930509	-0.510650	0.378196
C36	C	1.430509	-0.010650	0.878196
C37	C	0.843259	-0.510667	0.378205
C38	C	1.343259	-0.010667	0.878205
C39	C	0.802286	-0.578553	0.428322
C40	C	1.302286	-0.078553	0.928322
C41	C	0.720306	-0.578555	0.428334
C42	C	1.220306	-0.078555	0.928334
C43	C	0.679300	-0.510677	0.378226
C44	C	1.179300	-0.010677	0.878226
C45	C	0.720278	-0.442783	0.328107
C46	C	1.220278	0.057217	0.828107
C47	C	0.802257	-0.442777	0.328099
C48	C	1.302257	0.057223	0.828099
C49	C	0.549408	-0.442804	0.328126
C50	C	1.049408	0.057196	0.828126
C51	C	0.467424	-0.442812	0.328133
C52	C	0.967424	0.057188	0.828133
C53	C	0.467457	-0.578583	0.428361
C54	C	0.967457	-0.078583	0.928361
C55	C	0.549436	-0.578576	0.428353
C56	C	1.049436	-0.078576	0.928353
C57	C	0.590409	-0.510684	0.378233
C58	C	1.090409	-0.010684	0.878233
C59	C	1.134418	-0.786099	0.378199
C60	C	1.634418	-0.286099	0.878199
C61	C	1.134473	-0.903929	0.378217
C62	C	1.634473	-0.403929	0.878217
C63	C	1.195019	-1.071478	0.317443
C64	C	1.695019	-0.571478	0.817443
C65	C	1.195216	-0.948918	0.317592
C66	C	1.695216	-0.448918	0.817592
C67	C	1.156905	-0.948313	0.460961
C68	C	1.656905	-0.448313	0.960961
C69	C	1.157385	-1.070911	0.460639
C70	C	1.657385	-0.570911	0.960639
C71	C	1.051470	-1.071256	0.357063
C72	C	1.551470	-0.571256	0.857063
C73	C	1.051868	-0.948652	0.355208
C74	C	1.551868	-0.448652	0.855208
C75	C	1.339201	-0.510689	0.378240
C76	C	1.839201	-0.010689	0.878240
C77	C	1.426451	-0.510698	0.378249
C78	C	1.926451	-0.010698	0.878249
C79	C	1.134504	-0.510591	0.582962
C80	C	1.634504	-0.010591	1.082962
C81	C	1.134525	-0.510558	0.670212
C82	C	1.634525	-0.010558	1.170212
C83	C	1.134518	-0.234164	0.378253
C84	C	1.634518	0.265836	0.878253
C85	C	1.134544	-0.116334	0.378269
C86	C	1.634544	0.383666	0.878269
C87	C	1.134455	-0.510671	0.174270
C88	C	1.634455	-0.010671	0.674270
C89	C	1.134587	-0.510405	0.087020
C90	C	1.634587	-0.010405	0.587020
C91	C	1.184747	-0.442755	0.711218
C92	C	1.684747	0.057245	1.211218
C93	C	1.184757	-0.442719	0.793198
C94	C	1.684757	0.057281	1.293198
C95	C	1.134547	-0.510493	0.834171
C96	C	1.634547	-0.010493	1.334171
C97	C	1.084319	-0.578300	0.793160
C98	C	1.584319	-0.078300	1.293160
C99	C	1.084306	-0.578329	0.711181
C100	C	1.584306	-0.078329	1.211181
C101	C	1.084350	-0.578236	0.964030
C102	C	1.584350	-0.078236	1.464030
C103	C	1.084364	-0.578208	1.046015
C104	C	1.584364	-0.078208	1.546015
C105	C	1.184801	-0.442626	1.046047
C106	C	1.684801	0.057374	1.546047
C107	C	1.184788	-0.442656	0.964068
C108	C	1.684788	0.057344	1.464068
C109	C	1.134561	-0.510464	0.923062
C110	C	1.634561	-0.010464	1.423062
H111	H	0.686949	-0.633836	0.469144
H112	H	1.186949	-0.133836	0.969144
N113	N	0.846512	-0.651773	0.482363
N114	N	1.346512	-0.151773	0.982363
H115	H	0.808112	-0.694777	0.514114
H116	H	1.308112	-0.194777	1.014114
H117	H	0.880548	-0.608683	0.518742
H118	H	1.380548	-0.108683	1.018742
N119	N	0.593667	-0.651796	0.482390
N120	N	1.093667	-0.151796	0.982390
H121	H	0.555273	-0.694805	0.514143
H122	H	1.055273	-0.194805	1.014143
H123	H	0.627703	-0.608704	0.518768
H124	H	1.127703	-0.108704	1.018768
N125	N	0.423181	-0.369637	0.274073
N126	N	0.923181	0.130363	0.774073
H127	H	0.389169	-0.320576	0.306028
H128	H	0.889169	0.179424	0.806028
H129	H	0.389207	-0.412778	0.237669
H130	H	0.889207	0.087222	0.737669
H131	H	1.225678	-0.387474	0.930710
H132	H	1.725678	0.112526	1.430710
N133	N	1.276084	-1.112184	0.335814
N134	N	1.776084	-0.612184	0.835814
H135	H	1.291738	-1.088852	0.390182
H136	H	1.791738	-0.588852	0.890182
H137	H	1.314520	-1.082987	0.296426
H138	H	1.814520	-0.582987	0.796426
N139	N	1.101577	-1.110217	0.522717
N140	N	1.601577	-0.610217	1.022717
H141	H	1.118840	-1.083316	0.575677
H142	H	1.618840	-0.583316	1.075677
H143	H	1.101478	-1.190085	0.522923
H144	H	1.601478	-0.690085	1.022923
N145	N	1.030143	-0.651469	0.666952
N146	N	1.530143	-0.151469	1.166952
H147	H	1.037752	-0.641202	0.608802
H148	H	1.537752	-0.141202	1.108802
H149	H	0.974087	-0.634958	0.681274
H150	H	1.474087	-0.134958	1.181274
H151	H	1.256746	-0.919510	0.331618
H152	H	1.756746	-0.419510	0.831618
H153	H	0.434093	-0.633860	0.469173
H154	H	0.934093	-0.133860	0.969173
N155	N	1.238912	-0.369667	0.667028
N156	N	1.738912	0.130333	1.167028
H157	H	1.207024	-0.320549	0.633009
H158	H	1.707024	0.179451	1.133009
H159	H	1.275259	-0.412855	0.633066
H160	H	1.775259	0.087145	1.133066
N161	N	1.030178	-0.651283	1.090190
N162	N	1.530178	-0.151283	1.590190
H163	H	0.993824	-0.608161	1.124193
H164	H	1.493824	-0.108161	1.624193
H165	H	1.062100	-0.700411	1.124165
H166	H	1.562100	-0.200411	1.624165
H167	H	1.043434	-0.633479	0.826527
H168	H	1.543434	-0.133479	1.326527
H169	H	0.582766	-0.387510	0.287320
H170	H	1.082766	0.112490	0.787320
N171	N	1.238958	-0.369480	1.090282
N172	N	1.738958	0.130520	1.590282
H173	H	1.226779	-0.293742	1.076019
H174	H	1.726779	0.206258	1.576019
H175	H	1.295021	-0.386038	1.076017
H176	H	1.795021	0.113962	1.576017
H177	H	1.043438	-0.633436	0.930646
H178	H	1.543438	-0.133436	1.430646
N179	N	0.991780	-1.109696	0.415733
N180	N	1.491780	-0.609696	0.915733
H181	H	0.938526	-1.080487	0.401815
H182	H	1.438526	-0.580487	0.901815
H183	H	1.007048	-1.084836	0.469837
H184	H	1.507048	-0.584836	0.969837
H185	H	1.181160	-1.101030	0.255910
H186	H	1.681160	-0.601030	0.755910
H187	H	0.686885	-0.387511	0.287311
H188	H	1.186885	0.112489	0.787311
N189	N	0.846454	-0.369550	0.274051
N190	N	1.346454	0.130450	0.774051
H191	H	0.808039	-0.326550	0.242308
H192	H	1.308039	0.173450	0.742308
H193	H	0.880450	-0.412630	0.237664
H194	H	1.380450	0.087370	0.737664
N195	N	1.024444	-1.112322	0.278533
N196	N	1.524444	-0.612322	0.778533
H197	H	1.065782	-1.160570	0.255906
H198	H	1.565782	-0.660570	0.755906
H199	H	1.015459	-1.050876	0.241856
H200	H	1.515459	-0.550876	0.741856
N201	N	1.176636	-0.909163	0.236323
N202	N	1.676636	-0.409163	0.736323
H203	H	1.168242	-0.971280	0.200080
H204	H	1.668242	-0.471280	0.700080
H205	H	1.221690	-0.864886	0.216519
H206	H	1.721690	-0.364886	0.716519
N207	N	1.237821	-1.108690	0.484413
N208	N	1.737821	-0.608690	0.984413
H209	H	1.272633	-1.045704	0.495004
H210	H	1.772633	-0.545704	0.995004
H211	H	1.261035	-1.152551	0.440777
H212	H	1.761035	-0.652551	0.940777
H213	H	1.216941	-0.917524	0.479223
H214	H	1.716941	-0.417524	0.979223
N215	N	1.100339	-0.909717	0.522607
N216	N	1.600339	-0.409717	1.022607
H217	H	1.059531	-0.862976	0.497429
H218	H	1.559531	-0.362976	0.997429
H219	H	1.129810	-0.868080	0.563605
H220	H	1.629810	-0.368080	1.063605
H221	H	1.034954	-0.919654	0.294315
H222	H	1.534954	-0.419654	0.794315
H223	H	1.004379	-0.918039	0.396262
H224	H	1.504379	-0.418039	0.896262
N225	N	1.238909	-0.369568	0.837427
N226	N	1.738909	0.130432	1.337427
H227	H	1.270714	-0.326637	0.799031
H228	H	1.770714	0.173363	1.299031
H229	H	1.275235	-0.412693	0.871451
H230	H	1.775235	0.087307	1.371451
