data_functionalizedCrystal
_audit_creation_method	'MofGen! by Chris Wilmer'
_symmetry_space_group_name_H-M	'P1'
_symmetry_Int_Tables_number	1
_symmetry_cell_setting	triclinic
loop_
_symmetry_equiv_pos_as_xyz
  x,y,z
_cell_length_a	12.827893
_cell_length_b	12.594516
_cell_length_c	12.827885
_cell_angle_alpha	89.971756
_cell_angle_beta	89.980538
_cell_angle_gamma	90.016023
loop_
_atom_site_label
_atom_site_type_symbol
_atom_site_fract_x
_atom_site_fract_y
_atom_site_fract_z
Zn1	Zn	1.597667	-0.423689	-0.590861
Zn2	Zn	1.597558	-0.601706	-0.416127
Zn3	Zn	1.422908	-0.423742	-0.416135
Zn4	Zn	1.422891	-0.601626	-0.590827
O5	O	1.510256	-0.512691	-0.503487
O6	O	1.743888	-0.447315	-0.567693
O7	O	1.574352	-0.578154	-0.269892
O8	O	1.446142	-0.274789	-0.439330
O9	O	1.743809	-0.578103	-0.439317
O10	O	1.574537	-0.274751	-0.567701
O11	O	1.446037	-0.447404	-0.269898
O12	O	1.276669	-0.447327	-0.439297
O13	O	1.446114	-0.577967	-0.737067
O14	O	1.276658	-0.578018	-0.567642
O15	O	1.574521	-0.447238	-0.737093
O16	O	1.574336	-0.750641	-0.439283
O17	O	1.446009	-0.750583	-0.567635
C18	C	1.238746	-0.512670	-0.503468
C19	C	1.122593	-0.512687	-0.503484
C20	C	1.510188	-0.789232	-0.503477
C21	C	1.510254	-0.907537	-0.503508
C22	C	1.070830	-0.577458	-0.566895
C23	C	0.950780	-0.577477	-0.566914
C24	C	1.440450	-0.976797	-0.573269
C25	C	1.414988	-1.047666	-0.477914
C26	C	1.535811	-1.047467	-0.598879
C27	C	1.484741	-0.976848	-0.408102
C28	C	1.605609	-0.976643	-0.529132
C29	C	1.580183	-1.047480	-0.433711
C30	C	1.782826	-0.512712	-0.503508
C31	C	1.898979	-0.512721	-0.503517
C32	C	1.510328	-0.512588	-0.776058
C33	C	1.510359	-0.512544	-0.892211
C34	C	1.510353	-0.235070	-0.503521
C35	C	1.510395	-0.116765	-0.503535
C36	C	1.446839	-0.577207	-0.943983
C37	C	1.446870	-0.577163	-1.064034
C38	C	1.510244	-0.512717	-0.231978
C39	C	1.510416	-0.512461	-0.115825
H40	H	1.115391	-0.632893	-0.621174
H41	H	1.557371	-1.078488	-0.679523
H42	H	1.463088	-0.945955	-0.327436
Br43	Br	1.280685	-1.099657	-0.441793
H44	H	0.943488	-0.457269	-0.449221
H45	H	1.564795	-0.457093	-1.071309
H46	H	1.639274	-1.078320	-0.374660
H47	H	1.564766	-0.457155	-0.936764
H48	H	1.686165	-0.945426	-0.550829
Br49	Br	1.356216	-0.669430	-1.138234
Br50	Br	0.876593	-0.669917	-0.657396
H51	H	1.381314	-0.945760	-0.632178
Br52	Br	1.048334	-0.420271	-0.413024
H53	H	1.392440	-0.632603	-0.899430
