data_functionalizedCrystal
_audit_creation_method	'MofGen! by Chris Wilmer'
_symmetry_space_group_name_H-M	'P1'
_symmetry_Int_Tables_number	1
_symmetry_cell_setting	triclinic
loop_
_symmetry_equiv_pos_as_xyz
  x,y,z
_cell_length_a	14.044220
_cell_length_b	15.995350
_cell_length_c	12.503572
_cell_angle_alpha	93.525550
_cell_angle_beta	86.164750
_cell_angle_gamma	88.340626
loop_
_atom_site_label
_atom_site_type_symbol
_atom_site_fract_x
_atom_site_fract_y
_atom_site_fract_z
O1	O	1.263165	0.197434	-0.089196
O2	O	1.763165	0.697434	0.410804
O3	O	0.987198	0.190148	-0.089224
O4	O	1.487198	0.690148	0.410776
O5	O	1.132725	0.072467	-0.089208
O6	O	1.632725	0.572467	0.410792
O7	O	1.117638	0.315115	-0.089212
O8	O	1.617638	0.815115	0.410788
O9	O	1.121781	0.081333	0.089432
O10	O	1.621781	0.581333	0.589432
O11	O	0.976253	0.199014	0.089417
O12	O	1.476253	0.699014	0.589417
O13	O	1.252221	0.206300	0.089445
O14	O	1.752221	0.706300	0.589445
Cu15	Cu	1.113237	0.203467	0.105742
Cu16	Cu	1.613237	0.703467	0.605742
Cu17	Cu	1.126181	0.192981	-0.105521
Cu18	Cu	1.626181	0.692981	0.394479
O19	O	1.106693	0.323981	0.089429
O20	O	1.606693	0.823981	0.589429
C21	C	0.946411	0.191392	0.000093
C22	C	1.446411	0.691392	0.500093
C23	C	0.841186	0.181881	0.000082
C24	C	1.341186	0.681881	0.500082
C25	C	0.648523	0.164494	0.000104
C26	C	1.148523	0.664494	0.500104
C27	C	0.590890	0.231950	0.000107
C28	C	1.090890	0.731950	0.500107
C29	C	0.483686	0.222276	0.000119
C30	C	0.983686	0.722276	0.500119
C31	C	0.755737	0.174167	0.000092
C32	C	1.255737	0.674167	0.500092
C33	C	1.126629	0.045658	0.000110
C34	C	1.626629	0.545658	0.500110
C35	C	1.124760	-0.047432	0.000104
C36	C	1.624760	0.452568	0.500104
C37	C	1.118044	-0.385681	0.000107
C38	C	1.618044	0.114319	0.500107
C39	C	1.014426	-0.346008	-0.000304
C40	C	1.514426	0.153992	0.499696
C41	C	1.016272	-0.249158	0.000099
C42	C	1.516272	0.250842	0.500099
C43	C	1.121375	-0.217872	0.000105
C44	C	1.621375	0.282128	0.500105
C45	C	1.166245	-0.250068	0.102120
C46	C	1.666245	0.249932	0.602120
C47	C	1.163636	-0.346894	0.102206
C48	C	1.663636	0.153106	0.602206
C49	C	1.178223	-0.357175	-0.100942
C50	C	1.678223	0.142825	0.399058
C51	C	1.178281	-0.260298	-0.102290
C52	C	1.678281	0.239702	0.397710
C53	C	1.123263	-0.123033	0.000107
C54	C	1.623263	0.376967	0.500107
C55	C	1.116158	-0.480519	0.000111
C56	C	1.616158	0.019481	0.500111
C57	C	1.293007	0.205055	0.000125
C58	C	1.793007	0.705055	0.500125
C59	C	1.398233	0.214567	0.000129
C60	C	1.898233	0.714567	0.500129
C61	C	1.112789	0.350789	0.000108
C62	C	1.612789	0.850789	0.500108
C63	C	1.114659	0.443879	0.000108
C64	C	1.614659	0.943879	0.500108
N65	N	1.104141	0.210842	0.254333
N66	N	1.604141	0.710842	0.754333
N67	N	1.135285	0.185600	-0.254113
N68	N	1.635285	0.685600	0.245887
C69	C	1.090759	0.221698	0.473447
C70	C	1.590759	0.721698	0.973447
C71	C	1.148663	0.174747	0.526780
C72	C	1.648663	0.674747	1.026780
C73	C	1.141218	0.180787	0.648703
C74	C	1.641218	0.680787	1.148703
C75	C	1.098204	0.215658	0.351514
C76	C	1.598204	0.715658	0.851514
H77	H	0.622061	0.296967	0.000101
H78	H	1.122061	0.796967	0.500101
C79	C	0.606420	0.076667	0.000098
C80	C	1.106420	0.576667	0.500098
H81	H	0.538846	0.081605	0.000094
H82	H	1.038846	0.581605	0.500094
H83	H	0.623403	0.050192	0.062387
H84	H	1.123403	0.550192	0.562387
H85	H	0.631020	0.044024	-0.062212
H86	H	1.131020	0.544024	0.437788
H87	H	0.980568	-0.227367	-0.073031
H88	H	1.480568	0.272633	0.426969
H89	H	1.035599	0.266427	0.519349
H90	H	1.535599	0.766427	1.019349
H91	H	0.977483	-0.371265	-0.073462
H92	H	1.477483	0.128735	0.426538
H93	H	1.145529	-0.239586	-0.177759
H94	H	1.645529	0.260414	0.322241
H95	H	0.968729	-0.365072	0.072438
H96	H	1.468729	0.134928	0.572438
C97	C	1.223193	0.114321	0.464777
C98	C	1.723193	0.614321	0.964777
H99	H	1.258542	0.085655	0.514275
H100	H	1.758542	0.585655	1.014275
H101	H	1.265348	0.145211	0.420905
H102	H	1.765348	0.645211	0.920905
H103	H	1.191662	0.074809	0.420907
H104	H	1.691662	0.574809	0.920907
C105	C	0.955565	-0.210676	0.099045
C106	C	1.455565	0.289324	0.599045
H107	H	0.956478	-0.151284	0.099623
H108	H	1.456478	0.348716	0.599623
H109	H	0.981069	-0.228812	0.162505
H110	H	1.481069	0.271188	0.662505
H111	H	0.891683	-0.228181	0.096039
H112	H	1.391683	0.271819	0.596039
C113	C	1.106957	-0.370271	0.205207
C114	C	1.606957	0.129729	0.705207
H115	H	1.085736	-0.320619	0.246602
H116	H	1.585736	0.179381	0.746602
H117	H	1.146804	-0.403054	0.245998
H118	H	1.646804	0.096946	0.745998
H119	H	1.053346	-0.401548	0.186561
H120	H	1.553346	0.098452	0.686561
C121	C	1.266037	-0.382477	0.108493
C122	C	1.766037	0.117523	0.608493
H123	H	1.265138	-0.441839	0.108585
H124	H	1.765138	0.058161	0.608585
H125	H	1.291310	-0.360516	0.172592
H126	H	1.791310	0.139484	0.672592
H127	H	1.304835	-0.367037	0.048171
H128	H	1.804835	0.132963	0.548171
C129	C	1.270240	-0.222936	0.107264
C130	C	1.770240	0.277064	0.607264
H131	H	1.287256	-0.191654	0.047099
H132	H	1.787256	0.308346	0.547099
H133	H	1.311398	-0.271200	0.106322
H134	H	1.811398	0.228800	0.606322
H135	H	1.276217	-0.189199	0.171541
H136	H	1.776217	0.310801	0.671541
C137	C	1.111992	-0.210235	0.204674
C138	C	1.611992	0.289765	0.704674
H139	H	1.061991	-0.173983	0.185539
H140	H	1.561991	0.326017	0.685539
H141	H	1.154730	-0.179066	0.245954
H142	H	1.654730	0.320934	0.745954
H143	H	1.085761	-0.253090	0.245788
H144	H	1.585761	0.246910	0.745788
C145	C	1.138845	-0.393517	-0.205398
C146	C	1.638845	0.106483	0.294602
H147	H	1.085327	-0.426419	-0.188355
H148	H	1.585327	0.073581	0.311645
H149	H	1.187017	-0.427553	-0.245228
H150	H	1.687017	0.072447	0.254772
H151	H	1.119871	-0.348993	-0.247041
H152	H	1.619871	0.151007	0.252959
H153	H	1.255304	-0.239517	-0.108445
H154	H	1.755304	0.260483	0.391555
C155	C	1.281505	-0.392422	-0.101874
C156	C	1.781505	0.107578	0.398126
H157	H	1.287962	-0.424360	-0.041017
H158	H	1.787962	0.075640	0.458983
H159	H	1.324192	-0.347451	-0.099634
H160	H	1.824192	0.152549	0.400366
H161	H	1.296070	-0.427222	-0.165540
H162	H	1.796070	0.072778	0.334460
