data_functionalizedCrystal
_audit_creation_method	'MofGen! by Chris Wilmer'
_symmetry_space_group_name_H-M	'P1'
_symmetry_Int_Tables_number	1
_symmetry_cell_setting	triclinic
loop_
_symmetry_equiv_pos_as_xyz
  x,y,z
_cell_length_a	21.295419
_cell_length_b	21.295418
_cell_length_c	21.295411
_cell_angle_alpha	90.043738
_cell_angle_beta	89.994293
_cell_angle_gamma	89.985077
loop_
_atom_site_label
_atom_site_type_symbol
_atom_site_fract_x
_atom_site_fract_y
_atom_site_fract_z
Zn1	Zn	0.250415	0.962493	0.356303
Zn2	Zn	0.750415	1.462493	0.856303
Zn3	Zn	0.355667	0.962453	0.251058
Zn4	Zn	0.855667	1.462453	0.751058
Zn5	Zn	0.250445	0.857216	0.251013
Zn6	Zn	0.750445	1.357216	0.751013
Zn7	Zn	0.355679	0.857243	0.356255
Zn8	Zn	0.855679	1.357243	0.856255
O9	O	0.303052	0.909851	0.303657
O10	O	0.803052	1.409851	0.803657
O11	O	0.264359	1.050577	0.342382
O12	O	0.764359	1.550577	0.842382
O13	O	0.341716	0.948465	0.162963
O14	O	0.841716	1.448465	0.662963
O15	O	0.162351	0.871187	0.264982
O16	O	0.662351	1.371187	0.764982
O17	O	0.341687	1.050548	0.265058
O18	O	0.841687	1.550548	0.765058
O19	O	0.162330	0.948533	0.342338
O20	O	0.662330	1.448533	0.842338
O21	O	0.264410	0.871148	0.162930
O22	O	0.764410	1.371148	0.662930
O23	O	0.264422	0.769130	0.264934
O24	O	0.764422	1.269130	0.764934
O25	O	0.341709	0.871233	0.444350
O26	O	0.841709	1.371233	0.944350
O27	O	0.341737	0.769150	0.342255
O28	O	0.841737	1.269150	0.842255
O29	O	0.264372	0.948559	0.444386
O30	O	0.764372	1.448559	0.944386
O31	O	0.443758	0.948492	0.265011
O32	O	0.943758	1.448492	0.765011
O33	O	0.443767	0.871194	0.342298
O34	O	0.943767	1.371194	0.842298
C35	C	0.303085	0.746300	0.303585
C36	C	0.803085	1.246300	0.803585
C37	C	0.303114	0.676332	0.303569
C38	C	0.803114	1.176332	0.803569
C39	C	0.138861	0.909861	0.303660
C40	C	0.638861	1.409861	0.803660
C41	C	0.068893	0.909866	0.303662
C42	C	0.568893	1.409866	0.803662
C43	C	-0.430555	0.869642	0.263423
C44	C	0.069445	1.369642	0.763423
C45	C	-0.364812	0.869638	0.263415
C46	C	0.135188	1.369638	0.763415
C47	C	-0.331946	0.909903	0.303688
C48	C	0.168054	1.409903	0.803688
C49	C	-0.364829	0.950188	0.343961
C50	C	0.135171	1.450188	0.843961
C51	C	-0.430570	0.950196	0.343964
C52	C	0.069430	1.450196	0.843964
N53	N	-0.228730	0.914738	0.358788
N54	N	0.271270	1.414738	0.858788
N55	N	-0.166279	0.914727	0.358783
N56	N	0.333721	1.414727	0.858783
C57	C	-0.133872	0.909883	0.303681
C58	C	0.366128	1.409883	0.803681
N59	N	-0.166275	0.905039	0.248582
N60	N	0.333725	1.405039	0.748582
N61	N	-0.228732	0.905047	0.248587
N62	N	0.271268	1.405047	0.748587
C63	C	-0.260661	0.909900	0.303689
C64	C	0.239339	1.409900	0.803689
C65	C	-0.029712	0.869599	0.263398
C66	C	0.470288	1.369599	0.763398
C67	C	0.036032	0.869599	0.263389
C68	C	0.536032	1.369599	0.763389
C69	C	0.036014	0.950146	0.343941
C70	C	0.536014	1.450146	0.843941
C71	C	-0.029728	0.950149	0.343944
C72	C	0.470272	1.450149	0.843944
C73	C	-0.062587	0.909873	0.303674
C74	C	0.437413	1.409873	0.803674
C75	C	0.343425	0.643492	0.343769
C76	C	0.843425	1.143492	0.843769
C77	C	0.343410	0.577749	0.343798
C78	C	0.843410	1.077749	0.843798
C79	C	0.303090	0.544849	0.303614
C80	C	0.803090	1.044849	0.803614
C81	C	0.262770	0.577697	0.263411
C82	C	0.762770	1.077697	0.763411
C83	C	0.262782	0.643438	0.263388
C84	C	0.762782	1.143438	0.763388
N85	N	0.298162	0.441571	0.248555
N86	N	0.798162	0.941571	0.748555
N87	N	0.298155	0.379119	0.248578
N88	N	0.798155	0.879119	0.748578
C89	C	0.303049	0.346775	0.303681
C90	C	0.803049	0.846775	0.803681
N91	N	0.307965	0.379241	0.358760
N92	N	0.807965	0.879241	0.858760
N93	N	0.307976	0.441698	0.358736
N94	N	0.807976	0.941698	0.858736
C95	C	0.303072	0.473564	0.303634
C96	C	0.803072	0.973564	0.803634
C97	C	0.343346	0.242649	0.343915
C98	C	0.843346	0.742649	0.843915
C99	C	0.343326	0.176906	0.343945
C100	C	0.843326	0.676906	0.843945
C101	C	0.262690	0.176854	0.263552
C102	C	0.762690	0.676854	0.763552
C103	C	0.262707	0.242597	0.263529
C104	C	0.762707	0.742597	0.763529
C105	C	0.303038	0.275490	0.303709
C106	C	0.803038	0.775490	0.803709
C107	C	0.466603	0.909859	0.303668
C108	C	0.966603	1.409859	0.803668
C109	C	0.536571	0.909919	0.303694
C110	C	1.036571	1.409919	0.803694
C111	C	0.303038	0.909904	0.467848
C112	C	0.803038	1.409904	0.967848
C113	C	0.303033	0.909926	0.537816
C114	C	0.803033	1.409926	1.037816
C115	C	0.303019	1.074042	0.303730
C116	C	0.803019	1.574042	0.803730
C117	C	0.303005	1.144010	0.303762
C118	C	0.803005	1.644010	0.803762
C119	C	0.303019	0.909836	0.140106
C120	C	0.803019	1.409836	0.640106
C121	C	0.302848	0.909935	0.070138
C122	C	0.802848	1.409935	0.570138
C123	C	0.262761	0.950188	0.570702
C124	C	0.762761	1.450188	1.070702
C125	C	0.262734	0.950187	0.636445
C126	C	0.762734	1.450187	1.136445
C127	C	0.302989	0.909931	0.669298
C128	C	0.802989	1.409931	1.169298
C129	C	0.343263	0.869661	0.636404
C130	C	0.843263	1.369661	1.136404
C131	C	0.343285	0.869658	0.570663
C132	C	0.843285	1.369658	1.070663
N133	N	0.358058	0.905104	0.772527
N134	N	0.858058	1.405104	1.272527
N135	N	0.358036	0.905110	0.834979
N136	N	0.858036	1.405110	1.334979
C137	C	0.302925	0.909935	0.867373
C138	C	0.802925	1.409935	1.367373
N139	N	0.247837	0.914765	0.834957
N140	N	0.747837	1.414765	1.334957
N141	N	0.247860	0.914763	0.772499
N142	N	0.747860	1.414763	1.272499
C143	C	0.302970	0.909929	0.740584
C144	C	0.802970	1.409929	1.240584
C145	C	0.262621	0.950198	0.971545
C146	C	0.762621	1.450198	1.471545
C147	C	0.262593	0.950193	1.037289
C148	C	0.762593	1.450193	1.537289
C149	C	0.343128	0.869670	1.037247
C150	C	0.843128	1.369670	1.537247
C151	C	0.343150	0.869672	0.971504
C152	C	0.843150	1.369672	1.471504
C153	C	0.302898	0.909939	0.938657
C154	C	0.802898	1.409939	1.438657
H155	H	-0.457306	0.836848	0.230632
H156	H	0.042694	1.336848	0.730632
C157	C	0.218987	0.993974	0.672047
C158	C	0.718987	1.493974	1.172047
C159	C	0.183751	1.029248	0.629209
C160	C	0.683751	1.529248	1.129209
C161	C	0.143452	1.069596	0.661981
C162	C	0.643452	1.569596	1.161981
H163	H	0.191499	0.969970	0.697673
H164	H	0.691499	1.469970	1.197673
H165	H	0.243045	1.021432	0.697703
H166	H	0.743045	1.521432	1.197703
H167	H	0.159695	1.001793	0.603564
H168	H	0.659695	1.501793	1.103564
H169	H	0.211223	1.053264	0.603582
H170	H	0.711223	1.553264	1.103582
H171	H	0.167511	1.097054	0.687637
H172	H	0.667511	1.597054	1.187637
H173	H	0.115968	1.045587	0.687606
H174	H	0.615968	1.545587	1.187606
H175	H	0.119544	1.093538	0.632921
H176	H	0.619544	1.593538	1.132921
H177	H	-0.457337	0.982995	0.376757
H178	H	0.042663	1.482995	0.876757
H179	H	-0.056467	0.836805	0.230606
H180	H	0.443533	1.336805	0.730606
C181	C	-0.329185	0.994007	0.387615
C182	C	0.170815	1.494007	0.887615
C183	C	-0.345169	1.056289	0.373927
C184	C	0.154831	1.556289	0.873927
C185	C	-0.312343	1.096674	0.414125
C186	C	0.187657	1.596674	0.914125
H187	H	-0.339939	0.984890	0.429928
H188	H	0.160061	1.484890	0.929928
H189	H	-0.285317	0.988276	0.381846
H190	H	0.214683	1.488276	0.881846
H191	H	-0.389028	1.062017	0.379702
H192	H	0.110972	1.562017	0.879702
H193	H	-0.334414	1.065425	0.331622
H194	H	0.165586	1.565425	0.831622
H195	H	-0.268474	1.090943	0.408356
H196	H	0.231526	1.590943	0.908356
H197	H	-0.323099	1.087552	0.456435
H198	H	0.176901	1.587552	0.956435
H199	H	-0.323179	1.138937	0.404840
H200	H	0.176821	1.638937	0.904840
C201	C	0.219046	0.278335	0.219838
C202	C	0.719046	0.778335	0.719838
C203	C	0.254637	0.316028	0.179432
C204	C	0.754637	0.816028	0.679432
C205	C	0.214436	0.348964	0.139181
C206	C	0.714436	0.848964	0.639181
H207	H	0.195016	0.249399	0.195849
H208	H	0.695016	0.749399	0.695849
H209	H	0.191668	0.304057	0.243934
H210	H	0.691668	0.804057	0.743934
H211	H	0.282004	0.290308	0.155339
H212	H	0.782004	0.790308	0.655339
H213	H	0.278666	0.344976	0.203404
H214	H	0.778666	0.844976	0.703404
H215	H	0.187058	0.374686	0.163277
H216	H	0.687058	0.874686	0.663277
H217	H	0.190408	0.320023	0.115196
H218	H	0.690408	0.820023	0.615196
H219	H	0.238578	0.374547	0.111765
H220	H	0.738578	0.874547	0.611765
H221	H	0.376078	0.836869	0.543887
H222	H	0.876078	1.336869	1.043887
C223	C	0.386918	0.826069	1.072938
C224	C	0.886918	1.326069	1.572938
C225	C	0.427256	0.861714	1.110701
C226	C	0.927256	1.361714	1.610701
C227	C	0.467612	0.821570	1.143583
C228	C	0.967612	1.321570	1.643583
H229	H	0.362914	0.798627	1.098611
H230	H	0.862914	1.298627	1.598611
H231	H	0.410945	0.802105	1.043950
H232	H	0.910945	1.302105	1.543950
H233	H	0.403232	0.885667	1.139685
H234	H	0.903232	1.385667	1.639685
H235	H	0.451274	0.889154	1.085043
H236	H	0.951274	1.389154	1.585043
H237	H	0.491639	0.797606	1.114595
H238	H	0.991639	1.297606	1.614595
H239	H	0.443603	0.794130	1.169252
H240	H	0.943603	1.294130	1.669252
H241	H	0.494990	0.845749	1.169204
H242	H	0.994990	1.345749	1.669204
C243	C	0.386947	0.825937	0.935908
C244	C	0.886947	1.325937	1.435908
C245	C	0.422207	0.790691	0.978749
C246	C	0.922207	1.290691	1.478749
C247	C	0.462564	0.750397	0.945981
C248	C	0.962564	1.250397	1.445981
H249	H	0.362950	0.798455	0.910235
H250	H	0.862950	1.298455	1.410235
H251	H	0.414413	0.849999	0.910300
H252	H	0.914413	1.349999	1.410300
H253	H	0.394744	0.766630	1.004347
H254	H	0.894744	1.266630	1.504347
H255	H	0.446217	0.818156	1.004423
H256	H	0.946217	1.318156	1.504423
H257	H	0.490030	0.774460	0.920372
H258	H	0.990030	1.274460	1.420372
H259	H	0.438561	0.722920	0.920309
H260	H	0.938561	1.222920	1.420309
H261	H	0.486496	0.726482	0.975043
H262	H	0.986496	1.226482	1.475043
C263	C	-0.329078	0.826008	0.219615
C264	C	0.170922	1.326008	0.719615
C265	C	-0.291348	0.861627	0.179268
C266	C	0.208652	1.361627	0.679268
C267	C	-0.258430	0.821457	0.138906
C268	C	0.241570	1.321457	0.638906
H269	H	-0.303379	0.798576	0.243615
H270	H	0.196621	1.298576	0.743615
H271	H	-0.358044	0.802035	0.195596
H272	H	0.141956	1.302035	0.695596
H273	H	-0.262385	0.885590	0.203284
H274	H	0.237615	1.385590	0.703284
H275	H	-0.317031	0.889057	0.155254
H276	H	0.182969	1.389057	0.655254
H277	H	-0.287397	0.797484	0.114886
H278	H	0.212603	1.297484	0.614886
H279	H	-0.232735	0.794028	0.162911
H280	H	0.267265	1.294028	0.662911
H281	H	-0.232831	0.845619	0.111522
H282	H	0.267169	1.345619	0.611522
C283	C	0.219101	0.541949	0.219700
C284	C	0.719101	1.041949	0.719700
C285	C	0.254681	0.504163	0.179297
C286	C	0.754681	1.004163	0.679297
C287	C	0.214472	0.471231	0.139016
C288	C	0.714472	0.971231	0.639016
H289	H	0.191691	0.516287	0.243755
H290	H	0.691691	1.016287	0.743755
H291	H	0.195106	0.570907	0.195716
H292	H	0.695106	1.070907	0.695716
H293	H	0.278665	0.475208	0.203278
H294	H	0.778665	0.975208	0.703278
H295	H	0.282089	0.529808	0.155228
H296	H	0.782089	1.029808	0.655228
H297	H	0.190477	0.500189	0.115032
H298	H	0.690477	1.000189	0.615032
H299	H	0.187064	0.445573	0.163076
H300	H	0.687064	0.945573	0.663076
H301	H	0.238607	0.445593	0.111594
H302	H	0.738607	0.945593	0.611594
C303	C	0.386948	0.826024	0.672184
C304	C	0.886948	1.326024	1.172184
C305	C	0.378324	0.834657	0.736797
C306	C	0.878324	1.334657	1.236797
C307	C	0.418560	0.794472	0.769776
C308	C	0.918560	1.294472	1.269776
H309	H	0.377788	0.783703	0.661456
H310	H	0.877788	1.283703	1.161456
H311	H	0.429258	0.835240	0.661461
H312	H	0.929258	1.335240	1.161461
H313	H	0.336023	0.825436	0.747516
H314	H	0.836023	1.325436	1.247516
H315	H	0.387488	0.876970	0.747544
H316	H	0.887488	1.376970	1.247544
H317	H	0.460871	0.803689	0.759053
H318	H	0.960871	1.303689	1.259053
H319	H	0.409397	0.752154	0.759043
H320	H	0.909397	1.252154	1.259043
H321	H	0.412719	0.800328	0.813619
H322	H	0.912719	1.300328	1.313619
H323	H	0.062797	0.836802	0.230592
H324	H	0.562797	1.336802	0.730592
H325	H	0.376266	0.670270	0.376489
H326	H	0.876266	1.170270	0.876489
H327	H	0.376152	0.150168	0.376685
H328	H	0.876152	0.650168	0.876685
H329	H	0.062773	0.982933	0.376729
H330	H	0.562773	1.482933	0.876729
C331	C	0.218999	0.141029	0.219929
C332	C	0.718999	0.641029	0.719929
C333	C	0.227633	0.076426	0.228534
C334	C	0.727633	0.576426	0.728534
C335	C	0.187407	0.043401	0.188346
C336	C	0.687407	0.543401	0.688346
H337	H	0.176687	0.151747	0.229146
H338	H	0.676687	0.651747	0.729146
H339	H	0.228176	0.151725	0.177608
H340	H	0.728176	0.651725	0.677608
H341	H	0.218451	0.065734	0.270845
H342	H	0.718451	0.565734	0.770845
H343	H	0.269936	0.065688	0.219312
H344	H	0.769936	0.565688	0.719312
H345	H	0.196584	0.054097	0.146025
H346	H	0.696584	0.554097	0.646025
H347	H	0.145098	0.054124	0.197566
H348	H	0.645098	0.554124	0.697566
H349	H	0.193264	-0.000436	0.194175
H350	H	0.693264	0.499564	0.694175
C351	C	0.218762	0.993872	1.072913
C352	C	0.718762	1.493872	1.572913
C353	C	0.156488	0.980184	1.056878
C354	C	0.656488	1.480184	1.556878
C355	C	0.116093	1.020415	1.089676
C356	C	0.616093	1.520415	1.589676
H357	H	0.224422	0.988148	1.116781
H358	H	0.724422	1.488148	1.616781
H359	H	0.227936	1.036177	1.062159
H360	H	0.727936	1.536177	1.562159
H361	H	0.147317	0.937890	1.067637
H362	H	0.647317	1.437890	1.567637
H363	H	0.150808	0.985912	1.013016
H364	H	0.650808	1.485912	1.513016
H365	H	0.125268	1.062719	1.078922
H366	H	0.625268	1.562719	1.578922
H367	H	0.121759	1.014687	1.133543
H368	H	0.621759	1.514687	1.633543
H369	H	0.073837	1.011137	1.078797
H370	H	0.573837	1.511137	1.578797
C371	C	-0.065311	0.993899	0.387742
C372	C	0.434689	1.493899	0.887742
C373	C	-0.022461	1.029151	0.423022
C374	C	0.477539	1.529151	0.923022
C375	C	-0.055216	1.069456	0.463380
C376	C	0.444784	1.569456	0.963380
H377	H	-0.090962	1.021376	0.363744
H378	H	0.409038	1.521376	0.863744
H379	H	-0.090941	0.969845	0.415195
H380	H	0.409059	1.469845	0.915195
H381	H	0.003159	1.053203	0.395572
H382	H	0.503159	1.553203	0.895572
H383	H	0.003192	1.001690	0.447032
H384	H	0.503192	1.501690	0.947032
H385	H	-0.080846	1.045402	0.490833
H386	H	0.419154	1.545402	0.990833
H387	H	-0.080866	1.096930	0.439377
H388	H	0.419134	1.596930	0.939377
H389	H	-0.026147	1.093375	0.487326
H390	H	0.473853	1.593375	0.987326
H391	H	0.376236	0.551006	0.376536
H392	H	0.876236	1.051006	0.876536
H393	H	0.229954	0.670176	0.230652
H394	H	0.729954	1.170176	0.730652
H395	H	0.376183	0.269433	0.376636
H396	H	0.876183	0.769433	0.876636
H397	H	0.229842	0.982983	0.944800
H398	H	0.729842	1.482983	1.444800
H399	H	0.229984	0.982976	0.543962
H400	H	0.729984	1.482976	1.043962
