data_functionalizedCrystal
_audit_creation_method	'MofGen! by Chris Wilmer'
_symmetry_space_group_name_H-M	'P1'
_symmetry_Int_Tables_number	1
_symmetry_cell_setting	triclinic
loop_
_symmetry_equiv_pos_as_xyz
  x,y,z
_cell_length_a	16.109302
_cell_length_b	27.731996
_cell_length_c	14.586319
_cell_angle_alpha	90.009743
_cell_angle_beta	90.005448
_cell_angle_gamma	83.041584
loop_
_atom_site_label
_atom_site_type_symbol
_atom_site_fract_x
_atom_site_fract_y
_atom_site_fract_z
O1	O	1.102341	0.062133	0.076294
O2	O	0.860181	0.069865	0.076288
O3	O	0.988805	-0.004368	0.076271
O4	O	0.973718	0.136366	0.076311
O5	O	0.988796	-0.004369	-0.076210
O6	O	0.860172	0.069864	-0.076193
O7	O	1.102332	0.062132	-0.076187
Cu8	Cu	0.981251	0.065998	-0.090113
Cu9	Cu	0.981262	0.065999	0.090214
O10	O	0.973709	0.136365	-0.076170
C11	C	0.829206	0.069551	0.000047
C12	C	0.736922	0.068612	0.000044
C13	C	0.524604	0.066440	-0.083065
C14	C	0.437895	0.065552	-0.083062
C15	C	0.437916	0.065556	0.083181
C16	C	0.524624	0.066440	0.083177
C17	C	0.567965	0.066885	0.000051
C18	C	0.394548	0.065113	0.000058
C19	C	0.300535	0.064150	0.000062
C20	C	0.661985	0.067846	0.000047
C21	C	0.988490	-0.022377	0.000028
C22	C	0.987557	-0.076037	0.000018
C23	C	0.981688	-0.408777	0.083180
C24	C	0.978144	-0.610451	0.083196
O25	O	0.977654	-0.636523	0.153885
N26	N	0.977698	-0.635670	0.000080
C27	C	0.978134	-0.610468	-0.083047
O28	O	0.977666	-0.636546	-0.153742
C29	C	0.981673	-0.408795	-0.083062
C30	C	0.982127	-0.383579	0.000060
C31	C	0.982141	-0.383561	0.166295
C32	C	0.983032	-0.333146	0.166291
C33	C	0.983470	-0.307948	0.083171
C34	C	0.983017	-0.333164	0.000055
C35	C	0.982103	-0.383594	-0.166187
C36	C	0.982985	-0.333172	-0.166184
C37	C	0.983439	-0.307956	-0.083062
C38	C	0.984346	-0.257551	-0.083070
N39	N	0.984791	-0.232331	0.000047
C40	C	0.984353	-0.257530	0.083167
C41	C	0.976278	-0.716349	-0.083033
C42	C	0.975395	-0.766767	-0.083029
C43	C	0.975403	-0.766746	0.083214
C44	C	0.976292	-0.716328	0.083209
C45	C	0.976723	-0.691130	0.000084
C46	C	0.986224	-0.151655	0.083151
C47	C	0.987119	-0.101236	0.083138
C48	C	0.987106	-0.101261	-0.083104
C49	C	0.986216	-0.151676	-0.083093
C50	C	0.985773	-0.176871	0.000042
O51	O	0.984827	-0.231447	-0.153721
O52	O	0.984803	-0.231442	0.153852
C53	C	0.980798	-0.459192	0.083185
C54	C	0.980345	-0.484409	0.000070
C55	C	0.980783	-0.459210	-0.083050
C56	C	0.979462	-0.534827	0.000073
C57	C	0.979024	-0.560025	0.083193
C58	C	0.979469	-0.534806	0.166310
C59	C	0.980360	-0.484391	0.166305
C60	C	0.980338	-0.484430	-0.166167
C61	C	0.979448	-0.534845	-0.166155
C62	C	0.979010	-0.560043	-0.083035
C63	C	1.133308	0.062446	0.000056
C64	C	1.225591	0.063385	0.000065
C65	C	0.974023	0.154374	0.000075
C66	C	0.974957	0.208034	0.000091
N67	N	0.981250	0.065997	-0.216944
C68	C	1.038223	0.033137	-0.451958
C69	C	1.038226	0.033136	-0.547940
C70	C	0.924291	0.098858	-0.547934
C71	C	0.924285	0.098856	-0.451955
C72	C	0.981256	0.065997	-0.403969
C73	C	0.981264	0.065997	-0.595930
C74	C	0.981266	0.065996	-0.699997
C75	C	0.981253	0.065997	-0.299895
N76	N	0.981270	0.065997	0.217045
H77	H	0.987490	-0.080707	0.150829
N78	N	0.571400	0.066914	0.172828
H79	H	0.530787	0.066501	0.225488
H80	H	0.600245	0.097227	0.176456
H81	H	0.985855	-0.172209	-0.150777
H82	H	0.877891	0.125614	-0.412879
H83	H	0.877907	0.125612	-0.587013
N84	N	0.391161	0.065078	0.172829
H85	H	0.348052	0.094658	0.176542
H86	H	0.431843	0.065474	0.225433
N87	N	0.980820	-0.457260	-0.255826
H88	H	1.032749	-0.440274	-0.259532
H89	H	0.929599	-0.432435	-0.259494
N90	N	1.099666	-0.002303	-0.400200
H91	H	1.135753	-0.023119	-0.445169
H92	H	1.068118	-0.023678	-0.360391
N93	N	0.571357	0.066912	-0.172716
H94	H	0.600195	0.097226	-0.176419
H95	H	0.530682	0.066476	-0.225317
H96	H	0.979116	-0.555331	0.233989
H97	H	1.084612	0.006379	-0.587010
N98	N	0.983447	-0.305994	-0.255843
H99	H	0.983026	-0.329622	-0.308493
H100	H	1.035376	-0.289006	-0.259471
N101	N	0.985769	-0.178827	0.172815
H102	H	0.986201	-0.155197	0.225460
H103	H	1.036969	-0.203670	0.176423
H104	H	0.402595	0.065190	-0.150744
N105	N	0.983516	-0.305952	0.255944
H106	H	0.983101	-0.329571	0.308593
H107	H	0.932323	-0.281104	0.259565
N108	N	0.981725	-0.410739	0.255954
H109	H	0.982166	-0.387108	0.308597
H110	H	1.032940	-0.435572	0.259535
N111	N	0.976781	-0.689132	0.172861
H112	H	0.976372	-0.712750	0.225513
H113	H	0.925587	-0.664285	0.176486
N114	N	0.974932	-0.793929	0.172867
H115	H	0.974303	-0.829694	0.160248
H116	H	0.923525	-0.781186	0.209158
H117	H	0.976633	-0.695838	-0.150728
N118	N	0.974923	-0.793963	-0.172682
H119	H	0.975334	-0.770345	-0.225334
H120	H	0.922997	-0.810954	-0.176307
N121	N	0.987587	-0.074078	-0.172752
H122	H	0.988217	-0.038313	-0.160135
H123	H	0.935868	-0.078962	-0.209049
N124	N	0.978966	-0.562037	-0.255818
H125	H	0.927559	-0.549332	-0.292150
H126	H	0.978366	-0.597795	-0.243138
H127	H	0.981735	-0.404116	-0.233874
H128	H	0.980728	-0.463864	0.233992
