data_functionalizedCrystal
_audit_creation_method	'MofGen! by Chris Wilmer'
_symmetry_space_group_name_H-M	'P1'
_symmetry_Int_Tables_number	1
_symmetry_cell_setting	triclinic
loop_
_symmetry_equiv_pos_as_xyz
  x,y,z
_cell_length_a	12.645331
_cell_length_b	29.839131
_cell_length_c	12.645331
_cell_angle_alpha	90.009749
_cell_angle_beta	90.003677
_cell_angle_gamma	90.040399
loop_
_atom_site_label
_atom_site_type_symbol
_atom_site_fract_x
_atom_site_fract_y
_atom_site_fract_z
Zn1	Zn	1.620358	-0.178964	0.599388
Zn2	Zn	1.620225	-0.254065	0.422104
Zn3	Zn	1.443131	-0.178949	0.422132
Zn4	Zn	1.442980	-0.254066	0.599319
O5	O	1.531673	-0.216511	0.510736
O6	O	1.768687	-0.188932	0.575888
O7	O	1.596740	-0.244095	0.273760
O8	O	1.466759	-0.116084	0.445687
O9	O	1.768589	-0.244109	0.445638
O10	O	1.596967	-0.116095	0.575915
O11	O	1.466630	-0.188907	0.273781
O12	O	1.294764	-0.188907	0.445620
O13	O	1.466503	-0.244110	0.747675
O14	O	1.294653	-0.244096	0.575798
O15	O	1.596821	-0.188933	0.747726
O16	O	1.596594	-0.316933	0.445571
O17	O	1.466374	-0.316933	0.575770
C18	C	1.256244	-0.216500	0.510705
C19	C	1.138414	-0.216507	0.510717
C20	C	0.970884	-0.181628	0.429274
C21	C	1.093443	-0.181718	0.428915
C22	C	1.093857	-0.263827	0.480187
C23	C	0.971259	-0.263637	0.479631
C24	C	0.971239	-0.204515	0.623005
C25	C	1.093846	-0.203458	0.622382
C26	C	1.531482	-0.333234	0.510683
C27	C	1.531497	-0.383168	0.510696
C28	C	1.599602	-0.692799	0.443040
C29	C	1.599733	-0.880472	0.443081
O30	O	1.657487	-0.904725	0.385517
N31	N	1.531893	-0.903953	0.510816
C32	C	1.464020	-0.880514	0.578550
O33	O	1.406329	-0.904792	0.636171
C34	C	1.463896	-0.692841	0.578513
C35	C	1.531733	-0.669362	0.510767
C36	C	1.667435	-0.669319	0.375300
C37	C	1.667397	-0.622404	0.375286
C38	C	1.599527	-0.598968	0.443013
C39	C	1.531695	-0.622447	0.510753
C40	C	1.396029	-0.669403	0.646252
C41	C	1.396006	-0.622482	0.646238
C42	C	1.463843	-0.599003	0.578492
C43	C	1.463788	-0.552095	0.578466
N44	N	1.531628	-0.528614	0.510731
C45	C	1.599498	-0.552050	0.443005
C46	C	1.464089	-0.979044	0.578563
C47	C	1.464119	-1.025962	0.578571
C48	C	1.599833	-1.025917	0.443103
C49	C	1.599798	-0.978998	0.443091
C50	C	1.531929	-0.955563	0.510828
C51	C	1.599413	-0.453524	0.442980
C52	C	1.599367	-0.406604	0.442970
C53	C	1.463657	-0.406654	0.578440
C54	C	1.463699	-0.453569	0.578448
C55	C	1.531586	-0.477003	0.510714
O56	O	1.406073	-0.527812	0.636008
O57	O	1.657197	-0.527763	0.385409
C58	C	1.599640	-0.739714	0.443054
C59	C	1.531808	-0.763193	0.510794
C60	C	1.463938	-0.739757	0.578520
C61	C	1.531837	-0.810111	0.510802
C62	C	1.599707	-0.833547	0.443075
C63	C	1.667547	-0.810066	0.375341
C64	C	1.667510	-0.763150	0.375327
C65	C	1.396098	-0.763238	0.646255
C66	C	1.396140	-0.810154	0.646262
C67	C	1.464010	-0.833590	0.578536
C68	C	1.808179	-0.216522	0.510767
C69	C	1.926009	-0.216527	0.510781
C70	C	1.531660	-0.216523	0.787241
C71	C	1.531654	-0.216529	0.905071
C72	C	1.531894	-0.099333	0.510812
C73	C	1.531989	-0.049398	0.510844
C74	C	1.449661	-0.251242	0.949921
C75	C	1.449334	-0.251134	1.072481
C76	C	1.501778	-0.169139	1.072988
C77	C	1.501189	-0.169345	0.950390
C78	C	1.643716	-0.228780	0.950258
C79	C	1.643108	-0.229819	1.072864
C80	C	1.531668	-0.216513	1.235306
C81	C	1.531643	-0.216519	1.117476
H82	H	1.122741	-0.189656	0.345752
H83	H	1.655037	-0.959884	0.387926
Cl84	Cl	1.752769	-0.698774	0.290146
H85	H	1.122981	-0.290523	0.537689
H86	H	1.420773	-0.158593	1.103693
Cl87	Cl	1.322182	-0.238855	0.902367
Cl88	Cl	1.478102	-0.305370	1.118925
H89	H	1.366293	-0.243011	1.101810
Cl90	Cl	1.685154	-1.055388	0.357961
H91	H	1.707429	-0.206391	1.103497
H92	H	1.408820	-0.959966	0.633724
H93	H	1.124529	-0.274191	0.399026
H94	H	0.942631	-0.273825	0.397589
Cl95	Cl	0.923580	-0.152171	0.665867
H96	H	1.670988	-0.262747	0.919332
Cl97	Cl	1.310755	-0.698908	0.731437
Cl98	Cl	1.589415	-0.128039	0.904578
H99	H	1.408869	-1.045075	0.633727
Cl100	Cl	1.677895	-0.283655	1.117753
H101	H	1.419287	-0.158980	0.921795
H102	H	1.468083	-0.286483	0.920434
H103	H	0.941569	-0.290518	0.536408
H104	H	1.340890	-0.829267	0.701429
H105	H	1.340740	-0.603403	0.701402
H106	H	1.559667	-0.142565	1.102133
H107	H	1.704798	-0.203496	0.921262
H108	H	1.122976	-0.168636	0.645403
Cl109	Cl	0.923268	-0.193738	0.301635
H110	H	1.123572	-0.146628	0.448053
Cl111	Cl	1.378345	-0.377182	0.663583
H112	H	1.124459	-0.227024	0.686359
H113	H	0.941448	-0.146432	0.448206
Cl114	Cl	1.378396	-0.483087	0.663594
H115	H	0.942215	-0.229934	0.683735
H116	H	1.722639	-0.603290	0.320124
H117	H	1.722749	-0.744037	0.320162
H118	H	1.654608	-0.387489	0.387799
Cl119	Cl	1.684756	-0.482977	0.357827
H120	H	1.722806	-0.829156	0.320193
Cl121	Cl	1.310766	-0.733783	0.731406
