data_functionalizedCrystal
_audit_creation_method	'MofGen! by Chris Wilmer'
_symmetry_space_group_name_H-M	'P1'
_symmetry_Int_Tables_number	1
_symmetry_cell_setting	triclinic
loop_
_symmetry_equiv_pos_as_xyz
  x,y,z
_cell_length_a	12.594517
_cell_length_b	19.121747
_cell_length_c	12.594509
_cell_angle_alpha	87.591360
_cell_angle_beta	90.022214
_cell_angle_gamma	87.590789
loop_
_atom_site_label
_atom_site_type_symbol
_atom_site_fract_x
_atom_site_fract_y
_atom_site_fract_z
Zn1	Zn	1.645232	-0.279581	0.619940
Zn2	Zn	2.145232	0.220419	1.119940
Zn3	Zn	1.652670	-0.397035	0.449547
Zn4	Zn	2.152670	0.102965	0.949547
Zn5	Zn	1.467238	-0.279610	0.441968
Zn6	Zn	1.967238	0.220390	0.941968
Zn7	Zn	1.474762	-0.396986	0.627471
Zn8	Zn	1.974762	0.103014	1.127471
O9	O	1.559975	-0.338303	0.534731
O10	O	2.059975	0.161697	1.034731
O11	O	1.795165	-0.295170	0.597357
O12	O	2.295165	0.204830	1.097357
O13	O	1.628036	-0.381492	0.299598
O14	O	2.128036	0.118508	0.799598
O15	O	1.484587	-0.181330	0.459253
O16	O	1.984587	0.318670	0.959253
O17	O	1.800630	-0.381463	0.472170
O18	O	2.300630	0.118537	0.972170
O19	O	1.615359	-0.181308	0.590009
O20	O	2.115359	0.318692	1.090009
O21	O	1.491800	-0.295220	0.294030
O22	O	1.991800	0.204780	0.794030
O23	O	1.319289	-0.295172	0.466555
O24	O	1.819289	0.204828	0.966555
O25	O	1.497411	-0.381379	0.775416
O26	O	1.997411	0.118621	1.275416
O27	O	1.324818	-0.381407	0.602843
O28	O	1.824818	0.118593	1.102843
O29	O	1.622655	-0.295122	0.769883
O30	O	2.122655	0.204878	1.269883
O31	O	1.635332	-0.495305	0.479472
O32	O	2.135332	0.004695	0.979472
O33	O	1.504624	-0.495269	0.610192
O34	O	2.004624	0.004731	1.110192
C35	C	1.283433	-0.338288	0.534695
C36	C	1.783433	0.161712	1.034695
C37	C	1.165129	-0.338298	0.534705
C38	C	1.665129	0.161702	1.034705
C39	C	1.022071	-0.291344	0.460738
C40	C	1.522071	0.208656	0.960738
C41	C	1.091830	-0.274232	0.556759
C42	C	1.591830	0.225768	1.056759
C43	C	1.096939	-0.355378	0.438693
C44	C	1.596939	0.144622	0.938693
C45	C	1.024102	-0.321182	0.630856
C46	C	1.524102	0.178818	1.130856
C47	C	1.029207	-0.402357	0.512726
C48	C	1.529207	0.097643	1.012726
C49	C	1.098935	-0.385270	0.608816
C50	C	1.598935	0.114730	1.108816
C51	C	1.571630	-0.520769	0.546495
C52	C	2.071630	-0.020769	1.046495
C53	C	1.576714	-0.598829	0.551563
C54	C	2.076714	-0.098829	1.051563
C55	C	1.608962	-1.040316	0.583665
C56	C	2.108962	-0.540316	1.083665
C57	C	1.604173	-0.966970	0.578894
C58	C	2.104173	-0.466970	1.078894
C59	C	1.533748	-0.930375	0.508385
C60	C	2.033748	-0.430375	1.008385
C61	C	1.468114	-0.967129	0.442637
C62	C	1.968114	-0.467129	0.942637
C63	C	1.472908	-1.040473	0.447403
C64	C	1.972908	-0.540473	0.947403
C65	C	1.515874	-0.708927	0.490580
C66	C	2.015874	-0.208927	0.990580
C67	C	1.511082	-0.635578	0.485821
C68	C	2.011082	-0.135578	0.985821
C69	C	1.647144	-0.635424	0.622077
C70	C	2.147144	-0.135424	1.122077
C71	C	1.651927	-0.708770	0.626842
C72	C	2.151927	-0.208770	1.126842
C73	C	1.586297	-0.745517	0.561089
C74	C	2.086297	-0.245517	1.061089
C75	C	1.528850	-0.855404	0.503509
C76	C	2.028850	-0.355404	1.003509
C77	C	1.591202	-0.820487	0.565961
C78	C	2.091202	-0.320487	1.065961
C79	C	1.837597	-0.338319	0.534769
C80	C	2.337597	0.161681	1.034769
C81	C	1.955903	-0.338326	0.534785
C82	C	2.455903	0.161674	1.034785
C83	C	1.560043	-0.338242	0.812348
C84	C	2.060043	0.161758	1.312348
C85	C	1.560071	-0.338215	0.930652
C86	C	2.060071	0.161785	1.430652
C87	C	1.548304	-0.155124	0.522946
C88	C	2.048304	0.344876	1.022946
C89	C	1.543330	-0.077065	0.517923
C90	C	2.043330	0.422935	1.017923
C91	C	1.559966	-0.338314	0.258191
C92	C	2.059966	0.161686	0.758191
C93	C	1.560131	-0.338142	0.139875
C94	C	2.060131	0.161858	0.639875
C95	C	1.491972	-0.385104	1.002913
C96	C	1.991972	0.114896	1.502913
C97	C	1.590195	-0.402264	1.074813
C98	C	2.090195	0.097736	1.574813
C99	C	1.461921	-0.321013	1.069549
C100	C	1.961921	0.178987	1.569549
C101	C	1.658348	-0.355409	1.000996
C102	C	2.158348	0.144591	1.500996
C103	C	1.530006	-0.274129	0.995724
C104	C	2.030006	0.225871	1.495724
C105	C	1.628295	-0.291264	1.067590
C106	C	2.128295	0.208736	1.567590
H107	H	1.666299	-1.070106	0.641091
H108	H	2.166299	-0.570106	1.141091
N109	N	1.435123	-0.596114	0.409756
N110	N	1.935123	-0.096114	0.909756
H111	H	1.476419	-0.565678	0.358499
H112	H	1.976419	-0.065678	0.858499
H113	H	1.383798	-0.565736	0.451063
H114	H	1.883798	-0.065736	0.951063
N115	N	1.392164	-0.927656	0.366584
N116	N	1.892164	-0.427656	0.866584
H117	H	1.340828	-0.897237	0.407818
H118	H	1.840828	-0.397237	0.907818
H119	H	1.351388	-0.962109	0.325672
H120	H	1.851388	-0.462109	0.825672
N121	N	0.992552	-0.474080	0.488017
N122	N	1.492552	0.025920	0.988017
H123	H	1.019024	-0.486930	0.415406
H124	H	1.519024	0.013070	0.915406
H125	H	0.912341	-0.473615	0.488984
H126	H	1.412341	0.026385	0.988984
H127	H	1.132389	-0.424990	0.671470
H128	H	1.632389	0.075010	1.171470
N129	N	1.674958	-0.927337	0.649808
N130	N	2.174958	-0.427337	1.149808
H131	H	1.629686	-0.896908	0.697111
H132	H	2.129686	-0.396908	1.197111
H133	H	1.722310	-0.896938	0.604550
H134	H	2.222310	-0.396938	1.104550
H135	H	0.992269	-0.306684	0.712105
H136	H	1.492269	0.193316	1.212105
H137	H	1.462433	-0.738838	0.437040
H138	H	1.962433	-0.238838	0.937040
N139	N	1.402126	-1.080113	0.376492
N140	N	1.902126	-0.580113	0.876492
H141	H	1.356783	-1.045802	0.331102
H142	H	1.856783	-0.545802	0.831102
H143	H	1.354837	-1.110557	0.421748
H144	H	1.854837	-0.610557	0.921748
H145	H	1.378892	-0.306494	1.099700
H146	H	1.878892	0.193506	1.599700
N147	N	1.717939	-0.595788	0.692977
N148	N	2.217939	-0.095788	1.192977
H149	H	1.763282	-0.630100	0.738364
H150	H	2.263282	-0.130100	1.238364
H151	H	1.672605	-0.565360	0.740221
H152	H	2.172605	-0.065360	1.240221
N153	N	1.667143	-0.859963	0.642013
N154	N	2.167143	-0.359963	1.142013
H155	H	1.649726	-0.847174	0.717215
H156	H	2.149726	-0.347174	1.217215
H157	H	1.742342	-0.847151	0.624645
H158	H	2.242342	-0.347151	1.124645
H159	H	1.471506	-0.825602	0.446102
H160	H	1.971506	-0.325602	0.946102
H161	H	1.504517	-0.219979	0.961098
H162	H	2.004517	0.280021	1.461098
H163	H	1.741405	-0.369990	0.970980
H164	H	2.241405	0.130010	1.470980
H165	H	1.615657	-0.456429	1.109416
H166	H	2.115657	0.043571	1.609416
H167	H	1.709288	-0.738561	0.684245
H168	H	2.209288	-0.238561	1.184245
N169	N	1.415755	-0.437702	0.965156
N170	N	1.915755	0.062298	1.465156
H171	H	1.438633	-0.486073	0.994040
H172	H	1.938633	0.013927	1.494040
H173	H	1.415805	-0.436981	0.884928
H174	H	1.915805	0.063019	1.384928
H175	H	1.128900	-0.369812	0.357463
H176	H	1.628900	0.130188	0.857463
N177	N	0.977477	-0.238699	0.377934
N178	N	1.477477	0.261301	0.877934
H179	H	1.005075	-0.251094	0.305527
H180	H	1.505075	0.248906	0.805527
H181	H	1.000155	-0.190352	0.394804
H182	H	1.500155	0.309648	0.894804
N183	N	1.128449	-0.202493	0.581448
N184	N	1.628449	0.297507	1.081448
H185	H	1.100412	-0.167045	0.525506
H186	H	1.600412	0.332955	1.025506
H187	H	1.208676	-0.203193	0.581941
H188	H	1.708676	0.296807	1.081941
N189	N	1.704698	-0.238706	1.105107
N190	N	2.204698	0.261294	1.605107
H191	H	1.778803	-0.251765	1.080073
H192	H	2.278803	0.248235	1.580073
H193	H	1.703748	-0.238710	1.185292
H194	H	2.203748	0.261290	1.685292
