data_functionalizedCrystal
_audit_creation_method	'MofGen! by Chris Wilmer'
_symmetry_space_group_name_H-M	'P1'
_symmetry_Int_Tables_number	1
_symmetry_cell_setting	triclinic
loop_
_symmetry_equiv_pos_as_xyz
  x,y,z
_cell_length_a	10.654562
_cell_length_b	10.540539
_cell_length_c	9.130313
_cell_angle_alpha	90.000859
_cell_angle_beta	89.996930
_cell_angle_gamma	84.507798
loop_
_atom_site_label
_atom_site_type_symbol
_atom_site_fract_x
_atom_site_fract_y
_atom_site_fract_z
O1	O	1.667888	0.178372	-0.121888
O2	O	1.302417	0.195342	-0.121869
O3	O	1.493490	0.002148	-0.121877
O4	O	1.476814	0.371566	-0.121880
O5	O	1.493488	0.002153	0.121721
O6	O	1.302415	0.195347	0.121730
O7	O	1.667885	0.178377	0.121711
Cu8	Cu	1.485150	0.186863	0.143963
Cu9	Cu	1.485153	0.186857	-0.144121
O10	O	1.476812	0.371571	0.121719
C11	C	1.255618	0.194095	-0.000068
C12	C	1.116174	0.190357	-0.000061
C13	C	1.050641	0.188617	0.132714
C14	C	0.919618	0.185114	0.132689
C15	C	0.919671	0.185099	-0.132896
C16	C	1.050693	0.188592	-0.132870
C17	C	1.116123	0.190382	0.265523
C18	C	1.050590	0.188642	0.398308
C19	C	0.919566	0.185140	0.398283
C20	C	0.854076	0.183377	0.265474
C21	C	1.492239	-0.045152	-0.000081
C22	C	1.488497	-0.186099	-0.000088
C23	C	1.345126	-0.369481	-0.000628
C24	C	1.348919	-0.222864	-0.000079
C25	C	1.555667	-0.247775	0.139015
C26	C	1.550903	-0.394318	0.139133
C27	C	1.553745	-0.394843	-0.137885
C28	C	1.555030	-0.247861	-0.139724
C29	C	1.714685	0.179624	-0.000094
C30	C	1.854128	0.183362	-0.000111
C31	C	1.478064	0.418871	-0.000081
C32	C	1.481805	0.559818	-0.000083
N33	N	1.485157	0.186866	0.346585
N34	N	1.485155	0.186843	-0.346744
C35	C	1.569786	0.101349	0.423234
C36	C	1.569783	0.101334	0.576570
C37	C	1.400517	0.272364	0.576597
C38	C	1.400515	0.272372	0.423263
C39	C	1.654428	0.015843	0.346556
C40	C	1.739065	-0.069680	0.423204
C41	C	1.739061	-0.069695	0.576541
C42	C	1.654421	0.015813	0.653230
H43	H	0.747388	0.180522	0.265465
H44	H	1.331607	0.341982	0.639047
H45	H	1.222808	0.193237	0.265558
O46	O	0.855970	0.183623	-0.261859
C47	C	0.766943	0.291338	-0.269797
H48	H	0.797178	0.369098	-0.194436
H49	H	0.761036	0.328137	-0.387242
H50	H	0.670627	0.263881	-0.234136
H51	H	1.104050	0.190016	-0.240986
H52	H	1.296067	-0.180246	-0.099794
O53	O	1.279180	-0.403396	-0.119583
C54	C	1.157200	-0.338459	-0.116791
H55	H	1.158077	-0.248482	-0.047666
H56	H	1.126524	-0.311446	-0.233191
H57	H	1.088365	-0.402937	-0.067260
H58	H	1.290213	-0.399669	0.098572
O59	O	1.114389	0.190410	0.527181
C60	C	1.244089	0.193843	0.498736
H61	H	1.257171	0.234436	0.384617
H62	H	1.286452	0.256697	0.583552
H63	H	1.293522	0.093173	0.505040
H64	H	1.331601	0.342007	0.360855
O65	O	1.670715	-0.451452	0.146486
C66	C	1.739869	-0.415148	0.024292
H67	H	1.694378	-0.320921	-0.020908
H68	H	1.840913	-0.403447	0.058912
H69	H	1.740236	-0.491718	-0.063937
O70	O	0.855882	0.183212	0.527226
C71	C	0.793298	0.071452	0.535151
H72	H	0.842039	-0.004203	0.459803
H73	H	0.796237	0.034578	0.652598
H74	H	0.691013	0.093608	0.499464
O75	O	1.285259	-0.172937	0.118931
C76	C	1.184113	-0.086164	0.072642
H77	H	1.157178	-0.109583	-0.044437
H78	H	1.099733	-0.093653	0.147858
H79	H	1.213635	0.014908	0.077076
H80	H	1.501260	-0.422499	0.243120
H81	H	1.654561	-0.442100	-0.138826
O82	O	1.821147	-0.152724	0.651227
C83	C	1.803023	-0.134383	0.803007
H84	H	1.703598	-0.087889	0.823961
H85	H	1.816146	-0.230395	0.861267
H86	H	1.874668	-0.070039	0.846525
H87	H	1.658169	-0.225453	0.144182
H88	H	1.509005	-0.205158	0.242536
H89	H	1.508571	-0.426384	-0.243317
H90	H	1.656793	-0.223672	-0.148130
O91	O	1.496373	-0.198842	-0.262352
C92	C	1.395564	-0.109141	-0.222145
H93	H	1.413076	-0.071349	-0.107701
H94	H	1.388205	-0.026777	-0.303575
H95	H	1.303897	-0.156760	-0.222648
H96	H	1.654417	0.015784	0.778087
H97	H	1.654441	0.015850	0.221701
O98	O	1.821150	-0.152938	0.348811
C99	C	1.799611	-0.278786	0.386330
H100	H	1.699048	-0.280334	0.428463
H101	H	1.813499	-0.342382	0.285507
H102	H	1.868866	-0.315408	0.475354
