data_functionalizedCrystal
_audit_creation_method	'MofGen! by Chris Wilmer'
_symmetry_space_group_name_H-M	'P1'
_symmetry_Int_Tables_number	1
_symmetry_cell_setting	triclinic
loop_
_symmetry_equiv_pos_as_xyz
  x,y,z
_cell_length_a	11.792241
_cell_length_b	8.559649
_cell_length_c	7.088929
_cell_angle_alpha	95.344185
_cell_angle_beta	83.749367
_cell_angle_gamma	76.986040
loop_
_atom_site_label
_atom_site_type_symbol
_atom_site_fract_x
_atom_site_fract_y
_atom_site_fract_z
O1	O	-1.473819	-0.235133	-0.158796
O2	O	-1.141410	-0.257691	-0.158840
O3	O	-1.336900	-0.014063	-0.158812
O4	O	-1.278329	-0.478761	-0.158824
O5	O	-1.363032	0.018570	0.159167
O6	O	-1.167542	-0.225058	0.159139
O7	O	-1.499951	-0.202500	0.159183
Cu8	Cu	-1.336133	-0.210800	0.188195
Cu9	Cu	-1.305229	-0.249391	-0.187852
O10	O	-1.304461	-0.446128	0.159155
C11	C	-1.112314	-0.239958	0.000144
C12	C	-0.986687	-0.235720	0.000127
C13	C	-1.354405	0.061745	0.000174
C14	C	-1.367616	0.239009	0.000165
C15	C	-1.529047	-0.220233	0.000195
C16	C	-1.654673	-0.224473	0.000199
C17	C	-0.756693	-0.227917	0.000182
C18	C	-0.884680	-0.232252	0.000152
C19	C	-1.286956	-0.521936	0.000164
C20	C	-1.273744	-0.699202	0.000161
N21	N	-1.357877	-0.183655	0.452686
N22	N	-1.283494	-0.276523	-0.452343
H23	H	-1.458100	0.321734	0.000192
O24	O	-1.460010	-0.056188	0.560854
H25	H	-1.511743	0.008385	0.457782
H26	H	-1.183268	0.218085	0.000155
H27	H	-1.206406	-0.372761	0.466000
