data_functionalizedCrystal
_audit_creation_method	'MofGen! by Chris Wilmer'
_symmetry_space_group_name_H-M	'P1'
_symmetry_Int_Tables_number	1
_symmetry_cell_setting	triclinic
loop_
_symmetry_equiv_pos_as_xyz
  x,y,z
_cell_length_a	7.681481
_cell_length_b	16.109301
_cell_length_c	16.109301
_cell_angle_alpha	83.461481
_cell_angle_beta	84.258119
_cell_angle_gamma	95.724535
loop_
_atom_site_label
_atom_site_type_symbol
_atom_site_fract_x
_atom_site_fract_y
_atom_site_fract_z
O1	O	0.146325	-1.095274	-0.114735
O2	O	0.479658	-0.761941	0.218598
O3	O	0.812992	-0.428608	0.551932
O4	O	0.146354	-0.853211	-0.128036
O5	O	0.479687	-0.519877	0.205297
O6	O	0.813020	-0.186544	0.538631
O7	O	0.146321	-0.980893	-0.000353
O8	O	0.479654	-0.647560	0.332980
O9	O	0.812987	-0.314226	0.666313
O10	O	0.146358	-0.967592	-0.242417
O11	O	0.479691	-0.634258	0.090916
O12	O	0.813025	-0.300925	0.424249
O13	O	-0.146541	-0.996609	0.015398
O14	O	0.186792	-0.663275	0.348731
O15	O	0.520126	-0.329942	0.682064
O16	O	-0.146508	-0.868926	-0.112285
O17	O	0.186825	-0.535593	0.221049
O18	O	0.520159	-0.202260	0.554382
O19	O	-0.146537	-1.110990	-0.098984
O20	O	0.186797	-0.777657	0.234349
O21	O	0.520130	-0.444323	0.567683
Zn22	Zn	-0.193021	-0.992453	-0.103133
Zn23	Zn	0.140313	-0.659120	0.230200
Zn24	Zn	0.473646	-0.325787	0.563533
Zn25	Zn	0.192838	-0.971747	-0.123886
Zn26	Zn	0.526171	-0.638414	0.209447
Zn27	Zn	0.859504	-0.305081	0.542780
O28	O	-0.146504	-0.983307	-0.226666
O29	O	0.186830	-0.649974	0.106667
O30	O	0.520163	-0.316641	0.440000
C31	C	-0.000074	-0.830093	-0.119622
C32	C	0.333260	-0.496760	0.213712
C33	C	0.666593	-0.163427	0.547045
C34	C	-0.000063	-0.737798	-0.118007
C35	C	0.333270	-0.404464	0.215326
C36	C	0.666603	-0.071131	0.548659
N37	N	-0.456358	-1.006591	-0.088970
N38	N	-0.123025	-0.673257	0.244364
N39	N	0.210308	-0.339924	0.577697
C40	C	-0.000111	-0.988212	0.038497
C41	C	0.333222	-0.654879	0.371830
C42	C	0.666556	-0.321546	0.705164
C43	C	-0.000113	-0.986597	0.130792
C44	C	0.333220	-0.653264	0.464126
C45	C	0.666553	-0.319931	0.797459
N46	N	0.456175	-0.957617	-0.138043
N47	N	0.789509	-0.624283	0.195290
N48	N	1.122842	-0.290950	0.528623
C49	C	-0.000105	-1.134107	-0.107398
C50	C	0.333228	-0.800774	0.225935
C51	C	0.666561	-0.467440	0.559268
C52	C	-0.000104	-1.226402	-0.109013
C53	C	0.333229	-0.893069	0.224320
C54	C	0.666562	-0.559735	0.557653
C55	C	-0.000073	-0.515526	-0.190014
C56	C	0.333261	-0.182192	0.143319
C57	C	0.666594	0.151141	0.476652
C58	C	-0.000084	-0.428806	-0.188490
C59	C	0.333249	-0.095473	0.144844
C60	C	0.666583	0.237861	0.478177
C61	C	-0.000100	-0.448681	-0.037000
C62	C	0.333233	-0.115348	0.296333
C63	C	0.666566	0.217986	0.629667
C64	C	-0.000101	-0.535400	-0.038525
C65	C	0.333232	-0.202067	0.294808
C66	C	0.666565	0.131267	0.628142
C67	C	-0.000079	-0.568819	-0.115035
C68	C	0.333255	-0.235486	0.218298
C69	C	0.666588	0.097848	0.551632
C70	C	-0.000089	-0.395381	-0.111986
C71	C	0.333244	-0.062047	0.221348
C72	C	0.666578	0.271286	0.554681
C73	C	-0.000101	-0.301355	-0.110332
C74	C	0.333232	0.031978	0.223001
C75	C	0.666565	0.365311	0.556335
C76	C	-0.000069	-0.662851	-0.116689
C77	C	0.333264	-0.329517	0.216644
C78	C	0.666597	0.003816	0.549978
C79	C	-0.000068	-0.975988	-0.265517
C80	C	0.333265	-0.642655	0.067816
C81	C	0.666599	-0.309321	0.401150
C82	C	-0.000054	-0.977602	-0.357813
C83	C	0.333279	-0.644269	-0.024480
C84	C	0.666613	-0.310936	0.308854
C85	C	-0.000094	-1.058604	0.353064
C86	C	0.333239	-0.725271	0.686397
C87	C	0.666573	-0.391937	1.019730
C88	C	-0.000079	-1.057079	0.439783
C89	C	0.333254	-0.723746	0.773117
C90	C	0.666587	-0.390412	1.106450
C91	C	-0.000068	-0.905590	0.419908
C92	C	0.333265	-0.572256	0.753242
C93	C	0.666598	-0.238923	1.086575
C94	C	-0.000070	-0.907115	0.333190
C95	C	0.333263	-0.573781	0.666523
C96	C	0.666596	-0.240448	0.999857
C97	C	-0.000092	-0.983625	0.299771
C98	C	0.333241	-0.650291	0.633104
C99	C	0.666575	-0.316958	0.966437
C100	C	-0.000075	-0.980575	0.473209
C101	C	0.333258	-0.647242	0.806542
C102	C	0.666591	-0.313908	1.139875
C103	C	-0.000060	-0.978921	0.567234
C104	C	0.333274	-0.645588	0.900567
C105	C	0.666607	-0.312254	1.233901
C106	C	-0.000105	-0.985279	0.205739
C107	C	0.333229	-0.651946	0.539073
C108	C	0.666562	-0.318612	0.872406
H109	H	-0.468615	-0.907624	-0.188133
H110	H	-0.135281	-0.574291	0.145200
H111	H	0.198052	-0.240957	0.478534
H112	H	-0.000111	-0.578794	0.022536
H113	H	0.333222	-0.245461	0.355870
H114	H	0.666556	0.087872	0.689203
H115	H	-0.000108	-1.120903	0.325857
H116	H	0.333225	-0.787570	0.659190
H117	H	0.666559	-0.454236	0.992523
C118	C	-0.000097	-1.139563	0.498404
C119	C	0.333237	-0.806230	0.831737
C120	C	0.666570	-0.472897	1.165070
N121	N	-0.000114	-1.201694	0.542557
N122	N	0.333220	-0.868361	0.875890
N123	N	0.666553	-0.535028	1.209223
H124	H	-0.000064	-0.846054	0.289796
H125	H	0.333270	-0.512720	0.623129
H126	H	0.666603	-0.179387	0.956462
C127	C	-0.557971	-1.074137	-0.021300
C128	C	-0.224638	-0.740804	0.312034
C129	C	0.108695	-0.407471	0.645367
N130	N	-0.634507	-1.125011	0.029670
N131	N	-0.301174	-0.791678	0.363003
N132	N	0.032159	-0.458345	0.696336
C133	C	-0.000070	-0.552285	-0.274176
C134	C	0.333263	-0.218951	0.059157
C135	C	0.666597	0.114382	0.392490
N136	N	-0.000077	-0.579969	-0.337569
N137	N	0.333257	-0.246636	-0.004236
N138	N	0.666590	0.086697	0.329098
H139	H	-0.000129	-0.421461	0.025292
H140	H	0.333204	-0.088128	0.358626
H141	H	0.666537	0.245206	0.691959
C142	C	-0.000086	-0.370187	-0.270973
C143	C	0.333247	-0.036853	0.062361
C144	C	0.666581	0.296480	0.395694
N145	N	-0.000092	-0.326035	-0.333103
N146	N	0.333241	0.007298	0.000231
N147	N	0.666574	0.340632	0.333564
H148	H	-0.000054	-0.843298	0.447130
H149	H	0.333279	-0.509965	0.780463
H150	H	0.666613	-0.176631	1.113796
