data_functionalizedCrystal
_audit_creation_method	'MofGen! by Chris Wilmer'
_symmetry_space_group_name_H-M	'P1'
_symmetry_Int_Tables_number	1
_symmetry_cell_setting	triclinic
loop_
_symmetry_equiv_pos_as_xyz
  x,y,z
_cell_length_a	18.215407
_cell_length_b	18.215399
_cell_length_c	12.759400
_cell_angle_alpha	89.975454
_cell_angle_beta	90.012128
_cell_angle_gamma	89.982632
loop_
_atom_site_label
_atom_site_type_symbol
_atom_site_fract_x
_atom_site_fract_y
_atom_site_fract_z
Zn1	Zn	1.125124	-0.416085	-0.418349
Zn2	Zn	1.458457	-0.082752	-0.085015
Zn3	Zn	1.791791	0.250582	0.248318
Zn4	Zn	1.125054	-0.293026	-0.594046
Zn5	Zn	1.458388	0.040307	-0.260713
Zn6	Zn	1.791721	0.373641	0.072621
Zn7	Zn	1.002057	-0.293038	-0.418374
Zn8	Zn	1.335390	0.040296	-0.085041
Zn9	Zn	1.668723	0.373629	0.248293
Zn10	Zn	1.002044	-0.416056	-0.593978
Zn11	Zn	1.335378	-0.082723	-0.260645
Zn12	Zn	1.668711	0.250611	0.072688
O13	O	1.063570	-0.354551	-0.506187
O14	O	1.396903	-0.021218	-0.172853
O15	O	1.730237	0.312116	0.160480
O16	O	1.228099	-0.399768	-0.441673
O17	O	1.561432	-0.066435	-0.108340
O18	O	1.894766	0.266899	0.224993
O19	O	1.108714	-0.190043	-0.570782
O20	O	1.442048	0.143290	-0.237448
O21	O	1.775381	0.476624	0.095885
O22	O	1.018416	-0.309377	-0.271350
O23	O	1.351749	0.023956	0.061984
O24	O	1.685083	0.357290	0.395317
O25	O	1.228048	-0.309357	-0.570757
O26	O	1.561381	0.023976	-0.237424
O27	O	1.894715	0.357310	0.095909
O28	O	1.108833	-0.399779	-0.271331
O29	O	1.442167	-0.066446	0.062002
O30	O	1.775500	0.266887	0.395336
O31	O	1.018349	-0.190052	-0.441716
O32	O	1.351682	0.143282	-0.108383
O33	O	1.685015	0.476615	0.224951
O34	O	0.899071	-0.309349	-0.441650
O35	O	1.232404	0.023984	-0.108317
O36	O	1.565737	0.357318	0.225016
O37	O	1.018395	-0.519044	-0.570642
O38	O	1.351729	-0.185711	-0.237309
O39	O	1.685062	0.147622	0.096025
O40	O	0.899062	-0.399730	-0.570666
O41	O	1.232395	-0.066397	-0.237333
O42	O	1.565728	0.266936	0.096000
O43	O	1.108821	-0.519065	-0.441608
O44	O	1.442155	-0.185732	-0.108274
O45	O	1.775488	0.147601	0.225059
O46	O	1.108703	-0.309329	-0.741058
O47	O	1.442036	0.024004	-0.407725
O48	O	1.775369	0.357337	-0.074391
O49	O	1.018328	-0.399719	-0.741008
O50	O	1.351661	-0.066386	-0.407675
O51	O	1.684994	0.266948	-0.074342
C52	C	0.872364	-0.354538	-0.506155
C53	C	1.205697	-0.021205	-0.172821
C54	C	1.539030	0.312128	0.160512
C55	C	0.790565	-0.354550	-0.506166
C56	C	1.123898	-0.021217	-0.172833
C57	C	1.457231	0.312117	0.160501
C58	C	0.602396	-0.401701	-0.439090
C59	C	0.935730	-0.068368	-0.105757
C60	C	1.269063	0.264965	0.227576
C61	C	0.525538	-0.401704	-0.439099
C62	C	0.858871	-0.068371	-0.105766
C63	C	1.192204	0.264963	0.227567
C64	C	0.525495	-0.307414	-0.573313
C65	C	0.858829	0.025920	-0.239979
C66	C	1.192162	0.359253	0.093354
C67	C	0.602353	-0.307408	-0.573298
C68	C	0.935686	0.025925	-0.239964
C69	C	1.269019	0.359259	0.093369
C70	C	0.640801	-0.354556	-0.506188
C71	C	0.974135	-0.021223	-0.172855
C72	C	1.307468	0.312111	0.160479
C73	C	0.487085	-0.354564	-0.506212
C74	C	0.820419	-0.021231	-0.172879
C75	C	1.153752	0.312102	0.160455
C76	C	0.403752	-0.354567	-0.506222
C77	C	0.737085	-0.021233	-0.172889
C78	C	1.070418	0.312100	0.160444
C79	C	0.724140	-0.354553	-0.506176
C80	C	1.057474	-0.021220	-0.172843
C81	C	1.390807	0.312114	0.160491
C82	C	1.063615	-0.546504	-0.506114
C83	C	1.396948	-0.213171	-0.172781
C84	C	1.730281	0.120163	0.160552
C85	C	1.063634	-0.628303	-0.506084
C86	C	1.396967	-0.294970	-0.172750
C87	C	1.730300	0.038364	0.160583
C88	C	1.110736	-0.816509	-0.438832
C89	C	1.444069	-0.483176	-0.105499
C90	C	1.777402	-0.149843	0.227834
C91	C	1.110744	-0.893368	-0.438802
C92	C	1.444078	-0.560035	-0.105469
C93	C	1.777411	-0.226701	0.227865
C94	C	1.016584	-0.893335	-0.573172
C95	C	1.349917	-0.560001	-0.239839
C96	C	1.683251	-0.226668	0.093495
C97	C	1.016572	-0.816477	-0.573197
C98	C	1.349905	-0.483144	-0.239863
C99	C	1.683239	-0.149811	0.093470
C100	C	1.063652	-0.778067	-0.506028
C101	C	1.396985	-0.444733	-0.172695
C102	C	1.730319	-0.111400	0.160638
C103	C	1.063673	-0.931783	-0.505973
C104	C	1.397006	-0.598449	-0.172640
C105	C	1.730339	-0.265116	0.160693
C106	C	1.063682	-1.015116	-0.505941
C107	C	1.397015	-0.681783	-0.172607
C108	C	1.730349	-0.348450	0.160726
C109	C	1.063642	-0.694728	-0.506059
C110	C	1.396975	-0.361394	-0.172726
C111	C	1.730309	-0.028061	0.160607
C112	C	1.255523	-0.354564	-0.506220
C113	C	1.588856	-0.021231	-0.172887
C114	C	1.922189	0.312102	0.160447
C115	C	1.337322	-0.354570	-0.506234
C116	C	1.670655	-0.021237	-0.172901
C117	C	2.003988	0.312097	0.160433
C118	C	1.063526	-0.354536	-0.779154
C119	C	1.396860	-0.021202	-0.445821
C120	C	1.730193	0.312131	-0.112488
C121	C	1.063575	-0.354554	-0.895931
C122	C	1.396908	-0.021220	-0.562597
C123	C	1.730242	0.312113	-0.229264
C124	C	1.063568	-0.163345	-0.506183
C125	C	1.396901	0.169988	-0.172850
C126	C	1.730234	0.503322	0.160484
C127	C	1.063691	-0.081546	-0.505918
C128	C	1.397024	0.251787	-0.172585
C129	C	1.730358	0.585120	0.160749
C130	C	1.110685	-0.307540	-0.950784
C131	C	1.444019	0.025793	-0.617450
C132	C	1.777352	0.359127	-0.284117
C133	C	1.110730	-0.307563	-1.060508
C134	C	1.444064	0.025771	-0.727175
C135	C	1.777397	0.359104	-0.393841
C136	C	1.016549	-0.401615	-1.060516
C137	C	1.349882	-0.068282	-0.727183
C138	C	1.683215	0.265052	-0.393849
C139	C	1.016508	-0.401596	-0.950794
C140	C	1.349841	-0.068262	-0.617461
C141	C	1.683174	0.265071	-0.284127
C142	C	1.165058	-0.253237	-0.950780
C143	C	1.498392	0.080096	-0.617447
C144	C	1.831725	0.413430	-0.284113
C145	C	1.165104	-0.253260	-1.060504
C146	C	1.498437	0.080074	-0.727171
C147	C	1.831770	0.413407	-0.393837
C148	C	1.063634	-0.354583	-0.232154
C149	C	1.396967	-0.021249	0.101180
C150	C	1.730300	0.312084	0.434513
C151	C	1.063661	-0.354596	-0.115377
C152	C	1.396994	-0.021263	0.217956
C153	C	1.730328	0.312071	0.551290
H154	H	0.494272	-0.440093	-0.384460
H155	H	0.827605	-0.106760	-0.051127
H156	H	1.160939	0.226573	0.282207
O157	O	0.643866	-0.452541	-0.366694
O158	O	0.977199	-0.119208	-0.033360
O159	O	1.310533	0.214125	0.299973
H160	H	0.629131	-0.510281	-0.384804
H161	H	0.962464	-0.176948	-0.051471
H162	H	1.295798	0.156386	0.281862
O163	O	0.965782	-0.775012	-0.645676
O164	O	1.299116	-0.441678	-0.312342
O165	O	1.632449	-0.108345	0.020991
H166	H	0.973678	-0.715115	-0.634397
H167	H	1.307011	-0.381782	-0.301063
H168	H	1.640345	-0.048448	0.032270
H169	H	0.494181	-0.269028	-0.627952
H170	H	0.827514	0.064305	-0.294619
H171	H	1.160848	0.397639	0.038715
H172	H	0.633623	-0.269013	-0.627938
H173	H	0.966956	0.064321	-0.294604
H174	H	1.300289	0.397654	0.038729
O175	O	1.161506	-0.775077	-0.366383
O176	O	1.494839	-0.441743	-0.033050
O177	O	1.828173	-0.108410	0.300284
H178	H	1.194242	-0.814724	-0.319646
H179	H	1.527576	-0.481391	0.013687
H180	H	1.860909	-0.148057	0.347021
H181	H	0.978229	-0.439916	-1.105199
H182	H	1.311562	-0.106582	-0.771866
H183	H	1.644895	0.226751	-0.438533
O184	O	1.161531	-0.934834	-0.366333
O185	O	1.494864	-0.601501	-0.033000
O186	O	1.828198	-0.268167	0.300334
H187	H	1.194268	-0.895210	-0.319640
H188	H	1.527602	-0.561877	0.013693
H189	H	1.860935	-0.228543	0.347026
H190	H	0.978255	-0.924618	-0.627860
H191	H	1.311588	-0.591285	-0.294527
H192	H	1.644922	-0.257951	0.038806
O193	O	0.965688	-0.452295	-0.891626
O194	O	1.299022	-0.118961	-0.558292
O195	O	1.632355	0.214372	-0.224959
H196	H	0.932959	-0.484997	-0.948212
H197	H	1.266292	-0.151664	-0.614879
H198	H	1.599626	0.181669	-0.281545
O199	O	1.240527	-0.273515	-0.911222
O200	O	1.573860	0.059818	-0.577889
O201	O	1.907194	0.393151	-0.244556
H202	H	1.277506	-0.283467	-0.978873
H203	H	1.610840	0.049866	-0.645540
H204	H	1.944173	0.383200	-0.312206
H205	H	1.144659	-0.199072	-0.916822
H206	H	1.477992	0.134261	-0.583489
H207	H	1.811326	0.467595	-0.250155
H208	H	1.219252	-0.273723	-1.094456
H209	H	1.552585	0.059611	-0.761122
H210	H	1.885919	0.392944	-0.427789
H211	H	1.149879	-0.196255	-1.090355
H212	H	1.483212	0.137079	-0.757022
H213	H	1.816546	0.470412	-0.423689
