data_functionalizedCrystal
_audit_creation_method	'MofGen! by Chris Wilmer'
_symmetry_space_group_name_H-M	'P1'
_symmetry_Int_Tables_number	1
_symmetry_cell_setting	triclinic
loop_
_symmetry_equiv_pos_as_xyz
  x,y,z
_cell_length_a	19.188879
_cell_length_b	19.188925
_cell_length_c	17.666332
_cell_angle_alpha	90.000135
_cell_angle_beta	89.982473
_cell_angle_gamma	96.866687
loop_
_atom_site_label
_atom_site_type_symbol
_atom_site_fract_x
_atom_site_fract_y
_atom_site_fract_z
O1	O	-0.087155	0.926126	0.062981
O2	O	0.162845	1.176126	0.312981
O3	O	0.412845	1.426126	0.562981
O4	O	0.662845	1.676126	0.812981
O5	O	-0.098894	0.722812	0.062981
O6	O	0.151106	0.972812	0.312981
O7	O	0.401106	1.222812	0.562981
O8	O	0.651106	1.472812	0.812981
O9	O	0.008634	0.830354	0.062957
O10	O	0.258634	1.080354	0.312957
O11	O	0.508634	1.330354	0.562957
O12	O	0.758634	1.580354	0.812957
O13	O	-0.194683	0.818583	0.063005
O14	O	0.055317	1.068583	0.313005
O15	O	0.305317	1.318583	0.563005
O16	O	0.555317	1.568583	0.813005
O17	O	0.008644	0.830357	-0.062940
O18	O	0.258644	1.080357	0.187060
O19	O	0.508644	1.330357	0.437060
O20	O	0.758644	1.580357	0.687060
O21	O	-0.098883	0.722814	-0.062916
O22	O	0.151117	0.972814	0.187084
O23	O	0.401117	1.222814	0.437084
O24	O	0.651117	1.472814	0.687084
O25	O	-0.087145	0.926128	-0.062916
O26	O	0.162855	1.176128	0.187084
O27	O	0.412855	1.426128	0.437084
O28	O	0.662855	1.676128	0.687084
Cu29	Cu	-0.093013	0.824471	-0.074411
Cu30	Cu	0.156987	1.074471	0.175589
Cu31	Cu	0.406987	1.324471	0.425589
Cu32	Cu	0.656987	1.574471	0.675589
Cu33	Cu	-0.093026	0.824468	0.074476
Cu34	Cu	0.156974	1.074468	0.324476
Cu35	Cu	0.406974	1.324468	0.574476
Cu36	Cu	0.656974	1.574468	0.824476
O37	O	-0.194672	0.818585	-0.062892
O38	O	0.055328	1.068585	0.187108
O39	O	0.305328	1.318585	0.437108
O40	O	0.555328	1.568585	0.687108
C41	C	-0.098509	0.696802	0.000032
C42	C	0.151491	0.946802	0.250032
C43	C	0.401491	1.196802	0.500032
C44	C	0.651491	1.446802	0.750032
C45	C	-0.097370	0.619297	0.000031
C46	C	0.152630	0.869297	0.250031
C47	C	0.402630	1.119297	0.500031
C48	C	0.652630	1.369297	0.750031
C49	C	-0.152835	0.057517	0.000046
C50	C	0.097165	0.307517	0.250046
C51	C	0.347165	0.557517	0.500046
C52	C	0.597165	0.807517	0.750046
C53	C	-0.153912	0.130340	0.000050
C54	C	0.096088	0.380340	0.250050
C55	C	0.346088	0.630340	0.500050
C56	C	0.596088	0.880340	0.750050
C57	C	-0.090818	0.175286	0.000034
C58	C	0.159182	0.425286	0.250034
C59	C	0.409182	0.675286	0.500034
C60	C	0.659182	0.925286	0.750034
C61	C	-0.026643	0.147403	0.000033
C62	C	0.223357	0.397403	0.250033
C63	C	0.473357	0.647403	0.500033
C64	C	0.723357	0.897403	0.750033
C65	C	-0.025568	0.074582	0.000036
C66	C	0.224432	0.324582	0.250036
C67	C	0.474432	0.574582	0.500036
C68	C	0.724432	0.824582	0.750036
N69	N	-0.045137	0.295972	-0.042833
N70	N	0.204863	0.545972	0.207167
N71	N	0.454863	0.795972	0.457167
N72	N	0.704863	1.045972	0.707167
N73	N	-0.046162	0.365149	-0.042837
N74	N	0.203838	0.615149	0.207163
N75	N	0.453838	0.865149	0.457163
N76	N	0.703838	1.115149	0.707163
C77	C	-0.094052	0.394694	0.000026
C78	C	0.155948	0.644694	0.250026
C79	C	0.405948	0.894694	0.500026
C80	C	0.655948	1.144694	0.750026
N81	N	-0.140889	0.352448	0.042885
N82	N	0.109111	0.602448	0.292885
N83	N	0.359111	0.852448	0.542885
N84	N	0.609111	1.102448	0.792885
N85	N	-0.139865	0.283264	0.042886
N86	N	0.110135	0.533264	0.292886
N87	N	0.360135	0.783264	0.542886
N88	N	0.610135	1.033264	0.792886
C89	C	-0.091976	0.254250	0.000031
C90	C	0.158024	0.504250	0.250031
C91	C	0.408024	0.754250	0.500031
C92	C	0.658024	1.004250	0.750031
C93	C	-0.159390	0.501532	0.000037
C94	C	0.090610	0.751532	0.250037
C95	C	0.340610	1.001532	0.500037
C96	C	0.590610	1.251532	0.750037
C97	C	-0.160464	0.574356	0.000046
C98	C	0.089536	0.824356	0.250046
C99	C	0.339536	1.074356	0.500046
C100	C	0.589536	1.324356	0.750046
C101	C	-0.033194	0.591419	0.000021
C102	C	0.216806	0.841419	0.250021
C103	C	0.466806	1.091419	0.500021
C104	C	0.716806	1.341419	0.750021
C105	C	-0.032122	0.518595	0.000020
C106	C	0.217878	0.768595	0.250020
C107	C	0.467878	1.018595	0.500020
C108	C	0.717878	1.268595	0.750020
C109	C	-0.095222	0.473656	0.000024
C110	C	0.154778	0.723656	0.250024
C111	C	0.404778	0.973656	0.500024
C112	C	0.654778	1.223656	0.750024
C113	C	-0.220689	0.818959	0.000062
C114	C	0.029311	1.068959	0.250062
C115	C	0.279311	1.318959	0.500062
C116	C	0.529311	1.568959	0.750062
C117	C	-0.298195	0.820086	0.000081
C118	C	-0.048195	1.070086	0.250081
C119	C	0.201805	1.320086	0.500081
C120	C	0.451805	1.570086	0.750081
C121	C	-0.334572	0.820634	-0.068549
C122	C	-0.084572	1.070634	0.181451
C123	C	0.165428	1.320634	0.431451
C124	C	0.415428	1.570634	0.681451
C125	C	-0.407395	0.821712	-0.068563
C126	C	-0.157395	1.071712	0.181437
C127	C	0.092605	1.321712	0.431437
C128	C	0.342605	1.571712	0.681437
C129	C	-0.443837	0.822255	0.000058
C130	C	-0.193837	1.072255	0.250058
C131	C	0.056163	1.322255	0.500058
C132	C	0.306163	1.572255	0.750058
C133	C	-0.407452	0.821703	0.068698
C134	C	-0.157452	1.071703	0.318698
C135	C	0.092548	1.321703	0.568698
C136	C	0.342548	1.571703	0.818698
C137	C	-0.334631	0.820619	0.068709
C138	C	-0.084631	1.070619	0.318709
C139	C	0.165369	1.320619	0.568709
C140	C	0.415369	1.570619	0.818709
N141	N	-0.552860	0.863691	0.051121
N142	N	-0.302860	1.113691	0.301121
N143	N	-0.052860	1.363691	0.551121
N144	N	0.197140	1.613691	0.801121
N145	N	-0.622037	0.864723	0.051106
N146	N	-0.372037	1.114723	0.301106
N147	N	-0.122037	1.364723	0.551106
N148	N	0.127963	1.614723	0.801106
C149	C	-0.663241	0.825522	0.000029
C150	C	-0.413241	1.075522	0.250029
C151	C	-0.163241	1.325522	0.500029
C152	C	0.086759	1.575522	0.750029
N153	N	-0.632656	0.785259	-0.051044
N154	N	-0.382656	1.035259	0.198956
N155	N	-0.132656	1.285259	0.448956
N156	N	0.117344	1.535259	0.698956
N157	N	-0.563472	0.784230	-0.051031
N158	N	-0.313472	1.034230	0.198969
N159	N	-0.063472	1.284230	0.448969
N160	N	0.186528	1.534230	0.698969
C161	C	-0.522799	0.823431	0.000054
C162	C	-0.272799	1.073431	0.250054
C163	C	-0.022799	1.323431	0.500054
C164	C	0.227201	1.573431	0.750054
C165	C	-0.778581	0.827238	-0.068620
C166	C	-0.528581	1.077238	0.181380
C167	C	-0.278581	1.327238	0.431380
C168	C	-0.028581	1.577238	0.681380
C169	C	-0.851406	0.828311	-0.068631
C170	C	-0.601406	1.078311	0.181369
C171	C	-0.351406	1.328311	0.431369
C172	C	-0.101406	1.578311	0.681369
C173	C	-0.851461	0.828310	0.068631
C174	C	-0.601461	1.078310	0.318631
C175	C	-0.351461	1.328310	0.568631
C176	C	-0.101461	1.578310	0.818631
C177	C	-0.778638	0.827229	0.068640
C178	C	-0.528638	1.077229	0.318640
C179	C	-0.278638	1.327229	0.568640
C180	C	-0.028638	1.577229	0.818640
C181	C	-0.742202	0.826697	0.000012
C182	C	-0.492202	1.076697	0.250012
C183	C	-0.242202	1.326697	0.500012
C184	C	0.007798	1.576697	0.750012
C185	C	0.034651	0.829980	0.000004
C186	C	0.284651	1.079980	0.250004
C187	C	0.534651	1.329980	0.500004
C188	C	0.784651	1.579980	0.750004
C189	C	0.112157	0.828854	-0.000009
C190	C	0.362157	1.078854	0.249991
C191	C	0.612157	1.328854	0.499991
C192	C	0.862157	1.578854	0.749991
C193	C	-0.087529	0.952138	0.000034
C194	C	0.162471	1.202138	0.250034
C195	C	0.412471	1.452138	0.500034
C196	C	0.662471	1.702138	0.750034
C197	C	-0.088669	1.029642	0.000041
C198	C	0.161331	1.279642	0.250041
C199	C	0.411331	1.529642	0.500041
C200	C	0.661331	1.779642	0.750041
N201	N	-0.093029	0.824467	0.179196
N202	N	0.156971	1.074467	0.429196
N203	N	0.406971	1.324467	0.679196
N204	N	0.656971	1.574467	0.929196
N205	N	-0.093003	0.824478	-0.179131
N206	N	0.156997	1.074478	0.070869
N207	N	0.406997	1.324478	0.320869
N208	N	0.656997	1.574478	0.570869
C209	C	-0.045509	0.872171	0.218795
C210	C	0.204491	1.122171	0.468795
C211	C	0.454491	1.372171	0.718795
C212	C	0.704491	1.622171	0.968795
C213	C	-0.045508	0.872177	0.298043
C214	C	0.204492	1.122177	0.548043
C215	C	0.454492	1.372177	0.798043
C216	C	0.704492	1.622177	1.048043
C217	C	-0.093020	0.824467	0.337688
C218	C	0.156980	1.074467	0.587688
C219	C	0.406980	1.324467	0.837688
C220	C	0.656980	1.574467	1.087688
C221	C	-0.140550	0.776759	0.298079
C222	C	0.109450	1.026759	0.548079
C223	C	0.359450	1.276759	0.798079
C224	C	0.609450	1.526759	1.048079
C225	C	-0.140554	0.776759	0.218833
C226	C	0.109446	1.026759	0.468833
C227	C	0.359446	1.276759	0.718833
C228	C	0.609446	1.526759	0.968833
N229	N	-0.101948	0.762658	0.462115
N230	N	0.148052	1.012658	0.712115
N231	N	0.398052	1.262658	0.962115
N232	N	0.648052	1.512658	1.212115
N233	N	-0.101940	0.762661	0.537395
N234	N	0.148060	1.012661	0.787395
N235	N	0.398060	1.262661	1.037395
N236	N	0.648060	1.512661	1.287395
C237	C	-0.093010	0.824466	0.576452
C238	C	0.156990	1.074466	0.826452
C239	C	0.406990	1.324466	1.076452
C240	C	0.656990	1.574466	1.326452
N241	N	-0.084076	0.886271	0.537384
N242	N	0.165924	1.136271	0.787384
N243	N	0.415924	1.386271	1.037384
N244	N	0.665924	1.636271	1.287384
N245	N	-0.084081	0.886268	0.462097
N246	N	0.165919	1.136268	0.712097
N247	N	0.415919	1.386268	0.962097
N248	N	0.665919	1.636268	1.212097
C249	C	-0.093021	0.824462	0.423617
C250	C	0.156979	1.074462	0.673617
C251	C	0.406979	1.324462	0.923617
C252	C	0.656979	1.574462	1.173617
C253	C	-0.045486	0.872181	0.701980
C254	C	0.204514	1.122181	0.951980
C255	C	0.454514	1.372181	1.201980
C256	C	0.704514	1.622181	1.451980
C257	C	-0.045490	0.872188	0.781229
C258	C	0.204510	1.122188	1.031229
C259	C	0.454510	1.372188	1.281229
C260	C	0.704510	1.622188	1.531229
C261	C	-0.140528	0.776764	0.781264
C262	C	0.109472	1.026764	1.031264
C263	C	0.359472	1.276764	1.281264
C264	C	0.609472	1.526764	1.531264
C265	C	-0.140528	0.776763	0.702017
C266	C	0.109472	1.026763	0.952017
C267	C	0.359472	1.276763	1.202017
C268	C	0.609472	1.526763	1.452017
C269	C	-0.093003	0.824471	0.662380
C270	C	0.156997	1.074471	0.912380
C271	C	0.406997	1.324471	1.162380
C272	C	0.656997	1.574471	1.412380
H273	H	-0.210770	0.464940	0.000042
H274	H	0.039230	0.714940	0.250042
H275	H	0.289230	0.964940	0.500042
H276	H	0.539230	1.214940	0.750042
H277	H	-0.006810	0.911026	0.330290
H278	H	0.243190	1.161026	0.580290
H279	H	0.493190	1.411026	0.830290
H280	H	0.743190	1.661026	1.080290
H281	H	-0.179252	0.737911	0.186591
H282	H	0.070748	0.987911	0.436591
H283	H	0.320748	1.237911	0.686591
H284	H	0.570748	1.487911	0.936591
F285	F	-0.191118	0.725984	0.340273
F286	F	0.058882	0.975984	0.590273
F287	F	0.308882	1.225984	0.840273
F288	F	0.558882	1.475984	1.090273
H289	H	-0.748914	0.826798	-0.124502
H290	H	-0.498914	1.076798	0.125498
H291	H	-0.248914	1.326798	0.375498
H292	H	0.001086	1.576798	0.625498
F293	F	0.033956	0.639249	0.000014
F294	F	0.283956	0.889249	0.250014
F295	F	0.533956	1.139249	0.500014
F296	F	0.783956	1.389249	0.750014
F297	F	-0.219993	0.009693	0.000058
F298	F	0.030007	0.259693	0.250058
F299	F	0.280007	0.509693	0.500058
F300	F	0.530007	0.759693	0.750058
H301	H	-0.437020	0.822145	-0.124451
H302	H	-0.187020	1.072145	0.125549
H303	H	0.062980	1.322145	0.375549
H304	H	0.312980	1.572145	0.625549
F305	F	0.005091	0.922959	0.659795
F306	F	0.255091	1.172959	0.909795
F307	F	0.505091	1.422959	1.159795
F308	F	0.755091	1.672959	1.409795
H309	H	-0.749019	0.826788	0.124526
H310	H	-0.499019	1.076788	0.374526
H311	H	-0.249019	1.326788	0.624526
H312	H	0.000981	1.576788	0.874526
F313	F	-0.191099	0.725991	0.823454
F314	F	0.058901	0.975991	1.073454
F315	F	0.308901	1.225991	1.323454
F316	F	0.558901	1.475991	1.573454
F317	F	-0.890122	0.828883	-0.141681
F318	F	-0.640122	1.078883	0.108319
F319	F	-0.390122	1.328883	0.358319
F320	F	-0.140122	1.578883	0.608319
H321	H	-0.881132	0.828744	0.124504
H322	H	-0.631132	1.078744	0.374504
H323	H	-0.381132	1.328744	0.624504
H324	H	-0.131132	1.578744	0.874504
F325	F	0.005086	0.922968	0.823376
F326	F	0.255086	1.172968	1.073376
F327	F	0.505086	1.422968	1.323376
F328	F	0.755086	1.672968	1.573376
F329	F	-0.446236	0.822284	0.141729
F330	F	-0.196236	1.072284	0.391729
F331	F	0.053764	1.322284	0.641729
F332	F	0.303764	1.572284	0.891729
H333	H	-0.179221	0.737914	0.669773
H334	H	0.070779	0.987914	0.919773
H335	H	0.320779	1.237914	1.169773
H336	H	0.570779	1.487914	1.419773
H337	H	-0.006813	0.911019	0.186525
H338	H	0.243187	1.161019	0.436525
H339	H	0.493187	1.411019	0.686525
H340	H	0.743187	1.661019	0.936525
H341	H	-0.304911	0.820200	-0.124432
H342	H	-0.054911	1.070200	0.125568
H343	H	0.195089	1.320200	0.375568
H344	H	0.445089	1.570200	0.625568
F345	F	0.036174	0.488928	0.000016
F346	F	0.286174	0.738928	0.250016
F347	F	0.536174	0.988928	0.500016
F348	F	0.786174	1.238928	0.750016
F349	F	-0.222209	0.160013	0.000055
F350	F	0.027791	0.410013	0.250055
F351	F	0.277791	0.660013	0.500055
F352	F	0.527791	0.910013	0.750055
H353	H	0.024728	0.184003	0.000022
H354	H	0.274728	0.434003	0.250022
H355	H	0.524728	0.684003	0.500022
H356	H	0.774728	0.934003	0.750022
F357	F	-0.295915	0.820036	0.141758
F358	F	-0.045915	1.070036	0.391758
F359	F	0.204085	1.320036	0.641758
F360	F	0.454085	1.570036	0.891758
H361	H	0.026685	0.051888	0.000032
H362	H	0.276685	0.301888	0.250032
H363	H	0.526685	0.551888	0.500032
H364	H	0.776685	0.801888	0.750032
H365	H	-0.212718	0.597049	0.000057
H366	H	0.037282	0.847049	0.250057
H367	H	0.287282	1.097049	0.500057
H368	H	0.537282	1.347049	0.750057
