data_functionalizedCrystal
_audit_creation_method	'MofGen! by Chris Wilmer'
_symmetry_space_group_name_H-M	'P1'
_symmetry_Int_Tables_number	1
_symmetry_cell_setting	triclinic
loop_
_symmetry_equiv_pos_as_xyz
  x,y,z
_cell_length_a	13.033293
_cell_length_b	12.594516
_cell_length_c	13.032268
_cell_angle_alpha	82.847564
_cell_angle_beta	90.920818
_cell_angle_gamma	97.186278
loop_
_atom_site_label
_atom_site_type_symbol
_atom_site_fract_x
_atom_site_fract_y
_atom_site_fract_z
Zn1	Zn	1.498468	-0.331146	0.781505
Zn2	Zn	1.520214	-0.484104	0.609542
Zn3	Zn	1.348328	-0.325525	0.587680
Zn4	Zn	1.326465	-0.528475	0.759585
O5	O	1.423369	-0.417312	0.684578
O6	O	1.645271	-0.335219	0.777017
O7	O	1.515663	-0.442147	0.462732
O8	O	1.368294	-0.177321	0.613416
O9	O	1.661248	-0.447597	0.650676
O10	O	1.478601	-0.181451	0.755818
O11	O	1.389380	-0.325639	0.446670
O12	O	1.201510	-0.368664	0.592161
O13	O	1.331032	-0.523220	0.906403
O14	O	1.185447	-0.517770	0.718459
O15	O	1.457401	-0.378243	0.922507
O16	O	1.494464	-0.638939	0.629422
O17	O	1.352117	-0.671538	0.739658
C18	C	1.156162	-0.447423	0.650560
C19	C	1.041846	-0.460333	0.636031
C20	C	0.982964	-0.410601	0.692161
C21	C	0.864813	-0.423944	0.677146
C22	C	1.423303	-0.693860	0.684560
C23	C	1.423364	-0.812162	0.684598
C24	C	1.345942	-0.899178	0.744506
C25	C	1.332808	-0.959192	0.647483
C26	C	1.436590	-0.962939	0.781650
C27	C	1.410187	-0.870616	0.587518
C28	C	1.514005	-0.874361	0.721754
C29	C	1.500915	-0.934329	0.624670
C30	C	1.691619	-0.387085	0.718730
C31	C	1.805932	-0.374205	0.733284
C32	C	1.389352	-0.456308	0.952813
C33	C	1.374856	-0.472926	1.067118
C34	C	1.423461	-0.139686	0.684623
C35	C	1.423500	-0.021378	0.684642
C36	C	1.457313	-0.378385	0.417395
C37	C	1.472008	-0.361445	0.303115
C38	C	1.430919	-0.408603	1.126047
C39	C	1.415938	-0.425777	1.244188
H40	H	0.827758	-0.476400	0.617969
H41	H	0.842985	-0.321739	0.792454
O42	O	1.304443	-0.553775	1.111434
C43	C	1.225241	-0.644543	1.269579
C44	C	1.305036	-0.552952	1.219532
H45	H	1.225678	-0.643894	1.356982
H46	H	1.245922	-0.725328	1.250882
H47	H	1.144987	-0.632166	1.237905
H48	H	1.385318	-0.565227	1.251177
H49	H	1.284266	-0.472201	1.238224
O50	O	1.542476	-0.280636	1.258812
C51	C	1.621556	-0.189748	1.100654
C52	C	1.541747	-0.281329	1.150696
H53	H	1.620978	-0.190264	1.013233
H54	H	1.701870	-0.202095	1.132182
H55	H	1.600850	-0.109029	1.119505
H56	H	1.562356	-0.362088	1.131865
H57	H	1.461455	-0.268887	1.119166
H58	H	1.356839	-0.493559	1.281195
H59	H	1.004788	-0.512786	0.576858
H60	H	1.020023	-0.358142	0.751328
O61	O	1.241428	-1.003521	0.610149
C62	C	1.089475	-1.132761	0.643645
C63	C	1.192952	-1.082675	0.686035
H64	H	1.050242	-1.196751	0.704986
H65	H	1.104338	-1.171425	0.571593
H66	H	1.037203	-1.067121	0.622991
H67	H	1.245276	-1.148251	0.706750
H68	H	1.178011	-1.043984	0.758050
H69	H	1.398965	-0.830553	0.505427
O70	O	1.267775	-0.880195	0.804967
C71	C	1.192274	-0.907496	0.975246
C72	C	1.280841	-0.929098	0.906894
H73	H	1.202819	-0.947004	1.057672
H74	H	1.115084	-0.942579	0.943478
H75	H	1.193389	-0.816836	0.975198
H76	H	1.279824	-1.019739	0.906913
H77	H	1.357991	-0.893943	0.938685
H78	H	1.590572	-0.837317	0.753192
O79	O	1.579005	-0.953144	0.564024
C80	C	1.653362	-0.926912	0.393269
C81	C	1.564860	-0.905545	0.461831
H82	H	1.641968	-0.888420	0.310637
H83	H	1.653275	-1.017554	0.394176
H84	H	1.730412	-0.890516	0.424266
H85	H	1.487765	-0.941874	0.430884
H86	H	1.565038	-0.814892	0.460921
O87	O	1.449828	-1.011074	0.879484
C88	C	1.465770	-1.177083	0.988961
C89	C	1.450760	-1.122716	0.878118
H90	H	1.466550	-1.267350	0.987891
H91	H	1.399621	-1.163267	1.039942
H92	H	1.542332	-1.140854	1.021106
H93	H	1.374235	-1.158910	0.845880
H94	H	1.516966	-1.136524	0.827208
H95	H	1.490003	-0.340816	1.089035
