data_functionalizedCrystal
_audit_creation_method	'MofGen! by Chris Wilmer'
_symmetry_space_group_name_H-M	'P1'
_symmetry_Int_Tables_number	1
_symmetry_cell_setting	triclinic
loop_
_symmetry_equiv_pos_as_xyz
  x,y,z
_cell_length_a	6.817900
_cell_length_b	19.551786
_cell_length_c	12.200875
_cell_angle_alpha	94.911012
_cell_angle_beta	107.143593
_cell_angle_gamma	101.662645
loop_
_atom_site_label
_atom_site_type_symbol
_atom_site_fract_x
_atom_site_fract_y
_atom_site_fract_z
V1	V	-4.059379	-0.096833	-0.358194
O2	O	-4.055454	0.004490	-0.350828
O3	O	-4.001841	-0.191847	-0.356272
O4	O	-4.029233	-0.095416	-0.514175
O5	O	-4.027873	-0.092609	-0.191831
V6	V	-4.541825	-0.084705	-0.338232
O7	O	-4.322998	-0.123437	-0.401983
O8	O	-4.728403	-0.058102	-0.294443
O9	O	-4.376156	0.010308	-0.340155
O10	O	-4.663147	-0.186029	-0.345599
O11	O	-4.690729	-0.088930	-0.504595
O12	O	-4.348765	-0.086123	-0.182252
C13	C	-3.844029	-0.215007	-0.350757
C14	C	-3.878393	-0.292683	-0.350225
C15	C	-4.076422	-0.842391	-0.241415
C16	C	-4.044112	-0.769405	-0.241904
C17	C	-4.077610	-0.742893	-0.347191
C18	C	-4.143372	-0.789372	-0.451995
C19	C	-4.175659	-0.862356	-0.451503
C20	C	-4.182083	-0.637269	-0.432834
C21	C	-4.149807	-0.564286	-0.433322
C22	C	-3.978019	-0.517787	-0.348713
C23	C	-3.838529	-0.544278	-0.263597
C24	C	-3.870816	-0.617261	-0.263104
C25	C	-4.042605	-0.663755	-0.347736
C26	C	-3.877216	-0.392177	-0.244444
C27	C	-3.844896	-0.319190	-0.244937
C28	C	-3.944178	-0.339159	-0.455032
C29	C	-3.976476	-0.412144	-0.454536
C30	C	-3.943002	-0.438649	-0.349239
C31	C	-3.878968	-0.091998	-0.552177
C32	C	-3.935543	-0.091468	-0.679695
C33	C	-4.039085	-0.090497	-0.913164
C34	C	-3.981459	-0.091037	-0.783245
C35	C	-4.197310	0.033465	-0.345666
C36	C	-4.142185	0.111140	-0.346206
C37	C	-4.162371	-0.089543	-0.144244
C38	C	-4.085034	-0.090070	-0.016724
H39	H	-4.263393	-0.542724	-0.502628
H40	H	-3.990548	-0.731562	-0.156567
Cl41	Cl	-4.059098	-0.470566	-0.586279
Cl42	Cl	-3.986281	-0.305837	-0.587394
Cl43	Cl	-3.695461	-0.650562	-0.156110
Cl44	Cl	-4.258316	-0.920778	-0.583250
H45	H	-4.170640	-0.767782	-0.537720
Cl46	Cl	-4.034337	-0.875707	-0.109043
H47	H	-3.698644	-0.506418	-0.194700
H48	H	-4.321973	-0.675125	-0.501741
Cl49	Cl	-3.835111	-0.425500	-0.112074
Cl50	Cl	-3.762199	-0.260769	-0.113186
