data_functionalizedCrystal
_audit_creation_method	'MofGen! by Chris Wilmer'
_symmetry_space_group_name_H-M	'P1'
_symmetry_Int_Tables_number	1
_symmetry_cell_setting	triclinic
loop_
_symmetry_equiv_pos_as_xyz
  x,y,z
_cell_length_a	19.288864
_cell_length_b	16.992695
_cell_length_c	17.766277
_cell_angle_alpha	89.993690
_cell_angle_beta	89.976791
_cell_angle_gamma	86.902234
loop_
_atom_site_label
_atom_site_type_symbol
_atom_site_fract_x
_atom_site_fract_y
_atom_site_fract_z
O1	O	0.927053	0.097795	-0.062838
O2	O	0.725561	0.110988	-0.062787
O3	O	0.825499	-0.009748	-0.062806
O4	O	0.827114	0.218531	-0.062819
O5	O	0.825480	-0.009754	0.062382
O6	O	0.725542	0.110982	0.062402
O7	O	0.927034	0.097789	0.062351
Cu8	Cu	0.826286	0.104385	0.073807
Cu9	Cu	0.826308	0.104392	-0.074243
O10	O	0.827095	0.218525	0.062370
C11	C	0.699650	0.110560	-0.000186
C12	C	0.622472	0.109286	-0.000166
C13	C	0.823411	-0.038957	-0.000211
C14	C	0.817211	-0.125979	-0.000210
C15	C	0.581905	0.180128	-0.000182
C16	C	0.509388	0.178931	-0.000190
C17	C	0.477442	0.106888	-0.000198
C18	C	0.518018	0.036036	-0.000178
C19	C	0.590534	0.037235	-0.000162
C20	C	0.365886	0.050256	-0.044079
C21	C	0.293371	0.049059	-0.044099
C22	C	0.253780	0.103186	-0.000243
C23	C	0.286711	0.158522	0.043624
C24	C	0.359227	0.159722	0.043640
C25	C	0.398811	0.105579	-0.000214
C26	C	0.134581	0.172735	-0.000267
C27	C	0.062063	0.171535	-0.000270
C28	C	0.070695	0.028638	-0.000266
C29	C	0.143212	0.029840	-0.000254
C30	C	0.175150	0.101891	-0.000259
C31	C	0.877039	-0.176431	-0.000224
C32	C	0.871208	-0.258197	-0.000230
C33	C	0.805549	-0.289509	-0.000216
C34	C	0.745717	-0.239051	-0.000204
C35	C	0.751548	-0.157287	-0.000204
C36	C	0.781382	-0.533022	-0.000220
C37	C	0.775556	-0.614793	-0.000218
C38	C	0.901048	-0.633933	-0.000246
C39	C	0.906873	-0.552166	-0.000241
C40	C	0.847041	-0.501715	-0.000233
N41	N	0.799588	-0.373087	-0.000219
N42	N	0.853002	-0.418138	-0.000235
C43	C	0.952944	0.098217	-0.000252
C44	C	1.030122	0.099491	-0.000277
C45	C	0.829183	0.247733	-0.000226
C46	C	0.835384	0.334756	-0.000233
N47	N	0.826275	0.104379	0.177937
N48	N	0.826324	0.104391	-0.178373
C49	C	0.870544	0.050944	0.217316
C50	C	0.870548	0.050940	0.296117
C51	C	0.826290	0.104385	0.335538
C52	C	0.782012	0.157825	0.296150
C53	C	0.782005	0.157822	0.217350
C54	C	0.821154	0.175815	0.460373
C55	C	0.821167	0.175819	0.539172
C56	C	0.826309	0.104395	0.578584
C57	C	0.831454	0.032964	0.539188
C58	C	0.831446	0.032961	0.460387
C59	C	0.826293	0.104394	0.420983
C60	C	0.870585	0.050951	0.703408
C61	C	0.870584	0.050946	0.782212
C62	C	0.782051	0.157838	0.782243
C63	C	0.782049	0.157836	0.703441
C64	C	0.826319	0.104393	0.664029
H65	H	0.607904	0.238798	-0.000187
C66	C	0.919283	-0.007837	0.825533
C67	C	0.967992	-0.066603	0.782179
C68	C	1.016692	-0.125387	0.825503
C69	C	1.016681	-0.125404	0.912180
C70	C	0.967970	-0.066636	0.955539
C71	C	0.919270	-0.007853	0.912215
H72	H	0.968002	-0.066592	0.718011
H73	H	1.052751	-0.168891	0.793405
H74	H	1.052731	-0.168919	0.944251
H75	H	0.967960	-0.066647	1.019707
H76	H	0.883211	0.035651	0.944313
C77	C	0.733365	0.216629	0.825597
C78	C	0.733420	0.216684	0.912274
C79	C	0.684730	0.275473	0.955633
C80	C	0.635986	0.334207	0.912315
C81	C	0.635929	0.334153	0.825633
C82	C	0.684619	0.275364	0.782274
H83	H	0.769505	0.173204	0.944345
H84	H	0.684772	0.275513	1.019801
H85	H	0.599943	0.377726	0.944412
H86	H	0.599844	0.377633	0.793562
H87	H	0.684577	0.275325	0.718106
C88	C	0.979098	-0.517719	-0.000261
C89	C	1.000367	-0.464127	-0.065271
C90	C	1.072591	-0.429677	-0.065289
C91	C	1.123545	-0.448819	-0.000296
C92	C	1.102277	-0.502413	0.064719
C93	C	1.030053	-0.536863	0.064737
H94	H	0.962646	-0.449955	-0.113388
H95	H	1.088334	-0.390003	-0.113417
H96	H	1.177010	-0.423317	-0.000308
H97	H	1.139998	-0.516586	0.112835
H98	H	1.014310	-0.576537	0.112865
C99	C	0.733328	0.216618	0.339508
C100	C	0.733369	0.216663	0.426185
C101	C	0.684680	0.275455	0.469542
C102	C	0.635951	0.334202	0.426222
C103	C	0.635908	0.334160	0.339539
C104	C	0.684597	0.275367	0.296183
H105	H	0.769443	0.173173	0.458258
H106	H	0.684712	0.275487	0.533710
H107	H	0.599908	0.377724	0.458317
H108	H	0.599834	0.377650	0.307467
H109	H	0.684565	0.275336	0.232015
H110	H	0.160587	0.231403	-0.000259
H111	H	0.702829	-0.116209	-0.000192
H112	H	0.476351	0.236621	-0.000201
C113	C	0.187841	-0.048089	-0.000250
C114	C	0.152707	-0.127338	-0.000259
C115	C	0.197336	-0.205271	-0.000253
C116	C	0.277100	-0.203955	-0.000237
C117	C	0.312239	-0.124703	-0.000227
C118	C	0.267610	-0.046770	-0.000233
H119	H	0.093656	-0.128314	-0.000271
H120	H	0.171323	-0.263938	-0.000260
H121	H	0.310138	-0.261646	-0.000232
H122	H	0.371289	-0.123727	-0.000215
H123	H	0.293623	0.011897	-0.000226
H124	H	0.906590	0.007425	0.185228
C125	C	0.395452	0.220581	0.091896
C126	C	0.351914	0.280123	0.140140
C127	C	0.388140	0.340981	0.188400
C128	C	0.467904	0.342297	0.188415
C129	C	0.511447	0.282753	0.140170
C130	C	0.475221	0.221895	0.091910
H131	H	0.292864	0.279151	0.140130
H132	H	0.355906	0.385059	0.224114
H133	H	0.494720	0.387347	0.224140
H134	H	0.570497	0.283725	0.140179
H135	H	0.507455	0.177816	0.056195
C136	C	0.243174	0.218066	0.091876
C137	C	0.247780	0.307132	0.078264
C138	C	0.204240	0.366674	0.126513
C139	C	0.156095	0.337152	0.188373
C140	C	0.151487	0.248081	0.201988
C141	C	0.195026	0.188539	0.153739
H142	H	0.283422	0.328990	0.032468
H143	H	0.207652	0.432610	0.116434
H144	H	0.123864	0.381229	0.224090
H145	H	0.115845	0.226223	0.247783
H146	H	0.191615	0.122603	0.163818
C147	C	0.919252	-0.007840	0.339444
C148	C	0.967967	-0.066599	0.296090
C149	C	1.016672	-0.125377	0.339413
C150	C	1.016661	-0.125396	0.426090
C151	C	0.967943	-0.066634	0.469449
C152	C	0.919239	-0.007856	0.426126
H153	H	0.967977	-0.066587	0.231922
H154	H	1.052735	-0.168876	0.307316
H155	H	1.052715	-0.168907	0.458161
H156	H	0.967933	-0.066646	0.533617
H157	H	0.883175	0.035643	0.458224
C158	C	0.715565	-0.477536	-0.000198
C159	C	0.663003	-0.480881	-0.065185
C160	C	0.597182	-0.425393	-0.065158
C161	C	0.583922	-0.366561	-0.000144
C162	C	0.636485	-0.363214	0.064848
C163	C	0.702307	-0.418702	0.064821
H164	H	0.672817	-0.524434	-0.113316
H165	H	0.558271	-0.427871	-0.113270
H166	H	0.535197	-0.325485	-0.000124
H167	H	0.626671	-0.319660	0.112979
H168	H	0.741218	-0.416224	0.112933
H169	H	0.722085	-0.640283	-0.000195
C170	C	0.837092	-0.045608	0.417050
C171	C	0.842744	-0.124177	0.460391
C172	C	0.848384	-0.202746	0.417053
C173	C	0.848371	-0.202746	0.330376
C174	C	0.842718	-0.124174	0.287031
C175	C	0.837078	-0.045604	0.330368
H176	H	0.842755	-0.124180	0.524559
H177	H	0.852569	-0.260910	0.449141
H178	H	0.852545	-0.260908	0.298295
H179	H	0.842708	-0.124171	0.222863
H180	H	0.832894	0.012560	0.298281
H181	H	0.835641	-0.025196	0.571275
H182	H	0.906631	0.007432	0.671317
C183	C	0.815507	0.254389	0.582504
C184	C	0.809834	0.332954	0.539157
C185	C	0.804173	0.411527	0.582488
C186	C	0.804184	0.411535	0.669165
C187	C	0.809857	0.332967	0.712517
C188	C	0.815518	0.254394	0.669187
H189	H	0.809826	0.332950	0.474989
H190	H	0.799974	0.469687	0.550395
H191	H	0.799994	0.469699	0.701241
H192	H	0.809865	0.332971	0.776685
H193	H	0.819717	0.196234	0.701279
H194	H	0.949760	-0.675018	-0.000254
H195	H	0.816955	0.233980	0.428291
H196	H	0.029034	0.229226	-0.000279
H197	H	0.746003	0.201352	0.671377
H198	H	0.044686	-0.030021	-0.000318
H199	H	0.266564	0.004004	-0.079822
C200	C	0.482881	-0.043213	-0.000188
C201	C	0.434175	-0.063688	0.064806
C202	C	0.399038	-0.142940	0.064800
C203	C	0.412607	-0.201717	-0.000200
C204	C	0.461315	-0.181243	-0.065199
C205	C	0.496452	-0.101991	-0.065193
H206	H	0.424128	-0.020177	0.112928
H207	H	0.362980	-0.158096	0.112917
H208	H	0.386596	-0.260383	-0.000204
H209	H	0.471362	-0.224754	-0.113320
H210	H	0.532509	-0.086835	-0.113310
H211	H	0.398115	0.006177	-0.079797
H212	H	0.623564	-0.020455	-0.000150
H213	H	0.930505	-0.150943	-0.000231
H214	H	0.919927	-0.299272	-0.000240
H215	H	0.692255	-0.264552	-0.000197
H216	H	0.745954	0.201337	0.185287
