data_functionalizedCrystal
_audit_creation_method	'MofGen! by Chris Wilmer'
_symmetry_space_group_name_H-M	'P1'
_symmetry_Int_Tables_number	1
_symmetry_cell_setting	triclinic
loop_
_symmetry_equiv_pos_as_xyz
  x,y,z
_cell_length_a	12.759401
_cell_length_b	12.645324
_cell_length_c	12.759399
_cell_angle_alpha	90.033699
_cell_angle_beta	89.983359
_cell_angle_gamma	89.979035
loop_
_atom_site_label
_atom_site_type_symbol
_atom_site_fract_x
_atom_site_fract_y
_atom_site_fract_z
Zn1	Zn	1.606264	-0.599376	0.418144
Zn2	Zn	1.606153	-0.422110	0.593868
Zn3	Zn	1.430562	-0.422126	0.418208
Zn4	Zn	1.430553	-0.599331	0.593786
O5	O	1.518383	-0.510736	0.506001
O6	O	1.753270	-0.575873	0.441461
O7	O	1.582819	-0.273764	0.570628
O8	O	1.453919	-0.445664	0.271179
O9	O	1.753189	-0.445636	0.570565
O10	O	1.583006	-0.575889	0.271131
O11	O	1.453813	-0.273777	0.441571
O12	O	1.283540	-0.445621	0.441492
O13	O	1.453904	-0.747685	0.570425
O14	O	1.283533	-0.575813	0.570488
O15	O	1.582997	-0.747717	0.441382
O16	O	1.582810	-0.445593	0.740878
O17	O	1.453797	-0.575797	0.740818
C18	C	1.245416	-0.510715	0.505989
C19	C	1.128639	-0.510731	0.506008
C20	C	1.073801	-0.578415	0.573279
C21	C	0.964077	-0.578436	0.573283
C22	C	0.964039	-0.443079	0.438743
C23	C	1.073761	-0.443065	0.438734
C24	C	0.814181	-0.703414	0.610975
C25	C	0.759339	-0.771088	0.678262
C26	C	0.794936	-0.787179	0.780792
C27	C	0.885373	-0.735580	0.816056
C28	C	0.940209	-0.667897	0.748775
C29	C	0.904614	-0.651826	0.646230
C30	C	1.223659	-0.318086	0.401053
C31	C	1.278497	-0.250397	0.333776
C32	C	1.242902	-0.234295	0.231244
C33	C	1.152462	-0.285876	0.195984
C34	C	1.097624	-0.353565	0.263261
C35	C	1.133226	-0.369668	0.365792
C36	C	1.518462	-0.787241	0.505887
C37	C	1.518495	-0.905071	0.505839
C38	C	1.600025	-1.072656	0.424892
C39	C	1.599763	-0.950096	0.424600
C40	C	1.407810	-0.949554	0.475755
C41	C	1.408305	-1.072153	0.475140
C42	C	1.546753	-1.072264	0.616987
C43	C	1.549175	-0.949659	0.616428
C44	C	1.792416	-0.510757	0.506015
C45	C	1.909193	-0.510767	0.506021
C46	C	1.518319	-0.510712	0.778969
C47	C	1.518387	-0.510737	0.895745
C48	C	1.518365	-0.235306	0.506039
C49	C	1.518535	-0.117476	0.505792
C50	C	1.518476	-0.510783	0.231968
C51	C	1.518516	-0.510803	0.115191
C52	C	1.585641	-0.443017	0.950604
C53	C	1.585708	-0.443052	1.060328
C54	C	1.451259	-0.578531	1.060325
C55	C	1.451198	-0.578500	0.950603
C56	C	1.709717	-0.405327	1.210205
C57	C	1.776961	-0.337591	1.265067
C58	C	1.793124	-0.234156	1.229532
C59	C	1.742027	-0.198436	1.139136
C60	C	1.674775	-0.266167	1.084279
C61	C	1.658632	-0.369617	1.119813
C62	C	1.327188	-0.616214	0.800724
C63	C	1.259930	-0.683940	0.745866
C64	C	1.243756	-0.787377	0.781399
C65	C	1.294835	-0.823092	0.871799
C66	C	1.362093	-0.755366	0.926657
C67	C	1.378268	-0.651930	0.891116
H68	H	1.352138	-0.208396	0.362494
N69	N	1.658118	-0.369949	0.891430
H70	H	1.615426	-0.320768	0.845985
H71	H	1.700723	-0.327128	0.942900
H72	H	1.403688	-0.784456	1.000262
H73	H	1.494136	-0.919006	0.679947
H74	H	1.755184	-0.114205	1.110216
H75	H	1.118480	-0.633516	0.628055
H76	H	0.785196	-0.690329	0.527484
N77	N	1.325148	-1.111436	0.549793
H78	H	1.288329	-1.049109	0.582951
H79	H	1.272596	-1.155718	0.510085
H80	H	1.287556	-0.179168	0.176472
H81	H	1.487405	-1.101257	0.677266
N82	N	1.832085	-0.376120	1.362551
H83	H	1.877133	-0.317513	1.391913
H84	H	1.778305	-0.397824	1.416495
N85	N	1.277391	-0.934659	0.910126
H86	H	1.346382	-0.973828	0.911175
H87	H	1.247033	-0.932664	0.983210
H88	H	0.919343	-0.387987	0.383973
H89	H	0.914342	-0.748678	0.899551
H90	H	1.633174	-0.237086	1.010679
N91	N	1.037741	-0.612239	0.786796
H92	H	1.051970	-0.632695	0.861964
H93	H	1.099241	-0.633557	0.741626
N94	N	1.657065	-0.911142	0.646487
H95	H	1.676363	-0.940074	0.717680
H96	H	1.709710	-0.936241	0.592827
H97	H	1.384386	-1.100766	0.393858
N98	N	1.378787	-0.651601	1.119502
H99	H	1.303719	-0.635063	1.100481
H100	H	1.395142	-0.727326	1.100310
H101	H	0.685706	-0.813102	0.649540
H102	H	1.023987	-0.395572	0.234540
H103	H	1.188986	-0.842518	0.736724
H104	H	1.218345	-0.654854	0.672253
H105	H	1.123467	-0.272749	0.112500
H106	H	1.252656	-0.331200	0.484540
N107	N	1.708438	-0.910248	0.449720
H108	H	1.756950	-0.972324	0.461063
H109	H	1.735132	-0.865964	0.389523
H110	H	1.847877	-0.179004	1.274208
N111	N	1.344641	-0.504647	0.762394
H112	H	1.302070	-0.492296	0.696808
H113	H	1.322132	-0.452983	0.818447
N114	N	0.735785	-0.860164	0.853371
H115	H	0.673093	-0.890404	0.815477
H116	H	0.783390	-0.919607	0.876357
N117	N	1.692288	-0.516897	1.248526
H118	H	1.761285	-0.556054	1.249573
H119	H	1.661931	-0.514907	1.321611
H120	H	1.682371	-1.102145	0.443495
H121	H	1.581581	-1.103483	0.342977
N122	N	1.575040	-0.911259	0.315489
H123	H	1.564260	-0.973781	0.267396
H124	H	1.509139	-0.867032	0.317338
H125	H	1.383453	-0.918863	0.395380
N126	N	1.325182	-0.910924	0.551393
H127	H	1.343142	-0.935277	0.624592
H128	H	1.322408	-0.831125	0.549625
N129	N	1.651833	-1.113229	0.653237
H130	H	1.682212	-1.161518	0.597939
H131	H	1.700878	-1.051743	0.665281
