data_functionalizedCrystal
_audit_creation_method	'MofGen! by Chris Wilmer'
_symmetry_space_group_name_H-M	'P1'
_symmetry_Int_Tables_number	1
_symmetry_cell_setting	triclinic
loop_
_symmetry_equiv_pos_as_xyz
  x,y,z
_cell_length_a	9.065215
_cell_length_b	9.065218
_cell_length_c	7.540329
_cell_angle_alpha	89.997902
_cell_angle_beta	90.002218
_cell_angle_gamma	94.984675
loop_
_atom_site_label
_atom_site_type_symbol
_atom_site_fract_x
_atom_site_fract_y
_atom_site_fract_z
O1	O	-1.960401	0.216335	-0.147447
O2	O	-1.460401	0.716335	0.352553
O3	O	-1.531115	0.234086	-0.147456
O4	O	-1.031115	0.734086	0.352544
O5	O	-1.754631	0.010568	-0.147446
O6	O	-1.254631	0.510568	0.352554
O7	O	-1.736885	0.439853	-0.147457
O8	O	-1.236885	0.939853	0.352543
O9	O	-1.754618	0.010565	0.147519
O10	O	-1.254618	0.510565	0.647519
O11	O	-1.531102	0.234083	0.147509
O12	O	-1.031102	0.734083	0.647509
O13	O	-1.960387	0.216332	0.147518
O14	O	-1.460387	0.716332	0.647518
Cu15	Cu	-1.745743	0.225208	0.174446
Cu16	Cu	-1.245743	0.725208	0.674446
Cu17	Cu	-1.745759	0.225211	-0.174384
Cu18	Cu	-1.245759	0.725211	0.325616
O19	O	-1.736871	0.439850	0.147508
O20	O	-1.236871	0.939850	0.647508
C21	C	-1.476122	0.232380	0.000025
C22	C	-0.976122	0.732380	0.500025
C23	C	-1.312279	0.227282	0.000021
C24	C	-0.812279	0.727282	0.500021
C25	C	-1.752919	-0.044420	0.000034
C26	C	-1.252919	0.455580	0.500034
C27	C	-1.747819	-0.208263	0.000026
C28	C	-1.247819	0.291737	0.500026
C29	C	-1.015381	0.218039	0.000032
C30	C	-0.515381	0.718039	0.500032
C31	C	-1.179224	0.223136	0.000021
C32	C	-0.679224	0.723136	0.500021
C33	C	-1.738584	0.494838	0.000024
C34	C	-1.238584	0.994838	0.500024
C35	C	-1.743683	0.658681	0.000020
C36	C	-1.243683	1.158681	0.500020
N37	N	-1.745743	0.225204	0.419795
N38	N	-1.245743	0.725204	0.919795
N39	N	-1.745771	0.225203	-0.419733
N40	N	-1.245771	0.725203	0.080267
