data_functionalizedCrystal
_audit_creation_method	'MofGen! by Chris Wilmer'
_symmetry_space_group_name_H-M	'P1'
_symmetry_Int_Tables_number	1
_symmetry_cell_setting	triclinic
loop_
_symmetry_equiv_pos_as_xyz
  x,y,z
_cell_length_a	27.732048
_cell_length_b	14.519709
_cell_length_c	12.996460
_cell_angle_alpha	90.007090
_cell_angle_beta	90.000094
_cell_angle_gamma	83.161400
loop_
_atom_site_label
_atom_site_type_symbol
_atom_site_fract_x
_atom_site_fract_y
_atom_site_fract_z
O1	O	-0.641452	-0.109733	-0.085437
O2	O	-0.500739	-0.126418	-0.085468
O3	O	-0.574826	0.016228	-0.085442
O4	O	-0.567365	-0.252379	-0.085462
O5	O	-0.574818	0.016236	0.085692
O6	O	-0.500731	-0.126410	0.085666
O7	O	-0.641445	-0.109725	0.085697
Cu8	Cu	-0.571087	-0.118067	0.101307
Cu9	Cu	-0.571096	-0.118076	-0.101078
O10	O	-0.567357	-0.252371	0.085671
C11	C	-0.482726	-0.126064	0.000095
C12	C	-0.429066	-0.125009	0.000083
C13	C	-0.574475	0.050586	0.000125
C14	C	-0.573433	0.152949	0.000125
C15	C	-0.659457	-0.110079	0.000132
C16	C	-0.713117	-0.111134	0.000137
C17	C	-0.090622	-0.202664	0.000122
C18	C	0.111056	-0.198751	0.000131
O19	O	0.141972	-0.269761	0.000171
N20	N	0.130584	-0.114168	0.000136
C21	C	0.099689	-0.030557	0.000145
O22	O	0.120926	0.041476	0.000160
C23	C	-0.101988	-0.034471	0.000143
C24	C	-0.121513	-0.119060	0.000128
C25	C	-0.110148	-0.287246	0.000108
C26	C	-0.160564	-0.288223	0.000100
C27	C	-0.191455	-0.204619	0.000106
C28	C	-0.171930	-0.120037	0.000120
C29	C	-0.132882	0.049139	0.000159
C30	C	-0.183304	0.048153	0.000161
C31	C	-0.202829	-0.036436	0.000146
C32	C	-0.253238	-0.037410	0.000118
N33	N	-0.272766	-0.121993	0.000113
C34	C	-0.241875	-0.205597	0.000107
C35	C	0.205573	-0.028508	0.000144
C36	C	0.255992	-0.027530	0.000143
C37	C	0.267356	-0.195724	0.000131
C38	C	0.216936	-0.196702	0.000125
C39	C	0.186045	-0.113091	0.000139
C40	C	-0.347754	-0.207643	0.000090
C41	C	-0.398175	-0.208613	0.000077
C42	C	-0.409534	-0.040420	0.000094
C43	C	-0.359117	-0.039449	0.000101
C44	C	-0.328227	-0.123069	0.000102
O45	O	-0.284182	0.033562	0.000090
O46	O	-0.263121	-0.277620	0.000116
C47	C	-0.040206	-0.201687	0.000130
C48	C	-0.020680	-0.117105	0.000144
C49	C	-0.051571	-0.033501	0.000150
C50	C	0.029739	-0.116126	0.000142
C51	C	0.060630	-0.199731	0.000137
C52	C	0.041102	-0.284314	0.000132
C53	C	-0.009315	-0.285291	0.000124
C54	C	-0.032043	0.051082	0.000154
C55	C	0.018374	0.052053	0.000161
C56	C	0.049265	-0.031552	0.000155
C57	C	-0.567708	-0.286729	0.000102
C58	C	-0.568751	-0.389092	0.000095
N59	N	-0.571084	-0.118060	0.243654
C60	C	-0.569596	0.527778	0.000098
C61	C	-0.570662	0.423488	0.000106
C62	C	-0.571514	0.340367	0.000112
C63	C	-0.572580	0.236071	0.000118
N64	N	-0.571103	-0.118076	-0.243425
C65	C	-0.571095	-0.118077	0.663469
C66	C	-0.571091	-0.118075	0.546664
C67	C	-0.571090	-0.118069	0.453565
C68	C	-0.571085	-0.118066	0.336753
H69	H	-0.414069	-0.277498	0.000065
H70	H	-0.322609	-0.275734	0.000094
H71	H	0.292516	-0.263798	0.000127
O72	O	-0.179447	-0.370474	0.000144
C73	C	-0.141362	-0.444045	0.000118
H74	H	-0.107091	-0.418678	0.032514
H75	H	-0.134251	-0.469808	-0.081983
C76	C	-0.197755	-0.555033	0.027444
C77	C	-0.155663	-0.523878	0.067242
H78	H	-0.206577	-0.604281	0.068845
H79	H	-0.223414	-0.505468	0.027457
H80	H	-0.191823	-0.576495	-0.040973
H81	H	-0.161597	-0.502406	0.135652
H82	H	-0.130005	-0.573442	0.067241
O83	O	0.197913	-0.278811	0.000252
C84	C	0.169100	-0.284425	0.088897
H85	H	0.156609	-0.211559	0.118457
H86	H	0.191338	-0.325545	0.150953
C87	C	0.139800	-0.422938	0.025663
C88	C	0.124455	-0.333441	0.061964
H89	H	0.112262	-0.453177	0.009052
H90	H	0.159213	-0.419158	-0.034058
H91	H	0.158332	-0.457192	0.077383
H92	H	0.105929	-0.299185	0.010240
H93	H	0.105038	-0.337216	0.121676
H94	H	0.271885	0.041351	0.000139
H95	H	-0.343219	0.029430	0.000098
O96	O	-0.062095	0.132241	0.000015
C97	C	-0.091586	0.136716	-0.088637
H98	H	-0.094210	0.063553	-0.118186
H99	H	-0.074950	0.178577	-0.150697
C100	C	-0.139503	0.273748	-0.025437
C101	C	-0.142730	0.183888	-0.061724
H102	H	-0.171050	0.302849	-0.008839
H103	H	-0.119634	0.270736	0.034288
H104	H	-0.125638	0.308620	-0.077160
H105	H	-0.156588	0.149014	-0.009997
H106	H	-0.162602	0.186895	-0.121440
O107	O	0.175638	0.052801	0.000106
C108	C	0.203692	0.127655	0.000133
H109	H	0.241298	0.103684	-0.032267
H110	H	0.207309	0.153622	0.082235
C111	C	0.132465	0.236168	-0.027183
C112	C	0.178651	0.206728	-0.066985
H113	H	0.117018	0.284946	-0.068581
H114	H	0.113564	0.185739	-0.027198
H115	H	0.135486	0.257801	0.041235
H116	H	0.175630	0.185085	-0.135397
H117	H	0.197552	0.257156	-0.066984
H118	H	-0.085001	-0.355330	0.000107
H119	H	-0.116994	0.118020	0.000172
O120	O	0.071066	-0.365588	0.000264
C121	C	0.062213	-0.416974	0.088905
H122	H	0.023987	-0.393782	0.118450
H123	H	0.089798	-0.404751	0.150972
C124	C	0.113866	-0.549429	0.025689
C125	C	0.066915	-0.520949	0.061972
H126	H	0.116768	-0.613566	0.009078
H127	H	0.119832	-0.514809	-0.034029
H128	H	0.136848	-0.539235	0.077418
H129	H	0.043934	-0.531132	0.010239
H130	H	0.060945	-0.555573	0.121681
H131	H	-0.208454	0.116240	0.000174
H132	H	-0.434695	0.027649	0.000095
H133	H	-0.025207	-0.354171	0.000113
H134	H	0.034266	0.120940	0.000165
