data_functionalizedCrystal
_audit_creation_method	'MofGen! by Chris Wilmer'
_symmetry_space_group_name_H-M	'P1'
_symmetry_Int_Tables_number	1
_symmetry_cell_setting	triclinic
loop_
_symmetry_equiv_pos_as_xyz
  x,y,z
_cell_length_a	14.519710
_cell_length_b	14.519709
_cell_length_c	12.996460
_cell_angle_alpha	90.007090
_cell_angle_beta	89.995361
_cell_angle_gamma	96.319855
loop_
_atom_site_label
_atom_site_type_symbol
_atom_site_fract_x
_atom_site_fract_y
_atom_site_fract_z
O1	O	1.223869	-0.120893	-0.085547
O2	O	1.557202	0.212440	0.247787
O3	O	1.890535	0.545774	0.581120
O4	O	0.955392	-0.135129	-0.085554
O5	O	1.288725	0.198204	0.247779
O6	O	1.622059	0.531537	0.581113
O7	O	1.096749	0.006227	-0.085541
O8	O	1.430082	0.339561	0.247793
O9	O	1.763415	0.672894	0.581126
O10	O	1.082512	-0.262250	-0.085560
O11	O	1.415845	0.071084	0.247774
O12	O	1.749179	0.404417	0.581107
O13	O	1.096734	0.006235	0.085593
O14	O	1.430067	0.339568	0.418926
O15	O	1.763400	0.672902	0.752260
O16	O	0.955377	-0.135122	0.085580
O17	O	1.288710	0.198212	0.418913
O18	O	1.622044	0.531545	0.752247
O19	O	1.223854	-0.120885	0.085587
O20	O	1.557187	0.212448	0.418921
O21	O	1.890521	0.545782	0.752254
Cu22	Cu	1.089614	-0.128003	0.101209
Cu23	Cu	1.422948	0.205331	0.434543
Cu24	Cu	1.756281	0.538664	0.767876
Cu25	Cu	1.089632	-0.128012	-0.101176
Cu26	Cu	1.422965	0.205321	0.232157
Cu27	Cu	1.756298	0.538655	0.565491
O28	O	1.082497	-0.262242	0.085574
O29	O	1.415831	0.071092	0.418907
O30	O	1.749164	0.404425	0.752241
C31	C	0.921025	-0.134462	0.000012
C32	C	1.254358	0.198871	0.333346
C33	C	1.587691	0.532205	0.666679
C34	C	0.818643	-0.132474	0.000010
C35	C	1.151977	0.200859	0.333343
C36	C	1.485310	0.534193	0.666676
C37	C	1.096078	0.040591	0.000026
C38	C	1.429411	0.373924	0.333360
C39	C	1.762744	0.707258	0.666693
C40	C	1.094090	0.142972	0.000027
C41	C	1.427423	0.476306	0.333360
C42	C	1.760756	0.809639	0.666693
C43	C	1.258221	-0.121553	0.000019
C44	C	1.591554	0.211781	0.333352
C45	C	1.924888	0.545114	0.666686
C46	C	1.360602	-0.123541	0.000015
C47	C	1.693936	0.209793	0.333348
C48	C	2.027269	0.543126	0.666681
C49	C	1.735498	-0.130860	0.000014
C50	C	2.068832	0.202473	0.333347
C51	C	2.402165	0.535807	0.666680
C52	C	1.631190	-0.128828	0.000014
C53	C	1.964524	0.204506	0.333347
C54	C	2.297857	0.537839	0.666680
C55	C	1.548054	-0.127201	0.000013
C56	C	1.881387	0.206133	0.333346
C57	C	2.214720	0.539466	0.666680
C58	C	1.443739	-0.125168	0.000015
C59	C	1.777072	0.208166	0.333348
C60	C	2.110406	0.541499	0.666682
C61	C	1.083168	-0.296606	0.000005
C62	C	1.416501	0.036728	0.333338
C63	C	1.749835	0.370061	0.666671
C64	C	1.085156	-0.398987	-0.000002
C65	C	1.418490	-0.065653	0.333331
C66	C	1.751823	0.267680	0.666664
N67	N	1.089609	-0.127996	0.243557
N68	N	1.422942	0.205338	0.576890
N69	N	1.756275	0.538671	0.910223
C70	C	1.086770	0.517868	-0.000000
C71	C	1.420103	0.851201	0.333333
C72	C	1.753437	1.184535	0.666667
C73	C	1.088803	0.413560	0.000008
C74	C	1.422136	0.746893	0.333341
C75	C	1.755469	1.080227	0.666674
C76	C	1.090430	0.330423	0.000014
C77	C	1.423763	0.663757	0.333348
C78	C	1.757096	0.997090	0.666681
C79	C	1.092463	0.226109	0.000020
C80	C	1.425796	0.559442	0.333354
C81	C	1.759129	0.892776	0.666687
N82	N	1.089644	-0.128012	-0.243523
N83	N	1.422978	0.205322	0.089810
N84	N	1.756311	0.538655	0.423143
C85	C	1.089630	-0.128013	0.663371
C86	C	1.422964	0.205320	0.996704
C87	C	1.756297	0.538654	1.330038
C88	C	1.089622	-0.128011	0.546566
C89	C	1.422955	0.205322	0.879899
C90	C	1.756288	0.538656	1.213232
C91	C	1.089620	-0.128005	0.453467
C92	C	1.422953	0.205328	0.786801
C93	C	1.756287	0.538662	1.120134
C94	C	1.089610	-0.128002	0.336655
C95	C	1.422944	0.205332	0.669988
C96	C	1.756277	0.538665	1.003322
