data_functionalizedCrystal
_audit_creation_method	'MofGen! by Chris Wilmer'
_symmetry_space_group_name_H-M	'P1'
_symmetry_Int_Tables_number	1
_symmetry_cell_setting	triclinic
loop_
_symmetry_equiv_pos_as_xyz
  x,y,z
_cell_length_a	13.339070
_cell_length_b	23.532357
_cell_length_c	11.804365
_cell_angle_alpha	101.747256
_cell_angle_beta	74.875130
_cell_angle_gamma	99.228793
loop_
_atom_site_label
_atom_site_type_symbol
_atom_site_fract_x
_atom_site_fract_y
_atom_site_fract_z
O1	O	1.359871	0.276782	-0.099126
O2	O	1.859871	0.776782	0.400874
O3	O	1.065729	0.239369	-0.099112
O4	O	1.565729	0.739369	0.400888
O5	O	1.221691	0.176578	-0.099095
O6	O	1.721691	0.676578	0.400905
O7	O	1.203909	0.339573	-0.099143
O8	O	1.703909	0.839573	0.400857
O9	O	1.180632	0.193086	0.098957
O10	O	1.680632	0.693086	0.598957
O11	O	1.024670	0.255877	0.098940
O12	O	1.524670	0.755877	0.598940
O13	O	1.318812	0.293290	0.098925
O14	O	1.818812	0.793290	0.598925
Cu15	Cu	1.167992	0.276090	0.117016
Cu16	Cu	1.667992	0.776090	0.617016
Cu17	Cu	1.216549	0.256569	-0.117203
Cu18	Cu	1.716549	0.756569	0.382797
O19	O	1.162850	0.356081	0.098909
O20	O	1.662850	0.856081	0.598909
C21	C	1.007575	0.241303	-0.000084
C22	C	1.507575	0.741303	0.499916
C23	C	0.895467	0.222465	-0.000077
C24	C	1.395467	0.722465	0.499923
C25	C	1.200716	0.163544	-0.000065
C26	C	1.700716	0.663544	0.499935
C27	C	1.199376	0.100111	-0.000054
C28	C	1.699376	0.600111	0.499946
C29	C	0.529169	0.368937	-0.000139
C30	C	1.029169	0.868937	0.499861
C31	C	0.634500	0.386638	-0.000149
C32	C	1.134500	0.886638	0.499851
C33	C	0.699747	0.345596	-0.000131
C34	C	1.199747	0.845596	0.499869
C35	C	0.659652	0.286851	-0.000103
C36	C	1.159652	0.786851	0.499897
C37	C	0.554313	0.269148	-0.000102
C38	C	1.054313	0.769148	0.499898
C39	C	0.724891	0.245807	-0.000094
C40	C	1.224891	0.745807	0.499906
C41	C	0.684796	0.187062	-0.000066
C42	C	1.184796	0.687062	0.499934
C43	C	0.579467	0.169362	-0.000065
C44	C	1.079467	0.669362	0.499935
C45	C	0.514220	0.210403	-0.000083
C46	C	1.014220	0.710403	0.499917
C47	C	0.830231	0.263510	-0.000095
C48	C	1.330231	0.763510	0.499905
C49	C	0.855375	0.163721	-0.000058
C50	C	1.355375	0.663721	0.499942
C51	C	0.750043	0.146020	-0.000048
C52	C	1.250043	0.646020	0.499952
C53	C	1.213370	-0.302258	-0.108076
C54	C	1.713370	0.197742	0.391924
C55	C	1.212099	-0.361863	-0.108083
C56	C	1.712099	0.138137	0.391917
O57	O	1.230441	-0.400344	-0.199897
O58	O	1.730441	0.099656	0.300103
N59	N	1.189088	-0.382678	-0.000126
N60	N	1.689088	0.117322	0.499874
C61	C	1.167335	-0.343885	0.107844
C62	C	1.667335	0.156115	0.607844
O63	O	1.147644	-0.367063	0.199669
O64	O	1.647644	0.132937	0.699669
C65	C	1.168599	-0.284282	0.107849
C66	C	1.668599	0.215718	0.607849
C67	C	1.191622	-0.263470	-0.000114
C68	C	1.691622	0.236530	0.499886
C69	C	1.236390	-0.281446	-0.216031
C70	C	1.736390	0.218554	0.283969
C71	C	1.237662	-0.221844	-0.216023
C72	C	1.737662	0.278156	0.283977
C73	C	1.215914	-0.183056	-0.108062
C74	C	1.715914	0.316944	0.391938
C75	C	1.192894	-0.203869	-0.000107
C76	C	1.692894	0.296131	0.499893
C77	C	1.146839	-0.245491	0.215818
C78	C	1.646839	0.254509	0.715818
C79	C	1.148104	-0.185884	0.215815
C80	C	1.648104	0.314116	0.715815
C81	C	1.171127	-0.165072	0.107851
C82	C	1.671127	0.334928	0.607851
C83	C	1.172418	-0.105479	0.107862
C84	C	1.672418	0.394521	0.607862
N85	N	1.195430	-0.084664	-0.000094
N86	N	1.695430	0.415336	0.499906
C87	C	1.217178	-0.123453	-0.108056
C88	C	1.717178	0.376547	0.391944
C89	C	1.164682	-0.469057	0.107824
C90	C	1.664682	0.030943	0.607824
C91	C	1.163425	-0.528658	0.107820
C92	C	1.663425	-0.028658	0.607820
C93	C	1.208188	-0.546633	-0.108107
C94	C	1.708188	-0.046633	0.391893
C95	C	1.209451	-0.487029	-0.108102
C96	C	1.709451	0.012971	0.391898
C97	C	1.187693	-0.448242	-0.000132
C98	C	1.687693	0.051758	0.499868
C99	C	1.219849	0.001715	-0.108033
C100	C	1.719849	0.501715	0.391967
C101	C	1.221123	0.061322	-0.108016
C102	C	1.721123	0.561322	0.391984
C103	C	1.176356	0.079291	0.107910
C104	C	1.676356	0.579291	0.607910
C105	C	1.175086	0.019689	0.107894
C106	C	1.675086	0.519689	0.607894
C107	C	1.196832	-0.019099	-0.000087
C108	C	1.696832	0.480901	0.499913
O109	O	1.154083	-0.066965	0.199629
O110	O	1.654083	0.433035	0.699629
O111	O	1.236852	-0.100268	-0.199865
O112	O	1.736852	0.399732	0.300135
C113	C	1.376966	0.291356	-0.000105
C114	C	1.876966	0.791356	0.499895
C115	C	1.489076	0.310193	-0.000120
C116	C	1.989076	0.810193	0.499880
C117	C	1.183826	0.369115	-0.000124
C118	C	1.683826	0.869115	0.499876
C119	C	1.185168	0.432548	-0.000143
C120	C	1.685168	0.932548	0.499857
N121	N	1.133848	0.289822	0.281753
N122	N	1.633848	0.789822	0.781753
N123	N	1.250702	0.242834	-0.281940
N124	N	1.750702	0.742834	0.218060
C125	C	1.332696	0.209849	0.655723
C126	C	1.832696	0.709849	1.155723
C127	C	1.358525	0.199458	0.531064
C128	C	1.858525	0.699458	1.031064
C129	C	1.302358	0.222048	0.468730
C130	C	1.802358	0.722048	0.968730
C131	C	1.220357	0.255031	0.531068
C132	C	1.720357	0.755031	1.031068
C133	C	1.194530	0.265426	0.655739
C134	C	1.694530	0.765426	1.155739
C135	C	1.164192	0.277625	0.468746
C136	C	1.664192	0.777625	0.968746
C137	C	1.082192	0.310608	0.531083
C138	C	1.582192	0.810608	1.031083
C139	C	1.056369	0.321001	0.655742
C140	C	1.556369	0.821001	1.155742
C141	C	1.112536	0.298411	0.718076
C142	C	1.612536	0.798411	1.218076
C143	C	1.190019	0.267230	0.344075
C144	C	1.690019	0.767230	0.844075
C145	C	1.051853	0.322807	0.344090
C146	C	1.551853	0.822807	0.844090
C147	C	1.026024	0.333197	0.468749
C148	C	1.526024	0.833197	0.968749
H149	H	0.862864	0.311341	-0.000112
H150	H	1.362864	0.811341	0.499888
C151	C	0.398356	0.190931	-0.000078
C152	C	0.898356	0.690931	0.499922
H153	H	0.383819	0.150067	-0.000058
H154	H	0.883819	0.650067	0.499942
H155	H	0.384200	0.199598	-0.069145
H156	H	0.884200	0.699598	0.430855
H157	H	0.355564	0.211110	0.068994
H158	H	0.855564	0.711110	0.568994
C159	C	0.535366	0.104744	-0.000040
C160	C	1.035366	0.604744	0.499960
H161	H	0.589304	0.082837	-0.000018
H162	H	1.089304	0.582837	0.499982
H163	H	0.509116	0.090006	-0.069101
H164	H	1.009116	0.590006	0.430899
H165	H	0.480477	0.101526	0.069037
H166	H	0.980477	0.601526	0.569037
C167	C	0.678603	0.451250	-0.000182
C168	C	1.178603	0.951250	0.499818
H169	H	0.750683	0.455914	-0.000194
H170	H	1.250683	0.955914	0.499806
H171	H	0.641858	0.474611	0.068872
H172	H	1.141858	0.974611	0.568872
H173	H	0.670495	0.463087	-0.069266
H174	H	1.170495	0.963087	0.430734
C175	C	1.260326	-0.324104	-0.334799
C176	C	1.760326	0.175896	0.165201
H177	H	1.274223	-0.303162	-0.399081
H178	H	1.774223	0.196838	0.100919
H179	H	1.201869	-0.352696	-0.339311
H180	H	1.701869	0.147304	0.160689
H181	H	1.319680	-0.342761	-0.339291
H182	H	1.819680	0.157239	0.160709
C183	C	0.815606	0.365067	-0.000128
C184	C	1.315606	0.865067	0.499872
H185	H	0.830138	0.405932	-0.000135
H186	H	1.330138	0.905932	0.499865
H187	H	0.858406	0.344887	-0.069180
H188	H	1.358406	0.844887	0.430820
H189	H	0.829747	0.356405	0.068959
H190	H	1.329747	0.856405	0.568959
C191	C	0.457400	0.414075	-0.000160
C192	C	0.957400	0.914075	0.499840
H193	H	0.388925	0.395118	-0.000149
H194	H	0.888925	0.895118	0.499851
H195	H	0.483814	0.431721	-0.069231
H196	H	0.983814	0.931721	0.430769
H197	H	0.455168	0.443233	0.068908
H198	H	0.955168	0.943233	0.568908
H199	H	0.717385	0.098188	-0.000035
H200	H	1.217385	0.598188	0.499965
H201	H	0.908500	0.130301	-0.000048
H202	H	1.408500	0.630301	0.499952
C203	C	0.966187	0.357291	0.724310
C204	C	1.466187	0.857291	1.224310
H205	H	0.936431	0.369255	0.669336
H206	H	1.436431	0.869255	1.169336
H207	H	0.992207	0.390765	0.772918
H208	H	1.492207	0.890765	1.272918
H209	H	0.914276	0.334237	0.772966
H210	H	1.414276	0.834237	1.272966
H211	H	0.959258	0.360053	0.519520
H212	H	1.459258	0.860053	1.019520
H213	H	1.128093	-0.262425	0.303734
H214	H	1.628093	0.237575	0.803734
C215	C	0.990069	0.347661	0.275536
C216	C	1.490069	0.847661	0.775536
H217	H	1.017189	0.336742	0.192364
H218	H	1.517189	0.836742	0.692364
H219	H	0.996414	0.389046	0.295951
H220	H	1.496414	0.889046	0.795951
H221	H	0.918492	0.332516	0.295984
H222	H	1.418492	0.832516	0.795984
C223	C	1.394471	0.185002	0.724285
C224	C	1.894471	0.685002	1.224285
H225	H	1.447007	0.163871	0.669309
H226	H	1.947007	0.663871	1.169309
H227	H	1.348310	0.159639	0.772938
H228	H	1.848310	0.659639	1.272938
H229	H	1.426228	0.216171	0.772894
H230	H	1.926228	0.716171	1.272894
H231	H	1.239875	0.078263	-0.195937
H232	H	1.739875	0.578263	0.304063
H233	H	1.237551	-0.029861	-0.195961
H234	H	1.737551	0.470139	0.304039
H235	H	1.156348	0.002744	0.195807
H236	H	1.656348	0.502744	0.695807
H237	H	1.256406	-0.204906	-0.303939
H238	H	1.756406	0.295094	0.196061
H239	H	1.425290	0.172605	0.480314
H240	H	1.925290	0.672605	0.980314
C241	C	1.234766	-0.464142	-0.226860
C242	C	1.734766	0.035858	0.273140
H243	H	1.247531	-0.495785	-0.291153
H244	H	1.747531	0.004215	0.208847
H245	H	1.295092	-0.436301	-0.231356
H246	H	1.795092	0.063699	0.268644
H247	H	1.177276	-0.446231	-0.231348
H248	H	1.677276	0.053769	0.268652
H249	H	1.225893	-0.578226	-0.196016
H250	H	1.725893	-0.078226	0.303984
C251	C	1.138109	-0.551544	0.226579
C252	C	1.638109	-0.051544	0.726579
H253	H	1.125333	-0.519903	0.290873
H254	H	1.625333	-0.019903	0.790873
H255	H	1.195582	-0.569463	0.231072
H256	H	1.695582	-0.069463	0.731072
H257	H	1.077768	-0.579381	0.231070
H258	H	1.577768	-0.079381	0.731070
H259	H	1.323392	0.213587	0.367227
H260	H	1.823392	0.713587	0.867227
H261	H	1.146966	-0.437478	0.195751
H262	H	1.646966	0.062522	0.695751
H263	H	1.091504	0.306869	0.819584
H264	H	1.591504	0.806869	1.319584
C265	C	1.124173	-0.143221	0.334584
C266	C	1.624173	0.356779	0.834584
H267	H	1.110289	-0.164156	0.398874
H268	H	1.610289	0.335844	0.898874
H269	H	1.064835	-0.124555	0.339079
H270	H	1.564835	0.375445	0.839079
H271	H	1.182650	-0.114636	0.339078
H272	H	1.682650	0.385364	0.839078
H273	H	1.158654	0.110883	0.195810
H274	H	1.658654	0.610883	0.695810
C275	C	1.280216	0.230956	0.275512
C276	C	1.780216	0.730956	0.775512
H277	H	1.287564	0.228005	0.192339
H278	H	1.787564	0.728005	0.692339
H279	H	1.265423	0.192977	0.295957
H280	H	1.765423	0.692977	0.795957
H281	H	1.343320	0.249518	0.295930
H282	H	1.843320	0.749518	0.795930
