data_functionalizedCrystal
_audit_creation_method	'MofGen! by Chris Wilmer'
_symmetry_space_group_name_H-M	'P1'
_symmetry_Int_Tables_number	1
_symmetry_cell_setting	triclinic
loop_
_symmetry_equiv_pos_as_xyz
  x,y,z
_cell_length_a	12.759401
_cell_length_b	12.594516
_cell_length_c	12.759393
_cell_angle_alpha	89.971950
_cell_angle_beta	89.979062
_cell_angle_gamma	90.017577
loop_
_atom_site_label
_atom_site_type_symbol
_atom_site_fract_x
_atom_site_fract_y
_atom_site_fract_z
Zn1	Zn	1.606257	-0.423647	-0.594038
Zn2	Zn	1.606143	-0.601663	-0.418366
Zn3	Zn	1.430555	-0.423704	-0.418373
Zn4	Zn	1.430543	-0.601589	-0.594003
O5	O	1.518375	-0.512651	-0.506195
O6	O	1.753263	-0.447269	-0.570746
O7	O	1.582809	-0.578111	-0.271345
O8	O	1.453915	-0.274751	-0.441693
O9	O	1.753179	-0.578056	-0.441680
O10	O	1.583002	-0.274709	-0.570754
O11	O	1.453805	-0.447365	-0.271351
O12	O	1.283533	-0.447293	-0.441659
O13	O	1.453894	-0.577930	-0.741029
O14	O	1.283524	-0.577985	-0.570694
O15	O	1.582990	-0.447197	-0.741054
O16	O	1.582797	-0.750599	-0.441646
O17	O	1.453784	-0.750545	-0.570686
C18	C	1.245407	-0.512638	-0.506174
C19	C	1.128631	-0.512658	-0.506190
C20	C	1.073791	-0.580812	-0.573272
C21	C	0.964067	-0.580817	-0.573293
C22	C	0.964031	-0.444509	-0.439140
C23	C	1.073753	-0.444500	-0.439125
C24	C	1.518306	-0.789192	-0.506185
C25	C	1.518372	-0.907497	-0.506215
C26	C	1.448195	-0.976759	-0.576351
C27	C	1.422594	-1.047629	-0.480484
C28	C	1.544069	-1.047427	-0.602099
C29	C	1.492721	-0.976808	-0.410297
C30	C	1.614240	-0.976600	-0.531977
C31	C	1.588675	-1.047438	-0.436044
C32	C	1.792408	-0.512665	-0.506216
C33	C	1.909184	-0.512671	-0.506226
C34	C	1.518453	-0.512549	-0.780228
C35	C	1.518487	-0.512505	-0.897005
C36	C	1.518472	-0.235030	-0.506228
C37	C	1.518514	-0.116725	-0.506242
C38	C	1.585712	-0.444422	-0.951882
C39	C	1.585730	-0.444376	-1.061606
C40	C	1.451294	-0.580506	-1.061567
C41	C	1.451272	-0.580546	-0.951844
C42	C	1.518357	-0.512676	-0.233228
C43	C	1.518527	-0.512420	-0.116451
H44	H	0.919337	-0.389018	-0.384537
C45	C	1.273377	-0.632326	-1.095320
C46	C	1.377421	-0.655301	-1.121849
H47	H	1.227773	-0.678501	-1.132540
H48	H	1.263749	-0.642096	-1.022128
H49	H	1.258044	-0.560802	-1.113317
H50	H	1.392756	-0.726823	-1.103845
H51	H	1.387053	-0.645541	-1.195057
C52	C	1.372387	-0.873322	-0.307892
C53	C	1.463321	-0.935118	-0.300815
H54	H	1.354233	-0.847590	-0.240302
H55	H	1.384593	-0.815068	-0.353602
H56	H	1.316660	-0.915408	-0.334555
H57	H	1.519051	-0.893030	-0.274159
H58	H	1.451122	-0.993381	-0.255088
H59	H	1.118469	-0.636308	-0.627883
C60	C	1.369354	-0.823683	-0.656128
C61	C	1.367947	-0.934852	-0.656306
H62	H	1.319816	-0.797813	-0.705490
H63	H	1.351811	-0.798472	-0.588206
H64	H	1.437389	-0.799371	-0.674584
H65	H	1.299914	-0.959164	-0.637842
H66	H	1.385484	-0.960073	-0.724243
C67	C	0.975132	-0.715559	-0.705884
C68	C	0.903788	-0.655739	-0.647028
H69	H	0.937916	-0.761818	-0.751402
H70	H	1.017957	-0.669233	-0.746142
H71	H	1.017895	-0.756208	-0.660019
H72	H	0.861030	-0.615083	-0.692893
H73	H	0.860945	-0.702071	-0.606767
C74	C	1.062705	-0.309769	-0.306508
C75	C	1.134041	-0.369582	-0.365379
H76	H	1.099927	-0.263524	-0.260980
H77	H	1.019944	-0.269115	-0.352354
H78	H	1.019877	-0.356108	-0.266249
H79	H	1.176864	-0.323243	-0.405644
H80	H	1.176820	-0.410240	-0.319527
C81	C	1.239791	-1.054084	-0.524603
C82	C	1.313235	-1.089752	-0.451073
H83	H	1.172279	-1.080093	-0.506452
H84	H	1.238792	-0.978676	-0.525001
H85	H	1.258489	-1.079310	-0.592222
H86	H	1.294542	-1.064520	-0.383455
H87	H	1.314232	-1.165175	-0.450664
C88	C	1.727019	-0.429677	-0.828516
C89	C	1.659582	-0.369623	-0.891600
H90	H	1.772625	-0.383494	-0.791308
H91	H	1.686981	-0.470223	-0.780133
H92	H	1.767199	-0.476032	-0.871331
H93	H	1.619396	-0.323273	-0.848785
H94	H	1.699624	-0.329059	-0.939990
C95	C	1.400022	-0.760794	-0.918014
C96	C	1.377377	-0.655392	-0.891512
H97	H	1.354407	-0.806994	-0.880761
H98	H	1.390410	-0.770506	-0.991199
H99	H	1.470607	-0.776367	-0.900039
H100	H	1.306794	-0.639816	-0.909495
H101	H	1.386980	-0.645675	-0.818311
C102	C	1.641786	-1.053242	-0.255626
C103	C	1.668871	-1.089083	-0.355905
H104	H	1.691289	-1.078960	-0.206151
H105	H	1.641766	-0.977832	-0.254786
H106	H	1.573938	-1.078644	-0.237926
H107	H	1.736715	-1.063674	-0.373608
H108	H	1.668902	-1.164509	-0.356747
C109	C	1.718620	-0.309834	-1.050617
C110	C	1.659631	-0.369541	-1.121927
H111	H	1.764249	-0.263638	-1.087859
H112	H	1.672855	-0.269134	-1.007820
H113	H	1.758777	-0.356243	-1.007822
H114	H	1.619469	-0.323132	-1.164718
H115	H	1.705402	-0.410245	-1.164742
H116	H	1.565747	-1.078448	-0.683176
C117	C	1.750251	-0.970022	-0.661901
C118	C	1.723569	-0.934441	-0.561423
H119	H	1.817744	-0.943986	-0.680089
H120	H	1.750944	-1.045429	-0.662752
H121	H	1.700166	-0.944764	-0.711008
H122	H	1.773650	-0.959706	-0.512315
H123	H	1.722884	-0.859019	-0.560565
