data_functionalizedCrystal
_audit_creation_method	'MofGen! by Chris Wilmer'
_symmetry_space_group_name_H-M	'P1'
_symmetry_Int_Tables_number	1
_symmetry_cell_setting	triclinic
loop_
_symmetry_equiv_pos_as_xyz
  x,y,z
_cell_length_a	27.732066
_cell_length_b	27.731993
_cell_length_c	15.455313
_cell_angle_alpha	92.646914
_cell_angle_beta	87.353257
_cell_angle_gamma	82.635246
loop_
_atom_site_label
_atom_site_type_symbol
_atom_site_fract_x
_atom_site_fract_y
_atom_site_fract_z
O1	O	-0.055267	-0.643076	-0.071890
O2	O	0.278066	-0.309742	0.261443
O3	O	0.611399	0.023591	0.594776
O4	O	-0.064039	-0.502280	-0.071942
O5	O	0.269294	-0.168947	0.261391
O6	O	0.602628	0.164386	0.594724
O7	O	0.010744	-0.577046	-0.071917
O8	O	0.344077	-0.243713	0.261416
O9	O	0.677411	0.089620	0.594749
O10	O	-0.130050	-0.568310	-0.071915
O11	O	0.203283	-0.234976	0.261418
O12	O	0.536617	0.098357	0.594751
O13	O	0.006485	-0.572771	0.072343
O14	O	0.339818	-0.239438	0.405677
O15	O	0.673152	0.093896	0.739010
O16	O	-0.068298	-0.498005	0.072318
O17	O	0.265036	-0.164672	0.405652
O18	O	0.598369	0.168662	0.738985
O19	O	-0.059526	-0.638800	0.072370
O20	O	0.273807	-0.305467	0.405704
O21	O	0.607140	0.027866	0.739037
Cu22	Cu	-0.064301	-0.568012	0.085516
Cu23	Cu	0.269032	-0.234679	0.418850
Cu24	Cu	0.602366	0.098654	0.752183
Cu25	Cu	-0.059264	-0.573068	-0.085089
Cu26	Cu	0.274069	-0.239735	0.248245
Cu27	Cu	0.607402	0.093598	0.581578
O28	O	-0.134309	-0.564034	0.072345
O29	O	0.199024	-0.230701	0.405679
O30	O	0.532358	0.102632	0.739012
C31	C	-0.065988	-0.482136	0.000181
C32	C	0.267345	-0.148802	0.333515
C33	C	0.600679	0.184531	0.666848
C34	C	-0.065445	-0.428480	0.000161
C35	C	0.267888	-0.095146	0.333494
C36	C	0.601221	0.238187	0.666828
C37	C	0.026621	-0.574724	0.000210
C38	C	0.359955	-0.241391	0.333544
C39	C	0.693288	0.091943	0.666877
C40	C	0.080276	-0.574168	0.000203
C41	C	0.413609	-0.240835	0.333536
C42	C	0.746942	0.092499	0.666869
C43	C	0.457339	-0.526198	0.000185
C44	C	0.790673	-0.192864	0.333519
C45	C	1.124006	0.140469	0.666852
C46	C	0.255680	-0.528245	0.000183
C47	C	0.589013	-0.194912	0.333516
C48	C	0.922346	0.138421	0.666850
O49	O	0.224421	-0.491025	0.000134
O50	O	0.557755	-0.157691	0.333468
O51	O	0.891088	0.175642	0.666801
N52	N	0.236560	-0.572580	0.000199
N53	N	0.569894	-0.239247	0.333532
N54	N	0.903227	0.094086	0.666866
C55	C	0.267860	-0.616407	0.000210
C56	C	0.601193	-0.283074	0.333543
C57	C	0.934526	0.050260	0.666876
O58	O	0.246971	-0.654164	0.000214
O59	O	0.580304	-0.320831	0.333548
O60	O	0.913637	0.012503	0.666881
C61	C	0.469519	-0.614359	0.000206
C62	C	0.802852	-0.281026	0.333539
C63	C	1.136185	0.052308	0.666873
C64	C	0.488635	-0.570021	0.000199
C65	C	0.821968	-0.236687	0.333532
C66	C	1.155301	0.096646	0.666865
C67	C	0.476456	-0.481863	0.000177
C68	C	0.809789	-0.148530	0.333510
C69	C	1.143122	0.184804	0.666844
C70	C	0.526868	-0.481352	0.000182
C71	C	0.860201	-0.148018	0.333516
C72	C	1.193534	0.185315	0.666849
C73	C	0.558163	-0.525175	0.000196
C74	C	0.891496	-0.191841	0.333529
C75	C	1.224830	0.141492	0.666863
C76	C	0.539046	-0.569509	0.000204
C77	C	0.872380	-0.236176	0.333537
C78	C	1.205713	0.097157	0.666871
C79	C	0.500817	-0.658185	0.000211
C80	C	0.834150	-0.324852	0.333544
C81	C	1.167484	0.008481	0.666877
C82	C	0.551235	-0.657669	0.000208
C83	C	0.884568	-0.324336	0.333541
C84	C	1.217901	0.008997	0.666874
C85	C	0.570350	-0.613331	0.000200
C86	C	0.903684	-0.279998	0.333534
C87	C	1.237017	0.053336	0.666867
C88	C	0.620753	-0.612821	0.000223
C89	C	0.954087	-0.279487	0.333556
C90	C	1.287420	0.053846	0.666890
N91	N	0.639873	-0.568486	0.000207
N92	N	0.973206	-0.235152	0.333540
N93	N	1.306539	0.098181	0.666874
C94	C	0.608577	-0.524663	0.000193
C95	C	0.941911	-0.191329	0.333527
C96	C	1.275244	0.142004	0.666860
C97	C	0.161985	-0.617479	0.000214
C98	C	0.495319	-0.284146	0.333547
C99	C	0.828652	0.049188	0.666880
C100	C	0.111571	-0.617991	0.000216
C101	C	0.444904	-0.284658	0.333549
C102	C	0.778238	0.048676	0.666883
C103	C	0.099394	-0.529829	0.000187
C104	C	0.432728	-0.196496	0.333521
C105	C	0.766061	0.136838	0.666854
C106	C	0.149810	-0.529317	0.000191
C107	C	0.483143	-0.195984	0.333524
C108	C	0.816476	0.137349	0.666858
C109	C	0.181105	-0.573144	0.000198
C110	C	0.514438	-0.239810	0.333531
C111	C	0.847771	0.093523	0.666864
C112	C	0.714446	-0.523592	0.000205
C113	C	1.047780	-0.190258	0.333539
C114	C	1.381113	0.143075	0.666872
C115	C	0.764863	-0.523084	0.000214
C116	C	1.098196	-0.189750	0.333548
C117	C	1.431530	0.143583	0.666881
C118	C	0.777035	-0.611245	0.000238
C119	C	1.110369	-0.277912	0.333572
C120	C	1.443702	0.055421	0.666905
C121	C	0.726623	-0.611753	0.000234
C122	C	1.059956	-0.278420	0.333567
C123	C	1.393290	0.054913	0.666901
C124	C	0.695329	-0.567923	0.000215
C125	C	1.028662	-0.234589	0.333548
C126	C	1.361996	0.098744	0.666881
O127	O	0.652041	-0.650021	0.000262
O128	O	0.985374	-0.316688	0.333595
O129	O	1.318707	0.016645	0.666928
O130	O	0.629476	-0.486912	0.000170
O131	O	0.962810	-0.153578	0.333503
O132	O	1.296143	0.179755	0.666836
C133	C	0.406927	-0.526709	0.000180
C134	C	0.740261	-0.193376	0.333513
C135	C	1.073594	0.139957	0.666847
C136	C	0.387811	-0.571044	0.000188
C137	C	0.721144	-0.237711	0.333521
C138	C	1.054478	0.095623	0.666855
C139	C	0.419106	-0.614867	0.000202
C140	C	0.752439	-0.281534	0.333535
C141	C	1.085773	0.051800	0.666868
C142	C	0.337396	-0.571556	0.000191
C143	C	0.670730	-0.238223	0.333524
C144	C	1.004063	0.095111	0.666857
C145	C	0.306101	-0.527733	0.000177
C146	C	0.639434	-0.194400	0.333510
C147	C	0.972768	0.138934	0.666844
C148	C	0.325220	-0.483398	0.000161
C149	C	0.658554	-0.150064	0.333494
C150	C	0.991887	0.183269	0.666828
C151	C	0.375632	-0.482886	0.000166
C152	C	0.708966	-0.149553	0.333500
C153	C	1.042299	0.183780	0.666833
C154	C	0.399987	-0.659202	0.000218
C155	C	0.733320	-0.325869	0.333551
C156	C	1.066654	0.007465	0.666884
C157	C	0.349575	-0.659710	0.000213
C158	C	0.682908	-0.326377	0.333547
C159	C	1.016241	0.006957	0.666880
C160	C	0.318279	-0.615887	0.000200
C161	C	0.651613	-0.282554	0.333533
C162	C	0.984946	0.050780	0.666866
C163	C	-0.057577	-0.658945	0.000245
C164	C	0.275756	-0.325612	0.333578
C165	C	0.609090	0.007721	0.666911
C166	C	-0.058120	-0.712601	0.000259
C167	C	0.275214	-0.379268	0.333592
C168	C	0.608547	-0.045934	0.666926
C169	C	0.849813	-0.566355	0.000218
C170	C	1.183147	-0.233022	0.333552
C171	C	1.516480	0.100311	0.666885
C172	C	0.796158	-0.566907	0.000228
C173	C	1.129492	-0.233573	0.333561
C174	C	1.462825	0.099760	0.666894
C175	C	-0.059194	-0.047649	-0.078433
C176	C	0.274139	0.285685	0.254900
C177	C	0.607472	0.619018	0.588233
C178	C	-0.061261	-0.249307	-0.078457
C179	C	0.272073	0.084026	0.254877
C180	C	0.605406	0.417360	0.588210
O181	O	-0.059534	-0.277362	-0.145336
O182	O	0.273799	0.055971	0.187998
O183	O	0.607133	0.389305	0.521331
N184	N	-0.063841	-0.272197	0.000178
N185	N	0.269493	0.061137	0.333511
N186	N	0.602826	0.394470	0.666845
C187	C	-0.065901	-0.244669	0.078824
C188	C	0.267432	0.088664	0.412157
C189	C	0.600765	0.421997	0.745491
O190	O	-0.068138	-0.268766	0.145707
O191	O	0.265195	0.064567	0.479041
O192	O	0.598529	0.397900	0.812374
C193	C	-0.063831	-0.043012	0.078847
C194	C	0.269502	0.290321	0.412180
C195	C	0.602835	0.623654	0.745513
C196	C	-0.061256	-0.020125	0.000207
C197	C	0.272077	0.313209	0.333540
C198	C	0.605411	0.646542	0.666873
C199	C	-0.056619	-0.024761	-0.157067
C200	C	0.276715	0.308573	0.176267
C201	C	0.610048	0.641906	0.509600
C202	C	-0.056105	0.025651	-0.157060
C203	C	0.277229	0.358985	0.176273
C204	C	0.610562	0.692318	0.509607
C205	C	-0.058167	0.053175	-0.078420
C206	C	0.275167	0.386509	0.254913
C207	C	0.608500	0.719842	0.588247
C208	C	-0.060742	0.030287	0.000213
C209	C	0.272591	0.363621	0.333547
C210	C	0.605924	0.696954	0.666880
C211	C	-0.065888	-0.015486	0.157492
C212	C	0.267445	0.317847	0.490825
C213	C	0.600778	0.651180	0.824159
C214	C	-0.065369	0.034931	0.157491
C215	C	0.267964	0.368264	0.490824
C216	C	0.601297	0.701597	0.824157
C217	C	-0.062794	0.057818	0.078851
C218	C	0.270539	0.391152	0.412184
C219	C	0.603873	0.724485	0.745517
C220	C	-0.062290	0.108223	0.078860
C221	C	0.271043	0.441557	0.412194
C222	C	0.604377	0.774890	0.745527
N223	N	-0.059710	0.131113	0.000226
N224	N	0.273623	0.464446	0.333559
N225	N	0.606957	0.797780	0.666892
C226	C	-0.057648	0.103589	-0.078415
C227	C	0.275685	0.436922	0.254919
C228	C	0.609018	0.770256	0.588252
C229	C	-0.066989	-0.350542	0.078807
C230	C	0.266345	-0.017209	0.412140
C231	C	0.599678	0.316125	0.745473
C232	C	-0.067507	-0.400956	0.078801
C233	C	0.265826	-0.067622	0.412135
C234	C	0.599160	0.265711	0.745468
C235	C	-0.062865	-0.405590	-0.078480
C236	C	0.270468	-0.072257	0.254853
C237	C	0.603801	0.261077	0.588187
C238	C	-0.062351	-0.355175	-0.078474
C239	C	0.270983	-0.021842	0.254860
C240	C	0.604316	0.311492	0.588193
C241	C	-0.064409	-0.327652	0.000172
C242	C	0.268925	0.005681	0.333505
C243	C	0.602258	0.339015	0.666839
C244	C	-0.056570	0.209458	-0.078395
C245	C	0.276764	0.542791	0.254939
C246	C	0.610097	0.876125	0.588272
C247	C	-0.056058	0.259875	-0.078381
C248	C	0.277275	0.593208	0.254952
C249	C	0.610609	0.926542	0.588286
C250	C	-0.060697	0.264504	0.078900
C251	C	0.272636	0.597838	0.412233
C252	C	0.605970	0.931171	0.745566
C253	C	-0.061211	0.214092	0.078887
C254	C	0.272122	0.547426	0.412220
C255	C	0.605455	0.880759	0.745553
C256	C	-0.059146	0.186570	0.000232
C257	C	0.274188	0.519903	0.333566
C258	C	0.607521	0.853237	0.666899
O259	O	-0.064010	0.136308	0.145704
O260	O	0.269323	0.469641	0.479037
O261	O	0.602657	0.802974	0.812371
O262	O	-0.055401	0.127694	-0.145288
O263	O	0.277933	0.461027	0.188046
O264	O	0.611266	0.794360	0.521379
C265	C	-0.059708	-0.098061	-0.078440
C266	C	0.273625	0.235273	0.254893
C267	C	0.606959	0.568606	0.588227
C268	C	-0.062284	-0.120949	0.000193
C269	C	0.271050	0.212385	0.333527
C270	C	0.604383	0.545718	0.666860
C271	C	-0.064346	-0.093425	0.078834
C272	C	0.268988	0.239909	0.412167
C273	C	0.602321	0.573242	0.745500
C274	C	-0.062802	-0.171362	0.000188
C275	C	0.270531	0.161971	0.333521
C276	C	0.603865	0.495304	0.666855
C277	C	-0.060740	-0.198886	-0.078452
C278	C	0.272593	0.134447	0.254881
C279	C	0.605926	0.467780	0.588215
C280	C	-0.058160	-0.175996	-0.157087
C281	C	0.275173	0.157337	0.176247
C282	C	0.608506	0.490670	0.509580
C283	C	-0.057646	-0.125585	-0.157080
C284	C	0.275687	0.207749	0.176253
C285	C	0.609020	0.541082	0.509587
C286	C	-0.066926	-0.116314	0.157468
C287	C	0.266408	0.217019	0.490802
C288	C	0.599741	0.550352	0.824135
C289	C	-0.067440	-0.166726	0.157455
C290	C	0.265893	0.166607	0.490789
C291	C	0.599227	0.499940	0.824122
C292	C	-0.065378	-0.194250	0.078815
C293	C	0.267955	0.139083	0.412148
C294	C	0.601288	0.472416	0.745482
N295	N	-0.067843	-0.564460	0.205511
N296	N	0.265490	-0.231126	0.538844
N297	N	0.598824	0.102207	0.872177
N298	N	-0.055718	-0.576625	-0.205083
N299	N	0.277615	-0.243292	0.128250
N300	N	0.610948	0.090042	0.461584
C301	C	-0.036084	-0.596234	0.250915
C302	C	0.297249	-0.262900	0.584249
C303	C	0.630582	0.070433	0.917582
C304	C	-0.038768	-0.593551	0.341722
C305	C	0.294566	-0.260218	0.675056
C306	C	0.627899	0.073115	1.008389
C307	C	-0.073212	-0.559097	0.387123
C308	C	0.260121	-0.225764	0.720456
C309	C	0.593454	0.107570	1.053790
C310	C	-0.104972	-0.527320	0.341712
C311	C	0.228361	-0.193986	0.675045
C312	C	0.561694	0.139347	1.008379
C313	C	-0.102287	-0.530000	0.250907
C314	C	0.231047	-0.196667	0.584240
C315	C	0.564380	0.136667	0.917573
C316	C	-0.084793	-0.547528	0.658701
C317	C	0.248541	-0.214195	0.992034
C318	C	0.581874	0.119139	1.325367
C319	C	-0.087477	-0.544851	0.749512
C320	C	0.245856	-0.211518	1.082846
C321	C	0.579190	0.121816	1.416179
C322	C	-0.021271	-0.611082	0.749517
C323	C	0.312062	-0.277749	1.082850
C324	C	0.645396	0.055584	1.416183
C325	C	-0.018590	-0.613762	0.658709
C326	C	0.314743	-0.280428	0.992043
C327	C	0.648076	0.052905	1.325376
C328	C	-0.050349	-0.581983	0.613306
C329	C	0.282985	-0.248649	0.946640
C330	C	0.616318	0.084684	1.279973
N331	N	-0.075957	-0.556356	0.479942
N332	N	0.257377	-0.223022	0.813276
N333	N	0.590710	0.110311	1.146609
N334	N	-0.047602	-0.584722	0.520489
N335	N	0.285732	-0.251389	0.853822
N336	N	0.619065	0.081945	1.187155
H337	H	0.780424	-0.486977	0.000212
H338	H	1.113757	-0.153643	0.333546
H339	H	1.447091	0.179690	0.666879
H340	H	-0.069612	-0.419585	0.142838
H341	H	0.263721	-0.086252	0.476171
H342	H	0.597055	0.247081	0.809504
H343	H	0.073905	-0.494147	0.000180
H344	H	0.407238	-0.160813	0.333514
H345	H	0.740572	0.172520	0.666847
H346	H	-0.054888	0.187055	-0.142442
H347	H	0.278445	0.520388	0.190891
H348	H	0.611778	0.853722	0.524224
H349	H	-0.128147	-0.504126	0.213939
H350	H	0.205186	-0.170792	0.547272
H351	H	0.538519	0.162541	0.880606
H352	H	0.711058	-0.647857	0.000252
H353	H	1.044391	-0.314523	0.333586
H354	H	1.377724	0.018810	0.666919
H355	H	0.009457	-0.641817	0.621746
H356	H	0.342791	-0.308484	0.955079
H357	H	0.676124	0.024850	1.288413
H358	H	0.096011	-0.654095	0.000235
H359	H	0.429345	-0.320762	0.333569
H360	H	0.762678	0.012572	0.666902
H361	H	-0.062378	0.286924	0.142926
H362	H	0.270956	0.620257	0.476260
H363	H	0.604289	0.953590	0.809593
H364	H	0.542427	-0.445247	0.000169
H365	H	0.875760	-0.111914	0.333502
H366	H	1.209094	0.221420	0.666836
H367	H	-0.115528	-0.516792	0.786473
H368	H	0.217805	-0.183459	1.119807
H369	H	0.551139	0.149874	1.453140
H370	H	0.165370	-0.493213	0.000189
H371	H	0.498703	-0.159880	0.333522
H372	H	0.832037	0.173453	0.666855
H373	H	-0.053962	0.278508	-0.142422
H374	H	0.279371	0.611841	0.190911
H375	H	0.612704	0.945174	0.524245
H376	H	-0.110653	-0.521653	0.621741
H377	H	0.222681	-0.188320	0.955074
H378	H	0.556014	0.145014	1.288407
H379	H	0.004586	-0.636955	0.786492
H380	H	0.337919	-0.303621	1.119825
H381	H	0.671252	0.029712	1.453159
H382	H	-0.012907	-0.619424	0.378691
H383	H	0.320427	-0.286091	0.712024
H384	H	0.653760	0.047243	1.045357
H385	H	-0.133017	-0.499264	0.378682
H386	H	0.200317	-0.165930	0.712016
H387	H	0.533650	0.167403	1.045349
H388	H	0.688972	-0.487900	0.000189
H389	H	1.022306	-0.154567	0.333523
H390	H	1.355639	0.178766	0.666856
H391	H	-0.054005	0.044281	-0.221097
H392	H	0.279328	0.377615	0.112236
H393	H	0.612661	0.710948	0.445570
H394	H	-0.069541	-0.185356	0.221498
H395	H	0.263792	0.147977	0.554832
H396	H	0.597125	0.481310	0.888165
H397	H	0.450980	-0.446175	0.000163
H398	H	0.784313	-0.112842	0.333496
H399	H	1.117646	0.220492	0.666830
H400	H	0.485262	-0.694290	0.000216
H401	H	0.818595	-0.360957	0.333549
H402	H	1.151929	-0.027623	0.666883
H403	H	0.187462	-0.653170	0.000220
H404	H	0.520796	-0.319836	0.333553
H405	H	0.854129	0.013497	0.666887
H406	H	0.576713	-0.693359	0.000208
H407	H	0.910047	-0.360026	0.333541
H408	H	1.243380	-0.026692	0.666875
H409	H	0.802525	-0.646925	0.000253
H410	H	1.135858	-0.313591	0.333587
H411	H	1.469191	0.019742	0.666920
H412	H	0.391191	-0.446781	0.000161
H413	H	0.724525	-0.113448	0.333495
H414	H	1.057858	0.219885	0.666828
H415	H	0.299731	-0.447715	0.000155
H416	H	0.633064	-0.114382	0.333489
H417	H	0.966397	0.218951	0.666822
H418	H	-0.055549	-0.106954	-0.221117
H419	H	0.277784	0.226379	0.112216
H420	H	0.611117	0.559713	0.445550
H421	H	-0.056484	-0.198415	-0.221118
H422	H	0.276849	0.134918	0.112215
H423	H	0.610182	0.468252	0.445548
H424	H	-0.063318	0.195457	0.142922
H425	H	0.270016	0.528791	0.476255
H426	H	0.603349	0.862124	0.809588
H427	H	-0.068602	-0.093909	0.221508
H428	H	0.264731	0.239424	0.554841
H429	H	0.598064	0.572757	0.888175
H430	H	0.334016	-0.695818	0.000226
H431	H	0.667349	-0.362485	0.333559
H432	H	1.000682	-0.029151	0.666893
H433	H	-0.068663	-0.328137	0.142853
H434	H	0.264670	0.005196	0.476186
H435	H	0.598004	0.338529	0.809520
H436	H	0.425463	-0.694889	0.000228
H437	H	0.758797	-0.361556	0.333561
H438	H	1.092130	-0.028222	0.666894
H439	H	-0.054938	-0.047166	-0.221109
H440	H	0.278395	0.286167	0.112225
H441	H	0.611729	0.619501	0.445558
H442	H	-0.060254	-0.336543	-0.142509
H443	H	0.273080	-0.003210	0.190824
H444	H	0.606413	0.330124	0.524157
H445	H	-0.067984	-0.034113	0.221529
H446	H	0.265349	0.299220	0.554862
H447	H	0.598683	0.632554	0.888196
H448	H	-0.061188	-0.428009	-0.142512
H449	H	0.272145	-0.094675	0.190821
H450	H	0.605478	0.238658	0.524155
H451	H	-0.008038	-0.624292	0.213956
H452	H	0.325296	-0.290959	0.547290
H453	H	0.658629	0.042375	0.880623
H454	H	-0.067050	0.057338	0.221535
H455	H	0.266284	0.390671	0.554868
H456	H	0.599617	0.724005	0.888202
