data_functionalizedCrystal
_audit_creation_method	'MofGen! by Chris Wilmer'
_symmetry_space_group_name_H-M	'P1'
_symmetry_Int_Tables_number	1
_symmetry_cell_setting	triclinic
loop_
_symmetry_equiv_pos_as_xyz
  x,y,z
_cell_length_a	10.489741
_cell_length_b	15.944551
_cell_length_c	8.965430
_cell_angle_alpha	89.999468
_cell_angle_beta	89.998843
_cell_angle_gamma	84.018956
loop_
_atom_site_label
_atom_site_type_symbol
_atom_site_fract_x
_atom_site_fract_y
_atom_site_fract_z
O1	O	1.692411	0.118500	-0.123951
O2	O	1.321061	0.129624	-0.123974
O3	O	1.516876	0.001848	-0.123948
O4	O	1.496595	0.246276	-0.123977
O5	O	1.516860	0.001857	0.124130
O6	O	1.321044	0.129633	0.124105
O7	O	1.692394	0.118509	0.124128
Cu8	Cu	1.506718	0.124071	0.146768
Cu9	Cu	1.506737	0.124061	-0.146614
O10	O	1.496578	0.246285	0.124102
C11	C	1.273532	0.128788	0.000062
C12	C	1.131938	0.126275	0.000054
C13	C	1.064925	0.044975	0.000077
C14	C	0.972274	0.083376	-0.122240
C15	C	0.972291	0.083403	0.122346
C16	C	1.041152	0.164709	-0.122364
C17	C	1.041179	0.164726	0.122332
C18	C	0.948554	0.203186	-0.000015
C19	C	1.516026	-0.029446	0.000091
C20	C	1.513502	-0.122708	0.000092
C21	C	1.386093	-0.338330	0.000063
C22	C	1.445249	-0.398988	0.122385
C23	C	1.508935	-0.293461	0.000080
C24	C	1.445294	-0.398979	-0.122201
C25	C	1.504515	-0.458400	0.000062
C26	C	1.568126	-0.352890	0.122503
C27	C	1.568154	-0.352875	-0.122193
C28	C	1.627399	-0.413515	0.000158
C29	C	1.511478	-0.198443	0.000092
C30	C	1.501982	-0.553417	0.000061
C31	C	1.739922	0.119345	0.000088
C32	C	1.881517	0.121858	0.000087
C33	C	1.497429	0.277579	0.000059
C34	C	1.499953	0.370841	0.000049
N35	N	1.506713	0.124078	0.353117
N36	N	1.506752	0.124048	-0.352963
C37	C	1.416127	0.183150	0.450411
C38	C	1.531388	0.200146	0.549830
C39	C	1.391501	0.107089	0.549826
C40	C	1.622032	0.141112	0.450347
C41	C	1.482069	0.048022	0.450334
C42	C	1.597413	0.064986	0.549708
H43	H	0.898203	0.270090	-0.000090
H44	H	1.620032	-0.332584	0.226030
H45	H	1.393285	-0.419405	0.225792
H46	H	1.071741	0.199101	0.225741
H47	H	0.941783	0.048992	0.225756
C48	C	1.248355	-0.294156	0.000215
H49	H	1.204908	-0.309836	0.087232
H50	H	1.204283	-0.310596	-0.085798
H51	H	1.250907	-0.234774	-0.000662
H52	H	1.461162	-0.016264	0.406597
H53	H	1.294052	0.092733	0.593526
C54	C	1.701022	-0.002524	0.608245
H55	H	1.661862	-0.042481	0.666567
H56	H	1.760475	0.023579	0.667905
H57	H	1.744636	-0.030330	0.526363
C58	C	1.375098	-0.426545	-0.261901
H59	H	1.431938	-0.463880	-0.319502
H60	H	1.346638	-0.378335	-0.319879
H61	H	1.303412	-0.454441	-0.232493
C62	C	1.312737	0.250690	0.391491
H63	H	1.252483	0.224469	0.333191
H64	H	1.351905	0.290000	0.331732
H65	H	1.270024	0.279260	0.473211
C66	C	1.765208	-0.457569	0.000338
H67	H	1.778464	-0.491454	-0.086561
H68	H	1.777828	-0.492135	0.086470
H69	H	1.824340	-0.416315	0.001220
H70	H	1.115541	-0.021859	-0.000068
H71	H	0.941743	0.048972	-0.225644
C72	C	1.082149	0.211156	-0.262203
H73	H	1.172488	0.212452	-0.261380
H74	H	1.041245	0.267187	-0.262524
H75	H	1.058024	0.182475	-0.348975
H76	H	1.620073	-0.332436	-0.225606
H77	H	1.552259	0.264453	0.593533
H78	H	1.719502	0.155545	0.406834
