data_functionalizedCrystal
_audit_creation_method	'MofGen! by Chris Wilmer'
_symmetry_space_group_name_H-M	'P1'
_symmetry_Int_Tables_number	1
_symmetry_cell_setting	triclinic
loop_
_symmetry_equiv_pos_as_xyz
  x,y,z
_cell_length_a	15.995350
_cell_length_b	7.088906
_cell_length_c	8.559649
_cell_angle_alpha	84.656454
_cell_angle_beta	76.635520
_cell_angle_gamma	96.206653
loop_
_atom_site_label
_atom_site_type_symbol
_atom_site_fract_x
_atom_site_fract_y
_atom_site_fract_z
O1	O	1.088101	-0.158820	0.222366
O2	O	0.842688	-0.158858	0.247803
O3	O	0.987016	-0.158834	0.002482
O4	O	0.943774	-0.158844	0.467687
O5	O	1.006306	0.159145	-0.030373
O6	O	0.861979	0.159120	0.214948
O7	O	1.107392	0.159159	0.189511
Cu8	Cu	0.986447	0.188173	0.199230
Cu9	Cu	0.963634	-0.187873	0.238084
O10	O	0.963064	0.159134	0.434832
C11	C	0.821206	0.000126	0.230325
C12	C	0.728458	0.000111	0.227174
N13	N	1.002498	0.452664	0.171900
C14	C	0.999938	0.000152	-0.073475
C15	C	1.009692	0.000143	-0.250854
C16	C	0.391440	0.000151	0.215849
C17	C	0.450152	0.000865	0.041064
C18	C	0.546595	0.000135	0.044292
C19	C	0.558639	0.000132	0.221466
C20	C	0.500995	-0.181443	0.326401
C21	C	0.404633	-0.181582	0.322026
C22	C	0.425999	0.180019	0.288274
C23	C	0.523092	0.182406	0.287986
C24	C	0.653130	0.000115	0.224651
C25	C	0.296947	0.000155	0.212671
C26	C	1.128874	0.000170	0.206990
C27	C	1.221622	0.000173	0.210142
N28	N	0.947582	0.547636	0.265414
C29	C	0.950142	0.000144	0.510789
C30	C	0.940387	0.000140	0.688170
H31	H	0.587276	0.130296	-0.036893
Cl32	Cl	0.583999	0.389800	0.169275
H33	H	0.363636	-0.189824	0.451148
H34	H	0.873590	0.000136	-0.228333
Cl35	Cl	1.112833	0.000185	-0.379775
H36	H	0.530814	0.193372	0.416054
Cl37	Cl	0.412862	0.392512	0.178127
Cl38	Cl	0.414672	-0.199051	-0.045618
Cl39	Cl	0.440680	0.201908	-0.087534
H40	H	0.506340	-0.188196	0.457264
H41	H	0.386028	0.181245	0.416961
H42	H	0.570929	-0.130250	-0.010430
H43	H	1.059420	0.534330	0.075001
H44	H	0.382131	-0.317313	0.273209
Cl45	Cl	0.538082	-0.390081	0.255553
H46	H	0.890669	0.465980	0.362318
