data_functionalizedCrystal
_audit_creation_method	'MofGen! by Chris Wilmer'
_symmetry_space_group_name_H-M	'P1'
_symmetry_Int_Tables_number	1
_symmetry_cell_setting	triclinic
loop_
_symmetry_equiv_pos_as_xyz
  x,y,z
_cell_length_a	19.121459
_cell_length_b	10.685980
_cell_length_c	10.686551
_cell_angle_alpha	81.591741
_cell_angle_beta	82.976666
_cell_angle_gamma	91.767930
loop_
_atom_site_label
_atom_site_type_symbol
_atom_site_fract_x
_atom_site_fract_y
_atom_site_fract_z
Zn1	Zn	-0.157425	2.006940	-0.855492
Zn2	Zn	-0.284663	1.999531	-0.634166
Zn3	Zn	-0.176973	1.779752	-0.625564
Zn4	Zn	-0.284594	1.803649	-0.830081
O5	O	-0.225914	1.897468	-0.736326
O6	O	-0.166151	2.183013	-0.840367
O7	O	-0.278587	1.957274	-0.454808
O8	O	-0.076090	1.802988	-0.663099
O9	O	-0.259632	2.177569	-0.677760
O10	O	-0.061728	1.969902	-0.832026
O11	O	-0.199468	1.795804	-0.448488
O12	O	-0.199402	1.605866	-0.638459
O13	O	-0.259516	1.843718	-1.011669
O14	O	-0.278471	1.623423	-0.788717
O15	O	-0.166085	1.993075	-1.030338
O16	O	-0.382943	1.980447	-0.653120
O17	O	-0.382893	1.836534	-0.797058
C18	C	-0.241050	1.568736	-0.709898
C19	C	-0.247542	1.428106	-0.698621
C20	C	-0.408401	1.910316	-0.723296
C21	C	-0.486462	1.915932	-0.717773
C22	C	-0.927962	1.951477	-0.682753
C23	C	-0.854615	1.946189	-0.687944
C24	C	-0.817949	1.868557	-0.765413
C25	C	-0.854634	1.796196	-0.837687
C26	C	-0.927980	1.801478	-0.832489
C27	C	-0.596493	1.848853	-0.784848
C28	C	-0.523142	1.843580	-0.790044
C29	C	-0.523128	1.993572	-0.640299
C30	C	-0.596475	1.998852	-0.635113
C31	C	-0.633154	1.926487	-0.707381
C32	C	-0.742977	1.863153	-0.770724
C33	C	-0.708125	1.931884	-0.702063
C34	C	-0.042711	1.884606	-0.749437
C35	C	0.035359	1.879125	-0.755024
C36	C	-0.210612	1.921889	-1.068505
C37	C	-0.204091	1.932296	-1.210060
C38	C	-0.210718	2.227484	-0.762857
C39	C	-0.204243	2.368117	-0.774163
C40	C	-0.241102	1.873211	-0.405448
C41	C	-0.247414	1.863035	-0.263928
H42	H	-0.824751	2.005103	-0.629094
C43	C	-0.147451	1.444065	-0.873200
C44	C	-0.140816	1.589403	-0.884728
C45	C	-0.084023	1.665360	-0.983765
C46	C	-0.033866	1.595980	-1.071275
C47	C	-0.040499	1.450634	-1.059750
C48	C	-0.097292	1.374676	-0.960712
H49	H	-0.177948	1.640769	-0.819945
H50	H	-0.079113	1.772955	-0.992297
H51	H	0.008176	1.652208	-1.144589
H52	H	-0.003368	1.399267	-1.124533
H53	H	-0.102202	1.267081	-0.952181
C54	C	-0.702638	1.777768	-0.855946
C55	C	-0.659393	1.670793	-0.796266
C56	C	-0.619051	1.585407	-0.881485
C57	C	-0.621954	1.606995	-1.026383
C58	C	-0.665202	1.713975	-1.086071
C59	C	-0.705544	1.799362	-1.000852
H60	H	-0.657241	1.654808	-0.688997
H61	H	-0.587036	1.506213	-0.837299
H62	H	-0.592091	1.543787	-1.089467
H63	H	-0.667353	1.729961	-1.193340
H64	H	-0.737559	1.878555	-1.045038
H65	H	-0.289580	1.371874	-0.625308
H66	H	-0.957843	1.742568	-0.891347
H67	H	-0.957809	2.014701	-0.619676
H68	H	-0.626323	2.062066	-0.572026
H69	H	-0.493257	2.052486	-0.581460
C70	C	-0.748454	2.017279	-0.616848
C71	C	-0.731190	2.161149	-0.639641
C72	C	-0.771526	2.246549	-0.554430
C73	C	-0.829126	2.188079	-0.446426
C74	C	-0.846394	2.044202	-0.423629
C75	C	-0.806058	1.958802	-0.508840
H76	H	-0.688548	2.204439	-0.719595
H77	H	-0.758743	2.353057	-0.571306
H78	H	-0.858986	2.251297	-0.383348
H79	H	-0.889036	2.000912	-0.343674
H80	H	-0.818841	1.852294	-0.491964
C81	C	-0.304261	1.772167	-1.179942
C82	C	-0.282564	1.664048	-1.082668
C83	C	-0.339413	1.573178	-0.998673
C84	C	-0.417959	1.590429	-1.011952
C85	C	-0.439659	1.698553	-1.109229
C86	C	-0.382811	1.789422	-1.193224
H87	H	-0.224417	1.651274	-1.072835
H88	H	-0.323348	1.493137	-0.926662
H89	H	-0.460041	1.523162	-0.949774
H90	H	-0.497807	1.711327	-1.119063
H91	H	-0.398875	1.869463	-1.265236
C92	C	-0.147240	2.023169	-1.294051
C93	C	-0.140575	2.033808	-1.440335
C94	C	-0.083726	2.124679	-1.524326
C95	C	-0.033541	2.204910	-1.462034
C96	C	-0.040205	2.194273	-1.315742
C97	C	-0.097054	2.103402	-1.231751
H98	H	-0.177726	1.974414	-1.486455
H99	H	-0.078793	2.132553	-1.632622
H100	H	0.008542	2.272178	-1.524209
H101	H	-0.003054	2.253667	-1.269622
H102	H	-0.101987	2.095528	-1.123456
H103	H	-0.493292	1.780359	-0.853134
H104	H	-0.626349	1.789918	-0.843684
H105	H	-0.824777	1.732979	-0.900759
