data_functionalizedCrystal
_audit_creation_method	'MofGen! by Chris Wilmer'
_symmetry_space_group_name_H-M	'P1'
_symmetry_Int_Tables_number	1
_symmetry_cell_setting	triclinic
loop_
_symmetry_equiv_pos_as_xyz
  x,y,z
_cell_length_a	19.805407
_cell_length_b	15.297327
_cell_length_c	19.805399
_cell_angle_alpha	80.350583
_cell_angle_beta	90.019573
_cell_angle_gamma	99.707092
loop_
_atom_site_label
_atom_site_type_symbol
_atom_site_fract_x
_atom_site_fract_y
_atom_site_fract_z
Zn1	Zn	0.988098	-0.359189	0.429336
Zn2	Zn	0.968423	-0.510058	0.335728
Zn3	Zn	0.874909	-0.359214	0.316164
Zn4	Zn	0.855293	-0.510010	0.448869
O5	O	0.921681	-0.434618	0.382524
O6	O	1.080203	-0.379212	0.416932
O7	O	0.955994	-0.490079	0.238420
O8	O	0.906367	-0.232963	0.314814
O9	O	1.065749	-0.490055	0.348159
O10	O	0.989526	-0.232945	0.397962
O11	O	0.887290	-0.379254	0.224047
O12	O	0.777592	-0.379208	0.333754
O13	O	0.872934	-0.489973	0.540990
O14	O	0.763180	-0.489997	0.431252
O15	O	0.970505	-0.379166	0.526640
O16	O	0.936973	-0.636300	0.367099
O17	O	0.853857	-0.636265	0.450222
C18	C	0.745827	-0.434601	0.382500
C19	C	0.670593	-0.434615	0.382509
C20	C	0.627751	-0.492390	0.433217
C21	C	0.557063	-0.492392	0.433227
C22	C	0.529217	-0.434622	0.382525
C23	C	0.572065	-0.376841	0.331814
C24	C	0.642752	-0.376835	0.331808
C25	C	0.286989	-0.376861	0.331839
C26	C	0.216295	-0.376873	0.331848
C27	C	0.201299	-0.492417	0.433258
C28	C	0.271987	-0.492412	0.433252
C29	C	0.314829	-0.434627	0.382543
C30	C	0.391477	-0.434625	0.382534
C31	C	0.452569	-0.434628	0.382531
C32	C	0.891170	-0.669017	0.412918
C33	C	0.878179	-0.769294	0.425943
C34	C	1.014807	-1.051906	0.289663
C35	C	1.027012	-0.957691	0.277422
C36	C	0.989805	-0.910587	0.314551
C37	C	0.940391	-0.957708	0.363923
C38	C	0.928180	-1.051932	0.376162
C39	C	0.903178	-0.910613	0.401050
C40	C	0.853764	-0.957734	0.450423
C41	C	0.841556	-1.051949	0.462659
C42	C	0.878763	-1.099053	0.425530
C43	C	0.915389	-0.816389	0.388812
C44	C	0.828762	-0.816415	0.475311
C45	C	0.816557	-0.910630	0.487552
C46	C	1.098221	-0.434636	0.382549
C47	C	1.173452	-0.434644	0.382559
C48	C	0.921726	-0.434561	0.559060
C49	C	0.921746	-0.434537	0.634289
C50	C	0.952329	-0.199304	0.352027
C51	C	0.965390	-0.099027	0.339031
C52	C	0.921683	-0.434610	0.206667
C53	C	0.921828	-0.434380	0.131406
C54	C	0.972552	-0.376837	0.662161
C55	C	0.972562	-0.376810	0.732846
C56	C	0.921768	-0.434490	0.775658
C57	C	0.870957	-0.492193	0.747781
C58	C	0.870944	-0.492214	0.677096
C59	C	0.871006	-0.492109	1.032843
C60	C	0.871024	-0.492085	1.103533
C61	C	0.972624	-0.376705	1.088593
C62	C	0.972612	-0.376726	1.017909
C63	C	0.921798	-0.434426	0.990037
C64	C	0.921787	-0.434452	0.913392
C65	C	0.921782	-0.434469	0.852303
H66	H	0.677635	-0.329784	0.290519
C67	C	1.027695	-0.313944	0.971449
C68	C	1.024567	-0.224678	0.977066
C69	C	1.075293	-0.166811	0.934274
H70	H	1.071496	-0.327024	0.984709
H71	H	1.020418	-0.322152	0.925343
H72	H	1.031850	-0.216473	1.023162
H73	H	0.980778	-0.211570	0.963801
H74	H	1.068015	-0.175019	0.888168
H75	H	1.119089	-0.179899	0.947538
H76	H	1.073173	-0.106237	0.938075
C77	C	0.657854	-0.555147	0.488345
C78	C	0.605204	-0.605725	0.532766
C79	C	0.632907	-0.663535	0.583567
H80	H	0.680301	-0.594490	0.467582
H81	H	0.689909	-0.520703	0.513447
H82	H	0.573161	-0.640165	0.507669
H83	H	0.582752	-0.566405	0.553546
H84	H	0.664962	-0.629092	0.608669
H85	H	0.655354	-0.702873	0.562798
H86	H	0.597189	-0.697853	0.613717
C87	C	0.510536	-0.554977	0.488346
C88	C	0.476624	-0.503983	0.525202
C89	C	0.433767	-0.561608	0.575992
H90	H	0.477781	-0.594259	0.467580
H91	H	0.537228	-0.589367	0.518573
H92	H	0.449933	-0.469608	0.494979
H93	H	0.509361	-0.464702	0.545983
H94	H	0.460459	-0.595998	0.606219
H95	H	0.401016	-0.600888	0.555220
H96	H	0.410757	-0.527016	0.601009
C97	C	0.302092	-0.555167	0.488379
C98	C	0.249444	-0.605748	0.532802
C99	C	0.277152	-0.663556	0.583601
H100	H	0.324540	-0.594508	0.467615
H101	H	0.334147	-0.520721	0.513479
H102	H	0.217401	-0.640190	0.507705
H103	H	0.226992	-0.566430	0.553583
H104	H	0.309207	-0.629111	0.608701
H105	H	0.299599	-0.702892	0.562831
H106	H	0.241436	-0.697876	0.613752
H107	H	0.166408	-0.539464	0.474549
C108	C	0.815906	-0.554928	0.794311
C109	C	0.846704	-0.612762	0.842380
C110	C	0.796012	-0.670576	0.885248
H111	H	0.790889	-0.520510	0.817477
H112	H	0.785649	-0.589348	0.767615
H113	H	0.876949	-0.578346	0.869074
H114	H	0.871716	-0.647199	0.819234
H115	H	0.765755	-0.704996	0.858552
H116	H	0.770998	-0.636150	0.908409
H117	H	0.816900	-0.709828	0.917864
C118	C	0.541969	-0.314020	0.276726
C119	C	0.594623	-0.263405	0.232327
C120	C	0.566928	-0.205518	0.181575
H121	H	0.509908	-0.348382	0.251590
H122	H	0.519534	-0.274711	0.297556
H123	H	0.617047	-0.302709	0.211499
H124	H	0.626688	-0.229024	0.257443
H125	H	0.544493	-0.166208	0.202404
H126	H	0.534868	-0.239887	0.156444
H127	H	0.602650	-0.171162	0.151448
C128	C	0.815791	-0.554742	1.149898
C129	C	0.771275	-0.605259	1.110359
C130	C	0.720386	-0.662976	1.153046
H131	H	0.836480	-0.594128	1.182584
H132	H	0.790767	-0.520233	1.172982
H133	H	0.796296	-0.639765	1.087286
H134	H	0.750569	-0.565897	1.077675
H135	H	0.695362	-0.628467	1.176130
H136	H	0.741081	-0.702356	1.185730
H137	H	0.690172	-0.697253	1.126224
C138	C	0.815855	-0.555020	0.646884
C139	C	0.818988	-0.644278	0.675634
C140	C	0.768257	-0.702161	0.647811
H141	H	0.772056	-0.541936	0.656729
H142	H	0.823124	-0.546829	0.598657
H143	H	0.811714	-0.652464	0.723849
H144	H	0.862775	-0.657389	0.665790
H145	H	0.775526	-0.693970	0.599585
H146	H	0.724462	-0.689069	0.657658
H147	H	0.770380	-0.762729	0.667309
H148	H	0.321862	-0.329816	0.290545
H149	H	0.868830	-1.175770	0.435496
H150	H	0.955622	-0.778031	0.348612
H151	H	0.193626	-0.329824	0.290560
C152	C	1.003183	-0.808296	0.301191
C153	C	1.054435	-0.777111	0.250020
C154	C	1.066788	-0.682882	0.237702
H155	H	0.962322	-0.786922	0.286649
H156	H	1.017672	-0.786903	0.342090
H157	H	1.039943	-0.798494	0.209129
H158	H	1.095306	-0.798460	0.264547
H159	H	1.081277	-0.661489	0.278601
H160	H	1.025923	-0.661516	0.223163
H161	H	1.101567	-0.661710	0.202986
H162	H	1.067245	-0.919329	0.237222
H163	H	0.776322	-0.949009	0.527751
C164	C	1.055127	-1.103210	0.249425
C165	C	1.033855	-1.195807	0.270712
C166	C	1.070981	-1.243095	0.233652
H167	H	1.047250	-1.087909	0.201932
H168	H	1.102622	-1.087785	0.257352
H169	H	0.986372	-1.211225	0.262780
H170	H	1.041734	-1.211134	0.318199
H171	H	1.118475	-1.227671	0.241579
H172	H	1.063101	-1.227788	0.186161
H173	H	1.056558	-1.305927	0.248094
H174	H	0.801311	-1.090312	0.502854
H175	H	1.013916	-0.329870	0.627308
C176	C	1.027806	-0.314133	0.762982
C177	C	1.072300	-0.263647	0.710363
C178	C	1.123205	-0.205906	0.738098
H179	H	1.007129	-0.274729	0.785447
H180	H	1.052843	-0.348622	0.795019
H181	H	1.047266	-0.229160	0.678339
H182	H	1.092993	-0.303028	0.687893
H183	H	1.148242	-0.240395	0.770135
H184	H	1.102522	-0.166507	0.760563
H185	H	1.153404	-0.171650	0.702402
C186	C	1.027888	-0.314161	1.118833
C187	C	1.092292	-0.333838	1.104216
C188	C	1.143216	-0.276253	1.132068
H189	H	1.025971	-0.253515	1.099414
H190	H	1.020667	-0.322412	1.167069
H191	H	1.099511	-0.325580	1.055990
H192	H	1.094231	-0.394473	1.123636
H193	H	1.135994	-0.284503	1.180304
H194	H	1.141292	-0.215610	1.112647
H195	H	1.186919	-0.289601	1.122160
H196	H	0.798463	-0.778063	0.505543
H197	H	0.829639	-0.539104	1.010161
