data_functionalizedCrystal
_audit_creation_method	'MofGen! by Chris Wilmer'
_symmetry_space_group_name_H-M	'P1'
_symmetry_Int_Tables_number	1
_symmetry_cell_setting	triclinic
loop_
_symmetry_equiv_pos_as_xyz
  x,y,z
_cell_length_a	25.639242
_cell_length_b	25.639240
_cell_length_c	16.625539
_cell_angle_alpha	90.038438
_cell_angle_beta	90.028772
_cell_angle_gamma	90.027658
loop_
_atom_site_label
_atom_site_type_symbol
_atom_site_fract_x
_atom_site_fract_y
_atom_site_fract_z
Zn1	Zn	0.799284	-0.208221	0.456029
Zn2	Zn	1.132617	0.125112	0.789362
Zn3	Zn	1.465950	0.458446	1.122696
Zn4	Zn	0.799205	-0.295659	0.321172
Zn5	Zn	1.132539	0.037675	0.654506
Zn6	Zn	1.465872	0.371008	0.987839
Zn7	Zn	0.711849	-0.208231	0.321190
Zn8	Zn	1.045182	0.125102	0.654524
Zn9	Zn	1.378516	0.458435	0.987857
Zn10	Zn	0.711814	-0.295619	0.455943
Zn11	Zn	1.045148	0.037714	0.789276
Zn12	Zn	1.378481	0.371047	1.122610
O13	O	0.755538	-0.251933	0.388584
O14	O	1.088871	0.081401	0.721917
O15	O	1.422205	0.414734	1.055250
O16	O	0.872439	-0.219832	0.438168
O17	O	1.205772	0.113501	0.771502
O18	O	1.539105	0.446835	1.104835
O19	O	0.787599	-0.284082	0.208342
O20	O	1.120932	0.049251	0.541676
O21	O	1.454266	0.382584	0.875009
O22	O	0.723495	-0.135065	0.339120
O23	O	1.056828	0.198269	0.672454
O24	O	1.390162	0.531602	1.005787
O25	O	0.872381	-0.284072	0.339090
O26	O	1.205714	0.049261	0.672423
O27	O	1.539048	0.382595	1.005757
O28	O	0.787733	-0.135057	0.438186
O29	O	1.121066	0.198276	0.771519
O30	O	1.454399	0.531610	1.104852
O31	O	0.723419	-0.219850	0.208355
O32	O	1.056752	0.113484	0.541689
O33	O	1.390085	0.446817	0.875022
O34	O	0.638679	-0.219812	0.339037
O35	O	0.972013	0.113522	0.672370
O36	O	1.305346	0.446855	1.005704
O37	O	0.723435	-0.284005	0.568787
O38	O	1.056769	0.049328	0.902120
O39	O	1.390102	0.382662	1.235453
O40	O	0.638654	-0.284015	0.438039
O41	O	0.971987	0.049318	0.771372
O42	O	1.305320	0.382652	1.104706
O43	O	0.787699	-0.219794	0.568850
O44	O	1.121032	0.113540	0.902183
O45	O	1.454366	0.446873	1.235517
O46	O	0.787565	-0.368819	0.339006
O47	O	1.120899	-0.035485	0.672340
O48	O	1.454232	0.297848	1.005673
O49	O	0.723359	-0.368790	0.438022
O50	O	1.056693	-0.035456	0.771355
O51	O	1.390026	0.297877	1.104688
C52	C	0.619696	-0.251911	0.388531
C53	C	0.953029	0.081423	0.721864
C54	C	1.286362	0.414756	1.055198
C55	C	0.561581	-0.251914	0.388528
C56	C	0.894915	0.081420	0.721861
C57	C	1.228248	0.414753	1.055194
C58	C	0.755464	-0.387775	0.388520
C59	C	1.088798	-0.054442	0.721854
C60	C	1.422131	0.278891	1.055187
C61	C	0.755480	-0.445889	0.388520
C62	C	1.088814	-0.112556	0.721854
C63	C	1.422147	0.220777	1.055187
C64	C	0.310393	-0.218446	0.337122
C65	C	0.643726	0.114887	0.670456
C66	C	0.977059	0.448221	1.003789
C67	C	0.364997	-0.218441	0.337112
C68	C	0.698330	0.114892	0.670445
C69	C	1.031664	0.448225	1.003779
O70	O	0.393237	-0.189955	0.293360
O71	O	0.726571	0.143378	0.626693
O72	O	1.059904	0.476712	0.960027
N73	N	0.392308	-0.251920	0.388568
N74	N	0.725641	0.081413	0.721902
N75	N	1.058974	0.414746	1.055235
C76	C	0.365011	-0.285402	0.440044
C77	C	0.698344	0.047931	0.773377
C78	C	1.031678	0.381264	1.106711
O79	O	0.393255	-0.313878	0.483811
O80	O	0.726588	0.019455	0.817145
O81	O	1.059922	0.352789	1.150478
C82	C	0.310408	-0.285404	0.440058
C83	C	0.643741	0.047929	0.773391
C84	C	0.977074	0.381262	1.106724
C85	C	0.283100	-0.251927	0.388592
C86	C	0.616433	0.081407	0.721926
C87	C	0.949767	0.414740	1.055259
C88	C	0.283085	-0.184971	0.285662
C89	C	0.616418	0.148362	0.618995
C90	C	0.949751	0.481696	0.952328
C91	C	0.228484	-0.184977	0.285671
C92	C	0.561817	0.148357	0.619004
C93	C	0.895151	0.481690	0.952338
C94	C	0.201191	-0.218457	0.337141
C95	C	0.534525	0.114876	0.670474
C96	C	0.867858	0.448209	1.003808
C97	C	0.228499	-0.251932	0.388602
C98	C	0.561833	0.081401	0.721935
C99	C	0.895166	0.414734	1.055268
C100	C	0.283112	-0.318883	0.491537
C101	C	0.616446	0.014450	0.824870
C102	C	0.949779	0.347783	1.158204
C103	C	0.228505	-0.318882	0.491547
C104	C	0.561839	0.014451	0.824880
C105	C	0.895172	0.347785	1.158213
C106	C	0.201197	-0.285405	0.440081
C107	C	0.534531	0.047929	0.773414
C108	C	0.867864	0.381262	1.106748
C109	C	0.146606	-0.285419	0.440081
C110	C	0.479940	0.047914	0.773414
C111	C	0.813273	0.381248	1.106748
N112	N	0.119296	-0.251940	0.388625
N113	N	0.452629	0.081393	0.721958
N114	N	0.785962	0.414727	1.055291
C115	C	0.146588	-0.218459	0.337155
C116	C	0.479922	0.114874	0.670488
C117	C	0.813255	0.448208	1.003821
C118	C	0.479682	-0.285395	0.440012
C119	C	0.813015	0.047938	0.773346
C120	C	1.146348	0.381271	1.106679
C121	C	0.534284	-0.285397	0.439995
C122	C	0.867617	0.047937	0.773328
C123	C	1.200951	0.381270	1.106662
C124	C	0.534266	-0.218435	0.337064
C125	C	0.867599	0.114899	0.670397
C126	C	1.200933	0.448232	1.003731
C127	C	0.479663	-0.218436	0.337078
C128	C	0.812996	0.114897	0.670411
C129	C	1.146329	0.448230	1.003744
C130	C	0.452371	-0.251916	0.388556
C131	C	0.785704	0.081417	0.721889
C132	C	1.119038	0.414750	1.055223
C133	C	0.031923	-0.218474	0.337178
C134	C	0.365256	0.114859	0.670511
C135	C	0.698590	0.448193	1.003845
C136	C	-0.022682	-0.218484	0.337189
C137	C	0.310651	0.114849	0.670523
C138	C	0.643984	0.448183	1.003856
C139	C	-0.022660	-0.285444	0.440123
C140	C	0.310674	0.047889	0.773457
C141	C	0.644007	0.381223	1.106790
C142	C	0.031941	-0.285436	0.440109
C143	C	0.365274	0.047897	0.773442
C144	C	0.698608	0.381231	1.106776
C145	C	0.059231	-0.251947	0.388634
C146	C	0.392564	0.081387	0.721967
C147	C	0.725898	0.414720	1.055300
O148	O	0.118331	-0.313889	0.483813
O149	O	0.451664	0.019444	0.817147
O150	O	0.784998	0.352778	1.150480
O151	O	0.118338	-0.189983	0.293402
O152	O	0.451671	0.143350	0.626736
O153	O	0.785004	0.476683	0.960069
C154	C	0.789003	-0.806210	0.440260
C155	C	1.122337	-0.472876	0.773593
C156	C	1.455670	-0.139543	1.106927
C157	C	0.789019	-0.860814	0.440276
C158	C	1.122352	-0.527481	0.773610
C159	C	1.455685	-0.194147	1.106943
O160	O	0.817433	-0.889015	0.484202
O161	O	1.150767	-0.555681	0.817536
O162	O	1.484100	-0.222348	1.150869
N163	N	0.755611	-0.888172	0.388662
N164	N	1.088944	-0.554838	0.721995
N165	N	1.422277	-0.221505	1.055328
C166	C	0.722181	-0.860922	0.337033
C167	C	1.055514	-0.527589	0.670366
C168	C	1.388848	-0.194255	1.003699
O169	O	0.693766	-0.889206	0.293132
O170	O	1.027099	-0.555873	0.626466
O171	O	1.360433	-0.222539	0.959799
C172	C	0.722163	-0.806319	0.337021
C173	C	1.055497	-0.472985	0.670354
C174	C	1.388830	-0.139652	1.003688
C175	C	0.755578	-0.778964	0.388633
C176	C	1.088911	-0.445631	0.721967
C177	C	1.422244	-0.112297	1.055300
C178	C	0.822414	-0.778855	0.491869
C179	C	1.155748	-0.445522	0.825202
C180	C	1.489081	-0.112188	1.158536
C181	C	0.822399	-0.724254	0.491851
C182	C	1.155733	-0.390921	0.825185
C183	C	1.489066	-0.057588	1.158518
C184	C	0.788974	-0.697009	0.440225
C185	C	1.122307	-0.363675	0.773558
C186	C	1.455640	-0.030342	1.106891
C187	C	0.755563	-0.724364	0.388616
C188	C	1.088896	-0.391030	0.721949
C189	C	1.422229	-0.057697	1.055282
C190	C	0.688732	-0.779070	0.285397
C191	C	1.022065	-0.445737	0.618730
C192	C	1.355398	-0.112404	0.952063
C193	C	0.688717	-0.724463	0.285390
C194	C	1.022050	-0.391130	0.618723
C195	C	1.355383	-0.057797	0.952057
C196	C	0.722131	-0.697108	0.337002
C197	C	1.055464	-0.363775	0.670336
C198	C	1.388797	-0.030442	1.003669
C199	C	0.722122	-0.642517	0.336972
C200	C	1.055455	-0.309184	0.670305
C201	C	1.388789	0.024149	1.003638
N202	N	0.755530	-0.615160	0.388586
N203	N	1.088863	-0.281826	0.721920
N204	N	1.422197	0.051507	1.055253
C205	C	0.788956	-0.642405	0.440213
C206	C	1.122289	-0.309072	0.773546
C207	C	1.455623	0.024261	1.106880
C208	C	0.722220	-0.975593	0.337062
C209	C	1.055553	-0.642259	0.670396
C210	C	1.388887	-0.308926	1.003729
C211	C	0.722240	-1.030195	0.337069
C212	C	1.055573	-0.696862	0.670403
C213	C	1.388907	-0.363528	1.003736
C214	C	0.789077	-1.030083	0.440314
C215	C	1.122410	-0.696750	0.773648
C216	C	1.455744	-0.363417	1.106981
C217	C	0.789059	-0.975480	0.440303
C218	C	1.122393	-0.642147	0.773636
C219	C	1.455726	-0.308813	1.106969
C220	C	0.755628	-0.948235	0.388677
C221	C	1.088962	-0.614902	0.722010
C222	C	1.422295	-0.281568	1.055344
C223	C	0.788923	-0.527740	0.440172
C224	C	1.122256	-0.194407	0.773505
C225	C	1.455589	0.138926	1.106838
C226	C	0.788906	-0.473135	0.440147
C227	C	1.122240	-0.139802	0.773480
C228	C	1.455573	0.193532	1.106814
C229	C	0.722067	-0.473252	0.336905
C230	C	1.055401	-0.139918	0.670239
C231	C	1.388734	0.193415	1.003572
C232	C	0.722085	-0.527852	0.336927
C233	C	1.055419	-0.194519	0.670260
C234	C	1.388752	0.138815	1.003593
C235	C	0.755515	-0.555095	0.388566
C236	C	1.088848	-0.221762	0.721900
C237	C	1.422181	0.111571	1.055233
O238	O	0.693720	-0.614282	0.293070
O239	O	1.027054	-0.280949	0.626404
O240	O	1.360387	0.052385	0.959737
O241	O	0.817361	-0.614115	0.484114
O242	O	1.150695	-0.280782	0.817447
O243	O	1.484028	0.052552	1.150780
C244	C	0.891911	-0.251955	0.388637
C245	C	1.225244	0.081378	0.721970
C246	C	1.558578	0.414711	1.055303
C247	C	0.950025	-0.251965	0.388659
C248	C	1.283358	0.081369	0.721993
C249	C	1.616692	0.414702	1.055326
C250	C	0.755572	-0.251894	0.598893
C251	C	1.088905	0.081440	0.932226
C252	C	1.422239	0.414773	1.265559
C253	C	0.755587	-0.251877	0.688514
C254	C	1.088920	0.081456	1.021847
C255	C	1.422253	0.414790	1.355180
C256	C	0.755626	-0.115560	0.388665
C257	C	1.088960	0.217774	0.721998
C258	C	1.422293	0.551107	1.055331
C259	C	0.755664	-0.057446	0.388699
C260	C	1.088997	0.275888	0.722033
C261	C	1.422331	0.609221	1.055366
C262	C	0.755534	-0.251934	0.179093
C263	C	1.088868	0.081400	0.512426
C264	C	1.422201	0.414733	0.845759
C265	C	0.755621	-0.251803	0.089472
C266	C	1.088954	0.081530	0.422805
C267	C	1.422288	0.414864	0.756139
C268	C	0.755611	-0.251819	1.016690
C269	C	1.088944	0.081515	1.350023
C270	C	1.422277	0.414848	1.683356
C271	C	0.755603	-0.251837	0.925381
C272	C	1.088936	0.081497	1.258714
C273	C	1.422269	0.414830	1.592048
C274	C	0.755599	-0.251848	0.852605
C275	C	1.088932	0.081485	1.185938
C276	C	1.422266	0.414818	1.519271
C277	C	0.755590	-0.251865	0.761290
C278	C	1.088924	0.081468	1.094624
C279	C	1.422257	0.414801	1.427957
H280	H	-0.044914	-0.191222	0.295278
H281	H	0.288419	0.142112	0.628611
H282	H	0.621753	0.475445	0.961944
H283	H	0.206287	-0.346144	0.533470
H284	H	0.539621	-0.012811	0.866803
H285	H	0.872954	0.320522	1.200137
C286	C	0.061934	-0.181637	0.280548
C287	C	0.395267	0.151696	0.613881
C288	C	0.728601	0.485030	0.947215
N289	N	0.084538	-0.153894	0.237890
N290	N	0.417871	0.179439	0.571223
N291	N	0.751205	0.512773	0.904556
C292	C	0.313098	-0.148138	0.229033
C293	C	0.646431	0.185195	0.562366
C294	C	0.979765	0.518529	0.895699
N295	N	0.335700	-0.120396	0.186371
N296	N	0.669034	0.212937	0.519704
N297	N	1.002367	0.546270	0.853037
C298	C	0.685299	-0.443271	0.280122
C299	C	1.018632	-0.109937	0.613455
C300	C	1.351965	0.223396	0.946789
N301	N	0.657601	-0.420688	0.237358
N302	N	0.990934	-0.087354	0.570691
N303	N	1.324267	0.245979	0.904024
H304	H	0.816293	-1.052277	0.482353
H305	H	1.149627	-0.718943	0.815686
H306	H	1.482960	-0.385610	1.149020
C307	C	0.825815	-0.945395	0.497083
C308	C	1.159148	-0.612061	0.830416
C309	C	1.492482	-0.278728	1.163750
N310	N	0.853500	-0.922737	0.539854
N311	N	1.186833	-0.589404	0.873187
N312	N	1.520167	-0.256071	1.206521
H313	H	0.695037	-1.052463	0.295033
H314	H	1.028370	-0.719129	0.628366
H315	H	1.361703	-0.385796	0.961699
H316	H	0.556498	-0.191172	0.295156
H317	H	0.889831	0.142162	0.628489
H318	H	1.223164	0.475495	0.961823
C319	C	0.825667	-0.443048	0.496925
C320	C	1.159001	-0.109715	0.830258
C321	C	1.492334	0.223619	1.163591
N322	N	0.853355	-0.420388	0.539689
N323	N	1.186688	-0.087055	0.873022
N324	N	1.520022	0.246278	1.206356
C325	C	0.685443	-0.945628	0.280263
C326	C	1.018776	-0.612295	0.613597
C327	C	1.352109	-0.278962	0.946930
N328	N	0.657741	-0.923062	0.237484
N329	N	0.991074	-0.589729	0.570818
N330	N	1.324407	-0.256395	0.904151
C331	C	0.685331	-0.557943	0.280146
C332	C	1.018665	-0.224610	0.613479
C333	C	1.351998	0.108723	0.946813
N334	N	0.657644	-0.580604	0.237384
N335	N	0.990977	-0.247271	0.570717
N336	N	1.324310	0.086062	0.904050
H337	H	0.661523	-0.801333	0.243368
H338	H	0.994856	-0.468000	0.576701
H339	H	1.328189	-0.134667	0.910035
H340	H	0.816140	-0.549915	0.482227
H341	H	1.149474	-0.216582	0.815560
H342	H	1.482807	0.116751	1.148894
H343	H	0.661491	-0.702283	0.243351
H344	H	0.994825	-0.368950	0.576684
H345	H	1.328158	-0.035616	0.910018
H346	H	0.206255	-0.157716	0.243763
H347	H	0.539588	0.175618	0.577096
H348	H	0.872922	0.508951	0.910429
H349	H	0.457432	-0.191174	0.295173
H350	H	0.790766	0.142159	0.628506
H351	H	1.124099	0.475492	0.961839
C352	C	0.061981	-0.322264	0.496721
C353	C	0.395314	0.011069	0.830054
C354	C	0.728647	0.344403	1.163388
N355	N	0.084603	-0.349999	0.539369
N356	N	0.417936	-0.016666	0.872702
N357	N	0.751269	0.316667	1.206036
C358	C	0.564317	-0.322230	0.496603
C359	C	0.897650	0.011103	0.829936
C360	C	1.230983	0.344437	1.163269
N361	N	0.586935	-0.349972	0.539245
N362	N	0.920268	-0.016639	0.872578
N363	N	1.253602	0.316695	1.205911
C364	C	0.449666	-0.322238	0.496632
C365	C	0.782999	0.011096	0.829966
C366	C	1.116332	0.344429	1.163299
N367	N	0.427060	-0.349988	0.539277
N368	N	0.760394	-0.016655	0.872610
N369	N	1.093727	0.316678	1.205943
H370	H	0.305337	-0.346145	0.533445
H371	H	0.638670	-0.012811	0.866779
H372	H	0.972004	0.320522	1.200112
C373	C	-0.052692	-0.322270	0.496739
C374	C	0.280641	0.011064	0.830073
C375	C	0.613975	0.344397	1.163406
N376	N	-0.075314	-0.350004	0.539388
N377	N	0.258019	-0.016671	0.872721
N378	N	0.591353	0.316663	1.206055
C379	C	0.859160	-0.694171	0.548627
C380	C	1.192493	-0.360838	0.881960
C381	C	1.525826	-0.027505	1.215294
N382	N	0.886850	-0.671516	0.591393
N383	N	1.220183	-0.338183	0.924726
N384	N	1.553517	-0.004849	1.258059
H385	H	0.849633	-0.801033	0.533914
H386	H	1.182967	-0.467699	0.867248
H387	H	1.516300	-0.134366	1.200581
