data_functionalizedCrystal
_audit_creation_method	'MofGen! by Chris Wilmer'
_symmetry_space_group_name_H-M	'P1'
_symmetry_Int_Tables_number	1
_symmetry_cell_setting	triclinic
loop_
_symmetry_equiv_pos_as_xyz
  x,y,z
_cell_length_a	16.120530
_cell_length_b	16.959454
_cell_length_c	16.959434
_cell_angle_alpha	89.918911
_cell_angle_beta	87.039288
_cell_angle_gamma	87.096981
loop_
_atom_site_label
_atom_site_type_symbol
_atom_site_fract_x
_atom_site_fract_y
_atom_site_fract_z
Zn1	Zn	1.275085	-0.375520	-0.508216
Zn2	Zn	1.608419	-0.042187	-0.174883
Zn3	Zn	1.941752	0.291147	0.158450
Zn4	Zn	1.274940	-0.507842	-0.376050
Zn5	Zn	1.608273	-0.174509	-0.042717
Zn6	Zn	1.941607	0.158824	0.290616
Zn7	Zn	1.135561	-0.368979	-0.369350
Zn8	Zn	1.468894	-0.035646	-0.036017
Zn9	Zn	1.802227	0.297688	0.297316
Zn10	Zn	1.135680	-0.500956	-0.501499
Zn11	Zn	1.469013	-0.167623	-0.168165
Zn12	Zn	1.802347	0.165710	0.165168
O13	O	1.205317	-0.438324	-0.438779
O14	O	1.538650	-0.104991	-0.105446
O15	O	1.871983	0.228342	0.227888
O16	O	1.391738	-0.398692	-0.496300
O17	O	1.725072	-0.065358	-0.162966
O18	O	2.058405	0.267975	0.170367
O19	O	1.256340	-0.489566	-0.264545
O20	O	1.589674	-0.156233	0.068788
O21	O	1.923007	0.177100	0.402121
O22	O	1.154080	-0.259236	-0.387779
O23	O	1.487413	0.074097	-0.054445
O24	O	1.820747	0.407430	0.278888
O25	O	1.391632	-0.495908	-0.399198
O26	O	1.724965	-0.162575	-0.065865
O27	O	2.058298	0.170758	0.267469
O28	O	1.256588	-0.264042	-0.489803
O29	O	1.589921	0.069291	-0.156470
O30	O	1.923255	0.402625	0.176864
O31	O	1.153939	-0.387544	-0.259623
O32	O	1.487272	-0.054211	0.073711
O33	O	1.820606	0.279123	0.407044
O34	O	1.018904	-0.380867	-0.381265
O35	O	1.352238	-0.047534	-0.047931
O36	O	1.685571	0.285800	0.285402
O37	O	1.154283	-0.484173	-0.613006
O38	O	1.487616	-0.150839	-0.279673
O39	O	1.820950	0.182494	0.053660
O40	O	1.018992	-0.477830	-0.478354
O41	O	1.352325	-0.144497	-0.145020
O42	O	1.685658	0.188836	0.188313
O43	O	1.256703	-0.392015	-0.617942
O44	O	1.590037	-0.058682	-0.284608
O45	O	1.923370	0.274652	0.048725
O46	O	1.256456	-0.617539	-0.392684
O47	O	1.589789	-0.284206	-0.059351
O48	O	1.923123	0.049127	0.273983
O49	O	1.154142	-0.612480	-0.484850
O50	O	1.487475	-0.279147	-0.151517
O51	O	1.820809	0.054186	0.181816
C52	C	1.205319	-0.643691	-0.438784
C53	C	1.538652	-0.310357	-0.105450
C54	C	1.871985	0.022976	0.227883
C55	C	1.205396	-0.731551	-0.438816
C56	C	1.538729	-0.398218	-0.105482
C57	C	1.872063	-0.064884	0.227851
C58	C	0.988696	-0.427892	-0.428354
C59	C	1.322030	-0.094559	-0.095020
C60	C	1.655363	0.238774	0.238313
C61	C	0.896025	-0.423448	-0.423912
C62	C	1.229358	-0.090115	-0.090579
C63	C	1.562692	0.243218	0.242754
C64	C	1.205523	-0.438055	-0.644958
C65	C	1.538856	-0.104722	-0.311624
C66	C	1.872189	0.228611	0.021709
C67	C	1.205611	-0.437941	-0.732819
C68	C	1.538944	-0.104607	-0.399485
C69	C	1.872277	0.228726	-0.066152
C70	C	0.726354	-0.415317	-0.415811
C71	C	1.059687	-0.081983	-0.082477
C72	C	1.393021	0.251350	0.250856
C73	C	0.685120	-0.461390	-0.461805
C74	C	1.018453	-0.128057	-0.128472
C75	C	1.351786	0.205276	0.204862
C76	C	0.590709	-0.456866	-0.457297
C77	C	0.924042	-0.123532	-0.123964
C78	C	1.257375	0.209801	0.209369
C79	C	0.820773	-0.419840	-0.420318
C80	C	1.154107	-0.086507	-0.086984
C81	C	1.487440	0.246826	0.246349
C82	C	1.422783	-0.448798	-0.449245
C83	C	1.756116	-0.115465	-0.115912
C84	C	2.089449	0.217869	0.217421
C85	C	1.515454	-0.453261	-0.453706
C86	C	1.848787	-0.119928	-0.120372
C87	C	2.182120	0.213406	0.212961
C88	C	1.205337	-0.232157	-0.438793
C89	C	1.538670	0.101176	-0.105459
C90	C	1.872004	0.434509	0.227874
C91	C	1.205346	-0.144301	-0.438799
C92	C	1.538679	0.189032	-0.105465
C93	C	1.872012	0.522366	0.227868
C94	C	1.258763	0.224673	-0.491933
C95	C	1.592096	0.558006	-0.158600
C96	C	1.925430	0.891340	0.174733
C97	C	1.152021	0.229672	-0.385695
C98	C	1.485354	0.563005	-0.052361
C99	C	1.818687	0.896339	0.280972
C100	C	1.152008	0.147127	-0.385691
C101	C	1.485342	0.480460	-0.052358
C102	C	1.818675	0.813793	0.280975
C103	C	1.205375	0.103351	-0.438809
C104	C	1.538709	0.436684	-0.105476
C105	C	1.872042	0.770017	0.227858
C106	C	1.258754	0.142120	-0.491930
C107	C	1.592088	0.475453	-0.158597
C108	C	1.925421	0.808786	0.174737
C109	C	1.098636	0.108351	-0.332566
C110	C	1.431970	0.441684	0.000768
C111	C	1.765303	0.775018	0.334101
C112	C	1.098623	0.025801	-0.332559
C113	C	1.431956	0.359134	0.000774
C114	C	1.765289	0.692467	0.334107
C115	C	1.151986	-0.017977	-0.385682
C116	C	1.485319	0.315356	-0.052348
C117	C	1.818653	0.648690	0.280985
C118	C	1.205367	0.020797	-0.438805
C119	C	1.538700	0.354131	-0.105472
C120	C	1.872033	0.687464	0.227861
C121	C	1.258733	-0.022979	-0.491923
C122	C	1.592067	0.310355	-0.158590
C123	C	1.925400	0.643688	0.174744
C124	C	1.312110	0.015794	-0.545052
C125	C	1.645444	0.349128	-0.211718
C126	C	1.978777	0.682461	0.121615
C127	C	1.312117	0.098342	-0.545052
C128	C	1.645451	0.431676	-0.211719
C129	C	1.978784	0.765009	0.121614
C130	C	1.151979	-0.100525	-0.385681
C131	C	1.485312	0.232808	-0.052348
C132	C	1.818645	0.566142	0.280986
C133	C	1.258725	-0.105532	-0.491920
C134	C	1.592058	0.227802	-0.158586
C135	C	1.925391	0.561135	0.174747
C136	C	1.205159	-0.438538	-0.233405
C137	C	1.538492	-0.105204	0.099929
C138	C	1.871826	0.228129	0.433262
C139	C	1.205233	-0.438438	-0.145552
C140	C	1.538566	-0.105104	0.187781
C141	C	1.871899	0.228229	0.521115
C142	C	1.152635	-0.486357	0.228683
C143	C	1.485968	-0.153024	0.562017
C144	C	1.819302	0.180310	0.895350
C145	C	1.258509	-0.389623	0.223130
C146	C	1.591843	-0.056290	0.556463
C147	C	1.925176	0.277043	0.889796
C148	C	1.258436	-0.389723	0.140587
C149	C	1.591769	-0.056390	0.473921
C150	C	1.925102	0.276944	0.807254
C151	C	1.205460	-0.438139	0.102089
C152	C	1.538793	-0.104806	0.435423
C153	C	1.872127	0.228527	0.768756
C154	C	1.152558	-0.486456	0.146134
C155	C	1.485891	-0.153123	0.479467
C156	C	1.819225	0.180210	0.812800
C157	C	1.311331	-0.341401	0.096537
C158	C	1.644664	-0.008068	0.429871
C159	C	1.977997	0.325265	0.763204
C160	C	1.311259	-0.341498	0.013990
C161	C	1.644592	-0.008165	0.347323
C162	C	1.977925	0.325169	0.680657
C163	C	1.258287	-0.389919	-0.024509
C164	C	1.591620	-0.056586	0.308824
C165	C	1.924953	0.276747	0.642157
C166	C	1.205383	-0.438239	0.019540
C167	C	1.538716	-0.104905	0.352873
C168	C	1.872050	0.228428	0.686207
C169	C	1.152408	-0.486655	-0.018958
C170	C	1.485741	-0.153322	0.314375
C171	C	1.819074	0.180011	0.647709
C172	C	1.099508	-0.534979	0.025090
C173	C	1.432841	-0.201646	0.358423
C174	C	1.766174	0.131687	0.691756
C175	C	1.099586	-0.534878	0.107634
C176	C	1.432919	-0.201544	0.440967
C177	C	1.766253	0.131789	0.774301
C178	C	1.258208	-0.390021	-0.107054
C179	C	1.591542	-0.056688	0.226279
C180	C	1.924875	0.276645	0.559613
C181	C	1.152331	-0.486755	-0.101508
C182	C	1.485664	-0.153421	0.231826
C183	C	1.818997	0.179912	0.565159
H184	H	0.720723	-0.504232	-0.504568
H185	H	1.054056	-0.170899	-0.171235
H186	H	1.387389	0.162434	0.162098
H187	H	0.690753	-0.372478	-0.373051
H188	H	1.024087	-0.039144	-0.039718
H189	H	1.357420	0.294189	0.293615
Cl190	Cl	1.325814	-0.160558	-0.558705
Cl191	Cl	1.659147	0.172775	-0.225371
Cl192	Cl	1.992480	0.506109	0.107962
Cl193	Cl	1.379202	-0.039248	-0.611820
Cl194	Cl	1.712536	0.294085	-0.278487
Cl195	Cl	2.045869	0.627418	0.054846
Cl196	Cl	1.031555	0.163386	-0.265791
Cl197	Cl	1.364889	0.496719	0.067543
Cl198	Cl	1.698222	0.830053	0.400876
H199	H	1.355576	0.129916	-0.588307
H200	H	1.688909	0.463250	-0.254973
H201	H	2.022242	0.796583	0.078360
H202	H	1.354458	-0.301980	0.127889
H203	H	1.687791	0.031353	0.461222
H204	H	2.021124	0.364686	0.794555
Cl205	Cl	1.325855	0.273413	-0.558726
Cl206	Cl	1.659189	0.606747	-0.225392
Cl207	Cl	1.992522	0.940080	0.107941
H208	H	1.301272	-0.350670	-0.142914
H209	H	1.634605	-0.017337	0.190420
H210	H	1.967939	0.315997	0.523753
H211	H	1.108575	0.265317	-0.342444
H212	H	1.441908	0.598650	-0.009111
H213	H	1.775242	0.931983	0.324223
H214	H	1.055160	-0.005761	-0.289300
H215	H	1.388493	0.327572	0.044034
H216	H	1.721826	0.660905	0.377367
H217	H	1.354334	-0.302151	-0.021867
H218	H	1.687668	0.031182	0.311467
H219	H	2.021001	0.364516	0.644800
H220	H	1.108523	-0.132090	-0.342422
H221	H	1.441856	0.201243	-0.009089
H222	H	1.775190	0.534576	0.324244
Cl223	Cl	1.085733	-0.547629	-0.149898
Cl224	Cl	1.419066	-0.214296	0.183435
Cl225	Cl	1.752400	0.119037	0.516768
Cl226	Cl	1.086137	-0.547105	0.284054
Cl227	Cl	1.419470	-0.213772	0.617388
Cl228	Cl	1.752804	0.119561	0.950721
Cl229	Cl	1.032907	-0.595838	-0.023317
Cl230	Cl	1.366241	-0.262505	0.310016
Cl231	Cl	1.699574	0.070829	0.643349
H232	H	1.056517	-0.574220	0.143505
H233	H	1.389850	-0.240886	0.476838
H234	H	1.723184	0.092447	0.810172
H235	H	1.301636	-0.350201	0.254480
H236	H	1.634969	-0.016868	0.587813
H237	H	1.968302	0.316465	0.921146
