data_functionalizedCrystal
_audit_creation_method	'MofGen! by Chris Wilmer'
_symmetry_space_group_name_H-M	'P1'
_symmetry_Int_Tables_number	1
_symmetry_cell_setting	triclinic
loop_
_symmetry_equiv_pos_as_xyz
  x,y,z
_cell_length_a	16.109301
_cell_length_b	16.109301
_cell_length_c	15.186229
_cell_angle_alpha	90.000809
_cell_angle_beta	89.995060
_cell_angle_gamma	96.538519
loop_
_atom_site_label
_atom_site_type_symbol
_atom_site_fract_x
_atom_site_fract_y
_atom_site_fract_z
O1	O	0.106866	-1.103131	-0.073176
O2	O	0.120165	-0.861069	-0.073190
O3	O	-0.007516	-0.988750	-0.073174
O4	O	0.234546	-0.975450	-0.073192
O5	O	-0.007517	-0.988741	0.073284
O6	O	0.120164	-0.861060	0.073267
O7	O	0.106865	-1.103122	0.073282
Zn8	Zn	0.113514	-0.982089	0.096528
Zn9	Zn	0.113516	-0.982101	-0.096436
O10	O	0.234545	-0.975441	0.073265
C11	C	-0.038491	-0.988206	0.000056
C12	C	-0.130786	-0.986591	0.000057
C13	C	0.119626	-0.830090	0.000037
C14	C	0.118011	-0.737794	0.000032
C15	C	0.107404	-1.134101	0.000053
C16	C	0.109019	-1.226397	0.000052
C17	C	-0.353059	-1.058599	0.000047
C18	C	-0.439779	-1.057075	0.000040
C19	C	-0.419905	-0.905586	0.000034
C20	C	-0.333186	-0.907111	0.000035
C21	C	-0.299766	-0.983620	0.000046
C22	C	-0.473205	-0.980571	0.000038
C23	C	-0.567231	-0.978918	0.000030
C24	C	-0.205734	-0.985273	0.000052
C25	C	0.265521	-0.975984	0.000034
C26	C	0.357816	-0.977600	0.000027
N27	N	0.113512	-0.982087	0.228220
C28	C	0.190018	-0.515522	0.000036
C29	C	0.188494	-0.428801	0.000042
C30	C	0.037006	-0.448676	0.000050
C31	C	0.038530	-0.535394	0.000051
C32	C	0.115039	-0.568815	0.000039
C33	C	0.111990	-0.395376	0.000045
C34	C	0.110337	-0.301350	0.000051
C35	C	0.116693	-0.662847	0.000035
C36	C	0.056995	-1.038643	0.453950
C37	C	0.056994	-1.038645	0.546140
C38	C	0.170034	-0.925545	0.546135
C39	C	0.170031	-0.925539	0.453947
C40	C	0.113513	-0.982093	0.407857
C41	C	0.113514	-0.982101	0.592235
C42	C	0.113513	-0.982103	0.692191
C43	C	0.113513	-0.982090	0.307894
N44	N	0.113515	-0.982107	0.771871
H45	H	-0.325851	-1.120897	0.000054
Br46	Br	-0.019710	-1.115392	0.391403
H47	H	-0.483168	-1.118130	0.000039
H48	H	-0.447127	-0.843295	0.000027
Br49	Br	-0.063234	-0.607728	0.000066
H50	H	-0.025285	-0.421454	0.000065
H51	H	0.216052	-0.879502	0.583670
H52	H	0.252317	-0.542730	0.000034
Br53	Br	-0.019715	-1.115390	0.608694
H54	H	-0.289792	-0.846050	0.000032
Br55	Br	0.290256	-0.356477	0.000042
H56	H	0.216055	-0.879486	0.416415
