data_functionalizedCrystal
_audit_creation_method	'MofGen! by Chris Wilmer'
_symmetry_space_group_name_H-M	'P1'
_symmetry_Int_Tables_number	1
_symmetry_cell_setting	triclinic
loop_
_symmetry_equiv_pos_as_xyz
  x,y,z
_cell_length_a	21.395362
_cell_length_b	12.759400
_cell_length_c	12.759393
_cell_angle_alpha	89.975651
_cell_angle_beta	89.954247
_cell_angle_gamma	90.021373
loop_
_atom_site_label
_atom_site_type_symbol
_atom_site_fract_x
_atom_site_fract_y
_atom_site_fract_z
Zn1	Zn	-0.957966	0.417710	0.594770
Zn2	Zn	-0.457966	0.917710	1.094770
Zn3	Zn	-0.957923	0.593423	0.419107
Zn4	Zn	-0.457923	1.093423	0.919107
Zn5	Zn	-0.853185	0.417815	0.419027
Zn6	Zn	-0.353185	0.917815	0.919027
Zn7	Zn	-0.853200	0.593403	0.594666
Zn8	Zn	-0.353200	1.093403	1.094666
O9	O	-0.905568	0.505588	0.506893
O10	O	-0.405568	1.005588	1.006893
O11	O	-1.045638	0.440983	0.571544
O12	O	-0.545638	0.940983	1.071544
O13	O	-0.944005	0.570181	0.272075
O14	O	-0.444005	1.070181	0.772075
O15	O	-0.867096	0.270780	0.442350
O16	O	-0.367096	0.770780	0.942350
O17	O	-1.045606	0.570079	0.442485
O18	O	-0.545606	1.070079	0.942485
O19	O	-0.944078	0.270703	0.571467
O20	O	-0.444078	0.770703	1.071467
O21	O	-0.867054	0.441162	0.272017
O22	O	-0.367054	0.941162	0.772017
O23	O	-0.765509	0.441143	0.442250
O24	O	-0.265509	0.941143	0.942250
O25	O	-0.867122	0.570044	0.741701
O26	O	-0.367122	1.070044	1.241701
O27	O	-0.765520	0.570147	0.571291
O28	O	-0.265520	1.070147	1.071291
O29	O	-0.944093	0.440963	0.741777
O30	O	-0.444093	0.940963	1.241777
O31	O	-0.944020	0.740442	0.442385
O32	O	-0.444020	1.240442	0.942385
O33	O	-0.867080	0.740427	0.571368
O34	O	-0.367080	1.240427	1.071368
C35	C	-0.742781	0.505655	0.506751
C36	C	-0.242781	1.005655	1.006751
C37	C	-0.673139	0.505709	0.506716
C38	C	-0.173139	1.005709	1.006716
C39	C	-0.640449	0.572972	0.573803
C40	C	-0.140449	1.072972	1.073803
C41	C	-0.575013	0.572951	0.573842
C42	C	-0.075013	1.072951	1.073842
C43	C	-0.542271	0.505677	0.506775
C44	C	-0.042271	1.005677	1.006775
C45	C	-0.574970	0.438401	0.439683
C46	C	-0.074970	0.938401	0.939683
C47	C	-0.640404	0.438416	0.439653
C48	C	-0.140404	0.938416	0.939653
C49	C	-0.438546	0.497247	0.412179
C50	C	0.061454	0.997247	0.912179
C51	C	-0.373113	0.497239	0.412206
C52	C	0.126887	0.997239	0.912206
C53	C	-0.340450	0.505623	0.506866
C54	C	0.159550	1.005623	1.006866
C55	C	-0.373228	0.514037	0.601502
C56	C	0.126772	1.014037	1.101502
C57	C	-0.438663	0.514053	0.601472
C58	C	0.061337	1.014053	1.101472
C59	C	-0.471319	0.505652	0.506800
C60	C	0.028681	1.005652	1.006800
C61	C	-0.236807	0.572867	0.574002
C62	C	0.263193	1.072867	1.074002
C63	C	-0.171370	0.572838	0.574042
C64	C	0.328630	1.072838	1.074042
C65	C	-0.171328	0.438293	0.439874
C66	C	0.328672	0.938293	0.939874
C67	C	-0.236764	0.438317	0.439843
C68	C	0.263236	0.938317	0.939843
C69	C	-0.269499	0.505609	0.506905
C70	C	0.230501	1.005609	1.006905
C71	C	-0.905590	0.231554	0.506911
C72	C	-0.405590	0.731554	1.006911
C73	C	-0.905599	0.114778	0.506919
C74	C	-0.405599	0.614778	1.006919
C75	C	-0.865545	0.059910	0.574074
C76	C	-0.365545	0.559910	1.074074
C77	C	-0.865556	-0.049814	0.574084
C78	C	-0.365556	0.450186	1.074084
C79	C	-0.945678	-0.049793	0.439776
C80	C	-0.445678	0.450207	0.939776
C81	C	-0.945669	0.059929	0.439772
C82	C	-0.445669	0.559929	0.939772
C83	C	-0.068992	0.505539	0.507005
C84	C	0.431008	1.005539	1.007005
C85	C	-0.138633	0.505563	0.506976
C86	C	0.361367	1.005563	1.006976
C87	C	-0.905564	0.778555	0.506897
C88	C	-0.405564	1.278555	1.006897
C89	C	-0.905619	0.895332	0.506934
C90	C	-0.405619	1.395332	1.006934
C91	C	-0.905614	0.505490	0.780926
C92	C	-0.405614	1.005490	1.280926
C93	C	-0.905633	0.505448	0.897703
C94	C	-0.405633	1.005448	1.397703
C95	C	-0.905559	0.505609	0.233925
C96	C	-0.405559	1.005609	0.733925
C97	C	-0.905661	0.505355	0.117149
C98	C	-0.405661	1.005355	0.617149
C99	C	-0.945718	0.572550	1.062331
C100	C	-0.445718	1.072550	1.562331
C101	C	-0.945703	0.572600	0.952607
C102	C	-0.445703	1.072600	1.452607
C103	C	-0.865572	0.438250	0.952529
C104	C	-0.365572	0.938250	1.452529
C105	C	-0.865584	0.438206	1.062251
C106	C	-0.365584	0.938206	1.562251
H107	H	-0.465348	0.520901	0.678527
H108	H	0.034652	1.020901	1.178527
H109	H	-0.832942	-0.094484	0.628769
H110	H	-0.332942	0.405516	1.128769
H111	H	-0.832921	0.104565	0.628757
H112	H	-0.332921	0.604565	1.128757
Cl113	Cl	-0.996098	0.656968	1.131342
Cl114	Cl	-0.496098	1.156968	1.631342
H115	H	-0.144670	0.383513	0.385272
H116	H	0.355330	0.883513	0.885272
H117	H	-0.978301	-0.094462	0.385105
H118	H	-0.478301	0.405538	0.885105
Cl119	Cl	-0.332174	0.524571	0.720512
Cl120	Cl	0.167826	1.024571	1.220512
Cl121	Cl	-0.815213	0.353741	1.131171
Cl122	Cl	-0.315213	0.853741	1.631171
H123	H	-0.978289	0.104603	0.385086
H124	H	-0.478289	0.604603	0.885086
H125	H	-0.978321	0.627317	0.907978
H126	H	-0.478321	1.127317	1.407978
H127	H	-0.832944	0.383579	0.907817
H128	H	-0.332944	0.883579	1.407817
Cl129	Cl	-0.331913	0.486660	0.293239
Cl130	Cl	0.168087	0.986660	0.793239
H131	H	-0.548391	0.627725	0.628476
H132	H	-0.048391	1.127725	1.128476
H133	H	-0.667098	0.627766	0.628412
H134	H	-0.167098	1.127766	1.128412
H135	H	-0.263462	0.627655	0.628613
H136	H	0.236538	1.127655	1.128613
H137	H	-0.263381	0.383548	0.385208
H138	H	0.236619	0.883548	0.885208
Cl139	Cl	-0.130273	0.657401	0.658395
Cl140	Cl	0.369727	1.157401	1.158395
Cl141	Cl	-0.479601	0.486711	0.293165
Cl142	Cl	0.020399	0.986711	0.793165
Cl143	Cl	-0.681503	0.353849	0.355307
Cl144	Cl	-0.181503	0.853849	0.855307
Cl145	Cl	-0.533809	0.353822	0.355375
Cl146	Cl	-0.033809	0.853822	0.855375
