data_functionalizedCrystal
_audit_creation_method	'MofGen! by Chris Wilmer'
_symmetry_space_group_name_H-M	'P1'
_symmetry_Int_Tables_number	1
_symmetry_cell_setting	triclinic
loop_
_symmetry_equiv_pos_as_xyz
  x,y,z
_cell_length_a	13.032831
_cell_length_b	18.050589
_cell_length_c	13.032268
_cell_angle_alpha	82.850583
_cell_angle_beta	89.113023
_cell_angle_gamma	82.833186
loop_
_atom_site_label
_atom_site_type_symbol
_atom_site_fract_x
_atom_site_fract_y
_atom_site_fract_z
Zn1	Zn	1.498351	-0.501530	0.780835
Zn2	Zn	1.520065	-0.612177	0.608855
Zn3	Zn	1.348217	-0.470507	0.587076
Zn4	Zn	1.326314	-0.608161	0.758980
O5	O	1.423237	-0.548094	0.683937
O6	O	1.645148	-0.530872	0.776283
O7	O	1.515523	-0.582081	0.462049
O8	O	1.368212	-0.370708	0.612810
O9	O	1.661101	-0.612163	0.649930
O10	O	1.478515	-0.393501	0.755164
O11	O	1.389267	-0.477997	0.446048
O12	O	1.201395	-0.474104	0.591619
O13	O	1.330881	-0.605320	0.905796
O14	O	1.185303	-0.575238	0.717916
O15	O	1.457276	-0.526978	0.921853
O16	O	1.494284	-0.715559	0.628738
O17	O	1.351936	-0.712609	0.739034
C18	C	1.156033	-0.520869	0.650033
C19	C	1.041718	-0.509242	0.635553
C20	C	0.982831	-0.554162	0.691494
C21	C	0.864681	-0.542146	0.676530
C22	C	1.423115	-0.741032	0.683904
C23	C	1.423152	-0.823584	0.683936
C24	C	1.345814	-1.021463	0.743900
C25	C	1.332669	-1.060964	0.646879
C26	C	1.423252	-0.974726	0.683962
C27	C	1.436446	-1.082312	0.781001
C28	C	1.423345	-1.120722	0.683996
C29	C	1.410063	-1.013131	0.586886
C30	C	1.513876	-1.034484	0.721076
C31	C	1.500775	-1.073962	0.623995
C32	C	1.423195	-0.890621	0.683944
C33	C	1.423402	-1.204825	0.684003
C34	C	1.691484	-0.575426	0.717973
C35	C	1.805795	-0.587073	0.732478
C36	C	1.389213	-0.569162	0.952184
C37	C	1.374714	-0.578139	1.066495
C38	C	1.423384	-0.354407	0.683996
C39	C	1.423447	-0.271869	0.684021
C40	C	1.457187	-0.527061	0.416741
C41	C	1.471885	-0.517894	0.302456
C42	C	1.430788	-0.543380	1.125403
C43	C	1.415804	-0.552658	1.243549
H44	H	1.004664	-0.461885	0.576587
N45	N	1.296427	-0.626662	1.115528
H46	H	1.225303	-0.606187	1.087562
H47	H	1.296903	-0.626400	1.192970
H48	H	1.530984	-0.481259	1.265427
H49	H	1.356694	-0.589283	1.280578
H50	H	1.256073	-1.072993	0.615515
N51	N	1.587588	-1.104249	0.556795
H52	H	1.577518	-1.078706	0.483555
H53	H	1.587480	-1.160271	0.557732
H54	H	1.019885	-0.601514	0.750468
H55	H	0.842843	-0.634426	0.791459
H56	H	1.590448	-1.022459	0.752483
N57	N	1.258981	-0.990976	0.810924
H58	H	1.190594	-1.000283	0.782765
H59	H	1.260053	-0.935128	0.810939
H60	H	1.398850	-0.983153	0.504801
N61	N	1.451186	-1.122133	0.889680
H62	H	1.392613	-1.102980	0.934875
H63	H	1.519060	-1.112027	0.918083
H64	H	1.489884	-0.506750	1.088368
H65	H	0.827631	-0.494786	0.617559
