data_functionalizedCrystal
_audit_creation_method	'MofGen! by Chris Wilmer'
_symmetry_space_group_name_H-M	'P1'
_symmetry_Int_Tables_number	1
_symmetry_cell_setting	triclinic
loop_
_symmetry_equiv_pos_as_xyz
  x,y,z
_cell_length_a	10.654559
_cell_length_b	10.654558
_cell_length_c	9.130313
_cell_angle_alpha	89.998920
_cell_angle_beta	90.003271
_cell_angle_gamma	84.488455
loop_
_atom_site_label
_atom_site_type_symbol
_atom_site_fract_x
_atom_site_fract_y
_atom_site_fract_z
O1	O	1.667838	0.176445	0.121804
O2	O	1.302361	0.193239	0.121805
O3	O	1.493497	0.002103	0.121798
O4	O	1.476702	0.367580	0.121811
O5	O	1.493484	0.002115	-0.121801
O6	O	1.302348	0.193250	-0.121794
O7	O	1.667825	0.176456	-0.121795
Cu8	Cu	1.485085	0.184854	-0.144037
Cu9	Cu	1.485101	0.184841	0.144047
O10	O	1.476689	0.367591	-0.121788
C11	C	1.255557	0.192009	0.000006
C12	C	1.116114	0.188312	0.000006
C13	C	1.064571	0.072300	-0.000002
C14	C	0.933549	0.068835	0.000009
C15	C	0.905623	0.297403	0.000029
C16	C	1.036643	0.300867	0.000029
C17	C	1.080693	-0.059662	-0.000020
C18	C	0.949670	-0.063128	-0.000009
C19	C	1.492255	-0.044689	0.000000
C20	C	1.488559	-0.184132	0.000005
C21	C	1.714629	0.177686	0.000008
C22	C	1.854072	0.181382	0.000017
C23	C	1.486813	-0.249639	-0.132779
C24	C	1.483351	-0.380662	-0.132773
C25	C	1.483377	-0.380658	0.132812
C26	C	1.486848	-0.249638	0.132805
C27	C	1.486793	-0.249642	-0.286112
C28	C	1.483331	-0.380665	-0.286106
C29	C	1.477931	0.414383	0.000013
C30	C	1.481627	0.553826	0.000018
N31	N	1.485083	0.184863	-0.346659
C32	C	1.561915	0.261740	-0.423323
C33	C	1.561933	0.261717	-0.576660
C34	C	1.408278	0.107936	-0.576656
C35	C	1.408267	0.107954	-0.423322
C36	C	1.650622	0.350528	-0.423326
C37	C	1.650641	0.350505	-0.576663
N38	N	1.485112	0.184822	0.346670
H39	H	0.840902	0.389041	0.000048
H40	H	0.914045	-0.105163	0.105171
H41	H	1.572772	-0.432364	-0.333695
H42	H	1.345737	0.045319	-0.639094
H43	H	1.749672	0.319674	-0.381695
H44	H	1.611095	0.445095	-0.375788
N45	N	1.775986	0.298400	-0.639647
H46	H	1.836531	0.273218	-0.557299
H47	H	1.811340	0.365024	-0.701882
H48	H	1.488286	-0.196309	0.240930
N49	N	1.325411	0.025016	-0.340647
H50	H	1.234253	0.048923	-0.367350
H51	H	1.337161	0.036721	-0.231902
H52	H	0.920294	-0.114724	-0.101957
N53	N	1.609678	0.481677	-0.631835
H54	H	1.591376	0.540227	-0.545857
H55	H	1.531104	0.479717	-0.693347
H56	H	1.122445	-0.109397	0.101918
H57	H	1.078603	0.395335	0.000060
H58	H	1.126327	-0.099524	-0.105203
H59	H	1.481983	-0.434009	0.240933
N60	N	1.604236	-0.216733	-0.364106
H61	H	1.654148	-0.296551	-0.398898
H62	H	1.657399	-0.170512	-0.294568
H63	H	1.397345	-0.197940	-0.333685
H64	H	1.394656	-0.405503	-0.344984
