data_functionalizedCrystal
_audit_creation_method	'MofGen! by Chris Wilmer'
_symmetry_space_group_name_H-M	'P1'
_symmetry_Int_Tables_number	1
_symmetry_cell_setting	triclinic
loop_
_symmetry_equiv_pos_as_xyz
  x,y,z
_cell_length_a	6.817900
_cell_length_b	17.982959
_cell_length_c	19.453114
_cell_angle_alpha	96.125663
_cell_angle_beta	101.709288
_cell_angle_gamma	102.451857
loop_
_atom_site_label
_atom_site_type_symbol
_atom_site_fract_x
_atom_site_fract_y
_atom_site_fract_z
V1	V	-4.001683	-0.106207	-0.219294
O2	O	-3.994949	0.004287	-0.214818
O3	O	-3.948298	-0.209805	-0.218085
O4	O	-3.944659	-0.104931	-0.314804
O5	O	-3.998613	-0.101313	-0.117430
V6	V	-4.487074	-0.092948	-0.207075
O7	O	-4.258843	-0.135291	-0.246098
O8	O	-4.680111	-0.063864	-0.180272
O9	O	-4.317253	0.010650	-0.208285
O10	O	-4.611205	-0.203442	-0.211552
O11	O	-4.607541	-0.097842	-0.308940
O12	O	-4.320891	-0.094224	-0.111566
C13	C	-3.792365	-0.235049	-0.214700
C14	C	-3.829945	-0.319745	-0.214348
C15	C	-4.029200	-0.363428	-0.217697
C16	C	-4.064502	-0.443009	-0.217370
C17	C	-3.900543	-0.478904	-0.213689
C18	C	-3.701272	-0.435215	-0.210342
C19	C	-3.665976	-0.355636	-0.210674
C20	C	-3.843613	-0.756146	-0.209004
C21	C	-3.878925	-0.835730	-0.208670
C22	C	-4.242139	-0.843518	-0.215700
C23	C	-4.206843	-0.763939	-0.216032
C24	C	-4.007579	-0.720258	-0.212689
C25	C	-3.969304	-0.633968	-0.213045
C26	C	-3.938812	-0.565192	-0.213328
C27	C	-3.787723	-0.101271	-0.338074
C28	C	-3.822350	-0.100914	-0.416156
C29	C	-4.020216	-0.104570	-0.456423
C30	C	-4.052753	-0.104234	-0.529789
C31	C	-3.887420	-0.100258	-0.562886
C32	C	-3.689524	-0.096596	-0.522609
C33	C	-3.656989	-0.096924	-0.449244
N34	N	-3.825741	-0.140493	-0.681788
N35	N	-3.856661	-0.140184	-0.751482
C36	C	-3.985434	-0.099267	-0.783932
N37	N	-4.082155	-0.058682	-0.744056
N38	N	-4.051239	-0.058996	-0.674356
C39	C	-3.922678	-0.099901	-0.642439
C40	C	-4.218592	-0.102559	-0.903751
C41	C	-4.251119	-0.102218	-0.977117
C42	C	-3.887888	-0.094588	-0.969938
C43	C	-3.855363	-0.094921	-0.896572
C44	C	-4.020724	-0.098910	-0.863483
C45	C	-4.136528	0.035890	-0.211668
C46	C	-4.078185	0.120585	-0.212024
C47	C	-4.141170	-0.097886	-0.088292
C48	C	-4.085781	-0.098240	-0.010210
H49	H	-4.340357	-0.734717	-0.219026
H50	H	-4.154868	-0.107815	-0.429487
H51	H	-3.503726	-0.320071	-0.207950
H52	H	-4.162716	-0.334207	-0.220687
F53	F	-4.276573	-0.489496	-0.220934
F54	F	-3.513564	-0.092362	-0.557835
H55	H	-4.213887	-0.107216	-0.562581
F56	F	-3.446386	-0.093035	-0.406387
F57	F	-4.454219	-0.890013	-0.219260
F58	F	-3.644769	-0.091039	-0.853716
H59	H	-3.745400	-0.864953	-0.205678
H60	H	-3.681363	-0.720589	-0.206278
H61	H	-3.567779	-0.464448	-0.207350
F62	F	-4.394577	-0.106799	-0.868533
F63	F	-4.461724	-0.106108	-1.019973
F64	F	-3.711918	-0.090344	-1.005156
