data_functionalizedCrystal
_audit_creation_method	'MofGen! by Chris Wilmer'
_symmetry_space_group_name_H-M	'P1'
_symmetry_Int_Tables_number	1
_symmetry_cell_setting	triclinic
loop_
_symmetry_equiv_pos_as_xyz
  x,y,z
_cell_length_a	14.853567
_cell_length_b	15.944551
_cell_length_c	13.930277
_cell_angle_alpha	89.994493
_cell_angle_beta	89.995755
_cell_angle_gamma	83.566834
loop_
_atom_site_label
_atom_site_type_symbol
_atom_site_fract_x
_atom_site_fract_y
_atom_site_fract_z
O1	O	1.196228	0.109664	-0.079767
O2	O	0.933751	0.122728	-0.079783
O3	O	1.072157	-0.006071	-0.079766
O4	O	1.057822	0.238463	-0.079784
O5	O	1.072138	-0.006073	0.079896
O6	O	0.933732	0.122725	0.079878
O7	O	1.196208	0.109662	0.079895
Zn8	Zn	1.064967	0.116193	0.105236
Zn9	Zn	1.064993	0.116197	-0.105125
O10	O	1.057803	0.238460	0.079878
C11	C	0.900154	0.122135	0.000045
C12	C	0.800072	0.120361	0.000039
C13	C	1.071552	-0.037367	0.000065
C14	C	1.069768	-0.130615	0.000065
C15	C	0.387646	0.036354	0.000067
C16	C	0.366169	0.189369	0.000055
C17	C	0.460201	0.191037	0.000051
C18	C	0.517960	0.115362	0.000055
C19	C	0.481687	0.038019	0.000061
C20	C	0.496480	0.268379	0.000035
C21	C	0.590517	0.270050	0.000031
C22	C	0.648278	0.194374	0.000041
C23	C	0.612000	0.117028	0.000049
C24	C	0.669759	0.041353	0.000052
C25	C	0.633483	-0.035994	0.000066
C26	C	0.539448	-0.037657	0.000071
C27	C	0.742313	0.196036	0.000036
C28	C	0.763800	0.043018	0.000046
C29	C	0.979713	-0.345572	0.000047
C30	C	1.021522	-0.406544	0.078772
C31	C	1.066541	-0.301344	0.000058
C32	C	1.021562	-0.406524	-0.078642
C33	C	1.063416	-0.466260	0.000046
C34	C	1.108373	-0.361088	0.078848
C35	C	1.108401	-0.361062	-0.078636
C36	C	1.150273	-0.422017	0.000109
C37	C	1.068338	-0.206340	0.000065
C38	C	1.061626	-0.561263	0.000046
C39	C	1.229806	0.110255	0.000064
C40	C	1.329887	0.112029	0.000064
C41	C	1.058407	0.269756	0.000044
C42	C	1.060191	0.363004	0.000038
N43	N	1.064957	0.116190	0.248803
N44	N	1.065010	0.116193	-0.248691
C45	C	1.003704	0.173206	0.701064
C46	C	1.126306	0.059181	0.701049
C47	C	1.126295	0.059178	0.600553
C48	C	1.064989	0.116191	0.550308
C49	C	1.003693	0.173207	0.600559
C50	C	1.187596	0.002169	0.550295
C51	C	1.187588	0.002164	0.449793
C52	C	1.126277	0.059174	0.399546
C53	C	1.064978	0.116192	0.449803
C54	C	1.003672	0.173205	0.399558
C55	C	0.942368	0.230220	0.449814
C56	C	0.942382	0.230217	0.550312
C57	C	1.126263	0.059177	0.299047
C58	C	1.003661	0.173206	0.299053
H59	H	0.810822	-0.018607	0.000052
H60	H	0.984834	-0.426641	-0.145203
H61	H	0.509903	-0.100629	0.000105
H62	H	1.237514	-0.044246	0.591208
N63	N	0.941024	0.231445	0.247748
N64	N	0.886297	0.282340	0.292632
H65	H	0.842058	0.323472	0.256399
H66	H	0.892471	0.276637	0.591236
N67	N	0.350582	-0.042644	0.000090
N68	N	0.266622	-0.044126	0.000103
H69	H	0.240444	-0.099918	0.000121
N70	N	0.779384	0.275026	0.000031
N71	N	0.863345	0.276504	0.000032
H72	H	0.889527	0.332295	0.000031
H73	H	0.680523	-0.097609	0.000062
H74	H	0.319136	0.250981	0.000044
H75	H	1.222407	-0.455095	0.000158
H76	H	0.953789	0.219625	0.741984
N77	N	0.889300	-0.303895	0.000141
N78	N	0.836744	-0.315812	0.067629
H79	H	0.772890	-0.286378	0.067700
N80	N	0.975461	-0.431832	0.162268
N81	N	1.004235	-0.416390	0.243973
H82	H	0.971701	-0.434246	0.302940
H83	H	1.176224	0.012766	0.741962
N84	N	1.154438	-0.335762	-0.162135
N85	N	1.124854	-0.350070	-0.243817
H86	H	1.157362	-0.332200	-0.302796
H87	H	0.892456	0.276644	0.408893
H88	H	1.145059	-0.341058	0.145478
H89	H	0.449447	0.329989	0.000023
H90	H	1.237504	-0.044260	0.408882
H91	H	0.620045	0.333030	0.000019
N92	N	1.188798	0.000863	0.247729
N93	N	1.243477	-0.050087	0.292601
H94	H	1.287612	-0.091306	0.256359
