data_functionalizedCrystal
_audit_creation_method	'MofGen! by Chris Wilmer'
_symmetry_space_group_name_H-M	'P1'
_symmetry_Int_Tables_number	1
_symmetry_cell_setting	triclinic
loop_
_symmetry_equiv_pos_as_xyz
  x,y,z
_cell_length_a	23.532407
_cell_length_b	27.731996
_cell_length_c	22.610064
_cell_angle_alpha	89.998076
_cell_angle_beta	89.994501
_cell_angle_gamma	82.735067
loop_
_atom_site_label
_atom_site_type_symbol
_atom_site_fract_x
_atom_site_fract_y
_atom_site_fract_z
O1	O	0.755125	0.058674	-0.049155
O2	O	1.005125	0.308674	0.200845
O3	O	1.255125	0.558674	0.450845
O4	O	1.505125	0.808674	0.700845
O5	O	0.589242	0.067164	-0.049165
O6	O	0.839242	0.317164	0.200835
O7	O	1.089242	0.567164	0.450835
O8	O	1.339242	0.817164	0.700835
O9	O	0.677351	-0.007471	-0.049147
O10	O	0.927351	0.242529	0.200853
O11	O	1.177351	0.492529	0.450853
O12	O	1.427351	0.742529	0.700853
O13	O	0.667016	0.133310	-0.049173
O14	O	0.917016	0.383310	0.200827
O15	O	1.167016	0.633310	0.450827
O16	O	1.417016	0.883310	0.700827
O17	O	0.677335	-0.007461	0.049222
O18	O	0.927335	0.242539	0.299222
O19	O	1.177335	0.492539	0.549222
O20	O	1.427335	0.742539	0.799222
O21	O	0.589226	0.067175	0.049204
O22	O	0.839226	0.317175	0.299204
O23	O	1.089226	0.567175	0.549204
O24	O	1.339226	0.817175	0.799204
O25	O	0.755110	0.058685	0.049214
O26	O	1.005110	0.308685	0.299214
O27	O	1.255110	0.558685	0.549214
O28	O	1.505110	0.808685	0.799214
Zn29	Zn	0.672165	0.062932	0.064827
Zn30	Zn	0.922165	0.312932	0.314827
Zn31	Zn	1.172165	0.562932	0.564827
Zn32	Zn	1.422165	0.812932	0.814827
Zn33	Zn	0.672186	0.062917	-0.064778
Zn34	Zn	0.922186	0.312917	0.185222
Zn35	Zn	1.172186	0.562917	0.435222
Zn36	Zn	1.422186	0.812917	0.685222
O37	O	0.667001	0.133321	0.049196
O38	O	0.917001	0.383321	0.299196
O39	O	1.167001	0.633321	0.549196
O40	O	1.417001	0.883321	0.799196
C41	C	0.568019	0.066954	0.000018
C42	C	0.818019	0.316954	0.250018
C43	C	1.068019	0.566954	0.500018
C44	C	1.318019	0.816954	0.750018
C45	C	0.504803	0.066303	0.000015
C46	C	0.754803	0.316303	0.250015
C47	C	1.004803	0.566303	0.500015
C48	C	1.254803	0.816303	0.750015
C49	C	0.238746	0.019455	0.000040
C50	C	0.488746	0.269455	0.250040
C51	C	0.738746	0.519455	0.500040
C52	C	0.988746	0.769455	0.750040
C53	C	0.298145	0.020059	0.000039
C54	C	0.548145	0.270059	0.250039
C55	C	0.798145	0.520059	0.500039
C56	C	1.048145	0.770059	0.750039
O57	O	0.334977	-0.017106	0.000067
O58	O	0.584977	0.232894	0.250067
O59	O	0.834977	0.482894	0.500067
O60	O	1.084977	0.732894	0.750067
N61	N	0.320666	0.064430	0.000027
N62	N	0.570666	0.314430	0.250027
N63	N	0.820666	0.564430	0.500027
N64	N	1.070666	0.814430	0.750027
C65	C	0.283786	0.108200	0.000021
C66	C	0.533786	0.358200	0.250021
C67	C	0.783786	0.608200	0.500021
C68	C	1.033786	0.858200	0.750021
O69	O	0.308396	0.145996	0.000011
O70	O	0.558396	0.395996	0.250011
O71	O	0.808396	0.645996	0.500011
O72	O	1.058396	0.895996	0.750011
C73	C	0.224388	0.107595	0.000026
C74	C	0.474388	0.357595	0.250026
C75	C	0.724388	0.607595	0.500026
C76	C	0.974388	0.857595	0.750026
C77	C	0.201870	0.063221	0.000032
C78	C	0.451870	0.313221	0.250032
C79	C	0.701870	0.563221	0.500032
C80	C	0.951870	0.813221	0.750032
C81	C	0.216227	-0.024915	0.000047
C82	C	0.466227	0.225085	0.250047
C83	C	0.716227	0.475085	0.500047
C84	C	0.966227	0.725085	0.750047
C85	C	0.156832	-0.025519	0.000046
C86	C	0.406832	0.224481	0.250046
C87	C	0.656832	0.474481	0.500046
C88	C	0.906832	0.724481	0.750046
C89	C	0.119956	0.018248	0.000038
C90	C	0.369956	0.268248	0.250038
C91	C	0.619956	0.518248	0.500038
C92	C	0.869956	0.768248	0.750038
C93	C	0.142475	0.062618	0.000031
C94	C	0.392475	0.312618	0.250031
C95	C	0.642475	0.562618	0.500031
C96	C	0.892475	0.812618	0.750031
C97	C	0.187509	0.151365	0.000024
C98	C	0.437509	0.401365	0.250024
C99	C	0.687509	0.651365	0.500024
C100	C	0.937509	0.901365	0.750024
C101	C	0.128108	0.150757	0.000029
C102	C	0.378108	0.400757	0.250029
C103	C	0.628108	0.650757	0.500029
C104	C	0.878108	0.900757	0.750029
C105	C	0.105589	0.106383	0.000035
C106	C	0.355589	0.356383	0.250035
C107	C	0.605589	0.606383	0.500035
C108	C	0.855589	0.856383	0.750035
C109	C	0.046205	0.105781	0.000022
C110	C	0.296205	0.355781	0.250022
C111	C	0.546205	0.605781	0.500022
C112	C	0.796205	0.855781	0.750022
N113	N	0.023683	0.061410	0.000035
N114	N	0.273683	0.311410	0.250035
N115	N	0.523683	0.561410	0.500035
N116	N	0.773683	0.811410	0.750035
C117	C	0.060559	0.017643	0.000042
C118	C	0.310559	0.267643	0.250042
C119	C	0.560559	0.517643	0.500042
C120	C	0.810559	0.767643	0.750042
C121	C	0.408525	0.109465	0.000013
C122	C	0.658525	0.359465	0.250013
C123	C	0.908525	0.609465	0.500013
C124	C	1.158525	0.859465	0.750013
C125	C	0.467922	0.110070	0.000004
C126	C	0.717922	0.360070	0.250004
C127	C	0.967922	0.610070	0.500004
C128	C	1.217922	0.860070	0.750004
C129	C	0.482277	0.021929	0.000023
C130	C	0.732277	0.271929	0.250023
C131	C	0.982277	0.521929	0.500023
C132	C	1.232277	0.771929	0.750023
C133	C	0.422879	0.021325	0.000028
C134	C	0.672879	0.271325	0.250028
C135	C	0.922879	0.521325	0.500028
C136	C	1.172879	0.771325	0.750028
C137	C	0.386004	0.065095	0.000025
C138	C	0.636004	0.315095	0.250025
C139	C	0.886004	0.565095	0.500025
C140	C	1.136004	0.815095	0.750025
C141	C	-0.064175	0.016379	0.000040
C142	C	0.185825	0.266379	0.250040
C143	C	0.435825	0.516379	0.500040
C144	C	0.685825	0.766379	0.750040
C145	C	-0.123576	0.015779	0.000037
C146	C	0.126424	0.265779	0.250037
C147	C	0.376424	0.515779	0.500037
C148	C	0.626424	0.765779	0.750037
C149	C	-0.137925	0.103920	0.000021
C150	C	0.112075	0.353920	0.250021
C151	C	0.362075	0.603920	0.500021
C152	C	0.612075	0.853920	0.750021
C153	C	-0.078530	0.104520	0.000021
C154	C	0.171470	0.354520	0.250021
C155	C	0.421470	0.604520	0.500021
C156	C	0.671470	0.854520	0.750021
C157	C	-0.041656	0.060745	0.000033
C158	C	0.208344	0.310745	0.250033
C159	C	0.458344	0.560745	0.500033
C160	C	0.708344	0.810745	0.750033
O161	O	0.009338	0.142926	-0.000003
O162	O	0.259338	0.392926	0.249997
O163	O	0.509338	0.642926	0.499997
O164	O	0.759338	0.892926	0.749997
O165	O	0.035940	-0.020147	0.000060
O166	O	0.285940	0.229853	0.250060
O167	O	0.535940	0.479853	0.500060
O168	O	0.785940	0.729853	0.750060
C169	C	0.677131	-0.025474	0.000040
C170	C	0.927131	0.224526	0.250040
C171	C	1.177131	0.474526	0.500040
C172	C	1.427131	0.724526	0.750040
C173	C	0.676491	-0.079131	0.000046
C174	C	0.926491	0.170869	0.250046
C175	C	1.176491	0.420869	0.500046
C176	C	1.426491	0.670869	0.750046
C177	C	0.672477	-0.411859	-0.053605
C178	C	0.922477	-0.161859	0.196395
C179	C	1.172477	0.088141	0.446395
C180	C	1.422477	0.338141	0.696395
C181	C	0.670048	-0.613521	-0.053615
C182	C	0.920048	-0.363521	0.196385
C183	C	1.170048	-0.113521	0.446385
C184	C	1.420048	0.136479	0.696385
O185	O	0.669717	-0.639598	-0.099218
O186	O	0.919717	-0.389598	0.150782
O187	O	1.169717	-0.139598	0.400782
O188	O	1.419717	0.110402	0.650782
N189	N	0.669738	-0.638733	0.000005
N190	N	0.919738	-0.388733	0.250005
N191	N	1.169738	-0.138733	0.500005
N192	N	1.419738	0.111267	0.750005
C193	C	0.670032	-0.613526	0.053632
C194	C	0.920032	-0.363526	0.303632
C195	C	1.170032	-0.113526	0.553632
C196	C	1.420032	0.136474	0.803632
O197	O	0.669706	-0.639596	0.099240
O198	O	0.919706	-0.389596	0.349240
O199	O	1.169706	-0.139596	0.599240
O200	O	1.419706	0.110404	0.849240
C201	C	0.672456	-0.411864	0.053642
C202	C	0.922456	-0.161864	0.303642
C203	C	1.172456	0.088136	0.553642
C204	C	1.422456	0.338136	0.803642
C205	C	0.672772	-0.386656	0.000018
C206	C	0.922772	-0.136656	0.250018
C207	C	1.172772	0.113344	0.500018
C208	C	1.422772	0.363344	0.750018
C209	C	0.672792	-0.386651	-0.107224
C210	C	0.922792	-0.136651	0.142776
C211	C	1.172792	0.113349	0.392776
C212	C	1.422792	0.363349	0.642776
C213	C	0.673402	-0.336239	-0.107221
C214	C	0.923402	-0.086239	0.142779
C215	C	1.173402	0.163761	0.392779
C216	C	1.423402	0.413761	0.642779
C217	C	0.673697	-0.311035	-0.053598
C218	C	0.923697	-0.061035	0.196402
C219	C	1.173697	0.188965	0.446402
C220	C	1.423697	0.438965	0.696402
C221	C	0.673382	-0.336244	0.000021
C222	C	0.923382	-0.086244	0.250021
C223	C	1.173382	0.163756	0.500021
C224	C	1.423382	0.413756	0.750021
C225	C	0.672745	-0.386657	0.107269
C226	C	0.922745	-0.136657	0.357269
C227	C	1.172745	0.113343	0.607269
C228	C	1.422745	0.363343	0.857269
C229	C	0.673350	-0.336238	0.107266
C230	C	0.923350	-0.086238	0.357266
C231	C	1.173350	0.163762	0.607266
C232	C	1.423350	0.413762	0.857266
C233	C	0.673665	-0.311030	0.053642
C234	C	0.923665	-0.061030	0.303642
C235	C	1.173665	0.188970	0.553642
C236	C	1.423665	0.438970	0.803642
C237	C	0.674287	-0.260628	0.053647
C238	C	0.924287	-0.010628	0.303647
C239	C	1.174287	0.239372	0.553647
C240	C	1.424287	0.489372	0.803647
N241	N	0.674597	-0.235416	0.000027
N242	N	0.924597	0.014584	0.250027
N243	N	1.174597	0.264584	0.500027
N244	N	1.424597	0.514584	0.750027
C245	C	0.674302	-0.260620	-0.053596
C246	C	0.924302	-0.010620	0.196404
C247	C	1.174302	0.239380	0.446404
C248	C	1.424302	0.489380	0.696404
C249	C	0.668760	-0.719401	0.053623
C250	C	0.918760	-0.469401	0.303623
C251	C	1.168760	-0.219401	0.553623
C252	C	1.418760	0.030599	0.803623
C253	C	0.668155	-0.769816	0.053621
C254	C	0.918155	-0.519816	0.303621
C255	C	1.168155	-0.269816	0.553621
C256	C	1.418155	-0.019816	0.803621
C257	C	0.668171	-0.769808	-0.053627
C258	C	0.918171	-0.519808	0.196373
C259	C	1.168171	-0.269808	0.446373
C260	C	1.418171	-0.019808	0.696373
C261	C	0.668780	-0.719393	-0.053624
C262	C	0.918780	-0.469393	0.196376
C263	C	1.168780	-0.219393	0.446376
C264	C	1.418780	0.030607	0.696376
C265	C	0.669070	-0.694189	0.000003
C266	C	0.919070	-0.444189	0.250003
C267	C	1.169070	-0.194189	0.500003
C268	C	1.419070	0.055811	0.750003
C269	C	0.675584	-0.154751	-0.053585
C270	C	0.925584	0.095249	0.196415
C271	C	1.175584	0.345249	0.446415
C272	C	1.425584	0.595249	0.696415
C273	C	0.676196	-0.104335	-0.053577
C274	C	0.926196	0.145665	0.196423
C275	C	1.176196	0.395665	0.446423
C276	C	1.426196	0.645665	0.696423
C277	C	0.676178	-0.104347	0.053670
C278	C	0.926178	0.145653	0.303670
C279	C	1.176178	0.395653	0.553670
C280	C	1.426178	0.645653	0.803670
C281	C	0.675568	-0.154759	0.053663
C282	C	0.925568	0.095241	0.303663
C283	C	1.175568	0.345241	0.553663
C284	C	1.425568	0.595241	0.803663
C285	C	0.675269	-0.179959	0.000030
C286	C	0.925269	0.070041	0.250030
C287	C	1.175269	0.320041	0.500030
C288	C	1.425269	0.570041	0.750030
O289	O	0.674612	-0.234520	0.099227
O290	O	0.924612	0.015480	0.349227
O291	O	1.174612	0.265480	0.599227
O292	O	1.424612	0.515480	0.849227
O293	O	0.674615	-0.234539	-0.099196
O294	O	0.924615	0.015461	0.150804
O295	O	1.174615	0.265461	0.400804
O296	O	1.424615	0.515461	0.650804
C297	C	0.671867	-0.462272	-0.053608
C298	C	0.921867	-0.212272	0.196392
C299	C	1.171867	0.037728	0.446392
C300	C	1.421867	0.287728	0.696392
C301	C	0.671551	-0.487480	0.000012
C302	C	0.921551	-0.237480	0.250012
C303	C	1.171551	0.012520	0.500012
C304	C	1.421551	0.262520	0.750012
C305	C	0.671846	-0.462276	0.053635
C306	C	0.921846	-0.212276	0.303635
C307	C	1.171846	0.037724	0.553635
C308	C	1.421846	0.287724	0.803635
C309	C	0.670946	-0.537895	0.000010
C310	C	0.920946	-0.287895	0.250010
C311	C	1.170946	-0.037895	0.500010
C312	C	1.420946	0.212105	0.750010
C313	C	0.670651	-0.563099	-0.053613
C314	C	0.920651	-0.313099	0.196387
C315	C	1.170651	-0.063099	0.446387
C316	C	1.420651	0.186901	0.696387
C317	C	0.670961	-0.537887	-0.107234
C318	C	0.920961	-0.287887	0.142766
C319	C	1.170961	-0.037887	0.392766
C320	C	1.420961	0.212113	0.642766
C321	C	0.671572	-0.487475	-0.107231
C322	C	0.921572	-0.237475	0.142769
C323	C	1.171572	0.012525	0.392769
C324	C	1.421572	0.262525	0.642769
C325	C	0.671536	-0.487488	0.107255
C326	C	0.921536	-0.237488	0.357255
C327	C	1.171536	0.012512	0.607255
C328	C	1.421536	0.262512	0.857255
C329	C	0.670927	-0.537900	0.107248
C330	C	0.920927	-0.287900	0.357248
C331	C	1.170927	-0.037900	0.607248
C332	C	1.420927	0.212100	0.857248
C333	C	0.670632	-0.563104	0.053625
C334	C	0.920632	-0.313104	0.303625
C335	C	1.170632	-0.063104	0.553625
C336	C	1.420632	0.186896	0.803625
C337	C	0.776333	0.058896	0.000030
C338	C	1.026333	0.308896	0.250030
C339	C	1.276333	0.558896	0.500030
C340	C	1.526333	0.808896	0.750030
C341	C	0.839548	0.059546	0.000029
C342	C	1.089548	0.309546	0.250029
C343	C	1.339548	0.559546	0.500029
C344	C	1.589548	0.809546	0.750029
C345	C	0.667221	0.151323	0.000008
C346	C	0.917221	0.401323	0.250008
C347	C	1.167221	0.651323	0.500008
C348	C	1.417221	0.901323	0.750008
C349	C	0.667860	0.204980	-0.000002
C350	C	0.917860	0.454980	0.249998
C351	C	1.167860	0.704980	0.499998
C352	C	1.417860	0.954980	0.749998
N353	N	0.672156	0.062941	0.153280
N354	N	0.922156	0.312941	0.403280
N355	N	1.172156	0.562941	0.653280
N356	N	1.422156	0.812941	0.903280
N357	N	0.672200	0.062904	-0.153231
N358	N	0.922200	0.312904	0.096769
N359	N	1.172200	0.562904	0.346769
N360	N	1.422200	0.812904	0.596769
C361	C	0.711202	0.029874	0.561929
C362	C	0.961202	0.279874	0.811929
C363	C	1.211202	0.529874	1.061929
C364	C	1.461202	0.779874	1.311929
C365	C	0.711205	0.029870	0.623849
C366	C	0.961205	0.279870	0.873849
C367	C	1.211205	0.529870	1.123849
C368	C	1.461205	0.779870	1.373849
O369	O	0.744380	0.001762	0.655875
O370	O	0.994380	0.251762	0.905875
O371	O	1.244380	0.501762	1.155875
O372	O	1.494380	0.751762	1.405875
N373	N	0.672186	0.062907	0.654817
N374	N	0.922186	0.312907	0.904817
N375	N	1.172186	0.562907	1.154817
N376	N	1.422186	0.812907	1.404817
C377	C	0.633157	0.095947	0.623862
C378	C	0.883157	0.345947	0.873862
C379	C	1.133157	0.595947	1.123862
C380	C	1.383157	0.845947	1.373862
O381	O	0.599967	0.124047	0.655888
O382	O	0.849967	0.374047	0.905888
O383	O	1.099967	0.624047	1.155888
O384	O	1.349967	0.874047	1.405888
C385	C	0.633151	0.095948	0.561943
C386	C	0.883151	0.345948	0.811943
C387	C	1.133151	0.595948	1.061943
C388	C	1.383151	0.845948	1.311943
C389	C	0.672178	0.062912	0.530978
C390	C	0.922178	0.312912	0.780978
C391	C	1.172178	0.562912	1.030978
C392	C	1.422178	0.812912	1.280978
C393	C	0.750225	-0.003160	0.530965
C394	C	1.000225	0.246840	0.780965
C395	C	1.250225	0.496840	1.030965
C396	C	1.500225	0.746840	1.280965
C397	C	0.750223	-0.003156	0.469049
C398	C	1.000223	0.246844	0.719049
C399	C	1.250223	0.496844	0.969049
C400	C	1.500223	0.746844	1.219049
C401	C	0.711198	0.029882	0.438098
C402	C	0.961198	0.279882	0.688098
C403	C	1.211198	0.529882	0.938098
C404	C	1.461198	0.779882	1.188098
C405	C	0.672175	0.062916	0.469063
C406	C	0.922175	0.312916	0.719063
C407	C	1.172175	0.562916	0.969063
C408	C	1.422175	0.812916	1.219063
C409	C	0.594120	0.128985	0.530989
C410	C	0.844120	0.378985	0.780989
C411	C	1.094120	0.628985	1.030989
C412	C	1.344120	0.878985	1.280989
C413	C	0.594118	0.128982	0.469066
C414	C	0.844118	0.378982	0.719066
C415	C	1.094118	0.628982	0.969066
C416	C	1.344118	0.878982	1.219066
C417	C	0.633144	0.095946	0.438101
C418	C	0.883144	0.345946	0.688101
C419	C	1.133144	0.595946	0.938101
C420	C	1.383144	0.845946	1.188101
C421	C	0.633148	0.095958	0.376196
C422	C	0.883148	0.345958	0.626196
C423	C	1.133148	0.595958	0.876196
C424	C	1.383148	0.845958	1.126196
N425	N	0.672168	0.062921	0.345228
N426	N	0.922168	0.312921	0.595228
N427	N	1.172168	0.562921	0.845228
N428	N	1.422168	0.812921	1.095228
C429	C	0.711192	0.029883	0.376179
C430	C	0.961192	0.279883	0.626179
C431	C	1.211192	0.529883	0.876179
C432	C	1.461192	0.779883	1.126179
C433	C	0.633170	0.095942	0.753895
C434	C	0.883170	0.345942	1.003895
C435	C	1.133170	0.595942	1.253895
C436	C	1.383170	0.845942	1.503895
C437	C	0.633177	0.095944	0.815813
C438	C	0.883177	0.345944	1.065813
C439	C	1.133177	0.595944	1.315813
C440	C	1.383177	0.845944	1.565813
C441	C	0.711225	0.029866	0.815796
C442	C	0.961225	0.279866	1.065796
C443	C	1.211225	0.529866	1.315796
C444	C	1.461225	0.779866	1.565796
C445	C	0.711220	0.029867	0.753877
C446	C	0.961220	0.279867	1.003877
C447	C	1.211220	0.529867	1.253877
C448	C	1.461220	0.779867	1.503877
C449	C	0.672189	0.062905	0.722927
C450	C	0.922189	0.312905	0.972927
C451	C	1.172189	0.562905	1.222927
C452	C	1.422189	0.812905	1.472927
C453	C	0.711185	0.029895	0.246152
C454	C	0.961185	0.279895	0.496152
C455	C	1.211185	0.529895	0.746152
C456	C	1.461185	0.779895	0.996152
C457	C	0.711181	0.029903	0.184231
C458	C	0.961181	0.279903	0.434231
C459	C	1.211181	0.529903	0.684231
C460	C	1.461181	0.779903	0.934231
C461	C	0.633131	0.095979	0.184253
C462	C	0.883131	0.345979	0.434253
C463	C	1.133131	0.595979	0.684253
C464	C	1.383131	0.845979	0.934253
C465	C	0.633137	0.095972	0.246169
C466	C	0.883137	0.345972	0.496169
C467	C	1.133137	0.595972	0.746169
C468	C	1.383137	0.845972	0.996169
C469	C	0.672166	0.062926	0.277117
C470	C	0.922166	0.312926	0.527117
C471	C	1.172166	0.562926	0.777117
C472	C	1.422166	0.812926	1.027117
O473	O	0.599989	0.124051	0.344131
O474	O	0.849989	0.374051	0.594131
O475	O	1.099989	0.624051	0.844131
O476	O	1.349989	0.874051	1.094131
O477	O	0.744371	0.001783	0.344146
O478	O	0.994371	0.251783	0.594146
O479	O	1.244371	0.501783	0.844146
O480	O	1.494371	0.751783	1.094146
H481	H	0.205832	0.187499	0.000016
H482	H	0.455832	0.437499	0.250016
H483	H	0.705832	0.687499	0.500016
H484	H	0.955832	0.937499	0.750016
H485	H	0.486250	0.146204	-0.000010
H486	H	0.736250	0.396204	0.249990
H487	H	0.986250	0.646204	0.499990
H488	H	1.236250	0.896204	0.749990
H489	H	0.670724	-0.558417	-0.150895
H490	H	0.920724	-0.308417	0.099105
H491	H	1.170724	-0.058417	0.349105
H492	H	1.420724	0.191583	0.599105
O493	O	0.753301	-0.005770	0.720477
O494	O	1.003301	0.244230	0.970477
O495	O	1.253301	0.494230	1.220477
O496	O	1.503301	0.744230	1.470477
H497	H	0.797644	0.000191	0.732350
H498	H	1.047644	0.250191	0.982350
H499	H	1.297644	0.500191	1.232350
H500	H	1.547644	0.750191	1.482350
O501	O	-0.147859	-0.032085	0.000046
O502	O	0.102141	0.217915	0.250046
O503	O	0.352141	0.467915	0.500046
O504	O	0.602141	0.717915	0.750046
H505	H	-0.195358	-0.025156	0.000039
H506	H	0.054642	0.224844	0.250039
H507	H	0.304642	0.474844	0.500039
H508	H	0.554642	0.724844	0.750039
O509	O	0.753270	-0.005733	0.150832
O510	O	1.003270	0.244267	0.400832
O511	O	1.253270	0.494267	0.650832
O512	O	1.503270	0.744267	0.900832
H513	H	0.780401	-0.028710	0.182761
H514	H	1.030401	0.221290	0.432761
H515	H	1.280401	0.471290	0.682761
H516	H	1.530401	0.721290	0.932761
H517	H	0.676455	-0.083812	-0.097246
H518	H	0.926455	0.166188	0.152754
H519	H	1.176455	0.416188	0.402754
H520	H	1.426455	0.666188	0.652754
H521	H	0.669036	-0.698871	-0.097289
H522	H	0.919036	-0.448871	0.152711
H523	H	1.169036	-0.198871	0.402711
H524	H	1.419036	0.051129	0.652711
O525	O	0.671865	-0.460312	0.165097
O526	O	0.921865	-0.210312	0.415097
O527	O	1.171865	0.039688	0.665097
O528	O	1.421865	0.289688	0.915097
H529	H	0.632918	-0.465495	0.190813
H530	H	0.882918	-0.215495	0.440813
H531	H	1.132918	0.034505	0.690813
H532	H	1.382918	0.284505	0.940813
O533	O	0.675257	-0.181928	-0.111429
O534	O	0.925257	0.068072	0.138571
O535	O	1.175257	0.318072	0.388571
O536	O	1.425257	0.568072	0.638571
H537	H	0.675580	-0.155923	-0.148709
H538	H	0.925580	0.094077	0.101291
H539	H	1.175580	0.344077	0.351291
H540	H	1.425580	0.594077	0.601291
H541	H	0.782004	-0.030066	0.556160
H542	H	1.032004	0.219934	0.806160
H543	H	1.282004	0.469934	1.056160
H544	H	1.532004	0.719934	1.306160
O545	O	0.753314	-0.005774	0.849184
O546	O	1.003314	0.244226	1.099184
O547	O	1.253314	0.494226	1.349184
O548	O	1.503314	0.744226	1.599184
H549	H	0.746753	-0.000226	0.897441
H550	H	0.996753	0.249774	1.147441
H551	H	1.246753	0.499774	1.397441
H552	H	1.496753	0.749774	1.647441
H553	H	-0.034158	-0.019267	0.000050
H554	H	0.215842	0.230733	0.250050
H555	H	0.465842	0.480733	0.500050
H556	H	0.715842	0.730733	0.750050
O557	O	0.671909	-0.460289	-0.165068
O558	O	0.921909	-0.210289	0.084932
O559	O	1.171909	0.039711	0.334932
O560	O	1.421909	0.289711	0.584932
H561	H	0.633356	-0.432820	-0.167636
H562	H	0.883356	-0.182820	0.082364
H563	H	1.133356	0.067180	0.332364
H564	H	1.383356	0.317180	0.582364
H565	H	0.246247	-0.060558	0.000055
H566	H	0.496247	0.189442	0.250055
H567	H	0.746247	0.439442	0.500055
H568	H	0.996247	0.689442	0.750055
O569	O	0.670585	-0.565088	0.165089
O570	O	0.920585	-0.315088	0.415089
O571	O	1.170585	-0.065088	0.665089
O572	O	1.420585	0.184912	0.915089
H573	H	0.670886	-0.539086	0.202373
H574	H	0.920886	-0.289086	0.452373
H575	H	1.170886	-0.039086	0.702373
H576	H	1.420886	0.210914	0.952373
H577	H	0.742965	0.002985	0.271343
H578	H	0.992965	0.252985	0.521343
H579	H	1.242965	0.502985	0.771343
H580	H	1.492965	0.752985	1.021343
H581	H	0.098086	0.186400	0.000029
H582	H	0.348086	0.436400	0.250029
H583	H	0.598086	0.686400	0.500029
H584	H	0.848086	0.936400	0.750029
H585	H	0.601405	0.122850	0.841020
H586	H	0.851405	0.372850	1.091020
H587	H	1.101405	0.622850	1.341020
H588	H	1.351405	0.872850	1.591020
H589	H	0.378504	0.145110	0.000006
H590	H	0.628504	0.395110	0.250006
H591	H	0.878504	0.645110	0.500006
H592	H	1.128504	0.895110	0.750006
O593	O	0.398594	-0.026535	0.000039
O594	O	0.648594	0.223465	0.250039
O595	O	0.898594	0.473465	0.500039
O596	O	1.148594	0.723465	0.750039
H597	H	0.371874	-0.028914	0.040135
H598	H	0.621874	0.221086	0.290135
H599	H	0.871874	0.471086	0.540135
H600	H	1.121874	0.721086	0.790135
O601	O	-0.054236	0.152378	0.000012
O602	O	0.195764	0.402378	0.250012
O603	O	0.445764	0.652378	0.500012
O604	O	0.695764	0.902378	0.750012
H605	H	-0.089860	0.182710	0.000009
H606	H	0.160140	0.432710	0.250009
H607	H	0.410140	0.682710	0.500009
H608	H	0.660140	0.932710	0.750009
H609	H	0.601364	0.122878	0.271380
H610	H	0.851364	0.372878	0.521380
H611	H	1.101364	0.622878	0.771380
H612	H	1.351364	0.872878	1.021380
H613	H	0.601359	0.122879	0.159043
H614	H	0.851359	0.372879	0.409043
H615	H	1.101359	0.622879	0.659043
H616	H	1.351359	0.872879	0.909043
O617	O	0.673664	-0.309056	0.165109
O618	O	0.923664	-0.059056	0.415109
O619	O	1.173664	0.190944	0.665109
O620	O	1.423664	0.440944	0.915109
H621	H	0.712771	-0.290584	0.167679
H622	H	0.962771	-0.040584	0.417679
H623	H	1.212771	0.209416	0.667679
H624	H	1.462771	0.459416	0.917679
H625	H	0.138504	-0.061653	0.000053
H626	H	0.388504	0.188347	0.250053
H627	H	0.638504	0.438347	0.500053
H628	H	0.888504	0.688347	0.750053
H629	H	0.512312	-0.013708	0.000030
H630	H	0.762312	0.236292	0.250030
H631	H	1.012312	0.486292	0.500030
H632	H	1.262312	0.736292	0.750030
O633	O	-0.177703	0.151125	0.000022
O634	O	0.072297	0.401125	0.250022
O635	O	0.322297	0.651125	0.500022
O636	O	0.572297	0.901125	0.750022
H637	H	-0.222788	0.143246	0.000032
H638	H	0.027212	0.393246	0.250032
H639	H	0.277212	0.643246	0.500032
H640	H	0.527212	0.893246	0.750032
H641	H	0.673657	-0.315718	-0.150887
H642	H	0.923657	-0.065718	0.099113
H643	H	1.173657	0.184282	0.349113
H644	H	1.423657	0.434282	0.599113
H645	H	0.672550	-0.407166	-0.150893
H646	H	0.922550	-0.157166	0.099107
H647	H	1.172550	0.092834	0.349107
H648	H	1.422550	0.342834	0.599107
O649	O	0.792307	-0.038794	0.435654
O650	O	1.042307	0.211206	0.685654
O651	O	1.292307	0.461206	0.935654
O652	O	1.542307	0.711206	1.185654
H653	H	0.819435	-0.061769	0.467587
H654	H	1.069435	0.188231	0.717587
H655	H	1.319435	0.438231	0.967587
H656	H	1.569435	0.688231	1.217587
O657	O	0.591078	0.131584	0.720514
O658	O	0.841078	0.381584	0.970514
O659	O	1.091078	0.631584	1.220514
O660	O	1.341078	0.881584	1.470514
H661	H	0.563953	0.154558	0.752455
H662	H	0.813953	0.404558	1.002455
H663	H	1.063953	0.654558	1.252455
H664	H	1.313953	0.904558	1.502455
O665	O	0.667845	-0.796995	-0.111465
O666	O	0.917845	-0.546995	0.138535
O667	O	1.167845	-0.296995	0.388535
O668	O	1.417845	-0.046995	0.638535
H669	H	0.667366	-0.836285	-0.102452
H670	H	0.917366	-0.586285	0.147548
H671	H	1.167366	-0.336285	0.397548
H672	H	1.417366	-0.086285	0.647548
O673	O	0.552048	0.164634	0.564378
O674	O	0.802048	0.414634	0.814378
O675	O	1.052048	0.664634	1.064378
O676	O	1.302048	0.914634	1.314378
H677	H	0.524918	0.187606	0.532443
H678	H	0.774918	0.437606	0.782443
H679	H	1.024918	0.687606	1.032443
H680	H	1.274918	0.937606	1.282443
O681	O	0.667819	-0.797005	0.111458
O682	O	0.917819	-0.547005	0.361458
O683	O	1.167819	-0.297005	0.611458
O684	O	1.417819	-0.047005	0.861458
H685	H	0.668120	-0.771003	0.148742
H686	H	0.918120	-0.521003	0.398742
H687	H	1.168120	-0.271003	0.648742
H688	H	1.418120	-0.021003	0.898742
H689	H	0.562333	0.155885	0.443869
H690	H	0.812333	0.405885	0.693869
H691	H	1.062333	0.655885	0.943869
H692	H	1.312333	0.905885	1.193869
H693	H	0.672489	-0.407173	0.150935
H694	H	0.922489	-0.157173	0.400935
H695	H	1.172489	0.092827	0.650935
H696	H	1.422489	0.342827	0.900935
H697	H	0.668999	-0.698885	0.097295
H698	H	0.918999	-0.448885	0.347295
H699	H	1.168999	-0.198885	0.597295
H700	H	1.418999	0.051115	0.847295
O701	O	0.675236	-0.181958	0.111494
O702	O	0.925236	0.068042	0.361494
O703	O	1.175236	0.318042	0.611494
O704	O	1.425236	0.568042	0.861494
H705	H	0.636515	-0.167787	0.137205
H706	H	0.886515	0.082213	0.387205
H707	H	1.136515	0.332213	0.637205
H708	H	1.386515	0.582213	0.887205
O709	O	0.676495	-0.077159	0.111506
O710	O	0.926495	0.172841	0.361506
O711	O	1.176495	0.422841	0.611506
O712	O	1.426495	0.672841	0.861506
H713	H	0.676965	-0.037867	0.102493
H714	H	0.926965	0.212133	0.352493
H715	H	1.176965	0.462133	0.602493
H716	H	1.426965	0.712133	0.852493
