data_functionalizedCrystal
_audit_creation_method	'MofGen! by Chris Wilmer'
_symmetry_space_group_name_H-M	'P1'
_symmetry_Int_Tables_number	1
_symmetry_cell_setting	triclinic
loop_
_symmetry_equiv_pos_as_xyz
  x,y,z
_cell_length_a	15.944551
_cell_length_b	15.944551
_cell_length_c	15.021413
_cell_angle_alpha	89.996935
_cell_angle_beta	89.997174
_cell_angle_gamma	96.501262
loop_
_atom_site_label
_atom_site_type_symbol
_atom_site_fract_x
_atom_site_fract_y
_atom_site_fract_z
O1	O	1.114529	-0.108321	-0.073941
O2	O	0.869979	-0.121677	-0.073964
O3	O	0.998932	0.007276	-0.073944
O4	O	0.985576	-0.237274	-0.073961
O5	O	0.998912	0.007257	0.074121
O6	O	0.869959	-0.121695	0.074101
O7	O	1.114508	-0.108339	0.074123
Zn8	Zn	0.992230	-0.115020	0.097620
Zn9	Zn	0.992257	-0.114996	-0.097461
O10	O	0.985555	-0.237292	0.074103
C11	C	0.838675	-0.121132	0.000066
C12	C	0.745429	-0.119470	0.000057
C13	C	0.530572	-0.035565	0.000081
C14	C	0.469562	-0.074518	-0.072926
C15	C	0.574703	-0.116462	0.000068
C16	C	0.469564	-0.074556	0.073054
C17	C	0.409790	-0.113551	0.000083
C18	C	0.514921	-0.155438	-0.072998
C19	C	0.514930	-0.155464	0.073047
C20	C	0.453937	-0.194476	0.000023
C21	C	0.669705	-0.118137	0.000059
C22	C	0.314789	-0.111883	0.000085
C23	C	0.998367	0.038561	0.000089
C24	C	0.996705	0.131807	0.000089
C25	C	1.145813	-0.108885	0.000092
C26	C	1.239059	-0.110547	0.000094
C27	C	0.986120	-0.268577	0.000069
C28	C	0.987782	-0.361823	0.000063
N29	N	0.992218	-0.115036	0.230758
C30	C	0.912801	0.346663	0.000069
C31	C	0.951753	0.407672	0.073077
C32	C	0.993698	0.302533	0.000082
C33	C	0.951792	0.407673	-0.072903
C34	C	0.990787	0.467445	0.000071
C35	C	1.032672	0.362313	0.073150
C36	C	1.032700	0.362308	-0.072895
C37	C	1.071711	0.423298	0.000131
C38	C	0.995372	0.207530	0.000089
C39	C	0.989119	0.562446	0.000070
N40	N	0.992276	-0.114973	-0.230598
C41	C	0.932581	-0.174636	0.470432
C42	C	1.008481	-0.190943	0.529772
C43	C	0.992239	-0.115015	0.412365
C44	C	0.916360	-0.098727	0.529766
C45	C	0.992253	-0.114997	0.587789
C46	C	1.068178	-0.131360	0.470398
C47	C	0.976006	-0.039111	0.470387
C48	C	1.051962	-0.055386	0.529701
C49	C	0.992230	-0.115028	0.311307
C50	C	0.992271	-0.114984	0.688844
H51	H	0.534918	-0.189621	-0.134787
H52	H	1.102474	-0.004956	0.555561
H53	H	0.917528	0.427772	0.134794
H54	H	0.420779	-0.261683	-0.000023
H55	H	1.132368	-0.145206	0.444430
O56	O	0.445450	-0.033729	0.146622
C57	C	0.357060	-0.033418	0.146032
H58	H	0.332684	-0.041740	0.074874
H59	H	0.326658	-0.087432	0.189054
C60	C	0.364441	0.061349	0.270791
C61	C	0.334503	0.051135	0.183392
H62	H	0.350526	0.113504	0.293840
H63	H	0.423991	0.061138	0.271191
H64	H	0.339104	0.016333	0.306631
H65	H	0.359849	0.096145	0.147551
H66	H	0.274957	0.051356	0.182987
H67	H	1.066896	0.342185	-0.134615
H68	H	1.022224	-0.255126	0.555856
O69	O	0.832682	0.306959	0.000301
C70	C	0.790325	0.329948	0.077404
H71	H	0.838536	0.351932	0.130940
H72	H	0.751072	0.383339	0.060743
C73	C	0.672741	0.226238	0.046060
C74	C	0.731954	0.253232	0.111817
H75	H	0.636732	0.178918	0.067286
H76	H	0.701276	0.210752	-0.005888
H77	H	0.640039	0.270738	0.032183
H78	H	0.764661	0.208737	0.125685
H79	H	0.703423	0.268709	0.163768
O80	O	1.073391	0.338314	0.146841
C81	C	1.074451	0.250017	0.145964
H82	H	1.020537	0.219826	0.102693
H83	H	1.137172	0.234267	0.117747
C84	C	1.129929	0.252706	0.294723
C85	C	1.063706	0.215624	0.241582
H86	H	1.123305	0.231490	0.353704
H87	H	1.129218	0.312194	0.295313
H88	H	1.182190	0.239577	0.271197
H89	H	1.011448	0.228761	0.265101
H90	H	1.064408	0.156137	0.240998
O91	O	0.959484	0.037361	0.439129
C92	C	0.886009	0.027089	0.386208
H93	H	0.875578	-0.040461	0.360221
H94	H	0.829368	0.040627	0.427961
C95	C	0.909163	0.171794	0.339018
C96	C	0.896356	0.088830	0.307095
H97	H	0.915543	0.209882	0.290219
H98	H	0.958663	0.178717	0.374674
H99	H	0.861959	0.183064	0.373812
H100	H	0.943563	0.077558	0.272310
H101	H	0.846863	0.081907	0.271430
O102	O	0.839730	-0.082394	0.560769
C103	C	0.777025	-0.145431	0.530587
H104	H	0.800214	-0.176207	0.468103
H105	H	0.763167	-0.195251	0.584658
C106	C	0.667441	-0.067617	0.585726
C107	C	0.695920	-0.105412	0.508978
H108	H	0.617411	-0.042934	0.572401
H109	H	0.709687	-0.025149	0.606063
H110	H	0.655900	-0.109141	0.630778
H111	H	0.707472	-0.063887	0.463932
H112	H	0.653675	-0.147872	0.488633
H113	H	0.563905	0.031573	-0.000005
H114	H	1.138919	0.456457	0.000178
H115	H	0.917574	0.427758	-0.134630
H116	H	0.535052	-0.189659	0.134767
O117	O	0.445630	-0.033558	-0.146486
C118	C	0.485049	0.050185	-0.146235
H119	H	0.503290	0.069670	-0.075191
H120	H	0.544130	0.054592	-0.189503
C121	C	0.401257	0.085458	-0.270736
C122	C	0.423654	0.109391	-0.183478
H123	H	0.363388	0.121979	-0.293713
H124	H	0.374701	0.029037	-0.270908
H125	H	0.450496	0.089130	-0.306782
H126	H	0.374417	0.105708	-0.147432
H127	H	0.450201	0.165813	-0.183301
O128	O	0.872545	-0.234940	0.439417
C129	C	0.889983	-0.314854	0.469696
H130	H	0.959967	-0.312487	0.486336
H131	H	0.850946	-0.332844	0.531808
C132	C	0.781270	-0.383947	0.375952
C133	C	0.867228	-0.381043	0.396382
H134	H	0.767231	-0.424778	0.330731
H135	H	0.769519	-0.330108	0.355554
H136	H	0.748750	-0.398937	0.427718
H137	H	0.899747	-0.366044	0.344619
H138	H	0.878984	-0.434882	0.416769
