data_functionalizedCrystal
_audit_creation_method	'MofGen! by Chris Wilmer'
_symmetry_space_group_name_H-M	'P1'
_symmetry_Int_Tables_number	1
_symmetry_cell_setting	triclinic
loop_
_symmetry_equiv_pos_as_xyz
  x,y,z
_cell_length_a	16.625546
_cell_length_b	19.805407
_cell_length_c	19.805399
_cell_angle_alpha	90.026078
_cell_angle_beta	89.972133
_cell_angle_gamma	89.978916
loop_
_atom_site_label
_atom_site_type_symbol
_atom_site_fract_x
_atom_site_fract_y
_atom_site_fract_z
Zn1	Zn	-0.321050	-1.034754	-0.382836
Zn2	Zn	0.012283	-0.701421	-0.049502
Zn3	Zn	0.345617	-0.368088	0.283831
Zn4	Zn	-0.455887	-1.034677	-0.269647
Zn5	Zn	-0.122554	-0.701344	0.063686
Zn6	Zn	0.210779	-0.368010	0.397020
Zn7	Zn	-0.321069	-0.921569	-0.269648
Zn8	Zn	0.012264	-0.588236	0.063686
Zn9	Zn	0.345598	-0.254902	0.397019
Zn10	Zn	-0.455841	-0.921540	-0.382781
Zn11	Zn	-0.122508	-0.588207	-0.049448
Zn12	Zn	0.210826	-0.254874	0.283886
O13	O	-0.388462	-0.978135	-0.326228
O14	O	-0.055128	-0.644802	0.007106
O15	O	0.278205	-0.311468	0.340439
O16	O	-0.338948	-1.129461	-0.367844
O17	O	-0.005614	-0.796127	-0.034510
O18	O	0.327719	-0.462794	0.298823
O19	O	-0.438031	-1.019653	-0.174930
O20	O	-0.104697	-0.686319	0.158403
O21	O	0.228636	-0.352986	0.491736
O22	O	-0.208234	-0.936628	-0.284685
O23	O	0.125099	-0.603294	0.048648
O24	O	0.458433	-0.269961	0.381981
O25	O	-0.438012	-1.129404	-0.284684
O26	O	-0.104679	-0.796070	0.048649
O27	O	0.228655	-0.462737	0.381982
O28	O	-0.208220	-1.019784	-0.367844
O29	O	0.125113	-0.686451	-0.034511
O30	O	0.458447	-0.353118	0.298822
O31	O	-0.338980	-0.936553	-0.174931
O32	O	-0.005647	-0.603219	0.158403
O33	O	0.327686	-0.269886	0.491736
O34	O	-0.338935	-0.826849	-0.284632
O35	O	-0.005602	-0.493515	0.048701
O36	O	0.327731	-0.160182	0.382035
O37	O	-0.437934	-0.936579	-0.477505
O38	O	-0.104600	-0.603245	-0.144171
O39	O	0.228733	-0.269912	0.189162
O40	O	-0.437952	-0.826827	-0.367751
O41	O	-0.104619	-0.493494	-0.034417
O42	O	0.228715	-0.160161	0.298916
O43	O	-0.338903	-1.019757	-0.477545
O44	O	-0.005570	-0.686423	-0.144212
O45	O	0.327764	-0.353090	0.189122
O46	O	-0.568713	-1.019625	-0.284631
O47	O	-0.235380	-0.686291	0.048702
O48	O	0.097953	-0.352958	0.382035
O49	O	-0.568680	-0.936504	-0.367750
O50	O	-0.235346	-0.603170	-0.034417
O51	O	0.097987	-0.269837	0.298916
C52	C	-0.388441	-0.802279	-0.326186
C53	C	-0.055108	-0.468946	0.007147
C54	C	0.278225	-0.135612	0.340481
C55	C	-0.388452	-0.727047	-0.326184
C56	C	-0.055119	-0.393714	0.007149
C57	C	0.278215	-0.060380	0.340483
C58	C	-0.440107	-0.265263	-0.369460
C59	C	-0.106774	0.068071	-0.036126
C60	C	0.226559	0.401404	0.297207
C61	C	-0.440107	-0.335951	-0.369448
C62	C	-0.106774	-0.002618	-0.036114
C63	C	0.226560	0.330715	0.297219
C64	C	-0.388473	-0.371285	-0.326234
C65	C	-0.055140	-0.037952	0.007099
C66	C	0.278193	0.295381	0.340432
C67	C	-0.336843	-0.335927	-0.283025
C68	C	-0.003509	-0.002594	0.050308
C69	C	0.329824	0.330739	0.383641
C70	C	-0.336848	-0.265240	-0.283035
C71	C	-0.003514	0.068093	0.050299
C72	C	0.329819	0.401426	0.383632
C73	C	-0.336822	-0.621001	-0.282987
C74	C	-0.003488	-0.287667	0.050346
C75	C	0.329845	0.045666	0.383680
C76	C	-0.336819	-0.691693	-0.282983
C77	C	-0.003486	-0.358359	0.050351
C78	C	0.329848	-0.025026	0.383684
C79	C	-0.440081	-0.691712	-0.369400
C80	C	-0.106748	-0.358378	-0.036067
C81	C	0.226586	-0.025045	0.297266
C82	C	-0.440086	-0.621025	-0.369409
C83	C	-0.106753	-0.287691	-0.036076
C84	C	0.226581	0.045642	0.297257
C85	C	-0.388459	-0.585673	-0.326198
C86	C	-0.055125	-0.252339	0.007135
C87	C	0.278208	0.080994	0.340468
C88	C	-0.388461	-0.509024	-0.326211
C89	C	-0.055127	-0.175691	0.007122
C90	C	0.278206	0.157642	0.340456
C91	C	-0.388467	-0.447932	-0.326225
C92	C	-0.055133	-0.114599	0.007109
C93	C	0.278200	0.218734	0.340442
C94	C	-0.597953	-0.978071	-0.326199
C95	C	-0.264619	-0.644738	0.007134
C96	C	0.068714	-0.311404	0.340467
C97	C	-0.687574	-0.978106	-0.326210
C98	C	-0.354240	-0.644772	0.007123
C99	C	-0.020907	-0.311439	0.340457
C100	C	-1.015749	-0.978224	-0.326280
C101	C	-0.682416	-0.644890	0.007053
C102	C	-0.349083	-0.311557	0.340386
C103	C	-0.924441	-0.978189	-0.326263
C104	C	-0.591108	-0.644855	0.007071
C105	C	-0.257774	-0.311522	0.340404
C106	C	-0.851664	-0.978164	-0.326245
C107	C	-0.518331	-0.644831	0.007088
C108	C	-0.184998	-0.311497	0.340422
C109	C	-0.760350	-0.978130	-0.326228
C110	C	-0.427017	-0.644797	0.007106
C111	C	-0.093684	-0.311463	0.340439
C112	C	-0.178153	-0.978218	-0.326271
C113	C	0.155180	-0.644884	0.007062
C114	C	0.488514	-0.311551	0.340396
C115	C	-0.088532	-0.978253	-0.326289
C116	C	0.244802	-0.644920	0.007044
C117	C	0.578135	-0.311586	0.340377
C118	C	-0.388411	-0.978173	-0.502771
C119	C	-0.055078	-0.644840	-0.169437
C120	C	0.278256	-0.311506	0.163896
C121	C	-0.388389	-0.978189	-0.578003
C122	C	-0.055056	-0.644856	-0.244669
C123	C	0.278277	-0.311523	0.088664
C124	C	-0.388480	-0.154678	-0.326262
C125	C	-0.055146	0.178656	0.007071
C126	C	0.278187	0.511989	0.340405
C127	C	-0.388479	-0.229910	-0.326255
C128	C	-0.055146	0.103424	0.007078
C129	C	0.278188	0.436757	0.340411
C130	C	-0.336822	-1.021501	-0.613369
C131	C	-0.003488	-0.688168	-0.280036
C132	C	0.329845	-0.354834	0.053298
C133	C	-0.336798	-1.021508	-0.684057
C134	C	-0.003465	-0.688175	-0.350724
C135	C	0.329868	-0.354841	-0.017391
C136	C	-0.388347	-0.978206	-0.719378
C137	C	-0.055014	-0.644873	-0.386045
C138	C	0.278319	-0.311539	-0.052712
C139	C	-0.439917	-0.934890	-0.684007
C140	C	-0.106584	-0.601556	-0.350674
C141	C	0.226749	-0.268223	-0.017340
C142	C	-0.439936	-0.934880	-0.613320
C143	C	-0.106603	-0.601546	-0.279987
C144	C	0.226731	-0.268213	0.053347
C145	C	-0.439842	-0.934928	-0.969081
C146	C	-0.106509	-0.601594	-0.635747
C147	C	0.226825	-0.268261	-0.302414
C148	C	-0.439821	-0.934942	-1.039773
C149	C	-0.106488	-0.601609	-0.706439
C150	C	0.226846	-0.268276	-0.373106
C151	C	-0.336704	-1.021556	-1.039818
C152	C	-0.003371	-0.688223	-0.706485
C153	C	0.329962	-0.354889	-0.373151
C154	C	-0.336723	-1.021546	-0.969131
C155	C	-0.003390	-0.688213	-0.635797
C156	C	0.329944	-0.354879	-0.302464
C157	C	-0.388290	-0.978227	-0.933766
C158	C	-0.054956	-0.644894	-0.600432
C159	C	0.278377	-0.311561	-0.267099
C160	C	-0.388313	-0.978219	-0.857117
C161	C	-0.054980	-0.644886	-0.523784
C162	C	0.278353	-0.311553	-0.190451
C163	C	-0.388328	-0.978217	-0.796025
C164	C	-0.054995	-0.644884	-0.462692
C165	C	0.278338	-0.311550	-0.129359
C166	C	-0.388454	-0.978136	-0.150372
C167	C	-0.055121	-0.644803	0.182962
C168	C	0.278212	-0.311470	0.516295
C169	C	-0.388249	-0.978251	-0.075140
C170	C	-0.054915	-0.644918	0.258193
C171	C	0.278418	-0.311584	0.591526
H172	H	-0.294769	-0.720460	-0.247792
H173	H	0.038564	-0.387126	0.085541
H174	H	0.371897	-0.053793	0.418875
H175	H	-0.294809	-1.056778	-0.712849
H176	H	0.038525	-0.723445	-0.379516
H177	H	0.371858	-0.390112	-0.046183
F178	F	-0.495033	-0.729341	-0.415386
F179	F	-0.161699	-0.396008	-0.082053
F180	F	0.171634	-0.062675	0.251281
H181	H	-0.294749	-1.056809	-0.940376
H182	H	0.038584	-0.723476	-0.607043
H183	H	0.371917	-0.390142	-0.273709
F184	F	-0.495059	-0.373573	-0.415430
F185	F	-0.161725	-0.040240	-0.082097
F186	F	0.171608	0.293093	0.251237
F187	F	-0.494724	-0.888824	-0.931451
F188	F	-0.161391	-0.555491	-0.598118
F189	F	0.171943	-0.222157	-0.264785
F190	F	-0.494819	-0.888780	-0.575681
F191	F	-0.161486	-0.555446	-0.242347
F192	F	0.171847	-0.222113	0.090986
F193	F	-0.281893	-0.373534	-0.237032
F194	F	0.051440	-0.040201	0.096301
F195	F	0.384774	0.293132	0.429635
H196	H	-0.481886	-0.899630	-0.712771
H197	H	-0.148553	-0.566297	-0.379438
H198	H	0.184780	-0.232963	-0.046104
H199	H	-0.294804	-0.236457	-0.247855
H200	H	0.038529	0.096877	0.085478
H201	H	0.371862	0.430210	0.418812
F202	F	-0.495060	-0.227664	-0.415457
F203	F	-0.161726	0.105669	-0.082124
F204	F	0.171607	0.439003	0.251209
F205	F	-0.281869	-0.583386	-0.237003
F206	F	0.051465	-0.250052	0.096330
F207	F	0.384798	0.083281	0.429663
H208	H	-0.482128	-0.592259	-0.404600
H209	H	-0.148795	-0.258926	-0.071267
H210	H	0.184538	0.074408	0.262066
F211	F	-0.281959	-1.067593	-0.575784
F212	F	0.051374	-0.734260	-0.242451
F213	F	0.384707	-0.400926	0.090883
F214	F	-0.281819	-1.067658	-1.077462
F215	F	0.051514	-0.734325	-0.744128
F216	F	0.384847	-0.400991	-0.410795
H217	H	-0.481800	-0.899678	-1.068529
H218	H	-0.148467	-0.566345	-0.735196
H219	H	0.184867	-0.233011	-0.401862
