data_functionalizedCrystal
_audit_creation_method	'MofGen! by Chris Wilmer'
_symmetry_space_group_name_H-M	'P1'
_symmetry_Int_Tables_number	1
_symmetry_cell_setting	triclinic
loop_
_symmetry_equiv_pos_as_xyz
  x,y,z
_cell_length_a	15.944551
_cell_length_b	27.732048
_cell_length_c	14.421503
_cell_angle_alpha	89.999321
_cell_angle_beta	89.996859
_cell_angle_gamma	83.070697
loop_
_atom_site_label
_atom_site_type_symbol
_atom_site_fract_x
_atom_site_fract_y
_atom_site_fract_z
O1	O	1.113714	0.062334	-0.077025
O2	O	0.869064	0.070020	-0.077050
O3	O	0.998987	-0.004187	-0.077019
O4	O	0.983791	0.136540	-0.077056
O5	O	0.998966	-0.004176	0.077204
O6	O	0.869042	0.070031	0.077174
O7	O	1.113693	0.062345	0.077198
Cu8	Cu	0.991366	0.066189	0.091268
Cu9	Cu	0.991391	0.066176	-0.091119
O10	O	0.983769	0.136552	0.077168
C11	C	0.837763	0.069706	0.000059
C12	C	0.744530	0.068749	0.000051
C13	C	0.998658	-0.022190	0.000095
C14	C	0.997697	-0.075849	0.000103
C15	C	0.530305	0.020466	0.000081
C16	C	0.469002	0.042882	-0.075965
C17	C	0.573827	0.067019	0.000062
C18	C	0.469003	0.042904	0.076087
C19	C	0.408936	0.065344	0.000077
C20	C	0.513752	0.089447	-0.076047
C21	C	0.513759	0.089463	0.076074
C22	C	0.452474	0.111912	0.000009
C23	C	0.668816	0.067983	0.000053
C24	C	0.313947	0.064384	0.000080
C25	C	1.068426	-0.414358	0.000062
C26	C	1.064862	-0.616033	0.000049
O27	O	1.129539	-0.647008	0.000015
N28	N	0.987823	-0.635490	0.000042
C29	C	0.911669	-0.604525	0.000032
O30	O	0.846061	-0.625703	0.000017
C31	C	0.915234	-0.402851	0.000039
C32	C	0.992278	-0.383397	0.000055
C33	C	1.145464	-0.394903	0.000077
C34	C	1.146354	-0.344487	0.000086
C35	C	1.070206	-0.313526	0.000079
C36	C	0.993168	-0.332981	0.000064
C37	C	0.839081	-0.371887	0.000023
C38	C	0.839979	-0.321466	0.000022
C39	C	0.917024	-0.302012	0.000038
C40	C	0.917911	-0.251604	0.000065
N41	N	0.994950	-0.232147	0.000072
C42	C	1.071098	-0.263108	0.000079
C43	C	0.909803	-0.710408	0.000031
C44	C	0.908912	-0.760826	0.000031
C45	C	1.062105	-0.772330	0.000045
C46	C	1.062995	-0.721911	0.000052
C47	C	0.986842	-0.690950	0.000038
C48	C	1.072961	-0.157231	0.000097
C49	C	1.073845	-0.106810	0.000109
C50	C	0.920652	-0.095310	0.000090
C51	C	0.919768	-0.145727	0.000083
C52	C	0.995930	-0.176686	0.000083
O53	O	0.853269	-0.220600	0.000089
O54	O	1.136697	-0.241921	0.000074
C55	C	1.067536	-0.464774	0.000054
C56	C	0.990498	-0.484228	0.000039
C57	C	0.914350	-0.453268	0.000032
C58	C	0.989607	-0.534647	0.000039
C59	C	1.065754	-0.565608	0.000045
C60	C	1.142794	-0.546150	0.000052
C61	C	1.143684	-0.495734	0.000061
C62	C	0.837311	-0.472725	0.000025
C63	C	0.836427	-0.523141	0.000018
C64	C	0.912575	-0.554102	0.000024
C65	C	1.144993	0.062658	0.000087
C66	C	1.238227	0.063615	0.000090
C67	C	0.984099	0.154554	0.000051
C68	C	0.985059	0.208213	0.000038
N69	N	0.991354	0.066198	0.219549
N70	N	0.991409	0.066163	-0.219401
C71	C	0.931267	0.100495	0.469189
C72	C	1.007044	0.109880	0.530996
C73	C	0.991374	0.066186	0.408710
C74	C	0.915616	0.056813	0.530997
C75	C	0.991387	0.066176	0.591432
C76	C	1.067190	0.075592	0.469157
C77	C	0.975712	0.022507	0.469153
C78	C	1.051545	0.031872	0.530932
C79	C	0.991366	0.066193	0.303449
C80	C	0.991405	0.066169	0.696691
H81	H	0.564143	-0.018169	-0.000003
H82	H	0.533624	0.109141	0.140358
H83	H	1.131276	0.083559	0.442107
N84	N	0.444121	0.018174	-0.156608
N85	N	0.472460	-0.025270	-0.170150
H86	H	0.454894	-0.042723	-0.227103
H87	H	1.102436	0.002852	0.557872
N88	N	0.841074	-0.165605	0.000101
N89	N	0.789886	-0.156127	0.065113
H90	H	0.734307	-0.170164	0.065124
N91	N	1.152540	-0.086931	0.000133
N92	N	1.170119	-0.060083	0.065150
H93	H	1.225695	-0.046044	0.065166
N94	N	0.867554	0.136917	0.435185
N95	N	0.822510	0.163137	0.490830
H96	H	0.777514	0.188860	0.466815
H97	H	0.449165	0.023210	0.140376
N98	N	0.959043	-0.023813	0.435056
N99	N	0.891099	-0.039644	0.454835
H100	H	0.879318	-0.072358	0.430754
H101	H	1.124107	-0.797547	0.000051
N102	N	1.223262	-0.426517	0.000078
N103	N	1.292033	-0.409130	0.000088
H104	H	1.346984	-0.431454	0.000094
H105	H	1.204796	-0.571368	0.000062
N106	N	0.762180	-0.289849	-0.000004
N107	N	0.693404	-0.307230	-0.000023
H108	H	0.638457	-0.284901	-0.000042
N109	N	1.150765	-0.188843	0.000095
N110	N	1.219538	-0.171458	0.000109
H111	H	1.274487	-0.193783	0.000112
H112	H	0.533491	0.109118	-0.140408
H113	H	1.209091	-0.328652	0.000095
N114	N	0.830213	-0.780694	0.000006
N115	N	0.812630	-0.807541	-0.065010
H116	H	0.757046	-0.821572	-0.065034
N117	N	0.757722	-0.543010	0.000021
N118	N	0.706524	-0.533528	0.065024
H119	H	0.650940	-0.547559	0.065021
H120	H	0.858655	-0.070093	0.000088
N121	N	0.835236	0.046880	0.565079
N122	N	0.770090	0.074705	0.545296
H123	H	0.713319	0.067695	0.569366
H124	H	0.847786	-0.685203	0.000019
H125	H	0.418809	0.150587	-0.000044
H126	H	1.125732	-0.706075	0.000065
N127	N	0.760374	-0.391743	0.000004
N128	N	0.692398	-0.364085	-0.000012
H129	H	0.636805	-0.378106	-0.000028
H130	H	1.206421	-0.479900	0.000073
N131	N	0.759516	-0.441110	0.000015
N132	N	0.690742	-0.458495	0.000008
H133	H	0.635793	-0.436169	0.000005
H134	H	1.020304	0.146814	0.558160
