data_functionalizedCrystal
_audit_creation_method	'MofGen! by Chris Wilmer'
_symmetry_space_group_name_H-M	'P1'
_symmetry_Int_Tables_number	1
_symmetry_cell_setting	triclinic
loop_
_symmetry_equiv_pos_as_xyz
  x,y,z
_cell_length_a	18.215407
_cell_length_b	16.120531
_cell_length_c	18.215398
_cell_angle_alpha	87.131202
_cell_angle_beta	89.980536
_cell_angle_gamma	87.067235
loop_
_atom_site_label
_atom_site_type_symbol
_atom_site_fract_x
_atom_site_fract_y
_atom_site_fract_z
Zn1	Zn	1.110174	0.331928	-0.430943
Zn2	Zn	1.103827	0.471344	-0.314104
Zn3	Zn	0.987107	0.331949	-0.307891
Zn4	Zn	0.980818	0.471303	-0.437127
O5	O	1.045482	0.401631	-0.372516
O6	O	1.212316	0.350430	-0.415456
O7	O	1.088319	0.452878	-0.210297
O8	O	1.008720	0.215280	-0.319026
O9	O	1.207653	0.452858	-0.329615
O10	O	1.099137	0.215265	-0.409431
O11	O	1.002565	0.350466	-0.205732
O12	O	0.883289	0.350427	-0.325023
O13	O	0.998002	0.452789	-0.539290
O14	O	0.878669	0.452810	-0.419972
O15	O	1.093039	0.350391	-0.534746
O16	O	1.082222	0.588005	-0.335612
O17	O	0.991848	0.587975	-0.425997
C18	C	0.854276	0.401617	-0.372495
C19	C	0.772476	0.401631	-0.372504
C20	C	1.035684	0.618240	-0.382166
C21	C	1.031559	0.710906	-0.386318
C22	C	0.581892	0.455025	-0.421889
C23	C	0.505033	0.455028	-0.421898
C24	C	0.509822	0.348252	-0.323161
C25	C	0.586680	0.348246	-0.323156
C26	C	0.622713	0.401637	-0.372519
C27	C	0.468996	0.401646	-0.372533
C28	C	0.385662	0.401648	-0.372543
C29	C	0.706052	0.401634	-0.372510
C30	C	1.024034	0.880569	-0.393915
C31	C	1.066957	0.921853	-0.351077
C32	C	1.062770	1.016259	-0.355303
C33	C	1.028220	0.786154	-0.389689
C34	C	1.237434	0.401646	-0.372539
C35	C	1.319232	0.401652	-0.372548
C36	C	1.045527	0.401583	-0.564467
C37	C	1.045547	0.401563	-0.646265
C38	C	1.055312	1.184176	-0.362832
C39	C	1.059434	1.091510	-0.358671
C40	C	1.090237	0.454786	-0.913700
C41	C	1.090225	0.454815	-0.836842
C42	C	1.000919	0.348179	-0.832073
C43	C	1.000928	0.348154	-0.908929
C44	C	1.045592	0.401457	-0.949740
C45	C	1.045570	0.401510	-0.796027
C46	C	1.045556	0.401541	-0.712694
C47	C	1.045605	0.401427	-1.033078
C48	C	1.045481	0.401619	-0.181310
C49	C	1.045615	0.401404	-0.099502
H50	H	0.471801	0.498501	-0.462101
H51	H	1.106849	0.886297	-0.311227
N52	N	0.955298	0.293723	-0.790398
N53	N	0.887141	0.299242	-0.799212
H54	H	0.854921	0.260777	-0.769782
H55	H	0.984144	0.916123	-0.433760
H56	H	1.126604	0.498189	-0.946926
N57	N	1.135830	0.509299	-0.800040
N58	N	1.175698	0.556887	-0.836490
H59	H	1.207908	0.595371	-0.810500
N60	N	0.955323	0.293663	-0.945735
N61	N	0.963685	0.216737	-0.933727
H62	H	0.931476	0.178254	-0.959720
N63	N	0.473002	0.293722	-0.272746
N64	N	0.404380	0.293734	-0.272756
H65	H	0.378375	0.255222	-0.237148
H66	H	0.619917	0.304765	-0.282953
N67	N	0.618688	0.509568	-0.472313
N68	N	0.582228	0.557232	-0.516389
H69	H	0.608213	0.595754	-0.552004
