data_functionalizedCrystal
_audit_creation_method	'MofGen! by Chris Wilmer'
_symmetry_space_group_name_H-M	'P1'
_symmetry_Int_Tables_number	1
_symmetry_cell_setting	triclinic
loop_
_symmetry_equiv_pos_as_xyz
  x,y,z
_cell_length_a	14.971486
_cell_length_b	18.266242
_cell_length_c	14.971486
_cell_angle_alpha	89.993450
_cell_angle_beta	96.385871
_cell_angle_gamma	90.004077
loop_
_atom_site_label
_atom_site_type_symbol
_atom_site_fract_x
_atom_site_fract_y
_atom_site_fract_z
O1	O	1.186950	0.060797	-0.116564
O2	O	0.926550	0.060817	-0.130523
O3	O	1.063730	0.060801	0.006657
O4	O	1.049771	0.060813	-0.253744
O5	O	1.063706	-0.060961	0.006664
O6	O	0.926527	-0.060945	-0.130516
O7	O	1.186927	-0.060965	-0.116557
Zn8	Zn	1.056723	-0.080287	-0.123535
Zn9	Zn	1.056754	0.080139	-0.123545
O10	O	1.049748	-0.060949	-0.253736
C11	C	0.893214	-0.000061	-0.129895
C12	C	0.793917	-0.000054	-0.128024
N13	N	1.056709	-0.189774	-0.123528
C14	C	0.736691	-0.000051	-0.208614
C15	C	0.643392	-0.000062	-0.206850
C16	C	0.607320	-0.000071	-0.124497
C17	C	0.664552	-0.000075	-0.043902
C18	C	0.757850	-0.000070	-0.045666
C19	C	0.470090	-0.000086	-0.040231
C20	C	0.376786	-0.000090	-0.038466
C21	C	0.355632	-0.000078	-0.201415
C22	C	0.448930	-0.000073	-0.203179
C23	C	0.506156	-0.000076	-0.122584
C24	C	1.117472	-0.228090	-0.062815
C25	C	1.117478	-0.304735	-0.062811
C26	C	1.056729	-0.343061	-0.123535
C27	C	0.995954	-0.304736	-0.184253
C28	C	0.995944	-0.228093	-0.184250
N29	N	1.045429	-0.463389	-0.202669
N30	N	1.045443	-0.536197	-0.202670
C31	C	1.056754	-0.573983	-0.123549
N32	N	1.068067	-0.536211	-0.044424
N33	N	1.068056	-0.463396	-0.044424
C34	C	1.056733	-0.426168	-0.123546
C35	C	1.117527	-0.695406	-0.062826
C36	C	1.117526	-0.772053	-0.062820
C37	C	0.996007	-0.772052	-0.184270
C38	C	0.996003	-0.695408	-0.184268
C39	C	1.056768	-0.657089	-0.123547
C40	C	1.220263	-0.000085	-0.117185
C41	C	1.319561	-0.000087	-0.119056
C42	C	1.063094	-0.000079	0.039985
C43	C	1.061223	-0.000079	0.139282
N44	N	1.056776	0.189626	-0.123544
C45	C	1.050384	-0.000067	-0.287065
C46	C	1.052254	-0.000063	-0.386362
C47	C	1.141812	-0.000085	0.196507
C48	C	1.140049	-0.000078	0.289807
C49	C	1.057696	-0.000069	0.325879
C50	C	0.977101	-0.000060	0.268646
C51	C	0.978865	-0.000062	0.175349
C52	C	0.973430	-0.000057	0.463109
C53	C	0.971665	-0.000056	0.556413
C54	C	1.134614	-0.000073	0.577567
C55	C	1.136378	-0.000075	0.484269
C56	C	1.055782	-0.000067	0.427043
H57	H	0.596802	-0.000059	-0.272474
C58	C	0.929949	-0.813522	-0.250241
C59	C	0.876720	-0.763556	-0.303402
C60	C	0.815845	-0.801734	-0.364175
H61	H	0.962059	-0.843415	-0.287615
H62	H	0.892637	-0.843413	-0.218026
H63	H	0.914026	-0.733678	-0.335615
H64	H	0.844590	-0.733662	-0.266052
H65	H	0.778534	-0.831626	-0.331959
H66	H	0.847962	-0.831626	-0.401542
H67	H	0.779716	-0.767839	-0.400246
H68	H	0.907800	-0.000049	0.416517
H69	H	0.347419	-0.000098	0.028593
H70	H	1.200238	-0.000076	0.624165
H71	H	0.516682	-0.000089	0.025399
C72	C	0.930183	-0.653711	-0.250244
C73	C	0.977882	-0.609685	-0.305060
C74	C	0.917276	-0.571258	-0.365842
H75	H	0.893980	-0.687429	-0.286497
H76	H	0.892925	-0.623778	-0.218033
H77	H	1.015125	-0.639615	-0.337268
H78	H	1.014082	-0.575953	-0.268832
H79	H	0.880017	-0.541324	-0.333632
H80	H	0.881076	-0.604981	-0.402089
H81	H	0.949630	-0.541376	-0.403037
H82	H	1.208874	-0.000097	0.167145
H83	H	0.804443	-0.000071	0.019958
C84	C	0.293608	-0.000193	-0.288989
C85	C	0.309938	-0.062819	-0.338584
C86	C	0.252823	-0.062940	-0.419262
H87	H	0.232847	-0.000238	-0.276271
H88	H	0.304561	0.042252	-0.322802
H89	H	0.298978	-0.105253	-0.304778
H90	H	0.370687	-0.062787	-0.351326
H91	H	0.263776	-0.020496	-0.453075
H92	H	0.192066	-0.062984	-0.406535
H93	H	0.263900	-0.105428	-0.452926
H94	H	0.635175	-0.000093	0.023152
H95	H	1.167004	-0.803250	-0.013376
C96	C	1.183475	-0.186621	0.003217
C97	C	1.236675	-0.236587	0.056405
C98	C	1.297476	-0.198411	0.117253
H99	H	1.220821	-0.156707	-0.028913
H100	H	1.151281	-0.156750	0.040558
H101	H	1.268866	-0.266446	0.019069
H102	H	1.199354	-0.266502	0.088555
H103	H	1.265282	-0.168540	0.154594
H104	H	1.334816	-0.168499	0.085115
H105	H	1.333574	-0.232307	0.153353
C106	C	1.227644	-0.000128	0.351788
C107	C	1.300143	-0.000162	0.300229
C108	C	1.380852	-0.000219	0.357295
H109	H	1.230487	0.042322	0.388638
H110	H	1.230379	-0.042606	0.388617
H111	H	1.297410	0.042311	0.263416
H112	H	1.297330	-0.042609	0.263382
H113	H	1.383587	-0.042696	0.394124
H114	H	1.383685	0.042232	0.394141
H115	H	1.430052	-0.000249	0.322321
C116	C	1.183309	-0.346390	0.003208
C117	C	1.135617	-0.390393	0.058055
C118	C	1.196228	-0.428768	0.118888
H119	H	1.220594	-0.376338	-0.028935
H120	H	1.219485	-0.312618	0.039427
H121	H	1.099457	-0.424161	0.021840
H122	H	1.098335	-0.360463	0.090218
H123	H	1.232404	-0.394996	0.155106
H124	H	1.233510	-0.458712	0.086737
H125	H	1.163878	-0.458623	0.156113
C126	C	0.891270	-0.000092	0.113363
C127	C	0.818769	-0.000102	0.164920
C128	C	0.738061	-0.000135	0.107852
H129	H	0.888455	0.042359	0.076504
H130	H	0.888511	-0.042569	0.076545
H131	H	0.821527	0.042371	0.201723
H132	H	0.821555	-0.042550	0.201777
H133	H	0.735302	-0.042612	0.071033
H134	H	0.735256	0.042316	0.070995
H135	H	0.688861	-0.000149	0.142824
C136	C	0.929955	-0.346438	-0.250041
C137	C	0.875181	-0.390471	-0.202303
C138	C	0.814374	-0.428904	-0.262874
H139	H	0.893675	-0.312724	-0.286227
H140	H	0.962148	-0.376368	-0.287318
H141	H	0.842990	-0.360543	-0.165041
H142	H	0.911435	-0.424198	-0.166120
H143	H	0.846567	-0.458834	-0.300152
H144	H	0.778101	-0.395184	-0.299057
H145	H	0.777208	-0.458789	-0.230493
H146	H	0.766054	-0.000044	-0.275675
C147	C	0.488228	-0.000164	-0.292522
C148	C	0.541200	-0.062788	-0.298286
C149	C	0.577429	-0.062888	-0.380568
H150	H	0.440884	-0.000197	-0.340353
H151	H	0.524231	0.042282	-0.296588
H152	H	0.505199	-0.105223	-0.294228
H153	H	0.588558	-0.062768	-0.250475
H154	H	0.613433	-0.020442	-0.384635
H155	H	0.530080	-0.062920	-0.428393
H156	H	0.613382	-0.105374	-0.384487
C157	C	0.929934	-0.186620	-0.250276
C158	C	0.876744	-0.236585	-0.303470
C159	C	0.815935	-0.198406	-0.364313
H160	H	0.892583	-0.156725	-0.218142
H161	H	0.962123	-0.156730	-0.287613
H162	H	0.844558	-0.266462	-0.266138
H163	H	0.914070	-0.266481	-0.335624
H164	H	0.848124	-0.168516	-0.401650
H165	H	0.778590	-0.168512	-0.332171
H166	H	0.779844	-0.232301	-0.400418
C167	C	1.183528	-0.653930	0.003205
C168	C	1.236723	-0.703895	0.056401
C169	C	1.297524	-0.665716	0.117246
H170	H	1.220876	-0.624021	-0.028927
H171	H	1.151334	-0.624055	0.040541
H172	H	1.268915	-0.733757	0.019069
H173	H	1.199399	-0.733805	0.088552
H174	H	1.265330	-0.635841	0.154582
H175	H	1.334866	-0.635808	0.085107
H176	H	1.333619	-0.699611	0.153352
H177	H	0.910047	-0.000048	0.298024
C178	C	0.882163	0.000004	0.595406
C179	C	0.811958	0.000040	0.525324
C180	C	0.729496	0.000109	0.561210
H181	H	0.877942	-0.042442	0.631357
H182	H	0.878064	0.042486	0.631330
H183	H	0.816055	-0.042437	0.489415
H184	H	0.816149	0.042483	0.489368
H185	H	0.725397	0.042590	0.597134
H186	H	0.725284	-0.042338	0.597160
H187	H	0.681852	0.000140	0.513665
H188	H	1.203437	-0.000087	0.454903
