data_functionalizedCrystal
_audit_creation_method	'MofGen! by Chris Wilmer'
_symmetry_space_group_name_H-M	'P1'
_symmetry_Int_Tables_number	1
_symmetry_cell_setting	triclinic
loop_
_symmetry_equiv_pos_as_xyz
  x,y,z
_cell_length_a	16.992694
_cell_length_b	10.489741
_cell_length_c	16.053802
_cell_angle_alpha	92.592148
_cell_angle_beta	87.249047
_cell_angle_gamma	87.603699
loop_
_atom_site_label
_atom_site_type_symbol
_atom_site_fract_x
_atom_site_fract_y
_atom_site_fract_z
O1	O	1.045194	0.265584	-0.069324
O2	O	0.816893	0.262613	-0.069348
O3	O	0.936238	0.078953	-0.069330
O4	O	0.925849	0.449244	-0.069341
O5	O	0.929669	0.089018	0.069528
O6	O	0.810324	0.272678	0.069510
O7	O	1.038624	0.275649	0.069534
Zn8	Zn	0.923431	0.275761	0.091569
Zn9	Zn	0.932086	0.262501	-0.091383
O10	O	0.919279	0.459309	0.069516
C11	C	0.784374	0.263826	0.000078
C12	C	0.697266	0.252430	0.000068
C13	C	0.647647	0.362379	0.000066
C14	C	0.565799	0.351666	0.000078
C15	C	0.533573	0.231001	0.000086
C16	C	0.583199	0.121044	0.000091
C17	C	0.665044	0.131759	0.000085
C18	C	0.289723	0.186590	0.000110
C19	C	0.207871	0.175882	0.000113
C20	C	0.190477	0.406505	0.000101
C21	C	0.272325	0.417210	0.000090
C22	C	0.321944	0.307253	0.000100
N23	N	0.449912	0.220047	0.000096
N24	N	0.405603	0.318209	0.000096
C25	C	0.932169	0.036385	0.000098
C26	C	0.929821	-0.105448	0.000096
C27	C	0.853885	-0.180196	0.000082
C28	C	0.886518	-0.264235	0.068550
C29	C	0.893013	-0.274131	-0.068353
C30	C	0.962482	-0.187615	0.068621
C31	C	0.968969	-0.197507	-0.068344
C32	C	1.001656	-0.281513	0.000141
C33	C	1.071143	0.274436	0.000107
C34	C	1.158252	0.285831	0.000110
C35	C	0.923349	0.501876	0.000086
C36	C	0.925697	0.643710	0.000083
N37	N	0.917530	0.284811	0.216428
N38	N	0.937994	0.253441	-0.216242
C39	C	0.968330	0.206695	0.260130
C40	C	0.964209	0.213038	0.347536
C41	C	0.909292	0.297505	0.391239
C42	C	0.858486	0.375625	0.347531
C43	C	0.862603	0.369274	0.260127
C44	C	0.891306	0.325210	0.652646
C45	C	0.887193	0.331557	0.740056
C46	C	0.992917	0.168969	0.740055
C47	C	0.997032	0.162631	0.652649
C48	C	0.946224	0.240745	0.608949
N49	N	0.905080	0.303994	0.480582
N50	N	0.950432	0.234249	0.519607
H51	H	0.298558	0.515467	0.000074
H52	H	0.150069	0.496026	0.000095
C53	C	0.682478	0.493508	0.000098
C54	C	0.621500	0.587503	0.000122
C55	C	0.653552	0.708316	0.000166
H56	H	0.716316	0.499156	-0.048314
H57	H	0.711738	0.506060	0.048538
H58	H	0.592253	0.574955	-0.048313
H59	H	0.587657	0.581897	0.048530
H60	H	0.682812	0.720869	0.048606
H61	H	0.687390	0.713951	-0.048247
H62	H	0.612184	0.772107	0.000189
H63	H	1.034282	0.105370	0.775644
H64	H	0.849937	0.388816	0.617072
H65	H	0.842470	0.400346	0.775635
C66	C	1.015298	-0.158030	-0.145620
C67	C	0.978657	-0.201744	-0.217120
C68	C	1.021300	-0.165384	-0.288328
H69	H	1.067528	-0.194178	-0.146223
H70	H	1.016835	-0.067553	-0.144824
H71	H	0.977129	-0.292203	-0.217916
H72	H	0.926431	-0.165602	-0.216544
H73	H	1.022837	-0.074907	-0.287532
H74	H	1.073529	-0.201534	-0.288923
H75	H	0.996442	-0.195028	-0.336849
H76	H	0.863611	-0.312087	-0.126243
H77	H	0.181636	0.077618	0.000119
C78	C	0.548250	-0.009988	0.000270
C79	C	0.570020	-0.071758	0.071721
C80	C	0.537835	-0.192463	0.071916
H81	H	0.567500	-0.059271	-0.048095
H82	H	0.492394	-0.000679	0.000315
H83	H	0.625865	-0.081074	0.071669
H84	H	0.550771	-0.022513	0.120098
H85	H	0.481978	-0.183153	0.071961
H86	H	0.557086	-0.241734	0.023548
H87	H	0.552594	-0.234384	0.120399
C88	C	1.027984	0.114857	0.212836
C89	C	1.071575	0.047780	0.269820
C90	C	1.126527	-0.036849	0.226286
H91	H	1.062581	0.161505	0.178726
H92	H	1.001089	0.056283	0.178767
H93	H	1.098469	0.106346	0.303874
H94	H	1.037000	0.001107	0.303931
H95	H	1.099632	-0.095423	0.192218
H96	H	1.161119	0.009809	0.192179
H97	H	1.156105	-0.082379	0.264943
H98	H	1.005574	0.149429	0.383117
C99	C	0.343554	0.067150	-0.000059
C100	C	0.332274	-0.010184	-0.071506
C101	C	0.381859	-0.120220	-0.071695
H102	H	0.331474	0.021376	0.048309
H103	H	0.396930	0.090743	-0.000105
H104	H	0.278910	-0.033778	-0.071452
H105	H	0.344360	0.035551	-0.119885
H106	H	0.435234	-0.096627	-0.071742
H107	H	0.369774	-0.165983	-0.023324
H108	H	0.374217	-0.172699	-0.120175
H109	H	0.525402	0.441198	0.000074
H110	H	0.813766	0.444395	0.383119
H111	H	0.705444	0.042226	0.000087
C112	C	1.056332	0.070234	0.605318
C113	C	1.016167	-0.015766	0.555403
C114	C	1.070678	-0.101157	0.511882
H115	H	1.085819	0.024519	0.643949
H116	H	1.091061	0.116367	0.571009
H117	H	0.981452	-0.061894	0.589709
H118	H	0.986683	0.029912	0.516756
H119	H	1.105407	-0.055024	0.477573
H120	H	1.100163	-0.146863	0.550520
H121	H	1.043435	-0.159511	0.478004
C122	C	0.839944	-0.303905	0.145621
C123	C	0.775830	-0.373762	0.121127
C124	C	0.732910	-0.410335	0.192098
H125	H	0.821236	-0.229942	0.178135
H126	H	0.873031	-0.355317	0.177859
H127	H	0.742749	-0.322352	0.088903
H128	H	0.794516	-0.447741	0.088623
H129	H	0.765997	-0.461747	0.224336
H130	H	0.714207	-0.336366	0.224607
H131	H	0.689409	-0.457747	0.175489
H132	H	0.791448	-0.135972	0.000144
H133	H	0.821235	0.432883	0.224546
H134	H	0.991843	-0.149790	0.126570
C135	C	1.084982	-0.340094	0.000369
C136	C	1.120966	-0.295974	0.072185
C137	C	1.197720	-0.349928	0.072433
H138	H	1.114532	-0.316217	-0.047745
H139	H	1.083086	-0.430510	-0.000048
H140	H	1.122866	-0.205579	0.072594
H141	H	1.091439	-0.319851	0.120311
H142	H	1.195824	-0.440343	0.072016
H143	H	1.227262	-0.326046	0.024316
H144	H	1.222141	-0.320010	0.121162
