data_functionalizedCrystal
_audit_creation_method	'MofGen! by Chris Wilmer'
_symmetry_space_group_name_H-M	'P1'
_symmetry_Int_Tables_number	1
_symmetry_cell_setting	triclinic
loop_
_symmetry_equiv_pos_as_xyz
  x,y,z
_cell_length_a	14.044190
_cell_length_b	10.868271
_cell_length_c	11.792241
_cell_angle_alpha	90.000107
_cell_angle_beta	91.307403
_cell_angle_gamma	89.990065
loop_
_atom_site_label
_atom_site_type_symbol
_atom_site_fract_x
_atom_site_fract_y
_atom_site_fract_z
O1	O	0.129987	-0.102217	-1.519115
O2	O	0.379987	0.147783	-1.269115
O3	O	0.629987	0.397783	-1.019115
O4	O	0.879987	0.647783	-0.769115
O5	O	0.143384	-0.102247	-1.190032
O6	O	0.393384	0.147753	-0.940032
O7	O	0.643384	0.397753	-0.690032
O8	O	0.893384	0.647753	-0.440032
O9	O	-0.001325	-0.102208	-1.349630
O10	O	0.248675	0.147792	-1.099630
O11	O	0.498675	0.397792	-0.849630
O12	O	0.748675	0.647792	-0.599630
O13	O	0.274696	-0.102256	-1.359517
O14	O	0.524696	0.147744	-1.109517
O15	O	0.774696	0.397744	-0.859517
O16	O	1.024696	0.647744	-0.609517
O17	O	-0.001331	0.102436	-1.349615
O18	O	0.248669	0.352436	-1.099615
O19	O	0.498669	0.602436	-0.849615
O20	O	0.748669	0.852436	-0.599615
O21	O	0.143378	0.102398	-1.190017
O22	O	0.393378	0.352398	-0.940017
O23	O	0.643378	0.602398	-0.690017
O24	O	0.893378	0.852398	-0.440017
O25	O	0.129981	0.102428	-1.519100
O26	O	0.379981	0.352428	-1.269100
O27	O	0.629981	0.602428	-1.019100
O28	O	0.879981	0.852428	-0.769100
Zn29	Zn	0.136679	0.134904	-1.354556
Zn30	Zn	0.386679	0.384904	-1.104556
Zn31	Zn	0.636679	0.634904	-0.854556
Zn32	Zn	0.886679	0.884904	-0.604556
Zn33	Zn	0.136686	-0.134724	-1.354576
Zn34	Zn	0.386686	0.115276	-1.104576
Zn35	Zn	0.636686	0.365276	-0.854576
Zn36	Zn	0.886686	0.615276	-0.604576
O37	O	0.274690	0.102389	-1.359502
O38	O	0.524690	0.352389	-1.109502
O39	O	0.774690	0.602389	-0.859502
O40	O	1.024690	0.852389	-0.609502
C41	C	0.142539	0.000072	-1.147655
C42	C	0.392539	0.250072	-0.897655
C43	C	0.642539	0.500072	-0.647655
C44	C	0.892539	0.750072	-0.397655
C45	C	0.140021	0.000061	-1.021404
C46	C	0.390021	0.250061	-0.771404
C47	C	0.640021	0.500061	-0.521404
C48	C	0.890021	0.750061	-0.271404
C49	C	-0.036664	0.000117	-1.345297
C50	C	0.213336	0.250117	-1.095297
C51	C	0.463336	0.500117	-0.845297
C52	C	0.713336	0.750117	-0.595297
C53	C	-0.141957	0.000127	-1.332395
C54	C	0.108043	0.250127	-1.082395
C55	C	0.358043	0.500127	-0.832395
C56	C	0.608043	0.750127	-0.582395
N57	N	0.136673	0.318919	-1.354551
N58	N	0.386673	0.568919	-1.104551
N59	N	0.636673	0.818919	-0.854551
N60	N	0.886673	1.068919	-0.604551
C61	C	-0.391894	0.000085	-1.400312
C62	C	-0.141894	0.250085	-1.150312
C63	C	0.108106	0.500085	-0.900312
C64	C	0.358106	0.750085	-0.650312
C65	C	-0.334735	0.000085	-1.308825
C66	C	-0.084735	0.250085	-1.058825
C67	C	0.165265	0.500085	-0.808825
C68	C	0.415265	0.750085	-0.558825
C69	C	-0.227463	0.000108	-1.321943
C70	C	0.022537	0.250108	-1.071943
C71	C	0.272537	0.500108	-0.821943
C72	C	0.522537	0.750108	-0.571943
C73	C	-0.499176	0.000062	-1.387197
C74	C	-0.249176	0.250062	-1.137197
C75	C	0.000824	0.500062	-0.887197
C76	C	0.250824	0.750062	-0.637197
C77	C	0.310029	0.000061	-1.363835
C78	C	0.560029	0.250061	-1.113835
C79	C	0.810029	0.500061	-0.863835
C80	C	1.060029	0.750061	-0.613835
C81	C	0.415322	0.000043	-1.376737
C82	C	0.665322	0.250043	-1.126737
C83	C	0.915322	0.500043	-0.876737
C84	C	1.165322	0.750043	-0.626737
N85	N	0.136684	-0.318738	-1.354589
N86	N	0.386684	-0.068738	-1.104589
N87	N	0.636684	0.181262	-0.854589
N88	N	0.886684	0.431262	-0.604589
C89	C	0.136684	0.569925	-1.354570
C90	C	0.386684	0.819925	-1.104570
C91	C	0.636684	1.069925	-0.854570
C92	C	0.886684	1.319925	-0.604570
C93	C	0.136681	0.430247	-1.354556
C94	C	0.386681	0.680247	-1.104556
C95	C	0.636681	0.930247	-0.854556
C96	C	0.886681	1.180247	-0.604556
C97	C	0.130826	0.000106	-1.561478
C98	C	0.380826	0.250106	-1.311478
C99	C	0.630826	0.500106	-1.061478
C100	C	0.880826	0.750106	-0.811478
C101	C	0.133344	0.000109	-1.687728
C102	C	0.383344	0.250109	-1.437728
C103	C	0.633344	0.500109	-1.187728
C104	C	0.883344	0.750109	-0.937728
C105	C	0.135389	0.000097	-0.790257
C106	C	0.385389	0.250097	-0.540257
C107	C	0.635389	0.500097	-0.290257
C108	C	0.885389	0.750097	-0.040257
C109	C	0.137962	0.000078	-0.918884
C110	C	0.387962	0.250078	-0.668884
C111	C	0.637962	0.500078	-0.418884
C112	C	0.887962	0.750078	-0.168884
H113	H	-0.360267	0.000106	-1.488481
H114	H	-0.110267	0.250106	-1.238481
H115	H	0.139733	0.500106	-0.988481
H116	H	0.389733	0.750106	-0.738481
O117	O	-0.372570	-0.000091	-1.203687
O118	O	-0.122570	0.249909	-0.953687
O119	O	0.127430	0.499909	-0.703687
O120	O	0.377430	0.749909	-0.453687
C121	C	-0.429126	-0.106104	-1.190651
C122	C	-0.179126	0.143896	-0.940651
C123	C	0.070874	0.393896	-0.690651
C124	C	0.320874	0.643896	-0.440651
H125	H	-0.453176	-0.141443	-1.277702
H126	H	-0.203176	0.108557	-1.027702
H127	H	0.046824	0.358557	-0.777702
H128	H	0.296824	0.608557	-0.527702
H129	H	-0.494213	-0.082278	-1.138953
H130	H	-0.244213	0.167722	-0.888953
H131	H	0.005787	0.417722	-0.638953
H132	H	0.255787	0.667722	-0.388953
H133	H	-0.385725	-0.180313	-1.144756
H134	H	-0.135725	0.069687	-0.894756
H135	H	0.114275	0.319687	-0.644756
H136	H	0.364275	0.569687	-0.394756
