data_functionalizedCrystal
_audit_creation_method	'MofGen! by Chris Wilmer'
_symmetry_space_group_name_H-M	'P1'
_symmetry_Int_Tables_number	1
_symmetry_cell_setting	triclinic
loop_
_symmetry_equiv_pos_as_xyz
  x,y,z
_cell_length_a	15.995350
_cell_length_b	15.995350
_cell_length_c	13.448316
_cell_angle_alpha	89.995627
_cell_angle_beta	89.996887
_cell_angle_gamma	83.492375
loop_
_atom_site_label
_atom_site_type_symbol
_atom_site_fract_x
_atom_site_fract_y
_atom_site_fract_z
O1	O	1.110988	0.107929	-0.082603
O2	O	1.610988	0.607929	0.417397
O3	O	0.867213	0.121256	-0.082622
O4	O	1.367213	0.621256	0.417378
O5	O	0.995764	-0.007295	-0.082611
O6	O	1.495764	0.492705	0.417389
O7	O	0.982437	0.236480	-0.082614
O8	O	1.482437	0.736480	0.417386
O9	O	0.995748	-0.007303	0.082773
O10	O	1.495748	0.492697	0.582773
O11	O	0.867197	0.121248	0.082761
O12	O	1.367197	0.621248	0.582761
O13	O	1.110972	0.107921	0.082781
O14	O	1.610972	0.607921	0.582781
Cu15	Cu	0.989083	0.114584	0.097872
Cu16	Cu	1.489083	0.614584	0.597872
Cu17	Cu	0.989102	0.114593	-0.097713
Cu18	Cu	1.489102	0.614593	0.402287
O19	O	0.982421	0.236472	0.082770
O20	O	1.482421	0.736472	0.582770
C21	C	0.836010	0.120701	0.000067
C22	C	1.336010	0.620701	0.500067
C23	C	0.743060	0.119049	0.000059
C24	C	1.243060	0.619049	0.500059
C25	C	0.995205	-0.038494	0.000079
C26	C	1.495205	0.461506	0.500079
C27	C	0.993553	-0.131444	0.000073
C28	C	1.493553	0.368556	0.500073
C29	C	0.405312	0.113117	0.000080
C30	C	0.905312	0.613117	0.500080
C31	C	0.452746	0.021565	0.000450
C32	C	0.952746	0.521565	0.500450
C33	C	0.549436	0.023217	0.000070
C34	C	1.049436	0.523217	0.500070
C35	C	0.572873	0.116060	0.000070
C36	C	1.072873	0.616060	0.500070
C37	C	0.531795	0.161221	-0.094369
C38	C	1.031795	0.661221	0.405631
C39	C	0.435159	0.158921	-0.094441
C40	C	0.935159	0.658921	0.405559
C41	C	0.434802	0.160803	0.093631
C42	C	0.934802	0.660803	0.593631
C43	C	0.531747	0.160782	0.094873
C44	C	1.031747	0.660782	0.594873
C45	C	0.667570	0.117727	0.000061
C46	C	1.167570	0.617727	0.500061
C47	C	0.310614	0.111452	0.000082
C48	C	0.810614	0.611452	0.500082
C49	C	0.987621	-0.469192	0.000076
C50	C	1.487621	0.030808	0.500076
C51	C	0.896069	-0.421758	-0.000302
C52	C	1.396069	0.078242	0.499698
C53	C	0.897721	-0.325068	0.000071
C54	C	1.397721	0.174932	0.500071
C55	C	0.990564	-0.301631	0.000074
C56	C	1.490564	0.198369	0.500074
C57	C	1.035711	-0.342713	0.094518
C58	C	1.535711	0.157287	0.594518
C59	C	1.033411	-0.439349	0.094597
C60	C	1.533411	0.060651	0.594597
C61	C	1.035321	-0.439698	-0.093475
C62	C	1.535321	0.060302	0.406525
C63	C	1.035299	-0.342753	-0.094723
C64	C	1.535299	0.157247	0.405277
C65	C	0.992231	-0.206934	0.000076
C66	C	1.492231	0.293066	0.500076
C67	C	0.985956	-0.563890	0.000080
C68	C	1.485956	-0.063890	0.500080
C69	C	1.142175	0.108476	0.000090
C70	C	1.642175	0.608476	0.500090
C71	C	1.235125	0.110127	0.000091
C72	C	1.735125	0.610127	0.500091
C73	C	0.982980	0.267671	0.000078
C74	C	1.482980	0.767671	0.500078
C75	C	0.984631	0.360621	0.000077
C76	C	1.484631	0.860621	0.500077
N77	N	0.989076	0.114577	0.235436
N78	N	1.489076	0.614577	0.735436
N79	N	0.989116	0.114593	-0.235278
N80	N	1.489116	0.614593	0.264722
C81	C	1.046016	0.057677	0.287482
C82	C	1.546016	0.557677	0.787482
C83	C	1.046021	0.057677	0.391585
C84	C	1.546021	0.557677	0.891585
C85	C	0.989089	0.114580	0.443641
C86	C	1.489089	0.614580	0.943641
C87	C	0.932143	0.171482	0.391588
C88	C	1.432143	0.671482	0.891588
C89	C	0.932134	0.171478	0.287487
C90	C	1.432134	0.671478	0.787487
C91	C	0.932166	0.171487	0.608568
C92	C	1.432166	0.671487	1.108568
C93	C	0.932176	0.171493	0.712677
C94	C	1.432176	0.671493	1.212677
C95	C	1.046053	0.057686	0.712666
C96	C	1.546053	0.557686	1.212666
C97	C	1.046044	0.057682	0.608565
C98	C	1.546044	0.557682	1.108565
C99	C	0.989099	0.114586	0.556520
C100	C	1.489099	0.614586	1.056520
H101	H	0.577859	-0.012281	0.067768
H102	H	1.077859	0.487719	0.567768
Br103	Br	0.577148	0.105740	0.211321
Br104	Br	1.077148	0.605740	0.711321
H105	H	0.434217	-0.015034	0.068176
H106	H	0.934217	0.484966	0.568176
H107	H	0.885792	0.217821	0.566196
H108	H	1.385792	0.717821	1.066196
Br109	Br	0.854849	0.248696	0.216854
Br110	Br	1.354849	0.748696	0.716854
Br111	Br	1.145437	-0.493103	0.101756
Br112	Br	1.645437	0.006897	0.601756
H113	H	1.103004	-0.327391	-0.100423
H114	H	1.603004	0.172609	0.399577
Br115	Br	0.854870	0.248704	0.462232
Br116	Br	1.354870	0.748704	0.962232
H117	H	1.102822	-0.471459	-0.094107
H118	H	1.602822	0.028541	0.405893
H119	H	0.402911	0.226137	-0.098727
H120	H	0.902911	0.726137	0.401273
Br121	Br	0.557348	0.273630	0.104381
Br122	Br	1.057348	0.773630	0.604381
H123	H	1.000476	-0.457654	0.165193
H124	H	1.500476	0.042346	0.665193
Br125	Br	0.420095	-0.039153	-0.111798
Br126	Br	0.920095	0.460847	0.388202
Br127	Br	1.149398	-0.319175	0.100382
Br128	Br	1.649398	0.180825	0.600382
Br129	Br	0.404650	0.104042	-0.212104
Br130	Br	0.904650	0.604042	0.287896
Br131	Br	0.595852	-0.036072	-0.113157
Br132	Br	1.095852	0.463928	0.386843
H133	H	0.403040	0.228304	0.094270
H134	H	0.903040	0.728304	0.594270
Br135	Br	0.983428	-0.295419	0.211660
Br136	Br	1.483428	0.204581	0.711660
H137	H	0.862232	-0.296642	-0.067631
H138	H	1.362232	0.203358	0.432369
H139	H	0.859483	-0.440286	-0.068030
H140	H	1.359483	0.059714	0.431970
Br141	Br	0.555362	0.274899	-0.100250
Br142	Br	1.055362	0.774899	0.399750
Br143	Br	0.579094	0.108955	-0.211516
Br144	Br	1.079094	0.608955	0.288484
Br145	Br	1.123291	-0.019547	0.216845
Br146	Br	1.623291	0.480453	0.716845
Br147	Br	1.123295	-0.019548	0.462222
Br148	Br	1.623295	0.480452	0.962222
H149	H	0.414259	0.130869	0.165214
H150	H	0.914259	0.630869	0.665214
H151	H	0.859633	-0.441355	0.067042
H152	H	1.359633	0.058645	0.567042
Br153	Br	0.980744	-0.296792	-0.211194
Br154	Br	1.480744	0.203208	0.288806
H155	H	0.861980	-0.297206	0.067882
H156	H	1.361980	0.202794	0.567882
Br157	Br	0.985435	-0.473914	-0.212786
Br158	Br	1.485435	0.026086	0.287214
H159	H	1.092406	0.011352	0.566181
H160	H	1.592406	0.511352	1.066181
Br161	Br	1.123338	-0.019534	0.783302
Br162	Br	1.623338	0.480466	1.283302
Br163	Br	0.854908	0.248722	0.783317
Br164	Br	1.354908	0.748722	1.283317
