data_functionalizedCrystal
_audit_creation_method	'MofGen! by Chris Wilmer'
_symmetry_space_group_name_H-M	'P1'
_symmetry_Int_Tables_number	1
_symmetry_cell_setting	triclinic
loop_
_symmetry_equiv_pos_as_xyz
  x,y,z
_cell_length_a	10.967874
_cell_length_b	10.540510
_cell_length_c	9.483335
_cell_angle_alpha	99.408696
_cell_angle_beta	92.535322
_cell_angle_gamma	84.613739
loop_
_atom_site_label
_atom_site_type_symbol
_atom_site_fract_x
_atom_site_fract_y
_atom_site_fract_z
O1	O	1.574934	0.261888	0.515410
O2	O	1.225758	0.264703	0.427941
O3	O	1.408331	0.078907	0.473675
O4	O	1.392361	0.447683	0.469676
O5	O	1.445457	0.041089	0.241200
O6	O	1.262884	0.226884	0.195466
O7	O	1.612060	0.224070	0.282934
Cu8	Cu	1.440862	0.222024	0.217973
Cu9	Cu	1.396956	0.266748	0.492902
O10	O	1.429487	0.409865	0.237200
C11	C	1.199610	0.242732	0.300503
C12	C	1.066384	0.233592	0.267131
C13	C	0.987756	0.249109	0.372681
C14	C	0.850060	0.239663	0.338191
C15	C	1.425704	0.012647	0.357142
C16	C	1.422142	-0.128444	0.356259
C17	C	1.549060	-0.340886	0.387498
C18	C	1.552773	-0.194051	0.388980
C19	C	1.334071	-0.154297	0.472260
C20	C	1.331182	-0.301156	0.471644
C21	C	1.370681	-0.344080	0.206594
C22	C	1.377156	-0.197774	0.206399
C23	C	1.638208	0.246041	0.410375
C24	C	1.771432	0.255182	0.443757
C25	C	1.412114	0.476126	0.353736
C26	C	1.415675	0.617219	0.354629
N27	N	1.471752	0.190567	0.024605
C28	C	1.431775	0.231294	-0.225040
C29	C	1.406043	0.257479	-0.064081
N30	N	1.366076	0.298196	0.686273
H31	H	0.806047	0.275469	0.559665
H32	H	1.615156	-0.396282	0.305043
F33	F	0.804816	0.213167	0.186691
F34	F	1.207342	-0.096356	0.447234
H35	H	1.507077	0.154636	-0.268271
F36	F	1.307624	0.357695	-0.007583
F37	F	1.033004	0.275615	0.524173
F38	F	1.254171	-0.140362	0.164692
H39	H	1.031760	0.213322	0.151231
H40	H	1.272745	-0.370320	0.181132
F41	F	1.374148	-0.090524	0.616598
F42	F	1.370208	-0.330224	0.616310
H43	H	1.547059	0.113904	-0.018621
H44	H	1.290783	0.374863	-0.270493
H45	H	1.620291	-0.178084	0.306927
H46	H	1.584541	-0.366958	0.494837
H47	H	1.590175	-0.148023	0.497489
F48	F	1.202221	-0.335070	0.447537
H49	H	1.428264	-0.400962	0.116367
H50	H	1.441497	-0.183182	0.120379
