data_functionalizedCrystal
_audit_creation_method	'MofGen! by Chris Wilmer'
_symmetry_space_group_name_H-M	'P1'
_symmetry_Int_Tables_number	1
_symmetry_cell_setting	triclinic
loop_
_symmetry_equiv_pos_as_xyz
  x,y,z
_cell_length_a	12.837943
_cell_length_b	19.188930
_cell_length_c	11.892095
_cell_angle_alpha	93.870839
_cell_angle_beta	85.689438
_cell_angle_gamma	88.986861
loop_
_atom_site_label
_atom_site_type_symbol
_atom_site_fract_x
_atom_site_fract_y
_atom_site_fract_z
O1	O	1.381278	0.177430	-0.094009
O2	O	1.881278	0.677430	0.405991
O3	O	1.079513	0.168466	-0.094014
O4	O	1.579513	0.668466	0.405986
O5	O	1.239102	0.071891	-0.093990
O6	O	1.739102	0.571891	0.406010
O7	O	1.221689	0.274006	-0.094034
O8	O	1.721689	0.774006	0.405966
O9	O	1.225796	0.079929	0.094016
O10	O	1.725796	0.579929	0.594016
O11	O	1.066207	0.176505	0.093991
O12	O	1.566207	0.676505	0.593991
O13	O	1.367972	0.185469	0.093996
O14	O	1.867972	0.685469	0.593996
Zn15	Zn	1.214977	0.182263	0.123844
Zn16	Zn	1.714977	0.682263	0.623844
Zn17	Zn	1.232508	0.171672	-0.123862
Zn18	Zn	1.732508	0.671672	0.376138
O19	O	1.208383	0.282044	0.093971
O20	O	1.708383	0.782044	0.593971
C21	C	1.034253	0.169458	-0.000012
C22	C	1.534253	0.669458	0.499988
C23	C	0.919217	0.160427	-0.000013
C24	C	1.419217	0.660427	0.499987
C25	C	1.231885	0.049861	0.000016
C26	C	1.731885	0.549861	0.500016
C27	C	1.230191	-0.027760	0.000026
C28	C	1.730191	0.472240	0.500026
C29	C	0.677767	0.268994	-0.000021
C30	C	1.177767	0.768994	0.499979
C31	C	0.569680	0.260512	-0.000021
C32	C	1.069680	0.760512	0.499979
C33	C	0.594952	0.134982	-0.000005
C34	C	1.094952	0.634982	0.499995
C35	C	0.703040	0.143464	-0.000005
C36	C	1.203040	0.643464	0.499995
C37	C	0.744443	0.210472	-0.000015
C38	C	1.244443	0.710472	0.499985
C39	C	0.852533	0.218953	-0.000023
C40	C	1.352533	0.718953	0.499977
C41	C	0.877803	0.093423	0.000001
C42	C	1.377803	0.593423	0.500001
C43	C	0.769716	0.084941	0.000001
C44	C	1.269716	0.584941	0.500001
C45	C	1.323833	-0.066260	0.000033
C46	C	1.823833	0.433740	0.500033
C47	C	1.322244	-0.139194	0.000015
C48	C	1.822244	0.360806	0.500015
C49	C	1.227006	-0.173623	0.000012
C50	C	1.727006	0.326377	0.500012
C51	C	1.133352	-0.135114	-0.000001
C52	C	1.633352	0.364886	0.499999
C53	C	1.134944	-0.062182	0.000006
C54	C	1.634944	0.437818	0.500006
N55	N	1.149679	-0.283886	0.063993
N56	N	1.649679	0.216114	0.563993
N57	N	1.148172	-0.353168	0.063989
N58	N	1.648172	0.146832	0.563989
C59	C	1.222201	-0.393362	-0.000010
C60	C	1.722201	0.106638	0.499990
N61	N	1.297809	-0.361657	-0.063992
N62	N	1.797809	0.138343	0.436008
N63	N	1.299318	-0.292369	-0.063982
N64	N	1.799318	0.207631	0.436018
C65	C	1.225268	-0.252705	0.000004
C66	C	1.725268	0.247295	0.500004
C67	C	1.314126	-0.510946	-0.000025
C68	C	1.814126	-0.010946	0.499975
C69	C	1.312534	-0.583882	-0.000050
C70	C	1.812534	-0.083882	0.499950
C71	C	1.123638	-0.579799	-0.000054
C72	C	1.623638	-0.079799	0.499946
C73	C	1.125234	-0.506866	-0.000041
C74	C	1.625234	-0.006866	0.499959
C75	C	1.220481	-0.472444	-0.000020
C76	C	1.720481	0.027556	0.499980
C77	C	1.413232	0.184477	-0.000009
C78	C	1.913232	0.684477	0.499991
C79	C	1.528268	0.193508	-0.000015
C80	C	2.028268	0.693508	0.499985
C81	C	1.215600	0.304074	-0.000037
C82	C	1.715600	0.804074	0.499963
C83	C	1.217294	0.381694	-0.000054
C84	C	1.717294	0.881694	0.499946
N85	N	1.203020	0.189491	0.292896
N86	N	1.703020	0.689491	0.792896
N87	N	1.244474	0.164439	-0.292914
N88	N	1.744474	0.664439	0.207086
C89	C	1.327677	0.114101	0.529563
C90	C	1.827677	0.614101	1.029563
C91	C	1.319327	0.119160	0.647904
C92	C	1.819327	0.619160	1.147904
C93	C	1.177964	0.204661	0.647920
C94	C	1.677964	0.704661	1.147920
C95	C	1.186314	0.199603	0.529579
C96	C	1.686314	0.699603	1.029579
C97	C	1.261175	0.154323	0.470405
C98	C	1.761175	0.654323	0.970405
C99	C	1.269529	0.149269	0.352062
C100	C	1.769529	0.649269	0.852062
C101	C	1.128162	0.234767	0.352080
C102	C	1.628162	0.734767	0.852080
C103	C	1.119812	0.239825	0.470421
C104	C	1.619812	0.739825	0.970421
H105	H	0.886241	0.273515	-0.000028
H106	H	1.386241	0.773515	0.499972
H107	H	1.388638	0.077237	0.481383
H108	H	1.888638	0.577237	0.981383
H109	H	1.388792	-0.615228	-0.000050
H110	H	1.888792	-0.115228	0.499950
H111	H	1.117008	0.241523	0.696115
H112	H	1.617008	0.741523	1.196115
H113	H	1.330487	0.112401	0.303884
H114	H	1.830487	0.612401	0.803884
O115	O	0.497768	0.323635	-0.000022
O116	O	0.997768	0.823635	0.499978
H117	H	0.415650	0.306483	-0.000009
H118	H	0.915650	0.806483	0.499991
O119	O	1.391059	0.075777	0.711706
O120	O	1.891059	0.575777	1.211706
H121	H	1.372673	0.086896	0.803938
H122	H	1.872673	0.586896	1.303938
H123	H	1.074014	0.267520	0.303900
H124	H	1.574014	0.767520	0.803900
H125	H	1.398501	-0.170548	0.000016
H126	H	1.898501	0.329452	0.500016
O127	O	1.039082	0.288669	0.534245
O128	O	1.539082	0.788669	1.034245
H129	H	0.985042	0.258231	0.588187
H130	H	1.485042	0.758231	1.088187
O131	O	0.722430	0.341264	-0.000027
O132	O	1.222430	0.841264	0.499973
H133	H	0.701044	0.366460	-0.076655
H134	H	1.201044	0.866460	0.423345
O135	O	0.550288	0.062713	0.000022
O136	O	1.050288	0.562713	0.500022
H137	H	0.463926	0.066650	0.000023
H138	H	0.963926	0.566650	0.500023
H139	H	1.391682	-0.482919	-0.000013
H140	H	1.891682	0.017081	0.499987
O141	O	0.725059	0.012670	0.000012
O142	O	1.225059	0.512670	0.500012
H143	H	0.638697	0.016602	0.000005
H144	H	1.138697	0.516602	0.500005
H145	H	0.932104	0.045770	-0.000002
H146	H	1.432104	0.545770	0.499998
H147	H	1.401391	-0.038239	0.000046
H148	H	1.901391	0.461761	0.500046
H149	H	1.055808	-0.163150	-0.000005
H150	H	1.555808	0.336850	0.499995
O151	O	1.033940	-0.020648	0.000018
O152	O	1.533940	0.479352	0.500018
H153	H	0.967444	-0.056838	0.000021
H154	H	1.467444	0.443162	0.500021
H155	H	1.046093	-0.607831	-0.000062
H156	H	1.546093	-0.107831	0.499938
O157	O	1.024232	-0.465331	-0.000020
O158	O	1.524232	0.034669	0.499980
H159	H	0.957737	-0.501522	-0.000011
H160	H	1.457737	-0.001522	0.499989
