data_functionalizedCrystal
_audit_creation_method	'MofGen! by Chris Wilmer'
_symmetry_space_group_name_H-M	'P1'
_symmetry_Int_Tables_number	1
_symmetry_cell_setting	triclinic
loop_
_symmetry_equiv_pos_as_xyz
  x,y,z
_cell_length_a	16.992694
_cell_length_b	11.026607
_cell_length_c	15.455313
_cell_angle_alpha	93.255562
_cell_angle_beta	87.142206
_cell_angle_gamma	99.627120
loop_
_atom_site_label
_atom_site_type_symbol
_atom_site_fract_x
_atom_site_fract_y
_atom_site_fract_z
O1	O	1.079936	0.255850	-0.072014
O2	O	0.851247	0.252986	-0.072040
O3	O	0.946638	0.075927	-0.072026
O4	O	0.984545	0.432909	-0.072028
O5	O	0.941177	0.086007	0.072235
O6	O	0.845786	0.263067	0.072221
O7	O	1.074474	0.265931	0.072247
Cu8	Cu	0.959632	0.265419	0.085406
Cu9	Cu	0.966090	0.253498	-0.085199
O10	O	0.979084	0.442990	0.072233
C11	C	0.818785	0.254344	0.000087
C12	C	0.730190	0.243358	0.000077
C13	C	0.936914	0.035078	0.000103
C14	C	0.916067	-0.101658	0.000097
C15	C	0.694911	0.349355	0.000078
C16	C	0.611666	0.339026	0.000090
C17	C	0.563702	0.222699	0.000095
C18	C	0.598986	0.116694	0.000098
C19	C	0.682229	0.127024	0.000092
C20	C	0.314060	0.179884	0.000119
C21	C	0.230811	0.169561	0.000122
C22	C	0.243497	0.391895	0.000115
C23	C	0.326741	0.402215	0.000104
C24	C	0.362018	0.296210	0.000111
N25	N	0.478612	0.212138	0.000105
N26	N	0.447106	0.306772	0.000108
C27	C	0.973629	-0.169881	0.000103
C28	C	0.952084	-0.311205	0.000097
C29	C	1.106937	0.264572	0.000118
C30	C	1.195532	0.275558	0.000122
C31	C	0.988808	0.483838	0.000102
C32	C	1.009655	0.620574	0.000102
N33	N	0.955095	0.273804	0.205401
N34	N	0.970632	0.245104	-0.205194
C35	C	0.995642	0.198614	0.250801
C36	C	0.992220	0.204967	0.341609
C37	C	0.948255	0.286517	0.387014
C38	C	0.907702	0.361709	0.341608
C39	C	0.911120	0.355349	0.250802
C40	C	0.933497	0.313936	0.658594
C41	C	0.930084	0.320293	0.749406
C42	C	1.014601	0.163549	0.749400
C43	C	1.018019	0.157201	0.658593
C44	C	0.977463	0.232389	0.613194
N45	N	0.944758	0.293015	0.479834
N46	N	0.980956	0.225883	0.520376
H47	H	0.733959	0.444082	0.000072
O48	O	0.860285	0.449676	0.390575
H49	H	0.864727	0.441479	0.461346
O50	O	0.378465	0.527691	0.000118
H51	H	0.367742	0.574918	-0.058673
O52	O	0.720288	0.012701	0.000095
H53	H	0.703497	-0.046698	-0.058704
O54	O	0.205450	0.506227	0.000126
H55	H	0.139507	0.479508	0.000141
H56	H	1.053819	0.090797	0.621625
O57	O	1.096066	-0.318216	0.000110
H58	H	1.128294	-0.350571	-0.058692
O59	O	0.889767	0.395047	0.609638
H60	H	0.845366	0.336582	0.568283
H61	H	0.878101	0.416575	0.213838
O62	O	1.043059	0.110651	0.201829
H63	H	1.070671	0.059425	0.248658
O64	O	0.573612	0.453351	0.000090
H65	H	0.620950	0.535974	0.000075
H66	H	0.850837	-0.147876	0.000084
O67	O	1.035970	0.123894	0.390579
H68	H	1.067130	0.066139	0.343750
O69	O	1.060039	-0.108679	0.000113
H70	H	1.063401	-0.007281	0.000121
H71	H	0.886850	-0.357418	0.000084
H72	H	1.047619	0.102333	0.786372
O73	O	0.179072	0.044089	0.000136
H74	H	0.217586	-0.027889	0.000150
O75	O	0.882651	0.408239	0.798385
H76	H	0.855015	0.459442	0.751562
H77	H	0.342772	0.093566	0.000125
H78	H	0.559926	0.021978	0.000115
