data_functionalizedCrystal
_audit_creation_method	'MofGen! by Chris Wilmer'
_symmetry_space_group_name_H-M	'P1'
_symmetry_Int_Tables_number	1
_symmetry_cell_setting	triclinic
loop_
_symmetry_equiv_pos_as_xyz
  x,y,z
_cell_length_a	10.540539
_cell_length_b	10.540539
_cell_length_c	11.804365
_cell_angle_alpha	101.953828
_cell_angle_beta	78.032857
_cell_angle_gamma	84.525492
loop_
_atom_site_label
_atom_site_type_symbol
_atom_site_fract_x
_atom_site_fract_y
_atom_site_fract_z
O1	O	1.711285	0.153517	-0.098964
O2	O	1.341876	0.170369	-0.098979
O3	O	1.535008	-0.022763	-0.098970
O4	O	1.518153	0.346649	-0.098973
O5	O	1.484163	0.028030	0.099084
O6	O	1.291031	0.221162	0.099075
O7	O	1.660440	0.204310	0.099089
Cu8	Cu	1.471093	0.217374	0.117166
Cu9	Cu	1.531223	0.157305	-0.117055
O10	O	1.467308	0.397442	0.099080
C11	C	1.269151	0.194501	0.000046
C12	C	1.128204	0.190718	0.000041
C13	C	1.508322	-0.044670	0.000055
C14	C	1.504542	-0.185620	0.000048
C15	C	0.944658	0.045920	0.000505
C16	C	1.091394	0.049636	0.000046
C17	C	1.095566	0.229609	-0.113054
C18	C	0.949042	0.224773	-0.113136
C19	C	0.890734	0.285404	0.112088
C20	C	1.037335	0.287083	0.113570
C21	C	1.359740	-0.369162	-0.000402
C22	C	1.363460	-0.222430	0.000044
C23	C	1.543402	-0.218272	0.113149
C24	C	1.538563	-0.364792	0.113244
C25	C	1.599252	-0.423071	-0.111980
C26	C	1.600935	-0.276472	-0.113475
C27	C	1.733166	0.180177	0.000062
C28	C	1.874115	0.183959	0.000059
C29	C	1.493995	0.419348	0.000053
C30	C	1.497777	0.560296	0.000052
N31	N	1.428810	0.259622	0.281905
N32	N	1.573516	0.115047	-0.281794
C33	C	1.675052	0.013570	0.655865
C34	C	1.707038	-0.018396	0.531204
C35	C	1.637483	0.051105	0.468873
C36	C	1.535939	0.152579	0.531215
C37	C	1.503957	0.184555	0.655887
C38	C	1.466388	0.222090	0.468896
C39	C	1.364843	0.323564	0.531237
C40	C	1.332866	0.355534	0.655897
C41	C	1.402420	0.286032	0.718228
C42	C	1.498370	0.190114	0.344223
C43	C	1.327274	0.361099	0.344246
C44	C	1.295289	0.393065	0.468906
H45	H	0.895251	0.010984	0.081611
H46	H	1.575597	-0.476608	-0.197703
N47	N	1.315955	-0.431158	-0.102147
N48	N	1.300686	-0.549151	-0.117552
H49	H	1.269766	-0.592947	-0.189415
N50	N	1.746073	-0.057420	0.719542
N51	N	1.746851	-0.178345	0.705644
H52	H	1.797013	-0.228484	0.750620
H53	H	1.572736	-0.257072	-0.197144
H54	H	1.330850	-0.200619	-0.081031
N55	N	1.602077	0.086454	0.280564
N56	N	1.699110	0.109600	0.210986
H57	H	1.772355	0.036375	0.166037
N58	N	1.732165	-0.248270	-0.122018
N59	N	1.788764	-0.259919	-0.040788
H60	H	1.881447	-0.239993	-0.046811
H61	H	1.376375	0.312055	0.819737
N62	N	1.264124	-0.381037	0.100791
N63	N	1.147492	-0.331196	0.116781
H64	H	1.079966	-0.339569	0.188258
N65	N	0.932715	-0.049649	-0.100667
N66	N	0.872475	-0.016538	-0.173096
H67	H	0.864037	-0.084030	-0.244551
H68	H	1.059809	0.391693	0.120398
H69	H	1.638710	-0.411444	0.118379
H70	H	1.288814	-0.159847	0.081251
N71	N	1.256240	0.432098	0.280572
N72	N	1.284809	0.403540	0.169265
H73	H	1.234652	0.453681	0.124287
H74	H	1.153988	-0.024991	-0.081165
H75	H	1.250192	0.438168	0.706656
H76	H	0.942535	0.152911	-0.197675
N77	N	1.672024	-0.188878	0.118418
N78	N	1.736638	-0.143426	0.038686
H79	H	1.827479	-0.122665	0.042403
H80	H	0.902391	0.324921	-0.118270
N81	N	1.457124	-0.137751	0.218724
N82	N	1.366956	-0.056261	0.210962
H83	H	1.306014	0.000605	0.285521
H84	H	1.701350	-0.470491	-0.112736
N85	N	1.124961	0.358232	-0.118324
N86	N	1.170404	0.422824	-0.038596
H87	H	1.191165	0.513666	-0.042314
N88	N	1.810851	-0.121976	0.467613
N89	N	1.804626	-0.235776	0.481544
H90	H	1.877989	-0.308908	0.436657
N91	N	1.191557	0.496711	0.532576
N92	N	1.077778	0.490263	0.518669
H93	H	1.004514	0.563462	0.563636
N94	N	1.118748	0.008704	0.101749
N95	N	1.059632	0.071063	0.204178
H96	H	1.078944	0.042146	0.276008
N97	N	1.176139	0.143390	-0.218634
N98	N	1.257655	0.053240	-0.210881
H99	H	1.314573	-0.007647	-0.285444
N100	N	1.670176	0.018447	0.341537
N101	N	1.760843	-0.072152	0.285890
H102	H	1.783937	-0.095225	0.195953
H103	H	0.837180	0.261730	0.197813
H104	H	0.843311	0.387503	0.112851
N105	N	1.061762	0.251751	0.218523
N106	N	1.145761	0.155979	0.209835
H107	H	1.163021	0.131021	0.283956
H108	H	1.466681	-0.371310	0.197786
