data_functionalizedCrystal
_audit_creation_method	'MofGen! by Chris Wilmer'
_symmetry_space_group_name_H-M	'P1'
_symmetry_Int_Tables_number	1
_symmetry_cell_setting	triclinic
loop_
_symmetry_equiv_pos_as_xyz
  x,y,z
_cell_length_a	9.065218
_cell_length_b	15.995350
_cell_length_c	8.140239
_cell_angle_alpha	89.998714
_cell_angle_beta	89.997198
_cell_angle_gamma	84.254130
loop_
_atom_site_label
_atom_site_type_symbol
_atom_site_fract_x
_atom_site_fract_y
_atom_site_fract_z
O1	O	1.957507	0.122770	-0.136609
O2	O	1.527985	0.132840	-0.136610
O3	O	1.754487	0.006007	-0.136608
O4	O	1.731005	0.249604	-0.136611
O5	O	1.754475	0.006005	0.136619
O6	O	1.527973	0.132839	0.136617
O7	O	1.957495	0.122769	0.136619
Zn8	Zn	1.742732	0.127803	0.179998
Zn9	Zn	1.742748	0.127806	-0.179990
O10	O	1.730992	0.249602	0.136616
C11	C	1.473015	0.131872	0.000003
C12	C	1.309240	0.128978	0.000002
C13	C	1.753510	-0.025196	0.000003
C14	C	1.750600	-0.118169	-0.000007
C15	C	1.740148	-0.455995	-0.000001
C16	C	1.578837	-0.409785	-0.000615
C17	C	1.581748	-0.313072	0.000001
C18	C	1.745332	-0.288396	-0.000005
C19	C	1.824889	-0.328871	0.156019
C20	C	1.820837	-0.425537	0.156149
C21	C	1.824183	-0.425868	-0.154561
C22	C	1.824145	-0.328923	-0.156623
C23	C	1.748271	-0.193676	-0.000001
C24	C	1.737214	-0.550716	0.000006
C25	C	2.012465	0.123737	0.000002
C26	C	2.176239	0.126631	-0.000008
C27	C	1.731969	0.280805	0.000002
C28	C	1.734880	0.373778	0.000001
N29	N	1.742731	0.127802	0.425681
N30	N	1.742760	0.127801	-0.425673
H31	H	1.514368	-0.428805	-0.112502
H32	H	1.519210	-0.285124	-0.111842
H33	H	1.762813	-0.444279	0.272783
H34	H	1.769623	-0.300909	0.272130
N35	N	1.984076	-0.308945	0.163724
H36	H	2.033049	-0.335583	0.264975
H37	H	2.038594	-0.331851	0.062586
H38	H	1.771448	-0.446807	-0.272818
H39	H	1.514644	-0.429866	0.110649
H40	H	1.765979	-0.302115	-0.272045
H41	H	1.518780	-0.285686	0.112035
N42	N	1.982166	-0.307384	-0.169120
H43	H	2.005009	-0.270888	-0.073002
H44	H	2.051754	-0.360794	-0.167783
N45	N	1.977703	-0.467072	0.165532
H46	H	2.049176	-0.422563	0.169573
H47	H	1.989505	-0.502868	0.267798
N48	N	1.981725	-0.466738	-0.155968
H49	H	1.998644	-0.504588	-0.057030
H50	H	1.999350	-0.501048	-0.259544
