data_functionalizedCrystal
_audit_creation_method	'MofGen! by Chris Wilmer'
_symmetry_space_group_name_H-M	'P1'
_symmetry_Int_Tables_number	1
_symmetry_cell_setting	triclinic
loop_
_symmetry_equiv_pos_as_xyz
  x,y,z
_cell_length_a	25.639242
_cell_length_b	10.686285
_cell_length_c	10.685880
_cell_angle_alpha	89.638885
_cell_angle_beta	85.595088
_cell_angle_gamma	85.626450
loop_
_atom_site_label
_atom_site_type_symbol
_atom_site_fract_x
_atom_site_fract_y
_atom_site_fract_z
Zn1	Zn	0.838332	-0.553887	-0.671401
Zn2	Zn	0.837270	-0.747624	-0.445573
Zn3	Zn	0.743717	-0.537857	-0.461609
Zn4	Zn	0.757054	-0.763581	-0.655260
O5	O	0.794093	-0.650737	-0.558461
O6	O	0.911358	-0.579617	-0.641489
O7	O	0.818834	-0.706412	-0.272146
O8	O	0.751130	-0.364438	-0.502904
O9	O	0.910579	-0.721955	-0.475574
O10	O	0.820644	-0.376215	-0.657038
O11	O	0.750101	-0.552297	-0.283928
O12	O	0.672318	-0.567769	-0.487253
O13	O	0.773861	-0.749151	-0.832955
O14	O	0.682117	-0.733607	-0.629528
O15	O	0.833576	-0.595089	-0.844814
O16	O	0.831766	-0.925286	-0.459922
O17	O	0.772832	-0.937010	-0.613979
C18	C	0.803646	-0.976667	-0.533486
C19	C	0.807782	-1.116105	-0.522844
C20	C	0.658246	-0.650681	-0.558380
C21	C	0.600132	-0.650690	-0.558372
C22	C	0.244886	-0.737217	-0.632457
C23	C	0.190282	-0.737226	-0.632476
O24	O	0.166392	-0.810728	-0.695399
N25	N	0.157858	-0.650778	-0.558540
C26	C	0.180039	-0.564306	-0.484589
O27	O	0.147446	-0.490775	-0.421704
C28	C	0.234642	-0.564292	-0.484578
C29	C	0.267064	-0.650755	-0.558509
C30	C	0.277307	-0.823672	-0.706384
C31	C	0.331907	-0.823664	-0.706362
C32	C	0.354085	-0.737201	-0.632415
C33	C	0.321663	-0.650747	-0.558488
C34	C	0.256822	-0.477816	-0.410635
C35	C	0.311429	-0.477808	-0.410631
C36	C	0.343851	-0.564271	-0.484562
C37	C	0.398441	-0.564276	-0.484519
N38	N	0.430865	-0.650725	-0.558455
C39	C	0.408687	-0.737187	-0.632403
C40	C	0.065371	-0.564341	-0.484621
C41	C	0.010769	-0.564360	-0.484625
C42	C	0.021016	-0.737279	-0.632514
C43	C	0.075618	-0.737265	-0.632502
C44	C	0.097795	-0.650789	-0.558557
C45	C	0.523350	-0.737165	-0.632352
C46	C	0.577954	-0.737152	-0.632320
C47	C	0.567703	-0.564229	-0.484437
C48	C	0.513103	-0.564245	-0.484463
C49	C	0.490929	-0.650718	-0.558430
O50	O	0.422369	-0.490808	-0.421633
O51	O	0.441287	-0.810695	-0.695291
C52	C	0.930470	-0.650794	-0.558543
C53	C	0.988586	-0.650819	-0.558578
C54	C	0.805325	-0.675688	-0.885677
C55	C	0.810111	-0.686321	-1.025116
C56	C	0.784518	-0.323536	-0.583561
C57	C	0.780437	-0.184103	-0.594257
C58	C	0.782933	-0.625793	-0.232525
C59	C	0.778237	-0.614807	-0.093113
H60	H	0.753862	-1.135647	-0.663539
C61	C	0.851887	-0.780141	-1.090579
N62	N	0.883338	-0.850844	-1.139884
H63	H	0.747284	-0.545449	-1.044652
C64	C	0.843683	-1.181571	-0.429229
N65	N	0.870722	-1.230882	-0.358720
H66	H	0.505303	-0.807576	-0.692586
C67	C	0.613616	-0.832271	-0.713655
N68	N	0.640474	-0.903910	-0.774917
H69	H	0.358301	-0.894068	-0.766568
H70	H	0.259257	-0.894081	-0.766608
H71	H	0.002949	-0.807678	-0.692731
C72	C	-0.024889	-0.469251	-0.403286
N73	N	-0.051746	-0.397605	-0.342027
C74	C	0.089759	-0.469219	-0.403254
N75	N	0.108126	-0.397573	-0.341968
C76	C	0.111278	-0.832373	-0.713839
N77	N	0.138134	-0.904009	-0.775110
H78	H	0.230433	-0.407412	-0.350428
H79	H	0.329482	-0.407381	-0.350422
H80	H	0.486704	-0.493843	-0.424259
H81	H	0.585770	-0.493838	-0.424226
