data_functionalizedCrystal
_audit_creation_method	'MofGen! by Chris Wilmer'
_symmetry_space_group_name_H-M	'P1'
_symmetry_Int_Tables_number	1
_symmetry_cell_setting	triclinic
loop_
_symmetry_equiv_pos_as_xyz
  x,y,z
_cell_length_a	19.188930
_cell_length_b	23.532407
_cell_length_c	18.266242
_cell_angle_alpha	89.988983
_cell_angle_beta	89.977082
_cell_angle_gamma	82.996728
loop_
_atom_site_label
_atom_site_type_symbol
_atom_site_fract_x
_atom_site_fract_y
_atom_site_fract_z
O1	O	0.925922	0.071102	-0.061124
O2	O	1.425922	0.571102	0.438876
O3	O	0.722581	0.080673	-0.061074
O4	O	1.222581	0.580673	0.438926
O5	O	0.830383	-0.007031	-0.061087
O6	O	1.330383	0.492969	0.438913
O7	O	0.818120	0.158806	-0.061111
O8	O	1.318120	0.658806	0.438889
O9	O	0.830365	-0.007035	0.060675
O10	O	1.330365	0.492965	0.560675
O11	O	0.722562	0.080669	0.060688
O12	O	1.222562	0.580669	0.560688
O13	O	0.925904	0.071097	0.060638
O14	O	1.425904	0.571097	0.560638
Zn15	Zn	0.824230	0.075882	0.079995
Zn16	Zn	1.324230	0.575882	0.579995
Zn17	Zn	0.824254	0.075888	-0.080431
Zn18	Zn	1.324254	0.575888	0.419569
O19	O	0.818102	0.158802	0.060651
O20	O	1.318102	0.658802	0.560651
C21	C	0.696561	0.080361	-0.000187
C22	C	1.196561	0.580361	0.499813
C23	C	0.619060	0.079431	-0.000168
C24	C	1.119060	0.579431	0.499832
C25	C	0.573972	0.130893	-0.000187
C26	C	1.073972	0.630893	0.499813
C27	C	0.501151	0.130019	-0.000194
C28	C	1.001151	0.630019	0.499806
C29	C	0.473421	0.077680	-0.000198
C30	C	0.973421	0.577680	0.499802
C31	C	0.518519	0.026211	-0.000175
C32	C	1.018519	0.526211	0.499825
C33	C	0.591339	0.027086	-0.000160
C34	C	1.091339	0.527086	0.499840
N35	N	0.365575	0.037674	-0.041663
N36	N	0.865575	0.537674	0.458337
N37	N	0.296399	0.036846	-0.041679
N38	N	0.796399	0.536846	0.458321
C39	C	0.254021	0.075038	-0.000243
C40	C	0.754021	0.575038	0.499757
N41	N	0.283431	0.114099	0.041201
N42	N	0.783431	0.614099	0.541201
N43	N	0.352613	0.114929	0.041214
N44	N	0.852613	0.614929	0.541214
C45	C	0.394462	0.076724	-0.000214
C46	C	0.894462	0.576724	0.499786
C47	C	0.129971	0.125556	-0.000269
C48	C	0.629971	0.625556	0.499731
C49	C	0.057149	0.124680	-0.000272
C50	C	0.557149	0.624680	0.499728
C51	C	0.074520	0.020870	-0.000260
C52	C	0.574520	0.520870	0.499740
C53	C	0.147340	0.021748	-0.000250
C54	C	0.647340	0.521748	0.499750
C55	C	0.175061	0.074092	-0.000257
C56	C	0.675061	0.574092	0.499743
C57	C	0.830062	-0.028250	-0.000204
C58	C	1.330062	0.471750	0.499796
C59	C	0.829123	-0.091469	-0.000198
C60	C	1.329123	0.408531	0.499802
C61	C	0.887029	-0.490449	-0.000252
C62	C	1.387029	0.009551	0.499748
C63	C	0.886157	-0.549851	-0.000258
C64	C	1.386157	-0.049851	0.499742
O65	O	0.939837	-0.586482	-0.000298
O66	O	1.439837	-0.086482	0.499702
N67	N	0.822068	-0.572613	-0.000242
N68	N	1.322068	-0.072613	0.499758
C69	C	0.758848	-0.535970	-0.000228
C70	C	1.258848	-0.035970	0.499772
O71	O	0.704255	-0.560786	-0.000215
O72	O	1.204255	-0.060786	0.499785
C73	C	0.759721	-0.476569	-0.000228
C74	C	1.259721	0.023431	0.499772
C75	C	0.823814	-0.453810	-0.000236
C76	C	1.323814	0.046190	0.499764
C77	C	0.951117	-0.467690	-0.000262
C78	C	1.451117	0.032310	0.499738
C79	C	0.951989	-0.408292	-0.000255
C80	C	1.451989	0.091708	0.499745
C81	C	0.888773	-0.371653	-0.000239
C82	C	1.388773	0.128347	0.499761
C83	C	0.824685	-0.394412	-0.000230
C84	C	1.324685	0.105588	0.499770
C85	C	0.696501	-0.439927	-0.000219
C86	C	1.196501	0.060073	0.499781
C87	C	0.697379	-0.380523	-0.000219
C88	C	1.197379	0.119477	0.499781
C89	C	0.761472	-0.357764	-0.000228
C90	C	1.261472	0.142236	0.499772
C91	C	0.762342	-0.298376	-0.000207
C92	C	1.262342	0.201624	0.499793
N93	N	0.826430	-0.275614	-0.000223
N94	N	1.326430	0.224386	0.499777
C95	C	0.889646	-0.312252	-0.000239
C96	C	1.389646	0.187748	0.499761
C97	C	0.757019	-0.660717	-0.000229
C98	C	1.257019	-0.160717	0.499771
C99	C	0.756146	-0.720116	-0.000224
C100	C	1.256146	-0.220116	0.499776
C101	C	0.883455	-0.733993	-0.000256
C102	C	1.383455	-0.233993	0.499744
C103	C	0.884328	-0.674592	-0.000255
C104	C	1.384328	-0.174592	0.499745
C105	C	0.821108	-0.637954	-0.000245
C106	C	1.321108	-0.137954	0.499755
C107	C	0.891472	-0.187512	-0.000224
C108	C	1.391472	0.312488	0.499776
C109	C	0.892339	-0.128108	-0.000214
C110	C	1.392339	0.371892	0.499786
C111	C	0.765029	-0.114236	-0.000187
C112	C	1.265029	0.385764	0.499813
C113	C	0.764163	-0.173634	-0.000193
C114	C	1.264163	0.326366	0.499807
C115	C	0.827390	-0.210272	-0.000214
C116	C	1.327390	0.289728	0.499786
O117	O	0.708690	-0.261710	-0.000170
O118	O	1.208690	0.238290	0.499830
O119	O	0.944230	-0.287428	-0.000261
O120	O	1.444230	0.212572	0.499739
C121	C	0.951923	0.071410	-0.000251
C122	C	1.451923	0.571410	0.499749
C123	C	1.029425	0.072340	-0.000275
C124	C	1.529425	0.572340	0.499725
C125	C	0.818423	0.180021	-0.000234
C126	C	1.318423	0.680021	0.499766
C127	C	0.819362	0.243240	-0.000244
C128	C	1.319362	0.743240	0.499756
N129	N	0.824219	0.075878	0.189482
N130	N	1.324219	0.575878	0.689482
N131	N	0.824271	0.075888	-0.189918
N132	N	1.324271	0.575888	0.310082
C133	C	0.871970	0.037062	0.227785
C134	C	1.371970	0.537062	0.727785
C135	C	0.871974	0.037059	0.304430
C136	C	1.371974	0.537059	0.804430
C137	C	0.824235	0.075883	0.342769
C138	C	1.324235	0.575883	0.842769
C139	C	0.776475	0.114702	0.304457
C140	C	1.276475	0.614702	0.804457
C141	C	0.776468	0.114700	0.227813
C142	C	1.276468	0.614700	0.727813
N143	N	0.814998	0.126298	0.463096
N144	N	1.314998	0.626298	0.963096
N145	N	0.815010	0.126298	0.535904
N146	N	1.315010	0.626298	1.035904
C147	C	0.824254	0.075891	0.573691
C148	C	1.324254	0.575891	1.073691
N149	N	0.833500	0.025481	0.535921
N150	N	1.333500	0.525481	1.035921
N151	N	0.833492	0.025482	0.463106
N152	N	1.333492	0.525482	0.963106
C153	C	0.824238	0.075889	0.425876
C154	C	1.324238	0.575889	0.925876
C155	C	0.872012	0.037068	0.695102
C156	C	1.372012	0.537068	1.195102
C157	C	0.872012	0.037065	0.771748
C158	C	1.372012	0.537065	1.271748
C159	C	0.776516	0.114713	0.771773
C160	C	1.276516	0.614713	1.271773
C161	C	0.776513	0.114711	0.695128
C162	C	1.276513	0.614711	1.195128
C163	C	0.824265	0.075890	0.656797
C164	C	1.324265	0.575890	1.156797
H165	H	0.944533	-0.109581	-0.000220
H166	H	1.444533	0.390419	0.499780
O167	O	0.695648	-0.625070	-0.000112
O168	O	1.195648	-0.125070	0.499888
C169	C	0.692323	-0.590315	0.062961
C170	C	1.192323	-0.090315	0.562961
H171	H	0.747716	-0.587438	0.083970
H172	H	1.247716	-0.087438	0.583970
H173	H	0.665991	-0.545606	0.048787
H174	H	1.165991	-0.045606	0.548787
H175	H	0.660574	-0.609794	0.107127
H176	H	1.160574	-0.109794	0.607127
H177	H	0.495937	-0.016404	-0.000188
H178	H	0.995937	0.483596	0.499812
O179	O	0.918322	-0.000707	0.657870
O180	O	1.418322	0.499293	1.157870
C181	C	0.907405	-0.057075	0.676597
C182	C	1.407405	0.442925	1.176597
H183	H	0.851519	-0.057262	0.697710
H184	H	1.351519	0.442738	1.197710
H185	H	0.915625	-0.085650	0.626175
H186	H	1.415625	0.414350	1.126175
H187	H	0.946241	-0.073892	0.721049
H188	H	1.446241	0.426108	1.221049
O189	O	0.156941	0.176385	-0.000394
O190	O	0.656941	0.676385	0.499606
C191	C	0.198591	0.179998	-0.063438
C192	C	0.698591	0.679998	0.436562
H193	H	0.181596	0.150287	-0.107520
H194	H	0.681596	0.650287	0.392480
H195	H	0.191751	0.225916	-0.084605
H196	H	0.691751	0.725916	0.415395
H197	H	0.256104	0.166713	-0.049171
H198	H	0.756104	0.666713	0.450829
O199	O	0.636010	-0.344876	-0.000110
O200	O	1.136010	0.155124	0.499890
C201	C	0.632681	-0.310122	0.062964
C202	C	1.132681	0.189878	0.562964
H203	H	0.688072	-0.307248	0.083980
H204	H	1.188072	0.192752	0.583980
H205	H	0.606352	-0.265413	0.048789
H206	H	1.106352	0.234587	0.548789
H207	H	0.600926	-0.329601	0.107125
H208	H	1.100926	0.170399	0.607125
H209	H	0.942958	-0.217335	-0.000244
H210	H	1.442958	0.282665	0.499756
H211	H	0.644310	-0.458446	-0.000216
H212	H	1.144310	0.041554	0.499784
O213	O	0.635042	-0.022959	-0.000179
O214	O	1.135042	0.477041	0.499821
C215	C	0.594957	-0.069345	-0.000162
C216	C	1.094957	0.430655	0.499838
H217	H	0.540514	-0.054753	-0.023223
H218	H	1.040514	0.445247	0.476777
H219	H	0.622089	-0.105390	-0.035505
H220	H	1.122089	0.394610	0.464495
H221	H	0.589854	-0.085399	0.058255
H222	H	1.089854	0.414601	0.558255
O223	O	0.918304	-0.000701	0.808990
O224	O	1.418304	0.499299	1.308990
C225	C	0.881169	-0.035756	0.853365
C226	C	1.381169	0.464244	1.353365
H227	H	0.826115	-0.036612	0.830296
H228	H	1.326115	0.463388	1.330296
H229	H	0.909977	-0.081079	0.854230
H230	H	1.409977	0.418921	1.354230
H231	H	0.877388	-0.017926	0.911449
H232	H	1.377388	0.482074	1.411449
O233	O	0.946543	-0.652419	-0.000368
O234	O	1.446543	-0.152419	0.499632
C235	C	0.950878	-0.618481	-0.063442
C236	C	1.450878	-0.118481	0.436558
H237	H	0.895747	-0.603549	-0.084453
H238	H	1.395747	-0.103549	0.415547
H239	H	0.978435	-0.579651	-0.049268
H240	H	1.478435	-0.079651	0.450732
H241	H	0.981957	-0.644796	-0.107606
H242	H	1.481957	-0.144796	0.392394
O243	O	0.730017	0.152333	0.190568
O244	O	1.230017	0.652333	0.690568
C245	C	0.687168	0.121921	0.146247
C246	C	1.187168	0.621921	0.646247
H247	H	0.686302	0.077009	0.169356
H248	H	1.186302	0.577009	0.669356
H249	H	0.631513	0.145270	0.145394
H250	H	1.131513	0.645270	0.645394
H251	H	0.709039	0.118890	0.088152
H252	H	1.209039	0.618890	0.588152
O253	O	0.013447	0.174725	-0.000321
O254	O	0.513447	0.674725	0.499679
C255	C	0.053534	0.221110	-0.000307
C256	C	0.553534	0.721110	0.499693
H257	H	0.108000	0.206518	-0.023349
H258	H	0.608000	0.706518	0.476651
H259	H	0.026439	0.257157	-0.035669
H260	H	0.526439	0.757157	0.464331
H261	H	0.058579	0.237164	0.058106
H262	H	0.558579	0.737164	0.558106
H263	H	0.711973	-0.192165	-0.000165
H264	H	1.211973	0.307835	0.499835
O265	O	0.730207	0.152404	0.809119
O266	O	1.230207	0.652404	1.309119
C267	C	0.740438	0.144072	0.884981
C268	C	1.240438	0.644072	1.384981
H269	H	0.796095	0.122676	0.895428
H270	H	1.296095	0.622676	1.395428
H271	H	0.732368	0.187217	0.914102
H272	H	1.232368	0.687217	1.414102
H273	H	0.701124	0.115585	0.906758
H274	H	1.201124	0.615585	1.406758
H275	H	0.737633	0.146322	0.663940
H276	H	1.237633	0.646322	1.163940
H277	H	0.596537	0.173516	-0.000194
H278	H	1.096537	0.673516	0.499806
H279	H	0.464433	0.171927	-0.000208
H280	H	0.964433	0.671927	0.499792
H281	H	0.713561	-0.084394	-0.000171
H282	H	1.213561	0.415606	0.499829
O283	O	0.730006	0.152359	0.341664
O284	O	1.230006	0.652359	0.841664
C285	C	0.660956	0.143245	0.322964
C286	C	1.160956	0.643245	0.822964
H287	H	0.660935	0.097648	0.301908
H288	H	1.160935	0.597648	0.801908
H289	H	0.625878	0.149866	0.373385
H290	H	1.125878	0.649866	0.873385
H291	H	0.640221	0.174852	0.278477
H292	H	1.140221	0.674852	0.778477
H293	H	0.051943	-0.021745	-0.000309
H294	H	0.551943	0.478255	0.499691
O295	O	1.014311	-0.386283	-0.000302
O296	O	1.514311	0.113717	0.499698
C297	C	1.069911	-0.431368	-0.000300
C298	C	1.569911	0.068632	0.499700
H299	H	1.050621	-0.471669	-0.023348
H300	H	1.550621	0.028331	0.476652
H301	H	1.114690	-0.419061	-0.035663
H302	H	1.614690	0.080939	0.464337
H303	H	1.089383	-0.439831	0.058109
H304	H	1.589383	0.060169	0.558109
H305	H	1.002598	-0.497516	-0.000278
H306	H	1.502598	0.002484	0.499722
H307	H	0.184052	-0.020158	-0.000238
H308	H	0.684052	0.479842	0.499762
O309	O	0.944847	-0.769613	-0.000409
O310	O	1.444847	-0.269613	0.499591
C311	C	0.948143	-0.804384	-0.063467
C312	C	1.448143	-0.304384	0.436533
H313	H	0.912289	-0.782532	-0.107529
H314	H	1.412289	-0.282532	0.392471
H315	H	1.004432	-0.811197	-0.084654
H316	H	1.504432	-0.311197	0.415346
H317	H	0.930373	-0.847539	-0.049209
H318	H	1.430373	-0.347539	0.450791
O319	O	0.693824	-0.742126	-0.000240
O320	O	1.193824	-0.242126	0.499760
C321	C	0.638221	-0.697043	-0.000204
C322	C	1.138221	-0.197043	0.499796
H323	H	0.657514	-0.656732	-0.023256
H324	H	1.157514	-0.156732	0.476744
H325	H	0.593453	-0.709340	-0.035547
H326	H	1.093453	-0.209340	0.464453
H327	H	0.618734	-0.688602	0.058216
H328	H	1.118734	-0.188602	0.558216
O329	O	0.918376	-0.000708	0.190666
O330	O	1.418376	0.499292	0.690666
C331	C	0.960534	-0.034960	0.240915
C332	C	1.460534	0.465040	0.740915
H333	H	0.931920	-0.035542	0.295565
H334	H	1.431920	0.464458	0.795565
H335	H	0.971502	-0.080465	0.218782
H336	H	1.471502	0.419535	0.718782
H337	H	1.012270	-0.016571	0.249031
H338	H	1.512270	0.483429	0.749031
O339	O	0.918266	-0.000703	0.341685
O340	O	1.418266	0.499297	0.841685
C341	C	0.881128	-0.035752	0.386066
C342	C	1.381128	0.464248	0.886066
H343	H	0.826075	-0.036611	0.362994
H344	H	1.326075	0.463389	0.862994
H345	H	0.909936	-0.081075	0.386944
H346	H	1.409936	0.418925	0.886944
H347	H	0.877342	-0.017912	0.444146
H348	H	1.377342	0.482088	0.944146
