data_functionalizedCrystal
_audit_creation_method	'MofGen! by Chris Wilmer'
_symmetry_space_group_name_H-M	'P1'
_symmetry_Int_Tables_number	1
_symmetry_cell_setting	triclinic
loop_
_symmetry_equiv_pos_as_xyz
  x,y,z
_cell_length_a	14.446369
_cell_length_b	23.196402
_cell_length_c	14.446369
_cell_angle_alpha	60.004351
_cell_angle_beta	89.999999
_cell_angle_gamma	60.001606
loop_
_atom_site_label
_atom_site_type_symbol
_atom_site_fract_x
_atom_site_fract_y
_atom_site_fract_z
Zr1	Zr	0.891750	0.631024	-0.121478
O2	O	0.743954	0.751279	-0.269263
O3	O	0.937053	0.510762	-0.076179
O4	O	0.937059	0.631021	-0.269281
O5	O	0.743948	0.631026	0.076168
O6	O	1.089388	0.631026	-0.269289
O7	O	0.743948	0.631021	-0.076161
O8	O	1.089378	0.415905	0.076135
O9	O	0.743958	0.846147	-0.269256
O10	O	1.070061	0.560234	-0.056859
O11	O	0.956379	0.560234	0.056828
O12	O	0.956386	0.701823	-0.170525
O13	O	0.842704	0.701823	-0.056837
Zr14	Zr	1.134696	0.631041	0.121456
Zr15	Zr	1.134697	0.631032	-0.121491
Zr16	Zr	0.891749	0.631032	0.121469
Zr17	Zr	0.891756	0.782327	-0.121467
Zr18	Zr	1.134690	0.479738	0.121446
O19	O	1.089393	0.751303	0.076158
O20	O	1.089393	0.751291	-0.269281
O21	O	0.743954	0.751291	0.076176
O22	O	1.282492	0.510786	0.269241
O23	O	1.282493	0.510774	-0.076198
O24	O	0.937053	0.510774	0.269260
O25	O	1.282498	0.631039	-0.076189
O26	O	1.089387	0.631044	0.269260
O27	O	0.937058	0.631039	0.269268
O28	O	1.282498	0.631044	0.076139
O29	O	0.937069	0.846153	-0.269266
O30	O	1.089378	0.415912	0.269245
O31	O	1.282488	0.415918	0.269235
O32	O	1.282488	0.415912	0.076124
O33	O	0.743958	0.846153	-0.076146
O34	O	0.937068	0.846160	-0.076156
O35	O	1.070060	0.560242	0.170503
O36	O	1.183742	0.560242	0.056816
O37	O	1.070067	0.701831	-0.056849
O38	O	0.956385	0.701831	0.056838
C39	C	0.709334	0.631022	0.000006
C40	C	0.606196	0.631018	0.000011
C41	C	1.013215	0.441776	-0.000024
C42	C	1.013212	0.377544	-0.000028
C43	C	1.072545	0.347374	-0.059376
C44	C	1.072555	0.287013	-0.059367
C45	C	1.013212	0.256836	-0.000025
C46	C	0.953876	0.287011	0.059336
C47	C	0.953876	0.347365	0.059334
C48	C	0.913815	0.194803	-0.008489
C49	C	0.913812	0.134454	-0.008495
C50	C	1.013213	0.070681	-0.000014
C51	C	1.112617	0.067273	0.008452
C52	C	1.112617	0.127627	0.008450
C53	C	1.013205	0.191392	-0.000016
C54	C	1.072563	-0.024940	-0.059354
C55	C	1.072577	-0.085306	-0.059337
C56	C	0.953887	-0.085301	0.059358
C57	C	0.953884	-0.024943	0.059348
C58	C	1.013219	0.005237	-0.000014
C59	C	0.531210	0.541728	0.071328
C60	C	0.638539	0.541667	0.071737
C61	C	0.531638	0.675377	0.052313
C62	C	0.424780	0.674811	0.052828
C63	C	0.423206	0.676644	-0.123722
C64	C	0.531878	0.674961	-0.123520
C65	C	1.317112	0.631043	-0.000027
C66	C	1.420250	0.631046	-0.000032
C67	C	1.013223	0.631022	-0.303900
C68	C	1.013224	0.631018	-0.407037
C69	C	1.013231	0.820289	0.000002
C70	C	1.013234	0.884521	0.000007
C71	C	1.085275	0.541728	-0.482030
C72	C	1.084963	0.541667	-0.374701
C73	C	0.889702	0.675371	-0.481588
C74	C	0.890097	0.674805	-0.588446
C75	C	1.063695	0.676650	-0.590029
C76	C	1.066195	0.674967	-0.481358
C77	C	1.013223	0.631043	0.303879
C78	C	1.013222	0.631046	0.407016
C79	C	1.317104	0.441787	-0.000040
C80	C	1.420239	0.377558	-0.000050
C81	C	1.013214	0.441787	0.303866
C82	C	1.013211	0.377558	0.406999
C83	C	1.317104	0.441797	0.303849
C84	C	1.420238	0.377572	0.406977
C85	C	0.709342	0.820268	-0.303871
C86	C	0.606208	0.884493	-0.406998
C87	C	0.709342	0.820278	0.000019
C88	C	0.606208	0.884507	0.000029
C89	C	1.013232	0.820278	-0.303887
C90	C	1.013235	0.884507	-0.407020
C91	C	1.409331	0.347392	-0.059402
C92	C	1.506228	0.287051	-0.059434
C93	C	1.614030	0.256873	-0.000107
C94	C	1.624936	0.287046	0.059247
C95	C	1.528040	0.347390	0.059272
C96	C	1.072550	0.347400	0.514778
C97	C	1.072543	0.287059	0.611692
C98	C	1.013203	0.256873	0.600823
C99	C	0.953857	0.287038	0.493032
C100	C	0.953858	0.347382	0.396121
C101	C	1.528022	0.347411	0.396063
C102	C	1.624937	0.287074	0.492953
C103	C	1.614065	0.256894	0.600755
C104	C	1.506270	0.287060	0.611667
C105	C	1.409358	0.347401	0.514778
C106	C	0.498424	0.914661	-0.396084
C107	C	0.401510	0.975017	-0.492974
C108	C	0.412381	1.005200	-0.600777
C109	C	0.520176	0.975030	-0.611688
C110	C	0.617088	0.914679	-0.514800
C111	C	0.617115	0.914679	0.059371
C112	C	0.520218	0.975037	0.059376
C113	C	0.412416	1.005217	0.000045
C114	C	0.401511	0.975041	-0.059304
C115	C	0.498406	0.914689	-0.059316
C116	C	1.072586	0.914673	-0.396115
C117	C	1.072611	0.975014	-0.493010
C118	C	1.013277	1.005192	-0.600809
C119	C	0.953924	0.975020	-0.611712
C120	C	0.953906	0.914675	-0.514818
H121	H	1.120873	0.262443	-0.107696
H122	H	1.013301	1.054329	-0.679697
N123	N	1.741191	0.254543	0.481169
H124	H	1.733363	0.282815	0.398173
H125	H	1.783988	0.193961	0.518788
H126	H	1.712721	0.262466	0.107549
H127	H	0.905616	0.999600	-0.699494
H128	H	1.019171	0.740153	-0.506866
N129	N	0.889876	0.254464	0.481323
H130	H	0.852281	0.282720	0.398340
H131	H	0.830222	0.264963	0.518953
H132	H	1.120874	0.262507	0.699450
H133	H	1.692920	0.207737	-0.000135
H134	H	1.536937	0.371943	0.107610
H135	H	0.905559	0.262436	0.107653
N136	N	0.710432	0.495556	0.025284
H137	H	0.787532	0.447740	0.084673
H138	H	0.719321	0.532996	-0.044311
H139	H	1.692987	0.207761	0.679639
H140	H	0.529014	0.999613	-0.699473
H141	H	1.193556	0.124848	0.015346
H142	H	1.497326	0.262492	-0.107767
H143	H	1.497436	0.262479	0.699453
H144	H	0.704885	0.890111	0.107692
H145	H	1.011445	0.742455	-0.668220
N146	N	0.733343	0.882125	-0.526571
H147	H	0.776220	0.892618	-0.489016
H148	H	0.725424	0.910416	-0.609587
N149	N	0.534305	0.495291	0.025088
H150	H	0.466502	0.492749	0.028332
H151	H	0.606219	0.438167	0.072108
H152	H	0.506360	0.740148	-0.181159
N153	N	1.539768	0.379962	0.279800
H154	H	1.462026	0.422766	0.220065
H155	H	1.582628	0.333873	0.270816
H156	H	1.193563	0.015343	0.015372
N157	N	0.889880	0.882150	-0.526599
H158	H	0.806873	0.928202	-0.569409
H159	H	0.898949	0.839330	-0.448831
H160	H	1.321562	0.371962	-0.107727
N161	N	1.293107	0.379925	0.526558
H162	H	1.300937	0.351644	0.609555
H163	H	1.250319	0.369410	0.488949
H164	H	0.344995	0.742442	-0.177140
H165	H	0.905541	0.371928	0.308365
H166	H	1.120862	0.371942	-0.107709
N167	N	0.495584	0.762397	-0.013204
H168	H	0.525188	0.770892	0.038868
H169	H	0.410099	0.800621	-0.044801
H170	H	0.489551	0.890089	-0.308315
H171	H	1.120872	0.371970	0.523649
N172	N	1.038565	0.495288	-0.303466
H173	H	1.038169	0.495056	-0.233369
H174	H	1.087815	0.437370	-0.280529
H175	H	0.313748	0.999572	-0.484067
H176	H	0.333459	1.054342	-0.679660
N177	N	1.136560	0.007614	-0.123372
H178	H	1.174158	-0.020666	-0.160962
H179	H	1.196213	-0.002879	-0.068894
N180	N	0.531995	1.007574	0.123392
H181	H	0.614992	0.979288	0.160983
H182	H	0.494369	0.997077	0.183050
H183	H	1.013211	0.207738	0.679744
N184	N	0.889891	-0.117849	0.123374
H185	H	0.830174	-0.107356	0.068962
H186	H	0.852373	-0.089558	0.160967
H187	H	0.583299	0.642617	-0.162593
N188	N	0.533200	0.495806	0.191793
H189	H	0.462464	0.532574	0.200303
H190	H	0.602194	0.477760	0.244965
N191	N	0.307912	1.070311	0.000062
H192	H	0.331190	1.084840	0.046664
H193	H	0.261310	1.049263	0.033813
N194	N	0.285235	1.007583	-0.123272
H195	H	0.225517	1.050386	-0.114241
H196	H	0.276267	0.961485	-0.092093
N197	N	0.486621	0.882151	-0.123323
H198	H	0.443801	0.857122	-0.092187
H199	H	0.564390	0.839370	-0.114320
N200	N	1.136581	-0.117854	-0.123345
H201	H	1.174164	-0.089573	-0.160950
H202	H	1.082092	-0.107360	-0.182990
N203	N	1.136585	0.882133	-0.279854
H204	H	1.174187	0.910404	-0.287666
H205	H	1.196236	0.821552	-0.237070
N206	N	1.136634	1.007545	-0.481224
H207	H	1.105494	1.032586	-0.438416
H208	H	1.127640	1.050317	-0.558992
N209	N	0.889889	0.007603	0.123359
H210	H	0.852296	-0.020672	0.160956
H211	H	0.830232	0.068183	0.068881
H212	H	0.832870	0.137237	-0.015394
H213	H	0.832859	0.246737	-0.015419
N214	N	1.205442	0.495573	-0.302810
H215	H	1.259232	0.475110	-0.340716
H216	H	1.222726	0.447795	-0.225725
H217	H	0.425047	0.643291	0.143848
N218	N	0.889870	0.379920	0.123334
H219	H	0.944293	0.369427	0.183041
H220	H	0.852278	0.351632	0.160862
N221	N	0.709780	0.495271	0.192605
H222	H	0.664395	0.522365	0.229019
H223	H	0.779874	0.495041	0.193292
H224	H	0.346203	0.740343	0.004211
N225	N	0.599981	0.634582	0.171736
H226	H	0.562689	0.613834	0.226105
H227	H	0.603802	0.675246	0.176853
H228	H	1.176468	0.506674	-0.479698
N229	N	0.417764	0.638782	-0.181605
H230	H	0.345159	0.642290	-0.185668
H231	H	0.484763	0.579734	-0.137046
N232	N	1.039349	0.495508	-0.480657
H233	H	0.972073	0.532176	-0.551595
H234	H	1.015029	0.476976	-0.411853
N235	N	0.836590	0.633040	-0.588096
H236	H	0.756117	0.663615	-0.589088
H237	H	0.881575	0.575270	-0.517586
N238	N	0.815117	0.761605	-0.692527
H239	H	0.735327	0.787840	-0.690103
H240	H	0.814881	0.761845	-0.762630
N241	N	0.815485	0.762399	-0.517670
H242	H	0.812180	0.763010	-0.448307
H243	H	0.736540	0.789670	-0.565519
N244	N	0.835790	0.634566	-0.413246
H245	H	0.891170	0.587359	-0.334011
H246	H	0.814742	0.613866	-0.450633
H247	H	1.157200	0.642621	-0.429947
N248	N	1.182359	0.638799	-0.595494
H249	H	1.204601	0.591702	-0.599943
H250	H	1.236860	0.618425	-0.525312
