data_functionalizedCrystal
_audit_creation_method	'MofGen! by Chris Wilmer'
_symmetry_space_group_name_H-M	'P1'
_symmetry_Int_Tables_number	1
_symmetry_cell_setting	triclinic
loop_
_symmetry_equiv_pos_as_xyz
  x,y,z
_cell_length_a	16.956993
_cell_length_b	13.330367
_cell_length_c	16.992695
_cell_angle_alpha	90.004697
_cell_angle_beta	96.638539
_cell_angle_gamma	89.987907
loop_
_atom_site_label
_atom_site_type_symbol
_atom_site_fract_x
_atom_site_fract_y
_atom_site_fract_z
O1	O	-1.060103	0.083525	0.032365
O2	O	-0.560103	0.583525	0.532365
O3	O	-0.829692	0.083505	0.059778
O4	O	-0.329692	0.583505	0.559778
O5	O	-0.943974	0.083507	-0.068011
O6	O	-0.443974	0.583507	0.431989
O7	O	-0.945821	0.083523	0.160154
O8	O	-0.445821	0.583523	0.660154
O9	O	-0.943956	-0.083340	-0.068013
O10	O	-0.443956	0.416660	0.431987
O11	O	-0.829675	-0.083342	0.059776
O12	O	-0.329675	0.416658	0.559776
O13	O	-1.060085	-0.083322	0.032363
O14	O	-0.560085	0.416678	0.532363
Cu15	Cu	-0.944878	-0.098566	0.046070
Cu16	Cu	-0.444878	0.401434	0.546070
Cu17	Cu	-0.944899	0.098750	0.046072
Cu18	Cu	-0.444899	0.598750	0.546072
O19	O	-0.945803	-0.083324	0.160153
O20	O	-0.445803	0.416676	0.660153
C21	C	-0.800065	0.000079	0.061181
C22	C	-0.300065	0.500079	0.561181
C23	C	-0.711810	0.000072	0.065354
C24	C	-0.211810	0.500072	0.565354
N25	N	-0.944869	-0.237348	0.046068
N26	N	-0.444869	0.262652	0.546068
C27	C	-0.214500	0.000096	0.096571
C28	C	0.285500	0.500096	0.596571
C29	C	-0.297425	0.000097	0.092644
C30	C	0.202575	0.500097	0.592644
C31	C	-0.343815	0.000086	0.018931
C32	C	0.156185	0.500086	0.518931
C33	C	-0.307277	0.000083	-0.050859
C34	C	0.192723	0.500083	0.449141
C35	C	-0.224354	0.000089	-0.046931
C36	C	0.275646	0.500089	0.453069
C37	C	-0.592349	0.000075	-0.000509
C38	C	-0.092349	0.500075	0.499491
C39	C	-0.675278	0.000066	-0.004432
C40	C	-0.175278	0.500066	0.495568
C41	C	-0.665419	0.000082	0.139072
C42	C	-0.165419	0.500082	0.639072
C43	C	-0.582495	0.000081	0.142993
C44	C	-0.082495	0.500081	0.642993
C45	C	-0.545964	0.000084	0.073203
C46	C	-0.045964	0.500084	0.573203
N47	N	-0.428578	0.000084	0.014916
N48	N	0.071422	0.500084	0.514916
N49	N	-0.461203	0.000093	0.077219
N50	N	0.038797	0.500093	0.577219
C51	C	-0.894292	-0.709971	0.102636
C52	C	-0.394292	-0.209971	0.602636
C53	C	-0.995528	-0.709938	-0.010500
C54	C	-0.495528	-0.209938	0.489500
C55	C	-0.995519	-0.604920	-0.010502
C56	C	-0.495519	-0.104920	0.489498
C57	C	-0.944896	-0.552422	0.046067
C58	C	-0.444896	-0.052422	0.546067
C59	C	-0.894283	-0.604943	0.102637
C60	C	-0.394283	-0.104943	0.602637
C61	C	-1.046137	-0.552391	-0.067067
C62	C	-0.546137	-0.052391	0.432933
C63	C	-1.046130	-0.447366	-0.067070
C64	C	-0.546130	0.052634	0.432930
C65	C	-0.995503	-0.394867	-0.010504
C66	C	-0.495503	0.105133	0.489496
C67	C	-0.944887	-0.447394	0.046068
C68	C	-0.444887	0.052606	0.546068
C69	C	-0.894265	-0.394897	0.102637
C70	C	-0.394265	0.105103	0.602637
C71	C	-0.843644	-0.447423	0.159207
C72	C	-0.343644	0.052577	0.659207
C73	C	-0.843656	-0.552444	0.159203
C74	C	-0.343656	-0.052444	0.659203
C75	C	-0.995492	-0.289845	-0.010501
C76	C	-0.495492	0.210155	0.489499
C77	C	-0.894256	-0.289869	0.102638
C78	C	-0.394256	0.210131	0.602638
C79	C	-0.089712	0.000099	0.030960
C80	C	0.410288	0.500099	0.530960
C81	C	-0.177967	0.000090	0.026786
C82	C	0.322033	0.500090	0.526786
C83	C	-0.941589	0.000084	-0.097071
C84	C	-0.441589	0.500084	0.402929
C85	C	-0.934498	0.000083	-0.183655
C86	C	-0.434498	0.500083	0.316345
N87	N	-0.944914	0.237531	0.046067
N88	N	-0.444914	0.737531	0.546067
C89	C	-1.002913	0.000088	-0.238330
C90	C	-0.502913	0.500088	0.261670
C91	C	-0.996246	0.000097	-0.319684
C92	C	-0.496246	0.500097	0.180316
C93	C	-0.921163	0.000094	-0.346363
C94	C	-0.421163	0.500094	0.153637
C95	C	-0.852743	0.000092	-0.291682
C96	C	-0.352743	0.500092	0.208318
C97	C	-0.859411	0.000090	-0.210329
C98	C	-0.359411	0.500090	0.289671
C99	C	-0.893527	0.000105	-0.588169
C100	C	-0.393527	0.500105	-0.088169
C101	C	-0.886865	0.000104	-0.669529
C102	C	-0.386865	0.500104	-0.169529
C103	C	-1.030368	0.000111	-0.697526
C104	C	-0.530368	0.500111	-0.197526
C105	C	-1.037029	0.000103	-0.616170
C106	C	-0.537029	0.500103	-0.116170
C107	C	-0.968609	0.000107	-0.561496
C108	C	-0.468609	0.500107	-0.061496
N109	N	-0.914346	0.000100	-0.429520
N110	N	-0.414346	0.500100	0.070480
N111	N	-0.975427	0.000108	-0.478341
N112	N	-0.475427	0.500108	0.021659
C113	C	-0.948189	0.000102	0.189212
C114	C	-0.448189	0.500102	0.689212
C115	C	-0.955279	0.000109	0.275797
C116	C	-0.455279	0.500109	0.775797
H117	H	-0.176733	0.000098	0.156596
H118	H	0.323267	0.500098	0.656596
H119	H	-0.544728	0.000094	0.203018
H120	H	-0.044728	0.500094	0.703018
C121	C	-1.119626	0.000105	-0.586831
C122	C	-0.619626	0.500105	-0.086831
N123	N	-1.181839	0.000103	-0.564733
N124	N	-0.681839	0.500103	-0.064733
H125	H	-1.036747	-0.752684	-0.056554
H126	H	-0.536747	-0.252684	0.443446
H127	H	-0.802430	-0.404667	0.205269
H128	H	-0.302430	0.095333	0.705269
H129	H	-0.345056	0.000080	-0.110878
H130	H	0.154944	0.500080	0.389122
C131	C	-0.705610	0.000088	0.215836
C132	C	-0.205610	0.500088	0.715836
N133	N	-0.735882	0.000097	0.273658
N134	N	-0.235882	0.500097	0.773658
C135	C	-0.787974	-0.610230	0.221421
C136	C	-0.287974	-0.110230	0.721421
N137	N	-0.746034	-0.653759	0.268281
N138	N	-0.246034	-0.153759	0.768281
H139	H	-1.064053	0.000084	-0.216615
H140	H	-0.564053	0.500084	0.283385
C141	C	-1.101817	-0.610143	-0.129288
C142	C	-0.601817	-0.110143	0.370712
N143	N	-1.143756	-0.653648	-0.176157
N144	N	-0.643756	-0.153648	0.323843
H145	H	-0.853029	-0.247132	0.148701
H146	H	-0.353029	0.252868	0.648701
H147	H	-1.086071	0.000110	-0.742050
H148	H	-0.586071	0.500110	-0.242050
H149	H	-0.853075	-0.752740	0.148692
H150	H	-0.353075	-0.252740	0.648692
H151	H	-0.825720	0.000086	-0.691246
H152	H	-0.325720	0.500086	-0.191246
C153	C	-1.101807	-0.389597	-0.129303
C154	C	-0.601807	0.110403	0.370697
N155	N	-1.143740	-0.346085	-0.176180
N156	N	-0.643740	0.153915	0.323820
C157	C	-0.818262	0.000115	-0.528038
C158	C	-0.318262	0.500115	-0.028038
N159	N	-0.761569	0.000125	-0.482744
N160	N	-0.261569	0.500125	0.017256
H161	H	-0.194611	0.000087	-0.103758
H162	H	0.305389	0.500087	0.396242
C163	C	-1.051171	-0.232072	-0.072723
C164	C	-0.551171	0.267928	0.427277
N165	N	-1.093111	-0.188558	-0.119594
N166	N	-0.593111	0.311442	0.380406
C167	C	-1.071508	0.000086	-0.379823
C168	C	-0.571508	0.500086	0.120177
N169	N	-1.128199	0.000073	-0.425120
N170	N	-0.628199	0.500073	0.074880
H171	H	-0.713048	0.000062	-0.064460
H172	H	-0.213048	0.500062	0.435540
C173	C	-0.770151	0.000080	-0.321031
C174	C	-0.270151	0.500080	0.178969
N175	N	-0.707941	0.000064	-0.343136
N176	N	-0.207941	0.500064	0.156864
H177	H	-0.803700	0.000087	-0.165813
H178	H	-0.303700	0.500087	0.334187
H179	H	-0.327165	0.000111	0.149470
H180	H	0.172835	0.500111	0.649470
H181	H	-0.562616	0.000074	-0.057337
H182	H	-0.062616	0.500074	0.442663
