data_functionalizedCrystal
_audit_creation_method	'MofGen! by Chris Wilmer'
_symmetry_space_group_name_H-M	'P1'
_symmetry_Int_Tables_number	1
_symmetry_cell_setting	triclinic
loop_
_symmetry_equiv_pos_as_xyz
  x,y,z
_cell_length_a	13.033748
_cell_length_b	16.120484
_cell_length_c	16.120704
_cell_angle_alpha	84.364775
_cell_angle_beta	80.339620
_cell_angle_gamma	99.720859
loop_
_atom_site_label
_atom_site_type_symbol
_atom_site_fract_x
_atom_site_fract_y
_atom_site_fract_z
Zn1	Zn	1.564909	-0.189608	0.322636
Zn2	Zn	2.064909	0.310392	0.822636
Zn3	Zn	1.564812	-0.322258	0.189954
Zn4	Zn	2.064812	0.177742	0.689954
Zn5	Zn	1.397248	-0.200418	0.200753
Zn6	Zn	1.897248	0.299582	0.700753
Zn7	Zn	1.378240	-0.349300	0.349569
Zn8	Zn	1.878240	0.150700	0.849569
O9	O	1.476302	-0.265396	0.265728
O10	O	1.976302	0.234604	0.765728
O11	O	1.713143	-0.191362	0.289245
O12	O	2.213143	0.308638	0.789245
O13	O	1.550498	-0.299302	0.073578
O14	O	2.050498	0.200698	0.573578
O15	O	1.427484	-0.081161	0.210169
O16	O	1.927484	0.418839	0.710169
O17	O	1.713072	-0.288820	0.191764
O18	O	2.213072	0.211180	0.691764
O19	O	1.550664	-0.073219	0.299716
O20	O	2.050664	0.426781	0.799716
O21	O	1.427390	-0.209787	0.081512
O22	O	1.927390	0.290213	0.581512
O23	O	1.246480	-0.236009	0.236284
O24	O	1.746480	0.263991	0.736284
O25	O	1.395088	-0.334910	0.463805
O26	O	1.895088	0.165090	0.963805
O27	O	1.232515	-0.345392	0.345619
O28	O	1.732515	0.154608	0.845619
O29	O	1.532233	-0.217584	0.444017
O30	O	2.032233	0.282416	0.944017
O31	O	1.532067	-0.443667	0.217880
O32	O	2.032067	0.056333	0.717880
O33	O	1.394994	-0.463535	0.335148
O34	O	1.894994	0.036465	0.835148
C35	C	1.201058	-0.294809	0.295047
C36	C	1.701058	0.205191	0.795047
C37	C	1.083305	-0.307413	0.307611
C38	C	1.583305	0.192587	0.807611
C39	C	1.037688	-0.258840	0.259193
C40	C	1.537688	0.241160	0.759193
C41	C	0.915984	-0.271866	0.272177
C42	C	1.415984	0.228134	0.772177
C43	C	1.461485	-0.484149	0.278280
C44	C	1.961485	0.015851	0.778280
C45	C	1.455241	-0.577724	0.283668
C46	C	1.955241	-0.077724	0.783668
C47	C	1.443846	-0.749046	0.293521
C48	C	1.943846	-0.249046	0.793521
C49	C	1.508948	-0.780886	0.237929
C50	C	2.008948	-0.280886	0.737929
C51	C	1.502607	-0.876215	0.243411
C52	C	2.002607	-0.376215	0.743411
C53	C	1.450184	-0.653708	0.288040
C54	C	1.950184	-0.153708	0.788040
C55	C	1.752621	-0.235869	0.236295
C56	C	2.252621	0.264131	0.736295
C57	C	1.870372	-0.223286	0.223753
C58	C	2.370372	0.276714	0.723753
C59	C	1.461551	-0.278058	0.485311
C60	C	1.961551	0.221942	0.985311
C61	C	1.455265	-0.283454	0.578885
C62	C	1.955265	0.216546	1.078885
C63	C	1.491205	-0.045786	0.253142
C64	C	1.991205	0.454214	0.753142
C65	C	1.497556	0.047799	0.247779
C66	C	1.997556	0.547799	0.747779
C67	C	1.508812	-0.237612	0.782106
C68	C	2.008812	0.262388	1.282106
C69	C	1.443755	-0.293274	0.750200
C70	C	1.943755	0.206726	1.250200
C71	C	1.450161	-0.287808	0.654871
C72	C	1.950161	0.212192	1.154871
C73	C	1.502407	-0.243077	0.877443
C74	C	2.002407	0.256923	1.377443
C75	C	1.490993	-0.252810	1.047000
C76	C	1.990993	0.247190	1.547000
C77	C	1.497298	-0.247436	0.953426
C78	C	1.997298	0.252564	1.453426
H79	H	1.088736	-0.207614	0.208125
H80	H	1.588736	0.292386	0.708125
Cl81	Cl	1.004501	-0.386513	0.386449
Cl82	Cl	1.504501	0.113487	0.886449
Cl83	Cl	1.602347	-0.712438	0.158087
Cl84	Cl	2.102347	-0.212438	0.658087
H85	H	0.921414	-0.172056	0.172682
H86	H	1.421414	0.327944	0.672682
H87	H	1.383353	-0.793379	0.345227
H88	H	1.883353	-0.293379	0.845227
Cl89	Cl	1.350335	-0.373188	0.818559
Cl90	Cl	1.850335	0.126812	1.318559
H91	H	0.864941	-0.323100	0.323243
H92	H	1.364941	0.176900	0.823243
Cl93	Cl	1.602215	-0.157696	0.713748
Cl94	Cl	2.102215	0.342304	1.213748
