data_functionalizedCrystal
_audit_creation_method	'MofGen! by Chris Wilmer'
_symmetry_space_group_name_H-M	'P1'
_symmetry_Int_Tables_number	1
_symmetry_cell_setting	triclinic
loop_
_symmetry_equiv_pos_as_xyz
  x,y,z
_cell_length_a	17.640112
_cell_length_b	18.101397
_cell_length_c	17.640968
_cell_angle_alpha	101.235310
_cell_angle_beta	87.860920
_cell_angle_gamma	101.246095
loop_
_atom_site_label
_atom_site_type_symbol
_atom_site_fract_x
_atom_site_fract_y
_atom_site_fract_z
Zn1	Zn	1.247779	-0.021278	0.195078
Zn2	Zn	1.222013	-0.174069	0.068085
Zn3	Zn	1.095112	-0.069452	0.093721
Zn4	Zn	1.120754	-0.164321	0.220668
O5	O	1.171414	-0.107280	0.144388
O6	O	1.350630	-0.025465	0.156795
O7	O	1.183665	-0.184432	-0.034789
O8	O	1.115416	0.040585	0.107186
O9	O	1.331700	-0.137720	0.063493
O10	O	1.227579	0.075978	0.181653
O11	O	1.090432	-0.107570	-0.015954
O12	O	0.992245	-0.098118	0.131999
O13	O	1.159118	-0.121106	0.323548
O14	O	1.011084	-0.167818	0.225266
O15	O	1.252443	-0.016013	0.304748
O16	O	1.208529	-0.276423	0.088306
O17	O	1.134134	-0.269261	0.200408
C18	C	0.974110	-0.137138	0.184192
C19	C	0.889706	-0.149925	0.201238
C20	C	0.563039	-0.010125	0.014897
C21	C	0.483731	-0.022153	0.030925
C22	C	0.503368	-0.094900	0.127877
C23	C	0.582680	-0.082875	0.111860
C24	C	0.612509	-0.040488	0.055369
C25	C	0.632150	-0.113237	0.152331
C26	C	0.711455	-0.101217	0.136313
C27	C	0.741290	-0.058833	0.079822
C28	C	0.691814	-0.028467	0.039350
C29	C	0.602319	-0.155629	0.208818
C30	C	0.651789	-0.185992	0.249290
C31	C	0.731096	-0.173966	0.233275
C32	C	0.760931	-0.131583	0.176785
C33	C	0.780572	-0.204333	0.273747
C34	C	0.859877	-0.192312	0.257729
C35	C	0.840236	-0.119562	0.160766
C36	C	1.171342	-0.299709	0.144364
C37	C	1.171386	-0.382015	0.144366
C38	C	1.171497	-0.681075	0.144415
C39	C	1.218108	-0.654286	0.073760
C40	C	1.218342	-0.568602	0.073871
C41	C	1.171442	-0.532708	0.144390
C42	C	1.209323	-0.542195	0.220066
C43	C	1.209711	-0.627845	0.219654
C44	C	1.086988	-0.666422	0.140120
C45	C	1.087023	-0.581120	0.138253
C46	C	1.171410	-0.448856	0.144381
C47	C	1.171531	-0.764925	0.144430
C48	C	1.369490	-0.077307	0.104430
C49	C	1.453897	-0.064534	0.087402
C50	C	1.211515	-0.062098	0.342474
C51	C	1.228603	-0.042844	0.426887
C52	C	1.171511	0.085907	0.144424
C53	C	1.171552	0.168232	0.144440
C54	C	1.131514	-0.152227	-0.052936
C55	C	1.114573	-0.171250	-0.137378
C56	C	1.041888	-0.253103	0.753445
C57	C	1.057961	-0.234999	0.832760
C58	C	1.155131	-0.125576	0.813174
C59	C	1.139064	-0.143668	0.733856
C60	C	1.082442	-0.207433	0.703998
C61	C	1.179618	-0.097998	0.684410
C62	C	1.163554	-0.116092	0.605098
C63	C	1.106936	-0.179855	0.575233
C64	C	1.066378	-0.225527	0.624687
C65	C	1.236244	-0.034237	0.714269
C66	C	1.276798	0.011433	0.664822
C67	C	1.260731	-0.006657	0.585510
C68	C	1.204113	-0.070420	0.555645
C69	C	1.301289	0.039015	0.536057
C70	C	1.285225	0.020921	0.456745
C71	C	1.188049	-0.088514	0.476333
H72	H	0.587330	0.024404	-0.031092
H73	H	1.322902	0.063349	0.689144
H74	H	0.995762	-0.305012	0.729137
H75	H	1.141923	-0.140423	0.452025
C76	C	0.828529	-0.045608	0.062203
N77	N	0.894237	-0.035645	0.048934
C78	C	1.167033	-0.650229	0.292027
N79	N	1.134896	-0.667083	0.346543
C80	C	1.035809	-0.549400	0.204441
N81	N	0.997237	-0.525508	0.254301
H82	H	1.093861	-0.194589	0.510652
H83	H	0.479070	-0.129414	0.173869
C84	C	0.429315	0.011253	-0.013601
N85	N	0.388330	0.036413	-0.047138
C86	C	1.363570	0.109155	0.568912
N87	N	1.410480	0.161987	0.593660
H88	H	1.177113	-0.517834	0.273428
C89	C	0.618968	-0.232615	0.311429
N90	N	0.594249	-0.267729	0.358236
H91	H	1.270978	-0.507870	0.226014
C92	C	1.004090	-0.295672	0.591839
N93	N	0.957178	-0.348504	0.567097
C94	C	0.515081	-0.168851	0.226438
N95	N	0.449373	-0.178807	0.239710
H96	H	1.055653	-0.704137	0.086740
H97	H	0.756272	-0.238851	0.319737
C98	C	1.183738	-0.703244	-0.003018
N99	N	1.157848	-0.740124	-0.060849
C100	C	1.329836	0.071161	0.402351
N101	N	1.363439	0.109003	0.361381
C102	C	1.183765	-0.561327	-0.002608
N103	N	1.157713	-0.555853	-0.060212
H104	H	1.249323	-0.019508	0.778850
H105	H	0.900157	-0.217035	0.290685
H106	H	0.864526	-0.085033	0.114777
C107	C	0.724630	0.018165	-0.022790
N108	N	0.749348	0.053285	-0.069594
H109	H	1.024932	-0.272194	0.873018
C110	C	1.293814	-0.637397	0.227104
N111	N	1.357163	-0.644589	0.232711
H112	H	1.201235	-0.073660	0.837496
H113	H	1.280023	-0.663736	0.075228
H114	H	1.280613	-0.535955	0.075430
C115	C	1.048825	-0.575217	0.063130
N116	N	1.020054	-0.570764	0.006549
H117	H	1.052059	-0.683524	0.191779
