data_functionalizedCrystal
_audit_creation_method	'MofGen! by Chris Wilmer'
_symmetry_space_group_name_H-M	'P1'
_symmetry_Int_Tables_number	1
_symmetry_cell_setting	triclinic
loop_
_symmetry_equiv_pos_as_xyz
  x,y,z
_cell_length_a	11.026660
_cell_length_b	19.188924
_cell_length_c	10.065875
_cell_angle_alpha	98.757069
_cell_angle_beta	79.302288
_cell_angle_gamma	95.863399
loop_
_atom_site_label
_atom_site_type_symbol
_atom_site_fract_x
_atom_site_fract_y
_atom_site_fract_z
O1	O	1.626394	0.284137	-0.113526
O2	O	2.126394	0.784137	0.386474
O3	O	1.273267	0.250869	-0.113524
O4	O	1.773267	0.750869	0.386476
O5	O	1.460023	0.167147	-0.113509
O6	O	1.960023	0.667147	0.386491
O7	O	1.439638	0.367859	-0.113541
O8	O	1.939638	0.867859	0.386459
O9	O	1.424411	0.183194	0.113477
O10	O	1.924411	0.683194	0.613477
O11	O	1.237655	0.266916	0.113462
O12	O	1.737655	0.766916	0.613462
O13	O	1.590782	0.300183	0.113459
O14	O	2.090782	0.800183	0.613459
Zn15	Zn	1.408564	0.286097	0.149500
Zn16	Zn	1.908564	0.786097	0.649500
Zn17	Zn	1.455485	0.264955	-0.149564
Zn18	Zn	1.955485	0.764955	0.350436
O19	O	1.404026	0.383905	0.113445
O20	O	1.904026	0.883905	0.613445
C21	C	1.210283	0.252755	-0.000031
C22	C	1.710283	0.752755	0.499969
C23	C	1.075668	0.234459	-0.000029
C24	C	1.575668	0.734459	0.499971
C25	C	0.862460	0.266074	-0.000038
C26	C	1.362460	0.766074	0.499962
C27	C	1.001592	0.284985	-0.000038
C28	C	1.501592	0.784985	0.499962
C29	C	1.441558	0.149076	-0.000015
C30	C	1.941558	0.649076	0.499985
C31	C	1.439579	0.071319	-0.000011
C32	C	1.939579	0.571319	0.499989
C33	C	1.458068	0.026056	-0.123742
C34	C	1.958068	0.526056	0.376258
C35	C	1.456194	-0.047007	-0.123752
C36	C	1.956194	0.452993	0.376248
C37	C	1.435854	-0.074801	-0.000025
C38	C	1.935854	0.425199	0.499975
C39	C	1.417356	-0.029528	0.123722
C40	C	1.917356	0.470472	0.623722
C41	C	1.419218	0.043532	0.123728
C42	C	1.919218	0.543532	0.623728
N43	N	1.487491	-0.179533	0.092062
N44	N	1.987491	0.320467	0.592062
N45	N	1.485726	-0.248937	0.092047
N46	N	1.985726	0.251063	0.592047
C47	C	1.430239	-0.294927	-0.000038
C48	C	1.930239	0.205073	0.499962
N49	N	1.376604	-0.268891	-0.092128
N50	N	1.876604	0.231109	0.407872
N51	N	1.378375	-0.199480	-0.092117
N52	N	1.878375	0.300520	0.407883
C53	C	1.433832	-0.154022	-0.000019
C54	C	1.933832	0.345978	0.499981
C55	C	1.446696	-0.419414	-0.123788
C56	C	1.946696	0.080586	0.376212
C57	C	1.444814	-0.492478	-0.123793
C58	C	1.944814	0.007522	0.376207
C59	C	1.405987	-0.474997	0.123684
C60	C	1.905987	0.025003	0.623684
C61	C	1.407858	-0.401935	0.123685
C62	C	1.907858	0.098065	0.623685
C63	C	1.428219	-0.374148	-0.000054
C64	C	1.928219	0.125852	0.499946
C65	C	1.653766	0.298297	-0.000037
C66	C	2.153766	0.798297	0.499963
C67	C	1.788383	0.316593	-0.000048
C68	C	2.288383	0.816593	0.499952
C69	C	1.422492	0.401977	-0.000053
C70	C	1.922492	0.901977	0.499947
C71	C	1.424472	0.479733	-0.000065
C72	C	1.924472	0.979733	0.499935
N73	N	1.376551	0.300527	0.353603
N74	N	1.876551	0.800527	0.853603
N75	N	1.487508	0.250521	-0.353667
N76	N	1.987508	0.750521	0.146333
C77	C	1.444339	0.269970	0.421387
C78	C	1.944339	0.769970	0.921387
C79	C	1.419710	0.281082	0.578552
C80	C	1.919710	0.781082	1.078552
H81	H	1.041168	0.342241	-0.000039
H82	H	1.541168	0.842241	0.499961
H83	H	1.343431	0.315469	0.636867
H84	H	1.843431	0.815469	1.136867
H85	H	0.822874	0.208824	-0.000009
H86	H	1.322874	0.708824	0.499991
H87	H	1.563778	0.216129	0.588018
H88	H	2.063778	0.716129	1.088018
H89	H	1.300277	0.334911	0.411923
H90	H	1.800277	0.834911	0.911923
H91	H	1.036107	0.177198	-0.000111
H92	H	1.536107	0.677198	0.499889
H93	H	0.827965	0.373844	-0.000048
H94	H	1.327965	0.873844	0.499952
H95	H	1.474644	0.048674	-0.224500
H96	H	1.974644	0.548674	0.275500
H97	H	1.471243	-0.083868	-0.224511
H98	H	1.971243	0.416132	0.275489
H99	H	1.389417	-0.497627	0.224425
H100	H	1.889417	0.002373	0.724425
H101	H	1.463268	-0.396789	-0.224545
H102	H	1.963268	0.103211	0.275455
H103	H	1.404157	0.080386	0.224488
H104	H	1.904157	0.580386	0.724488
H105	H	1.400792	-0.052163	0.224461
H106	H	1.900792	0.447837	0.724461
H107	H	1.459864	-0.529332	-0.224554
H108	H	1.959864	-0.029332	0.275446
H109	H	1.392812	-0.365080	0.224440
H110	H	1.892812	0.134920	0.724440
H111	H	1.520604	0.235580	0.363069
H112	H	2.020604	0.735580	0.863069
