data_functionalizedCrystal
_audit_creation_method	'MofGen! by Chris Wilmer'
_symmetry_space_group_name_H-M	'P1'
_symmetry_Int_Tables_number	1
_symmetry_cell_setting	triclinic
loop_
_symmetry_equiv_pos_as_xyz
  x,y,z
_cell_length_a	23.532407
_cell_length_b	23.532407
_cell_length_c	17.766277
_cell_angle_alpha	89.988964
_cell_angle_beta	89.995974
_cell_angle_gamma	82.848678
loop_
_atom_site_label
_atom_site_type_symbol
_atom_site_fract_x
_atom_site_fract_y
_atom_site_fract_z
O1	O	0.755263	0.069136	-0.062508
O2	O	0.589400	0.079139	-0.062531
O3	O	0.677333	-0.008794	-0.062505
O4	O	0.667330	0.157069	-0.062534
O5	O	0.677318	-0.008799	0.062684
O6	O	0.589385	0.079134	0.062657
O7	O	0.755248	0.069131	0.062681
Cu8	Cu	0.672315	0.074132	0.074100
Cu9	Cu	0.672333	0.074138	-0.073950
O10	O	0.667315	0.157065	0.062655
C11	C	0.568176	0.078882	0.000060
C12	C	0.504959	0.078116	0.000052
C13	C	0.677071	-0.030013	0.000091
C14	C	0.676305	-0.093230	0.000097
C15	C	0.105856	0.125350	0.000078
C16	C	0.046456	0.124638	0.000083
O17	O	0.009711	0.168424	0.000102
N18	N	0.023830	0.072362	0.000091
C19	C	0.060607	0.020794	0.000101
O20	O	0.035908	-0.023737	0.000109
C21	C	0.120006	0.021506	0.000102
C22	C	0.142629	0.073785	0.000087
C23	C	0.128479	0.177625	0.000063
C24	C	0.187876	0.178336	0.000057
C25	C	0.224649	0.126772	0.000066
C26	C	0.202025	0.074496	0.000080
C27	C	0.156783	-0.030062	0.000118
C28	C	0.216185	-0.029345	0.000120
C29	C	0.238808	0.022934	0.000104
C30	C	0.298194	0.023643	0.000083
N31	N	0.320820	0.075920	0.000075
C32	C	0.284048	0.127484	0.000066
C33	C	-0.064135	0.019302	0.000101
C34	C	-0.123533	0.018589	0.000095
C35	C	-0.137680	0.122434	0.000078
C36	C	-0.078281	0.123146	0.000079
C37	C	-0.041509	0.071578	0.000094
C38	C	0.408784	0.128974	0.000053
C39	C	0.468186	0.129680	0.000044
C40	C	0.482329	0.025836	0.000065
C41	C	0.422932	0.025129	0.000070
C42	C	0.386160	0.076702	0.000067
O43	O	0.334974	-0.020119	0.000066
O44	O	0.308755	0.172007	0.000069
C45	C	0.723539	-0.492333	0.000062
C46	C	0.722827	-0.551733	0.000056
O47	O	0.766613	-0.588478	0.000035
N48	N	0.670551	-0.574359	0.000050
C49	C	0.618983	-0.537582	0.000041
O50	O	0.574452	-0.562281	0.000034
C51	C	0.619695	-0.478182	0.000041
C52	C	0.671974	-0.455560	0.000056
C53	C	0.775814	-0.469710	0.000076
C54	C	0.776525	-0.410313	0.000083
C55	C	0.724961	-0.373540	0.000077
C56	C	0.672685	-0.396164	0.000063
C57	C	0.568127	-0.441406	0.000027
C58	C	0.568844	-0.382004	0.000027
C59	C	0.621123	-0.359381	0.000042
C60	C	0.621832	-0.299995	0.000064
N61	N	0.674109	-0.277368	0.000071
C62	C	0.725673	-0.314141	0.000077
C63	C	0.617491	-0.662324	0.000039
C64	C	0.616778	-0.721722	0.000044
C65	C	0.720623	-0.735869	0.000058
C66	C	0.721335	-0.676470	0.000058
C67	C	0.669767	-0.639698	0.000046
C68	C	0.727163	-0.189405	0.000093
C69	C	0.727869	-0.130003	0.000103
C70	C	0.624025	-0.115860	0.000085
C71	C	0.623318	-0.175257	0.000079
C72	C	0.674891	-0.212029	0.000080
O73	O	0.578070	-0.263215	0.000083
O74	O	0.770196	-0.289433	0.000074
C75	C	0.776472	0.069388	0.000088
C76	C	0.839689	0.070154	0.000091
C77	C	0.667577	0.178283	0.000057
C78	C	0.668343	0.241500	0.000046
N79	N	0.672306	0.074128	0.178230
N80	N	0.672346	0.074137	-0.178080
C81	C	0.711256	0.035211	0.217629
C82	C	0.711259	0.035208	0.296430
C83	C	0.672318	0.074133	0.335831
C84	C	0.633362	0.113054	0.296423
C85	C	0.633356	0.113052	0.217622
C86	C	0.664563	0.126044	0.460659
C87	C	0.664573	0.126047	0.539458
C88	C	0.672334	0.074140	0.578877
C89	C	0.680096	0.022228	0.539488
C90	C	0.680090	0.022225	0.460687
C91	C	0.672320	0.074139	0.421276
C92	C	0.711289	0.035216	0.703721
C93	C	0.711288	0.035212	0.782525
C94	C	0.633393	0.113063	0.782515
C95	C	0.633391	0.113062	0.703714
C96	C	0.672342	0.074139	0.664321
H97	H	0.486602	0.172255	0.000031
H98	H	0.246123	-0.071339	0.000132
C99	C	0.368344	0.185707	0.000045
N100	N	0.337885	0.228439	0.000033
H101	H	0.582043	-0.085909	0.000083
H102	H	0.580748	-0.193677	0.000088
C103	C	0.785383	-0.105122	0.000117
N104	N	0.828702	-0.086384	0.000125
C105	C	0.688632	-0.034875	0.582843
N106	N	0.695062	-0.077883	0.615501
C107	C	0.559267	-0.746600	0.000037
N108	N	0.515947	-0.765335	0.000028
H109	H	-0.167632	0.164421	0.000075
C110	C	0.590558	0.155882	0.825851
N111	N	0.558294	0.188134	0.858496
C112	C	0.398046	-0.032381	0.000078
N113	N	0.379307	-0.075699	0.000090
C114	C	0.088037	0.234355	0.000057
N115	N	0.057580	0.277088	0.000047
H116	H	0.819097	-0.391900	0.000092
C117	C	0.510614	-0.466277	0.000006
N118	N	0.467292	-0.485008	-0.000012
H119	H	-0.141947	-0.023982	0.000096
H120	H	0.742970	0.003516	0.185558
C121	C	0.832544	-0.510152	0.000091
N122	N	0.875277	-0.540609	0.000110
C123	C	0.778846	-0.651592	0.000067
N124	N	0.822166	-0.632856	0.000072
H125	H	0.512280	-0.016146	0.000069
H126	H	0.206289	0.220908	0.000044
H127	H	-0.059867	0.165717	0.000070
C128	C	0.783896	-0.229845	0.000101
N129	N	0.826628	-0.260304	0.000114
H130	H	0.601677	0.144755	0.671633
C131	C	0.560758	-0.621879	0.000035
N132	N	0.518027	-0.591418	0.000031
C133	C	-0.023690	-0.037431	0.000105
N134	N	0.006771	-0.080162	0.000108
C135	C	0.131912	-0.087575	0.000150
N136	N	0.113181	-0.130897	0.000180
C137	C	0.512113	-0.341557	0.000016
N138	N	0.469384	-0.311094	0.000011
H139	H	0.743003	0.003518	0.814603
H140	H	0.658255	0.168316	0.571523
H141	H	0.742977	0.003515	0.328515
C142	C	0.590531	0.155891	0.174283
N143	N	0.558284	0.188167	0.141638
H144	H	0.686410	-0.020043	0.428620
H145	H	0.658233	0.168315	0.428570
C146	C	0.754129	-0.007605	0.660387
N147	N	0.786396	-0.039860	0.627750
C148	C	0.590524	0.155869	0.339765
N149	N	0.558256	0.188117	0.372410
H150	H	0.762610	-0.765821	0.000060
