data_functionalizedCrystal
_audit_creation_method	'MofGen! by Chris Wilmer'
_symmetry_space_group_name_H-M	'P1'
_symmetry_Int_Tables_number	1
_symmetry_cell_setting	triclinic
loop_
_symmetry_equiv_pos_as_xyz
  x,y,z
_cell_length_a	13.339071
_cell_length_b	12.837942
_cell_length_c	11.295443
_cell_angle_alpha	94.173332
_cell_angle_beta	86.718873
_cell_angle_gamma	74.770891
loop_
_atom_site_label
_atom_site_type_symbol
_atom_site_fract_x
_atom_site_fract_y
_atom_site_fract_z
O1	O	1.400678	-0.542717	-0.099049
O2	O	1.099388	-0.472560	-0.099046
O3	O	1.243352	-0.354814	-0.099040
O4	O	1.256714	-0.660464	-0.099055
O5	O	1.229599	-0.338386	0.099013
O6	O	1.085636	-0.456133	0.099007
O7	O	1.386926	-0.526290	0.099005
Cu8	Cu	1.235025	-0.489711	0.117090
Cu9	Cu	1.251289	-0.509139	-0.117131
O10	O	1.242962	-0.644036	0.098998
C11	C	1.053680	-0.452495	-0.000019
C12	C	0.937973	-0.417170	-0.000018
C13	C	1.231962	-0.306681	-0.000014
C14	C	1.218500	-0.187732	-0.000016
N15	N	1.223594	-0.476049	0.281828
C16	C	0.886656	-0.307012	-0.000008
C17	C	0.777943	-0.273819	-0.000013
C18	C	0.720538	-0.350782	-0.000018
C19	C	0.771855	-0.460942	-0.000019
C20	C	0.880578	-0.494139	-0.000024
C21	C	0.714460	-0.537909	-0.000033
C22	C	0.765777	-0.648069	-0.000034
C23	C	0.874490	-0.681260	-0.000038
C24	C	0.931896	-0.604298	-0.000033
C25	C	0.605737	-0.504712	-0.000028
C26	C	0.599659	-0.691839	-0.000044
C27	C	0.708371	-0.725032	-0.000039
C28	C	1.432634	-0.546355	-0.000025
C29	C	1.548342	-0.581680	-0.000034
C30	C	1.254352	-0.692169	-0.000030
C31	C	1.267815	-0.811118	-0.000036
C32	C	1.380341	0.006676	-0.000042
C33	C	1.367697	0.118438	-0.000044
C34	C	1.180570	0.147556	-0.000030
C35	C	1.193214	0.035793	-0.000028
C36	C	1.293102	-0.034643	-0.000032
C37	C	1.305745	-0.146407	-0.000022
C38	C	1.118619	-0.117288	-0.000017
C39	C	1.105975	-0.005525	-0.000018
N40	N	1.262728	-0.522795	-0.281870
C41	C	1.141313	-0.377715	0.468863
C42	C	1.149942	-0.388034	0.344197
C43	C	1.288622	-0.553748	0.344132
C44	C	1.279992	-0.543429	0.468798
C45	C	1.206334	-0.455410	0.531158
C46	C	1.197700	-0.445096	0.655826
C47	C	1.336383	-0.610805	0.655759
C48	C	1.345013	-0.621124	0.531093
H49	H	0.563965	-0.415019	-0.000028
H50	H	1.099246	0.204923	-0.000039
C51	C	1.060277	-0.280916	0.537463
H52	H	1.022785	-0.236122	0.482506
H53	H	1.013246	-0.306800	0.586093
H54	H	1.094811	-0.240096	0.586099
H55	H	0.736169	-0.184127	-0.000014
H56	H	1.096995	-0.324766	0.293481
C57	C	1.022653	-0.162740	-0.000016
H58	H	1.044487	-0.239391	-0.000024
H59	H	0.977341	-0.132709	0.069048
H60	H	0.986938	-0.144176	-0.069091
H61	H	1.024649	0.051839	-0.000020
H62	H	0.632019	-0.323750	-0.000021
C63	C	1.116675	-0.348286	0.724422
H64	H	1.079192	-0.303488	0.669461
H65	H	1.069633	-0.374154	0.773054
H66	H	1.151219	-0.307474	0.773054
C67	C	0.930942	-0.802432	-0.000057
H68	H	1.003912	-0.811180	-0.000072
H69	H	0.907085	-0.829716	0.069002
H70	H	0.916669	-0.841155	-0.069137
H71	H	1.348599	-0.625402	0.293337
C72	C	1.463656	0.163891	-0.000057
H73	H	1.441823	0.240539	-0.000067
H74	H	1.499384	0.145324	0.069003
H75	H	1.508958	0.133859	-0.069137
C76	C	1.426026	-0.717940	0.462490
H77	H	1.421849	-0.712963	0.379322
H78	H	1.493896	-0.716967	0.482905
H79	H	1.412294	-0.783627	0.482911
C80	C	1.407905	-0.696277	0.724286
H81	H	1.392220	-0.677527	0.807464
H82	H	1.397013	-0.765344	0.703838
H83	H	1.478609	-0.698676	0.703845
C84	C	0.764823	-0.846204	-0.000052
H85	H	0.715071	-0.887290	-0.000047
H86	H	0.811904	-0.868765	-0.069118
H87	H	0.802310	-0.857311	0.069022
H88	H	0.933405	-0.244362	-0.000013
C89	C	0.536529	-0.776508	-0.000050
H90	H	0.582662	-0.846870	-0.000070
H91	H	0.489196	-0.761724	0.069015
H92	H	0.498789	-0.773170	-0.069124
H93	H	1.020418	-0.631317	-0.000024
H94	H	1.387079	-0.203755	-0.000021
H95	H	1.461673	-0.050675	-0.000034
