data_functionalizedCrystal
_audit_creation_method	'MofGen! by Chris Wilmer'
_symmetry_space_group_name_H-M	'P1'
_symmetry_Int_Tables_number	1
_symmetry_cell_setting	triclinic
loop_
_symmetry_equiv_pos_as_xyz
  x,y,z
_cell_length_a	17.019282
_cell_length_b	17.038272
_cell_length_c	10.065875
_cell_angle_alpha	99.426590
_cell_angle_beta	85.087387
_cell_angle_gamma	87.241387
loop_
_atom_site_label
_atom_site_type_symbol
_atom_site_fract_x
_atom_site_fract_y
_atom_site_fract_z
O1	O	1.052390	0.100583	0.010234
O2	O	0.826103	0.110599	-0.016373
O3	O	0.937900	-0.008238	-0.003217
O4	O	0.940592	0.219420	-0.002922
O5	O	0.916588	0.014514	0.221264
O6	O	0.804790	0.133351	0.208108
O7	O	1.031078	0.123336	0.234715
Zn8	Zn	0.914550	0.131956	0.257053
Zn9	Zn	0.942630	0.101979	-0.038710
O10	O	0.919280	0.242173	0.221559
C11	C	0.786350	0.121148	0.092446
C12	C	0.699650	0.118675	0.082252
C13	C	0.647306	0.129914	0.199831
C14	C	0.565843	0.127578	0.190256
C15	C	0.536725	0.114009	0.063102
C16	C	0.589077	0.102767	-0.054485
C17	C	0.670538	0.105097	-0.044910
C18	C	0.291345	0.106347	0.028067
C19	C	0.209876	0.104019	0.018500
C20	C	0.186648	0.128829	0.263242
C21	C	0.268112	0.131164	0.272807
C22	C	0.320456	0.119917	0.155220
C23	C	0.453457	0.111623	0.053312
C24	C	0.403723	0.122297	0.165011
C25	C	0.924798	-0.026017	0.108736
C26	C	0.917499	-0.112890	0.107877
C27	C	0.984511	-0.162267	0.115758
C28	C	0.977650	-0.243894	0.114938
C29	C	0.903774	-0.276142	0.106247
C30	C	0.836758	-0.226759	0.098362
C31	C	0.843621	-0.145135	0.099172
C32	C	0.879529	-0.522169	0.103378
C33	C	0.872670	-0.603799	0.102572
C34	C	1.013563	-0.620929	0.119146
C35	C	1.020419	-0.539301	0.119964
C36	C	0.953403	-0.489926	0.112071
C37	C	0.896759	-0.359578	0.105413
C38	C	0.960421	-0.406493	0.112896
C39	C	1.070831	0.112786	0.125893
C40	C	1.157531	0.115258	0.136078
N41	N	0.895392	0.152414	0.458904
C42	C	0.932383	0.259951	0.109603
C43	C	0.939683	0.346824	0.110453
N44	N	0.961794	0.081514	-0.240561
C45	C	0.935959	0.109092	0.531456
C46	C	0.921221	0.124843	0.686889
H47	H	0.523227	0.136717	0.286001
N48	N	0.797203	-0.636743	0.093728
N49	N	0.741820	-0.612305	0.182903
H50	H	0.688524	-0.635573	0.176667
N51	N	1.082018	-0.671369	0.127168
N52	N	1.138933	-0.677574	0.038174
H53	H	1.187284	-0.713198	0.043834
N54	N	0.433465	0.136182	0.294888
N55	N	0.413058	0.199276	0.375311
H56	H	0.434071	0.209089	0.467037
H57	H	1.032218	-0.284094	0.121359
H58	H	1.007436	0.032757	0.706489
H59	H	0.836609	-0.385843	0.098340
H60	H	0.291812	0.142209	0.376350
H61	H	0.981598	0.060337	0.478503
H62	H	0.849747	0.201163	0.511858
H63	H	0.875573	0.173595	0.739838
H64	H	0.824959	-0.481977	0.096951
N65	N	1.059966	-0.129315	0.124650
N66	N	1.070529	-0.076093	0.221575
H67	H	1.123821	-0.052821	0.227854
N68	N	1.095888	-0.506376	0.128844
N69	N	1.155716	-0.550473	0.135877
H70	H	1.209017	-0.527221	0.142152
H71	H	0.671005	0.140970	0.303373
H72	H	0.776608	-0.253023	0.091277
N73	N	0.133168	0.140316	0.383334
N74	N	0.060436	0.138237	0.374774
H75	H	0.022665	0.146348	0.459593
N76	N	0.180146	0.090155	-0.111403
N77	N	0.226889	0.080113	-0.216381
H78	H	0.205893	0.070322	-0.308121
H79	H	0.333955	0.097187	-0.067681
H80	H	0.565364	0.091713	-0.158017
H81	H	0.789052	-0.104932	0.092754
H82	H	0.429741	0.100575	-0.050218
N83	N	0.724000	0.093608	-0.165026
N84	N	0.697995	0.081491	-0.278550
H85	H	0.735751	0.073372	-0.363388
H86	H	1.020572	-0.380237	0.119942
