data_functionalizedCrystal
_audit_creation_method	'MofGen! by Chris Wilmer'
_symmetry_space_group_name_H-M	'P1'
_symmetry_Int_Tables_number	1
_symmetry_cell_setting	triclinic
loop_
_symmetry_equiv_pos_as_xyz
  x,y,z
_cell_length_a	6.817900
_cell_length_b	19.453103
_cell_length_c	19.453114
_cell_angle_alpha	96.316406
_cell_angle_beta	101.709288
_cell_angle_gamma	101.709178
loop_
_atom_site_label
_atom_site_type_symbol
_atom_site_fract_x
_atom_site_fract_y
_atom_site_fract_z
V1	V	-3.997997	-0.097914	-0.219328
O2	O	-3.995098	0.003953	-0.214817
O3	O	-3.941017	-0.193423	-0.218151
O4	O	-3.941018	-0.096738	-0.314837
O5	O	-3.995097	-0.093402	-0.117462
V6	V	-4.483849	-0.085690	-0.207105
O7	O	-4.254148	-0.124727	-0.246141
O8	O	-4.677895	-0.058877	-0.180292
O9	O	-4.317623	0.009819	-0.208282
O10	O	-4.604145	-0.187557	-0.211616
O11	O	-4.604146	-0.090202	-0.308971
O12	O	-4.317621	-0.086866	-0.111596
C13	C	-3.784208	-0.216695	-0.214774
C14	C	-3.818849	-0.294777	-0.214449
C15	C	-4.016582	-0.335044	-0.217808
C16	C	-4.049135	-0.408411	-0.217509
C17	C	-3.883937	-0.441507	-0.213837
C18	C	-3.686178	-0.401231	-0.210481
C19	C	-3.653634	-0.327867	-0.210787
N20	N	-3.779057	-0.547627	-0.170551
N21	N	-3.809984	-0.617320	-0.170259
C22	C	-3.981979	-0.662551	-0.212916
N23	N	-4.121905	-0.635454	-0.255867
N24	N	-4.090980	-0.565754	-0.256156
C25	C	-3.919205	-0.521058	-0.213505
C26	C	-4.215023	-0.782371	-0.215953
C27	C	-4.247572	-0.855741	-0.215658
C28	C	-3.884605	-0.848558	-0.208622
C29	C	-3.852066	-0.775191	-0.208924
C30	C	-4.017281	-0.742102	-0.212586
C31	C	-3.784208	-0.093363	-0.338106
C32	C	-3.818848	-0.093034	-0.416187
C33	C	-4.016587	-0.096405	-0.456456
C34	C	-4.049136	-0.096095	-0.529822
C35	C	-3.883941	-0.092429	-0.562918
C36	C	-3.686172	-0.089054	-0.522640
C37	C	-3.653625	-0.089356	-0.449274
N38	N	-3.820865	-0.129523	-0.681832
N39	N	-3.851796	-0.129237	-0.751526
C40	C	-3.981989	-0.091516	-0.783963
N41	N	-4.080118	-0.054100	-0.744075
N42	N	-4.049192	-0.054389	-0.674375
C43	C	-3.919211	-0.092100	-0.642470
C44	C	-4.215033	-0.094550	-0.903783
C45	C	-4.247572	-0.094236	-0.977150
C46	C	-3.884605	-0.087202	-0.969967
C47	C	-3.852068	-0.087509	-0.896601
C48	C	-4.017291	-0.091187	-0.863515
C49	C	-4.137773	0.033088	-0.211656
C50	C	-4.082370	0.111169	-0.211986
C51	C	-4.137773	-0.090243	-0.088323
C52	C	-4.082372	-0.090569	-0.010241
H53	H	-3.551675	-0.428183	-0.207492
H54	H	-4.408596	-0.888526	-0.218398
H55	H	-4.349551	-0.755428	-0.218933
H56	H	-3.750099	-0.875504	-0.205636
O57	O	-4.241253	-0.447585	-0.220894
C58	C	-4.302734	-0.499985	-0.282064
H59	H	-4.212190	-0.482643	-0.322904
H60	H	-4.271442	-0.552420	-0.267062
C61	C	-4.645680	-0.531116	-0.263819
C62	C	-4.534485	-0.509814	-0.313981
H63	H	-4.788636	-0.537183	-0.283506
H64	H	-4.604259	-0.495816	-0.222606
H65	H	-4.619581	-0.574810	-0.251322
H66	H	-4.560565	-0.466117	-0.326471
H67	H	-4.575916	-0.545108	-0.355197
O68	O	-3.525814	-0.085401	-0.554852
C69	C	-3.501956	-0.023861	-0.587331
H70	H	-3.653797	-0.006485	-0.598194
H71	H	-3.377592	0.020578	-0.550472
C72	C	-3.252287	-0.061479	-0.644581
C73	C	-3.438786	-0.040141	-0.657930
H74	H	-3.213311	-0.071519	-0.688129
H75	H	-3.268353	-0.102938	-0.622698
H76	H	-3.148672	-0.024443	-0.613864
H77	H	-3.542402	-0.077180	-0.688639
H78	H	-3.422735	0.001312	-0.679820
H79	H	-4.210166	-0.098844	-0.562615
H80	H	-3.691049	-0.742405	-0.206184
O81	O	-4.439812	-0.097542	-1.016168
C82	C	-4.578638	-0.100833	-0.971225
H83	H	-4.513862	-0.122375	-0.921436
H84	H	-4.601522	-0.045306	-0.955507
C85	C	-4.866430	-0.123880	-1.071775
C86	C	-4.786880	-0.150344	-1.010625
H87	H	-4.994888	-0.154418	-1.096079
H88	H	-4.772902	-0.121660	-1.102055
H89	H	-4.885483	-0.077608	-1.058668
H90	H	-4.767805	-0.196611	-1.023734
H91	H	-4.880411	-0.152573	-0.980349
H92	H	-4.151127	-0.099397	-0.429521
H93	H	-3.750096	-0.084210	-0.996913
O94	O	-3.461532	-0.085986	-0.410097
C95	C	-3.400028	-0.024828	-0.357683
H96	H	-3.490506	0.016031	-0.375021
H97	H	-3.431386	-0.039838	-0.305258
C98	C	-3.057140	-0.043121	-0.326531
C99	C	-3.168254	0.007065	-0.347828
H100	H	-2.914169	-0.023449	-0.320449
H101	H	-3.098577	-0.084326	-0.361841
H102	H	-3.083295	-0.055625	-0.282846
H103	H	-3.142118	0.019562	-0.391517
H104	H	-3.126807	0.048273	-0.312525
O105	O	-3.461396	-0.288847	-0.207483
C106	C	-3.322569	-0.333790	-0.204200
H107	H	-3.387342	-0.383583	-0.182664
H108	H	-3.299688	-0.349501	-0.259728
C109	C	-3.034779	-0.233238	-0.181144
C110	C	-3.114326	-0.294393	-0.154688
H111	H	-2.906321	-0.208936	-0.150606
H112	H	-3.128308	-0.202959	-0.183359
H113	H	-3.015729	-0.246340	-0.227418
H114	H	-3.133399	-0.281290	-0.108419
H115	H	-3.020794	-0.324669	-0.152464
H116	H	-4.349566	-0.097542	-0.876842
H117	H	-4.151119	-0.308108	-0.220795
H118	H	-3.691053	-0.084771	-0.863815
