data_functionalizedCrystal
_audit_creation_method	'MofGen! by Chris Wilmer'
_symmetry_space_group_name_H-M	'P1'
_symmetry_Int_Tables_number	1
_symmetry_cell_setting	triclinic
loop_
_symmetry_equiv_pos_as_xyz
  x,y,z
_cell_length_a	12.759401
_cell_length_b	13.897447
_cell_length_c	12.759393
_cell_angle_alpha	89.969000
_cell_angle_beta	89.980324
_cell_angle_gamma	90.019956
loop_
_atom_site_label
_atom_site_type_symbol
_atom_site_fract_x
_atom_site_fract_y
_atom_site_fract_z
Zn1	Zn	1.606231	-0.383957	-0.593981
Zn2	Zn	2.106231	0.116043	-0.093981
Zn3	Zn	1.606107	-0.545284	-0.418300
Zn4	Zn	2.106107	-0.045284	0.081700
Zn5	Zn	1.430530	-0.384005	-0.418320
Zn6	Zn	1.930530	0.115995	0.081680
Zn7	Zn	1.430507	-0.545213	-0.593941
Zn8	Zn	1.930507	-0.045213	-0.093941
O9	O	1.518344	-0.464615	-0.506135
O10	O	2.018344	0.035385	-0.006135
O11	O	1.753236	-0.405367	-0.570685
O12	O	2.253236	0.094633	-0.070685
O13	O	1.582774	-0.523939	-0.271281
O14	O	2.082774	-0.023939	0.228719
O15	O	1.453898	-0.249017	-0.441647
O16	O	1.953898	0.250983	0.058353
O17	O	1.753145	-0.523893	-0.441612
O18	O	2.253145	-0.023893	0.058388
O19	O	1.582985	-0.248982	-0.570705
O20	O	2.082985	0.251018	-0.070705
O21	O	1.453778	-0.405449	-0.271296
O22	O	1.953778	0.094551	0.228704
O23	O	1.283506	-0.405381	-0.441608
O24	O	1.783506	0.094619	0.058392
O25	O	1.453859	-0.523773	-0.740967
O26	O	1.953859	-0.023773	-0.240967
O27	O	1.283489	-0.523819	-0.570636
O28	O	1.783489	-0.023819	-0.070636
O29	O	1.582963	-0.405299	-0.740997
O30	O	2.082963	0.094701	-0.240997
O31	O	1.582752	-0.680256	-0.441573
O32	O	2.082752	-0.180256	0.058427
O33	O	1.453739	-0.680204	-0.570616
O34	O	1.953739	-0.180204	-0.070616
C35	C	1.245376	-0.464598	-0.506121
C36	C	1.745376	0.035402	-0.006121
C37	C	1.128600	-0.464614	-0.506139
C38	C	1.628600	0.035386	-0.006139
C39	C	1.073786	-0.403010	-0.573451
C40	C	1.573786	0.096990	-0.073451
C41	C	0.964062	-0.403019	-0.573458
C42	C	1.464062	0.096981	-0.073458
C43	C	0.963975	-0.526247	-0.438838
C44	C	1.463975	-0.026247	0.061162
C45	C	1.073697	-0.526232	-0.438827
C46	C	1.573697	-0.026232	0.061173
C47	C	1.518258	-0.715229	-0.506111
C48	C	2.018258	-0.215229	-0.006111
C49	C	1.518318	-0.822443	-0.506136
C50	C	2.018318	-0.322443	-0.006136
C51	C	1.518369	-0.909513	-0.506160
C52	C	2.018369	-0.409513	-0.006160
C53	C	1.518442	-1.018745	-0.506187
C54	C	2.018442	-0.518745	-0.006187
C55	C	1.792377	-0.464632	-0.506151
C56	C	2.292377	0.035368	-0.006151
C57	C	1.909154	-0.464640	-0.506157
C58	C	2.409154	0.035360	-0.006157
C59	C	1.518422	-0.464522	-0.780169
C60	C	2.018422	0.035478	-0.280169
C61	C	1.518456	-0.464483	-0.896946
C62	C	2.018456	0.035517	-0.396946
C63	C	1.518458	-0.213022	-0.506183
C64	C	2.018458	0.286978	-0.006183
C65	C	1.518507	-0.105808	-0.506203
C66	C	2.018507	0.394192	-0.006203
C67	C	1.585685	-0.402784	-0.951825
C68	C	2.085685	0.097216	-0.451825
C69	C	1.585703	-0.402742	-1.061549
C70	C	2.085703	0.097258	-0.561549
C71	C	1.451259	-0.526107	-1.061505
C72	C	1.951259	-0.026107	-0.561505
C73	C	1.451237	-0.526143	-0.951783
C74	C	1.951237	-0.026143	-0.451783
C75	C	1.518326	-0.464638	-0.233168
C76	C	2.018326	0.035362	0.266832
C77	C	1.518496	-0.464405	-0.116392
C78	C	2.018496	0.035595	0.383608
H79	H	1.118328	-0.576399	-0.384008
H80	H	1.618328	-0.076399	0.115992
O81	O	1.385823	-0.585905	-1.114728
O82	O	1.885823	-0.085905	-0.614728
C83	C	1.207099	-0.632748	-1.148216
C84	C	1.707099	-0.132748	-0.648216
C85	C	1.281084	-0.564947	-1.087899
C86	C	1.781084	-0.064947	-0.587899
H87	H	1.122404	-0.615840	-1.126531
H88	H	1.622404	-0.115840	-0.626531
H89	H	1.218572	-0.622125	-1.236078
H90	H	1.718572	-0.122125	-0.736078
H91	H	1.225564	-0.710527	-1.126638
H92	H	1.725564	-0.210527	-0.626638
H93	H	1.262665	-0.487141	-1.109390
H94	H	1.762665	0.012859	-0.609390
H95	H	1.269598	-0.575652	-1.000053
H96	H	1.769598	-0.075652	-0.500053
O97	O	1.126956	-0.343062	-0.638864
O98	O	1.626956	0.156938	-0.138864
C99	C	1.115456	-0.220879	-0.772432
C100	C	1.615456	0.279121	-0.272432
C101	C	1.055115	-0.288707	-0.698388
C102	C	1.555115	0.211293	-0.198388
H103	H	1.057398	-0.176930	-0.820592
H104	H	1.557398	0.323070	-0.320592
H105	H	1.166788	-0.170317	-0.724341
H106	H	1.666788	0.329683	-0.224341
H107	H	1.166867	-0.265234	-0.827234
H108	H	1.666867	0.234766	-0.327234
H109	H	1.003647	-0.244429	-0.643571
H110	H	1.503647	0.255571	-0.143571
H111	H	1.003849	-0.339272	-0.746545
H112	H	1.503849	0.160728	-0.246545
O113	O	0.910701	-0.343314	-0.638900
O114	O	1.410701	0.156686	-0.138900
C115	C	0.786939	-0.330518	-0.780829
C116	C	1.286939	0.169482	-0.280829
C117	C	0.847284	-0.398246	-0.706762
C118	C	1.347284	0.101754	-0.206762
H119	H	0.735668	-0.374904	-0.835728
H120	H	1.235668	0.125096	-0.335728
H121	H	0.735491	-0.280045	-0.732757
H122	H	1.235491	0.219955	-0.232757
H123	H	0.845051	-0.286458	-0.828884
H124	H	1.345051	0.213542	-0.328884
H125	H	0.789247	-0.442368	-0.658691
H126	H	1.289247	0.057632	-0.158691
H127	H	0.898748	-0.448656	-0.754894
H128	H	1.398748	0.051344	-0.254894
O129	O	0.910755	-0.586240	-0.373515
O130	O	1.410755	-0.086240	0.126485
C131	C	0.877078	-0.750272	-0.322258
C132	C	1.377078	-0.250272	0.177742
C133	C	0.937431	-0.682434	-0.396283
C134	C	1.437431	-0.182434	0.103717
H135	H	0.898606	-0.828059	-0.340654
H136	H	1.398606	-0.328059	0.159346
H137	H	0.898633	-0.733318	-0.237553
H138	H	1.398633	-0.233318	0.262447
H139	H	0.789246	-0.739654	-0.333814
H140	H	1.289246	-0.239654	0.166186
H141	H	1.025276	-0.693014	-0.384820
H142	H	1.525276	-0.193014	0.115180
H143	H	0.915789	-0.699404	-0.480961
H144	H	1.415789	-0.199404	0.019039
H145	H	1.640416	-0.352573	-0.907179
H146	H	2.140416	0.147427	-0.407179
H147	H	1.640446	-0.352499	-1.106226
H148	H	2.140446	0.147501	-0.606226
O149	O	1.386040	-0.586222	-0.898513
O150	O	1.886040	-0.086222	-0.398513
C151	C	1.334913	-0.750301	-0.864936
C152	C	1.834913	-0.250301	-0.364936
C153	C	1.408828	-0.682381	-0.925311
C154	C	1.908828	-0.182381	-0.425311
H155	H	1.353295	-0.828059	-0.886597
H156	H	1.853295	-0.328059	-0.386597
H157	H	1.346447	-0.739814	-0.777084
H158	H	1.846447	-0.239814	-0.277084
H159	H	1.250216	-0.733299	-0.886487
H160	H	1.750216	-0.233299	-0.386487
H161	H	1.493554	-0.699342	-0.903849
H162	H	1.993554	-0.199342	-0.403849
H163	H	1.397203	-0.692881	-1.013149
H164	H	1.897203	-0.192881	-0.513149
