data_functionalizedCrystal
_audit_creation_method	'MofGen! by Chris Wilmer'
_symmetry_space_group_name_H-M	'P1'
_symmetry_Int_Tables_number	1
_symmetry_cell_setting	triclinic
loop_
_symmetry_equiv_pos_as_xyz
  x,y,z
_cell_length_a	14.519709
_cell_length_b	14.971486
_cell_length_c	13.448316
_cell_angle_alpha	90.006811
_cell_angle_beta	90.001142
_cell_angle_gamma	83.647137
loop_
_atom_site_label
_atom_site_type_symbol
_atom_site_fract_x
_atom_site_fract_y
_atom_site_fract_z
O1	O	-1.223800	-0.117253	-0.082563
O2	O	-0.955315	-0.131061	-0.082593
O3	O	-1.096754	0.006039	-0.082570
O4	O	-1.082362	-0.254353	-0.082586
O5	O	-1.096736	0.006048	0.082814
O6	O	-0.955297	-0.131052	0.082790
O7	O	-1.223782	-0.117244	0.082821
Cu8	Cu	-1.089538	-0.124147	0.097907
Cu9	Cu	-1.089559	-0.124157	-0.097679
O10	O	-1.082344	-0.254344	0.082798
C11	C	-1.096101	0.039369	0.000121
C12	C	-1.094172	0.138667	0.000120
C13	C	-0.920947	-0.130413	0.000095
C14	C	-0.818567	-0.128485	0.000083
C15	C	-1.258151	-0.117892	0.000131
C16	C	-1.360531	-0.119820	0.000136
C17	C	-0.443675	-0.121386	0.000129
C18	C	-0.547982	-0.123357	0.000116
C19	C	-0.631118	-0.124935	0.000105
C20	C	-0.735431	-0.126907	0.000094
C21	C	-1.082996	-0.287674	0.000104
C22	C	-1.084925	-0.386972	0.000099
N23	N	-1.089530	-0.124140	0.235471
C24	C	-1.177264	0.195845	0.000130
C25	C	-1.175446	0.289146	0.000120
C26	C	-1.090536	0.325266	0.000107
C27	C	-1.007438	0.268080	0.000094
C28	C	-1.009257	0.174781	0.000097
C29	C	-1.003653	0.462545	0.000090
C30	C	-1.001834	0.555850	0.000089
C31	C	-1.169842	0.576909	0.000113
C32	C	-1.171661	0.483610	0.000116
C33	C	-1.088563	0.426431	0.000105
N34	N	-1.089575	-0.124158	-0.235243
C35	C	-1.152179	-0.063457	0.287521
C36	C	-1.152184	-0.063456	0.391625
C37	C	-1.089545	-0.124143	0.443675
C38	C	-1.026890	-0.184829	0.391618
C39	C	-1.026881	-0.184825	0.287516
C40	C	-1.026916	-0.184835	0.608598
C41	C	-1.026926	-0.184841	0.712706
C42	C	-1.152219	-0.063467	0.712706
C43	C	-1.152210	-0.063462	0.608605
C44	C	-1.089556	-0.124149	0.556554
H45	H	-1.243107	0.335698	0.000131
H46	H	-1.203220	-0.014051	0.566225
N47	N	-0.918773	0.404133	0.000055
N48	N	-0.862335	0.407490	-0.069670
H49	H	-0.802391	0.366235	-0.069694
N50	N	-1.258392	0.446712	0.000113
N51	N	-1.278153	0.396991	-0.069598
H52	H	-1.339408	0.370930	-0.069604
H53	H	-0.975884	-0.234239	0.434003
N54	N	-0.962889	-0.246802	0.234329
N55	N	-0.905614	-0.218291	0.176253
H56	H	-0.860416	-0.262061	0.138688
H57	H	-1.237504	0.623470	0.000119
H58	H	-0.938303	0.297496	0.000077
N59	N	-1.264007	0.158969	0.000157
N60	N	-1.338189	0.210036	0.000167
H61	H	-1.399455	0.183996	0.000185
N62	N	-1.216185	-0.001453	0.765884
N63	N	-1.216165	-0.001441	0.858831
H64	H	-1.261330	0.042363	0.896393
N65	N	-1.216151	-0.001464	0.444819
N66	N	-1.273418	-0.029940	0.502929
H67	H	-1.318582	0.013853	0.540508
N68	N	-0.915094	0.592733	0.000092
N69	N	-0.840907	0.541673	0.000085
H70	H	-0.779645	0.567721	0.000093
H71	H	-0.941595	0.128227	0.000088
H72	H	-1.203190	-0.014042	0.245149
H73	H	-0.975918	-0.234258	0.755081
H74	H	-0.975893	-0.234250	0.566221
