data_functionalizedCrystal
_audit_creation_method	'MofGen! by Chris Wilmer'
_symmetry_space_group_name_H-M	'P1'
_symmetry_Int_Tables_number	1
_symmetry_cell_setting	triclinic
loop_
_symmetry_equiv_pos_as_xyz
  x,y,z
_cell_length_a	10.723024
_cell_length_b	11.792241
_cell_length_c	9.798715
_cell_angle_alpha	89.996704
_cell_angle_beta	89.996609
_cell_angle_gamma	84.330643
loop_
_atom_site_label
_atom_site_type_symbol
_atom_site_fract_x
_atom_site_fract_y
_atom_site_fract_z
O1	O	1.656766	0.159192	-0.113483
O2	O	2.156766	0.659192	0.386517
O3	O	1.293573	0.174430	-0.113488
O4	O	1.793573	0.674430	0.386512
O5	O	1.483983	0.001660	-0.113475
O6	O	1.983983	0.501660	0.386525
O7	O	1.466356	0.331962	-0.113495
O8	O	1.966356	0.831962	0.386505
O9	O	1.483969	0.001659	0.113507
O10	O	1.983969	0.501659	0.613507
O11	O	1.293559	0.174430	0.113495
O12	O	1.793559	0.674430	0.613495
O13	O	1.656752	0.159192	0.113499
O14	O	2.156752	0.659192	0.613499
Zn15	Zn	1.475153	0.166811	0.149535
Zn16	Zn	1.975153	0.666811	0.649535
Zn17	Zn	1.475172	0.166811	-0.149523
Zn18	Zn	1.975172	0.666811	0.350477
O19	O	1.466342	0.331962	0.113487
O20	O	1.966342	0.831962	0.613487
C21	C	1.247070	0.173321	0.000003
C22	C	1.747070	0.673321	0.500003
C23	C	1.108524	0.170003	0.000001
C24	C	1.608524	0.670003	0.500001
C25	C	1.482869	-0.040634	0.000015
C26	C	1.982869	0.459366	0.500015
C27	C	1.479555	-0.166655	0.000014
C28	C	1.979555	0.333345	0.500014
C29	C	1.033286	0.266676	-0.000005
C30	C	1.533286	0.766676	0.499995
C31	C	0.890091	0.263249	-0.000007
C32	C	1.390091	0.763249	0.499993
C33	C	1.473461	-0.397380	-0.000009
C34	C	1.973461	0.102620	0.499991
C35	C	1.476847	-0.268988	0.000003
C36	C	1.976847	0.231012	0.500003
C37	C	1.703256	0.160301	0.000006
C38	C	2.203256	0.660301	0.500006
C39	C	1.841801	0.163619	-0.000002
C40	C	2.341801	0.663619	0.499998
C41	C	1.467456	0.374255	-0.000006
C42	C	1.967456	0.874255	0.499994
C43	C	1.470770	0.500276	-0.000014
C44	C	1.970770	1.000276	0.499986
N45	N	1.475150	0.166809	0.353635
N46	N	1.975150	0.666809	0.853635
N47	N	1.475186	0.166803	-0.353623
N48	N	1.975186	0.666803	0.146377
C49	C	1.555098	0.093948	0.421417
C50	C	2.055098	0.593948	0.921417
C51	C	1.555118	0.093944	0.578580
C52	C	2.055118	0.593944	1.078580
H53	H	1.074882	0.351978	-0.000002
H54	H	1.574882	0.851978	0.499998
C55	C	1.382680	0.251064	0.432403
C56	C	1.882680	0.751064	0.932403
H57	H	1.332507	0.296767	0.369497
H58	H	1.832507	0.796767	0.869497
H59	H	1.428079	0.298517	0.488147
H60	H	1.928079	0.798517	0.988147
H61	H	1.330378	0.209876	0.488143
H62	H	1.830378	0.709876	0.988143
H63	H	1.406739	0.229190	0.588096
H64	H	1.906739	0.729190	1.088096
C65	C	0.802767	0.375059	-0.000020
C66	C	1.302767	0.875059	0.499980
H67	H	0.851640	0.438010	-0.000034
H68	H	1.351640	0.938010	0.499966
H69	H	0.751388	0.378081	0.079128
H70	H	1.251388	0.878081	0.579128
H71	H	0.751410	0.378074	-0.079189
H72	H	1.251410	0.878074	0.420811
C73	C	0.929118	0.051805	-0.000001
C74	C	1.429118	0.551805	0.499999
H75	H	0.880245	-0.011146	-0.000009
H76	H	1.380245	0.488854	0.499991
H77	H	0.980487	0.048782	0.079149
H78	H	1.480487	0.548782	0.579149
H79	H	0.980484	0.048790	-0.079168
H80	H	1.480484	0.548790	0.420832
C81	C	1.647546	0.009679	0.342643
C82	C	2.147546	0.509679	0.842643
H83	H	1.635409	0.020741	0.247346
H84	H	2.135409	0.520741	0.747346
H85	H	1.633274	-0.066149	0.366002
H86	H	2.133274	0.433851	0.866002
H87	H	1.730999	0.022471	0.365972
H88	H	2.230999	0.522471	0.865972
C89	C	1.647585	0.009670	0.657315
C90	C	2.147585	0.509670	1.157315
H91	H	1.635462	0.020717	0.752616
H92	H	2.135462	0.520717	1.252616
H93	H	1.731029	0.022449	0.633947
H94	H	2.231029	0.522449	1.133947
H95	H	1.633292	-0.066160	0.633971
H96	H	2.133292	0.433840	1.133971
H97	H	1.066928	0.084701	-0.000028
H98	H	1.566928	0.584701	0.499972
