data_functionalizedCrystal
_audit_creation_method	'MofGen! by Chris Wilmer'
_symmetry_space_group_name_H-M	'P1'
_symmetry_Int_Tables_number	1
_symmetry_cell_setting	triclinic
loop_
_symmetry_equiv_pos_as_xyz
  x,y,z
_cell_length_a	29.019771
_cell_length_b	29.019011
_cell_length_c	29.015668
_cell_angle_alpha	60.004890
_cell_angle_beta	60.009825
_cell_angle_gamma	59.993818
loop_
_atom_site_label
_atom_site_type_symbol
_atom_site_fract_x
_atom_site_fract_y
_atom_site_fract_z
O1	O	0.063866	-0.673289	0.563007
O2	O	0.563866	-0.173289	1.063007
O3	O	0.024059	-0.524205	0.453633
O4	O	0.524059	-0.024205	0.953633
O5	O	0.118464	-0.618532	0.453552
O6	O	0.618464	-0.118532	0.953552
O7	O	-0.030540	-0.578962	0.563088
O8	O	0.469460	-0.078962	1.063088
O9	O	0.149785	-0.587215	0.484789
O10	O	0.649785	-0.087215	0.984789
O11	O	0.055379	-0.492888	0.484869
O12	O	0.555379	0.007112	0.984869
O13	O	0.095186	-0.641972	0.594244
O14	O	0.595186	-0.141972	1.094244
Cu15	Cu	0.078143	-0.564571	0.542409
Cu16	Cu	0.578143	-0.064571	1.042409
Cu17	Cu	0.041102	-0.601606	0.505468
Cu18	Cu	0.541102	-0.101606	1.005468
O19	O	0.000781	-0.547645	0.594325
O20	O	0.500781	-0.047645	1.094325
N21	N	0.104196	-0.538525	0.568394
N22	N	0.604196	-0.038525	1.068394
N23	N	0.015054	-0.627656	0.479483
N24	N	0.515054	-0.127656	0.979483
C25	C	0.143783	-0.499167	0.850823
C26	C	0.643783	0.000833	1.350823
C27	C	0.386758	-0.499111	0.607645
C28	C	0.886758	0.000889	1.107645
C29	C	0.143618	-0.499136	0.607763
C30	C	0.643618	0.000864	1.107763
C31	C	0.143598	-0.256029	0.607770
C32	C	0.643598	0.243971	1.107770
C33	C	0.182748	-0.373362	0.646852
C34	C	0.682748	0.126638	1.146852
C35	C	0.182758	-0.460025	0.646847
C36	C	0.682758	0.039975	1.146847
C37	C	0.204440	-0.438361	0.668500
C38	C	0.704440	0.061639	1.168500
C39	C	0.298958	-0.422064	0.618723
C40	C	0.798958	0.077936	1.118723
C41	C	0.358043	-0.441753	0.599006
C42	C	0.858043	0.058247	1.099006
C43	C	0.358069	-0.537354	0.635461
C44	C	0.858069	-0.037354	1.135461
C45	C	0.298985	-0.517664	0.655180
C46	C	0.798985	-0.017664	1.155180
C47	C	0.196983	-0.343808	0.588767
C48	C	0.696983	0.156192	1.088767
C49	C	0.177262	-0.284720	0.569090
C50	C	0.677262	0.215280	1.069090
C51	C	0.129075	-0.284743	0.665586
C52	C	0.629075	0.215257	1.165586
C53	C	0.148797	-0.343831	0.685263
C54	C	0.648797	0.156169	1.185263
C55	C	0.124666	-0.445760	0.661149
C56	C	0.624666	0.054240	1.161149
C57	C	0.104961	-0.465454	0.641458
C58	C	0.604961	0.034546	1.141458
C59	C	0.201435	-0.513678	0.593176
C60	C	0.701435	-0.013678	1.093176
C61	C	0.221143	-0.493984	0.612860
C62	C	0.721143	0.006016	1.112860
C63	C	0.124738	-0.445777	0.763064
C64	C	0.624738	0.054223	1.263064
C65	C	0.105085	-0.465488	0.822151
C66	C	0.605085	0.034512	1.322151
C67	C	0.201594	-0.513722	0.822097
C68	C	0.701594	-0.013722	1.322097
C69	C	0.221247	-0.494012	0.763009
C70	C	0.721247	0.005988	1.263009
C71	C	0.182817	-0.460038	0.733494
C72	C	0.682817	0.039962	1.233494
C73	C	0.269432	-0.460018	0.646809
C74	C	0.769432	0.039982	1.146809
C75	C	0.121399	-0.520450	0.915812
C76	C	0.621399	-0.020450	1.415812
C77	C	0.451745	-0.520012	0.585655
C78	C	0.951745	-0.020012	1.085655
C79	C	0.121177	-0.520429	0.586502
C80	C	0.621177	-0.020429	1.086502
C81	C	0.121544	-0.191035	0.586883
C82	C	0.621544	0.308965	1.086883
C83	C	-0.110592	-0.666601	0.440035
C84	C	0.389408	-0.166601	0.940035
C85	C	-0.023978	-0.666709	0.440231
C86	C	0.476022	-0.166709	0.940231
C87	C	-0.045598	-0.688342	0.418486
C88	C	0.454402	-0.188342	0.918486
C89	C	-0.061967	-0.782825	0.468184
C90	C	0.438033	-0.282825	0.968184
C91	C	-0.042323	-0.841914	0.487907
C92	C	0.457677	-0.341914	0.987907
C93	C	0.053280	-0.842025	0.451623
C94	C	0.553280	-0.342025	0.951623
C95	C	0.033634	-0.782937	0.431899
C96	C	0.533634	-0.282937	0.931899
C97	C	-0.140218	-0.680832	0.498102
C98	C	0.359782	-0.180832	0.998102
C99	C	-0.199302	-0.661065	0.517690
C100	C	0.300698	-0.161065	1.017690
C101	C	-0.199129	-0.612843	0.421140
C102	C	0.300871	-0.112843	0.921140
C103	C	-0.140045	-0.632610	0.401552
C104	C	0.359955	-0.132610	0.901552
C105	C	-0.038209	-0.608622	0.425941
C106	C	0.461791	-0.108622	0.925941
C107	C	-0.018555	-0.588961	0.445716
C108	C	0.481445	-0.088961	0.945716
C109	C	0.029562	-0.685470	0.494059
C110	C	0.529562	-0.185470	0.994059
C111	C	0.009908	-0.705133	0.474291
C112	C	0.509908	-0.205133	0.974291
C113	C	-0.038037	-0.608631	0.323917
C114	C	0.461963	-0.108631	0.823917
C115	C	-0.018247	-0.588973	0.264830
C116	C	0.481753	-0.088973	0.764830
C117	C	0.029955	-0.685489	0.264893
C118	C	0.529955	-0.185489	0.764893
C119	C	0.010165	-0.705145	0.323981
C120	C	0.510165	-0.205145	0.823981
C121	C	-0.023833	-0.666715	0.353492
C122	C	0.476167	-0.166715	0.853492
C123	C	-0.023990	-0.753339	0.440182
C124	C	0.476010	-0.253339	0.940182
N125	N	0.504925	-0.538487	0.568205
N126	N	1.004925	-0.038487	1.068205
O127	O	0.685342	-0.543679	0.433426
O128	O	1.185342	-0.043679	0.933426
O129	O	0.685533	-0.653395	0.582361
O130	O	1.185533	-0.153395	1.082361
O131	O	0.685457	-0.653145	0.487904
O132	O	1.185457	-0.153145	0.987904
O133	O	0.685418	-0.543929	0.527882
O134	O	1.185418	-0.043929	1.027882
O135	O	0.591592	-0.621921	0.519268
O136	O	1.091592	-0.121921	1.019268
O137	O	0.591667	-0.622171	0.613725
O138	O	1.091667	-0.122171	1.113725
O139	O	0.591477	-0.512455	0.464790
O140	O	1.091477	-0.012455	0.964790
Cu141	Cu	0.583001	-0.564462	0.542121
Cu142	Cu	1.083001	-0.064462	1.042121
Cu143	Cu	0.694008	-0.601388	0.505029
Cu144	Cu	1.194008	-0.101388	1.005029
O145	O	0.591553	-0.512705	0.559246
O146	O	1.091553	-0.012705	1.059246
N147	N	0.772084	-0.627363	0.478939
N148	N	1.272084	-0.127363	0.978939
N149	N	0.104168	-0.137853	0.568408
N150	N	0.604168	0.362147	1.068408
O151	O	-0.030538	0.042663	0.563097
O152	O	0.469462	0.542663	1.063097
O153	O	0.118403	0.042683	0.453379
O154	O	0.618403	0.542683	0.953379
O155	O	0.023918	0.042657	0.453664
O156	O	0.523918	0.542657	0.953664
O157	O	0.063947	0.042689	0.562813
O158	O	0.563947	0.542689	1.062813
O159	O	0.055242	-0.051215	0.484950
O160	O	0.555242	0.448785	0.984950
O161	O	0.149727	-0.051189	0.484666
O162	O	0.649727	0.448811	0.984666
O163	O	0.000787	-0.051210	0.594384
O164	O	0.500787	0.448790	1.094384
Cu165	Cu	0.078117	-0.059771	0.542381
Cu166	Cu	0.578117	0.440229	1.042381
Cu167	Cu	0.041072	0.051244	0.505382
Cu168	Cu	0.541072	0.551244	1.005382
O169	O	0.095272	-0.051184	0.594099
O170	O	0.595272	0.448816	1.094099
N171	N	0.015015	0.129326	0.479356
N172	N	0.515015	0.629326	0.979356
N173	N	0.104469	-0.538576	0.968995
N174	N	0.604469	-0.038576	1.468995
O175	O	0.099171	-0.673268	1.149499
O176	O	0.599171	-0.173268	1.649499
O177	O	-0.010519	-0.524279	1.149527
O178	O	0.489481	-0.024279	1.649527
O179	O	-0.010265	-0.618748	1.149494
O180	O	0.489735	-0.118748	1.649494
O181	O	0.098916	-0.578799	1.149533
O182	O	0.598916	-0.078799	1.649533
O183	O	0.021008	-0.587443	1.055625
O184	O	0.521008	-0.087443	1.555625
O185	O	0.020753	-0.492974	1.055659
O186	O	0.520753	0.007026	1.555659
O187	O	0.130444	-0.641963	1.055630
O188	O	0.630444	-0.141963	1.555630
Cu189	Cu	0.078454	-0.564610	1.047074
Cu190	Cu	0.578454	-0.064610	1.547074
Cu191	Cu	0.041470	-0.601632	1.158084
Cu192	Cu	0.541470	-0.101632	1.658084
O193	O	0.130189	-0.547494	1.055664
O194	O	0.630189	-0.047494	1.555664
N195	N	0.015455	-0.627672	1.236163
N196	N	0.515455	-0.127672	1.736163
C197	C	0.035988	-0.489761	0.454182
C198	C	0.535988	0.010239	0.954182
C199	C	0.152897	-0.606574	0.454082
C200	C	0.652897	-0.106574	0.954082
C201	C	0.083257	-0.676417	0.593694
C202	C	0.583257	-0.176417	1.093694
C203	C	-0.033653	-0.559604	0.593794
C204	C	0.466347	-0.059604	1.093794
C205	C	0.638623	-0.652892	0.616806
C206	C	1.138623	-0.152892	1.116806
C207	C	0.638531	-0.652583	0.499833
C208	C	1.138531	-0.152583	0.999833
C209	C	0.638384	-0.512957	0.430345
C210	C	1.138384	-0.012957	0.930345
C211	C	0.638480	-0.513267	0.547317
C212	C	1.138480	-0.013267	1.047317
C213	C	0.152789	-0.004135	0.453875
C214	C	0.652789	0.495865	0.953875
C215	C	0.035820	-0.004282	0.454266
C216	C	0.535820	0.495718	0.954266
C217	C	-0.033639	-0.004275	0.593849
C218	C	0.466361	0.495725	1.093849
C219	C	0.083370	-0.004245	0.593498
C220	C	0.583370	0.495755	1.093498
C221	C	-0.009989	-0.489856	1.102597
C222	C	0.490011	0.010144	1.602597
C223	C	-0.009667	-0.606839	1.102536
C224	C	0.490333	-0.106839	1.602536
C225	C	0.129914	-0.676386	1.102561
C226	C	0.629914	-0.176386	1.602561
C227	C	0.129599	-0.559396	1.102601
C228	C	0.629599	-0.059396	1.602601
H229	H	0.057789	-0.453866	0.846219
H230	H	0.557789	0.046134	1.346219
O231	O	-0.050623	-0.617020	1.102575
O232	O	0.449377	-0.117020	1.602575
C233	C	-0.098239	-0.610736	1.151167
C234	C	0.401761	-0.110736	1.651167
H235	H	-0.084757	-0.616871	1.185182
H236	H	0.415243	-0.116871	1.685182
H237	H	-0.118255	-0.643601	1.167439
H238	H	0.381745	-0.143601	1.667439
H239	H	-0.130209	-0.566654	1.140172
H240	H	0.369791	-0.066654	1.640172
H241	H	-0.076413	-0.004282	0.628294
H242	H	0.423587	0.495718	1.128294
O243	O	-0.051059	-0.438785	1.102505
O244	O	0.448941	0.061215	1.602505
C245	C	-0.066226	-0.413805	1.053893
C246	C	0.433774	0.086195	1.553893
H247	H	-0.029978	-0.432475	1.019910
H248	H	0.470022	0.067525	1.519910
H249	H	-0.075557	-0.366309	1.037585
H250	H	0.424443	0.133691	1.537585
H251	H	-0.105407	-0.422430	1.064876
H252	H	0.394593	0.077570	1.564876
H253	H	0.164353	-0.719173	1.102545
H254	H	0.664353	-0.219173	1.602545
H255	H	0.638322	-0.478510	0.387573
H256	H	1.138322	0.021490	0.887573
O257	O	-0.084659	-0.549590	0.634902
O258	O	0.415341	-0.049590	1.134902
C259	C	-0.077239	-0.555898	0.682445
C260	C	0.422761	-0.055898	1.182445
H261	H	-0.032220	-0.584133	0.681862
H262	H	0.467780	-0.084133	1.181862
H263	H	-0.108199	-0.575924	0.722537
H264	H	0.391801	-0.075924	1.222537
H265	H	-0.085299	-0.512741	0.681380
H266	H	0.414701	-0.012741	1.181380
H267	H	0.163899	-0.550848	1.102605
H268	H	0.663899	-0.050848	1.602605
H269	H	0.093440	-0.418108	0.739036
H270	H	0.593440	0.081892	1.239036
O271	O	0.025745	-0.438649	0.413251
O272	O	0.525745	0.061351	0.913251
C273	C	-0.029717	-0.403636	0.433735
C274	C	0.470283	0.096364	0.933735
H275	H	-0.056461	-0.430873	0.469983
H276	H	0.443539	0.069127	0.969983
H277	H	-0.048673	-0.376578	0.398355
H278	H	0.451327	0.123422	0.898355
H279	H	-0.028865	-0.375146	0.449431
H280	H	0.471135	0.124854	0.949431
H281	H	0.091761	-0.719242	0.628046
H282	H	0.591761	-0.219242	1.128046
O283	O	0.239002	-0.546728	0.850676
O284	O	0.739002	-0.046728	1.350676
C285	C	0.294478	-0.555071	0.811904
C286	C	0.794478	-0.055071	1.311904
H287	H	0.294342	-0.548466	0.769794
H288	H	0.794342	-0.048466	1.269794
H289	H	0.322556	-0.599882	0.828953
H290	H	0.822556	-0.099882	1.328953
H291	H	0.311396	-0.523614	0.805611
H292	H	0.811396	-0.023614	1.305611
H293	H	0.268542	-0.505632	0.738936
H294	H	0.768542	-0.005632	1.238936
O295	O	0.203740	-0.003922	0.412697
O296	O	0.703740	0.496078	0.912697
C297	C	0.228907	-0.052431	0.397320
C298	C	0.728907	0.447569	0.897320
H299	H	0.210474	-0.086594	0.433507
H300	H	0.710474	0.413406	0.933507
H301	H	0.276409	-0.068534	0.387855
H302	H	0.776409	0.431466	0.887855
H303	H	0.220190	-0.041391	0.358165
H304	H	0.720190	0.458609	0.858165
O305	O	0.025617	-0.004404	0.413406
O306	O	0.525617	0.495596	0.913406
C307	C	0.012336	-0.053028	0.432873
C308	C	0.512336	0.446972	0.932873
H309	H	0.030565	-0.086991	0.467921
H310	H	0.530565	0.413009	0.967921
H311	H	0.031164	-0.069364	0.396538
H312	H	0.531164	0.430636	0.896538
H313	H	-0.035459	-0.042047	0.449902
H314	H	0.464541	0.457953	0.949902
O315	O	0.638647	-0.693568	0.489625
O316	O	1.138647	-0.193568	0.989625
C317	C	0.687290	-0.741145	0.495867
C318	C	1.187290	-0.241145	0.995867
H319	H	0.721259	-0.727609	0.489731
H320	H	1.221259	-0.227609	0.989731
H321	H	0.703594	-0.761160	0.462982
H322	H	1.203594	-0.261160	0.962982
H323	H	0.676353	-0.773137	0.539935
H324	H	1.176353	-0.273137	1.039935
O325	O	0.093696	-0.004271	0.634358
O326	O	0.593696	0.495729	1.134358
C327	C	0.149171	-0.004249	0.613782
C328	C	0.649171	0.495751	1.113782
H329	H	0.175857	-0.022013	0.577546
H330	H	0.675857	0.477987	1.077546
H331	H	0.168184	-0.031506	0.649120
H332	H	0.668184	0.468494	1.149120
H333	H	0.148331	0.040788	0.598042
H334	H	0.648331	0.540788	1.098042
H335	H	0.195693	-0.615009	0.419684
H336	H	0.695693	-0.115009	0.919684
O337	O	0.638588	-0.693973	0.667857
O338	O	1.138588	-0.193973	1.167857
C339	C	0.590009	-0.709174	0.692856
C340	C	1.090009	-0.209174	1.192856
H341	H	0.555991	-0.672937	0.674220
H342	H	1.055991	-0.172937	1.174220
H343	H	0.573734	-0.718518	0.740352
H344	H	1.073734	-0.218518	1.240352
H345	H	0.601020	-0.748359	0.684211
H346	H	1.101020	-0.248359	1.184211
O347	O	-0.227997	-0.674964	0.574119
O348	O	0.272003	-0.174964	1.074119
C349	C	-0.189331	-0.709196	0.603884
C350	C	0.310669	-0.209196	1.103884
H351	H	-0.147189	-0.730716	0.575758
H352	H	0.352811	-0.230716	1.075758
H353	H	-0.206466	-0.742595	0.643290
H354	H	0.293534	-0.242595	1.143290
H355	H	-0.183072	-0.681957	0.616673
H356	H	0.316928	-0.181957	1.116673
H357	H	0.274901	-0.375125	0.611905
H358	H	0.774901	0.124875	1.111905
O359	O	0.638540	-0.472404	0.557561
O360	O	1.138540	0.027596	1.057561
C361	C	0.687188	-0.491816	0.570790
C362	C	1.187188	0.008184	1.070790
H363	H	0.703439	-0.539929	0.586977
H364	H	1.203439	-0.039929	1.086977
H365	H	0.676274	-0.475512	0.604755
H366	H	1.176274	0.024488	1.104755
H367	H	0.721189	-0.475703	0.531339
H368	H	1.221189	0.024297	1.031339
O369	O	0.087356	-0.412691	0.694076
O370	O	0.587356	0.087309	1.194076
C371	C	0.053158	-0.363139	0.664268
C372	C	0.553158	0.136861	1.164268
H373	H	0.075946	-0.354912	0.616993
H374	H	0.575946	0.145088	1.116993
H375	H	0.044225	-0.325923	0.674845
H376	H	0.544225	0.174077	1.174845
H377	H	0.011648	-0.368512	0.676862
H378	H	0.511648	0.131488	1.176862
O379	O	0.048544	-0.451702	0.655371
O380	O	0.548544	0.048298	1.155371
C381	C	0.034294	-0.501356	0.685121
C382	C	0.534294	-0.001356	1.185121
H383	H	0.073237	-0.538475	0.674441
H384	H	0.573237	-0.038475	1.174441
H385	H	0.000017	-0.496076	0.672566
H386	H	0.500017	0.003924	1.172566
H387	H	0.018103	-0.509670	0.732412
H388	H	0.518103	-0.009670	1.232412
O389	O	0.238753	-0.546579	0.560082
O390	O	0.738753	-0.046579	1.060082
C391	C	0.272889	-0.516728	0.510535
C392	C	0.772889	-0.016728	1.010535
H393	H	0.250050	-0.469457	0.502340
H394	H	0.750050	0.030543	1.002340
H395	H	0.281813	-0.527288	0.473309
H396	H	0.781813	-0.027288	0.973309
H397	H	0.314406	-0.529298	0.515891
H398	H	0.814406	-0.029298	1.015891
O399	O	0.277566	-0.507734	0.598908
O400	O	0.777566	-0.007734	1.098908
C401	C	0.291806	-0.458075	0.569184
C402	C	0.791806	0.041925	1.069184
H403	H	0.258472	-0.422584	0.549210
H404	H	0.758472	0.077416	1.049210
H405	H	0.334686	-0.465842	0.534738
H406	H	0.834686	0.034158	1.034738
H407	H	0.293774	-0.445642	0.599569
H408	H	0.793774	0.054358	1.099569
H409	H	0.382132	-0.584293	0.642268
H410	H	0.882132	-0.084293	1.142268
O411	O	0.270390	-0.554607	0.682428
O412	O	0.770390	-0.054607	1.182428
C413	C	0.309146	-0.609710	0.685596
C414	C	0.809146	-0.109710	1.185596
H415	H	0.351249	-0.607457	0.650685
H416	H	0.851249	-0.107457	1.150685
H417	H	0.292068	-0.633962	0.680255
H418	H	0.792068	-0.133962	1.180255
H419	H	0.315461	-0.632268	0.728407
H420	H	0.815461	-0.132268	1.228407
H421	H	0.382082	-0.410845	0.576135
H422	H	0.882082	0.089155	1.076135
H423	H	0.224626	-0.367851	0.557490
H424	H	0.724626	0.132149	1.057490
H425	H	0.101438	-0.260698	0.696864
H426	H	0.601438	0.239302	1.196864
O427	O	0.191062	-0.256069	0.512650
O428	O	0.691062	0.243931	1.012650
C429	C	0.170824	-0.270493	0.488126
C430	C	0.670824	0.229507	0.988126
H431	H	0.165057	-0.313400	0.516136
H432	H	0.665057	0.186600	1.016136
H433	H	0.202467	-0.272499	0.444655
H434	H	0.702467	0.227501	0.944655
H435	H	0.128586	-0.237242	0.483754
H436	H	0.628586	0.262758	0.983754
O437	O	0.134938	-0.372456	0.741709
O438	O	0.634938	0.127544	1.241709
C439	C	0.100728	-0.333721	0.771391
C440	C	0.600728	0.166279	1.271391
H441	H	0.108246	-0.291594	0.743215
H442	H	0.608246	0.208406	1.243215
H443	H	0.111829	-0.350800	0.810812
H444	H	0.611829	0.149200	1.310812
H445	H	0.054449	-0.327446	0.784148
H446	H	0.554449	0.172554	1.284148
H447	H	-0.029822	-0.541673	0.240758
H448	H	0.470178	-0.041673	0.740758
H449	H	-0.065723	-0.577332	0.347941
H450	H	0.434277	-0.077332	0.847941
H451	H	0.057627	-0.716785	0.240872
H452	H	0.557627	-0.216785	0.740872
H453	H	-0.065797	-0.577331	0.398207
H454	H	0.434203	-0.077331	0.898207
O455	O	0.023996	-0.761590	0.352621
O456	O	0.523996	-0.261590	0.852621
C457	C	0.058254	-0.791290	0.313902
C458	C	0.558254	-0.291290	0.813902
H459	H	0.050793	-0.763111	0.271742
H460	H	0.550793	-0.263111	0.771742
H461	H	0.047150	-0.830692	0.330944
H462	H	0.547150	-0.330692	0.830944
H463	H	0.104519	-0.804085	0.307712
H464	H	0.604519	-0.304085	0.807712
H465	H	-0.030145	-0.541661	0.434082
H466	H	0.469855	-0.041661	0.934082
H467	H	0.021495	-0.752433	0.485928
H468	H	0.521495	-0.252433	0.985928
O469	O	0.062538	-0.722852	0.527074
O470	O	0.562538	-0.222852	1.027074
C471	C	0.112118	-0.757052	0.497299
C472	C	0.612118	-0.257052	0.997299
H473	H	0.104254	-0.757622	0.462853
H474	H	0.604254	-0.257622	0.962853
H475	H	0.124517	-0.801860	0.527649
H476	H	0.624517	-0.301860	1.027649
H477	H	0.147672	-0.739333	0.477319
H478	H	0.647672	-0.239333	0.977319
O479	O	0.070600	-0.754381	0.404731
O480	O	0.570600	-0.254381	0.904731
C481	C	0.125674	-0.793178	0.401642
C482	C	0.625674	-0.293178	0.901642
H483	H	0.123367	-0.835278	0.436543
H484	H	0.623367	-0.335278	0.936543
H485	H	0.149907	-0.776139	0.407057
H486	H	0.649907	-0.276139	0.907057
H487	H	0.148283	-0.799490	0.358829
H488	H	0.648283	-0.299490	0.858829
O489	O	0.109254	-0.870844	0.443550
O490	O	0.609254	-0.370844	0.943550
C491	C	0.129764	-0.905025	0.411400
C492	C	0.629764	-0.405025	0.911400
H493	H	0.093298	-0.913828	0.415948
H494	H	0.593298	-0.413828	0.915948
H495	H	0.162394	-0.946599	0.427143
H496	H	0.662394	-0.446599	0.927143
H497	H	0.150184	-0.882288	0.365113
H498	H	0.650184	-0.382288	0.865113
H499	H	-0.073247	-0.865920	0.510699
H500	H	0.426753	-0.365920	1.010699
H501	H	-0.108889	-0.758731	0.474933
H502	H	0.391111	-0.258731	0.974933
H503	H	-0.116238	-0.708516	0.529438
H504	H	0.383762	-0.208516	1.029438
H505	H	-0.115923	-0.621016	0.354266
H506	H	0.384077	-0.121016	0.854266
O507	O	-0.227657	-0.579815	0.383683
O508	O	0.272343	-0.079815	0.883683
C509	C	-0.188838	-0.571516	0.328229
C510	C	0.311162	-0.071516	0.828229
H511	H	-0.146741	-0.578167	0.328420
H512	H	0.353259	-0.078167	0.828420
H513	H	-0.205843	-0.526703	0.300132
H514	H	0.294157	-0.026703	0.800132
H515	H	-0.182539	-0.602968	0.311292
H516	H	0.317461	-0.102968	0.811292
