data_functionalizedCrystal
_audit_creation_method	'MofGen! by Chris Wilmer'
_symmetry_space_group_name_H-M	'P1'
_symmetry_Int_Tables_number	1
_symmetry_cell_setting	triclinic
loop_
_symmetry_equiv_pos_as_xyz
  x,y,z
_cell_length_a	10.723022
_cell_length_b	23.532407
_cell_length_c	9.198806
_cell_angle_alpha	90.007829
_cell_angle_beta	90.003648
_cell_angle_gamma	83.657952
loop_
_atom_site_label
_atom_site_type_symbol
_atom_site_fract_x
_atom_site_fract_y
_atom_site_fract_z
O1	O	1.654701	0.079867	0.120900
O2	O	1.291310	0.087513	0.120906
O3	O	1.483963	0.000829	0.120876
O4	O	1.462047	0.166550	0.120930
O5	O	1.483948	0.000829	-0.120909
O6	O	1.291295	0.087512	-0.120879
O7	O	1.654686	0.079866	-0.120885
Cu8	Cu	1.472989	0.083689	-0.142959
Cu9	Cu	1.473007	0.083690	0.142980
O10	O	1.462032	0.166550	-0.120855
C11	C	1.244820	0.086956	0.000014
C12	C	1.106318	0.085292	0.000015
C13	C	1.483398	-0.020391	-0.000020
C14	C	1.481720	-0.083619	-0.000031
C15	C	0.886682	0.132074	0.000033
C16	C	1.029831	0.133796	0.000032
C17	C	1.585204	-0.482051	0.000046
C18	C	1.583645	-0.541461	0.000058
O19	O	1.679576	-0.577583	0.000109
N20	N	1.469113	-0.564830	0.000059
C21	C	1.356132	-0.528785	0.000063
O22	O	1.258570	-0.554118	0.000067
C23	C	1.357692	-0.469376	0.000063
C24	C	1.472231	-0.446010	0.000047
C25	C	1.699734	-0.458684	0.000032
C26	C	1.701293	-0.399278	0.000019
C27	C	1.588320	-0.363238	0.000019
C28	C	1.473790	-0.386604	0.000033
C29	C	1.244712	-0.433332	0.000078
C30	C	1.246282	-0.373920	0.000078
C31	C	1.360822	-0.350554	0.000062
C32	C	1.362376	-0.291158	0.000020
N33	N	1.476908	-0.267789	0.000019
C34	C	1.589880	-0.303829	0.000018
C35	C	1.352864	-0.653549	0.000067
C36	C	1.351303	-0.712957	0.000057
C37	C	1.578817	-0.725629	0.000054
C38	C	1.580377	-0.666219	0.000054
C39	C	1.467397	-0.630180	0.000066
C40	C	1.593144	-0.179071	-0.000012
C41	C	1.594692	-0.119659	-0.000032
C42	C	1.367179	-0.106992	-0.000021
C43	C	1.365630	-0.166399	-0.000009
C44	C	1.478623	-0.202438	0.000001
O45	O	1.266495	-0.255001	-0.000026
O46	O	1.687426	-0.278488	0.000034
C47	C	1.701176	0.080423	0.000010
C48	C	1.839678	0.082087	0.000018
C49	C	1.462598	0.187770	0.000044
C50	C	1.464276	0.250998	0.000065
N51	N	1.472985	0.083689	-0.344073
C52	C	1.553880	0.047132	-0.416283
C53	C	1.553899	0.047130	-0.583695
N54	N	1.473020	0.083686	0.344094
H55	H	0.820946	0.173596	0.000056
H56	H	1.275200	-0.077638	-0.000026
N57	N	1.055560	0.031595	-0.000034
N58	N	0.986362	0.019203	-0.101964
H59	H	0.950507	-0.018721	-0.102004
H60	H	1.070310	0.176595	0.000037
H61	H	0.905414	0.040565	0.000013
N62	N	1.711708	-0.095802	-0.000059
N63	N	1.812565	-0.127992	-0.000059
H64	H	1.895207	-0.111145	-0.000078
N65	N	1.694231	-0.762441	0.000085
N66	N	1.796492	-0.741577	0.000090
H67	H	1.877999	-0.767576	0.000113
H68	H	1.685154	-0.208407	0.000001
N69	N	1.640798	0.007865	-0.661568
N70	N	1.756170	0.008970	-0.644659
H71	H	1.817544	-0.018763	-0.699661
N72	N	1.818304	-0.375425	0.000008
N73	N	1.919154	-0.407620	0.000014
H74	H	2.001801	-0.390778	0.000011
N75	N	1.234292	-0.736811	0.000040
N76	N	1.133439	-0.704619	0.000031
H77	H	1.050794	-0.721463	0.000024
N78	N	1.386147	0.122961	-0.578028
N79	N	1.425588	0.158385	-0.493054
H80	H	1.364235	0.186124	-0.438043
N81	N	1.815155	-0.495485	0.000042
N82	N	1.917396	-0.474603	0.000034
H83	H	1.998921	-0.500589	0.000033
N84	N	1.697386	-0.642364	0.000031
N85	N	1.798240	-0.674556	0.000019
H86	H	1.880884	-0.657712	0.000003
N87	N	1.237437	-0.616746	0.000075
N88	N	1.135193	-0.637624	0.000078
H89	H	1.053671	-0.611635	0.000087
H90	H	1.151442	-0.452346	0.000099
N91	N	1.386097	0.122943	-0.421986
N92	N	1.308817	0.104620	-0.506964
H93	H	1.247448	0.132343	-0.561988
H94	H	1.154277	-0.344579	0.000090
H95	H	1.272362	-0.185424	-0.000036
H96	H	1.623119	0.015834	-0.354167
