data_functionalizedCrystal
_audit_creation_method	'MofGen! by Chris Wilmer'
_symmetry_space_group_name_H-M	'P1'
_symmetry_Int_Tables_number	1
_symmetry_cell_setting	triclinic
loop_
_symmetry_equiv_pos_as_xyz
  x,y,z
_cell_length_a	16.625547
_cell_length_b	18.101397
_cell_length_c	16.625539
_cell_angle_alpha	90.029990
_cell_angle_beta	90.021309
_cell_angle_gamma	90.020402
loop_
_atom_site_label
_atom_site_type_symbol
_atom_site_fract_x
_atom_site_fract_y
_atom_site_fract_z
Zn1	Zn	1.232664	-0.294843	0.455981
Zn2	Zn	1.232580	-0.418688	0.321140
Zn3	Zn	1.097834	-0.294865	0.321151
Zn4	Zn	1.097801	-0.418647	0.455920
O5	O	1.165220	-0.356761	0.388548
O6	O	1.345485	-0.311279	0.438115
O7	O	1.214684	-0.402289	0.208309
O8	O	1.115768	-0.191229	0.339067
O9	O	1.345423	-0.402268	0.339048
O10	O	1.214827	-0.191213	0.438126
O11	O	1.115687	-0.311316	0.208317
O12	O	0.984997	-0.311277	0.339008
O13	O	1.115712	-0.402198	0.568760
O14	O	0.984973	-0.402219	0.438022
O15	O	1.214795	-0.311240	0.568805
O16	O	1.214652	-0.522316	0.338988
O17	O	1.115631	-0.522286	0.438010
C18	C	0.955729	-0.356746	0.388510
C19	C	0.866108	-0.356758	0.388513
C20	C	1.165151	-0.549171	0.388509
C21	C	1.165195	-0.631485	0.388519
C22	C	0.793325	-0.356760	0.388523
C23	C	0.702017	-0.356763	0.388543
C24	C	0.629240	-0.356770	0.388563
C25	C	0.537926	-0.356775	0.388583
C26	C	1.165298	-0.930576	0.388593
C27	C	1.227426	-0.899239	0.326124
C28	C	1.227641	-0.813621	0.326286
C29	C	1.165247	-0.782194	0.388556
C30	C	1.188278	-0.813202	0.473547
C31	C	1.188759	-0.898847	0.473207
C32	C	1.079973	-0.899085	0.366805
C33	C	1.080394	-0.813436	0.364908
C34	C	1.165216	-0.698334	0.388540
C35	C	1.165330	-1.014436	0.388614
C36	C	1.375528	-0.356776	0.388587
C37	C	1.465150	-0.356782	0.388603
C38	C	1.165259	-0.356712	0.598857
C39	C	1.165276	-0.356691	0.688478
C40	C	1.165311	-0.163599	0.388605
C41	C	1.165350	-0.081285	0.388629
C42	C	1.165227	-0.356756	0.179057
C43	C	1.165366	-0.356568	0.089437
C44	C	1.165289	-0.356675	0.761261
C45	C	1.165308	-0.356647	0.852569
C46	C	1.165327	-0.356621	0.925346
C47	C	1.165347	-0.356594	1.016660
H48	H	1.213233	-0.792658	0.263266
H49	H	1.033683	-0.919351	0.412304
N50	N	1.019205	-0.786603	0.417809
N51	N	1.037219	-0.743831	0.474054
H52	H	0.994006	-0.724881	0.511422
H53	H	1.063028	-0.793176	0.302361
H54	H	1.144410	-0.792843	0.521344
H55	H	1.249948	-0.791695	0.492314
H56	H	1.059020	-0.920745	0.305904
H57	H	1.251127	-0.918766	0.491662
N58	N	1.209585	-0.925129	0.246822
N59	N	1.194108	-0.880013	0.192073
H60	H	1.181505	-0.898300	0.136064
H61	H	1.290845	-0.793077	0.340701
N62	N	1.306278	-0.926175	0.344004
N63	N	1.316917	-0.968350	0.402555
H64	H	1.372606	-0.987376	0.415186
N65	N	1.134450	-0.924843	0.533586
N66	N	1.096319	-0.879731	0.575844
H67	H	1.057965	-0.898087	0.618488
