data_functionalizedCrystal
_audit_creation_method	'MofGen! by Chris Wilmer'
_symmetry_space_group_name_H-M	'P1'
_symmetry_Int_Tables_number	1
_symmetry_cell_setting	triclinic
loop_
_symmetry_equiv_pos_as_xyz
  x,y,z
_cell_length_a	34.490303
_cell_length_b	34.489386
_cell_length_c	34.485816
_cell_angle_alpha	60.004462
_cell_angle_beta	60.008900
_cell_angle_gamma	59.994399
loop_
_atom_site_label
_atom_site_type_symbol
_atom_site_fract_x
_atom_site_fract_y
_atom_site_fract_z
O1	O	0.053846	-0.566517	0.473678
O2	O	0.020329	-0.441078	0.381663
O3	O	0.099768	-0.520436	0.381578
O4	O	-0.025592	-0.487159	0.473762
O5	O	0.126127	-0.494082	0.407849
O6	O	0.046689	-0.414724	0.407933
O7	O	0.080206	-0.540163	0.499949
Zn8	Zn	0.067632	-0.473259	0.458112
Zn9	Zn	0.032903	-0.507982	0.423499
O10	O	0.000767	-0.460805	0.500033
N11	N	0.091336	-0.449565	0.481736
N12	N	0.009203	-0.531680	0.399875
C13	C	0.142510	-0.268211	0.532817
C14	C	0.142641	-0.398441	0.662987
C15	C	0.142524	-0.398421	0.532817
C16	C	0.272762	-0.398394	0.532723
C17	C	0.156853	-0.311177	0.547124
C18	C	0.156928	-0.384109	0.620020
C19	C	0.229794	-0.384081	0.547073
C20	C	0.156863	-0.384097	0.547124
C21	C	0.124253	-0.213522	0.514606
C22	C	0.124277	-0.416652	0.514606
C23	C	0.175110	-0.365866	0.565335
C24	C	0.352285	-0.384669	0.490824
C25	C	0.401998	-0.401229	0.474223
C26	C	0.402027	-0.481671	0.504898
C27	C	0.352316	-0.465109	0.521500
C28	C	0.136220	-0.188652	0.465734
C29	C	0.119621	-0.138936	0.449181
C30	C	0.079092	-0.138961	0.530374
C31	C	0.095691	-0.188678	0.546927
C32	C	0.075398	-0.404656	0.526651
C33	C	0.058814	-0.421229	0.510091
C34	C	0.139984	-0.461794	0.469452
C35	C	0.156570	-0.445221	0.486007
C36	C	0.075593	-0.404694	0.742565
C37	C	0.059066	-0.421281	0.792280
C38	C	0.140274	-0.461856	0.792215
C39	C	0.156800	-0.445269	0.742499
C40	C	0.124458	-0.416687	0.717675
C41	C	0.327446	-0.416608	0.514460
C42	C	-0.023585	-0.564792	0.161919
C43	C	-0.023910	-0.769260	0.366530
C44	C	-0.023880	-0.564780	0.366623
C45	C	-0.228325	-0.564561	0.366222
C46	C	-0.129610	-0.597564	0.333467
C47	C	-0.056729	-0.597644	0.333613
C48	C	-0.074925	-0.615849	0.315324
C49	C	-0.088689	-0.695351	0.357144
C50	C	-0.072155	-0.745068	0.373736
C51	C	0.008283	-0.745150	0.343188
C52	C	-0.008252	-0.695435	0.326596
C53	C	-0.154529	-0.609541	0.382326
C54	C	-0.204241	-0.592916	0.398818
C55	C	-0.204114	-0.552341	0.317588
C56	C	-0.154401	-0.568966	0.301096
C57	C	-0.068707	-0.548770	0.321590
C58	C	-0.052166	-0.532225	0.338221
C59	C	-0.011669	-0.613425	0.378886
C60	C	-0.028210	-0.629972	0.362261
C61	C	-0.068581	-0.548777	0.235758
C62	C	-0.051939	-0.532234	0.186043
C63	C	-0.011379	-0.613438	0.186090
C64	C	-0.028020	-0.629981	0.235806
C65	C	-0.056622	-0.597649	0.260639
C66	C	-0.056739	-0.670537	0.333576
C67	C	-0.005614	-0.545951	0.107238
C68	C	-0.006360	-0.823943	0.385033
C69	C	-0.005995	-0.545937	0.384582
C70	C	-0.283006	-0.545971	0.383725
N71	N	0.426163	-0.449489	0.481488
O72	O	0.588601	-0.457377	0.364497
O73	O	0.588789	-0.549696	0.489801
O74	O	0.588709	-0.549485	0.410335
O75	O	0.588681	-0.457588	0.443963
O76	O	0.509731	-0.523223	0.436741
O77	O	0.509811	-0.523434	0.516207
O78	O	0.509624	-0.431115	0.390903
Zn79	Zn	0.497178	-0.473105	0.457747
Zn80	Zn	0.601234	-0.507706	0.422956
O81	O	0.509704	-0.431326	0.470368
N82	N	0.672250	-0.531322	0.399211
N83	N	0.091303	-0.114798	0.481730
O84	O	-0.025603	0.047729	0.473733
O85	O	0.099703	0.047764	0.381394
O86	O	0.020199	0.047731	0.381655
O87	O	0.053901	0.047761	0.473472
O88	O	0.046564	-0.031252	0.407974
O89	O	0.126068	-0.031219	0.407713
O90	O	0.000762	-0.031254	0.500052
Zn91	Zn	0.067601	-0.043777	0.458061
Zn92	Zn	0.032864	0.060287	0.423385
O93	O	0.080266	-0.031222	0.499791
N94	N	0.009156	0.131307	0.399717
N95	N	0.091635	-0.449614	0.816396
O96	O	0.083664	-0.566502	0.978913
O97	O	-0.008637	-0.441152	0.978954
O98	O	-0.008421	-0.520640	0.978930
O99	O	0.083448	-0.487013	0.978936
O100	O	0.017877	-0.494296	0.899950
O101	O	0.017661	-0.414807	0.899974
O102	O	0.109961	-0.540157	0.899933
Zn103	Zn	0.067986	-0.473299	0.887414
Zn104	Zn	0.033338	-0.508010	0.991473
O105	O	0.109746	-0.460669	0.899956
N106	N	0.009689	-0.531700	1.062491
C107	C	0.030367	-0.412095	0.382120
C108	C	0.128741	-0.510370	0.382016
C109	C	0.070168	-0.569147	0.499490
C110	C	-0.028207	-0.470871	0.499595
C111	C	0.549323	-0.549278	0.518791
C112	C	0.549225	-0.549017	0.420381
C113	C	0.549087	-0.431532	0.361914
C114	C	0.549188	-0.431794	0.460322
C115	C	0.128638	0.008374	0.381806
C116	C	0.030215	0.008236	0.382161
C117	C	-0.028206	0.008233	0.499608
C118	C	0.070250	0.008272	0.499285
C119	C	-0.008199	-0.412187	0.939469
C120	C	-0.007927	-0.510619	0.939425
C121	C	0.109523	-0.569121	0.939417
C122	C	0.109257	-0.470684	0.939444
H123	H	0.019274	-0.411508	0.812539
O124	O	0.021692	0.008161	0.347726
C125	C	0.044499	-0.032788	0.295957
C126	C	0.054206	-0.032753	0.334946
H127	H	0.070774	-0.065868	0.285620
H128	H	0.048751	0.000245	0.263518
H129	H	0.006759	-0.032779	0.309896
H130	H	0.091944	-0.032779	0.321052
H131	H	0.049923	-0.065783	0.367378
H132	H	0.549027	-0.402547	0.325928
O133	O	0.549156	-0.397397	0.468988
C134	C	0.549233	-0.375683	0.525382
C135	C	0.549258	-0.414675	0.515635
H136	H	0.549325	-0.389641	0.563092
H137	H	0.516144	-0.343286	0.521205
H138	H	0.582248	-0.365264	0.499046
H139	H	0.516265	-0.425134	0.541963
H140	H	0.582369	-0.447046	0.519796
H141	H	-0.036776	-0.517804	0.939391
O142	O	0.144038	-0.612101	0.939421
C143	C	0.166131	-0.690321	0.939361
C144	C	0.126998	-0.641673	0.939370
H145	H	0.152373	-0.714240	0.939309
H146	H	0.176498	-0.707415	0.972419
H147	H	0.198511	-0.685308	0.906313
H148	H	0.094594	-0.646644	0.972396
H149	H	0.116672	-0.624596	0.906290
H150	H	0.196371	-0.454985	0.476195
O151	O	0.143646	-0.462017	0.939418
C152	C	0.165356	-0.405605	0.939454
C153	C	0.126372	-0.415353	0.939473
H154	H	0.151401	-0.367881	0.939509
H155	H	0.197759	-0.409815	0.906386
H156	H	0.175760	-0.431920	0.972492
H157	H	0.115928	-0.389047	0.906458
H158	H	0.093995	-0.411160	0.972563
H159	H	0.049253	-0.381417	0.722357
O160	O	0.171498	0.008671	0.347179
C161	C	0.249608	0.009060	0.324941
C162	C	0.201088	0.008735	0.364194
H163	H	0.273548	0.009102	0.338686
H164	H	0.244435	0.042195	0.292661
H165	H	0.266773	-0.023913	0.314424
H166	H	0.183897	0.041685	0.374750
H167	H	0.206292	-0.024421	0.396448
H168	H	-0.037176	-0.376187	0.939482
O169	O	0.171695	-0.518749	0.347463
C170	C	0.241445	-0.495726	0.295547
C171	C	0.192805	-0.486178	0.334669
H172	H	0.258531	-0.469404	0.285198
H173	H	0.236482	-0.491417	0.263146
H174	H	0.265347	-0.533453	0.309361
H175	H	0.168877	-0.448452	0.320899
H176	H	0.197804	-0.490518	0.367063
O177	O	0.171755	-0.489630	0.816256
C178	C	0.254047	-0.528106	0.810945
C179	C	0.218448	-0.496650	0.783660
H180	H	0.291806	-0.533783	0.784603
H181	H	0.248376	-0.563892	0.834201
H182	H	0.248310	-0.509900	0.834235
H183	H	0.224164	-0.514814	0.760344
H184	H	0.224127	-0.460866	0.760434
O185	O	-0.096425	-0.517303	0.293786
C186	C	-0.134827	-0.435015	0.255185
C187	C	-0.103443	-0.470599	0.286687
H188	H	-0.140503	-0.397248	0.249427
H189	H	-0.170616	-0.440667	0.273333
H190	H	-0.116567	-0.440790	0.219441
H191	H	-0.121662	-0.464846	0.322436
H192	H	-0.067656	-0.464938	0.268501
H193	H	0.196592	-0.455039	0.722237
H194	H	-0.064213	-0.463781	0.528541
O195	O	-0.071172	0.008251	0.534130
C196	C	-0.149400	0.008213	0.556252
C197	C	-0.100765	0.008198	0.517112
H198	H	-0.173336	0.008160	0.542510
H199	H	-0.166478	0.041280	0.566595
H200	H	-0.144376	-0.024828	0.588643
H201	H	-0.105747	0.041217	0.484695
H202	H	-0.083704	-0.024891	0.506809
O203	O	0.078946	0.008252	0.533658
C204	C	0.135389	0.008289	0.555331
C205	C	0.125607	0.008306	0.516364
H206	H	0.173110	0.008343	0.541360
H207	H	0.131200	-0.024779	0.587742
H208	H	0.109080	0.041329	0.565731
H209	H	0.151907	-0.024712	0.505924
H210	H	0.129780	0.041396	0.483979
O211	O	0.078779	-0.612168	0.533911
C212	C	0.135149	-0.690334	0.555750
C213	C	0.125457	-0.641638	0.516724
H214	H	0.172891	-0.714170	0.541872
H215	H	0.108866	-0.707485	0.566144
H216	H	0.130873	-0.685381	0.588142
H217	H	0.129739	-0.646549	0.484306
H218	H	0.151739	-0.624503	0.506370
H219	H	0.549371	-0.578259	0.554780
O220	O	0.043964	-0.376889	0.554407
C221	C	-0.038298	-0.338420	0.592987
C222	C	-0.002751	-0.369861	0.561540
H223	H	-0.076075	-0.332737	0.598772
H224	H	-0.032622	-0.302636	0.574778
H225	H	-0.032509	-0.356642	0.628722
H226	H	-0.008519	-0.351681	0.525800
H227	H	-0.008436	-0.405644	0.579786
H228	H	0.549237	-0.577886	0.413185
H229	H	0.166284	-0.485062	0.446169
O230	O	0.011337	-0.409522	0.521709
C231	C	-0.054530	-0.371297	0.493205
C232	C	-0.000759	-0.384516	0.479981
H233	H	-0.064325	-0.351086	0.459475
H234	H	-0.074785	-0.348009	0.516470
H235	H	-0.064282	-0.405046	0.513462
H236	H	0.009037	-0.350793	0.459706
H237	H	0.019466	-0.407823	0.456738
O238	O	0.328262	-0.496198	0.544433
C239	C	0.333545	-0.577739	0.573129
C240	C	0.360844	-0.542579	0.547140
H241	H	0.359876	-0.615246	0.575334
H242	H	0.310259	-0.567800	0.552824
H243	H	0.310284	-0.576200	0.610502
H244	H	0.384131	-0.544099	0.509767
H245	H	0.384100	-0.552529	0.567481
H246	H	0.422274	-0.521162	0.510626
H247	H	0.332037	-0.345175	0.485091
O248	O	0.426109	-0.370174	0.451188
C249	C	0.441243	-0.301237	0.384193
C250	C	0.413916	-0.336379	0.410229
H251	H	0.431388	-0.273899	0.351077
H252	H	0.481052	-0.321378	0.373497
H253	H	0.431496	-0.282398	0.408753
H254	H	0.423624	-0.355228	0.385696
H255	H	0.374115	-0.316213	0.420932
O256	O	0.163942	-0.212710	0.434273
C257	C	0.202407	-0.207438	0.351992
C258	C	0.171000	-0.180131	0.387569
H259	H	0.208132	-0.181109	0.314224
H260	H	0.184202	-0.230708	0.357700
H261	H	0.238171	-0.230717	0.357719
H262	H	0.135231	-0.156825	0.381863
H263	H	0.189242	-0.156890	0.381852
O264	O	0.051407	-0.114880	0.561816
C265	C	0.045128	-0.099662	0.626099
C266	C	0.076528	-0.126969	0.590522
H267	H	0.065430	-0.109418	0.649311
H268	H	0.011413	-0.109463	0.649433
H269	H	0.035305	-0.059858	0.605865
H270	H	0.086387	-0.166779	0.610718
H271	H	0.110221	-0.117128	0.567189
O272	O	0.084122	-0.212908	0.594385
C273	C	0.091815	-0.289509	0.655873
C274	C	0.104927	-0.262126	0.602113
H275	H	0.108639	-0.329307	0.662138
H276	H	0.051572	-0.279802	0.672711
H277	H	0.105556	-0.279685	0.672573
H278	H	0.091218	-0.271936	0.585372
H279	H	0.145173	-0.271836	0.585310
O280	O	-0.063646	-0.484752	0.161900
C281	C	-0.126626	-0.410252	0.146613
C282	C	-0.113432	-0.464019	0.173976
H283	H	-0.166878	-0.393472	0.156374
H284	H	-0.109858	-0.403949	0.106809
H285	H	-0.112904	-0.393525	0.156425
H286	H	-0.127151	-0.480782	0.164204
H287	H	-0.130193	-0.470289	0.213773
O288	O	0.016410	-0.644911	0.162045
C289	C	0.054849	-0.727203	0.167346
C290	C	0.023383	-0.691611	0.194636
H291	H	0.060489	-0.764967	0.193684
H292	H	0.090648	-0.721557	0.144139
H293	H	0.036676	-0.721428	0.144006
H294	H	0.041515	-0.697364	0.218002
H295	H	-0.012414	-0.697265	0.217813
H296	H	0.129365	-0.118686	0.409385
H297	H	-0.091873	-0.522445	0.255974
H298	H	-0.018278	-0.669778	0.256062
H299	H	0.011557	-0.639751	0.402207
O300	O	-0.063771	-0.484763	0.326606
C301	C	-0.056209	-0.423288	0.334178
C302	C	-0.043039	-0.477048	0.347376
H303	H	-0.039445	-0.417033	0.350956
H304	H	-0.096459	-0.406468	0.347850
H305	H	-0.042445	-0.406561	0.293923
H306	H	-0.056772	-0.493816	0.387626
H307	H	-0.002787	-0.493833	0.333670
O308	O	-0.016595	-0.677457	0.374003
C309	C	-0.020505	-0.751899	0.437006
C310	C	-0.033681	-0.698134	0.423787
H311	H	-0.034321	-0.768632	0.477255
H312	H	0.019748	-0.768724	0.423376
H313	H	-0.037217	-0.758140	0.420164
H314	H	-0.017001	-0.691851	0.440624
H315	H	-0.073938	-0.681336	0.437407
O316	O	0.022848	-0.671402	0.303730
C317	C	0.104381	-0.676733	0.275158
C318	C	0.069211	-0.704008	0.301073
H319	H	0.141874	-0.703083	0.272993
H320	H	0.094417	-0.653466	0.295491
H321	H	0.102888	-0.653453	0.237770
H322	H	0.070685	-0.727314	0.338461
H323	H	0.079186	-0.727245	0.280703
O324	O	0.055365	-0.769413	0.336470
C325	C	0.116489	-0.846042	0.348470
C326	C	0.063157	-0.818625	0.356121
H327	H	0.122807	-0.885835	0.364344
H328	H	0.128822	-0.836319	0.366560
H329	H	0.137329	-0.836265	0.308806
H330	H	0.042280	-0.828387	0.395773
H331	H	0.050862	-0.828351	0.337999
O332	O	-0.103266	-0.769100	0.396695
C333	C	-0.184810	-0.763774	0.425349
C334	C	-0.149624	-0.736497	0.399314
H335	H	-0.222297	-0.737426	0.427466
H336	H	-0.183340	-0.786996	0.462753
H337	H	-0.174833	-0.787099	0.405071
H338	H	-0.159578	-0.713146	0.419552
H339	H	-0.151100	-0.713304	0.361908
H340	H	-0.128170	-0.675084	0.362831
O341	O	-0.130520	-0.637298	0.413833
C342	C	-0.135894	-0.675808	0.496145
C343	C	-0.163142	-0.644360	0.460514
H344	H	-0.162257	-0.681535	0.533893
H345	H	-0.112629	-0.657631	0.490500
H346	H	-0.112616	-0.711571	0.490415
H347	H	-0.186445	-0.608591	0.466222
H348	H	-0.186377	-0.662574	0.466167
H349	H	-0.224299	-0.529059	0.291228
O350	O	-0.228524	-0.604488	0.446267
C351	C	-0.305167	-0.596886	0.507673
C352	C	-0.277728	-0.583735	0.453926
H353	H	-0.344953	-0.580123	0.513883
H354	H	-0.295457	-0.583165	0.524492
H355	H	-0.295400	-0.637141	0.524436
H356	H	-0.287480	-0.543486	0.437123
H357	H	-0.287440	-0.597490	0.437142
O358	O	-0.130212	-0.557391	0.253627
C359	C	-0.114915	-0.561175	0.179132
C360	C	-0.142330	-0.574322	0.232885
H361	H	-0.124710	-0.574849	0.162345
H362	H	-0.075121	-0.577984	0.172879
H363	H	-0.124644	-0.520922	0.162374
H364	H	-0.132641	-0.614568	0.249679
H365	H	-0.182118	-0.557480	0.239104
H366	H	0.023205	-0.376060	0.353221
