data_functionalizedCrystal
_audit_creation_method	'MofGen! by Chris Wilmer'
_symmetry_space_group_name_H-M	'P1'
_symmetry_Int_Tables_number	1
_symmetry_cell_setting	triclinic
loop_
_symmetry_equiv_pos_as_xyz
  x,y,z
_cell_length_a	19.805407
_cell_length_b	13.897448
_cell_length_c	19.805399
_cell_angle_alpha	89.973574
_cell_angle_beta	89.983114
_cell_angle_gamma	90.017692
loop_
_atom_site_label
_atom_site_type_symbol
_atom_site_fract_x
_atom_site_fract_y
_atom_site_fract_z
Zn1	Zn	1.034759	-0.384024	-0.382732
Zn2	Zn	1.534759	0.115976	0.117268
Zn3	Zn	1.034696	-0.545334	-0.269549
Zn4	Zn	1.534696	-0.045334	0.230451
Zn5	Zn	0.921579	-0.384054	-0.269556
Zn6	Zn	1.421579	0.115946	0.230444
Zn7	Zn	0.921554	-0.545279	-0.382695
Zn8	Zn	1.421554	-0.045279	0.117305
O9	O	0.978147	-0.464673	-0.326133
O10	O	1.478147	0.035327	0.173867
O11	O	1.129467	-0.405432	-0.367730
O12	O	1.629467	0.094568	0.132270
O13	O	1.019675	-0.523976	-0.174833
O14	O	1.519675	-0.023976	0.325167
O15	O	0.936629	-0.249069	-0.284588
O16	O	1.436629	0.250931	0.215412
O17	O	1.129421	-0.523946	-0.284575
O18	O	1.629421	-0.023946	0.215425
O19	O	1.019782	-0.249046	-0.367737
O20	O	1.519782	0.250954	0.132263
O21	O	0.936568	-0.405484	-0.174839
O22	O	1.436568	0.094516	0.325161
O23	O	0.826859	-0.405431	-0.284552
O24	O	1.326859	0.094569	0.215448
O25	O	0.936587	-0.523852	-0.477417
O26	O	1.436587	-0.023852	0.022583
O27	O	0.826841	-0.523882	-0.367675
O28	O	1.326841	-0.023882	0.132325
O29	O	1.019758	-0.405379	-0.477443
O30	O	1.519758	0.094621	0.022557
O31	O	1.019651	-0.680308	-0.284539
O32	O	1.519651	-0.180308	0.215461
O33	O	0.936526	-0.680268	-0.367668
O34	O	1.436526	-0.180268	0.132332
C35	C	0.802291	-0.464654	-0.326111
C36	C	1.302291	0.035346	0.173889
C37	C	0.727059	-0.464670	-0.326118
C38	C	1.227059	0.035330	0.173882
C39	C	0.691723	-0.526440	-0.369330
C40	C	1.191723	-0.026440	0.130670
C41	C	0.621035	-0.526441	-0.369339
C42	C	1.121035	-0.026441	0.130661
C43	C	0.585683	-0.464677	-0.326133
C44	C	1.085683	0.035323	0.173867
C45	C	0.621024	-0.402900	-0.282919
C46	C	1.121024	0.097100	0.217081
C47	C	0.691711	-0.402894	-0.282913
C48	C	1.191711	0.097106	0.217087
C49	C	0.335951	-0.402921	-0.282941
C50	C	0.835951	0.097079	0.217059
C51	C	0.265259	-0.402934	-0.282949
C52	C	0.765259	0.097066	0.217051
C53	C	0.265274	-0.526469	-0.369367
C54	C	0.765274	-0.026469	0.130633
C55	C	0.335961	-0.526463	-0.369362
C56	C	0.835961	-0.026463	0.130638
C57	C	0.371296	-0.464683	-0.326151
C58	C	0.871296	0.035317	0.173849
C59	C	0.447944	-0.464680	-0.326142
C60	C	0.947944	0.035320	0.173858
C61	C	0.509036	-0.464684	-0.326138
C62	C	1.009036	0.035316	0.173862
C63	C	0.978098	-0.715287	-0.326113
C64	C	1.478098	-0.215287	0.173887
C65	C	0.978138	-0.822501	-0.326128
C66	C	1.478138	-0.322501	0.173872
C67	C	0.978209	-1.018796	-0.326170
C68	C	1.478209	-0.518796	0.173830
C69	C	0.978168	-0.909564	-0.326149
C70	C	1.478168	-0.409564	0.173851
C71	C	1.154690	-0.464692	-0.326155
C72	C	1.654690	0.035308	0.173845
C73	C	1.229922	-0.464700	-0.326165
C74	C	1.729922	0.035300	0.173835
C75	C	0.978177	-0.464606	-0.502676
C76	C	1.478177	0.035394	-0.002676
C77	C	0.978189	-0.464577	-0.577908
C78	C	1.478189	0.035423	-0.077908
C79	C	0.978215	-0.213080	-0.326167
C80	C	1.478215	0.286920	0.173833
C81	C	0.978244	-0.105866	-0.326182
C82	C	1.478244	0.394134	0.173818
C83	C	0.934928	-0.402873	-0.613254
C84	C	1.434928	0.097127	-0.113254
C85	C	0.934937	-0.402854	-0.683943
C86	C	1.434937	0.097146	-0.183943
C87	C	0.978212	-0.464536	-0.719283
C88	C	1.478212	0.035464	-0.219283
C89	C	1.021475	-0.526247	-0.683932
C90	C	1.521475	-0.026247	-0.183932
C91	C	1.021462	-0.526269	-0.613245
C92	C	1.521462	-0.026269	-0.113245
C93	C	1.021529	-0.526156	-0.969005
C94	C	1.521529	-0.026156	-0.469005
C95	C	1.021540	-0.526127	-1.039697
C96	C	1.521540	-0.026127	-0.539697
C97	C	0.935004	-0.402741	-1.039704
C98	C	1.435004	0.097259	-0.539704
C99	C	0.934991	-0.402764	-0.969016
C100	C	1.434991	0.097236	-0.469016
C101	C	0.978251	-0.464478	-0.933671
C102	C	1.478251	0.035522	-0.433671
C103	C	0.978240	-0.464499	-0.857022
C104	C	1.478240	0.035501	-0.357022
C105	C	0.978227	-0.464510	-0.795931
C106	C	1.478227	0.035490	-0.295931
C107	C	0.978156	-0.464670	-0.150277
C108	C	1.478156	0.035330	0.349723
C109	C	0.978275	-0.464427	-0.075045
C110	C	1.478275	0.035573	0.424955
H111	H	0.236496	-0.576769	-0.404554
H112	H	0.736496	-0.076769	0.095446
H113	H	0.899707	-0.352612	-0.712719
H114	H	1.399707	0.147388	-0.212719
N115	N	0.727831	-0.589547	-0.413454
N116	N	1.227831	-0.089547	0.086546
N117	N	0.719918	-0.678545	-0.408854
N118	N	1.219918	-0.178545	0.091146
H119	H	0.745417	-0.723117	-0.440018
H120	H	1.245417	-0.223117	0.059982
H121	H	0.236478	-0.352632	-0.247765
H122	H	0.736478	0.147368	0.252235
N123	N	1.065653	-0.589310	-0.577147
N124	N	1.565653	-0.089310	-0.077147
N125	N	1.104287	-0.644381	-0.608707
N126	N	1.604287	-0.144381	-0.108707
H127	H	1.135497	-0.688909	-0.583214
H128	H	1.635497	-0.188909	-0.083214
N129	N	0.727819	-0.339813	-0.238771
N130	N	1.227819	0.160187	0.261229
N131	N	0.790932	-0.339816	-0.238771
N132	N	1.290932	0.160184	0.261229
H133	H	0.816433	-0.295262	-0.207596
H134	H	1.316433	0.204738	0.292404
N135	N	0.584944	-0.589564	-0.413464
N136	N	1.084944	-0.089564	0.086536
N137	N	0.545486	-0.650991	-0.389571
N138	N	1.045486	-0.150991	0.110429
H139	H	0.519998	-0.695579	-0.420734
H140	H	1.019998	-0.195579	0.079266
N141	N	0.372028	-0.339817	-0.238796
N142	N	0.872028	0.160183	0.261204
N143	N	0.340453	-0.284683	-0.200219
N144	N	0.840453	0.215317	0.299781
H145	H	0.365934	-0.240114	-0.169037
H146	H	0.865934	0.259886	0.330963
N147	N	0.890808	-0.339693	-1.075798
N148	N	1.390808	0.160307	-0.575798
N149	N	0.895324	-0.250691	-1.067915
N150	N	1.395324	0.249309	-0.567915
H151	H	0.864113	-0.206161	-1.093404
H152	H	1.364113	0.293839	-0.593404
N153	N	0.584906	-0.339807	-0.238794
N154	N	1.084906	0.160193	0.261206
N155	N	0.521793	-0.339820	-0.238803
N156	N	1.021793	0.160180	0.261197
H157	H	0.496284	-0.295261	-0.207638
H158	H	0.996284	0.204739	0.292362
H159	H	0.899692	-0.352639	-0.584485
H160	H	1.399692	0.147361	-0.084485
N161	N	1.065755	-0.589136	-1.075788
N162	N	1.565755	-0.089136	-0.575788
N163	N	1.104379	-0.644230	-1.044223
N164	N	1.604379	-0.144230	-0.544223
H165	H	1.135606	-0.688726	-1.069711
H166	H	1.635606	-0.188726	-0.569711
H167	H	0.364741	-0.576761	-0.404542
H168	H	0.864741	-0.076761	0.095458
H169	H	0.899755	-0.352533	-0.940246
H170	H	1.399755	0.147467	-0.440246
H171	H	1.056747	-0.576418	-0.940236
H172	H	1.556747	-0.076418	-0.440236
H173	H	1.056707	-0.576473	-0.712712
H174	H	1.556707	-0.076473	-0.212712
