data_functionalizedCrystal
_audit_creation_method	'MofGen! by Chris Wilmer'
_symmetry_space_group_name_H-M	'P1'
_symmetry_Int_Tables_number	1
_symmetry_cell_setting	triclinic
loop_
_symmetry_equiv_pos_as_xyz
  x,y,z
_cell_length_a	12.759401
_cell_length_b	12.759394
_cell_length_c	12.759393
_cell_angle_alpha	89.968780
_cell_angle_beta	89.979062
_cell_angle_gamma	90.016362
loop_
_atom_site_label
_atom_site_type_symbol
_atom_site_fract_x
_atom_site_fract_y
_atom_site_fract_z
Zn1	Zn	1.606265	-0.418173	-0.594015
Zn2	Zn	1.606156	-0.593889	-0.418333
Zn3	Zn	1.430564	-0.418229	-0.418350
Zn4	Zn	1.430556	-0.593815	-0.593970
O5	O	1.518385	-0.506026	-0.506167
O6	O	1.753272	-0.441489	-0.570722
O7	O	1.582821	-0.570641	-0.271314
O8	O	1.453921	-0.271200	-0.441678
O9	O	1.753192	-0.570587	-0.441649
O10	O	1.583008	-0.271159	-0.570739
O11	O	1.453815	-0.441585	-0.271327
O12	O	1.283542	-0.441513	-0.441635
O13	O	1.453906	-0.570462	-0.740997
O14	O	1.283536	-0.570516	-0.570662
O15	O	1.582999	-0.441418	-0.741030
O16	O	1.582813	-0.740900	-0.441605
O17	O	1.453800	-0.740846	-0.570645
C18	C	1.245418	-0.506014	-0.506146
C19	C	1.128641	-0.506033	-0.506162
C20	C	1.073804	-0.573307	-0.573241
C21	C	0.964080	-0.573311	-0.573262
C22	C	0.964041	-0.438765	-0.439116
C23	C	1.073763	-0.438756	-0.439101
C24	C	1.518322	-0.778994	-0.506141
C25	C	1.518391	-0.895771	-0.506166
C26	C	1.652833	-0.895773	-0.371897
C27	C	1.720082	-0.950636	-0.304775
C28	C	1.720143	-1.060357	-0.304804
C29	C	1.652951	-1.115219	-0.371964
C30	C	1.585703	-1.060357	-0.439086
C31	C	1.585647	-0.950633	-0.439048
C32	C	1.451268	-1.060354	-0.573358
C33	C	1.451200	-0.950632	-0.573326
C34	C	1.384076	-1.115216	-0.640518
C35	C	1.316821	-1.060354	-0.707636
C36	C	1.316761	-0.950626	-0.707604
C37	C	1.383951	-0.895770	-0.640448
C38	C	1.792419	-0.506040	-0.506188
C39	C	1.909195	-0.506046	-0.506198
C40	C	1.518464	-0.505925	-0.780200
C41	C	1.518497	-0.505883	-0.896977
C42	C	1.518477	-0.231993	-0.506215
C43	C	1.518516	-0.115216	-0.506236
C44	C	1.585721	-0.438679	-0.951858
C45	C	1.585739	-0.438633	-1.061582
C46	C	1.451306	-0.573005	-1.061535
C47	C	1.451284	-0.573044	-0.951813
C48	C	1.518367	-0.506051	-0.233200
C49	C	1.518537	-0.505798	-0.116423
H50	H	1.652776	-0.806432	-0.371854
H51	H	1.384136	-1.204557	-0.640541
H52	H	1.640478	-0.383908	-1.106261
C53	C	1.134171	-0.647301	-0.647014
C54	C	1.209654	-0.601868	-0.729566
C55	C	1.270017	-0.675861	-0.803345
C56	C	1.254898	-0.795288	-0.794573
C57	C	1.179411	-0.840728	-0.712017
C58	C	1.119048	-0.766734	-0.638238
H59	H	1.220849	-0.513455	-0.736064
H60	H	1.325897	-0.642223	-0.864458
H61	H	1.299582	-0.850063	-0.849188
H62	H	1.168216	-0.929140	-0.705520
H63	H	1.063168	-0.800372	-0.577125
C64	C	1.659645	-0.364795	-0.891537
C65	C	1.651111	-0.245353	-0.906643
C66	C	1.725034	-0.171465	-0.846325
C67	C	1.807491	-0.217018	-0.770901
C68	C	1.816029	-0.336466	-0.755792
C69	C	1.742106	-0.410355	-0.816109
H70	H	1.590068	-0.211627	-0.962480
H71	H	1.718713	-0.083042	-0.857511
H72	H	1.862214	-0.162322	-0.726250
H73	H	1.877072	-0.370193	-0.699955
H74	H	1.748427	-0.498778	-0.804924
H75	H	1.396535	-0.627768	-0.907128
C76	C	1.377382	-0.646888	-1.121857
C77	C	1.377407	-0.646854	-1.242547
C78	C	1.303484	-0.720741	-1.302866
C79	C	1.229537	-0.794663	-1.242495
C80	C	1.229509	-0.794700	-1.121798
C81	C	1.303432	-0.720812	-1.061479
H82	H	1.432150	-0.592130	-1.287243
H83	H	1.303505	-0.720713	-1.392214
H84	H	1.174814	-0.849359	-1.287147
H85	H	1.174766	-0.849423	-1.077102
H86	H	1.303411	-0.720840	-0.972131
H87	H	1.262004	-0.905962	-0.762267
H88	H	0.919435	-0.628091	-0.627885
C89	C	1.794116	-1.120712	-0.230971
C90	C	1.794177	-1.241402	-0.231010
C91	C	1.868149	-1.301757	-0.157178
C92	C	1.942059	-1.241423	-0.083308
C93	C	1.942000	-1.120726	-0.083267
C94	C	1.868028	-1.060371	-0.157098
H95	H	1.739462	-1.286072	-0.285695
H96	H	1.868192	-1.391105	-0.157209
H97	H	1.996817	-1.286101	-0.028654
H98	H	1.996715	-1.076057	-0.028581
H99	H	1.867985	-0.971023	-0.157067
H100	H	0.919345	-0.383991	-0.384516
H101	H	1.118413	-0.383967	-0.384478
H102	H	1.774791	-0.905957	-0.250096
H103	H	1.653017	-1.204560	-0.371990
H104	H	1.383902	-0.806429	-0.640408
H105	H	1.262124	-1.105031	-0.762317
