data_functionalizedCrystal
_audit_creation_method	'MofGen! by Chris Wilmer'
_symmetry_space_group_name_H-M	'P1'
_symmetry_Int_Tables_number	1
_symmetry_cell_setting	triclinic
loop_
_symmetry_equiv_pos_as_xyz
  x,y,z
_cell_length_a	18.101397
_cell_length_b	19.805407
_cell_length_c	19.805399
_cell_angle_alpha	89.980427
_cell_angle_beta	90.029325
_cell_angle_gamma	89.979534
loop_
_atom_site_label
_atom_site_type_symbol
_atom_site_fract_x
_atom_site_fract_y
_atom_site_fract_z
Zn1	Zn	-0.294847	-1.034764	0.382711
Zn2	Zn	-0.418690	-1.034690	0.269520
Zn3	Zn	-0.294867	-0.921578	0.269536
Zn4	Zn	-0.418651	-0.921554	0.382667
O5	O	-0.356764	-0.978146	0.326108
O6	O	-0.311283	-1.129470	0.367708
O7	O	-0.402290	-1.019665	0.174805
O8	O	-0.191232	-0.936634	0.284575
O9	O	-0.402270	-1.129417	0.284547
O10	O	-0.191217	-1.019790	0.367724
O11	O	-0.311318	-0.936562	0.174817
O12	O	-0.311279	-0.826858	0.284531
O13	O	-0.402203	-0.936591	0.477389
O14	O	-0.402223	-0.826840	0.367648
O15	O	-0.311245	-1.019766	0.477422
O16	O	-0.522318	-1.019641	0.284503
O17	O	-0.522289	-0.936520	0.367632
C18	C	-0.549174	-0.978088	0.326076
C19	C	-0.631488	-0.978126	0.326084
C20	C	-0.356750	-0.802290	0.326087
C21	C	-0.356761	-0.727058	0.326093
C22	C	-0.356717	-0.978184	0.502651
C23	C	-0.356697	-0.978201	0.577883
C24	C	-0.930579	-0.978212	0.326146
C25	C	-0.899242	-1.030364	0.273704
C26	C	-0.813623	-1.030544	0.273840
C27	C	-0.782197	-0.978169	0.326115
C28	C	-0.813206	-0.997504	0.397460
C29	C	-0.898851	-0.997908	0.397174
C30	C	-0.899088	-0.906586	0.307861
C31	C	-0.813438	-0.906940	0.306268
C32	C	-0.698337	-0.978144	0.326101
C33	C	-1.014439	-0.978239	0.326164
C34	C	-0.163602	-0.978223	0.326156
C35	C	-0.081288	-0.978256	0.326177
C36	C	-0.356779	-1.154689	0.326131
C37	C	-0.356785	-1.229921	0.326140
C38	C	-0.404187	-0.691722	0.369302
C39	C	-0.404188	-0.621034	0.369311
C40	C	-0.356767	-0.585683	0.326108
C41	C	-0.309336	-0.621024	0.282898
C42	C	-0.309332	-0.691711	0.282892
C43	C	-0.309353	-0.335950	0.282920
C44	C	-0.309362	-0.265258	0.282928
C45	C	-0.404209	-0.265274	0.369339
C46	C	-0.404205	-0.335961	0.369334
C47	C	-0.356771	-0.371295	0.326126
C48	C	-0.356770	-0.447944	0.326117
C49	C	-0.356772	-0.509036	0.326113
C50	C	-0.356757	-0.978148	0.150252
C51	C	-0.356568	-0.978263	0.075021
C52	C	-0.309333	-1.021511	0.613246
C53	C	-0.309311	-1.021518	0.683934
C54	C	-0.356659	-0.978217	0.719259
C55	C	-0.404025	-0.934902	0.683892
C56	C	-0.404042	-0.934893	0.613204
C57	C	-0.403956	-0.934941	0.968965
C58	C	-0.403937	-0.934955	1.039657
C59	C	-0.309225	-1.021566	1.039695
C60	C	-0.309242	-1.021556	0.969008
C61	C	-0.356606	-0.978239	0.933646
C62	C	-0.356627	-0.978231	0.856998
C63	C	-0.356641	-0.978228	0.795906
H64	H	-0.792660	-1.018448	0.220938
N65	N	-0.455121	-0.888173	0.575060
H66	H	-0.485112	-0.860743	0.608163
H67	H	-0.489404	-0.915701	0.545724
H68	H	-0.442805	-0.720500	0.404481
H69	H	-0.442808	-0.592267	0.404496
H70	H	-0.442494	-0.899692	1.068417
N71	N	-0.926315	-0.949782	0.450696
H72	H	-0.882784	-0.928401	0.474373
H73	H	-0.957199	-0.975345	0.484597
N74	N	-0.455077	-0.888183	0.721988
H75	H	-0.447877	-0.894758	0.772134
H76	H	-0.507976	-0.898682	0.709625
H77	H	-0.442822	-0.364740	0.404512
N78	N	-0.258174	-1.068255	0.930906
H79	H	-0.288281	-1.099606	0.901577
H80	H	-0.228173	-1.095648	0.964076
H81	H	-0.919355	-0.867729	0.346057
N82	N	-0.925240	-1.067261	0.417675
H83	H	-0.956291	-1.063632	0.459875
H84	H	-0.881201	-1.097242	0.426777
N85	N	-0.926587	-1.014559	0.203415
H86	H	-0.883062	-1.005360	0.172883
H87	H	-0.959571	-0.973449	0.204932
N88	N	-0.927677	-1.100261	0.289536
H89	H	-0.960770	-1.098291	0.330532
H90	H	-0.884601	-1.131305	0.298924
H91	H	-0.791699	-1.049274	0.413210
N92	N	-0.786400	-1.100820	0.289868
H93	H	-0.805147	-1.133387	0.254571
H94	H	-0.805218	-1.114869	0.335767
N95	N	-0.786246	-0.948731	0.450614
H96	H	-0.753592	-0.913549	0.428906
H97	H	-0.757160	-0.974145	0.485969
H98	H	-0.920747	-0.888996	0.256738
N99	N	-0.258132	-1.068276	1.077842
H100	H	-0.205221	-1.057784	1.065548
H101	H	-0.269704	-1.116613	1.065535
N102	N	-0.455365	-0.227165	0.415952
H103	H	-0.508261	-0.239448	0.405346
H104	H	-0.448111	-0.177032	0.409384
N105	N	-0.258233	-1.068239	0.722073
H106	H	-0.265403	-1.061675	0.772214
H107	H	-0.205343	-1.057730	0.709728
H108	H	-0.793179	-0.892360	0.253764
H109	H	-0.270742	-0.236477	0.247747
H110	H	-0.270735	-0.364711	0.247733
N111	N	-0.258202	-0.582899	0.236287
H112	H	-0.265408	-0.532756	0.242839
H113	H	-0.269676	-0.595242	0.187933
N114	N	-0.785100	-0.852693	0.353143
H115	H	-0.751462	-0.873615	0.388067
H116	H	-0.828182	-0.830169	0.376422
H117	H	-0.270709	-0.720480	0.247711
N118	N	-0.258270	-1.068218	0.575148
H119	H	-0.228261	-1.095655	0.608279
H120	H	-0.224002	-1.040677	0.545822
N121	N	-0.455014	-0.888200	0.930830
H122	H	-0.484998	-0.860767	0.963937
H123	H	-0.489305	-0.915708	0.901484
