data_functionalizedCrystal
_audit_creation_method	'MofGen! by Chris Wilmer'
_symmetry_space_group_name_H-M	'P1'
_symmetry_Int_Tables_number	1
_symmetry_cell_setting	triclinic
loop_
_symmetry_equiv_pos_as_xyz
  x,y,z
_cell_length_a	14.971486
_cell_length_b	16.109298
_cell_length_c	14.048226
_cell_angle_alpha	89.998962
_cell_angle_beta	89.998499
_cell_angle_gamma	83.537158
loop_
_atom_site_label
_atom_site_type_symbol
_atom_site_fract_x
_atom_site_fract_y
_atom_site_fract_z
O1	O	1.186789	0.108348	-0.079039
O2	O	1.520123	0.441681	0.254294
O3	O	1.853456	0.775015	0.587627
O4	O	0.926370	0.121323	-0.079064
O5	O	1.259704	0.454656	0.254269
O6	O	1.593037	0.787989	0.587603
O7	O	1.063735	-0.006187	-0.079058
O8	O	1.397069	0.327146	0.254276
O9	O	1.730402	0.660480	0.587609
O10	O	1.049424	0.235858	-0.079046
O11	O	1.382758	0.569191	0.254288
O12	O	1.716091	0.902524	0.587621
O13	O	1.063719	-0.006194	0.079264
O14	O	1.397052	0.327139	0.412597
O15	O	1.730385	0.660472	0.745930
O16	O	0.926354	0.121315	0.079257
O17	O	1.259687	0.454649	0.412591
O18	O	1.593021	0.787982	0.745924
O19	O	1.186773	0.108340	0.079282
O20	O	1.520106	0.441674	0.412615
O21	O	1.853440	0.775007	0.745949
Zn22	Zn	1.056561	0.114827	0.104407
Zn23	Zn	1.389894	0.448160	0.437740
Zn24	Zn	1.723227	0.781493	0.771073
Zn25	Zn	1.056583	0.114837	-0.104189
Zn26	Zn	1.389916	0.448170	0.229145
Zn27	Zn	1.723249	0.781503	0.562478
O28	O	1.049408	0.235850	0.079276
O29	O	1.382741	0.569183	0.412609
O30	O	1.716075	0.902517	0.745942
C31	C	0.893038	0.120739	0.000093
C32	C	1.226372	0.454072	0.333427
C33	C	1.559705	0.787405	0.666760
C34	C	0.793744	0.119000	0.000083
C35	C	1.127077	0.452333	0.333417
C36	C	1.460410	0.785667	0.666750
C37	C	1.063148	-0.037166	0.000099
C38	C	1.396481	0.296167	0.333432
C39	C	1.729815	0.629500	0.666766
C40	C	1.061411	-0.129464	0.000088
C41	C	1.394745	0.203869	0.333421
C42	C	1.728078	0.537203	0.666754
C43	C	0.736409	0.193908	0.000089
C44	C	1.069743	0.527242	0.333422
C45	C	1.403076	0.860575	0.666755
C46	C	0.643112	0.192270	0.000103
C47	C	0.976446	0.525603	0.333436
C48	C	1.309779	0.858936	0.666769
C49	C	0.607151	0.115721	0.000105
C50	C	0.940485	0.449055	0.333438
C51	C	1.273818	0.782388	0.666771
C52	C	0.664493	0.040807	0.000103
C53	C	0.997826	0.374141	0.333436
C54	C	1.331160	0.707474	0.666769
C55	C	0.757788	0.042447	0.000095
C56	C	1.091122	0.375780	0.333429
C57	C	1.424455	0.709114	0.666762
C58	C	0.470035	0.037395	0.000115
C59	C	0.803369	0.370728	0.333449
C60	C	1.136702	0.704062	0.666782
C61	C	0.376734	0.035755	0.000121
C62	C	0.710067	0.369088	0.333454
C63	C	1.043401	0.702421	0.666788
C64	C	0.355360	0.187218	0.000123
C65	C	0.688693	0.520551	0.333456
C66	C	1.022026	0.853884	0.666790
C67	C	0.448655	0.188857	0.000116
C68	C	0.781988	0.522191	0.333449
C69	C	1.115322	0.855524	0.666782
C70	C	0.505990	0.113943	0.000112
C71	C	0.839323	0.447276	0.333445
C72	C	1.172657	0.780609	0.666778
C73	C	1.055754	-0.428536	-0.086194
C74	C	1.389087	-0.095202	0.247139
C75	C	1.722420	0.238131	0.580473
C76	C	1.057397	-0.341814	-0.086201
C77	C	1.390731	-0.008480	0.247133
C78	C	1.724064	0.324853	0.580466
C79	C	1.057392	-0.341808	0.086410
C80	C	1.390726	-0.008474	0.419743
C81	C	1.724059	0.324859	0.753077
C82	C	1.055755	-0.428529	0.086416
C83	C	1.389088	-0.095195	0.419749
C84	C	1.722422	0.238138	0.753082
C85	C	1.054931	-0.471890	0.000111
C86	C	1.388264	-0.138557	0.333444
C87	C	1.721598	0.194777	0.666778
C88	C	1.058212	-0.298447	0.000099
C89	C	1.391546	0.034886	0.333432
C90	C	1.724879	0.368220	0.666765
C91	C	1.059994	-0.204419	0.000092
C92	C	1.393328	0.128914	0.333425
C93	C	1.726661	0.462248	0.666759
C94	C	1.053150	-0.565924	0.000117
C95	C	1.386484	-0.232591	0.333450
C96	C	1.719817	0.100743	0.666784
C97	C	1.220105	0.108924	0.000122
C98	C	1.553438	0.442258	0.333456
C99	C	1.886772	0.775591	0.666789
C100	C	1.319400	0.110663	0.000126
C101	C	1.652733	0.443997	0.333459
C102	C	1.986066	0.777330	0.666793
C103	C	1.049995	0.266829	0.000117
C104	C	1.383329	0.600163	0.333450
C105	C	1.716662	0.933496	0.666783
C106	C	1.051732	0.359127	0.000122
C107	C	1.385065	0.692460	0.333455
C108	C	1.718399	1.025794	0.666789
N109	N	1.056552	0.114819	0.246767
N110	N	1.389886	0.448153	0.580101
N111	N	1.723219	0.781486	0.913434
N112	N	1.056598	0.114837	-0.246549
N113	N	1.389931	0.448171	0.086784
N114	N	1.723265	0.781504	0.420117
C115	C	1.117397	0.058381	0.296588
C116	C	1.450730	0.391715	0.629921
C117	C	1.784063	0.725048	0.963255
C118	C	1.117403	0.058381	0.396246
C119	C	1.450736	0.391714	0.729579
C120	C	1.784069	0.725048	1.062912
C121	C	1.056568	0.114823	0.446081
C122	C	1.389901	0.448156	0.779414
C123	C	1.723235	0.781490	1.112747
C124	C	0.995717	0.171264	0.396253
C125	C	1.329051	0.504597	0.729586
C126	C	1.662384	0.837930	1.062920
C127	C	0.995708	0.171260	0.296597
C128	C	1.329041	0.504593	0.629930
C129	C	1.662374	0.837926	0.963264
C130	C	0.995743	0.171270	0.603967
C131	C	1.329077	0.504603	0.937301
C132	C	1.662410	0.837936	1.270634
C133	C	0.995754	0.171275	0.703630
C134	C	1.329087	0.504609	1.036963
C135	C	1.662420	0.837942	1.370297
C136	C	1.117438	0.058391	0.703616
C137	C	1.450772	0.391725	1.036949
C138	C	1.784105	0.725058	1.370282
C139	C	1.117429	0.058387	0.603960
C140	C	1.450762	0.391720	0.937293
C141	C	1.784095	0.725054	1.270627
C142	C	1.056579	0.114829	0.554139
C143	C	1.389912	0.448162	0.887472
C144	C	1.723245	0.781496	1.220806
H145	H	0.765681	0.256243	0.000086
H146	H	1.099014	0.589576	0.333419
H147	H	1.432348	0.922909	0.666753
H148	H	1.058068	-0.306519	-0.156479
H149	H	1.391402	0.026815	0.176855
H150	H	1.724735	0.360148	0.510188
F151	F	0.931003	0.231348	0.756661
F152	F	1.264337	0.564681	1.089994
F153	F	1.597670	0.898014	1.423328
H154	H	1.166984	0.012434	0.744186
H155	H	1.500317	0.345768	1.077519
H156	H	1.833650	0.679101	1.410852
H157	H	1.055088	-0.463829	0.156700
H158	H	1.388421	-0.130496	0.490033
H159	H	1.721754	0.202838	0.823366
F160	F	1.182180	-0.001679	0.550921
F161	F	1.515513	0.331654	0.884255
F162	F	1.848846	0.664987	1.217588
F163	F	1.058265	-0.295652	0.178257
F164	F	1.391598	0.037682	0.511590
F165	F	1.724932	0.371015	0.844923
F166	F	1.182151	-0.001689	0.243559
F167	F	1.515484	0.331644	0.576893
F168	F	1.848818	0.664977	0.910226
H169	H	0.946190	0.217228	0.563406
H170	H	1.279523	0.550561	0.896740
H171	H	1.612856	0.883895	1.230073
F172	F	1.182159	-0.001687	0.449269
F173	F	1.515492	0.331646	0.782602
F174	F	1.848825	0.664979	1.115936
H175	H	0.946180	0.217217	0.436834
H176	H	1.279513	0.550551	0.770168
H177	H	1.612847	0.883884	1.103501
F178	F	0.930946	0.231326	0.243576
F179	F	1.264279	0.564660	0.576909
F180	F	1.597613	0.897993	0.910242
H181	H	0.477931	0.251189	0.000105
H182	H	0.811264	0.584523	0.333438
H183	H	1.144598	0.917856	0.666771
F184	F	0.582096	0.271998	0.000104
F185	F	0.915430	0.605331	0.333437
F186	F	1.248763	0.938664	0.666771
H187	H	0.308672	0.248216	0.000130
H188	H	0.642006	0.581549	0.333464
H189	H	0.975339	0.914882	0.666797
H190	H	0.516716	-0.023609	0.000114
H191	H	0.850049	0.309725	0.333447
H192	H	1.183383	0.643058	0.666780
F193	F	0.626218	-0.040662	0.000111
F194	F	0.959552	0.292672	0.333444
F195	F	1.292885	0.626005	0.666778
F196	F	0.338464	-0.045716	0.000148
F197	F	0.671797	0.287617	0.333481
F198	F	1.005130	0.620951	0.666815
H199	H	0.804470	-0.018551	0.000091
H200	H	1.137803	0.314782	0.333424
H201	H	1.471136	0.648115	0.666757
H202	H	1.055082	-0.463838	-0.156469
H203	H	1.388415	-0.130504	0.176864
H204	H	1.721748	0.202829	0.510198
