data_functionalizedCrystal
_audit_creation_method	'MofGen! by Chris Wilmer'
_symmetry_space_group_name_H-M	'P1'
_symmetry_Int_Tables_number	1
_symmetry_cell_setting	triclinic
loop_
_symmetry_equiv_pos_as_xyz
  x,y,z
_cell_length_a	16.974800
_cell_length_b	10.268362
_cell_length_c	16.992695
_cell_angle_alpha	89.994473
_cell_angle_beta	92.978326
_cell_angle_gamma	86.347771
loop_
_atom_site_label
_atom_site_type_symbol
_atom_site_fract_x
_atom_site_fract_y
_atom_site_fract_z
O1	O	1.055459	-0.002982	-0.099873
O2	O	0.826058	0.021208	-0.112614
O3	O	0.939839	0.009200	0.007898
O4	O	0.941678	0.009026	-0.220385
O5	O	0.939828	-0.207400	0.007903
O6	O	0.826047	-0.195391	-0.112609
O7	O	1.055448	-0.219582	-0.099868
Cu8	Cu	0.940747	-0.227264	-0.106238
Cu9	Cu	0.940759	0.028890	-0.106244
O10	O	0.941667	-0.207573	-0.220380
C11	C	0.796563	-0.083982	-0.112129
C12	C	0.708695	-0.074717	-0.110682
N13	N	0.940743	-0.407429	-0.106234
C14	C	0.667413	-0.188435	-0.109997
C15	C	0.584852	-0.179733	-0.108625
C16	C	0.543575	-0.057312	-0.107942
C17	C	0.584863	0.056415	-0.108625
C18	C	0.667422	0.047712	-0.109991
C19	C	0.296659	-0.018621	-0.103850
C20	C	0.214093	-0.009927	-0.102485
C21	C	0.214089	-0.246077	-0.102484
C22	C	0.296649	-0.254769	-0.103855
C23	C	0.337930	-0.141042	-0.104533
N24	N	0.459184	-0.048414	-0.106542
N25	N	0.422320	-0.149941	-0.105928
C26	C	0.940755	-0.673101	-0.106242
C27	C	0.940746	-0.525262	-0.106240
C28	C	1.084943	-0.114388	-0.100353
C29	C	1.172811	-0.123645	-0.101801
C30	C	0.937467	-0.098850	0.037110
C31	C	0.930408	-0.098106	0.124147
N32	N	0.940769	0.209055	-0.106242
C33	C	0.944039	-0.099520	-0.249593
C34	C	0.951098	-0.100256	-0.336629
C35	C	0.998523	-0.105290	0.174464
C36	C	0.991885	-0.104577	0.256243
C37	C	0.917131	-0.096690	0.287703
C38	C	0.849011	-0.089502	0.237379
C39	C	0.855649	-0.090205	0.155602
C40	C	0.889617	-0.093771	0.531270
C41	C	0.882983	-0.093072	0.613054
C42	C	1.025858	-0.108146	0.631912
C43	C	1.032490	-0.108856	0.550132
C44	C	0.964370	-0.101660	0.499815
N45	N	0.910344	-0.095966	0.371294
N46	N	0.971157	-0.102375	0.416226
H47	H	0.701015	-0.288125	-0.110559
O48	O	0.174108	-0.356673	-0.101854
C49	C	0.182822	-0.591819	-0.101937
C50	C	0.228195	-0.466667	-0.102676
H51	H	0.226533	-0.680782	-0.102585
H52	H	0.140415	-0.593345	-0.156152
H53	H	0.147923	-0.593974	-0.046465
H54	H	0.263139	-0.464430	-0.158111
H55	H	0.270556	-0.465192	-0.048423
O56	O	1.057993	-0.111722	0.305204
C57	C	1.133429	-0.231916	0.408464
C58	C	1.058519	-0.223974	0.353072
H59	H	1.133887	-0.322679	0.447168
H60	H	1.133904	-0.141374	0.447265
H61	H	1.187988	-0.237615	0.371919
H62	H	1.003919	-0.218316	0.389555
H63	H	1.058113	-0.314515	0.314268
O64	O	0.776377	-0.081604	0.267900
C65	C	0.652223	0.043670	0.276757
C66	C	0.734463	0.034909	0.242156
H67	H	0.618305	0.137850	0.255943
H68	H	0.659131	0.043023	0.343852
H69	H	0.618326	-0.043442	0.256046
H70	H	0.768405	0.122000	0.262807
H71	H	0.727498	0.035493	0.175065
O72	O	1.105066	-0.116331	0.519486
C73	C	1.195507	-0.013615	0.438142
C74	C	1.113284	-0.004995	0.472778
H75	H	1.202184	0.076400	0.400385
H76	H	1.202201	-0.104908	0.400282
H77	H	1.243034	-0.018687	0.488170
H78	H	1.065708	0.000128	0.422800
H79	H	1.106658	0.086283	0.510658
O80	O	0.544892	0.175440	-0.107934
C81	C	0.553613	0.408749	-0.108143
C82	C	0.598976	0.274035	-0.108901
H83	H	0.597319	0.488499	-0.108941
H84	H	0.518753	0.418421	-0.052651
H85	H	0.511170	0.419053	-0.162337
H86	H	0.641459	0.263640	-0.054745
H87	H	0.633783	0.264424	-0.164429
H88	H	0.551245	-0.272335	-0.108054
H89	H	0.834148	-0.087912	0.490311
H90	H	0.800182	-0.084355	0.114633
H91	H	1.059396	-0.111720	0.148857
H92	H	0.330252	-0.354458	-0.104407
H93	H	0.180487	0.089769	-0.101932
H94	H	1.081318	-0.114001	0.672889
H95	H	0.330260	0.073983	-0.104399
H96	H	0.822106	-0.086670	0.638664
H97	H	0.701033	0.140314	-0.110550
