data_functionalizedCrystal
_audit_creation_method	'MofGen! by Chris Wilmer'
_symmetry_space_group_name_H-M	'P1'
_symmetry_Int_Tables_number	1
_symmetry_cell_setting	triclinic
loop_
_symmetry_equiv_pos_as_xyz
  x,y,z
_cell_length_a	17.699104
_cell_length_b	17.699083
_cell_length_c	16.176319
_cell_angle_alpha	89.998611
_cell_angle_beta	90.011330
_cell_angle_gamma	96.712733
loop_
_atom_site_label
_atom_site_type_symbol
_atom_site_fract_x
_atom_site_fract_y
_atom_site_fract_z
O1	O	-0.095712	1.004086	-0.068639
O2	O	0.404288	1.504086	0.431361
O3	O	-0.108164	0.783708	-0.068667
O4	O	0.391836	1.283708	0.431333
O5	O	0.008250	0.900115	-0.068637
O6	O	0.508250	1.400115	0.431363
O7	O	-0.212126	0.887679	-0.068669
O8	O	0.287874	1.387679	0.431331
O9	O	0.008257	0.900099	0.068856
O10	O	0.508257	1.400099	0.568856
O11	O	-0.108157	0.783692	0.068826
O12	O	0.391843	1.283692	0.568826
O13	O	-0.095705	1.004070	0.068854
O14	O	0.404295	1.504070	0.568854
Cu15	Cu	-0.101930	0.893880	0.081394
Cu16	Cu	0.398070	1.393880	0.581394
Cu17	Cu	-0.101939	0.893899	-0.081207
Cu18	Cu	0.398061	1.393899	0.418793
O19	O	-0.212119	0.887663	0.068824
O20	O	0.287881	1.387663	0.568824
C21	C	-0.107715	0.755503	0.000076
C22	C	0.392285	1.255503	0.500076
C23	C	-0.106376	0.671485	0.000066
C24	C	0.393624	1.171485	0.500066
C25	C	0.036450	0.899659	0.000111
C26	C	0.536450	1.399659	0.500111
C27	C	0.120467	0.898314	0.000117
C28	C	0.620467	1.398314	0.500117
C29	C	-0.174709	0.622869	0.000057
C30	C	0.325291	1.122869	0.500057
C31	C	-0.173446	0.543926	0.000067
C32	C	0.326554	1.043926	0.500067
C33	C	-0.103851	0.513600	0.000082
C34	C	0.396149	1.013600	0.500082
C35	C	-0.035513	0.562222	0.000094
C36	C	0.464487	1.062222	0.500094
C37	C	-0.036776	0.641164	0.000089
C38	C	0.463224	1.141164	0.500089
C39	C	-0.030418	0.243859	0.000115
C40	C	0.469582	0.743859	0.500115
C41	C	-0.029160	0.164911	0.000117
C42	C	0.470840	0.664911	0.500117
C43	C	-0.167088	0.146621	0.000094
C44	C	0.332912	0.646621	0.500094
C45	C	-0.168351	0.225563	0.000089
C46	C	0.331649	0.725563	0.500089
C47	C	-0.100014	0.274178	0.000105
C48	C	0.399986	0.774178	0.500105
C49	C	-0.101383	0.359777	0.000095
C50	C	0.398617	0.859777	0.500095
C51	C	-0.102480	0.428002	0.000086
C52	C	0.397520	0.928002	0.500086
C53	C	0.645338	0.959058	0.000137
C54	C	1.145338	1.459058	0.500137
C55	C	0.566395	0.960317	0.000139
C56	C	1.066395	1.460317	0.500139
C57	C	0.517777	0.891982	0.000129
C58	C	1.017777	1.391982	0.500129
C59	C	0.548107	0.822383	0.000126
C60	C	1.048107	1.322383	0.500126
C61	C	0.627049	0.821125	0.000130
C62	C	1.127049	1.321125	0.500130
C63	C	0.229741	0.827456	0.000112
C64	C	0.729741	1.327456	0.500112
C65	C	0.150794	0.828720	0.000105
C66	C	0.650794	1.328720	0.500105
C67	C	0.169086	0.966648	0.000121
C68	C	0.669086	1.466648	0.500121
C69	C	0.248029	0.965390	0.000125
C70	C	0.748029	1.465390	0.500125
C71	C	0.278352	0.895792	0.000126
C72	C	0.778352	1.395792	0.500126
C73	C	0.363951	0.894427	0.000125
C74	C	0.863951	1.394427	0.500125
C75	C	0.432179	0.893345	0.000124
C76	C	0.932179	1.393345	0.500124
C77	C	0.759681	0.888120	0.000091
C78	C	1.259681	1.388120	0.500091
C79	C	0.675663	0.889464	0.000131
C80	C	1.175663	1.389464	0.500131
N81	N	-0.101924	0.893872	0.195760
N82	N	0.398076	1.393872	0.695760
C83	C	-0.096155	1.032275	0.000109
C84	C	0.403845	1.532275	0.500109
C85	C	-0.097493	1.116293	0.000114
C86	C	0.402507	1.616293	0.500114
N87	N	-0.101940	0.893912	-0.195572
N88	N	0.398060	1.393912	0.304428
C89	C	-0.050396	0.945432	0.239037
C90	C	0.449604	1.445432	0.739037
C91	C	-0.050396	0.945436	0.325584
C92	C	0.449604	1.445436	0.825584
C93	C	-0.101926	0.893883	0.368852
C94	C	0.398074	1.393883	0.868852
C95	C	-0.153456	0.842317	0.325569
C96	C	0.346544	1.342317	0.825569
C97	C	-0.153453	0.842310	0.239023
C98	C	0.346547	1.342310	0.739023
C99	C	-0.153470	0.842343	0.674597
C100	C	0.346530	1.342343	1.174597
C101	C	-0.153471	0.842355	0.761149
C102	C	0.346529	1.342355	1.261149
C103	C	-0.050413	0.945469	0.761158
C104	C	0.449587	1.445469	1.261158
C105	C	-0.050410	0.945462	0.674612
C106	C	0.449590	1.445462	1.174612
C107	C	-0.101936	0.893894	0.631336
C108	C	0.398064	1.393894	1.131336
C109	C	-0.101936	0.893889	0.537492
C110	C	0.398064	1.393889	1.037492
C111	C	-0.101931	0.893890	0.462695
C112	C	0.398069	1.393890	0.962695
H113	H	-0.231382	0.647554	0.000044
H114	H	0.268618	1.147554	0.500044
H115	H	-0.008438	0.987420	0.360820
H116	H	0.491562	1.487420	0.860820
H117	H	0.651738	0.764455	0.000131
H118	H	1.151738	1.264455	0.500131
C119	C	0.698031	1.033311	0.000018
C120	C	1.198031	1.533311	0.500018
C121	C	0.684320	1.075241	-0.070703
C122	C	1.184320	1.575241	0.429297
C123	C	0.732837	1.143653	-0.070832
C124	C	1.232837	1.643653	0.429168
H125	H	0.749416	1.022704	-0.000024
H126	H	1.249416	1.522704	0.499976
H127	H	0.688845	1.061889	0.047944
H128	H	1.188845	1.561889	0.547944
H129	H	0.693512	1.046669	-0.118616
H130	H	1.193512	1.546669	0.381384
H131	H	0.632945	1.085868	-0.070675
H132	H	1.132945	1.585868	0.429325
H133	H	0.723651	1.172231	-0.022906
H134	H	1.223651	1.672231	0.477094
H135	H	0.784219	1.133039	-0.070873
H136	H	1.284219	1.633039	0.429127
H137	H	0.723536	1.172115	-0.118811
H138	H	1.223536	1.672115	0.381189
H139	H	0.508516	0.766743	0.000123
H140	H	1.008516	1.266743	0.500123
H141	H	0.144388	1.023319	0.000110
H142	H	0.644388	1.523319	0.500110
C143	C	0.043857	0.296508	0.000087
C144	C	0.543857	0.796508	0.500087
C145	C	0.105073	0.253050	0.000076
C146	C	0.605073	0.753050	0.500076
C147	C	0.173509	0.301528	0.000040
C148	C	0.673509	0.801528	0.500040
H149	H	0.046343	0.327700	0.048021
H150	H	0.546343	0.827700	0.548021
H151	H	0.046274	0.327674	-0.047879
H152	H	0.546274	0.827674	0.452121
H153	H	0.102657	0.221898	0.048037
H154	H	0.602657	0.721898	0.548037
H155	H	0.102612	0.221860	-0.047854
H156	H	0.602612	0.721860	0.452146
H157	H	0.175927	0.332694	-0.047926
H158	H	0.675927	0.832694	0.452074
H159	H	0.175988	0.332718	0.047975
H160	H	0.675988	0.832718	0.547975
H161	H	0.215052	0.272049	0.000025
H162	H	0.715052	0.772049	0.500025
C163	C	0.005661	1.001413	0.808041
C164	C	0.505661	1.501413	1.308041
C165	C	0.080020	0.989285	0.786989
C166	C	0.580020	1.489285	1.286989
C167	C	0.131693	1.040811	0.830152
C168	C	0.631693	1.540811	1.330152
H169	H	-0.001610	0.994087	0.865794
H170	H	0.498390	1.494087	1.365794
H171	H	-0.002449	1.051923	0.793834
H172	H	0.497551	1.551923	1.293834
H173	H	0.088127	0.938787	0.801202
H174	H	0.588127	1.438787	1.301202
H175	H	0.087316	0.996618	0.729244
H176	H	0.587316	1.496618	1.229244
H177	H	0.123583	1.091322	0.815945
H178	H	0.623583	1.591322	1.315945
H179	H	0.124415	1.033481	0.887902
H180	H	0.624415	1.533481	1.387902
H181	H	0.182151	1.032594	0.815868
H182	H	0.682151	1.532594	1.315868
C183	C	-0.209314	0.786220	0.372502
C184	C	0.290686	1.286220	0.872502
C185	C	-0.197115	0.711871	0.351481
C186	C	0.302885	1.211871	0.851481
C187	C	-0.248551	0.660175	0.394706
C188	C	0.251449	1.160175	0.894706
H189	H	-0.259852	0.794240	0.358340
H190	H	0.240148	1.294240	0.858340
H191	H	-0.201933	0.793559	0.430251
H192	H	0.298067	1.293559	0.930251
H193	H	-0.204502	0.704535	0.293744
H194	H	0.295498	1.204535	0.793744
H195	H	-0.146588	0.703827	0.365644
H196	H	0.353412	1.203827	0.865644
H197	H	-0.241170	0.667514	0.452456
H198	H	0.258830	1.167514	0.952456
H199	H	-0.299085	0.668201	0.380541
H200	H	0.200915	1.168201	0.880541
H201	H	-0.240276	0.609723	0.380455
H202	H	0.259724	1.109723	0.880455
C203	C	0.533370	1.035824	0.000012
C204	C	1.033370	1.535824	0.500012
C205	C	0.488557	1.040574	-0.070715
C206	C	0.988557	1.540574	0.429285
C207	C	0.458117	1.110119	-0.070855
C208	C	0.958117	1.610119	0.429145
H209	H	0.573555	1.076404	-0.000030
H210	H	1.073555	1.576404	0.499970
H211	H	0.502920	1.039191	0.047934
H212	H	1.002920	1.539191	0.547934
H213	H	0.519005	1.037215	-0.118625
H214	H	1.019005	1.537215	0.381375
H215	H	0.448360	1.000010	-0.070689
H216	H	0.948360	1.500010	0.429311
H217	H	0.427667	1.113486	-0.022933
H218	H	0.927667	1.613486	0.477067
H219	H	0.498307	1.150694	-0.070894
H220	H	0.998307	1.650694	0.429106
H221	H	0.427703	1.113348	-0.118838
H222	H	0.927703	1.613348	0.381162
H223	H	-0.229090	0.504346	0.000059
H224	H	0.270910	1.004346	0.500059
C225	C	-0.209330	0.786253	0.808085
C226	C	0.290670	1.286253	1.308085
C227	C	-0.197125	0.711904	0.787068
C228	C	0.302875	1.211904	1.287068
C229	C	-0.248557	0.660206	0.830297
C230	C	0.251443	1.160206	1.330297
H231	H	-0.259868	0.794267	0.793924
H232	H	0.240132	1.294267	1.293924
H233	H	-0.201947	0.793595	0.865833
H234	H	0.298053	1.293595	1.365833
H235	H	-0.204513	0.704565	0.729332
H236	H	0.295487	1.204565	1.229332
H237	H	-0.146596	0.703865	0.801231
H238	H	0.353404	1.203865	1.301231
H239	H	-0.241174	0.667549	0.888046
H240	H	0.258826	1.167549	1.388046
H241	H	-0.299092	0.668228	0.816133
H242	H	0.200908	1.168228	1.316133
H243	H	-0.240278	0.609755	0.816049
H244	H	0.259722	1.109755	1.316049
H245	H	-0.195426	0.800356	0.639369
H246	H	0.304574	1.300356	1.139369
H247	H	-0.008451	0.987444	0.639386
H248	H	0.491549	1.487444	1.139386
H249	H	0.287610	1.021036	0.000129
H250	H	0.787610	1.521036	0.500129
C251	C	0.098132	0.754441	0.000142
C252	C	0.598132	1.254441	0.500142
C253	C	0.141583	0.693219	0.000167
C254	C	0.641583	1.193219	0.500167
C255	C	0.093098	0.624787	0.000211
C256	C	0.593098	1.124787	0.500211
H257	H	0.066935	0.751960	-0.047795
H258	H	0.566935	1.251960	0.452205
H259	H	0.066972	0.752025	0.048105
H260	H	0.566972	1.252025	0.548105
H261	H	0.172729	0.695634	-0.047791
H262	H	0.672729	1.195634	0.452209
H263	H	0.172779	0.695675	0.048100
H264	H	0.672779	1.195675	0.548100
H265	H	0.061938	0.622371	0.048174
H266	H	0.561938	1.122371	0.548174
H267	H	0.061903	0.622315	-0.047727
H268	H	0.561903	1.122315	0.452273
H269	H	0.122572	0.583241	0.000235
H270	H	0.622572	1.083241	0.500235
C271	C	-0.209521	0.786418	0.192076
C272	C	0.290479	1.286418	0.692076
C273	C	-0.283882	0.798570	0.213088
C274	C	0.216118	1.298570	0.713088
C275	C	-0.335551	0.747100	0.169850
C276	C	0.164449	1.247100	0.669850
H277	H	-0.201467	0.735891	0.206234
H278	H	0.298533	1.235891	0.706234
H279	H	-0.202189	0.793799	0.134329
H280	H	0.297811	1.293799	0.634329
H281	H	-0.291211	0.791182	0.270823
H282	H	0.208789	1.291182	0.770823
H283	H	-0.291960	0.849087	0.198929
H284	H	0.208040	1.349087	0.698929
H285	H	-0.328219	0.754481	0.112102
H286	H	0.171781	1.254481	0.612102
H287	H	-0.327490	0.696576	0.184011
H288	H	0.172510	1.196576	0.684011
H289	H	-0.386011	0.755342	0.184095
H290	H	0.113989	1.255342	0.684095
H291	H	0.254420	0.770785	0.000102
H292	H	0.754420	1.270785	0.500102
H293	H	-0.225023	0.250249	0.000073
H294	H	0.274977	0.750249	0.500073
C295	C	0.005692	1.001319	0.192130
C296	C	0.505692	1.501319	0.692130
C297	C	0.080039	0.989148	0.213215
C298	C	0.580039	1.489148	0.713215
C299	C	0.131739	1.040610	0.170025
C300	C	0.631739	1.540610	0.670025
H301	H	-0.002356	1.051849	0.206277
H302	H	0.497644	1.551849	0.706277
H303	H	-0.001614	0.993943	0.134375
H304	H	0.498386	1.493943	0.634375
H305	H	0.087343	0.996531	0.270957
H306	H	0.587343	1.496531	0.770957
H307	H	0.088111	0.938629	0.199066
H308	H	0.588111	1.438629	0.699066
H309	H	0.124432	1.033234	0.112271
H310	H	0.624432	1.533234	0.612271
H311	H	0.123684	1.091136	0.184176
H312	H	0.623684	1.591136	0.684176
H313	H	0.182189	1.032354	0.184320
H314	H	0.682189	1.532354	0.684320
C315	C	0.039973	0.529153	0.000069
C316	C	0.539973	1.029153	0.500069
C317	C	0.026456	0.449613	0.000047
C318	C	0.526456	0.949613	0.500047
C319	C	0.095976	0.419126	0.000010
C320	C	0.595976	0.919126	0.500010
H321	H	0.068163	0.545765	0.048007
H322	H	0.568163	1.045765	0.548007
H323	H	0.068108	0.545806	-0.047893
H324	H	0.568108	1.045806	0.452107
H325	H	-0.001667	0.432966	0.048004
H326	H	0.498333	0.932966	0.548004
H327	H	-0.001723	0.432979	-0.047888
H328	H	0.498277	0.932979	0.452112
H329	H	0.124111	0.435779	-0.047952
H330	H	0.624111	0.935779	0.452048
H331	H	0.124161	0.435744	0.047949
H332	H	0.624161	0.935744	0.547949
H333	H	0.086814	0.365155	-0.000012
H334	H	0.586814	0.865155	0.499988
H335	H	-0.222732	0.107028	0.000085
H336	H	0.277268	0.607028	0.500085
H337	H	0.027517	0.140223	0.000130
H338	H	0.527517	0.640223	0.500130
H339	H	0.018868	0.680747	0.000096
H340	H	0.518868	1.180747	0.500096
