data_functionalizedCrystal
_audit_creation_method	'MofGen! by Chris Wilmer'
_symmetry_space_group_name_H-M	'P1'
_symmetry_Int_Tables_number	1
_symmetry_cell_setting	triclinic
loop_
_symmetry_equiv_pos_as_xyz
  x,y,z
_cell_length_a	10.654562
_cell_length_b	19.188924
_cell_length_c	9.730223
_cell_angle_alpha	90.002086
_cell_angle_beta	90.005668
_cell_angle_gamma	83.816034
loop_
_atom_site_label
_atom_site_type_symbol
_atom_site_fract_x
_atom_site_fract_y
_atom_site_fract_z
O1	O	1.665750	0.098100	0.114387
O2	O	1.300075	0.107433	0.114371
O3	O	1.493470	0.001180	0.114363
O4	O	1.472355	0.204353	0.114395
O5	O	1.493457	0.001186	-0.114217
O6	O	1.300063	0.107439	-0.114209
O7	O	1.665737	0.098106	-0.114193
Zn8	Zn	1.482898	0.102773	-0.150493
Zn9	Zn	1.482914	0.102765	0.150671
O10	O	1.472343	0.204359	-0.114185
C11	C	1.253286	0.106749	0.000079
C12	C	1.113887	0.104693	0.000072
C13	C	1.048370	0.103737	-0.124517
C14	C	0.917388	0.101811	-0.124494
C15	C	0.917452	0.101799	0.124716
C16	C	1.048432	0.103721	0.124692
C17	C	1.048331	0.103747	-0.268397
C18	C	0.917350	0.101821	-0.268374
C19	C	1.492781	-0.024833	0.000072
C20	C	1.490733	-0.102351	0.000068
C21	C	1.489784	-0.138759	0.124667
C22	C	1.487841	-0.211595	0.124678
C23	C	1.486873	-0.248021	0.000082
C24	C	1.487816	-0.211603	-0.124534
C25	C	1.489745	-0.138768	-0.124541
N26	N	1.555301	-0.367232	-0.092649
N27	N	1.553470	-0.436423	-0.092634
C28	C	1.481057	-0.467468	0.000095
N29	N	1.410558	-0.426711	0.092829
N30	N	1.412395	-0.357514	0.092818
C31	C	1.484780	-0.326998	0.000075
C32	C	1.478000	-0.582853	0.124714
C33	C	1.476049	-0.655689	0.124719
C34	C	1.476037	-0.655697	-0.124496
C35	C	1.477974	-0.582861	-0.124498
C36	C	1.478961	-0.546444	0.000111
C37	C	1.712527	0.098790	0.000103
C38	C	1.851925	0.100846	0.000118
C39	C	1.473031	0.230372	0.000109
C40	C	1.475080	0.307890	0.000122
N41	N	1.482896	0.102778	-0.356029
C42	C	1.558819	0.145516	-0.427958
C43	C	1.558838	0.145502	-0.571841
C44	C	1.407000	0.060013	-0.571854
C45	C	1.406989	0.060023	-0.427974
C46	C	1.646477	0.194875	-0.427952
C47	C	1.646496	0.194862	-0.571835
N48	N	1.482926	0.102755	0.356207
H49	H	0.888839	0.050904	-0.313028
H50	H	1.345179	0.025214	-0.369415
O51	O	1.474902	-0.691130	-0.245450
C52	C	1.363849	-0.765923	-0.390113
C53	C	1.365012	-0.725844	-0.253061
H54	H	1.274999	-0.793988	-0.396323
H55	H	1.450734	-0.806036	-0.396393
H56	H	1.364917	-0.727369	-0.479136
H57	H	1.363901	-0.764345	-0.163959
H58	H	1.278134	-0.685720	-0.246900
H59	H	1.478796	-0.553200	0.226178
H60	H	1.490513	-0.109125	-0.226007
H61	H	1.614397	0.249915	-0.610901
O62	O	0.861093	0.159441	-0.334234
C63	C	0.890198	0.266314	-0.454414
C64	C	0.954068	0.201103	-0.379841
H65	H	0.965341	0.300007	-0.491333
H66	H	0.823161	0.298008	-0.380793
H67	H	0.834801	0.249172	-0.546416
H68	H	1.009532	0.218182	-0.287843
H69	H	1.021034	0.169423	-0.453553
H70	H	1.490584	-0.109113	0.226134
H71	H	1.487061	-0.241244	0.226145
H72	H	1.478757	-0.553218	-0.225960
H73	H	1.095611	0.055499	-0.323657
H74	H	0.864143	0.101008	0.226178
O75	O	1.598004	0.257643	-0.374946
C76	C	1.506753	0.375551	-0.422734
C77	C	1.561652	0.304509	-0.482947
H78	H	1.477323	0.413457	-0.510023
H79	H	1.581279	0.397941	-0.356830
H80	H	1.420926	0.367828	-0.356756
H81	H	1.647463	0.312173	-0.548987
H82	H	1.487047	0.282143	-0.548773
O83	O	1.486704	-0.247048	-0.245480
C84	C	1.375705	-0.321868	-0.390141
C85	C	1.376830	-0.281776	-0.253101
H86	H	1.286868	-0.349943	-0.396360
H87	H	1.462604	-0.361973	-0.396393
H88	H	1.376775	-0.283320	-0.479176
H89	H	1.375717	-0.320270	-0.163989
H90	H	1.289939	-0.241660	-0.246969
H91	H	1.345200	0.025203	-0.630448
H92	H	1.101774	0.104488	0.226144
H93	H	1.475270	-0.685331	0.226187
H94	H	1.745892	0.177724	-0.388884
H95	H	1.741552	0.172918	-0.616436
H96	H	1.076824	0.154667	-0.313032
