data_functionalizedCrystal
_audit_creation_method	'MofGen! by Chris Wilmer'
_symmetry_space_group_name_H-M	'P1'
_symmetry_Int_Tables_number	1
_symmetry_cell_setting	triclinic
loop_
_symmetry_equiv_pos_as_xyz
  x,y,z
_cell_length_a	8.497374
_cell_length_b	17.077402
_cell_length_c	17.077404
_cell_angle_alpha	90.023108
_cell_angle_beta	89.996537
_cell_angle_gamma	89.987778
loop_
_atom_site_label
_atom_site_type_symbol
_atom_site_fract_x
_atom_site_fract_y
_atom_site_fract_z
Zn1	Zn	0.891988	0.312640	-1.199930
Zn2	Zn	1.391988	0.812640	-0.699930
Zn3	Zn	0.628173	0.443874	-1.199874
Zn4	Zn	1.128173	0.943874	-0.699874
Zn5	Zn	0.628207	0.312627	-1.068699
Zn6	Zn	1.128207	0.812627	-0.568699
Zn7	Zn	0.891897	0.443868	-1.068630
Zn8	Zn	1.391897	0.943868	-0.568630
O9	O	0.760066	0.378252	-1.134283
O10	O	1.260066	0.878252	-0.634283
O11	O	0.857016	0.330056	-1.309770
O12	O	1.357016	0.830056	-0.809770
O13	O	0.407415	0.426461	-1.182479
O14	O	0.907415	0.926461	-0.682479
O15	O	0.663251	0.202782	-1.086159
O16	O	1.163251	0.702782	-0.586159
O17	O	0.663193	0.426474	-1.309729
O18	O	1.163193	0.926474	-0.809729
O19	O	0.857049	0.202791	-1.182574
O20	O	1.357049	0.702791	-0.682574
O21	O	0.407440	0.330034	-1.086105
O22	O	0.907440	0.830034	-0.586105
O23	O	0.663162	0.330028	-0.958843
O24	O	1.163162	0.830028	-0.458843
O25	O	1.112671	0.426463	-1.086042
O26	O	1.612671	0.926463	-0.586042
O27	O	0.856894	0.426450	-0.958792
O28	O	1.356894	0.926450	-0.458792
O29	O	1.112738	0.330050	-1.182508
O30	O	1.612738	0.830050	-0.682508
O31	O	0.663104	0.553720	-1.182412
O32	O	1.163104	1.053720	-0.682412
O33	O	0.856861	0.553716	-1.085988
O34	O	1.356861	1.053716	-0.585988
C35	C	0.760003	0.582200	-1.134208
C36	C	1.260003	1.082200	-0.634208
C37	C	0.760029	0.669450	-1.134247
C38	C	1.260029	1.169450	-0.634247
C39	C	0.760023	0.378238	-0.930336
C40	C	1.260023	0.878238	-0.430336
C41	C	0.760042	0.378251	-0.843086
C42	C	1.260042	0.878251	-0.343086
C43	C	0.760111	0.378267	-1.339028
C44	C	1.260111	0.878267	-0.839028
C45	C	0.760130	0.378273	-1.426277
C46	C	1.260130	0.878273	-0.926277
C47	C	1.171547	0.378253	-1.134278
C48	C	1.671547	0.878253	-0.634278
C49	C	1.350191	0.378262	-1.134279
C50	C	1.850191	0.878262	-0.634279
C51	C	0.760164	0.173508	-1.134381
C52	C	1.260164	0.673508	-0.634381
C53	C	0.760206	0.086258	-1.134422
C54	C	1.260206	0.586258	-0.634422
C55	C	0.659248	0.710416	-1.184506
C56	C	1.159248	1.210416	-0.684506
C57	C	0.659289	0.792397	-1.184545
C58	C	1.159289	1.292397	-0.684545
C59	C	0.760103	0.833409	-1.134319
C60	C	1.260103	1.333409	-0.634319
C61	C	0.860895	0.792437	-1.084058
C62	C	1.360895	1.292437	-0.584058
C63	C	0.860861	0.710458	-1.084024
C64	C	1.360861	1.210458	-0.584024
C65	C	0.860955	0.963307	-1.084130
C66	C	1.360955	1.463307	-0.584130
C67	C	0.860986	1.045291	-1.084163
C68	C	1.360986	1.545291	-0.584163
C69	C	0.659382	1.045246	-1.184651
C70	C	1.159382	1.545246	-0.684651
C71	C	0.659349	0.963267	-1.184618
C72	C	1.159349	1.463267	-0.684618
C73	C	0.760139	0.922300	-1.134355
C74	C	1.260139	1.422300	-0.634355
C75	C	0.860756	0.428533	-0.802090
C76	C	1.360756	0.928533	-0.302090
C77	C	0.860781	0.428535	-0.720109
C78	C	1.360781	0.928535	-0.220109
C79	C	0.760083	0.378257	-0.679126
C80	C	1.260083	0.878257	-0.179126
C81	C	0.659364	0.327969	-0.720128
C82	C	1.159364	0.827969	-0.220128
C83	C	0.659348	0.327964	-0.802107
C84	C	1.159348	0.827964	-0.302107
C85	C	0.659402	0.327985	-0.549258
C86	C	1.159402	0.827985	-0.049258
C87	C	0.659416	0.327991	-0.467273
C88	C	1.159416	0.827991	0.032727
C89	C	0.860835	0.428556	-0.467260
C90	C	1.360835	0.928556	0.032740
C91	C	0.860819	0.428551	-0.549239
C92	C	1.360819	0.928551	-0.049239
C93	C	0.760098	0.378263	-0.590235
C94	C	1.260098	0.878263	-0.090235
H95	H	0.577147	0.677029	-1.225403
H96	H	1.077147	1.177029	-0.725403
H97	H	0.942751	0.469478	-0.835452
H98	H	1.442751	0.969478	-0.335452
H99	H	0.943034	0.929955	-1.043203
H100	H	1.443034	1.429955	-0.543203
H101	H	0.942807	0.469495	-0.582606
H102	H	1.442807	0.969495	-0.082606
H103	H	0.577381	0.287029	-0.686753
H104	H	1.077381	0.787029	-0.186753
H105	H	0.577320	1.078605	-1.225580
H106	H	1.077320	1.578605	-0.725580
H107	H	0.942929	0.677104	-1.043098
H108	H	1.442929	1.177104	-0.543098
H109	H	0.942850	0.469499	-0.433878
H110	H	1.442850	0.969499	0.066122
H111	H	0.942986	0.825836	-1.043166
H112	H	1.442986	1.325836	-0.543166
H113	H	0.577398	0.287028	-0.582634
H114	H	1.077398	0.787028	-0.082634
H115	H	0.577345	0.287015	-0.835485
H116	H	1.077345	0.787015	-0.335485
H117	H	0.942791	0.469481	-0.686734
H118	H	1.442791	0.969481	-0.186734
H119	H	0.577437	0.287041	-0.433907
H120	H	1.077437	0.787041	0.066093
H121	H	0.577222	0.825748	-1.225471
H122	H	1.077222	1.325748	-0.725471
H123	H	0.577251	0.929875	-1.225511
H124	H	1.077251	1.429875	-0.725511
H125	H	0.943108	1.078682	-1.043279
H126	H	1.443108	1.578682	-0.543279
