data_functionalizedCrystal
_audit_creation_method	'MofGen! by Chris Wilmer'
_symmetry_space_group_name_H-M	'P1'
_symmetry_Int_Tables_number	1
_symmetry_cell_setting	triclinic
loop_
_symmetry_equiv_pos_as_xyz
  x,y,z
_cell_length_a	17.019294
_cell_length_b	14.853567
_cell_length_c	13.930277
_cell_angle_alpha	89.995755
_cell_angle_beta	86.116472
_cell_angle_gamma	83.514509
loop_
_atom_site_label
_atom_site_type_symbol
_atom_site_fract_x
_atom_site_fract_y
_atom_site_fract_z
O1	O	0.102989	1.196089	-0.088277
O2	O	0.115258	0.933596	-0.089307
O3	O	-0.005701	1.072165	-0.079295
O4	O	0.223948	1.057520	-0.098289
O5	O	-0.005704	1.072146	0.080367
O6	O	0.115255	0.933577	0.070355
O7	O	0.102987	1.196070	0.071385
Zn8	Zn	0.109121	1.064820	0.096220
Zn9	Zn	0.109124	1.064846	-0.114142
O10	O	0.223946	1.057501	0.061373
C11	C	0.114701	0.899999	-0.009432
C12	C	0.113035	0.799920	-0.009301
C13	C	-0.035092	1.071600	0.002965
C14	C	-0.122664	1.069933	0.010201
C15	C	0.034141	0.387600	-0.002754
C16	C	0.177843	0.365930	-0.014640
C17	C	0.179409	0.459959	-0.014773
C18	C	0.108340	0.517814	-0.008898
C19	C	0.035705	0.481639	-0.002889
C20	C	0.252043	0.496141	-0.020791
C21	C	0.253613	0.590176	-0.020925
C22	C	0.182543	0.648032	-0.015042
C23	C	0.109904	0.611852	-0.009033
C24	C	0.038836	0.669707	-0.003157
C25	C	-0.033804	0.633529	0.002859
C26	C	-0.035365	0.539495	0.002993
C27	C	0.184104	0.742066	-0.015176
C28	C	0.040400	0.763745	-0.003293
C29	C	-0.163800	1.069163	-0.073430
C30	C	-0.246083	1.067592	-0.066628
C31	C	-0.287229	1.066797	0.023807
C32	C	-0.246087	1.067565	0.107445
C33	C	-0.163805	1.069130	0.100641
C34	C	-0.535667	1.062065	0.048703
C35	C	-0.617955	1.060503	0.055500
C36	C	-0.617945	1.060528	-0.118573
C37	C	-0.535662	1.062099	-0.125369
C38	C	-0.494527	1.062862	-0.041731
C39	C	-0.371336	1.065194	0.030762
C40	C	-0.410421	1.064458	-0.048687
C41	C	0.253337	1.058066	-0.020889
C42	C	0.340909	1.059733	-0.028132
C43	C	0.103544	1.229667	-0.008492
C44	C	0.105210	1.329746	-0.008630
N45	N	0.109118	1.064810	0.239786
N46	N	0.109121	1.064863	-0.257708
C47	C	0.162664	1.003485	0.687623
C48	C	0.055578	1.126231	0.696457
C49	C	0.055576	1.126220	0.595961
C50	C	0.109119	1.064842	0.541292
C51	C	0.162664	1.003474	0.587118
C52	C	0.002037	1.187593	0.550127
C53	C	0.002033	1.187585	0.449625
C54	C	0.055573	1.126202	0.394954
C55	C	0.109120	1.064831	0.440787
C56	C	0.162663	1.003453	0.386118
C57	C	0.216207	0.942077	0.431948
C58	C	0.216204	0.942091	0.532447
C59	C	0.055575	1.126188	0.294455
C60	C	0.162663	1.003442	0.285612
H61	H	-0.017474	0.810846	0.001496
H62	H	-0.041566	1.237559	0.412316
F63	F	-0.001402	1.191509	0.245684
F64	F	-0.112665	0.500985	0.009392
F65	F	-0.491877	1.062946	-0.221622
F66	F	0.273187	0.876777	0.581227
F67	F	0.253475	0.304355	-0.020905
F68	F	0.327674	0.434565	-0.027057
F69	F	-0.043163	0.349097	0.003653
H70	H	0.312759	0.619624	-0.025824
H71	H	-0.130305	1.069815	-0.147072
H72	H	0.243245	0.771518	-0.020073
H73	H	-0.651454	1.059851	0.129146
H74	H	-0.279572	1.066968	-0.134730
F75	F	0.219644	0.938164	0.736398
H76	H	-0.091668	0.680646	0.007636
H77	H	-0.279594	1.066912	0.181079
H78	H	-0.651446	1.059906	-0.186666
F79	F	-0.120026	1.069948	0.189654
H80	H	-0.502187	1.062704	0.116807
F81	F	-0.415133	1.064344	0.127007
F82	F	-0.366629	1.065307	-0.144932
F83	F	0.219649	0.938109	0.227437
H84	H	0.259805	0.892106	0.387425
H85	H	0.011989	1.176208	0.740971
H86	H	-0.041553	1.237570	0.594641
