data_functionalizedCrystal
_audit_creation_method	'MofGen! by Chris Wilmer'
_symmetry_space_group_name_H-M	'P1'
_symmetry_Int_Tables_number	1
_symmetry_cell_setting	triclinic
loop_
_symmetry_equiv_pos_as_xyz
  x,y,z
_cell_length_a	14.628931
_cell_length_b	12.478028
_cell_length_c	12.477989
_cell_angle_alpha	118.863459
_cell_angle_beta	90.000222
_cell_angle_gamma	57.041415
loop_
_atom_site_label
_atom_site_type_symbol
_atom_site_fract_x
_atom_site_fract_y
_atom_site_fract_z
Zr1	Zr	0.794616	1.263445	0.242506
O2	O	0.641274	1.484834	0.423052
O3	O	0.854150	1.026089	0.172409
O4	O	0.850045	1.240421	0.401782
O5	O	0.634368	1.294231	0.029524
O6	O	1.000477	1.240421	0.401783
O7	O	0.645380	1.270503	0.193679
O8	O	1.007821	0.857021	-0.008524
O9	O	0.627024	1.677632	0.439831
O10	O	0.976672	1.129630	0.160334
O11	O	0.856189	1.147339	0.037826
O12	O	0.851354	1.399687	0.307884
O13	O	0.730871	1.417395	0.185377
Zr14	Zr	1.016975	1.301289	-0.019302
Zr15	Zr	1.034537	1.263445	0.242506
Zr16	Zr	0.777054	1.301289	-0.019303
Zr17	Zr	0.771888	1.570934	0.269266
Zr18	Zr	1.039703	0.993800	-0.046062
O19	O	0.957441	1.538644	0.050795
O20	O	0.982411	1.484834	0.423053
O21	O	0.616303	1.538645	0.050794
O22	O	1.170317	1.079899	-0.199849
O23	O	1.195288	1.026089	0.172410
O24	O	0.829180	1.079899	-0.199849
O25	O	1.177223	1.270502	0.193680
O26	O	0.961546	1.324313	-0.178579
O27	O	0.811115	1.324313	-0.178579
O28	O	1.166211	1.294231	0.029525
O29	O	0.817729	1.677632	0.439831
O30	O	0.993862	0.887102	-0.216628
O31	O	1.184567	0.887102	-0.216627
O32	O	1.198527	0.857021	-0.008524
O33	O	0.613064	1.707713	0.231728
O34	O	0.803770	1.707713	0.231728
O35	O	0.960237	1.165047	-0.084681
O36	O	1.080720	1.147339	0.037827
O37	O	0.955402	1.417395	0.185377
O38	O	0.834919	1.435104	0.062870
C39	C	0.934224	0.897744	0.078130
C40	C	0.943872	0.767207	0.066769
C41	C	0.605690	1.282367	0.111601
C42	C	0.503837	1.282367	0.111601
C43	C	0.464193	1.269944	0.197545
C44	C	0.358923	1.269943	0.197547
C45	C	1.205901	1.282367	0.111602
C46	C	1.307754	1.282367	0.111603
C47	C	0.927763	1.235029	0.439085
C48	C	0.935218	1.218963	0.550229
C49	C	0.877367	1.666990	0.145074
C50	C	0.867719	1.797527	0.156434
C51	C	0.883828	1.329705	0.784119
C52	C	0.876373	1.345771	0.672974
C53	C	1.234329	0.897744	0.078130
C54	C	1.345831	0.767207	0.066770
C55	C	0.912257	0.945082	-0.249353
C56	C	0.914450	0.830611	-0.371858
C57	C	1.212362	0.945082	-0.249353
C58	C	1.316408	0.830611	-0.371857
C59	C	0.599229	1.619652	0.472556
C60	C	0.495183	1.734123	0.595061
C61	C	0.577262	1.666990	0.145073
C62	C	0.465760	1.797527	0.156433
C63	C	0.899334	1.619652	0.472557
C64	C	0.897141	1.734123	0.595062
C65	C	1.343882	0.696660	0.125394
C66	C	1.448640	0.574019	0.114746
C67	C	1.555347	0.521921	0.045466
C68	C	1.557292	0.592480	-0.013159
C69	C	1.452535	0.715126	-0.002502
C70	C	0.467709	1.868085	0.097822
C71	C	0.362950	1.990755	0.108501
C72	C	0.256244	2.042857	0.177785
C73	C	0.254298	1.972293	0.236404
C74	C	0.359056	1.849633	0.225732
C75	C	1.373128	0.670624	-0.438631
C76	C	1.470903	0.563045	-0.553727
C77	C	1.511951	0.615457	-0.602052
C78	C	1.455225	0.775459	-0.535268
C79	C	1.357457	0.883034	-0.420169
C80	C	0.438471	1.894109	0.661844
C81	C	0.340719	2.001684	0.776963
C82	C	0.299676	1.949271	0.825292
C83	C	0.356397	1.789269	0.758502
C84	C	0.454152	1.681697	0.643391
H85	H	0.508189	1.259299	0.271121
O86	O	1.296334	1.055577	-0.348182
H87	H	1.204389	1.116640	-0.343098
H88	H	0.341858	1.293012	0.038023
O89	O	1.668332	0.389640	0.033981
H90	H	1.720749	0.291636	-0.070968
H91	H	0.820296	1.466627	0.693033
H92	H	0.959498	0.794226	-0.470863
O93	O	1.672386	0.536271	-0.087894
H94	H	1.744894	0.439122	-0.085462
H95	H	0.991306	1.098099	0.530172
H96	H	1.447033	0.516584	0.162487
H97	H	1.257006	0.739074	0.181824
O98	O	1.454643	0.791192	-0.065759
H99	H	1.546446	0.734336	-0.115734
O100	O	0.582793	1.811924	0.023114
H101	H	0.566529	1.881629	-0.015822
O102	O	1.040027	0.600523	-0.046436
H103	H	1.125934	0.572403	-0.044391
O104	O	0.804150	0.818957	-0.234575
H105	H	0.811697	0.904363	-0.155700
O106	O	0.482742	1.950656	0.609742
H107	H	0.426883	2.079979	0.675546
H108	H	0.294547	2.131958	0.831326
O109	O	1.499507	0.831965	-0.587413
H110	H	1.524022	0.896622	-0.513095
H111	H	0.364557	2.048190	0.060760
O112	O	0.313740	1.255866	0.295028
H113	H	0.238149	1.258072	0.279731
O114	O	0.445583	1.296449	0.014121
H115	H	0.352781	1.402475	0.067439
H116	H	0.500316	1.551430	0.589018
H117	H	0.795139	0.923353	0.241897
H118	H	0.170952	2.142737	0.186465
H119	H	0.167403	2.014734	0.292815
O120	O	0.356949	1.773519	0.288938
H121	H	0.265146	1.830356	0.338892
O122	O	0.194231	2.065303	0.949443
H123	H	0.161690	2.185356	0.987746
O124	O	1.328877	0.614074	-0.386508
H125	H	1.384768	0.484747	-0.452280
H126	H	1.517072	0.432772	-0.608092
H127	H	1.591561	0.527846	-0.695775
H128	H	0.322964	1.746615	0.797869
