data_functionalizedCrystal
_audit_creation_method	'MofGen! by Chris Wilmer'
_symmetry_space_group_name_H-M	'P1'
_symmetry_Int_Tables_number	1
_symmetry_cell_setting	triclinic
loop_
_symmetry_equiv_pos_as_xyz
  x,y,z
_cell_length_a	15.995350
_cell_length_b	15.995350
_cell_length_c	15.072220
_cell_angle_alpha	89.992853
_cell_angle_beta	89.997587
_cell_angle_gamma	96.507625
loop_
_atom_site_label
_atom_site_type_symbol
_atom_site_fract_x
_atom_site_fract_y
_atom_site_fract_z
O1	O	1.110984	-0.107932	0.073647
O2	O	0.867209	-0.121260	0.073677
O3	O	0.995760	0.007292	0.073660
O4	O	0.982433	-0.236484	0.073664
O5	O	0.995752	0.007307	-0.073905
O6	O	0.867200	-0.121244	-0.073888
O7	O	1.110976	-0.107917	-0.073918
Zn8	Zn	0.989087	-0.114578	-0.097332
Zn9	Zn	0.989098	-0.114599	0.097091
O10	O	0.982424	-0.236468	-0.073902
C11	C	0.836010	-0.120701	-0.000102
C12	C	0.743060	-0.119049	-0.000090
C13	C	0.995205	0.038494	-0.000121
C14	C	0.993553	0.131444	-0.000115
N15	N	0.989085	-0.114564	-0.230021
C16	C	1.142175	-0.108476	-0.000138
C17	C	1.235125	-0.110127	-0.000143
C18	C	1.572873	-0.116060	-0.000108
C19	C	1.525439	-0.207612	-0.000440
C20	C	1.428748	-0.205959	-0.000117
C21	C	1.405312	-0.113117	-0.000126
C22	C	1.446378	-0.067969	0.084142
C23	C	1.543013	-0.070269	0.084222
C24	C	1.543395	-0.068361	-0.083587
C25	C	1.446450	-0.068382	-0.084710
C26	C	1.310615	-0.111449	-0.000133
C27	C	1.667570	-0.117725	-0.000094
C28	C	0.982980	-0.267671	-0.000119
C29	C	0.984631	-0.360621	-0.000118
C30	C	0.987621	0.469192	-0.000118
C31	C	0.896069	0.421758	0.000225
C32	C	0.897721	0.325068	-0.000108
C33	C	0.990564	0.301631	-0.000116
C34	C	1.035715	0.342718	-0.084387
C35	C	1.033416	0.439353	-0.084457
C36	C	1.035316	0.439694	0.083352
C37	C	1.035295	0.342748	0.084465
C38	C	0.992231	0.206934	-0.000118
C39	C	0.985956	0.563890	-0.000122
C40	C	0.989099	-0.114592	-0.589223
C41	C	1.058107	-0.046036	-0.551597
C42	C	1.057927	-0.045783	-0.448771
C43	C	0.989093	-0.114578	-0.411019
C44	C	0.901736	-0.095497	-0.448351
C45	C	0.902144	-0.095013	-0.551209
C46	C	1.006660	-0.202431	-0.551301
C47	C	1.008643	-0.201842	-0.448437
C48	C	0.989084	-0.114572	-0.310305
C49	C	0.989102	-0.114597	-0.689936
N50	N	0.989106	-0.114606	0.229780
H51	H	1.400334	-0.241453	-0.060520
N52	N	1.139842	-0.060075	-0.582619
N53	N	1.148192	-0.120767	-0.632825
H54	H	1.205920	-0.130686	-0.654737
H55	H	1.002283	0.315493	0.146807
N56	N	1.120223	0.323457	0.090845
N57	N	1.149297	0.278897	0.032895
H58	H	1.209280	0.265268	0.037397
N59	N	0.835760	-0.156472	-0.417689
N60	N	0.837203	-0.232562	-0.435757
H61	H	0.790608	-0.275628	-0.414102
H62	H	1.561305	-0.103206	0.147215
N63	N	0.996380	0.307135	-0.163063
N64	N	1.038060	0.270007	-0.217593
H65	H	1.010276	0.244878	-0.273157
H66	H	0.956338	-0.253448	-0.575637
N67	N	1.427168	0.016549	-0.091113
N68	N	1.352294	0.031455	-0.096474
H69	H	1.338675	0.091441	-0.100989
N70	N	1.569168	-0.105885	-0.163717
N71	N	1.616415	-0.063400	-0.217047
H72	H	1.634617	-0.089908	-0.273636
N73	N	0.850358	0.446302	-0.075169
N74	N	0.775858	0.415458	-0.087080
H75	H	0.743579	0.432785	-0.140334
N76	N	0.949682	-0.268857	-0.416223
N77	N	0.974815	-0.327186	-0.371941
H78	H	0.933167	-0.374518	-0.349197
H79	H	1.400875	-0.241698	0.060391
H80	H	1.068999	-0.220770	-0.577243
N81	N	0.852882	0.290113	-0.076003
N82	N	0.776891	0.299394	-0.085858
H83	H	0.745221	0.274708	-0.139462
H84	H	0.886666	-0.030953	-0.575207
H85	H	1.575261	-0.003054	0.088057
H86	H	1.102817	0.471455	0.083912
H87	H	1.419160	-0.101349	-0.147051
N88	N	1.044241	0.035276	-0.584033
N89	N	1.045245	0.049365	-0.665623
H90	H	1.035448	0.106791	-0.688532
N91	N	0.881857	-0.016042	-0.416053
N92	N	0.929452	0.049482	-0.433011
H93	H	0.915419	0.105601	-0.410202
N94	N	1.548701	-0.253503	-0.076246
N95	N	1.600514	-0.219276	-0.130912
H96	H	1.616949	-0.251687	-0.184453
H97	H	1.417964	-0.099318	0.146850
N98	N	0.997790	0.465446	0.163491
N99	N	1.040276	0.512679	0.216818
H100	H	1.013768	0.530866	0.273415
N101	N	1.428656	0.017598	0.088057
N102	N	1.385458	0.046327	0.028644
H103	H	1.372941	0.106759	0.031406
N104	N	0.835794	-0.155265	-0.582450
N105	N	0.852387	-0.215202	-0.630063
H106	H	0.805524	-0.257751	-0.652123
N107	N	0.853192	0.289411	0.075675
N108	N	0.820672	0.335930	0.129180
H109	H	0.789217	0.310752	0.182703
H110	H	1.575153	-0.000859	-0.084154
H111	H	0.859480	0.440283	0.060657
N112	N	1.139368	-0.060119	-0.417114
N113	N	1.196739	-0.070378	-0.470986
H114	H	1.254253	-0.080529	-0.448633
H115	H	1.545023	-0.244047	0.059656
N116	N	0.992102	0.462314	-0.163477
N117	N	0.965163	0.406994	-0.218188
H118	H	0.935983	0.423204	-0.273998
H119	H	1.046706	0.019403	-0.424173
H120	H	1.072906	-0.216320	-0.424038
H121	H	1.100631	0.471602	-0.088286
H122	H	1.103924	0.328592	-0.087526
