data_functionalizedCrystal
_audit_creation_method	'MofGen! by Chris Wilmer'
_symmetry_space_group_name_H-M	'P1'
_symmetry_Int_Tables_number	1
_symmetry_cell_setting	triclinic
loop_
_symmetry_equiv_pos_as_xyz
  x,y,z
_cell_length_a	16.625548
_cell_length_b	16.625546
_cell_length_c	16.625525
_cell_angle_alpha	89.905447
_cell_angle_beta	89.938871
_cell_angle_gamma	90.023536
loop_
_atom_site_label
_atom_site_type_symbol
_atom_site_fract_x
_atom_site_fract_y
_atom_site_fract_z
Zn1	Zn	1.233003	-0.320467	-0.455899
Zn2	Zn	1.232811	-0.455461	-0.321061
Zn3	Zn	1.098070	-0.320648	-0.321079
Zn4	Zn	1.098136	-0.455263	-0.455851
O5	O	1.165505	-0.387960	-0.388472
O6	O	1.345810	-0.338380	-0.438025
O7	O	1.214829	-0.437736	-0.208230
O8	O	1.116022	-0.207792	-0.338991
O9	O	1.345669	-0.437560	-0.338960
O10	O	1.215157	-0.207658	-0.438042
O11	O	1.115835	-0.338690	-0.208244
O12	O	0.985246	-0.338499	-0.338944
O13	O	1.116134	-0.437224	-0.568690
O14	O	0.985294	-0.437400	-0.437961
O15	O	1.215221	-0.338189	-0.568725
O16	O	1.214893	-0.568267	-0.338913
O17	O	1.115948	-0.568122	-0.437943
C18	C	0.956014	-0.387948	-0.388450
C19	C	0.866393	-0.387963	-0.388459
C20	C	0.538217	-0.387968	-0.388494
C21	C	0.629526	-0.387964	-0.388482
C22	C	0.702302	-0.387966	-0.388476
C23	C	0.793617	-0.387961	-0.388465
C24	C	1.165429	-0.597451	-0.388439
C25	C	1.165470	-0.687072	-0.388451
C26	C	1.165610	-1.015247	-0.388535
C27	C	1.165569	-0.923939	-0.388514
C28	C	1.165539	-0.851162	-0.388493
C29	C	1.165499	-0.759848	-0.388472
C30	C	1.375814	-0.387972	-0.388495
C31	C	1.465435	-0.387977	-0.388505
C32	C	1.165706	-0.387664	-0.598782
C33	C	1.165792	-0.387538	-0.688403
C34	C	1.165604	-0.177651	-0.388524
C35	C	1.165646	-0.088030	-0.388546
C36	C	1.165351	-0.388196	-0.178981
C37	C	1.165421	-0.388095	-0.089360
C38	C	1.165492	-0.388000	-0.016578
C39	C	1.165578	-0.387874	0.074730
C40	C	1.165643	-0.387769	0.147506
C41	C	1.165728	-0.387643	0.238820
