data_functionalizedCrystal
_audit_creation_method	'MofGen! by Chris Wilmer'
_symmetry_space_group_name_H-M	'P1'
_symmetry_Int_Tables_number	1
_symmetry_cell_setting	triclinic
loop_
_symmetry_equiv_pos_as_xyz
  x,y,z
_cell_length_a	12.837943
_cell_length_b	13.596369
_cell_length_c	12.837942
_cell_angle_alpha	89.994711
_cell_angle_beta	85.171060
_cell_angle_gamma	90.004014
loop_
_atom_site_label
_atom_site_type_symbol
_atom_site_fract_x
_atom_site_fract_y
_atom_site_fract_z
O1	O	1.402337	0.081773	-0.272142
O2	O	1.735670	0.415106	0.061191
O3	O	2.069004	0.748440	0.394524
O4	O	1.099204	0.081779	-0.258699
O5	O	1.432537	0.415112	0.074634
O6	O	1.765870	0.748445	0.407968
O7	O	1.244049	0.081770	-0.113854
O8	O	1.577382	0.415103	0.219479
O9	O	1.910715	0.748437	0.552813
O10	O	1.257492	0.081782	-0.416987
O11	O	1.590825	0.415115	-0.083654
O12	O	1.924159	0.748448	0.249679
O13	O	1.244032	-0.081813	-0.113844
O14	O	1.577365	0.251520	0.219490
O15	O	1.910698	0.584854	0.552823
O16	O	1.099187	-0.081804	-0.258689
O17	O	1.432520	0.251529	0.074644
O18	O	1.765853	0.584863	0.407978
O19	O	1.402320	-0.081810	-0.272132
O20	O	1.735654	0.251523	0.061201
O21	O	2.068987	0.584857	0.394534
Zn22	Zn	1.250751	-0.107779	-0.265409
Zn23	Zn	1.584084	0.225554	0.067924
Zn24	Zn	1.917417	0.558887	0.401258
Zn25	Zn	1.250773	0.107748	-0.265422
Zn26	Zn	1.584106	0.441082	0.067911
Zn27	Zn	1.917440	0.774415	0.401244
O28	O	1.257475	-0.081801	-0.416977
O29	O	1.590808	0.251532	-0.083644
O30	O	1.924142	0.584866	0.249689
C31	C	1.060126	-0.000012	-0.254153
C32	C	1.393459	0.333321	0.079181
C33	C	1.726793	0.666655	0.412514
C34	C	0.943711	-0.000010	-0.240608
C35	C	1.277044	0.333323	0.092725
C36	C	1.610378	0.666657	0.426059
N37	N	1.250743	-0.254871	-0.265400
N38	N	1.584077	0.078462	0.067933
N39	N	1.917410	0.411795	0.401267
C40	C	0.718837	-0.000018	-0.403437
C41	C	1.052170	0.333316	-0.070104
C42	C	1.385503	0.666649	0.263229
C43	C	0.609454	-0.000016	-0.390716
C44	C	0.942788	0.333317	-0.057383
C45	C	1.276121	0.666650	0.275951
C46	C	0.615562	-0.000013	-0.202445
C47	C	0.948895	0.333320	0.130888
C48	C	1.282228	0.666653	0.464222
C49	C	0.724944	-0.000014	-0.215166
C50	C	1.058277	0.333319	0.118167
C51	C	1.391611	0.666652	0.451500
C52	C	0.776578	-0.000015	-0.315666
C53	C	1.109911	0.333318	0.017668
C54	C	1.443244	0.666652	0.351001
C55	C	0.885962	-0.000009	-0.328386
C56	C	1.219295	0.333324	0.004947
C57	C	1.552629	0.666657	0.338280
C58	C	0.892067	-0.000013	-0.140116
C59	C	1.225401	0.333320	0.193217
C60	C	1.558734	0.666653	0.526551
C61	C	0.782685	-0.000012	-0.127395
C62	C	1.116018	0.333321	0.205939
C63	C	1.449352	0.666655	0.539272
C64	C	1.250772	-0.656162	-0.265423
C65	C	1.584105	-0.322829	0.067910
C66	C	1.917438	0.010505	0.401244
C67	C	1.250761	-0.544511	-0.265420
C68	C	1.584094	-0.211177	0.067913
C69	C	1.917428	0.122156	0.401247
C70	C	1.250758	-0.455520	-0.265412
C71	C	1.584091	-0.122187	0.067921
C72	C	1.917425	0.211146	0.401254
C73	C	1.250746	-0.343862	-0.265407
C74	C	1.584080	-0.010528	0.067926
C75	C	1.917413	0.322805	0.401259
C76	C	1.441398	-0.000017	-0.276679
C77	C	1.774731	0.333316	0.056655
C78	C	2.108064	0.666650	0.389988
C79	C	1.557813	-0.000013	-0.290223
C80	C	1.891146	0.333321	0.043110
C81	C	2.224479	0.666654	0.376444
C82	C	1.239499	-0.000021	-0.074780
C83	C	1.572832	0.333312	0.258554
C84	C	1.906165	0.666646	0.591887
C85	C	1.225954	-0.000019	0.041635
C86	C	1.559288	0.333314	0.374969
C87	C	1.892621	0.666648	0.708302
N88	N	1.250788	0.254840	-0.265424
N89	N	1.584121	0.588173	0.067910
N90	N	1.917455	0.921507	0.401243
C91	C	1.262025	-0.000008	-0.456051
C92	C	1.595358	0.333325	-0.122718
C93	C	1.928692	0.666659	0.210615
C94	C	1.275569	-0.000004	-0.572467
C95	C	1.608903	0.333330	-0.239133
C96	C	1.942236	0.666663	0.094200
C97	C	1.388784	-0.000002	0.266510
C98	C	1.722117	0.333332	0.599843
C99	C	2.055450	0.666665	0.933176
C100	C	1.376062	0.000000	0.375892
C101	C	1.709396	0.333334	0.709225
C102	C	2.042729	0.666667	1.042559
C103	C	1.187791	-0.000006	0.369785
C104	C	1.521125	0.333327	0.703118
C105	C	1.854458	0.666660	1.036451
C106	C	1.200513	-0.000008	0.260402
C107	C	1.533846	0.333325	0.593736
C108	C	1.867179	0.666658	0.927069
C109	C	1.301012	-0.000007	0.208769
C110	C	1.634345	0.333326	0.542102
C111	C	1.967679	0.666659	0.875435
C112	C	1.313732	-0.000016	0.099384
C113	C	1.647066	0.333317	0.432717
C114	C	1.980399	0.666650	0.766051
C115	C	1.125462	-0.000016	0.093279
C116	C	1.458796	0.333318	0.426612
C117	C	1.792129	0.666651	0.759946
C118	C	1.112741	-0.000014	0.202661
C119	C	1.446074	0.333319	0.535995
C120	C	1.779408	0.666653	0.869328
H121	H	0.928000	-0.000012	-0.410218
H122	H	1.261334	0.333322	-0.076884
H123	H	1.594667	0.666655	0.256449
F124	F	1.420691	-0.000022	0.044433
F125	F	1.754025	0.333312	0.377767
F126	F	2.087358	0.666645	0.711100
F127	F	1.495741	-0.000021	0.211555
F128	F	1.829074	0.333312	0.544888
F129	F	2.162407	0.666645	0.878221
F130	F	1.469481	0.000009	0.437341
F131	F	1.802815	0.333343	0.770674
F132	F	2.136148	0.666676	1.104007
H133	H	0.760878	-0.000017	-0.485268
H134	H	1.094211	0.333317	-0.151935
H135	H	1.427544	0.666650	0.181399
H136	H	0.573502	-0.000094	-0.120623
H137	H	0.906836	0.333240	0.212711
H138	H	1.240169	0.666573	0.546044
F139	F	1.032043	-0.000032	0.031819
F140	F	1.365377	0.333301	0.365152
F141	F	1.698710	0.666635	0.698486
F142	F	1.080841	0.000017	0.424755
F143	F	1.414174	0.333350	0.758088
F144	F	1.747508	0.666684	1.091421
H145	H	0.562446	-0.000021	-0.462189
H146	H	0.895779	0.333312	-0.128856
H147	H	1.229112	0.666646	0.204477
F148	F	0.727721	-0.000015	-0.020442
F149	F	1.061055	0.333319	0.312892
F150	F	1.394388	0.666652	0.646225
F151	F	0.953527	0.000002	-0.046697
F152	F	1.286861	0.333335	0.286636
F153	F	1.620194	0.666668	0.619970
H154	H	1.030917	-0.000011	0.244717
H155	H	1.364250	0.333322	0.578050
H156	H	1.697583	0.666656	0.911383
