data_functionalizedCrystal
_audit_creation_method	'MofGen! by Chris Wilmer'
_symmetry_space_group_name_H-M	'P1'
_symmetry_Int_Tables_number	1
_symmetry_cell_setting	triclinic
loop_
_symmetry_equiv_pos_as_xyz
  x,y,z
_cell_length_a	10.540514
_cell_length_b	14.044220
_cell_length_c	13.101039
_cell_angle_alpha	86.332523
_cell_angle_beta	86.608242
_cell_angle_gamma	91.147981
loop_
_atom_site_label
_atom_site_type_symbol
_atom_site_fract_x
_atom_site_fract_y
_atom_site_fract_z
O1	O	1.705806	-0.128379	-0.085231
O2	O	1.337665	-0.140999	-0.085230
O3	O	1.516209	0.003332	-0.085220
O4	O	1.527262	-0.272710	-0.085241
O5	O	1.503401	-0.007041	0.085209
O6	O	1.324857	-0.151372	0.085199
O7	O	1.692998	-0.138752	0.085198
Zn8	Zn	1.506894	-0.146709	0.112258
Zn9	Zn	1.523769	-0.133042	-0.112290
O10	O	1.514454	-0.283083	0.085188
C11	C	1.283862	-0.145244	-0.000016
C12	C	1.142628	-0.142428	-0.000015
C13	C	1.082359	-0.245652	-0.000025
C14	C	0.935482	-0.242733	-0.000417
C15	C	0.951915	-0.080377	-0.097151
C16	C	1.098826	-0.084000	-0.097227
C17	C	1.084509	-0.094269	0.096589
C18	C	0.937334	-0.093350	0.097861
C19	C	1.504967	0.033492	-0.000005
C20	C	1.490537	0.138815	-0.000004
C21	C	1.746801	-0.134506	-0.000019
C22	C	1.888036	-0.137322	-0.000026
C23	C	1.525696	-0.313243	-0.000029
C24	C	1.540126	-0.418565	-0.000037
N25	N	1.495386	-0.156035	0.265506
C26	C	1.464157	0.331654	-0.000019
C27	C	1.566500	0.388601	-0.000022
C28	C	1.551822	0.495904	-0.000030
C29	C	1.478834	0.224342	-0.000011
N30	N	1.535286	-0.123708	-0.265538
C31	C	1.479730	-0.168733	0.474548
C32	C	1.550939	-0.111013	0.525427
C33	C	1.542227	-0.118078	0.641745
C34	C	1.488439	-0.161669	0.358219
H35	H	0.904916	-0.016874	0.104020
H36	H	0.922022	-0.002736	-0.100483
O37	O	1.346572	0.369774	0.000031
C38	C	1.357913	0.469978	0.000000
H39	H	1.452045	0.490466	0.032256
H40	H	1.354835	0.502542	-0.081764
C41	C	1.131686	0.482608	0.027227
C42	C	1.247296	0.507771	0.066853
H43	H	1.063450	0.505922	0.068461
H44	H	1.124044	0.415099	0.027244
H45	H	1.129139	0.509746	-0.040908
H46	H	1.249848	0.480622	0.134982
H47	H	1.254936	0.575276	0.066849
O48	O	1.131781	-0.003539	0.097592
C49	C	1.216917	0.016401	0.011416
H50	H	1.254780	-0.053299	-0.016886
H51	H	1.165299	0.055729	-0.052070
C52	C	1.281993	0.164819	0.076037
C53	C	1.328505	0.079212	0.041281
H54	H	1.350823	0.203567	0.094456
H55	H	1.224632	0.151387	0.134093
H56	H	1.238977	0.197580	0.023126
H57	H	1.371505	0.046447	0.094196
H58	H	1.385876	0.092640	-0.016766
H59	H	1.618446	-0.056292	0.481629
H60	H	1.412229	-0.223452	0.518341
O61	O	1.119757	-0.140474	0.184473
C62	C	1.187651	-0.076586	0.241014
H63	H	1.229887	-0.015543	0.187254
H64	H	1.120563	-0.046727	0.301879
C65	C	1.243514	-0.204567	0.359205
C66	C	1.295397	-0.129597	0.293175
H67	H	1.309973	-0.237266	0.391385
H68	H	1.197768	-0.247609	0.321115
H69	H	1.187607	-0.179673	0.409917
H70	H	1.351290	-0.154492	0.242457
H71	H	1.341155	-0.086560	0.331257
H72	H	0.894709	-0.135019	0.169715
H73	H	1.665148	0.356774	-0.000091
H74	H	1.109898	-0.291765	0.069614
O75	O	0.883337	-0.295596	0.082736
C76	C	0.923690	-0.257705	0.172829
H77	H	1.016436	-0.215210	0.154630
H78	H	0.847882	-0.208810	0.204340
C79	C	0.830978	-0.391964	0.275611
C80	C	0.944896	-0.339776	0.253260
H81	H	0.844054	-0.442588	0.325228
H82	H	0.803786	-0.417490	0.214915
H83	H	0.767815	-0.351208	0.301865
H84	H	1.008051	-0.380530	0.226995
H85	H	0.972099	-0.314259	0.313955
H86	H	0.903055	-0.278438	-0.070455
O87	O	1.129706	-0.289677	-0.083078
C88	C	1.217134	-0.227613	-0.141155
H89	H	1.196142	-0.150673	-0.124314
H90	H	1.317846	-0.244860	-0.119907
C91	C	1.230731	-0.334954	-0.276734
C92	C	1.204941	-0.240454	-0.256056
H93	H	1.223215	-0.342876	-0.347609
H94	H	1.171832	-0.376769	-0.237605
H95	H	1.314656	-0.349315	-0.259019
H96	H	1.121012	-0.226098	-0.273758
H97	H	1.263825	-0.198636	-0.295190
H98	H	1.139478	-0.007922	-0.101369
O99	O	0.912004	-0.117008	-0.183692
C100	C	0.945543	-0.213615	-0.185163
H101	H	1.028720	-0.227132	-0.134776
H102	H	0.860793	-0.261024	-0.154811
C103	C	0.882147	-0.220243	-0.357723
C104	C	0.984313	-0.236842	-0.295842
H105	H	0.906057	-0.234573	-0.425995
H106	H	0.859546	-0.155159	-0.356731
H107	H	0.811531	-0.259752	-0.332417
H108	H	1.054921	-0.197326	-0.321140
H109	H	1.006927	-0.301921	-0.296841
O110	O	1.143616	-0.123021	-0.184244
C111	C	1.226356	-0.056921	-0.241608
H112	H	1.203669	0.018412	-0.219724
H113	H	1.328851	-0.073104	-0.224687
C114	C	1.236791	-0.157144	-0.383569
C115	C	1.208920	-0.064618	-0.356697
H116	H	1.226041	-0.161893	-0.454561
H117	H	1.181052	-0.201679	-0.344921
H118	H	1.322203	-0.170619	-0.369460
H119	H	1.123506	-0.051148	-0.370794
H120	H	1.264644	-0.020081	-0.395350
