data_functionalizedCrystal
_audit_creation_method	'MofGen! by Chris Wilmer'
_symmetry_space_group_name_H-M	'P1'
_symmetry_Int_Tables_number	1
_symmetry_cell_setting	triclinic
loop_
_symmetry_equiv_pos_as_xyz
  x,y,z
_cell_length_a	16.109301
_cell_length_b	10.489741
_cell_length_c	14.586319
_cell_angle_alpha	89.996488
_cell_angle_beta	89.999213
_cell_angle_gamma	84.000327
loop_
_atom_site_label
_atom_site_type_symbol
_atom_site_fract_x
_atom_site_fract_y
_atom_site_fract_z
O1	O	1.104141	0.163947	-0.076182
O2	O	1.604141	0.663947	0.423818
O3	O	0.862205	0.184350	-0.076196
O4	O	1.362205	0.684350	0.423804
O5	O	0.988678	-0.011529	-0.076183
O6	O	1.488678	0.488471	0.423817
O7	O	0.977668	0.359826	-0.076195
O8	O	1.477668	0.859826	0.423805
O9	O	0.988670	-0.011532	0.076298
O10	O	1.488670	0.488468	0.576298
O11	O	0.862196	0.184347	0.076284
O12	O	1.362196	0.684347	0.576284
O13	O	1.104132	0.163944	0.076299
O14	O	1.604132	0.663944	0.576299
Cu15	Cu	0.983164	0.174145	0.090214
Cu16	Cu	1.483164	0.674145	0.590214
Cu17	Cu	0.983174	0.174149	-0.090112
Cu18	Cu	1.483174	0.674149	0.409888
O19	O	0.977659	0.359823	0.076286
O20	O	1.477659	0.859823	0.576286
C21	C	0.831221	0.183522	0.000042
C22	C	1.331221	0.683522	0.500042
C23	C	0.738910	0.181044	0.000037
C24	C	1.238910	0.681044	0.500037
C25	C	0.517319	0.291514	0.000044
C26	C	1.017319	0.791514	0.500044
C27	C	0.430584	0.289175	0.000050
C28	C	0.930584	0.789175	0.500050
C29	C	0.449026	0.056771	0.000053
C30	C	0.949026	0.556771	0.500053
C31	C	0.535759	0.059111	0.000054
C32	C	1.035759	0.559111	0.500054
C33	C	0.569903	0.176486	0.000045
C34	C	1.069903	0.676486	0.500045
C35	C	0.396435	0.171808	0.000050
C36	C	0.896435	0.671808	0.500050
C37	C	0.302393	0.169272	0.000056
C38	C	0.802393	0.669272	0.500056
C39	C	0.663950	0.179022	0.000040
C40	C	1.163950	0.679022	0.500040
C41	C	0.987842	-0.059050	0.000057
C42	C	1.487842	0.440950	0.500057
C43	C	0.985354	-0.200644	0.000055
C44	C	1.485354	0.299356	0.500055
C45	C	0.904883	-0.267616	0.000043
C46	C	1.404883	0.232384	0.500043
C47	C	0.942893	-0.360292	0.075226
C48	C	1.442893	0.139708	0.575226
C49	C	0.942920	-0.360264	-0.075108
C50	C	1.442920	0.139736	0.424892
C51	C	1.023397	-0.291454	0.075300
C52	C	1.523397	0.208546	0.575300
C53	C	1.023414	-0.291417	-0.075102
C54	C	1.523414	0.208583	0.424898
C55	C	1.061482	-0.384066	0.000100
C56	C	1.561482	0.115934	0.500100
C57	C	1.135117	0.164772	0.000058
C58	C	1.635117	0.664772	0.500058
C59	C	1.227427	0.167250	0.000058
C60	C	1.727427	0.667250	0.500058
C61	C	0.978495	0.407344	0.000044
C62	C	1.478495	0.907344	0.500044
C63	C	0.980983	0.548938	0.000040
C64	C	1.480983	1.048938	0.500040
N65	N	0.983162	0.174142	0.217046
N66	N	1.483162	0.674142	0.717046
N67	N	0.983182	0.174142	-0.216944
N68	N	1.483182	0.674142	0.283056
C69	C	1.039183	0.087436	0.452058
C70	C	1.539183	0.587436	0.952058
C71	C	1.039186	0.087433	0.548040
C72	C	1.539186	0.587433	1.048040
C73	C	0.927155	0.260852	0.548038
C74	C	1.427155	0.760852	1.048038
C75	C	0.927149	0.260848	0.452058
C76	C	1.427149	0.760848	0.952058
C77	C	0.983168	0.174141	0.404071
C78	C	1.483168	0.674141	0.904071
C79	C	0.983176	0.174142	0.596032
C80	C	1.483176	0.674142	1.096032
C81	C	0.983178	0.174140	0.700099
C82	C	1.483178	0.674140	1.200099
C83	C	0.983165	0.174142	0.299997
C84	C	1.483165	0.674142	0.799997
H85	H	0.421215	-0.038791	0.000067
H86	H	0.921215	0.461209	0.500067
Cl87	Cl	0.890320	-0.407412	0.173356
Cl88	Cl	1.390320	0.092588	0.673356
Cl89	Cl	1.075945	-0.244240	-0.173236
Cl90	Cl	1.575945	0.255760	0.326764
Cl91	Cl	1.075917	-0.244625	0.173544
Cl92	Cl	1.575917	0.255375	0.673544
H93	H	0.881546	0.331449	0.587118
H94	H	1.381546	0.831449	1.087118
H95	H	0.881530	0.331455	0.412984
H96	H	1.381530	0.831455	0.912984
Cl97	Cl	1.163722	-0.461862	0.000167
Cl98	Cl	1.663722	0.038138	0.500167
Cl99	Cl	0.601870	-0.085508	0.000062
Cl100	Cl	1.101870	0.414492	0.500062
Cl101	Cl	0.890336	-0.407338	-0.173237
Cl102	Cl	1.390336	0.092662	0.326763
H103	H	1.084796	0.016832	0.412990
H104	H	1.584796	0.516832	0.912990
H105	H	0.838720	-0.217005	0.000115
H106	H	1.338720	0.282995	0.500115
Cl107	Cl	0.560240	0.439070	0.000038
Cl108	Cl	1.060240	0.939070	0.500038
Cl109	Cl	0.364481	0.433789	0.000050
Cl110	Cl	0.864481	0.933789	0.500050
Cl111	Cl	1.109606	-0.021576	0.608364
Cl112	Cl	1.609606	0.478424	1.108364
