data_functionalizedCrystal
_audit_creation_method	'MofGen! by Chris Wilmer'
_symmetry_space_group_name_H-M	'P1'
_symmetry_Int_Tables_number	1
_symmetry_cell_setting	triclinic
loop_
_symmetry_equiv_pos_as_xyz
  x,y,z
_cell_length_a	8.559649
_cell_length_b	27.732048
_cell_length_c	26.210047
_cell_angle_alpha	90.000479
_cell_angle_beta	89.991709
_cell_angle_gamma	103.789340
loop_
_atom_site_label
_atom_site_type_symbol
_atom_site_fract_x
_atom_site_fract_y
_atom_site_fract_z
O1	O	-2.120547	-0.016420	0.042427
O2	O	-1.654726	0.008565	0.042431
O3	O	-1.902104	-0.074829	0.042419
O4	O	-1.873169	0.066974	0.042439
O5	O	-1.902056	-0.074815	-0.042439
O6	O	-1.654678	0.008579	-0.042427
O7	O	-2.120499	-0.016407	-0.042431
Cu8	Cu	-1.887584	-0.003913	-0.050177
Cu9	Cu	-1.887640	-0.003929	0.050177
O10	O	-1.873121	0.066987	-0.042419
C11	C	-1.595125	0.010466	0.000002
C12	C	-1.417606	0.016102	0.000003
C13	C	-1.901472	-0.092808	-0.000011
C14	C	-1.899643	-0.146399	-0.000016
C15	C	-2.034313	-0.489909	0.000010
C16	C	-2.027528	-0.691332	0.000017
O17	O	-2.150674	-0.726881	0.000038
N18	N	-1.880843	-0.705342	0.000017
C19	C	-1.735844	-0.668992	0.000020
O20	O	-1.610924	-0.685530	0.000025
C21	C	-1.742632	-0.467570	0.000016
C22	C	-1.889326	-0.453563	0.000010
C23	C	-2.180996	-0.475902	0.000005
C24	C	-2.182691	-0.425549	-0.000000
C25	C	-2.037703	-0.389203	0.000001
C26	C	-1.891021	-0.403211	0.000006
C27	C	-1.597635	-0.431221	0.000022
C28	C	-1.599345	-0.380863	0.000022
C29	C	-1.746039	-0.366857	0.000017
C30	C	-1.747728	-0.316512	0.000002
N31	N	-1.894413	-0.302503	0.000001
C32	C	-2.039401	-0.338848	0.000001
C33	C	-1.732291	-0.774742	0.000020
C34	C	-1.730594	-0.825097	0.000020
C35	C	-2.022278	-0.847434	0.000019
C36	C	-2.023973	-0.797078	0.000015
C37	C	-1.878976	-0.760732	0.000020
C38	C	-2.042949	-0.233103	-0.000009
C39	C	-2.044631	-0.182744	-0.000016
C40	C	-1.752948	-0.160412	-0.000012
C41	C	-1.751265	-0.210766	-0.000008
C42	C	-1.896278	-0.247111	-0.000005
O43	O	-1.624648	-0.280937	-0.000014
O44	O	-2.164302	-0.322300	0.000006
C45	C	-2.032619	-0.540262	0.000014
C46	C	-1.885936	-0.554269	0.000019
C47	C	-1.740949	-0.517924	0.000020
C48	C	-1.884239	-0.604624	0.000019
C49	C	-2.029226	-0.640970	0.000019
C50	C	-2.175911	-0.626960	0.000018
C51	C	-2.177606	-0.576607	0.000014
C52	C	-1.594264	-0.531933	0.000021
C53	C	-1.592581	-0.582287	0.000025
C54	C	-1.737568	-0.618633	0.000024
C55	C	-1.180099	-0.018307	-0.000002
C56	C	-1.357619	-0.023943	-0.000002
C57	C	-1.873752	0.084966	0.000012
C58	C	-1.875581	0.138557	0.000020
N59	N	-1.887556	-0.003903	-0.120761
C60	C	-1.997168	-0.040848	-0.473280
C61	C	-1.997203	-0.040856	-0.686939
O62	O	-2.090338	-0.072263	-0.714565
N63	N	-1.887649	-0.003940	-0.713655
C64	C	-1.778071	0.032979	-0.686953
O65	O	-1.684879	0.064376	-0.714580
C66	C	-1.778030	0.032985	-0.473296
C67	C	-1.887602	-0.003931	-0.446582
C68	C	-2.106730	-0.077761	-0.446567
C69	C	-2.106726	-0.077757	-0.393155
C70	C	-1.997160	-0.040840	-0.366458
C71	C	-1.887598	-0.003927	-0.393171
C72	C	-1.668446	0.069901	-0.446595
C73	C	-1.668442	0.069899	-0.393177
C74	C	-1.778014	0.032983	-0.366464
C75	C	-1.778027	0.032994	-0.313062
N76	N	-1.887582	-0.003922	-0.286345
C77	C	-1.997148	-0.040839	-0.313043
C78	C	-1.778103	0.032974	-0.799127
C79	C	-1.778115	0.032974	-0.852541
C80	C	-1.997246	-0.040862	-0.852523
C81	C	-1.997240	-0.040859	-0.799108
C82	C	-1.887657	-0.003942	-0.772411
C83	C	-1.997132	-0.040828	-0.200875
C84	C	-1.997122	-0.040819	-0.147459
C85	C	-1.777987	0.033014	-0.147482
C86	C	-1.778001	0.033008	-0.200894
C87	C	-1.887580	-0.003918	-0.227589
O88	O	-1.684930	0.064382	-0.285402
O89	O	-2.090303	-0.072237	-0.285408
C90	C	-1.997172	-0.040852	-0.526692
C91	C	-1.887610	-0.003939	-0.553405
C92	C	-1.778044	0.032978	-0.526707
C93	C	-1.887622	-0.003939	-0.606820
C94	C	-1.997188	-0.040856	-0.633517
C95	C	-2.106743	-0.077772	-0.606801
C96	C	-2.106738	-0.077768	-0.553390
C97	C	-1.668490	0.069894	-0.553424
C98	C	-1.668504	0.069888	-0.606835
C99	C	-1.778070	0.032971	-0.633533
N100	N	-1.887681	-0.003943	0.120761
H101	H	-1.333147	0.054701	0.000010
O102	O	-2.213232	-0.113680	-0.527523
C103	C	-2.309951	-0.146252	-0.562551
H104	H	-2.244389	-0.144372	-0.600628
H105	H	-2.335311	-0.185794	-0.547121
H106	H	-2.428361	-0.134932	-0.568226
O107	O	-1.453309	-0.496677	0.000086
C108	C	-1.364210	-0.502180	0.044041
H109	H	-1.404474	-0.541915	0.058699
H110	H	-1.230733	-0.493693	0.034154
H111	H	-1.385372	-0.475381	0.074812
H112	H	-2.164092	-0.171344	-0.000022
O113	O	-1.458193	-0.070016	-0.000076
C114	C	-1.429819	-0.095975	-0.044035
H115	H	-1.302947	-0.079440	-0.058686
H116	H	-1.442720	-0.136770	-0.034156
H117	H	-1.520843	-0.092705	-0.074809
O118	O	-2.183959	-0.268340	-0.000031
C119	C	-2.313772	-0.245169	-0.000024
H120	H	-2.272192	-0.206000	-0.016091
H121	H	-2.415271	-0.267525	-0.024663
H122	H	-2.358822	-0.243245	0.040685
H123	H	-2.302144	-0.414150	-0.000003
H124	H	-2.299069	-0.505491	0.000006
H125	H	-2.086359	-0.070896	-0.222605
H126	H	-2.143425	-0.785678	0.000011
H127	H	-2.195944	-0.107818	-0.371409
H128	H	-1.634903	-0.130811	-0.000013
O129	O	-1.608628	-0.224289	0.000019
C130	C	-1.481024	-0.181409	0.000003
H131	H	-1.525005	-0.148787	0.016059
H132	H	-1.378554	-0.188142	0.024647
H133	H	-1.436328	-0.172625	-0.040707
O134	O	-2.316796	-0.662253	-0.000071
C135	C	-2.405945	-0.656744	-0.044013
H136	H	-2.321078	-0.636365	-0.074734
H137	H	-2.470959	-0.694929	-0.058760
H138	H	-2.497884	-0.634485	-0.034078
H139	H	-2.140332	-0.877036	0.000018
H140	H	-1.611141	-0.836496	0.000016
O141	O	-1.591283	-0.739502	-0.000002
C142	C	-1.461470	-0.762673	0.000009
H143	H	-1.503032	-0.801842	-0.016054
H144	H	-1.359945	-0.740317	-0.024629
H145	H	-1.416463	-0.764596	0.040720
O146	O	-2.212953	-0.113674	-0.632765
C147	C	-2.128028	-0.140345	-0.663674
H148	H	-2.001934	-0.136501	-0.647578
H149	H	-2.194223	-0.181212	-0.664283
H150	H	-2.119256	-0.124890	-0.704154
O151	O	-1.562212	0.105774	-0.367188
C152	C	-1.647103	0.132472	-0.336299
H153	H	-1.772723	0.108582	-0.328286
H154	H	-1.580152	0.142596	-0.298743
H155	H	-1.657079	0.167826	-0.356888
O156	O	-1.671774	0.068884	-0.121485
C157	C	-1.756665	0.095578	-0.090591
H158	H	-1.882293	0.071690	-0.082587
H159	H	-1.689728	0.105691	-0.053032
H160	H	-1.766620	0.130938	-0.111172
O161	O	-2.103609	-0.076789	-0.878406
C162	C	-2.078754	-0.123720	-0.865368
H163	H	-2.017116	-0.121383	-0.826587
H164	H	-2.199546	-0.151993	-0.863539
H165	H	-1.999505	-0.135734	-0.895433
H166	H	-1.473116	-0.593685	0.000025
H167	H	-2.297060	-0.565209	0.000009
O168	O	-1.455177	-0.444845	-0.000057
C169	C	-1.445415	-0.473314	-0.043995
H170	H	-1.528656	-0.464483	-0.074721
H171	H	-1.316391	-0.464000	-0.058737
H172	H	-1.483301	-0.514478	-0.034057
H173	H	-1.579280	0.099953	-0.628581
H174	H	-1.481267	-0.351272	0.000027
O175	O	-2.103624	-0.076731	-0.121590
C176	C	-2.200349	-0.109308	-0.156612
H177	H	-2.134793	-0.107432	-0.194690
H178	H	-2.225708	-0.148847	-0.141178
H179	H	-2.318759	-0.097988	-0.162289
O180	O	-2.213331	-0.113648	-0.472417
C181	C	-2.309986	-0.146230	-0.437375
H182	H	-2.311259	-0.126454	-0.399301
H183	H	-2.437899	-0.158328	-0.452790
H184	H	-2.258960	-0.180254	-0.431697
H185	H	-2.086462	-0.070919	-0.777361
H186	H	-1.688908	0.063038	-0.874287
H187	H	-1.688865	0.063038	-0.777394
H188	H	-1.579221	0.099961	-0.468338
O189	O	-1.671410	0.068890	-0.226767
C190	C	-1.574734	0.101482	-0.191746
H191	H	-1.573444	0.081717	-0.153667
H192	H	-1.446828	0.113574	-0.207181
H193	H	-1.625751	0.135509	-0.186071
H194	H	-1.579266	0.099956	-0.531690
