data_functionalizedCrystal
_audit_creation_method	'MofGen! by Chris Wilmer'
_symmetry_space_group_name_H-M	'P1'
_symmetry_Int_Tables_number	1
_symmetry_cell_setting	triclinic
loop_
_symmetry_equiv_pos_as_xyz
  x,y,z
_cell_length_a	17.019311
_cell_length_b	23.532407
_cell_length_c	22.610064
_cell_angle_alpha	90.002995
_cell_angle_beta	93.893748
_cell_angle_gamma	83.123218
loop_
_atom_site_label
_atom_site_type_symbol
_atom_site_fract_x
_atom_site_fract_y
_atom_site_fract_z
O1	O	1.046135	0.072564	0.102472
O2	O	1.546135	0.572564	0.602472
O3	O	0.816394	0.081813	0.090773
O4	O	1.316394	0.581813	0.590773
O5	O	0.938192	-0.005720	0.096964
O6	O	1.438192	0.494280	0.596964
O7	O	0.924337	0.160097	0.096280
O8	O	1.424337	0.660097	0.596280
O9	O	0.938158	-0.005710	-0.001407
O10	O	1.438158	0.494290	0.498593
O11	O	0.816360	0.081823	-0.007598
O12	O	1.316360	0.581823	0.492402
O13	O	1.046100	0.072574	0.004101
O14	O	1.546100	0.572574	0.504101
Zn15	Zn	0.931225	0.077200	-0.017367
Zn16	Zn	1.431225	0.577200	0.482633
Zn17	Zn	0.931270	0.077187	0.112241
Zn18	Zn	1.431270	0.577187	0.612241
O19	O	0.924302	0.160107	-0.002091
O20	O	1.424302	0.660107	0.497909
C21	C	0.786991	0.081467	0.040091
C22	C	1.286991	0.581467	0.540091
C23	C	0.699428	0.080413	0.035631
C24	C	1.199428	0.580413	0.535631
C25	C	0.204184	0.074474	0.007721
C26	C	0.704184	0.574474	0.507721
C27	C	0.286459	0.075464	0.011912
C28	C	0.786459	0.575464	0.511912
C29	C	0.327616	0.075949	0.067631
C30	C	0.827616	0.575949	0.567631
C31	C	0.286493	0.075450	0.119161
C32	C	0.786493	0.575450	0.619161
C33	C	0.204219	0.074465	0.114969
C34	C	0.704219	0.574465	0.614969
C35	C	0.576031	0.078929	0.082970
C36	C	1.076031	0.578929	0.582970
C37	C	0.658311	0.079913	0.087158
C38	C	1.158311	0.579913	0.587158
C39	C	0.658271	0.079927	-0.020092
C40	C	1.158271	0.579927	0.479908
C41	C	0.575996	0.078938	-0.024279
C42	C	1.075996	0.578938	0.475721
C43	C	0.534879	0.078442	0.027252
C44	C	1.034879	0.578442	0.527252
C45	C	0.411714	0.076959	0.071916
C46	C	0.911714	0.576959	0.571916
C47	C	0.450782	0.077437	0.022966
C48	C	0.950782	0.577437	0.522966
C49	C	0.937822	-0.026933	0.047759
C50	C	1.437822	0.473067	0.547759
C51	C	0.936762	-0.090153	0.047701
C52	C	1.436762	0.409847	0.547701
C53	C	1.002185	-0.489041	0.051065
C54	C	1.502185	0.010959	0.551065
C55	C	1.001200	-0.548445	0.051019
C56	C	1.501200	-0.048445	0.551019
O57	O	1.061849	-0.584990	0.054129
O58	O	1.561849	-0.084990	0.554129
N59	N	0.928791	-0.571309	0.047331
N60	N	1.428791	-0.071309	0.547331
C61	C	0.857363	-0.534766	0.043695
C62	C	1.357363	-0.034766	0.543695
O63	O	0.795683	-0.559668	0.040555
O64	O	1.295683	-0.059668	0.540555
C65	C	0.858349	-0.475363	0.043745
C66	C	1.358349	0.024637	0.543745
C67	C	0.930763	-0.452503	0.047427
C68	C	1.430763	0.047497	0.547427
C69	C	1.074593	-0.466180	0.054747
C70	C	1.574593	0.033820	0.554747
C71	C	1.075578	-0.406781	0.054791
C72	C	1.575578	0.093219	0.554791
C73	C	1.004156	-0.370243	0.051154
C74	C	1.504156	0.129757	0.551154
C75	C	0.931748	-0.393104	0.047471
C76	C	1.431748	0.106896	0.547471
C77	C	0.786922	-0.438822	0.040113
C78	C	1.286922	0.061178	0.540113
C79	C	0.787915	-0.379416	0.040164
C80	C	1.287915	0.120584	0.540164
C81	C	0.860328	-0.356555	0.043846
C82	C	1.360328	0.143445	0.543846
C83	C	0.861311	-0.297166	0.043878
C84	C	1.361311	0.202834	0.543878
N85	N	0.933719	-0.274302	0.047566
N86	N	1.433719	0.225698	0.547566
C87	C	1.005142	-0.310840	0.051204
C88	C	1.505142	0.189160	0.551204
C89	C	0.855297	-0.659515	0.043591
C90	C	1.355297	-0.159515	0.543591
C91	C	0.854310	-0.718916	0.043537
C92	C	1.354310	-0.218916	0.543537
C93	C	0.998147	-0.732591	0.050862
C94	C	1.498147	-0.232591	0.550862
C95	C	0.999134	-0.673189	0.050912
C96	C	1.499134	-0.173189	0.550912
C97	C	0.927706	-0.636651	0.047279
C98	C	1.427706	-0.136651	0.547279
C99	C	1.007205	-0.186097	0.051297
C100	C	1.507205	0.313903	0.551297
C101	C	1.008184	-0.126691	0.051338
C102	C	1.508184	0.373309	0.551338
C103	C	0.864347	-0.113022	0.044016
C104	C	1.364347	0.386978	0.544016
C105	C	0.863368	-0.172422	0.043972
C106	C	1.363368	0.327578	0.543972
C107	C	0.934804	-0.208958	0.047614
C108	C	1.434804	0.291042	0.547614
O109	O	0.800694	-0.260586	0.040772
O110	O	1.300694	0.239414	0.540772
O111	O	1.066812	-0.285930	0.054351
O112	O	1.566812	0.214070	0.554351
C113	C	1.075504	0.072920	0.054784
C114	C	1.575504	0.572920	0.554784
C115	C	1.163067	0.073974	0.059247
C116	C	1.663067	0.573974	0.559247
C117	C	0.924672	0.181320	0.047116
C118	C	1.424672	0.681320	0.547116
C119	C	0.925733	0.244540	0.047178
C120	C	1.425733	0.744540	0.547178
N121	N	0.931200	0.077209	-0.105821
N122	N	1.431200	0.577209	0.394179
C123	C	0.883680	0.042660	-0.393087
C124	C	1.383680	0.542660	0.106913
C125	C	0.883672	0.042663	-0.331167
C126	C	1.383672	0.542663	0.168833
O127	O	0.843237	0.013290	-0.301206
O128	O	1.343237	0.513290	0.198794
N129	N	0.931233	0.077190	-0.297772
N130	N	1.431233	0.577190	0.202228
C131	C	0.978810	0.111713	-0.326298
C132	C	1.478810	0.611713	0.173702
O133	O	1.019263	0.141081	-0.292207
O134	O	1.519263	0.641081	0.207793
C135	C	0.978821	0.111707	-0.388216
C136	C	1.478821	0.611707	0.111784
C137	C	0.931251	0.077181	-0.421609
C138	C	1.431251	0.577181	0.078391
C139	C	0.836115	0.008137	-0.426480
C140	C	1.336115	0.508137	0.073520
C141	C	0.836122	0.008135	-0.488395
C142	C	1.336122	0.508135	0.011605
C143	C	0.883693	0.042657	-0.516917
C144	C	1.383693	0.542657	-0.016917
C145	C	0.931258	0.077180	-0.483525
C146	C	1.431258	0.577180	0.016475
C147	C	1.026402	0.146226	-0.416742
C148	C	1.526402	0.646226	0.083258
C149	C	1.026409	0.146217	-0.478664
C150	C	1.526409	0.646217	0.021336
C151	C	0.978840	0.111691	-0.512057
C152	C	1.478840	0.611691	-0.012057
C153	C	0.978836	0.111699	-0.573962
C154	C	1.478836	0.611699	-0.073962
N155	N	0.931276	0.077172	-0.607358
N156	N	1.431276	0.577172	-0.107358
C157	C	0.883704	0.042650	-0.578836
C158	C	1.383704	0.542650	-0.078836
C159	C	0.978783	0.111723	-0.196266
C160	C	1.478783	0.611723	0.303734
C161	C	0.978768	0.111732	-0.134349
C162	C	1.478768	0.611732	0.365651
C163	C	0.883632	0.042681	-0.139222
C164	C	1.383632	0.542681	0.360778
C165	C	0.883643	0.042675	-0.201141
C166	C	1.383643	0.542675	0.298859
C167	C	0.931223	0.077195	-0.229662
C168	C	1.431223	0.577195	0.270338
C169	C	0.883721	0.042650	-0.708862
C170	C	1.383721	0.542650	-0.208862
C171	C	0.883730	0.042653	-0.770783
C172	C	1.383730	0.542653	-0.270783
C173	C	0.978869	0.111701	-0.765904
C174	C	1.478869	0.611701	-0.265904
C175	C	0.978858	0.111701	-0.703989
C176	C	1.478858	0.611701	-0.203989
C177	C	0.931282	0.077170	-0.675469
C178	C	1.431282	0.577170	-0.175469
O179	O	1.019254	0.141055	-0.603964
O180	O	1.519254	0.641055	-0.103964
O181	O	0.843265	0.013282	-0.612934
O182	O	1.343265	0.513282	-0.112934
N183	N	0.931301	0.077174	0.200695
N184	N	1.431301	0.577174	0.700695
H185	H	0.445234	0.077352	0.117282
H186	H	0.945234	0.577352	0.617282
H187	H	1.067154	-0.108082	0.054335
H188	H	1.567154	0.391918	0.554335
H189	H	0.806197	-0.083262	0.041053
H190	H	1.306197	0.416738	0.541053
H191	H	0.170680	0.074082	-0.037651
H192	H	0.670680	0.574082	0.462349
O193	O	0.778251	-0.620109	0.039656
O194	O	1.278251	-0.120109	0.539656
H195	H	0.743582	-0.628234	0.077979
H196	H	1.243582	-0.128234	0.577979
O197	O	0.330884	0.075976	0.179258
O198	O	0.830884	0.575976	0.679258
H199	H	0.288467	0.075468	0.214383
H200	H	0.788467	0.575468	0.714383
O201	O	0.330791	0.076011	-0.043671
O202	O	0.830791	0.576011	0.456329
H203	H	0.375615	0.037670	-0.043969
H204	H	0.875615	0.537670	0.456031
H205	H	1.134545	-0.388174	0.057792
H206	H	1.634545	0.111826	0.557792
H207	H	1.132757	-0.495925	0.057712
H208	H	1.632757	0.004075	0.557712
H209	H	0.727956	-0.457424	0.037118
H210	H	1.227956	0.042576	0.537118
H211	H	0.691818	0.080312	0.132533
H212	H	1.191818	0.580312	0.632533
H213	H	0.542564	0.078523	0.124930
H214	H	1.042564	0.578523	0.624930
O215	O	0.832427	0.005413	-0.806806
O216	O	1.332427	0.505413	-0.306806
H217	H	0.870496	-0.025204	-0.833072
H218	H	1.370496	0.474796	-0.333072
O219	O	1.077724	0.183453	-0.509428
O220	O	1.577724	0.683453	-0.009428
H221	H	1.110791	0.207462	-0.475801
H222	H	1.610791	0.707462	0.024199
O223	O	1.077235	-0.648533	0.054894
O224	O	1.577235	-0.148533	0.554894
H225	H	1.126729	-0.683925	0.057420
H226	H	1.626729	-0.183925	0.557420
H227	H	0.844897	0.014572	-0.115988
H228	H	1.344897	0.514572	0.384012
H229	H	1.065375	-0.215839	0.054265
H230	H	1.565375	0.284161	0.554265
H231	H	0.844980	0.014532	-0.685649
H232	H	1.344980	0.514532	-0.185649
H233	H	0.797376	-0.019977	-0.403264
H234	H	1.297376	0.480023	0.096736
H235	H	1.017495	0.139853	-0.107166
H236	H	1.517495	0.639853	0.392834
H237	H	1.017581	0.139822	-0.676799
H238	H	1.517581	0.639822	-0.176799
O239	O	0.832344	0.005435	-0.237160
O240	O	1.332344	0.505435	0.262840
H241	H	0.870413	-0.025186	-0.263420
H242	H	1.370413	0.474814	0.236580
H243	H	1.056304	-0.762352	0.053826
H244	H	1.556304	-0.262352	0.553826
O245	O	0.710870	-0.340010	0.036238
O246	O	1.210870	0.159990	0.536238
H247	H	0.707885	-0.312618	0.076180
H248	H	1.207885	0.187382	0.576180
O249	O	0.159867	0.073912	0.170544
O250	O	0.659867	0.573912	0.670544
H251	H	0.202308	0.074406	0.209993
H252	H	0.702308	0.574406	0.709993
H253	H	0.417268	0.077045	-0.022400
H254	H	0.917268	0.577045	0.477600
H255	H	0.795344	-0.737524	0.040529
H256	H	1.295344	-0.237524	0.540529
H257	H	1.017526	0.139838	-0.219484
H258	H	1.517526	0.639838	0.280516
H259	H	0.797389	-0.019981	-0.515578
H260	H	1.297389	0.480019	-0.015578
O261	O	1.077709	0.183464	-0.380733
O262	O	1.577709	0.683464	0.119267
H263	H	1.110792	0.207459	-0.410979
H264	H	1.610792	0.707459	0.089021
O265	O	0.785268	-0.197085	0.039998
O266	O	1.285268	0.302915	0.539998
H267	H	0.735770	-0.161695	0.037479
H268	H	1.235770	0.338305	0.537479
O269	O	1.030187	0.148923	-0.796678
O270	O	1.530187	0.648923	-0.296678
H271	H	0.992140	0.179541	-0.826844
H272	H	1.492140	0.679541	-0.326844
O273	O	0.531603	0.078421	-0.084375
O274	O	1.031603	0.578421	0.415625
H275	H	0.574016	0.078941	-0.119502
H276	H	1.074016	0.578941	0.380498
O277	O	0.702613	0.080472	-0.075670
O278	O	1.202613	0.580472	0.424330
H279	H	0.766737	0.081245	-0.063397
H280	H	1.266737	0.581245	0.436603
