data_functionalizedCrystal
_audit_creation_method	'MofGen! by Chris Wilmer'
_symmetry_space_group_name_H-M	'P1'
_symmetry_Int_Tables_number	1
_symmetry_cell_setting	triclinic
loop_
_symmetry_equiv_pos_as_xyz
  x,y,z
_cell_length_a	17.699097
_cell_length_b	10.967953
_cell_length_c	16.776229
_cell_angle_alpha	102.123608
_cell_angle_beta	89.989262
_cell_angle_gamma	84.015389
loop_
_atom_site_label
_atom_site_type_symbol
_atom_site_fract_x
_atom_site_fract_y
_atom_site_fract_z
O1	O	1.005064	0.157872	-0.044666
O2	O	0.784816	0.178384	-0.041835
O3	O	0.900025	-0.013530	-0.068202
O4	O	0.889856	0.349786	-0.018299
O5	O	0.900009	-0.013542	0.064373
O6	O	0.784801	0.178372	0.090740
O7	O	1.005049	0.157860	0.087909
Zn8	Zn	0.894922	0.168114	0.110374
Zn9	Zn	0.894943	0.168130	-0.064299
O10	O	0.889840	0.349775	0.114276
C11	C	0.756607	0.177640	0.024353
C12	C	0.672576	0.175427	0.024054
C13	C	0.156781	0.161866	-0.050108
C14	C	0.235738	0.163937	-0.049820
C15	C	0.275202	0.164969	0.022592
C16	C	0.235706	0.163916	0.094719
C17	C	0.156750	0.161836	0.094429
C18	C	0.554122	0.172303	0.095892
C19	C	0.633083	0.174387	0.096178
C20	C	0.633110	0.174405	-0.048356
C21	C	0.554155	0.172325	-0.048647
C22	C	0.514666	0.171265	0.023478
C23	C	0.429052	0.169017	0.023164
C24	C	0.360814	0.167226	0.022908
C25	C	0.899279	-0.060022	-0.008301
C26	C	0.897070	-0.198535	-0.027331
C27	C	0.893790	-0.403456	0.013205
C28	C	0.896076	-0.260296	0.032871
C29	C	1.033258	0.158604	0.021720
C30	C	1.117290	0.160817	0.022013
C31	C	0.890587	0.396266	0.054373
C32	C	0.892796	0.534779	0.073398
N33	N	0.894914	0.168103	0.229583
N34	N	0.894957	0.168131	-0.183511
C35	C	0.945944	0.083158	0.259630
C36	C	0.945948	0.083157	0.343082
C37	C	0.894925	0.168108	0.396487
C38	C	0.843890	0.253057	0.366435
C39	C	0.843883	0.253051	0.282984
C40	C	0.843917	0.253081	0.702986
C41	C	0.843930	0.253083	0.786442
C42	C	0.945983	0.083188	0.763084
C43	C	0.945976	0.083182	0.679632
C44	C	0.894938	0.168126	0.649587
C45	C	0.894933	0.168124	0.559099
C46	C	0.894933	0.168116	0.486975
H47	H	0.665271	0.175262	-0.107085
N48	N	0.675650	0.175503	0.174283
H49	H	0.638654	0.174514	0.219931
H50	H	0.714147	0.099048	0.166926
N51	N	0.511534	0.171163	0.173680
H52	H	0.548578	0.171254	0.219474
H53	H	0.473404	0.248069	0.187634
H54	H	0.267844	0.164748	0.153678
N55	N	0.114155	0.160697	0.172217
H56	H	0.151200	0.160791	0.218011
H57	H	0.076022	0.237597	0.186172
N58	N	1.001031	-0.008435	0.795492
H59	H	0.971836	-0.063633	0.822546
H60	H	1.033342	-0.062158	0.748958
H61	H	0.267888	0.164784	-0.108550
N62	N	0.788863	0.344690	0.424035
H63	H	0.756533	0.398501	0.392335
H64	H	0.755163	0.296992	0.452125
H65	H	0.892953	-0.456564	-0.052888
N66	N	0.897198	-0.189973	0.120426
H67	H	0.898674	-0.097674	0.122064
H68	H	0.849996	-0.202405	0.150301
N69	N	0.895978	-0.268831	-0.114895
H70	H	0.848287	-0.312590	-0.124111
H71	H	0.896992	-0.207839	-0.152284
N72	N	0.114222	0.160740	-0.128215
H73	H	0.058212	0.159263	-0.117458
H74	H	0.122295	0.238424	-0.149106
H75	H	0.893641	-0.412115	0.139491
H76	H	0.802378	0.322263	0.829925
H77	H	0.987496	0.013987	0.216152
H78	H	0.802328	0.322220	0.258521
H79	H	0.987526	0.014011	0.636152
N80	N	0.511589	0.171214	-0.126748
H81	H	0.548589	0.172188	-0.172395
H82	H	0.484569	0.093027	-0.140633
N83	N	1.001014	-0.008419	0.375496
H84	H	1.033348	-0.062215	0.329004
H85	H	1.034705	0.039340	0.416651
H86	H	0.802362	0.322248	0.678530
