data_functionalizedCrystal
_audit_creation_method	'MofGen! by Chris Wilmer'
_symmetry_space_group_name_H-M	'P1'
_symmetry_Int_Tables_number	1
_symmetry_cell_setting	triclinic
loop_
_symmetry_equiv_pos_as_xyz
  x,y,z
_cell_length_a	15.944551
_cell_length_b	14.971486
_cell_length_c	14.048226
_cell_angle_alpha	90.006640
_cell_angle_beta	90.001970
_cell_angle_gamma	83.556433
loop_
_atom_site_label
_atom_site_type_symbol
_atom_site_fract_x
_atom_site_fract_y
_atom_site_fract_z
O1	O	-1.114636	-0.115362	-0.079062
O2	O	-0.614636	0.384638	0.420938
O3	O	-0.870100	-0.129584	-0.079086
O4	O	-0.370100	0.370416	0.420914
O5	O	-0.998922	0.007734	-0.079066
O6	O	-0.498922	0.507734	0.420934
O7	O	-0.985814	-0.252680	-0.079081
O8	O	-0.485814	0.247320	0.420919
O9	O	-0.998907	0.007742	0.079255
O10	O	-0.498907	0.507742	0.579255
O11	O	-0.870085	-0.129576	0.079236
O12	O	-0.370085	0.370424	0.579236
O13	O	-1.114621	-0.115354	0.079260
O14	O	-0.614621	0.384646	0.579260
Zn15	Zn	-0.992350	-0.122464	0.104385
Zn16	Zn	-0.492350	0.377536	0.604385
Zn17	Zn	-0.992371	-0.122474	-0.104211
Zn18	Zn	-0.492371	0.377526	0.395789
O19	O	-0.985798	-0.252672	0.079240
O20	O	-0.485798	0.247328	0.579240
C21	C	-0.998328	0.041062	0.000094
C22	C	-0.498328	0.541062	0.500094
C23	C	-0.996572	0.140357	0.000093
C24	C	-0.496572	0.640357	0.500093
C25	C	-0.838798	-0.128990	0.000072
C26	C	-0.338798	0.371010	0.500072
C27	C	-0.745550	-0.127220	0.000063
C28	C	-0.245550	0.372780	0.500063
C29	C	-1.145923	-0.115948	0.000100
C30	C	-0.645923	0.384052	0.500100
C31	C	-1.239171	-0.117718	0.000102
C32	C	-0.739171	0.382282	0.500102
C33	C	-0.530608	-0.037872	0.000087
C34	C	-0.030608	0.462128	0.500087
C35	C	-0.469635	-0.079366	-0.077976
C36	C	0.030365	0.420634	0.422024
C37	C	-0.574821	-0.124017	0.000075
C38	C	-0.074821	0.375983	0.500075
C39	C	-0.469642	-0.079379	0.078116
C40	C	0.030358	0.420621	0.578116
C41	C	-0.409905	-0.120918	0.000090
C42	C	0.090095	0.379082	0.500090
C43	C	-0.515076	-0.165535	-0.078053
C44	C	-0.015076	0.334465	0.421947
C45	C	-0.515090	-0.165535	0.078110
C46	C	-0.015090	0.334465	0.578110
C47	C	-0.454134	-0.207092	0.000027
C48	C	0.045866	0.292908	0.500027
C49	C	-0.669825	-0.125801	0.000065
C50	C	-0.169825	0.374199	0.500065
C51	C	-0.314903	-0.119141	0.000093
C52	C	0.185097	0.380859	0.500093
C53	C	-0.986392	-0.286000	0.000078
C54	C	-0.486392	0.214000	0.500078
C55	C	-0.988149	-0.385295	0.000073
C56	C	-0.488149	0.114705	0.500073
N57	N	-0.992342	-0.122456	0.246745
N58	N	-0.492342	0.377544	0.746745
C59	C	-1.072251	0.197664	0.000101
C60	C	-0.572251	0.697664	0.500101
C61	C	-1.070595	0.290962	0.000091
C62	C	-0.570595	0.790962	0.500091
C63	C	-0.993259	0.326951	0.000080
C64	C	-0.493259	0.826951	0.500080
C65	C	-0.917574	0.269637	0.000069
C66	C	-0.417574	0.769637	0.500069
C67	C	-0.919230	0.176341	0.000072
C68	C	-0.419230	0.676341	0.500072
C69	C	-0.914127	0.464095	0.000066
C70	C	-0.414127	0.964095	0.500066
C71	C	-0.912470	0.557398	0.000065
C72	C	-0.412470	1.057398	0.500065
C73	C	-1.065491	0.578717	0.000085
C74	C	-0.565491	1.078717	0.500085
C75	C	-1.067148	0.485421	0.000088
C76	C	-0.567148	0.985421	0.500088
C77	C	-0.991462	0.428113	0.000078
C78	C	-0.491462	0.928113	0.500078
N79	N	-0.992385	-0.122475	-0.246571
N80	N	-0.492385	0.377525	0.253429
C81	C	-1.049403	-0.061676	0.296572
C82	C	-0.549403	0.438324	0.796572
C83	C	-1.049408	-0.061676	0.396230
C84	C	-0.549408	0.438324	0.896230
C85	C	-0.992357	-0.122460	0.446059
C86	C	-0.492357	0.377540	0.946059
C87	C	-0.935290	-0.183242	0.396225
C88	C	-0.435290	0.316758	0.896225
C89	C	-0.935281	-0.183238	0.296569
C90	C	-0.435281	0.316762	0.796569
C91	C	-0.935315	-0.183249	0.603939
C92	C	-0.435315	0.316751	1.103939
C93	C	-0.935325	-0.183255	0.703602
C94	C	-0.435325	0.316745	1.203602
C95	C	-1.049442	-0.061687	0.703600
C96	C	-0.549442	0.438313	1.203600
C97	C	-1.049433	-0.061682	0.603944
C98	C	-0.549433	0.438318	1.103944
C99	C	-0.992367	-0.122466	0.554117
C100	C	-0.492367	0.377534	1.054117
H101	H	-0.563873	0.033621	-0.000006
H102	H	-0.063873	0.533621	0.499994
Br103	Br	-0.436095	-0.018621	0.188111
Br104	Br	0.063905	0.481379	0.688111
Br105	Br	-0.436073	-0.018649	-0.187973
Br106	Br	0.063927	0.481351	0.312027
H107	H	-1.135227	0.168370	0.000116
H108	H	-0.635227	0.668370	0.500116
H109	H	-0.888867	-0.232750	0.744168
H110	H	-0.388867	0.267250	1.244168
Br111	Br	-1.168208	0.656490	0.000095
Br112	Br	-0.668208	1.156490	0.500095
Br113	Br	-0.812616	0.318477	0.000039
Br114	Br	-0.312616	0.818477	0.500039
Br115	Br	-1.173308	0.368733	0.000102
Br116	Br	-0.673308	0.868733	0.500102
H117	H	-1.095864	-0.012183	0.256007
H118	H	-0.595864	0.487817	0.756007
H119	H	-0.535105	-0.201947	-0.144121
H120	H	-0.035105	0.298053	0.355879
Br121	Br	-1.172105	0.436579	0.000100
Br122	Br	-0.672105	0.936579	0.500100
H123	H	-0.849496	0.586696	0.000071
H124	H	-0.349496	1.086696	0.500071
Br125	Br	-0.811409	0.386320	0.000050
Br126	Br	-0.311409	0.886320	0.500050
Br127	Br	-0.816518	0.098565	0.000054
Br128	Br	-0.316518	0.598565	0.500054
Br129	Br	-1.126846	0.020815	0.463855
Br130	Br	-0.626846	0.520815	0.963855
Br131	Br	-1.126866	0.020802	0.536315
Br132	Br	-0.626866	0.520802	1.036315
H133	H	-0.421044	-0.278659	-0.000020
H134	H	0.078956	0.221341	0.499980
H135	H	-1.095906	-0.012195	0.744174
H136	H	-0.595906	0.487805	1.244174
H137	H	-0.888843	-0.232743	0.563374
H138	H	-0.388843	0.267257	1.063374
Br139	Br	-0.857855	-0.265731	0.463847
Br140	Br	-0.357855	0.234269	0.963847
H141	H	-0.535249	-0.201938	0.144106
H142	H	-0.035249	0.298062	0.644106
Br143	Br	-0.857833	-0.265722	0.228947
Br144	Br	-0.357833	0.234278	0.728947
