data_functionalizedCrystal
_audit_creation_method	'MofGen! by Chris Wilmer'
_symmetry_space_group_name_H-M	'P1'
_symmetry_Int_Tables_number	1
_symmetry_cell_setting	triclinic
loop_
_symmetry_equiv_pos_as_xyz
  x,y,z
_cell_length_a	17.699083
_cell_length_b	9.730223
_cell_length_c	17.699083
_cell_angle_alpha	90.002214
_cell_angle_beta	83.283015
_cell_angle_gamma	89.994169
loop_
_atom_site_label
_atom_site_type_symbol
_atom_site_fract_x
_atom_site_fract_y
_atom_site_fract_z
O1	O	1.004071	0.114100	0.095708
O2	O	0.783693	0.114145	0.108160
O3	O	0.900109	0.114109	-0.008255
O4	O	0.887656	0.114136	0.212123
O5	O	0.900107	-0.114471	-0.008252
O6	O	0.783692	-0.114435	0.108163
O7	O	1.004070	-0.114480	0.095711
Zn8	Zn	0.893881	-0.150749	0.101938
Zn9	Zn	0.893882	0.150415	0.101934
O10	O	0.887655	-0.114444	0.212126
C11	C	0.755495	-0.000139	0.107716
C12	C	0.671477	-0.000122	0.106377
C13	C	0.622856	-0.000114	0.174710
C14	C	0.543913	-0.000132	0.173448
C15	C	0.513592	-0.000148	0.103852
C16	C	0.562219	-0.000160	0.035513
C17	C	0.641161	-0.000152	0.036776
C18	C	0.243856	-0.000195	0.030418
C19	C	0.164908	-0.000199	0.029160
C20	C	0.146608	-0.000175	0.167090
C21	C	0.225550	-0.000167	0.168353
C22	C	0.274170	-0.000186	0.100015
C23	C	0.359769	-0.000169	0.101384
C24	C	0.427995	-0.000155	0.102481
N25	N	0.893885	-0.356286	0.101940
C26	C	0.945447	-0.428228	0.050408
C27	C	0.945445	-0.572111	0.050399
C28	C	0.842317	-0.572097	0.153459
C29	C	0.842316	-0.428217	0.153464
C30	C	0.997016	-0.356297	-0.001116
C31	C	1.048583	-0.428239	-0.052652
C32	C	1.048581	-0.572122	-0.052661
C33	C	0.997012	-0.644063	-0.001135
C34	C	1.032268	-0.000193	0.096156
C35	C	1.116286	-0.000201	0.097494
C36	C	0.899662	-0.000181	-0.036451
C37	C	0.898323	-0.000181	-0.120469
N38	N	0.893884	0.355951	0.101926
C39	C	0.966656	-0.000197	-0.169090
C40	C	0.965394	-0.000185	-0.248033
C41	C	0.895798	-0.000166	-0.278354
C42	C	0.827459	-0.000146	-0.229727
C43	C	0.828722	-0.000149	-0.150785
C44	C	0.822364	-0.000134	-0.548090
C45	C	0.821106	-0.000135	-0.627038
C46	C	0.959036	-0.000170	-0.645338
C47	C	0.960299	-0.000173	-0.566396
C48	C	0.891961	-0.000145	-0.517776
C49	C	0.893330	-0.000156	-0.432177
C50	C	0.894427	-0.000165	-0.363951
C51	C	0.888102	-0.000151	0.240322
C52	C	0.889440	-0.000142	0.324340
H53	H	0.283434	-0.000212	-0.025228
Br54	Br	0.733005	-0.000098	-0.270875
H55	H	1.090563	-0.630696	-0.094627
Br56	Br	0.997025	-0.161028	-0.001101
Br57	Br	0.663998	-0.000078	0.269168
Br58	Br	0.477929	-0.000117	0.266191
Br59	Br	0.772337	-0.669729	0.223384
Br60	Br	0.726647	-0.000112	-0.668186
Br61	Br	0.735980	-0.000116	-0.084797
H62	H	1.090564	-0.369657	-0.094607
Br63	Br	0.997004	-0.839334	-0.001159
H64	H	0.250232	-0.000147	0.225025
H65	H	0.800329	-0.369641	0.195425
H66	H	1.023330	-0.000221	-0.144409
Br67	Br	0.123759	-0.000216	-0.065299
Br68	Br	1.058137	-0.000206	-0.314016
H69	H	0.680748	-0.000158	-0.018868
Br70	Br	0.080619	-0.000150	0.259837
H71	H	1.016971	-0.000194	-0.541714
H72	H	0.766718	-0.000112	-0.508512
Br73	Br	0.521071	-0.000196	-0.058941
H74	H	1.014680	-0.000185	-0.684934
