data_functionalizedCrystal
_audit_creation_method	'MofGen! by Chris Wilmer'
_symmetry_space_group_name_H-M	'P1'
_symmetry_Int_Tables_number	1
_symmetry_cell_setting	triclinic
loop_
_symmetry_equiv_pos_as_xyz
  x,y,z
_cell_length_a	23.532355
_cell_length_b	22.010155
_cell_length_c	17.019294
_cell_angle_alpha	86.125696
_cell_angle_beta	83.111927
_cell_angle_gamma	89.997398
loop_
_atom_site_label
_atom_site_type_symbol
_atom_site_fract_x
_atom_site_fract_y
_atom_site_fract_z
O1	O	0.755596	-0.055441	0.095551
O2	O	1.255596	0.444559	0.595551
O3	O	0.589774	-0.056187	0.109450
O4	O	1.089774	0.443813	0.609450
O5	O	0.677310	-0.049801	-0.012368
O6	O	1.177310	0.450199	0.487632
O7	O	0.668060	-0.061827	0.217369
O8	O	1.168060	0.438173	0.717369
O9	O	0.677294	0.051249	-0.012349
O10	O	1.177294	0.551249	0.487651
O11	O	0.589758	0.044862	0.109469
O12	O	1.089758	0.544862	0.609469
O13	O	0.755580	0.045608	0.095571
O14	O	1.255580	0.545608	0.595571
Cu15	Cu	0.672668	0.054462	0.102521
Cu16	Cu	1.172668	0.554462	0.602521
Cu17	Cu	0.672686	-0.065041	0.102499
Cu18	Cu	1.172686	0.434959	0.602499
O19	O	0.668044	0.039222	0.217389
O20	O	1.168044	0.539222	0.717389
C21	C	0.568548	-0.005647	0.109112
C22	C	1.068548	0.494353	0.609112
C23	C	0.505326	-0.005599	0.108067
C24	C	1.005326	0.494401	0.608067
C25	C	0.113282	0.049852	0.101515
C26	C	0.613282	0.549852	0.601515
C27	C	0.053880	0.049906	0.100521
C28	C	0.553880	0.549906	0.600521
O29	O	0.023152	0.096779	0.099990
O30	O	0.523152	0.596779	0.599990
N31	N	0.024178	-0.005150	0.100018
N32	N	0.524178	0.494850	0.600018
C33	C	0.053883	-0.060264	0.100501
C34	C	0.553883	0.439736	0.600501
O35	O	0.023165	-0.107088	0.099981
O36	O	0.523165	0.392912	0.599981
C37	C	0.113285	-0.060317	0.101489
C38	C	0.613285	0.439683	0.601489
C39	C	0.142983	-0.005258	0.102000
C40	C	0.642983	0.494742	0.602000
C41	C	0.142980	0.104906	0.102025
C42	C	0.642980	0.604906	0.602025
C43	C	0.202378	0.104852	0.103021
C44	C	0.702378	0.604852	0.603021
C45	C	0.232079	0.049742	0.103505
C46	C	0.732079	0.549742	0.603505
C47	C	0.202381	-0.005313	0.102995
C48	C	0.702381	0.494687	0.602995
C49	C	0.142990	-0.115430	0.101965
C50	C	0.642990	0.384570	0.601965
C51	C	0.202396	-0.115478	0.102953
C52	C	0.702396	0.384522	0.602953
C53	C	0.232094	-0.060419	0.103464
C54	C	0.732094	0.439581	0.603464
C55	C	0.291481	-0.060477	0.104475
C56	C	0.791481	0.439523	0.604475
N57	N	0.321182	-0.005421	0.104978
N58	N	0.821182	0.494579	0.604978
C59	C	0.291481	0.049689	0.104493
C60	C	0.791481	0.549689	0.604493
C61	C	-0.070865	-0.060147	0.098424
C62	C	0.429135	0.439853	0.598424
C63	C	-0.130267	-0.060095	0.097442
C64	C	0.369733	0.439905	0.597442
C65	C	-0.130266	0.050075	0.097461
C66	C	0.369734	0.550075	0.597461
C67	C	-0.070864	0.050022	0.098449
C68	C	0.429136	0.550022	0.598449
C69	C	-0.041164	-0.005091	0.098927
C70	C	0.458836	0.494909	0.598927
C71	C	0.416222	0.049570	0.106584
C72	C	0.916222	0.549570	0.606584
C73	C	0.475625	0.049510	0.107582
C74	C	0.975625	0.549510	0.607582
C75	C	0.475620	-0.060659	0.107559
C76	C	0.975620	0.439341	0.607559
C77	C	0.416222	-0.060600	0.106565
C78	C	0.916222	0.439400	0.606565
C79	C	0.386524	-0.005481	0.106075
C80	C	0.886524	0.494519	0.606075
O81	O	0.322246	-0.107325	0.105004
O82	O	0.822246	0.392675	0.605004
O83	O	0.322207	0.096506	0.105003
O84	O	0.822207	0.596506	0.605003
N85	N	0.672658	0.138514	0.102537
N86	N	1.172658	0.638514	0.602537
C87	C	0.711449	0.561122	0.048571
C88	C	1.211449	1.061122	0.548571
C89	C	0.711452	0.624730	0.048566
C90	C	1.211452	1.124730	0.548566
O91	O	0.744410	0.660027	0.002690
O92	O	1.244410	1.160027	0.502690
N93	N	0.672685	0.653723	0.102489
N94	N	1.172685	1.153723	0.602489
C95	C	0.633910	0.619105	0.156415
C96	C	1.133910	1.119105	0.656415
O97	O	0.600936	0.649607	0.202279
O98	O	1.100936	1.149607	0.702279
C99	C	0.633905	0.555499	0.156415
C100	C	1.133905	1.055499	0.656415
C101	C	0.672678	0.526509	0.102494
C102	C	1.172678	1.026509	0.602494
C103	C	0.750218	0.532132	-0.005346
C104	C	1.250218	1.032132	0.494654
C105	C	0.750216	0.468528	-0.005340
C106	C	1.250216	0.968528	0.494660
C107	C	0.711445	0.433915	0.048583
C108	C	1.211445	0.933915	0.548583
C109	C	0.672676	0.462905	0.102500
C110	C	1.172676	0.962905	0.602500
C111	C	0.595128	0.520882	0.210336
C112	C	1.095128	1.020882	0.710336
C113	C	0.595126	0.457272	0.210332
C114	C	1.095126	0.957272	0.710332
C115	C	0.633899	0.428282	0.156411
C116	C	1.133899	0.928282	0.656411
C117	C	0.633903	0.364689	0.156429
C118	C	1.133903	0.864689	0.656429
N119	N	0.672669	0.335695	0.102507
N120	N	1.172669	0.835695	0.602507
C121	C	0.711440	0.370309	0.048584
C122	C	1.211440	0.870309	0.548584
C123	C	0.633923	0.752683	0.156409
C124	C	1.133923	1.252683	0.656409
C125	C	0.633930	0.816288	0.156413
C126	C	1.133930	1.316288	0.656413
C127	C	0.711471	0.821909	0.048563
C128	C	1.211471	1.321909	0.548563
C129	C	0.711466	0.758302	0.048564
C130	C	1.211466	1.258302	0.548564
C131	C	0.672689	0.723690	0.102486
C132	C	1.172689	1.223690	0.602486
C133	C	0.711433	0.236736	0.048601
C134	C	1.211433	0.736736	0.548601
C135	C	0.711430	0.173127	0.048614
C136	C	1.211430	0.673127	0.548614
C137	C	0.633887	0.167512	0.156460
C138	C	1.133887	0.667512	0.656460
C139	C	0.633892	0.231116	0.156450
C140	C	1.133892	0.731116	0.656450
C141	C	0.672668	0.265727	0.102514
C142	C	1.172668	0.765727	0.602514
O143	O	0.600959	0.329353	0.202280
O144	O	1.100959	0.829353	0.702280
O145	O	0.744404	0.339799	0.002720
O146	O	1.244404	0.839799	0.502720
C147	C	0.776806	-0.004933	0.095908
C148	C	1.276806	0.495067	0.595908
C149	C	0.840028	-0.004985	0.096953
C150	C	1.340028	0.495015	0.596953
N151	N	0.672699	0.850908	0.102487
N152	N	1.172699	1.350908	0.602487
C153	C	0.676951	0.002261	-0.041745
C154	C	1.176951	0.502261	0.458255
C155	C	0.675899	0.006840	-0.129306
C156	C	1.175899	0.506840	0.370694
C157	C	0.675414	-0.046090	-0.170448
C158	C	1.175414	0.453910	0.329552
C159	C	0.674421	-0.041785	-0.252720
C160	C	1.174421	0.458215	0.247280
C161	C	0.673917	0.015450	-0.293849
C162	C	1.173917	0.515450	0.206151
C163	C	0.674400	0.068384	-0.252701
C164	C	1.174400	0.568384	0.247299
C165	C	0.675389	0.064079	-0.170429
C166	C	1.175389	0.564079	0.329571
C167	C	0.670927	0.031205	-0.542254
C168	C	1.170927	0.531205	-0.042254
C169	C	0.669940	0.035506	-0.624532
C170	C	1.169940	0.535506	-0.124532
C171	C	0.669960	-0.074664	-0.624545
C172	C	1.169960	0.425336	-0.124545
C173	C	0.670953	-0.078964	-0.542273
C174	C	1.170953	0.421036	-0.042273
C175	C	0.671432	-0.026030	-0.501131
C176	C	1.171432	0.473970	-0.001131
C177	C	0.672904	0.019851	-0.377945
C178	C	1.172904	0.519851	0.122055
C179	C	0.672441	-0.030432	-0.417036
C180	C	1.172441	0.469568	0.082964
C181	C	0.668403	-0.012841	0.246765
C182	C	1.168403	0.487159	0.746765
C183	C	0.669456	-0.017424	0.334326
C184	C	1.169456	0.482576	0.834326
H185	H	-0.046688	0.094856	0.098866
H186	H	0.453312	0.594856	0.598866
H187	H	0.669569	-0.117760	-0.658052
H188	H	1.169569	0.382240	-0.158052
H189	H	0.226575	-0.160359	0.103343
H190	H	0.726575	0.339641	0.603343
H191	H	0.675828	-0.092697	-0.136967
H192	H	1.175828	0.407303	0.363033
N193	N	0.669421	0.093979	-0.666533
N194	N	1.169421	0.593979	-0.166533
N195	N	0.669847	0.141236	-0.629790
N196	N	1.169847	0.641236	-0.129790
H197	H	0.669479	0.182531	-0.659453
H198	H	1.169479	0.682531	-0.159453
N199	N	0.672395	0.078320	-0.419948
N200	N	1.172395	0.578320	0.080052
N201	N	0.672831	0.125578	-0.383210
N202	N	1.172831	0.625578	0.116790
H203	H	0.672469	0.166872	-0.412875
H204	H	1.172469	0.666872	0.087125
N205	N	0.671419	0.085280	-0.500249
N206	N	1.171419	0.585280	-0.000249
N207	N	0.670972	0.136378	-0.536984
N208	N	1.170972	0.636378	-0.036984
H209	H	0.671320	0.174571	-0.507316
H210	H	1.171320	0.674571	-0.007316
H211	H	-0.154459	0.094948	0.097065
H212	H	0.345541	0.594948	0.597065
N213	N	0.555517	0.421926	0.265428
N214	N	1.055517	0.921926	0.765428
N215	N	0.556234	0.425229	0.338335
N216	N	1.056234	0.925229	0.838335
H217	H	0.528262	0.400268	0.377248
H218	H	1.028262	0.900268	0.877248
H219	H	0.226553	0.149687	0.103432
H220	H	0.726553	0.649687	0.603432
H221	H	-0.154443	-0.104930	0.097038
H222	H	0.345557	0.395070	0.597038
H223	H	0.563555	0.544477	0.254243
H224	H	1.063555	1.044477	0.754243
H225	H	0.392039	-0.105434	0.106161
H226	H	0.892039	0.394566	0.606161
H227	H	0.118804	0.149786	0.101629
H228	H	0.618804	0.649786	0.601629
N229	N	0.594286	0.260722	0.211536
N230	N	1.094286	0.760722	0.711536
N231	N	0.559672	0.229807	0.259677
N232	N	1.059672	0.729807	0.759677
H233	H	0.531694	0.250713	0.298576
H234	H	1.031694	0.750713	0.798576
N235	N	0.751049	0.272085	-0.006480
N236	N	1.251049	0.772085	0.493520
N237	N	0.786383	0.306278	0.018287
N238	N	1.286383	0.806278	0.518287
H239	H	0.814363	0.331243	-0.020611
H240	H	1.314363	0.831243	0.479389
H241	H	0.499813	-0.105528	0.107957
H242	H	0.999813	0.394472	0.607957
N243	N	0.673872	0.126849	-0.294709
N244	N	1.173872	0.626849	0.205291
N245	N	0.633191	0.141137	-0.333019
N246	N	1.133191	0.641137	0.166981
H247	H	0.632818	0.182428	-0.362688
H248	H	1.132818	0.682428	0.137312
N249	N	0.671464	-0.137425	-0.500250
N250	N	1.171464	0.362575	-0.000250
N251	N	0.672349	-0.141260	-0.426795
N252	N	1.172349	0.358740	0.073205
H253	H	0.672713	-0.182548	-0.397115
H254	H	1.172713	0.317452	0.102885
N255	N	-0.040538	-0.116453	0.098916
N256	N	0.459462	0.383547	0.598916
N257	N	-0.067070	-0.165602	0.098466
N258	N	0.432930	0.334398	0.598466
H259	H	-0.045655	-0.205369	0.098812
H260	H	0.454345	0.294631	0.598812
H261	H	0.743005	0.149526	0.004705
H262	H	1.243005	0.649526	0.504705
H263	H	0.672848	-0.077033	-0.383545
H264	H	1.172848	0.422967	0.116455
H265	H	0.602321	0.139320	0.200366
H266	H	1.102321	0.639320	0.700366
H267	H	0.674029	-0.084887	-0.286215
H268	H	1.174029	0.415113	0.213785
H269	H	0.675775	0.107180	-0.136931
H270	H	1.175775	0.607180	0.363069
N271	N	0.789867	0.438928	-0.060368
N272	N	1.289867	0.938928	0.439632
N273	N	0.824505	0.469848	-0.108468
N274	N	1.324505	0.969848	0.391532
H275	H	0.852525	0.448946	-0.147316
H276	H	1.352525	0.948946	0.352684
H277	H	0.499802	0.094348	0.108001
H278	H	0.999802	0.594348	0.608001
H279	H	0.392049	0.094453	0.106192
H280	H	0.892049	0.594453	0.606192
H281	H	0.118821	-0.160265	0.101548
H282	H	0.618821	0.339735	0.601548
H283	H	0.781790	0.560309	-0.049260
H284	H	1.281790	1.060309	0.450740
H285	H	0.743038	0.734703	0.004656
H286	H	1.243038	1.234703	0.504656
H287	H	0.743040	0.850103	0.004655
H288	H	1.243040	1.350103	0.504655
H289	H	0.602363	0.839887	0.200328
H290	H	1.102363	1.339887	0.700328
N291	N	0.594308	0.717339	0.211502
N292	N	1.094308	1.217339	0.711502
N293	N	0.559701	0.743240	0.259639
N294	N	1.059701	1.243240	0.759639
H295	H	0.531722	0.718281	0.298548
H296	H	1.031722	1.218281	0.798548
