data_functionalizedCrystal
_audit_creation_method	'MofGen! by Chris Wilmer'
_symmetry_space_group_name_H-M	'P1'
_symmetry_Int_Tables_number	1
_symmetry_cell_setting	triclinic
loop_
_symmetry_equiv_pos_as_xyz
  x,y,z
_cell_length_a	14.519709
_cell_length_b	17.666332
_cell_length_c	14.519709
_cell_angle_alpha	90.007412
_cell_angle_beta	83.680145
_cell_angle_gamma	90.003734
loop_
_atom_site_label
_atom_site_type_symbol
_atom_site_fract_x
_atom_site_fract_y
_atom_site_fract_z
O1	O	1.223874	0.062851	0.120893
O2	O	0.955397	0.062875	0.135129
O3	O	1.096754	0.062856	-0.006227
O4	O	1.082517	0.062871	0.262250
O5	O	1.096729	-0.063041	-0.006235
O6	O	0.955372	-0.063022	0.135122
O7	O	1.223849	-0.063045	0.120885
Cu8	Cu	1.089608	-0.074529	0.128003
Cu9	Cu	1.089638	0.074358	0.128012
O10	O	1.082492	-0.063026	0.262242
C11	C	0.921025	-0.000071	0.134462
C12	C	0.818643	-0.000062	0.132474
N13	N	1.089594	-0.179248	0.127996
C14	C	0.443748	-0.000097	0.125154
C15	C	0.548056	-0.000087	0.127187
C16	C	0.631192	-0.000079	0.128814
C17	C	0.735507	-0.000070	0.130847
C18	C	1.152207	-0.218867	0.065434
C19	C	1.152213	-0.298114	0.065429
C20	C	1.089614	-0.337741	0.128003
C21	C	1.026989	-0.298113	0.190570
C22	C	1.026979	-0.218867	0.190566
N23	N	1.078009	-0.462154	0.209587
N24	N	1.078024	-0.537435	0.209587
C25	C	1.089638	-0.576505	0.128016
N26	N	1.101255	-0.537450	0.046442
N27	N	1.101245	-0.462163	0.046442
C28	C	1.089617	-0.423670	0.128013
C29	C	1.152261	-0.702052	0.065444
C30	C	1.152259	-0.781301	0.065438
C31	C	1.027040	-0.781298	0.190587
C32	C	1.027037	-0.702051	0.190584
C33	C	1.089652	-0.662432	0.128014
C34	C	1.258221	-0.000098	0.121553
C35	C	1.360602	-0.000102	0.123541
C36	C	1.096078	-0.000093	-0.040591
C37	C	1.094090	-0.000093	-0.142972
N38	N	1.089659	0.179078	0.128011
C39	C	1.086770	-0.000073	-0.517868
C40	C	1.088803	-0.000079	-0.413560
C41	C	1.090430	-0.000084	-0.330423
C42	C	1.092463	-0.000088	-0.226109
C43	C	1.083168	-0.000076	0.296605
C44	C	1.085156	-0.000071	0.398987
H45	H	1.203190	-0.186612	0.014483
H46	H	1.203243	-0.669794	0.014492
H47	H	1.203244	-0.813559	0.014488
H48	H	1.203202	-0.330377	0.014482
H49	H	0.976055	-0.669791	0.241532
H50	H	0.976067	-0.813561	0.241532
H51	H	0.976018	-0.330381	0.241517
H52	H	0.975991	-0.186609	0.241513
