data_functionalizedCrystal
_audit_creation_method	'MofGen! by Chris Wilmer'
_symmetry_space_group_name_H-M	'P1'
_symmetry_Int_Tables_number	1
_symmetry_cell_setting	triclinic
loop_
_symmetry_equiv_pos_as_xyz
  x,y,z
_cell_length_a	6.817900
_cell_length_b	11.102289
_cell_length_c	10.992410
_cell_angle_alpha	91.891801
_cell_angle_beta	108.764651
_cell_angle_gamma	108.605707
loop_
_atom_site_label
_atom_site_type_symbol
_atom_site_fract_x
_atom_site_fract_y
_atom_site_fract_z
V1	V	-4.113419	-0.175839	-0.400593
O2	O	-4.072416	0.008450	-0.392967
O3	O	-4.090183	-0.348659	-0.397853
O4	O	-4.091024	-0.173134	-0.575305
O5	O	-4.071569	-0.168290	-0.214287
V6	V	-4.590417	-0.153796	-0.378309
O7	O	-4.388992	-0.224192	-0.449474
O8	O	-4.765042	-0.105443	-0.329428
O9	O	-4.390446	0.019024	-0.381049
O10	O	-4.748817	-0.338085	-0.385935
O11	O	-4.749664	-0.161345	-0.564615
O12	O	-4.389605	-0.156501	-0.203597
C13	C	-3.940464	-0.390789	-0.391533
C14	C	-4.002926	-0.532072	-0.390458
C15	C	-4.216309	-0.604920	-0.396362
C16	C	-4.274992	-0.737672	-0.395362
C17	C	-3.906887	-0.724714	-0.382549
C18	C	-3.848211	-0.591966	-0.383558
C19	C	-4.428829	-0.612402	-0.403753
C20	C	-4.487513	-0.745153	-0.402754
C21	C	-3.941535	-0.166888	-0.617890
C22	C	-4.004675	-0.165820	-0.760718
C23	C	-3.871844	-0.156090	-0.955842
C24	C	-3.806286	-0.157727	-0.807358
C25	C	-4.202100	-0.291131	-0.837822
C26	C	-4.266419	-0.290023	-0.986389
C27	C	-4.145329	-0.047376	-0.948357
C28	C	-4.074622	-0.046782	-0.799344
C29	C	-4.203508	0.061147	-0.387365
C30	C	-4.120285	0.202429	-0.388449
C31	C	-4.202436	-0.162751	-0.161005
C32	C	-4.118534	-0.163813	-0.018176
H33	H	-4.619770	-0.803020	-0.497939
H34	H	-4.155922	-0.379511	-0.812217
C35	C	-4.006901	0.081182	-0.975850
C36	C	-4.007598	0.208842	-0.917126
C37	C	-3.869150	0.337392	-0.944620
C38	C	-3.730005	0.338281	-1.030838
C39	C	-3.729302	0.210616	-1.089567
C40	C	-3.867751	0.082066	-1.062073
H41	H	-4.110607	0.208188	-0.853298
H42	H	-3.869671	0.431898	-0.901144
H43	H	-3.627517	0.433441	-1.051190
H44	H	-3.626294	0.211270	-1.153395
H45	H	-3.867230	-0.012440	-1.105548
H46	H	-4.538406	-0.770122	-0.314989
C47	C	-4.512221	-0.304753	-1.044003
C48	C	-4.580075	-0.199056	-1.114772
C49	C	-4.825876	-0.213804	-1.172388
C50	C	-5.003824	-0.334250	-1.159234
C51	C	-4.935975	-0.439956	-1.088462
C52	C	-4.690173	-0.425207	-1.030846
H53	H	-4.448344	-0.109887	-1.124513
H54	H	-4.876102	-0.135553	-1.224778
H55	H	-5.185781	-0.345168	-1.201884
H56	H	-5.067706	-0.529125	-1.078722
H57	H	-4.639947	-0.503458	-0.978456
C58	C	-3.606480	-0.035894	-0.735375
C59	C	-3.387904	-0.009293	-0.760368
C60	C	-3.188178	0.112599	-0.688434
C61	C	-3.207026	0.207889	-0.591506
C62	C	-3.425610	0.181290	-0.566508
C63	C	-3.625337	0.059399	-0.638443
H64	H	-3.373944	-0.079834	-0.832124
H65	H	-3.026367	0.132289	-0.706939
H66	H	-3.059176	0.298120	-0.538256
H67	H	-3.439571	0.251832	-0.494753
H68	H	-3.787147	0.039709	-0.619937
C69	C	-4.580515	-0.586422	-0.529988
C70	C	-4.480586	-0.513641	-0.625045
C71	C	-4.632264	-0.487660	-0.751277
C72	C	-4.883871	-0.534461	-0.782452
C73	C	-4.983813	-0.607247	-0.687393
C74	C	-4.832135	-0.633227	-0.561161
H75	H	-4.294320	-0.478992	-0.601969
H76	H	-4.558279	-0.433779	-0.821646
H77	H	-4.996152	-0.515229	-0.875896
H78	H	-5.170079	-0.641895	-0.710468
H79	H	-4.906120	-0.687108	-0.490792
C80	C	-4.405187	-0.305259	-0.798912
C81	C	-4.624014	-0.310078	-0.902081
C82	C	-4.827097	-0.324203	-0.863168
C83	C	-4.811354	-0.333509	-0.721085
C84	C	-4.592518	-0.328690	-0.617907
C85	C	-4.389435	-0.314565	-0.656820
H86	H	-4.635676	-0.303189	-1.007268
H87	H	-4.989094	-0.327770	-0.939548
H88	H	-4.961688	-0.343965	-0.692279
H89	H	-4.580855	-0.335579	-0.512720
H90	H	-4.227438	-0.310998	-0.580440
H91	H	-3.674468	-0.532660	-0.378765
H92	H	-3.780932	-0.773496	-0.376932
H93	H	-4.428470	-0.559175	-0.313164
H94	H	-3.931806	0.045918	-0.746986
H95	H	-4.324291	-0.051930	-0.989198
H96	H	-3.755068	-0.065366	-0.974671
H97	H	-3.748706	-0.242550	-0.782544
H98	H	-3.846512	-0.239751	-1.003834
H99	H	-4.250441	-0.378187	-1.032659
H100	H	-4.216742	-0.045310	-0.766832
