data_functionalizedCrystal
_audit_creation_method	'MofGen! by Chris Wilmer'
_symmetry_space_group_name_H-M	'P1'
_symmetry_Int_Tables_number	1
_symmetry_cell_setting	triclinic
loop_
_symmetry_equiv_pos_as_xyz
  x,y,z
_cell_length_a	10.654550
_cell_length_b	9.730223
_cell_length_c	17.038278
_cell_angle_alpha	89.988929
_cell_angle_beta	87.797716
_cell_angle_gamma	90.000649
loop_
_atom_site_label
_atom_site_type_symbol
_atom_site_fract_x
_atom_site_fract_y
_atom_site_fract_z
O1	O	1.678039	-0.114212	0.109877
O2	O	1.313532	-0.114239	0.120346
O3	O	1.493621	-0.114191	0.001284
O4	O	1.497950	-0.114260	0.228939
O5	O	1.493611	0.114389	0.001282
O6	O	1.313522	0.114341	0.120344
O7	O	1.678029	0.114368	0.109875
Zn8	Zn	1.495774	0.150647	0.115109
Zn9	Zn	1.495787	-0.150517	0.115112
O10	O	1.497940	0.114320	0.228937
C11	C	1.266658	0.000048	0.119576
C12	C	1.127001	0.000039	0.117276
C13	C	1.489675	0.000105	-0.027867
C14	C	1.477920	0.000122	-0.114726
C15	C	1.054024	0.000021	0.187378
C16	C	0.922802	0.000046	0.185213
C17	C	0.937547	0.000100	0.042838
C18	C	1.068766	0.000085	0.045004
C19	C	1.724903	0.000078	0.110645
C20	C	1.864560	0.000078	0.112945
N21	N	1.495774	0.356183	0.115107
N22	N	1.495797	-0.356054	0.115108
C23	C	1.575554	0.572023	0.062406
C24	C	1.575546	0.428140	0.062407
C25	C	1.416013	0.428117	0.167814
C26	C	1.416028	0.571997	0.167817
C27	C	1.405698	-0.000009	-0.605541
C28	C	1.416753	0.000005	-0.523929
C29	C	1.535754	0.000033	-0.491831
C30	C	1.643705	0.000033	-0.541349
C31	C	1.632649	0.000009	-0.622960
C32	C	1.574815	0.000098	-0.245855
C33	C	1.585863	0.000126	-0.164238
C34	C	1.358910	0.000096	-0.146823
C35	C	1.347864	0.000080	-0.228436
C36	C	1.455815	0.000073	-0.277948
C37	C	1.547057	0.000052	-0.408410
C38	C	1.444511	0.000044	-0.361367
C39	C	1.501885	0.000021	0.258088
C40	C	1.513641	-0.000005	0.344947
H41	H	1.101434	-0.000006	0.246227
H42	H	1.740598	0.000058	-0.515209
H43	H	1.347621	0.000014	-0.387504
Br44	Br	1.212413	0.000101	-0.079626
Br45	Br	1.683813	0.669663	-0.009125
Br46	Br	1.708554	0.000088	-0.364841
Br47	Br	1.747374	0.000210	-0.120677
H48	H	1.351065	0.369521	0.210727
H49	H	0.863389	0.000035	0.242297
H50	H	1.662717	0.000100	-0.286158
H51	H	0.890116	0.000146	-0.016004
Br52	Br	1.683798	0.330531	-0.009116
Br53	Br	1.307789	0.669619	0.239351
Br54	Br	1.244189	-0.000031	-0.649094
H55	H	1.128187	0.000103	-0.012085
Br56	Br	1.270251	-0.000019	-0.456735
H57	H	1.720548	0.000006	-0.663273
H58	H	1.250961	0.000042	-0.254564
