data_functionalizedCrystal
_audit_creation_method	'MofGen! by Chris Wilmer'
_symmetry_space_group_name_H-M	'P1'
_symmetry_Int_Tables_number	1
_symmetry_cell_setting	triclinic
loop_
_symmetry_equiv_pos_as_xyz
  x,y,z
_cell_length_a	17.077404
_cell_length_b	13.897447
_cell_length_c	17.077404
_cell_angle_alpha	90.008559
_cell_angle_beta	90.007178
_cell_angle_gamma	90.017500
loop_
_atom_site_label
_atom_site_type_symbol
_atom_site_fract_x
_atom_site_fract_y
_atom_site_fract_z
Zn1	Zn	1.199986	-0.384234	0.443832
Zn2	Zn	1.699986	0.115766	0.943832
Zn3	Zn	1.199927	-0.545497	0.312571
Zn4	Zn	1.699927	-0.045497	0.812571
Zn5	Zn	1.068744	-0.384212	0.312582
Zn6	Zn	1.568744	0.115788	0.812582
Zn7	Zn	1.068694	-0.545483	0.443797
Zn8	Zn	1.568694	-0.045483	0.943797
O9	O	1.134338	-0.464857	0.378196
O10	O	1.634338	0.035143	0.878196
O11	O	1.309825	-0.405641	0.426429
O12	O	1.809825	0.094359	0.926429
O13	O	1.182521	-0.524099	0.202726
O14	O	1.682521	-0.024099	0.702726
O15	O	1.086199	-0.249234	0.330012
O16	O	1.586199	0.250766	0.830012
O17	O	1.309781	-0.524121	0.329993
O18	O	1.809781	-0.024121	0.829993
O19	O	1.182622	-0.249250	0.426440
O20	O	1.682622	0.250750	0.926440
O21	O	1.086141	-0.405604	0.202734
O22	O	1.586141	0.094396	0.702734
O23	O	0.958890	-0.405590	0.329978
O24	O	1.458890	0.094410	0.829978
O25	O	1.086114	-0.524096	0.553649
O26	O	1.586114	-0.024096	1.053649
O27	O	0.958853	-0.524075	0.426382
O28	O	1.458853	-0.024075	0.926382
O29	O	1.182574	-0.405627	0.553674
O30	O	1.682574	0.094373	1.053674
O31	O	1.182472	-0.680477	0.329960
O32	O	1.682472	-0.180477	0.829960
O33	O	1.086056	-0.680467	0.426371
O34	O	1.586056	-0.180467	0.926371
C35	C	0.930390	-0.464829	0.378178
C36	C	1.430390	0.035171	0.878178
C37	C	0.843140	-0.464841	0.378189
C38	C	1.343140	0.035159	0.878189
C39	C	0.802173	-0.403258	0.428480
C40	C	1.302173	0.096742	0.928480
C41	C	0.720193	-0.403265	0.428484
C42	C	1.220193	0.096735	0.928484
C43	C	0.679181	-0.464859	0.378200
C44	C	1.179181	0.035141	0.878200
C45	C	0.720153	-0.526444	0.327903
C46	C	1.220153	-0.026444	0.827903
C47	C	0.802132	-0.526432	0.327896
C48	C	1.302132	-0.026432	0.827896
C49	C	0.549283	-0.526466	0.327922
C50	C	1.049283	-0.026466	0.827922
C51	C	0.467298	-0.526479	0.327930
C52	C	0.967298	-0.026479	0.827930
C53	C	0.467344	-0.403298	0.428510
C54	C	0.967344	0.096702	0.928510
C55	C	0.549323	-0.403287	0.428503
C56	C	1.049323	0.096713	0.928503
C57	C	0.590290	-0.464873	0.378207
C58	C	1.090290	0.035127	0.878207
C59	C	1.134274	-0.715471	0.378177
C60	C	1.634274	-0.215471	0.878177
C61	C	1.134318	-0.822685	0.378196
C62	C	1.634318	-0.322685	0.878196
C63	C	1.134356	-0.909755	0.378214
C64	C	1.634356	-0.409755	0.878214
C65	C	1.134411	-1.018987	0.378234
C66	C	1.634411	-0.518987	0.878234
C67	C	1.339082	-0.464885	0.378214
C68	C	1.839082	0.035115	0.878214
C69	C	1.426332	-0.464897	0.378221
C70	C	1.926332	0.035103	0.878221
C71	C	1.134345	-0.464863	0.582940
C72	C	1.634345	0.035137	1.082940
C73	C	1.134348	-0.464865	0.670190
C74	C	1.634348	0.035135	1.170190
C75	C	1.134423	-0.213264	0.378231
C76	C	1.634423	0.286736	0.878231
C77	C	1.134459	-0.106050	0.378246
C78	C	1.634459	0.393950	0.878246
C79	C	1.184569	-0.403189	0.711194
C80	C	1.684569	0.096811	1.211194
C81	C	1.184562	-0.403187	0.793175
C82	C	1.684562	0.096813	1.293175
C83	C	1.134339	-0.464868	0.834149
C84	C	1.634339	0.035132	1.334149
C85	C	1.084112	-0.526547	0.793139
C86	C	1.584112	-0.026547	1.293139
C87	C	1.084116	-0.526543	0.711160
C88	C	1.584116	-0.026543	1.211160
C89	C	1.084111	-0.526554	0.964009
C90	C	1.584111	-0.026554	1.464009
C91	C	1.084108	-0.526560	1.045993
C92	C	1.584108	-0.026560	1.545993
C93	C	1.184557	-0.403198	1.046024
C94	C	1.684557	0.096802	1.546024
C95	C	1.184561	-0.403194	0.964045
C96	C	1.684561	0.096806	1.464045
C97	C	1.134335	-0.464874	0.923040
C98	C	1.634335	0.035126	1.423040
C99	C	1.134326	-0.464876	1.174248
C100	C	1.634326	0.035124	1.674248
C101	C	1.134329	-0.464883	1.086998
C102	C	1.634329	0.035117	1.586998
H103	H	0.835560	-0.353104	0.469430
H104	H	1.335560	0.146896	0.969430
C105	C	1.239810	-0.335340	0.838276
C106	C	1.739810	0.164660	1.338276
N107	N	1.281426	-0.284234	0.872246
N108	N	1.781426	0.215766	1.372246
H109	H	0.686841	-0.353120	0.469437
H110	H	1.186841	0.146880	0.969437
C111	C	0.422186	-0.594234	0.272614
C112	C	0.922186	-0.094234	0.772614
N113	N	0.388208	-0.645268	0.230948
N114	N	0.888208	-0.145268	0.730948
H115	H	0.582635	-0.576614	0.286964
H116	H	1.082635	-0.076614	0.786964
H117	H	0.686754	-0.576591	0.286957
H118	H	1.186754	-0.076591	0.786957
H119	H	0.433985	-0.353150	0.469462
H120	H	0.933985	0.146850	0.969462
C121	C	1.239805	-0.335348	1.091130
C122	C	1.739805	0.164652	1.591130
N123	N	1.281419	-0.284248	1.125108
N124	N	1.781419	0.215752	1.625108
C125	C	0.847195	-0.594180	0.272573
C126	C	1.347195	-0.094180	0.772573
N127	N	0.881135	-0.645208	0.230901
N128	N	1.381135	-0.145208	0.730901
H129	H	1.225469	-0.352964	0.677839
H130	H	1.725469	0.147036	1.177839
C131	C	1.028863	-0.594410	0.918906
C132	C	1.528863	-0.094410	1.418906
N133	N	0.987255	-0.645522	0.884934
N134	N	1.487255	-0.145522	1.384934
H135	H	1.225462	-0.352973	0.930685
H136	H	1.725462	0.147027	1.430685
H137	H	1.043217	-0.576765	0.826507
H138	H	1.543217	-0.076765	1.326507
C139	C	1.028855	-0.594406	1.091064
C140	C	1.528855	-0.094406	1.591064
N141	N	0.987236	-0.645507	1.125011
N142	N	1.487236	-0.145507	1.625011
H143	H	0.582713	-0.353137	0.469454
H144	H	1.082713	0.146863	0.969454
H145	H	1.043213	-0.576757	0.677775
H146	H	1.543213	-0.076757	1.177775
