data_functionalizedCrystal
_audit_creation_method	'MofGen! by Chris Wilmer'
_symmetry_space_group_name_H-M	'P1'
_symmetry_Int_Tables_number	1
_symmetry_cell_setting	triclinic
loop_
_symmetry_equiv_pos_as_xyz
  x,y,z
_cell_length_a	18.101389
_cell_length_b	21.395362
_cell_length_c	21.395361
_cell_angle_alpha	90.046585
_cell_angle_beta	90.022625
_cell_angle_gamma	90.038396
loop_
_atom_site_label
_atom_site_type_symbol
_atom_site_fract_x
_atom_site_fract_y
_atom_site_fract_z
Zn1	Zn	-0.419095	-0.957825	0.249239
Zn2	Zn	0.080905	-0.457825	0.749239
Zn3	Zn	-0.295245	-0.957738	0.354001
Zn4	Zn	0.204755	-0.457738	0.854001
Zn5	Zn	-0.295226	-0.853050	0.249270
Zn6	Zn	0.204774	-0.353050	0.749270
Zn7	Zn	-0.419003	-0.853009	0.354011
Zn8	Zn	0.080997	-0.353009	0.854011
O9	O	-0.357142	-0.905406	0.301630
O10	O	0.142858	-0.405406	0.801630
O11	O	-0.402713	-1.045492	0.263118
O12	O	0.097287	-0.545492	0.763118
O13	O	-0.191609	-0.943831	0.340116
O14	O	0.308391	-0.443831	0.840116
O15	O	-0.311688	-0.867003	0.161588
O16	O	0.188312	-0.367003	0.661588
O17	O	-0.311720	-1.045427	0.340086
O18	O	0.188280	-0.545427	0.840086
O19	O	-0.402695	-0.943980	0.161565
O20	O	0.097305	-0.443980	0.661565
O21	O	-0.191595	-0.866918	0.263171
O22	O	0.308405	-0.366918	0.763171
O23	O	-0.311599	-0.765367	0.263182
O24	O	0.188401	-0.265367	0.763182
O25	O	-0.522648	-0.866933	0.340105
O26	O	-0.022648	-0.366933	0.840105
O27	O	-0.402537	-0.765337	0.340135
O28	O	0.097463	-0.265337	0.840135
O29	O	-0.522716	-0.943941	0.263129
O30	O	-0.022716	-0.443941	0.763129
O31	O	-0.311630	-0.943792	0.441680
O32	O	0.188370	-0.443792	0.941680
O33	O	-0.402555	-0.866848	0.441688
O34	O	0.097445	-0.366848	0.941688
C35	C	-0.357101	-0.905323	0.464418
C36	C	0.142899	-0.405323	0.964418
C37	C	-0.357108	-0.905345	0.534059
C38	C	0.142892	-0.405345	1.034059
C39	C	-0.357056	-0.742618	0.301663
C40	C	0.142944	-0.242618	0.801663
C41	C	-0.357037	-0.672977	0.301693
C42	C	0.142963	-0.172977	0.801693
C43	C	-0.550304	-0.905442	0.301614
C44	C	-0.050304	-0.405442	0.801614
C45	C	-0.632618	-0.905457	0.301608
C46	C	-0.132618	-0.405457	0.801608
C47	C	-0.931709	-0.905494	0.301490
C48	C	-0.431709	-0.405494	0.801490
C49	C	-0.900341	-0.856876	0.349767
C50	C	-0.400341	-0.356876	0.849767
C51	C	-0.814723	-0.857007	0.349991
C52	C	-0.314723	-0.357007	0.849991
C53	C	-0.783327	-0.905475	0.301548
C54	C	-0.283327	-0.405475	0.801548
C55	C	-0.814450	-0.971488	0.319453
C56	C	-0.314450	-0.471488	0.819453
C57	C	-0.900095	-0.971217	0.319770
C58	C	-0.400095	-0.471217	0.819770
C59	C	-0.900135	-0.888673	0.235201
C60	C	-0.400135	-0.388673	0.735201
C61	C	-0.814483	-0.887204	0.235584
C62	C	-0.314483	-0.387204	0.735584
C63	C	-0.699467	-0.905469	0.301580
C64	C	-0.199467	-0.405469	0.801580
C65	C	-1.015569	-0.905505	0.301460
C66	C	-0.515569	-0.405505	0.801460
C67	C	-0.164732	-0.905406	0.301601
C68	C	0.335268	-0.405406	0.801601
C69	C	-0.082418	-0.905512	0.301431
C70	C	0.417582	-0.405512	0.801431
C71	C	-0.357229	-1.068829	0.301597
C72	C	0.142771	-0.568829	0.801597
C73	C	-0.357266	-1.138470	0.301583
C74	C	0.142734	-0.638470	0.801583
C75	C	-0.404318	-0.640264	0.341815
C76	C	0.095682	-0.140264	0.841815
C77	C	-0.404351	-0.574829	0.341800
C78	C	0.095649	-0.074829	0.841800
C79	C	-0.357090	-0.542108	0.301668
C80	C	0.142910	-0.042108	0.801668
C81	C	-0.309806	-0.574829	0.261538
C82	C	0.190194	-0.074829	0.761538
C83	C	-0.309779	-0.640263	0.261550
C84	C	0.190221	-0.140263	0.761550
C85	C	-0.290421	-0.438389	0.296622
C86	C	0.209579	0.061611	0.796622
C87	C	-0.290446	-0.372956	0.296614
C88	C	0.209554	0.127044	0.796614
C89	C	-0.357172	-0.340288	0.301628
C90	C	0.142828	0.159712	0.801628
C91	C	-0.423874	-0.373060	0.306662
C92	C	0.076126	0.126940	0.806662
C93	C	-0.423848	-0.438494	0.306674
C94	C	0.076152	0.061506	0.806674
C95	C	-0.357113	-0.471156	0.301651
C96	C	0.142887	0.028844	0.801651
C97	C	-0.404492	-0.236623	0.341736
C98	C	0.095508	0.263377	0.841736
C99	C	-0.404526	-0.171186	0.341716
C100	C	0.095474	0.328814	0.841716
C101	C	-0.309975	-0.171187	0.261457
C102	C	0.190025	0.328813	0.761457
C103	C	-0.309947	-0.236623	0.261474
C104	C	0.190053	0.263377	0.761474
C105	C	-0.357205	-0.269336	0.301616
C106	C	0.142795	0.230664	0.801616
C107	C	-0.357200	-0.905506	0.138207
C108	C	0.142800	-0.405506	0.638207
C109	C	-0.357224	-0.905548	0.068566
C110	C	0.142776	-0.405548	0.568566
C111	C	-0.309812	-0.945445	0.566747
C112	C	0.190188	-0.445445	1.066747
C113	C	-0.309829	-0.945474	0.632183
C114	C	0.190171	-0.445474	1.132183
C115	C	-0.357133	-0.905392	0.664927
C116	C	0.142867	-0.405392	1.164927
C117	C	-0.404439	-0.865289	0.632231
C118	C	0.095561	-0.365289	1.132231
C119	C	-0.404426	-0.865266	0.566797
C120	C	0.095574	-0.365266	1.066797
C121	C	-0.362914	-0.848977	0.768658
C122	C	0.137086	-0.348977	1.268658
C123	C	-0.362922	-0.848999	0.834091
C124	C	0.137078	-0.348999	1.334091
C125	C	-0.357177	-0.905465	0.866748
C126	C	0.142823	-0.405465	1.366748
C127	C	-0.351409	-0.961910	0.833964
C128	C	0.148591	-0.461910	1.333964
C129	C	-0.351396	-0.961886	0.768530
C130	C	0.148604	-0.461886	1.268530
C131	C	-0.357153	-0.905413	0.735880
C132	C	0.142847	-0.405413	1.235880
C133	C	-0.309896	-0.945600	0.970389
C134	C	0.190104	-0.445600	1.470389
C135	C	-0.309918	-0.945630	1.035825
C136	C	0.190082	-0.445630	1.535825
C137	C	-0.404524	-0.865440	1.035873
C138	C	0.095476	-0.365440	1.535873
C139	C	-0.404506	-0.865415	0.970437
C140	C	0.095494	-0.365415	1.470437
C141	C	-0.357188	-0.905494	0.937699
C142	C	0.142812	-0.405494	1.437699
H143	H	-0.920914	-0.807777	0.338680
H144	H	-0.420914	-0.307777	0.838680
N145	N	-0.927353	-0.870669	0.411029
N146	N	-0.427353	-0.370669	0.911029
N147	N	-0.969605	-0.916150	0.419287
N148	N	-0.469605	-0.416150	0.919287
H149	H	-0.988684	-0.925893	0.462553
H150	H	-0.488684	-0.425893	0.962553
N151	N	-0.788974	-0.871007	0.411601
N152	N	-0.288974	-0.371007	0.911601
N153	N	-0.749336	-0.832616	0.440220
N154	N	-0.249336	-0.332616	0.940220
H155	H	-0.731138	-0.842523	0.483726
H156	H	-0.231138	-0.342523	0.983726
H157	H	-0.442956	-0.832655	0.658896
H158	H	0.057044	-0.332655	1.158896
H159	H	-0.271442	-0.263257	0.228805
H160	H	0.228558	0.236743	0.728805
H161	H	-0.443032	-0.144553	0.374387
H162	H	0.056968	0.355447	0.874387
H163	H	-0.346731	-1.007890	0.860552
H164	H	0.153269	-0.507890	1.360552
N165	N	-0.222314	-0.339486	0.291457
N166	N	0.277686	0.160514	0.791457
N167	N	-0.212061	-0.303011	0.246680
N168	N	0.287939	0.196989	0.746680
H169	H	-0.163941	-0.279375	0.243035
H170	H	0.336059	0.220625	0.743035
N171	N	-0.452835	-0.824487	1.069312
N172	N	0.047165	-0.324487	1.569312
N173	N	-0.447832	-0.766672	1.062074
N174	N	0.052168	-0.266672	1.562074
H175	H	-0.481955	-0.737748	1.085693
H176	H	0.018045	-0.237748	1.585693
N177	N	-0.788305	-0.795604	0.335933
N178	N	-0.288305	-0.295604	0.835933
N179	N	-0.748473	-0.786829	0.289040
N180	N	-0.248473	-0.286829	0.789040
H181	H	-0.729818	-0.743460	0.279112
H182	H	-0.229818	-0.243460	0.779112
N183	N	-0.925158	-0.989112	0.380559
N184	N	-0.425158	-0.489112	0.880559
N185	N	-0.879397	-1.001712	0.422456
N186	N	-0.379397	-0.501712	0.922456
H187	H	-0.897093	-1.014351	0.465390
H188	H	-0.397093	-0.514351	0.965390
H189	H	-0.271315	-0.978130	0.658802
H190	H	0.228685	-0.478130	1.158802
H191	H	-0.794138	-0.838624	0.222082
H192	H	-0.294138	-0.338624	0.722082
H193	H	-0.271327	-0.548183	0.228862
H194	H	0.228673	-0.048183	0.728862
N195	N	-0.452584	-0.673677	0.382825
N196	N	0.047416	-0.173677	0.882825
N197	N	-0.447542	-0.666304	0.440631
N198	N	0.052458	-0.166304	0.940631
H199	H	-0.481630	-0.689901	0.469595
H200	H	0.018370	-0.189901	0.969595
H201	H	-0.442855	-0.548189	0.374472
H202	H	0.057145	-0.048189	0.874472
H203	H	-0.794118	-1.008685	0.285394
H204	H	-0.294118	-0.508685	0.785394
H205	H	-0.920849	-1.008669	0.286132
H206	H	-0.420849	-0.508669	0.786132
N207	N	-0.261711	-0.137763	0.220460
N208	N	0.238289	0.362237	0.720460
N209	N	-0.261745	-0.079340	0.220450
N210	N	0.238255	0.420660	0.720450
H211	H	-0.227661	-0.055730	0.191492
H212	H	0.272339	0.444270	0.691492
N213	N	-0.222251	-0.471746	0.291489
N214	N	0.277749	0.028254	0.791489
N215	N	-0.162703	-0.442480	0.286997
N216	N	0.337297	0.057520	0.786997
H217	H	-0.114560	-0.466037	0.283369
H218	H	0.385440	0.033963	0.783369
N219	N	-0.787670	-0.928369	0.188054
N220	N	-0.287670	-0.428369	0.688054
N221	N	-0.806931	-0.920666	0.132482
N222	N	-0.306931	-0.420666	0.632482
H223	H	-0.787988	-0.949738	0.098913
H224	H	-0.287988	-0.449738	0.598913
N225	N	-0.452804	-0.824443	0.937041
N226	N	0.047196	-0.324443	1.437041
N227	N	-0.426682	-0.784517	0.900587
N228	N	0.073318	-0.284517	1.400587
H229	H	-0.460796	-0.755581	0.876999
H230	H	0.039204	-0.255581	1.376999
H231	H	-0.793008	-0.985994	0.367395
H232	H	-0.293008	-0.485994	0.867395
H233	H	-0.346702	-1.007845	0.741839
H234	H	0.153298	-0.507845	1.241839
N235	N	-0.261479	-0.673671	0.220557
N236	N	0.238521	-0.173671	0.720557
N237	N	-0.219289	-0.644453	0.184723
N238	N	0.280711	-0.144453	0.684723
H239	H	-0.185176	-0.668048	0.155771
H240	H	0.314824	-0.168048	0.655771
N241	N	-0.927204	-0.829336	0.214738
N242	N	-0.427204	-0.329336	0.714738
N243	N	-0.970102	-0.798722	0.248767
N244	N	-0.470102	-0.298722	0.748767
H245	H	-0.989221	-0.756813	0.234321
H246	H	-0.489221	-0.256813	0.734321
H247	H	-0.271285	-0.978081	0.540094
H248	H	0.228715	-0.478081	1.040094
N249	N	-0.491983	-0.471961	0.311816
N250	N	0.008017	0.028039	0.811816
N251	N	-0.551558	-0.442793	0.316294
N252	N	-0.051558	0.057207	0.816294
H253	H	-0.599681	-0.466428	0.319924
H254	H	-0.099681	0.033572	0.819924
H255	H	-0.271370	-0.978237	0.943732
H256	H	0.228630	-0.478237	1.443732
N257	N	-0.925588	-0.933100	0.190084
N258	N	-0.425588	-0.433100	0.690084
N259	N	-0.966803	-0.976977	0.206593
N260	N	-0.466803	-0.476977	0.706593
H261	H	-0.984783	-1.008356	0.174734
H262	H	-0.484783	-0.508356	0.674734
H263	H	-0.478209	-0.346463	0.310743
H264	H	0.021791	0.153537	0.810743
H265	H	-0.442976	-0.263260	0.374419
H266	H	0.057024	0.236740	0.874419
N267	N	-0.261608	-0.986605	1.069208
N268	N	0.238392	-0.486605	1.569208
N269	N	-0.219370	-1.022387	1.039967
N270	N	0.280630	-0.522387	1.539967
H271	H	-0.185251	-1.051328	1.063543
H272	H	0.314749	-0.551328	1.563543
H273	H	-0.367611	-0.803038	0.860779
H274	H	0.132389	-0.303038	1.360779
H275	H	-0.367595	-0.802992	0.742075
H276	H	0.132405	-0.302992	1.242075
N277	N	-0.452747	-0.824300	0.533413
N278	N	0.047253	-0.324300	1.033413
N279	N	-0.494986	-0.788519	0.562653
N280	N	0.005014	-0.288519	1.062653
H281	H	-0.529114	-0.759586	0.539076
H282	H	-0.029114	-0.259586	1.039076
