data_functionalizedCrystal
_audit_creation_method	'MofGen! by Chris Wilmer'
_symmetry_space_group_name_H-M	'P1'
_symmetry_Int_Tables_number	1
_symmetry_cell_setting	triclinic
loop_
_symmetry_equiv_pos_as_xyz
  x,y,z
_cell_length_a	10.654550
_cell_length_b	10.723023
_cell_length_c	9.130313
_cell_angle_alpha	89.996488
_cell_angle_beta	89.999724
_cell_angle_gamma	84.476239
loop_
_atom_site_label
_atom_site_type_symbol
_atom_site_fract_x
_atom_site_fract_y
_atom_site_fract_z
O1	O	1.667813	0.175275	-0.121687
O2	O	1.302332	0.191974	-0.121713
O3	O	1.493503	0.002049	-0.121693
O4	O	1.476641	0.365199	-0.121706
O5	O	1.493490	0.002044	0.121906
O6	O	1.302318	0.191968	0.121886
O7	O	1.667799	0.175269	0.121912
Cu8	Cu	1.485058	0.183618	0.144142
Cu9	Cu	1.485073	0.183625	-0.143942
O10	O	1.476628	0.365194	0.121892
C11	C	1.255527	0.190745	0.000083
C12	C	1.116084	0.187077	0.000073
C13	C	1.036582	0.298901	0.000073
C14	C	0.905561	0.295447	0.000099
C15	C	0.933559	0.068334	0.000118
C16	C	1.064577	0.071789	0.000103
C17	C	1.492269	-0.044453	0.000105
C18	C	1.488599	-0.183008	0.000100
C19	C	1.486969	-0.244771	-0.126094
C20	C	1.483175	-0.387975	-0.126102
C21	C	1.714604	0.176498	0.000113
C22	C	1.854046	0.180167	0.000114
C23	C	1.477861	0.411696	0.000091
C24	C	1.481532	0.550251	0.000087
N25	N	1.485056	0.183613	0.346764
N26	N	1.485085	0.183621	-0.346565
C27	C	1.569735	0.099550	0.423425
C28	C	1.569747	0.099550	0.576762
C29	C	1.400396	0.267687	0.576764
C30	C	1.400379	0.267680	0.423430
H31	H	0.840835	0.386506	0.000102
H32	H	1.331456	0.336135	0.639200
H33	H	1.078514	0.392775	0.000060
C34	C	0.876888	-0.058476	0.000137
N35	N	0.834205	-0.153992	0.000146
C36	C	1.152036	-0.051233	0.000103
N37	N	1.217910	-0.143889	0.000107
H38	H	1.481780	-0.441090	-0.234141
C39	C	1.488887	-0.172988	-0.272048
N40	N	1.490336	-0.118923	-0.381984
H41	H	1.638682	0.031096	0.361007
C42	C	1.662892	0.007064	0.661081
N43	N	1.733047	-0.062605	0.724590
C44	C	1.483422	-0.378004	0.146054
N45	N	1.484843	-0.323957	0.255997
H46	H	1.487177	-0.236147	0.108132
H47	H	1.331417	0.336135	0.361008
