data_functionalizedCrystal
_audit_creation_method	'MofGen! by Chris Wilmer'
_symmetry_space_group_name_H-M	'P1'
_symmetry_Int_Tables_number	1
_symmetry_cell_setting	triclinic
loop_
_symmetry_equiv_pos_as_xyz
  x,y,z
_cell_length_a	15.625950
_cell_length_b	11.792254
_cell_length_c	14.185569
_cell_angle_alpha	76.752482
_cell_angle_beta	120.545593
_cell_angle_gamma	84.222761
loop_
_atom_site_label
_atom_site_type_symbol
_atom_site_fract_x
_atom_site_fract_y
_atom_site_fract_z
O1	O	1.290822	0.029368	0.385973
O2	O	1.002965	0.079248	0.281295
O3	O	1.153874	-0.111684	0.336180
O4	O	1.139912	0.220301	0.331088
O5	O	1.198454	-0.168082	0.519227
O6	O	1.047545	0.022850	0.464343
O7	O	1.335402	-0.027029	0.569021
Cu8	Cu	1.195544	-0.007239	0.533396
Cu9	Cu	1.142823	0.059458	0.316920
O10	O	1.184492	0.163903	0.514136
C11	C	0.988402	0.054375	0.359418
C12	C	0.878594	0.064272	0.319487
C13	C	0.638827	-0.056786	0.686921
C14	C	0.535631	-0.047448	0.649348
C15	C	0.487082	0.014030	0.449815
C16	C	0.590276	0.004703	0.487371
C17	C	0.666141	-0.030707	0.605926
C18	C	0.617590	0.030781	0.406376
C19	C	0.720775	0.021449	0.443929
C20	C	0.796646	-0.013963	0.562479
C21	C	0.769326	-0.040040	0.643479
C22	C	0.541724	0.066183	0.287822
C23	C	0.569038	0.092262	0.206827
C24	C	0.672224	0.082937	0.244380
C25	C	0.748095	0.047526	0.362929
C26	C	0.699544	0.109014	0.163379
C27	C	0.802729	0.099682	0.200933
C28	C	0.851280	0.038193	0.400482
C29	C	1.175285	-0.182070	0.427383
C30	C	1.172653	-0.307774	0.426425
C31	C	1.170514	-0.409858	0.425644
C32	C	1.167837	-0.537927	0.424661
C33	C	1.349964	-0.002156	0.490895
C34	C	1.459770	-0.012050	0.530819
C35	C	1.163081	0.234290	0.422930
C36	C	1.165711	0.359995	0.423881
N37	N	1.232632	-0.054151	0.685655
N38	N	1.105742	0.106360	0.164663
C39	C	0.996776	0.244139	0.967526
C40	C	1.024877	0.208611	1.082768
C41	C	1.158535	0.039594	1.131339
C42	C	1.130442	0.075105	1.016098
C43	C	1.049563	0.177379	0.934200
C44	C	1.183229	0.008346	0.982772
C45	C	1.155141	0.043858	0.867543
C46	C	1.074267	0.146130	0.785639
C47	C	1.021475	0.212892	0.818971
C48	C	1.264112	-0.093923	1.064674
C49	C	1.316899	-0.160683	1.031348
C50	C	1.288807	-0.125176	0.916115
C51	C	1.207933	-0.022904	0.834211
C52	C	1.341599	-0.191937	0.882783
C53	C	1.313511	-0.156425	0.767553
C54	C	1.179846	0.012609	0.718981
H55	H	0.457705	0.073786	0.257250
H56	H	0.880665	-0.021562	0.593053
Br57	Br	0.953230	0.299235	1.127986
H58	H	0.831099	-0.068856	0.740017
H59	H	1.407458	-0.275203	0.949481
H60	H	1.356497	-0.210788	0.740421
Br61	Br	0.886995	0.382929	0.856367
Br62	Br	0.741794	-0.104823	0.847818
H63	H	1.051402	0.175046	0.691814
H64	H	0.507256	0.121087	0.110300
Br65	Br	1.268301	-0.099198	1.242493
Br66	Br	0.384121	0.062039	0.288927
Br67	Br	1.426665	-0.299475	1.142502
H68	H	0.513396	-0.068660	0.715313
Br69	Br	0.596581	0.157012	0.002492
Br70	Br	0.954248	-0.009843	0.561379
H71	H	0.824967	0.120924	0.134977
H72	H	1.113979	0.095883	0.652292
H73	H	1.286981	-0.122830	1.158501
H74	H	0.955608	0.296166	0.752281
