data_functionalizedCrystal
_audit_creation_method	'MofGen! by Chris Wilmer'
_symmetry_space_group_name_H-M	'P1'
_symmetry_Int_Tables_number	1
_symmetry_cell_setting	triclinic
loop_
_symmetry_equiv_pos_as_xyz
  x,y,z
_cell_length_a	16.992695
_cell_length_b	9.065218
_cell_length_c	7.540329
_cell_angle_alpha	90.003038
_cell_angle_beta	89.996072
_cell_angle_gamma	92.157946
loop_
_atom_site_label
_atom_site_type_symbol
_atom_site_fract_x
_atom_site_fract_y
_atom_site_fract_z
O1	O	0.115065	-1.971074	-0.147490
O2	O	0.448399	-1.637740	0.185844
O3	O	0.781732	-1.304407	0.519177
O4	O	0.124504	-1.542664	-0.147492
O5	O	0.457837	-1.209331	0.185841
O6	O	0.791170	-0.875998	0.519174
O7	O	0.005630	-1.755152	-0.147477
O8	O	0.338963	-1.421818	0.185856
O9	O	0.672296	-1.088485	0.519190
O10	O	0.233939	-1.758586	-0.147505
O11	O	0.567273	-1.425253	0.185828
O12	O	0.900606	-1.091920	0.519162
O13	O	0.005628	-1.755138	0.147488
O14	O	0.338962	-1.421805	0.480822
O15	O	0.672295	-1.088471	0.814155
O16	O	0.124502	-1.542651	0.147473
O17	O	0.457836	-1.209317	0.480806
O18	O	0.791169	-0.875984	0.814139
O19	O	0.115064	-1.971060	0.147476
O20	O	0.448397	-1.637727	0.480809
O21	O	0.781731	-1.304393	0.814142
Cu22	Cu	0.119783	-1.756854	0.174407
Cu23	Cu	0.453116	-1.423521	0.507740
Cu24	Cu	0.786450	-1.090187	0.841073
Cu25	Cu	0.119785	-1.756870	-0.174424
Cu26	Cu	0.453118	-1.423537	0.158910
Cu27	Cu	0.786451	-1.090204	0.492243
O28	O	0.233938	-1.758573	0.147460
O29	O	0.567271	-1.425239	0.480793
O30	O	0.900605	-1.091906	0.814127
C31	C	0.123596	-1.487587	-0.000010
C32	C	0.456929	-1.154253	0.333323
C33	C	0.790263	-0.820920	0.666657
C34	C	0.120884	-1.323492	-0.000011
C35	C	0.454217	-0.990159	0.333323
C36	C	0.787550	-0.656826	0.666656
C37	C	-0.023615	-1.750726	0.000005
C38	C	0.309718	-1.417393	0.333339
C39	C	0.643052	-1.084059	0.666672
C40	C	-0.110753	-1.737542	0.000005
C41	C	0.222581	-1.404209	0.333338
C42	C	0.555914	-1.070876	0.666672
N43	N	0.119781	-1.756853	0.419755
N44	N	0.453115	-1.423520	0.753089
N45	N	0.786448	-1.090187	1.086422
C46	C	-0.160090	-1.864748	0.000008
C47	C	0.173244	-1.531415	0.333341
C48	C	0.506577	-1.198082	0.666674
C49	C	-0.241964	-1.852352	-0.000009
C50	C	0.091369	-1.519019	0.333324
C51	C	0.424702	-1.185685	0.666657
C52	C	-0.274500	-1.712748	-0.000016
C53	C	0.058833	-1.379415	0.333317
C54	C	0.392166	-1.046082	0.666650
C55	C	-0.225157	-1.585533	-0.000024
C56	C	0.108176	-1.252199	0.333309
C57	C	0.441510	-0.918866	0.666642
C58	C	-0.143284	-1.597931	-0.000020
C59	C	0.190049	-1.264597	0.333313
C60	C	0.523383	-0.931264	0.666647
C61	C	-0.518463	-1.661364	-0.000041
C62	C	-0.185130	-1.328031	0.333292
C63	C	0.148204	-0.994698	0.666626
C64	C	-0.600343	-1.648976	-0.000040
C65	C	-0.267009	-1.315643	0.333293
C66	C	0.066324	-0.982309	0.666627
C67	C	-0.617144	-1.915797	-0.000028
C68	C	-0.283811	-1.582463	0.333305
C69	C	0.049522	-1.249130	0.666638
C70	C	-0.535269	-1.928182	-0.000013
C71	C	-0.201936	-1.594849	0.333320
C72	C	0.131398	-1.261515	0.666653
C73	C	-0.485933	-1.800967	-0.000031
C74	C	-0.152599	-1.467633	0.333303
C75	C	0.180734	-1.134300	0.666636
N76	N	-0.358189	-1.700074	-0.000028
N77	N	-0.024856	-1.366740	0.333305
N78	N	0.308477	-1.033407	0.666639
N79	N	-0.402245	-1.813642	-0.000032
N80	N	-0.068912	-1.480309	0.333302
N81	N	0.264421	-1.146976	0.666635
C82	C	0.263183	-1.762998	-0.000026
C83	C	0.596516	-1.429665	0.333307
C84	C	0.929849	-1.096332	0.666641
C85	C	0.350320	-1.776182	-0.000037
C86	C	0.683654	-1.442849	0.333296
C87	C	1.016987	-1.109515	0.666629
C88	C	0.115972	-2.026138	-0.000011
C89	C	0.449305	-1.692804	0.333323
C90	C	0.782638	-1.359471	0.666656
C91	C	0.118684	-2.190232	-0.000022
C92	C	0.452017	-1.856899	0.333312
C93	C	0.785351	-1.523565	0.666645
N94	N	0.119780	-1.756882	-0.419772
N95	N	0.453114	-1.423549	-0.086439
N96	N	0.786447	-1.090215	0.246895
H97	H	-0.133606	-1.978428	0.000024
H98	H	0.199727	-1.645095	0.333357
H99	H	0.533061	-1.311762	0.666691
H100	H	-0.251654	-1.471864	-0.000041
H101	H	0.081679	-1.138531	0.333292
H102	H	0.415013	-0.805198	0.666626
H103	H	-0.103114	-1.494345	-0.000023
H104	H	0.230219	-1.161012	0.333311
H105	H	0.563553	-0.827679	0.666644
H106	H	-0.508785	-2.041862	-0.000008
H107	H	-0.175451	-1.708529	0.333326
H108	H	0.157882	-1.375195	0.666659
H109	H	-0.282132	-1.955937	-0.000003
H110	H	0.051201	-1.622604	0.333330
H111	H	0.384535	-1.289270	0.666663
Br112	Br	-0.644498	-1.459501	-0.000031
Br113	Br	-0.311164	-1.126168	0.333303
Br114	Br	0.022169	-0.792835	0.666636
Br115	Br	-0.451517	-1.488713	-0.000076
Br116	Br	-0.118184	-1.155380	0.333258
Br117	Br	0.215150	-0.822046	0.666591
Br118	Br	-0.684104	-2.088436	-0.000005
Br119	Br	-0.350771	-1.755103	0.333329
Br120	Br	-0.017437	-1.421770	0.666662
