data_functionalizedCrystal
_audit_creation_method	'MofGen! by Chris Wilmer'
_symmetry_space_group_name_H-M	'P1'
_symmetry_Int_Tables_number	1
_symmetry_cell_setting	triclinic
loop_
_symmetry_equiv_pos_as_xyz
  x,y,z
_cell_length_a	16.625546
_cell_length_b	10.686220
_cell_length_c	10.685880
_cell_angle_alpha	90.358431
_cell_angle_beta	94.335175
_cell_angle_gamma	85.595560
loop_
_atom_site_label
_atom_site_type_symbol
_atom_site_fract_x
_atom_site_fract_y
_atom_site_fract_z
Zn1	Zn	-0.251696	-1.972202	-0.562343
Zn2	Zn	-0.377078	-1.955958	-0.352575
Zn3	Zn	-0.253339	-1.746331	-0.368665
Zn4	Zn	-0.397573	-1.762371	-0.578345
O5	O	-0.319921	-1.859215	-0.465482
O6	O	-0.259063	-2.145592	-0.521086
O7	O	-0.352774	-1.914639	-0.179170
O8	O	-0.140287	-1.776379	-0.394394
O9	O	-0.351181	-2.133657	-0.366971
O10	O	-0.139079	-1.942325	-0.536688
O11	O	-0.261864	-1.760627	-0.190991
O12	O	-0.281737	-1.572914	-0.409910
O13	O	-0.386111	-1.803716	-0.751762
O14	O	-0.387705	-1.584698	-0.563961
O15	O	-0.278936	-1.957878	-0.740006
O16	O	-0.492631	-1.930192	-0.382488
O17	O	-0.507689	-1.787965	-0.548359
C18	C	-0.337124	-1.533289	-0.490419
C19	C	-0.344504	-1.393859	-0.501116
C20	C	-0.529416	-1.859093	-0.465439
C21	C	-0.619035	-1.859158	-0.465453
C22	C	-0.334627	-1.884398	-0.792672
C23	C	-0.340893	-1.895130	-0.932101
C24	C	-0.947205	-1.859387	-0.465567
C25	C	-0.855898	-1.859319	-0.465539
C26	C	-0.783123	-1.859271	-0.465510
C27	C	-0.691810	-1.859206	-0.465483
C28	C	-0.109608	-1.859375	-0.465551
C29	C	-0.019985	-1.859443	-0.465580
C30	C	-0.302653	-2.186414	-0.440449
C31	C	-0.295294	-2.325846	-0.429781
C32	C	-0.305212	-1.834202	-0.139559
C33	C	-0.298705	-1.823714	-0.000113
H34	H	-0.247518	-1.374286	-0.360523
C35	C	-0.396167	-1.988833	-0.997530
C36	C	-0.466342	-1.941288	-1.091779
C37	C	-0.521617	-2.034993	-1.157217
C38	C	-0.506716	-2.176243	-1.128405
C39	C	-0.436537	-2.223795	-1.034151
C40	C	-0.381262	-2.130090	-0.968714
H41	H	-0.477376	-1.836720	-1.113111
H42	H	-0.573568	-1.999791	-1.226990
H43	H	-0.547633	-2.245609	-1.176846
H44	H	-0.425503	-2.328363	-1.012819
H45	H	-0.329311	-2.165293	-0.898941
C46	C	-0.409056	-1.328425	-0.594684
C47	C	-0.474572	-1.234087	-0.546986
C48	C	-0.539123	-1.168653	-0.640551
C49	C	-0.538157	-1.197557	-0.781814
C50	C	-0.472638	-1.291900	-0.829519
C51	C	-0.408087	-1.357334	-0.735954
H52	H	-0.475289	-1.212687	-0.442408
H53	H	-0.587624	-1.098815	-0.605235
H54	H	-0.585941	-1.149119	-0.851077
H55	H	-0.471921	-1.313300	-0.934097
H56	H	-0.359586	-1.427172	-0.771269
H57	H	-0.257792	-1.754347	-0.951667
