data_functionalizedCrystal
_audit_creation_method	'MofGen! by Chris Wilmer'
_symmetry_space_group_name_H-M	'P1'
_symmetry_Int_Tables_number	1
_symmetry_cell_setting	triclinic
loop_
_symmetry_equiv_pos_as_xyz
  x,y,z
_cell_length_a	14.971482
_cell_length_b	14.044220
_cell_length_c	13.448316
_cell_angle_alpha	89.993057
_cell_angle_beta	89.993258
_cell_angle_gamma	88.400743
loop_
_atom_site_label
_atom_site_type_symbol
_atom_site_fract_x
_atom_site_fract_y
_atom_site_fract_z
O1	O	1.196681	0.123521	-0.082682
O2	O	0.937446	0.138318	-0.082687
O3	O	1.063172	-0.007070	-0.082675
O4	O	1.070955	0.268908	-0.082694
O5	O	1.063153	-0.007078	0.082709
O6	O	0.937427	0.138310	0.082697
O7	O	1.196662	0.123513	0.082702
Cu8	Cu	1.067042	0.130911	0.097800
Cu9	Cu	1.067065	0.130920	-0.097785
O10	O	1.070935	0.268900	0.082690
C11	C	0.904059	0.137653	0.000004
C12	C	0.804606	0.135672	0.000003
C13	C	0.757877	0.134734	0.090155
C14	C	0.664431	0.132858	0.090156
C15	C	0.617715	0.131925	0.000004
C16	C	0.664450	0.132860	-0.090155
C17	C	0.757895	0.134730	-0.090155
C18	C	0.469682	0.128965	-0.090148
C19	C	0.376230	0.127096	-0.090148
C20	C	0.376217	0.127093	0.090163
C21	C	0.469662	0.128962	0.090163
C22	C	0.516391	0.129899	0.000003
C23	C	1.059756	-0.042392	0.000018
C24	C	1.049595	-0.147629	0.000019
C25	C	1.031018	-0.340311	0.000004
C26	C	1.103085	-0.397864	0.000002
C27	C	1.092749	-0.505079	-0.000006
C28	C	1.041353	-0.233086	0.000012
C29	C	1.230048	0.124178	0.000009
C30	C	1.329501	0.126159	0.000004
C31	C	1.074351	0.304223	-0.000005
C32	C	1.084513	0.409460	-0.000012
N33	N	1.067033	0.130904	0.235365
C34	C	1.122725	0.066553	0.287410
C35	C	1.122729	0.066553	0.391514
C36	C	1.067046	0.130909	0.443569
C37	C	1.011348	0.195263	0.391516
C38	C	1.011339	0.195257	0.287415
C39	C	1.011371	0.195271	0.608496
C40	C	1.011381	0.195277	0.712605
C41	C	1.122762	0.066566	0.712595
C42	C	1.122753	0.066561	0.608494
C43	C	1.067056	0.130916	0.556448
N44	N	1.067073	0.130926	0.764651
H45	H	0.626389	0.132079	0.163567
H46	H	1.168077	0.014153	0.433889
H47	H	1.172547	-0.366615	-0.000063
H48	H	0.961562	-0.371558	0.000000
O49	O	0.325824	0.126118	0.187411
H50	H	0.252998	0.124663	0.172269
O51	O	1.182780	-0.002864	0.231266
H52	H	1.221499	-0.047618	0.284950
O53	O	0.614071	0.131841	-0.187394
H54	H	0.629193	0.196756	-0.230639
H55	H	1.168099	0.014162	0.566110
H56	H	1.168112	0.014166	0.754977
O57	O	0.325843	0.126088	-0.187383
H58	H	0.286087	0.060680	-0.191679
O59	O	0.951304	0.264668	0.768757
H60	H	0.912557	0.309402	0.715079
H61	H	0.966013	0.247673	0.566124
O62	O	0.951294	0.264686	0.447654
H63	H	0.904642	0.224715	0.495113
O64	O	0.951276	0.264668	0.231271
H65	H	0.912564	0.309427	0.284956
O66	O	0.520087	0.129981	-0.187388
H67	H	0.471905	0.129031	-0.250077
H68	H	0.507696	0.129728	0.163572
O69	O	0.808263	0.135752	0.187390
H70	H	0.760067	0.134780	0.250078
H71	H	0.795940	0.135495	-0.163566
