data_functionalizedCrystal
_audit_creation_method	'MofGen! by Chris Wilmer'
_symmetry_space_group_name_H-M	'P1'
_symmetry_Int_Tables_number	1
_symmetry_cell_setting	triclinic
loop_
_symmetry_equiv_pos_as_xyz
  x,y,z
_cell_length_a	14.519709
_cell_length_b	13.596369
_cell_length_c	11.792254
_cell_angle_alpha	90.000552
_cell_angle_beta	83.939371
_cell_angle_gamma	90.000316
loop_
_atom_site_label
_atom_site_type_symbol
_atom_site_fract_x
_atom_site_fract_y
_atom_site_fract_z
O1	O	1.224420	0.081664	0.148772
O2	O	0.956008	0.081694	0.166293
O3	O	1.096722	0.081671	-0.007673
O4	O	1.083706	0.081686	0.322738
O5	O	1.096704	-0.081912	-0.007664
O6	O	0.955991	-0.081889	0.166302
O7	O	1.224403	-0.081919	0.148781
Zn8	Zn	1.090194	-0.107876	0.157543
Zn9	Zn	1.090217	0.107651	0.157531
O10	O	1.083689	-0.081896	0.322748
C11	C	0.921636	-0.000094	0.165481
C12	C	0.819246	-0.000083	0.163034
N13	N	1.090185	-0.254968	0.157551
C14	C	0.444317	-0.000128	0.154026
C15	C	0.548634	-0.000115	0.156528
C16	C	0.631778	-0.000104	0.158530
C17	C	0.736102	-0.000093	0.161032
C18	C	1.090190	-0.343966	0.157554
C19	C	1.090199	-0.455618	0.157546
C20	C	1.090211	-0.544608	0.157533
C21	C	1.090221	-0.656267	0.157527
C22	C	1.258774	-0.000129	0.149593
C23	C	1.361164	-0.000134	0.152040
C24	C	1.095893	-0.000120	-0.049955
C25	C	1.093439	-0.000119	-0.175954
N26	N	1.090233	0.254743	0.157514
C27	C	1.091445	-0.000115	-0.278280
C28	C	1.088952	-0.000106	-0.406652
C29	C	1.084518	-0.000103	0.365029
C30	C	1.086972	-0.000098	0.491028
