data_functionalizedCrystal
_audit_creation_method	'MofGen! by Chris Wilmer'
_symmetry_space_group_name_H-M	'P1'
_symmetry_Int_Tables_number	1
_symmetry_cell_setting	triclinic
loop_
_symmetry_equiv_pos_as_xyz
  x,y,z
_cell_length_a	17.699083
_cell_length_b	27.731996
_cell_length_c	16.176319
_cell_angle_alpha	89.999539
_cell_angle_beta	89.997690
_cell_angle_gamma	82.952202
loop_
_atom_site_label
_atom_site_type_symbol
_atom_site_fract_x
_atom_site_fract_y
_atom_site_fract_z
O1	O	1.003520	0.061119	0.068642
O2	O	1.503520	0.561119	0.568642
O3	O	0.783069	0.069072	0.068670
O4	O	1.283069	0.569072	0.568670
O5	O	0.900161	-0.005278	0.068637
O6	O	1.400161	0.494722	0.568637
O7	O	0.886427	0.135470	0.068675
O8	O	1.386427	0.635470	0.568675
O9	O	0.900150	-0.005265	-0.068856
O10	O	1.400150	0.494735	0.431144
O11	O	0.783057	0.069086	-0.068823
O12	O	1.283057	0.569086	0.431177
O13	O	1.003508	0.061133	-0.068852
O14	O	1.503508	0.561133	0.431148
Cu15	Cu	0.893282	0.065111	-0.081392
Cu16	Cu	1.393282	0.565111	0.418608
Cu17	Cu	0.893295	0.065095	0.081210
Cu18	Cu	1.393295	0.565095	0.581210
O19	O	0.886416	0.135483	-0.068819
O20	O	1.386416	0.635483	0.431181
C21	C	0.754869	0.068794	-0.000073
C22	C	1.254869	0.568794	0.499927
C23	C	0.670858	0.067939	-0.000063
C24	C	1.170858	0.567939	0.499937
C25	C	0.899874	-0.023280	-0.000112
C26	C	1.399874	0.476720	0.499888
C27	C	0.899024	-0.076939	-0.000121
C28	C	1.399024	0.423061	0.499879
C29	C	0.621840	0.111581	-0.000052
C30	C	1.121840	0.611581	0.499948
C31	C	0.542904	0.110775	-0.000063
C32	C	1.042904	0.610775	0.499937
C33	C	0.512988	0.066326	-0.000079
C34	C	1.012988	0.566326	0.499921
C35	C	0.562013	0.022681	-0.000093
C36	C	1.062013	0.522681	0.499907
C37	C	0.640947	0.023488	-0.000088
C38	C	1.140947	0.523488	0.499912
C39	C	0.243679	0.019427	-0.000114
C40	C	0.743679	0.519427	0.499886
C41	C	0.164739	0.018623	-0.000117
C42	C	0.664739	0.518623	0.499883
C43	C	0.145636	0.106714	-0.000089
C44	C	0.645636	0.606714	0.499911
C45	C	0.224571	0.107521	-0.000084
C46	C	0.724571	0.607521	0.499916
C47	C	0.273588	0.063876	-0.000102
C48	C	0.773588	0.563876	0.499898
C49	C	0.359180	0.064750	-0.000092
C50	C	0.859180	0.564750	0.499908
C51	C	0.427398	0.065451	-0.000083
C52	C	0.927398	0.565451	0.499917
C53	C	0.893683	-0.409682	0.074868
C54	C	1.393683	0.090318	0.574868
C55	C	0.890456	-0.611352	0.074883
C56	C	1.390456	-0.111352	0.574883
O57	O	0.890012	-0.637430	0.138624
O58	O	1.390012	-0.137430	0.638624
N59	N	0.890049	-0.636563	-0.000064
N60	N	1.390049	-0.136563	0.499936
C61	C	0.890444	-0.611353	-0.075020
C62	C	1.390444	-0.111353	0.424980
O63	O	0.890016	-0.637424	-0.138766
O64	O	1.390016	-0.137424	0.361234
C65	C	0.893666	-0.409684	-0.075034
C66	C	1.393666	0.090316	0.424966
C67	C	0.894080	-0.384476	-0.000082
C68	C	1.394080	0.115524	0.499918
C69	C	0.894097	-0.384474	0.149814
C70	C	1.394097	0.115526	0.649814
C71	C	0.894908	-0.334060	0.149809
C72	C	1.394908	0.165940	0.649809
C73	C	0.895305	-0.308854	0.074859
C74	C	1.395305	0.191146	0.574859
C75	C	0.894891	-0.334062	-0.000087
C76	C	1.394891	0.165938	0.499913
C77	C	0.894055	-0.384475	-0.149989
C78	C	1.394055	0.115525	0.350011
C79	C	0.894859	-0.334054	-0.149986
C80	C	1.394859	0.165946	0.350014
C81	C	0.895273	-0.308846	-0.075034
C82	C	1.395273	0.191154	0.424966
C83	C	0.896099	-0.258442	-0.075041
C84	C	1.396099	0.241558	0.424959
N85	N	0.896506	-0.233230	-0.000094
N86	N	1.396506	0.266770	0.499906
C87	C	0.896109	-0.258436	0.074856
C88	C	1.396109	0.241564	0.574856
C89	C	0.888754	-0.717233	-0.075007
C90	C	1.388754	-0.217233	0.424993
C91	C	0.887950	-0.767650	-0.075004
C92	C	1.387950	-0.267650	0.424996
C93	C	0.887961	-0.767645	0.074899
C94	C	1.387961	-0.267645	0.574899
C95	C	0.888771	-0.717227	0.074895
C96	C	1.388771	-0.217227	0.574895
C97	C	0.889161	-0.692021	-0.000060
C98	C	1.389161	-0.192021	0.499940
C99	C	0.897813	-0.152563	0.074841
C100	C	1.397813	0.347437	0.574841
C101	C	0.898627	-0.102145	0.074829
C102	C	1.398627	0.397855	0.574829
C103	C	0.898612	-0.102154	-0.075073
C104	C	1.398612	0.397846	0.424927
C105	C	0.897802	-0.152568	-0.075062
C106	C	1.397802	0.347432	0.424938
C107	C	0.897400	-0.177771	-0.000099
C108	C	1.397400	0.322229	0.499901
O109	O	0.896536	-0.232331	-0.138748
O110	O	1.396536	0.267669	0.361252
O111	O	0.896520	-0.232356	0.138593
O112	O	1.396520	0.267644	0.638593
C113	C	0.892873	-0.460096	0.074872
C114	C	1.392873	0.039904	0.574872
C115	C	0.892459	-0.485304	-0.000073
C116	C	1.392459	0.014696	0.499927
C117	C	0.892856	-0.460098	-0.075023
C118	C	1.392856	0.039902	0.424977
C119	C	0.891655	-0.535721	-0.000070
C120	C	1.391655	-0.035721	0.499930
C121	C	0.891258	-0.560927	0.074880
C122	C	1.391258	-0.060927	0.574880
C123	C	0.891665	-0.535716	0.149827
C124	C	1.391665	-0.035716	0.649827
C125	C	0.892475	-0.485302	0.149823
C126	C	1.392475	0.014698	0.649823
C127	C	0.892449	-0.485309	-0.149970
C128	C	1.392449	0.014691	0.350030
C129	C	0.891639	-0.535723	-0.149959
C130	C	1.391639	-0.035723	0.350041
C131	C	0.891242	-0.560929	-0.075009
C132	C	1.391242	-0.060929	0.424991
C133	C	1.031708	0.061411	-0.000107
C134	C	1.531708	0.561411	0.499893
C135	C	1.115719	0.062266	-0.000111
C136	C	1.615719	0.562266	0.499889
C137	C	0.886703	0.153485	-0.000067
C138	C	1.386703	0.653485	0.499933
C139	C	0.887553	0.207144	-0.000054
C140	C	1.387553	0.707144	0.499946
N141	N	0.893278	0.065121	-0.195757
N142	N	1.393278	0.565121	0.304243
C143	C	0.847754	0.035803	-0.761149
C144	C	1.347754	0.535803	-0.261149
C145	C	0.847753	0.035807	-0.674602
C146	C	1.347753	0.535807	-0.174602
C147	C	0.893299	0.065090	-0.631332
C148	C	1.393299	0.565090	-0.131332
C149	C	0.938855	0.094369	-0.674614
C150	C	1.438855	0.594369	-0.174614
C151	C	0.938860	0.094362	-0.761160
C152	C	1.438860	0.594362	-0.261160
C153	C	0.938836	0.094396	-0.325586
C154	C	1.438836	0.594396	0.174414
C155	C	0.938825	0.094401	-0.239034
C156	C	1.438825	0.594401	0.260966
C157	C	0.847729	0.035841	-0.239028
C158	C	1.347729	0.535841	0.260972
C159	C	0.847734	0.035834	-0.325573
C160	C	1.347734	0.535834	0.174427
C161	C	0.893293	0.065110	-0.368848
C162	C	1.393293	0.565110	0.131152
C163	C	0.893295	0.065105	-0.462692
C164	C	1.393295	0.565105	0.037308
C165	C	0.893293	0.065099	-0.537490
C166	C	1.393293	0.565099	-0.037490
N167	N	0.893305	0.065080	0.195575
N168	N	1.393305	0.565080	0.695575
H169	H	0.646191	0.147777	-0.000038
H170	H	1.146191	0.647777	0.499962
H171	H	0.810634	0.012001	-0.203783
H172	H	1.310634	0.512001	0.296217
Cl173	Cl	0.790462	-0.000985	-0.620201
Cl174	Cl	1.290462	0.499015	-0.120201
Cl175	Cl	0.889289	-0.685542	0.169123
Cl176	Cl	1.389289	-0.185542	0.669123
Cl177	Cl	0.262174	0.163401	-0.000059
Cl178	Cl	0.762174	0.663401	0.499941
Cl179	Cl	0.524404	-0.033198	-0.000119
Cl180	Cl	1.024404	0.466802	0.499881
H181	H	0.810643	0.011990	-0.360799
H182	H	1.310643	0.511990	0.139201
Cl183	Cl	0.996088	0.131218	-0.184639
Cl184	Cl	1.496088	0.631218	0.315361
Cl185	Cl	0.887457	-0.799341	0.169122
Cl186	Cl	1.387457	-0.299341	0.669122
H187	H	0.105716	0.142252	-0.000079
H188	H	0.605716	0.642252	0.499921
Cl189	Cl	0.702571	-0.031379	-0.000106
Cl190	Cl	1.202571	0.468621	0.499894
H191	H	0.895166	-0.313533	-0.211025
H192	H	1.395166	0.186467	0.288975
H193	H	0.897471	-0.173094	-0.136094
H194	H	1.397471	0.326906	0.363906
H195	H	0.283581	-0.016112	-0.000130
H196	H	0.783581	0.483888	0.499870
Cl197	Cl	0.892942	-0.453629	-0.244203
Cl198	Cl	1.392942	0.046371	0.255797
H199	H	0.892813	-0.464782	0.210856
H200	H	1.392813	0.035218	0.710856
Cl201	Cl	0.895422	-0.302376	0.244039
Cl202	Cl	1.395422	0.197624	0.744039
Cl203	Cl	0.481283	0.165642	-0.000043
Cl204	Cl	0.981283	0.665642	0.499957
Cl205	Cl	0.887444	-0.799335	-0.169233
Cl206	Cl	1.387444	-0.299335	0.330767
Cl207	Cl	0.899111	-0.070457	-0.169291
Cl208	Cl	1.399111	0.429543	0.330709
Cl209	Cl	0.127132	-0.037259	-0.000138
Cl210	Cl	0.627132	0.462741	0.499862
Cl211	Cl	0.899150	-0.070458	0.169062
Cl212	Cl	1.399150	0.429542	0.669062
H213	H	0.975932	0.118235	-0.360810
H214	H	1.475932	0.618235	0.139190
H215	H	0.810661	0.011959	-0.796372
H216	H	1.310661	0.511959	-0.296372
Cl217	Cl	0.897309	-0.184239	0.169082
Cl218	Cl	1.397309	0.315761	0.669082
Cl219	Cl	0.996117	0.131180	-0.620218
Cl220	Cl	1.496117	0.631180	-0.120218
Cl221	Cl	0.996130	0.131167	-0.815564
Cl222	Cl	1.496130	0.631167	-0.315564
H223	H	0.893771	-0.404991	0.210850
H224	H	1.393771	0.095009	0.710850
H225	H	0.889076	-0.696715	-0.136048
H226	H	1.389076	-0.196715	0.363952
H227	H	0.893719	-0.404990	-0.211023
H228	H	1.393719	0.095010	0.288977
H229	H	0.891307	-0.556244	-0.210999
H230	H	1.391307	-0.056244	0.289001
Cl231	Cl	0.891169	-0.567413	0.244049
Cl232	Cl	1.391169	-0.067413	0.744049
