data_functionalizedCrystal
_audit_creation_method	'MofGen! by Chris Wilmer'
_symmetry_space_group_name_H-M	'P1'
_symmetry_Int_Tables_number	1
_symmetry_cell_setting	triclinic
loop_
_symmetry_equiv_pos_as_xyz
  x,y,z
_cell_length_a	10.540510
_cell_length_b	15.944493
_cell_length_c	9.616153
_cell_angle_alpha	90.003613
_cell_angle_beta	89.992871
_cell_angle_gamma	83.994177
loop_
_atom_site_label
_atom_site_type_symbol
_atom_site_fract_x
_atom_site_fract_y
_atom_site_fract_z
O1	O	1.684267	0.118254	-0.115634
O2	O	1.314693	0.129433	-0.115633
O3	O	1.509611	0.001625	-0.115645
O4	O	1.489349	0.246062	-0.115622
O5	O	1.509584	0.001627	0.115646
O6	O	1.314667	0.129436	0.115658
O7	O	1.684240	0.118256	0.115657
Zn8	Zn	1.499449	0.123846	0.152380
Zn9	Zn	1.499484	0.123843	-0.152356
O10	O	1.489323	0.246064	0.115669
C11	C	1.267388	0.128601	0.000012
C12	C	1.126473	0.126109	0.000012
C13	C	0.907780	0.214897	-0.000511
C14	C	1.054339	0.217555	0.000019
C15	C	1.082350	0.079299	0.132083
C16	C	0.935617	0.077288	0.132185
C17	C	0.935868	0.075380	-0.130837
C18	C	1.082148	0.079718	-0.132574
C19	C	1.508769	-0.029674	-0.000006
C20	C	1.506286	-0.122937	-0.000023
C21	C	1.621019	-0.358021	0.000003
C22	C	1.559161	-0.408955	-0.114035
C23	C	1.501686	-0.293685	-0.000006
C24	C	1.559107	-0.408928	0.114000
C25	C	1.497251	-0.458621	0.000016
C26	C	1.439860	-0.343390	-0.114138
C27	C	1.439824	-0.343360	0.113999
C28	C	1.377878	-0.394262	-0.000066
C29	C	1.504244	-0.198670	-0.000020
C30	C	1.494684	-0.553633	0.000021
C31	C	1.731545	0.119088	0.000009
C32	C	1.872461	0.121580	-0.000000
C33	C	1.490164	0.277363	0.000026
C34	C	1.492647	0.370626	0.000035
N35	N	1.499434	0.123848	0.360355
N36	N	1.499509	0.123834	-0.360331
C37	C	1.394854	0.191988	0.580731
C38	C	1.395079	0.192243	0.419564
C39	C	1.631882	0.143778	0.418806
C40	C	1.631311	0.144260	0.580024
C41	C	1.472892	0.035556	0.580258
C42	C	1.469837	0.036128	0.419031
H43	H	1.083186	0.254176	-0.094658
H44	H	1.130677	0.011977	0.136989
H45	H	1.389504	-0.314868	-0.210651
H46	H	1.275008	-0.410334	-0.000128
H47	H	0.865342	0.250522	-0.095227
H48	H	1.389460	-0.314695	0.210415
H49	H	1.711618	0.096620	0.619008
C50	C	0.905830	-0.015105	0.140292
H51	H	0.983377	-0.051244	0.143521
H52	H	0.858330	-0.028150	0.060647
H53	H	0.857424	-0.022921	0.221740
H54	H	1.112740	0.111810	0.230377
H55	H	1.723809	-0.341787	-0.000112
H56	H	1.609517	-0.437561	0.210404
C57	C	1.092020	0.267318	0.128144
H58	H	1.181823	0.269122	0.128900
H59	H	1.066856	0.240407	0.210297
H60	H	1.050641	0.323137	0.124268
H61	H	0.894943	0.109280	0.230916
C62	C	1.338219	0.015718	0.367434
H63	H	1.301452	0.060460	0.310362
H64	H	1.284233	0.009207	0.444942
H65	H	1.347779	-0.035102	0.315134
H66	H	0.892929	0.104217	-0.230941
C67	C	1.417493	0.279967	0.635435
H68	H	1.490451	0.275345	0.694032
H69	H	1.345031	0.302923	0.686764
H70	H	1.430994	0.315907	0.559245
H71	H	1.110303	0.113776	-0.230279
H72	H	1.378418	0.016586	0.620993
H73	H	1.296628	0.180253	0.380047
H74	H	1.132147	0.012955	-0.140556
H75	H	1.655893	0.207455	0.378422
H76	H	1.296092	0.180182	0.619541
C77	C	1.418033	0.280718	0.367444
H78	H	1.427269	0.316642	0.444802
H79	H	1.347528	0.303121	0.312621
H80	H	1.493488	0.276975	0.312770
H81	H	0.914670	0.006722	-0.131736
C82	C	0.848348	0.262750	0.126732
H83	H	0.802106	0.226106	0.180170
H84	H	0.792226	0.309672	0.096370
H85	H	0.914058	0.281979	0.182177
H86	H	1.609568	-0.437605	-0.210447
H87	H	1.654768	0.208665	0.617618
C88	C	1.566121	-0.035678	0.364610
H89	H	1.625902	-0.012997	0.305133
H90	H	1.522081	-0.074935	0.314277
H91	H	1.609809	-0.063390	0.440862
C92	C	1.739595	0.078559	0.366984
H93	H	1.704664	0.038502	0.309096
H94	H	1.780882	0.050523	0.444369
H95	H	1.799682	0.106418	0.315487
C96	C	1.575979	-0.032974	0.631751
H97	H	1.634961	-0.007955	0.689179
H98	H	1.619615	-0.059238	0.554217
H99	H	1.536956	-0.073999	0.683659
