data_functionalizedCrystal
_audit_creation_method	'MofGen! by Chris Wilmer'
_symmetry_space_group_name_H-M	'P1'
_symmetry_Int_Tables_number	1
_symmetry_cell_setting	triclinic
loop_
_symmetry_equiv_pos_as_xyz
  x,y,z
_cell_length_a	14.908558
_cell_length_b	14.908178
_cell_length_c	14.908308
_cell_angle_alpha	90.221621
_cell_angle_beta	89.824401
_cell_angle_gamma	89.819838
loop_
_atom_site_label
_atom_site_type_symbol
_atom_site_fract_x
_atom_site_fract_y
_atom_site_fract_z
Zn1	Zn	1.319972	-0.467750	0.559094
Zn2	Zn	1.819972	0.032250	1.059094
Zn3	Zn	1.320876	-0.609515	0.400104
Zn4	Zn	1.820876	-0.109515	0.900104
Zn5	Zn	1.179219	-0.450532	0.401141
Zn6	Zn	1.679219	0.049468	0.901141
Zn7	Zn	1.161961	-0.608447	0.541822
Zn8	Zn	1.661961	-0.108447	1.041822
O9	O	1.245507	-0.534061	0.475540
O10	O	1.745507	-0.034061	0.975540
O11	O	1.445503	-0.494207	0.544798
O12	O	1.945503	0.005793	1.044798
O13	O	1.309686	-0.581666	0.274828
O14	O	1.809686	-0.081666	0.774828
O15	O	1.204734	-0.327399	0.429757
O16	O	1.704734	0.172601	0.929757
O17	O	1.446168	-0.598361	0.427989
O18	O	1.946168	-0.098361	0.927989
O19	O	1.308144	-0.340049	0.545804
O20	O	1.808144	0.159951	1.045804
O21	O	1.205611	-0.464863	0.275591
O22	O	1.705611	0.035137	0.775591
O23	O	1.051518	-0.463828	0.413009
O24	O	1.551518	0.036172	0.913009
O25	O	1.175321	-0.596542	0.669526
O26	O	1.675321	-0.096542	1.169526
O27	O	1.038839	-0.579847	0.516366
O28	O	1.538839	-0.079847	1.016366
O29	O	1.291410	-0.493172	0.682216
O30	O	1.791410	0.006828	1.182216
O31	O	1.292952	-0.734790	0.411240
O32	O	1.792952	-0.234790	0.911240
O33	O	1.176198	-0.734006	0.515360
O34	O	1.676198	-0.234006	1.015360
C35	C	1.012660	-0.519854	0.462926
C36	C	1.512660	-0.019854	0.962926
C37	C	0.913045	-0.513799	0.457550
C38	C	1.413045	-0.013799	0.957550
C39	C	0.779215	-0.444781	0.396258
C40	C	1.279215	0.055219	0.896258
C41	C	0.872813	-0.450466	0.401307
C42	C	1.372813	0.049534	0.901307
C43	C	0.859671	-0.571451	0.508750
C44	C	1.359671	-0.071451	1.008750
C45	C	0.766073	-0.565766	0.503702
C46	C	1.266073	-0.065766	1.003702
C47	C	0.725849	-0.502430	0.447453
C48	C	1.225849	-0.002430	0.947453
C49	C	0.632249	-0.496750	0.442401
C50	C	1.132249	0.003250	0.942401
C51	C	0.619109	-0.617731	0.549848
C52	C	1.119109	-0.117731	1.049848
C53	C	0.712707	-0.623415	0.554897
C54	C	1.212707	-0.123415	1.054897
C55	C	1.232823	-0.766920	0.461334
C56	C	1.732823	-0.266920	0.961334
C57	C	1.227478	-0.866544	0.455291
C58	C	1.727478	-0.366544	0.955291
C59	C	1.325019	-1.066772	0.564894
C60	C	1.825019	-0.566772	1.064894
C61	C	1.319999	-1.160379	0.559219
C62	C	1.819999	-0.660379	1.059219
C63	C	1.212413	-1.147365	0.438272
C64	C	1.712413	-0.647365	0.938272
C65	C	1.217433	-1.053759	0.443947
C66	C	1.717433	-0.553759	0.943947
C67	C	1.273739	-1.013466	0.507259
C68	C	1.773739	-0.513466	1.007259
C69	C	1.278763	-0.919858	0.512929
C70	C	1.778763	-0.419858	1.012929
C71	C	1.171173	-0.906846	0.391986
C72	C	1.671173	-0.406846	0.891986
C73	C	1.166153	-1.000452	0.386312
C74	C	1.666153	-0.500452	0.886312
C75	C	1.479263	-0.548324	0.488204
C76	C	1.979263	-0.048324	0.988204
C77	C	1.578876	-0.554402	0.493601
C78	C	2.078876	-0.054402	0.993601
C79	C	1.231340	-0.546659	0.709299
C80	C	1.731340	-0.046659	1.209299
C81	C	1.225302	-0.552027	0.808913
C82	C	1.725302	-0.052027	1.308913
C83	C	1.258263	-0.300296	0.489823
C84	C	1.758263	0.199704	0.989823
C85	C	1.263699	-0.200679	0.495909
C86	C	1.763699	0.299321	0.995909
C87	C	1.259674	-0.521451	0.242698
C88	C	1.759674	-0.021451	0.742698
C89	C	1.265899	-0.515840	0.143109
C90	C	1.765899	-0.015840	0.643109
C91	C	1.334840	-0.454455	1.009315
C92	C	1.834840	0.045545	1.509315
C93	C	1.329171	-0.459496	1.102911
C94	C	1.829171	0.040504	1.602911
C95	C	1.208290	-0.567145	1.089704
C96	C	1.708290	-0.067145	1.589704
C97	C	1.213960	-0.562104	0.996108
C98	C	1.713960	-0.062104	1.496108
C99	C	1.277238	-0.505758	0.955916
C100	C	1.777238	-0.005758	1.455916
C101	C	1.282911	-0.500722	0.862318
C102	C	1.782911	-0.000722	1.362318
C103	C	1.162027	-0.608366	0.849113
C104	C	1.662027	-0.108366	1.349113
C105	C	1.156357	-0.613407	0.942709
C106	C	1.656357	-0.113407	1.442709
H107	H	0.746464	-0.393212	0.350457
H108	H	1.246464	0.106788	0.850457
H109	H	0.745471	-0.674979	0.600695
H110	H	1.245471	-0.174979	1.100695
C111	C	1.087571	-0.674603	0.986181
C112	C	1.587571	-0.174603	1.486181
C113	C	1.038326	-0.718439	0.919380
C114	C	1.538326	-0.218439	1.419380
C115	C	0.974946	-0.774814	0.959390
C116	C	1.474946	-0.274814	1.459390
H117	H	1.117412	-0.717780	1.022159
H118	H	1.617412	-0.217780	1.522159
H119	H	1.048128	-0.639923	1.022648
H120	H	1.548128	-0.139923	1.522648
H121	H	1.077764	-0.753117	0.882929
H122	H	1.577764	-0.253117	1.382929
H123	H	1.008467	-0.675284	0.883398
H124	H	1.508467	-0.175284	1.383398
H125	H	0.935503	-0.740134	0.995856
H126	H	1.435503	-0.240134	1.495856
H127	H	1.004795	-0.817986	0.995367
H128	H	1.504795	-0.317986	1.495367
H129	H	0.941521	-0.804557	0.914072
H130	H	1.441521	-0.304557	1.414072
C131	C	1.351471	-0.439476	0.818562
C132	C	1.851471	0.060524	1.318562
C133	C	1.307109	-0.376061	0.765572
C134	C	1.807109	0.123939	1.265572
C135	C	1.370235	-0.319629	0.725244
C136	C	1.870235	0.180371	1.225244
H137	H	1.384992	-0.409552	0.863677
H138	H	1.884992	0.090448	1.363677
H139	H	1.390858	-0.474140	0.782019
H140	H	1.890858	0.025860	1.282019
H141	H	1.267737	-0.341401	0.802112
H142	H	1.767737	0.158599	1.302112
H143	H	1.273592	-0.405959	0.720441
H144	H	1.773592	0.094041	1.220441
H145	H	1.409622	-0.354292	0.688702
H146	H	1.909622	0.145708	1.188702
H147	H	1.403753	-0.289711	0.770366
H148	H	1.903753	0.210289	1.270366
H149	H	1.340145	-0.276600	0.689280
H150	H	1.840145	0.223400	1.189280
H151	H	1.361752	-1.203778	0.606156
H152	H	1.861752	-0.703778	1.106156
C153	C	1.151377	-1.191291	0.369565
C154	C	1.651377	-0.691291	0.869565
C155	C	1.157976	-1.284677	0.376921
C156	C	1.657976	-0.784677	0.876921
C157	C	1.101773	-1.325171	0.313632
C158	C	1.601773	-0.825171	0.813632
H159	H	1.091137	-1.173137	0.380219
H160	H	1.591137	-0.673137	0.880219
H161	H	1.169029	-1.173577	0.310981
H162	H	1.669029	-0.673577	0.810981
H163	H	1.140318	-1.302384	0.435491
H164	H	1.640318	-0.802384	0.935491
H165	H	1.218202	-1.302857	0.366258
H166	H	1.718202	-0.802857	0.866258
H167	H	1.119425	-1.307457	0.255048
H168	H	1.619425	-0.807457	0.755048
H169	H	1.041538	-1.307010	0.324292
H170	H	1.541538	-0.807010	0.824292
H171	H	1.106249	-1.388537	0.318609
H172	H	1.606249	-0.888537	0.818609
C173	C	1.099531	-0.663968	0.790982
C174	C	1.599531	-0.163968	1.290982
C175	C	1.118025	-0.647482	0.700411
C176	C	1.618025	-0.147482	1.200411
C177	C	1.060469	-0.698679	0.646835
C178	C	1.560469	-0.198679	1.146835
H179	H	1.108384	-0.725838	0.803245
H180	H	1.608384	-0.225838	1.303245
H181	H	1.039084	-0.647995	0.803806
H182	H	1.539084	-0.147995	1.303806
H183	H	1.178457	-0.663461	0.687592
H184	H	1.678457	-0.163461	1.187592
H185	H	1.109166	-0.585623	0.688120
H186	H	1.609166	-0.085623	1.188120
H187	H	1.000023	-0.682707	0.659659
H188	H	1.500023	-0.182707	1.159659
H189	H	1.069327	-0.760546	0.659106
H190	H	1.569327	-0.260546	1.159106
H191	H	1.073003	-0.687495	0.585377
H192	H	1.573003	-0.187495	1.085377
H193	H	0.599500	-0.445178	0.396601
H194	H	1.099500	0.054822	0.896601
H195	H	0.916261	-0.403519	0.359622
H196	H	1.416261	0.096481	0.859622
H197	H	1.120309	-1.033272	0.334767
H198	H	1.620309	-0.533272	0.834767
H199	H	1.129420	-0.863432	0.345053
H200	H	1.629420	-0.363432	0.845053
H201	H	1.386368	-0.408580	0.976591
H202	H	1.886368	0.091420	1.476591
C203	C	0.561012	-0.680216	0.605400
C204	C	1.061012	-0.180216	1.105400
C205	C	0.470432	-0.661673	0.588957
C206	C	0.970432	-0.161673	1.088957
C207	C	0.416888	-0.719209	0.640119
C208	C	0.916888	-0.219209	1.140119
H209	H	0.573770	-0.740667	0.589390
H210	H	1.073770	-0.240667	1.089390
H211	H	0.573369	-0.671360	0.667278
H212	H	1.073369	-0.171360	1.167278
H213	H	0.458081	-0.670536	0.527093
H214	H	0.958081	-0.170536	1.027093
H215	H	0.457647	-0.601233	0.604972
H216	H	0.957647	-0.101233	1.104972
H217	H	0.429245	-0.710353	0.701997
H218	H	0.929245	-0.210353	1.201997
H219	H	0.429653	-0.779655	0.624105
H220	H	0.929653	-0.279655	1.124105
H221	H	0.355424	-0.706629	0.628976
H222	H	0.855424	-0.206629	1.128976
C223	C	0.903184	-0.640232	0.569911
C224	C	1.403184	-0.140232	1.069911
C225	C	0.836417	-0.689491	0.613687
C226	C	1.336417	-0.189491	1.113687
C227	C	0.876467	-0.752850	0.670047
C228	C	1.376467	-0.252850	1.170047
H229	H	0.939652	-0.679680	0.535256
H230	H	1.439652	-0.179680	1.035256
H231	H	0.939166	-0.610344	0.613117
H232	H	1.439166	-0.110344	1.113117
H233	H	0.800450	-0.719378	0.570487
H234	H	1.300450	-0.219378	1.070487
H235	H	0.799945	-0.650067	0.648359
H236	H	1.299945	-0.150067	1.148359
H237	H	0.912449	-0.722962	0.713253
H238	H	1.412449	-0.222962	1.213253
H239	H	0.912934	-0.792291	0.635385
H240	H	1.412934	-0.292291	1.135385
H241	H	0.831172	-0.786274	0.699762
H242	H	1.331172	-0.286274	1.199762
H243	H	1.324613	-0.887052	0.564478
H244	H	1.824613	-0.387052	1.064478
H245	H	1.370872	-1.033966	0.616439
H246	H	1.870872	-0.533966	1.116439
H247	H	1.376075	-0.417717	1.146385
H248	H	1.876075	0.082283	1.646385
C249	C	1.139668	-0.628280	1.133519
C250	C	1.639668	-0.128280	1.633519
C251	C	1.147043	-0.621717	1.226916
C252	C	1.647043	-0.121717	1.726916
C253	C	1.083845	-0.678024	1.267308
C254	C	1.583845	-0.178024	1.767308
H255	H	1.081056	-0.610716	1.115817
H256	H	1.581056	-0.110716	1.615817
H257	H	1.150422	-0.688501	1.115277
H258	H	1.650422	-0.188501	1.615277
H259	H	1.136283	-0.561510	1.245151
H260	H	1.636283	-0.061510	1.745151
H261	H	1.205641	-0.639288	1.244645
H262	H	1.705641	-0.139288	1.744645
H263	H	1.094598	-0.738245	1.249066
H264	H	1.594598	-0.238245	1.749066
H265	H	1.025238	-0.660456	1.249598
H266	H	1.525238	-0.160456	1.749598
H267	H	1.088846	-0.673585	1.330681
H268	H	1.588846	-0.173585	1.830681
