data_functionalizedCrystal
_audit_creation_method	'MofGen! by Chris Wilmer'
_symmetry_space_group_name_H-M	'P1'
_symmetry_Int_Tables_number	1
_symmetry_cell_setting	triclinic
loop_
_symmetry_equiv_pos_as_xyz
  x,y,z
_cell_length_a	18.215407
_cell_length_b	12.759394
_cell_length_c	12.759387
_cell_angle_alpha	90.031405
_cell_angle_beta	90.019761
_cell_angle_gamma	90.015285
loop_
_atom_site_label
_atom_site_type_symbol
_atom_site_fract_x
_atom_site_fract_y
_atom_site_fract_z
Zn1	Zn	1.125123	-0.418201	0.594070
Zn2	Zn	1.625123	0.081799	1.094070
Zn3	Zn	1.125053	-0.593917	0.418388
Zn4	Zn	1.625053	-0.093917	0.918388
Zn5	Zn	1.002056	-0.418254	0.418399
Zn6	Zn	1.502056	0.081746	0.918399
Zn7	Zn	1.002043	-0.593840	0.594019
Zn8	Zn	1.502043	-0.093840	1.094019
O9	O	1.063569	-0.506053	0.506219
O10	O	1.563569	-0.006053	1.006219
O11	O	1.228098	-0.441520	0.570782
O12	O	1.728098	0.058480	1.070782
O13	O	1.108713	-0.570670	0.271368
O14	O	1.608713	-0.070670	0.771368
O15	O	1.018415	-0.271226	0.441728
O16	O	1.518415	0.228774	0.941728
O17	O	1.228046	-0.570618	0.441709
O18	O	1.728046	-0.070618	0.941709
O19	O	1.108832	-0.271187	0.570793
O20	O	1.608832	0.228813	1.070793
O21	O	1.018347	-0.441611	0.271376
O22	O	1.518347	0.058389	0.771376
O23	O	0.899070	-0.441536	0.441679
O24	O	1.399070	0.058464	0.941679
O25	O	1.018394	-0.570487	0.741047
O26	O	1.518394	-0.070487	1.241047
O27	O	0.899060	-0.570538	0.570706
O28	O	1.399060	-0.070538	1.070706
O29	O	1.108820	-0.441445	0.741084
O30	O	1.608820	0.058555	1.241084
O31	O	1.108701	-0.740928	0.441659
O32	O	1.608701	-0.240928	0.941659
O33	O	1.018326	-0.740871	0.570695
O34	O	1.518326	-0.240871	1.070695
C35	C	0.872362	-0.506035	0.506189
C36	C	1.372362	-0.006035	1.006189
C37	C	0.790563	-0.506053	0.506201
C38	C	1.290563	-0.006053	1.006201
C39	C	0.602384	-0.573330	0.573301
C40	C	1.102384	-0.073330	1.073301
C41	C	0.525525	-0.573333	0.573314
C42	C	1.025525	-0.073333	1.073314
C43	C	0.525505	-0.438796	0.439160
C44	C	1.025505	0.061204	0.939160
C45	C	0.602363	-0.438788	0.439153
C46	C	1.102363	0.061212	0.939153
C47	C	0.640800	-0.506061	0.506222
C48	C	1.140800	-0.006061	1.006222
C49	C	0.487084	-0.506072	0.506242
C50	C	0.987084	-0.006072	1.006242
C51	C	0.403750	-0.506075	0.506255
C52	C	0.903750	-0.006075	1.006255
C53	C	0.724139	-0.506057	0.506210
C54	C	1.224139	-0.006057	1.006210
C55	C	1.063524	-0.779021	0.506193
C56	C	1.563524	-0.279021	1.006193
C57	C	1.063573	-0.895797	0.506218
C58	C	1.563573	-0.395797	1.006218
C59	C	1.157751	-0.895803	0.371954
C60	C	1.657751	-0.395803	0.871954
C61	C	1.204859	-0.950667	0.304834
C62	C	1.704859	-0.450667	0.804834
C63	C	1.204902	-1.060388	0.304862
C64	C	1.704902	-0.560388	0.804862
C65	C	1.157834	-1.115249	0.372020
C66	C	1.657834	-0.615249	0.872020
C67	C	1.110725	-1.060385	0.439140
C68	C	1.610725	-0.560385	0.939140
C69	C	1.110686	-0.950661	0.439102
C70	C	1.610686	-0.450661	0.939102
C71	C	1.016552	-1.060379	0.573408
C72	C	1.516552	-0.560379	1.073408
C73	C	1.016504	-0.950658	0.573375
C74	C	1.516504	-0.450658	1.073375
C75	C	0.969484	-1.115240	0.640565
C76	C	1.469484	-0.615240	1.140565
C77	C	0.922370	-1.060376	0.707681
C78	C	1.422370	-0.560376	1.207681
C79	C	0.922329	-0.950648	0.707649
C80	C	1.422329	-0.450648	1.207649
C81	C	0.969396	-0.895794	0.640495
C82	C	1.469396	-0.395794	1.140495
C83	C	1.255521	-0.506072	0.506250
C84	C	1.755521	-0.006072	1.006250
C85	C	1.337320	-0.506080	0.506263
C86	C	1.837320	-0.006080	1.006263
C87	C	1.063613	-0.505951	0.780252
C88	C	1.563613	-0.005951	1.280252
C89	C	1.063632	-0.505908	0.897029
C90	C	1.563632	-0.005908	1.397029
C91	C	1.063633	-0.232020	0.506267
C92	C	1.563633	0.267980	1.006267
C93	C	1.063660	-0.115243	0.506288
C94	C	1.563660	0.384757	1.006288
C95	C	1.063566	-0.506079	0.233251
C96	C	1.563566	-0.006079	0.733251
C97	C	1.063690	-0.505826	0.116475
C98	C	1.563690	-0.005826	0.616475
C99	C	1.157782	-0.640224	1.116446
C100	C	1.657782	-0.140224	1.616446
C101	C	1.204816	-0.707440	1.061570
C102	C	1.704816	-0.207440	1.561570
C103	C	1.204792	-0.707480	0.951848
C104	C	1.704792	-0.207480	1.451848
C105	C	1.157726	-0.640299	0.897000
C106	C	1.657726	-0.140299	1.397000
C107	C	1.110691	-0.573084	0.951875
C108	C	1.610691	-0.073084	1.451875
C109	C	1.110722	-0.573049	1.061600
C110	C	1.610722	-0.073049	1.561600
C111	C	1.016597	-0.438692	0.951905
C112	C	1.516597	0.061308	1.451905
C113	C	1.016624	-0.438645	1.061626
C114	C	1.516624	0.061355	1.561626
C115	C	0.969531	-0.371512	0.897056
C116	C	1.469531	0.128488	1.397056
C117	C	0.922499	-0.304289	0.951932
C118	C	1.422499	0.195711	1.451932
C119	C	0.922526	-0.304251	1.061660
C120	C	1.422526	0.195749	1.561660
C121	C	0.969589	-0.371430	1.116502
C122	C	1.469589	0.128570	1.616502
H123	H	1.157711	-0.806462	0.371910
H124	H	1.657711	-0.306462	0.871910
H125	H	0.633677	-0.628105	0.627915
H126	H	1.133677	-0.128105	1.127915
Br127	Br	1.268741	-0.876210	0.213704
Br128	Br	1.768741	-0.376210	0.713704
H129	H	1.243096	-0.762207	0.907169
H130	H	1.743096	-0.262207	1.407169
H131	H	0.969512	-0.371553	0.807715
H132	H	1.469512	0.128447	1.307715
Br133	Br	0.473392	-0.664626	0.664359
Br134	Br	0.973392	-0.164626	1.164359
H135	H	1.157813	-0.640189	1.205787
H136	H	1.657813	-0.140189	1.705787
H137	H	0.494200	-0.384026	0.384553
H138	H	0.994200	0.115974	0.884553
Br139	Br	0.858633	-0.213122	0.877491
Br140	Br	1.358633	0.286878	1.377491
Br141	Br	1.157685	-0.640368	0.748091
Br142	Br	1.657685	-0.140368	1.248091
Br143	Br	1.157549	-1.264156	0.371566
Br144	Br	1.657549	-0.764156	0.871566
Br145	Br	0.654504	-0.347477	0.348120
Br146	Br	1.154504	0.152523	0.848120
H147	H	0.884223	-0.249518	1.106333
H148	H	1.384223	0.250482	1.606333
H149	H	1.243266	-1.105058	0.250213
H150	H	1.743266	-0.605058	0.750213
H151	H	0.884055	-1.105052	0.762360
H152	H	1.384055	-0.605052	1.262360
H153	H	0.883970	-0.905984	0.762310
H154	H	1.383970	-0.405984	1.262310
H155	H	0.969525	-1.204581	0.640588
H156	H	1.469525	-0.704581	1.140588
Br157	Br	0.969579	-0.746886	0.640784
Br158	Br	1.469579	-0.246886	1.140784
H159	H	0.969619	-0.371401	1.205843
H160	H	1.469619	0.128599	1.705843
H161	H	1.243134	-0.762140	1.106240
H162	H	1.743134	-0.262140	1.606240
