data_functionalizedCrystal
_audit_creation_method	'MofGen! by Chris Wilmer'
_symmetry_space_group_name_H-M	'P1'
_symmetry_Int_Tables_number	1
_symmetry_cell_setting	triclinic
loop_
_symmetry_equiv_pos_as_xyz
  x,y,z
_cell_length_a	17.640112
_cell_length_b	21.295417
_cell_length_c	21.295411
_cell_angle_alpha	89.978356
_cell_angle_beta	101.169060
_cell_angle_gamma	101.256239
loop_
_atom_site_label
_atom_site_type_symbol
_atom_site_fract_x
_atom_site_fract_y
_atom_site_fract_z
Zn1	Zn	1.208340	-0.055888	-0.161687
Zn2	Zn	1.708340	0.444112	0.338313
Zn3	Zn	1.208217	-0.161159	-0.056433
Zn4	Zn	1.708217	0.338841	0.443567
Zn5	Zn	1.076153	-0.077198	-0.077680
Zn6	Zn	1.576153	0.422802	0.422320
Zn7	Zn	1.076115	-0.182439	-0.182898
Zn8	Zn	1.576115	0.317561	0.317102
O9	O	1.142206	-0.119171	-0.119674
O10	O	1.642206	0.380829	0.380326
O11	O	1.318929	-0.052029	-0.129957
O12	O	1.818929	0.447971	0.370043
O13	O	1.190663	-0.150034	0.028833
O14	O	1.690663	0.349966	0.528833
O15	O	1.093756	0.013729	-0.088839
O16	O	1.593756	0.513729	0.411161
O17	O	1.318839	-0.129371	-0.052626
O18	O	1.818839	0.370629	0.447374
O19	O	1.190872	0.029386	-0.150559
O20	O	1.690872	0.529386	0.349441
O21	O	1.093637	-0.088348	0.013223
O22	O	1.593637	0.411652	0.513223
O23	O	0.965543	-0.108982	-0.109406
O24	O	1.465543	0.391018	0.390594
O25	O	1.093690	-0.165639	-0.268168
O26	O	1.593690	0.334361	0.231832
O27	O	0.965515	-0.186302	-0.186709
O28	O	1.465515	0.313698	0.313291
O29	O	1.190835	-0.072662	-0.252585
O30	O	1.690835	0.427338	0.247415
O31	O	1.190626	-0.252082	-0.073193
O32	O	1.690626	0.247918	0.426807
O33	O	1.093571	-0.267716	-0.166107
O34	O	1.593571	0.232284	0.333893
C35	C	0.936850	-0.152264	-0.152665
C36	C	1.436850	0.347736	0.347335
C37	C	0.848997	-0.166436	-0.166793
C38	C	1.348997	0.333564	0.333207
C39	C	0.560026	-0.011493	-0.012347
C40	C	1.060026	0.488507	0.487653
C41	C	0.477475	-0.024823	-0.025632
C42	C	0.977475	0.475177	0.474368
C43	C	0.477500	-0.105447	-0.105989
C44	C	0.977500	0.394553	0.394011
C45	C	0.560052	-0.092122	-0.092714
C46	C	1.060052	0.407878	0.407286
C47	C	0.601309	-0.045145	-0.045892
C48	C	1.101309	0.454855	0.454108
C49	C	0.601335	-0.125774	-0.126258
C50	C	1.101335	0.374226	0.373742
C51	C	0.683881	-0.112452	-0.112981
C52	C	1.183881	0.387548	0.387019
C53	C	0.725143	-0.065478	-0.066160
C54	C	1.225143	0.434522	0.433840
C55	C	0.683854	-0.031823	-0.032615
C56	C	1.183854	0.468177	0.467385
C57	C	0.560077	-0.172754	-0.173076
C58	C	1.060077	0.327246	0.326924
C59	C	0.601360	-0.206406	-0.206620
C60	C	1.101360	0.293594	0.293380
C61	C	0.683907	-0.193080	-0.193347
C62	C	1.183907	0.306920	0.306653
C63	C	0.725169	-0.146107	-0.146526
C64	C	1.225169	0.353893	0.353474
C65	C	0.725196	-0.226736	-0.226892
C66	C	1.225196	0.273264	0.273108
C67	C	0.807741	-0.213413	-0.213615
C68	C	1.307741	0.286587	0.286385
C69	C	0.807714	-0.132785	-0.133249
C70	C	1.307714	0.367215	0.366751
C71	C	1.142103	-0.282739	-0.119656
C72	C	1.642103	0.217261	0.380344
C73	C	1.142131	-0.352703	-0.119658
C74	C	1.642131	0.147297	0.380342
C75	C	1.192712	-0.377401	-0.071312
C76	C	1.692712	0.122599	0.428688
C77	C	1.192749	-0.443137	-0.071320
C78	C	1.692749	0.056863	0.428680
C79	C	1.142191	-0.484176	-0.119670
C80	C	1.642191	0.015824	0.380330
C81	C	1.091606	-0.459470	-0.168024
C82	C	1.591606	0.040530	0.331976
C83	C	1.091576	-0.393734	-0.168018
C84	C	1.591576	0.106266	0.331982
N85	N	1.073048	-0.598589	-0.135577
N86	N	1.573048	-0.098589	0.364423
N87	N	1.073079	-0.661035	-0.135578
N88	N	1.573079	-0.161035	0.364422
C89	C	1.142279	-0.682236	-0.119692
C90	C	1.642279	-0.182236	0.380308
N91	N	1.211449	-0.638631	-0.103791
N92	N	1.711449	-0.138631	0.396209
N93	N	1.211418	-0.576179	-0.103786
N94	N	1.711418	-0.076179	0.396214
C95	C	1.142218	-0.555457	-0.119682
C96	C	1.642218	-0.055457	0.380318
C97	C	1.192905	-0.778212	-0.071352
C98	C	1.692905	-0.278212	0.428648
C99	C	1.192943	-0.843950	-0.071364
C100	C	1.692943	-0.343950	0.428636
C101	C	1.091793	-0.860283	-0.168066
C102	C	1.591793	-0.360283	0.331934
C103	C	1.091762	-0.794545	-0.168056
C104	C	1.591762	-0.294545	0.331944
C105	C	1.142317	-0.753514	-0.119696
C106	C	1.642317	-0.253514	0.380304
C107	C	1.348365	-0.085949	-0.086555
C108	C	1.848365	0.414051	0.413445
C109	C	1.436217	-0.071792	-0.072442
C110	C	1.936217	0.428208	0.427558
C111	C	1.142272	-0.119147	-0.283854
C112	C	1.642272	0.380853	0.216146
C113	C	1.142300	-0.119137	-0.353818
C114	C	1.642300	0.380863	0.146182
C115	C	1.142332	0.045040	-0.119703
C116	C	1.642332	0.545040	0.380297
C117	C	1.142385	0.115016	-0.119715
C118	C	1.642385	0.615016	0.380285
C119	C	1.192881	-0.070723	-0.378572
C120	C	1.692881	0.429277	0.121428
C121	C	1.192880	-0.070695	-0.444314
C122	C	1.692880	0.429305	0.055686
C123	C	1.142306	-0.119093	-0.485299
C124	C	1.642306	0.380907	0.014701
C125	C	1.091715	-0.167511	-0.460539
C126	C	1.591715	0.332489	0.039461
C127	C	1.091712	-0.167533	-0.394798
C128	C	1.591712	0.332467	0.105202
N129	N	1.136208	-0.175143	-0.589495
N130	N	1.636208	0.324857	-0.089495
N131	N	1.136215	-0.175120	-0.651945
N132	N	1.636215	0.324880	-0.151945
C133	C	1.142311	-0.119028	-0.683373
C134	C	1.642311	0.380972	-0.183373
N135	N	1.148414	-0.062957	-0.649990
N136	N	1.648414	0.437043	-0.149990
N137	N	1.148411	-0.062980	-0.587533
N138	N	1.648411	0.437020	-0.087533
C139	C	1.142303	-0.119074	-0.556585
C140	C	1.642303	0.380926	-0.056585
C141	C	1.192894	-0.070580	-0.779413
C142	C	1.692894	0.429420	-0.279413
C143	C	1.192887	-0.070553	-0.845157
C144	C	1.692887	0.429447	-0.345157
C145	C	1.091726	-0.167374	-0.861380
C146	C	1.591726	0.332626	-0.361380
C147	C	1.091729	-0.167396	-0.795637
C148	C	1.591729	0.332604	-0.295637
C149	C	1.142317	-0.119000	-0.754657
C150	C	1.642317	0.381000	-0.254657
C151	C	1.142186	-0.119142	0.043874
C152	C	1.642186	0.380858	0.543874
C153	C	1.142312	-0.118950	0.113862
C154	C	1.642312	0.381050	0.613862
H155	H	0.841308	-0.094522	-0.095131
H156	H	1.341308	0.405478	0.404869
H157	H	1.233879	-0.343994	-0.031935
H158	H	1.733879	0.156006	0.468065
H159	H	0.492864	-0.183599	-0.183885
H160	H	0.992864	0.316401	0.316115
H161	H	0.567758	-0.244656	-0.244741
H162	H	1.067758	0.255344	0.255259
H163	H	1.234073	-0.744803	-0.031975
H164	H	1.734073	-0.244803	0.468025
H165	H	1.233941	-0.463250	-0.031950
H166	H	1.733941	0.036750	0.468050
H167	H	1.234138	-0.864056	-0.031995
H168	H	1.734138	-0.364056	0.468005
C169	C	0.679808	-0.278408	-0.278390
C170	C	1.179808	0.221592	0.221610
H171	H	0.624734	-0.281521	-0.281494
H172	H	1.124734	0.218479	0.218506
H173	H	0.693316	-0.318510	-0.266930
H174	H	1.193316	0.181490	0.233070
H175	H	0.693365	-0.267064	-0.318525
H176	H	1.193365	0.232936	0.181475
C177	C	1.248523	-0.017339	-0.734334
C178	C	1.748523	0.482661	-0.234334
H179	H	1.278639	0.011506	-0.758496
H180	H	1.778639	0.511506	-0.258496
H181	H	1.282946	-0.035876	-0.703164
H182	H	1.782946	0.464124	-0.203164
H183	H	1.218297	0.005208	-0.713540
H184	H	1.718297	0.505208	-0.213540
H185	H	0.841354	-0.240815	-0.240931
H186	H	1.341354	0.259185	0.259069
H187	H	1.050631	-0.893695	-0.207436
H188	H	1.550631	-0.393695	0.292564
C189	C	1.035930	-0.366566	-0.221198
C190	C	1.535930	0.133434	0.278802
H191	H	1.005820	-0.400419	-0.249995
H192	H	1.505820	0.099581	0.250005
H193	H	1.066134	-0.336011	-0.243787
H194	H	1.566134	0.163989	0.256213
H195	H	1.001490	-0.346513	-0.202619
H196	H	1.501490	0.153487	0.297381
C197	C	1.248530	-0.017295	-0.872386
C198	C	1.748530	0.482705	-0.372386
H199	H	1.278661	0.011519	-0.838561
H200	H	1.778661	0.511519	-0.338561
H201	H	1.218321	0.005277	-0.902879
H202	H	1.718321	0.505277	-0.402879
H203	H	1.282950	-0.035827	-0.892509
H204	H	1.782950	0.464173	-0.392509
H205	H	1.050442	-0.492888	-0.207392
H206	H	1.550442	0.007112	0.292608
H207	H	0.593619	0.026770	0.025770
H208	H	1.093619	0.526770	0.525770
C209	C	1.036111	-0.767377	-0.221231
C210	C	1.536111	-0.267377	0.278769
H211	H	1.006000	-0.801232	-0.250025
H212	H	1.506000	-0.301232	0.249975
H213	H	1.066314	-0.736824	-0.243822
H214	H	1.566314	-0.236824	0.256178
H215	H	1.001674	-0.747324	-0.202650
H216	H	1.501674	-0.247324	0.297350
C217	C	1.248519	-0.017485	-0.333498
C218	C	1.748519	0.482515	0.166502
H219	H	1.278639	0.011356	-0.357661
H220	H	1.778639	0.511356	0.142339
H221	H	1.282937	-0.036025	-0.302328
H222	H	1.782937	0.463975	0.197672
H223	H	1.218299	0.005069	-0.312704
H224	H	1.718299	0.505069	0.187296
C225	C	1.036081	-0.220798	-0.367566
C226	C	1.536081	0.279202	0.132434
H227	H	1.005964	-0.249622	-0.401388
H228	H	1.505964	0.250378	0.098612
H229	H	1.001661	-0.202280	-0.347438
H230	H	1.501661	0.297720	0.152562
H231	H	1.066308	-0.243365	-0.337077
H232	H	1.566308	0.256635	0.162923
H233	H	1.234067	-0.031268	-0.464473
H234	H	1.734067	0.468732	0.035527
H235	H	1.050545	-0.206823	-0.775483
H236	H	1.550545	0.293177	-0.275483
C237	C	1.036084	-0.220748	-0.505617
C238	C	1.536084	0.279252	-0.005617
H239	H	1.005954	-0.249584	-0.481457
H240	H	1.505954	0.250416	0.018543
H241	H	1.066298	-0.243300	-0.526414
H242	H	1.566298	0.256700	-0.026414
H243	H	1.001664	-0.202202	-0.536785
H244	H	1.501664	0.297798	-0.036785
C245	C	0.815941	-0.050820	-0.051551
C246	C	1.315941	0.449180	0.448449
H247	H	0.834597	-0.018027	-0.018859
H248	H	1.334597	0.481973	0.481141
H249	H	0.834651	-0.036975	-0.089183
H250	H	1.334651	0.463025	0.410817
H251	H	0.834591	-0.088419	-0.037586
H252	H	1.334591	0.411581	0.462414
C253	C	0.729241	0.019860	0.018880
C254	C	1.229241	0.519860	0.518880
H255	H	0.692834	0.037996	0.036958
H256	H	1.192834	0.537996	0.536958
H257	H	0.761468	0.052448	-0.000074
H258	H	1.261468	0.552448	0.499926
H259	H	0.761415	0.001013	0.051532
H260	H	1.261415	0.501013	0.551532
C261	C	1.036101	-0.220613	-0.906455
C262	C	1.536101	0.279387	-0.406455
H263	H	1.043351	-0.213670	-0.949153
H264	H	1.543351	0.286330	-0.449153
H265	H	0.983000	-0.219967	-0.904201
H266	H	1.483000	0.280033	-0.404201
H267	H	1.047647	-0.261052	-0.893825
H268	H	1.547647	0.238948	-0.393825
H269	H	0.443866	0.002588	0.001683
H270	H	0.943866	0.502588	0.501683
H271	H	0.443898	-0.143698	-0.144110
H272	H	0.943898	0.356302	0.355890
