data_functionalizedCrystal
_audit_creation_method	'MofGen! by Chris Wilmer'
_symmetry_space_group_name_H-M	'P1'
_symmetry_Int_Tables_number	1
_symmetry_cell_setting	triclinic
loop_
_symmetry_equiv_pos_as_xyz
  x,y,z
_cell_length_a	18.215407
_cell_length_b	16.959454
_cell_length_c	18.215399
_cell_angle_alpha	89.976304
_cell_angle_beta	89.980167
_cell_angle_gamma	90.020523
loop_
_atom_site_label
_atom_site_type_symbol
_atom_site_fract_x
_atom_site_fract_y
_atom_site_fract_z
Zn1	Zn	1.125097	-0.314680	-0.416138
Zn2	Zn	1.125015	-0.446866	-0.293080
Zn3	Zn	1.002029	-0.314706	-0.293085
Zn4	Zn	1.002005	-0.446822	-0.416105
O5	O	1.063537	-0.380768	-0.354602
O6	O	1.228070	-0.332222	-0.399825
O7	O	1.108677	-0.429364	-0.190097
O8	O	1.018398	-0.204092	-0.309424
O9	O	1.228010	-0.429339	-0.309416
O10	O	1.108815	-0.204073	-0.399830
O11	O	1.018319	-0.332267	-0.190100
O12	O	0.899042	-0.332224	-0.309392
O13	O	1.018358	-0.429264	-0.519094
O14	O	0.899024	-0.429289	-0.399775
O15	O	1.108792	-0.332180	-0.519118
O16	O	1.108654	-0.557471	-0.309385
O17	O	1.018279	-0.557438	-0.399770
C18	C	0.872330	-0.380755	-0.354581
C19	C	0.790531	-0.380768	-0.354589
C20	C	0.602348	-0.431389	-0.401593
C21	C	0.525489	-0.431392	-0.401602
C22	C	0.525478	-0.330162	-0.307628
C23	C	0.602335	-0.330156	-0.307623
C24	C	0.640768	-0.380774	-0.354604
C25	C	0.487052	-0.380782	-0.354618
C26	C	0.403718	-0.380785	-0.354628
C27	C	0.724107	-0.380771	-0.354596
C28	C	1.063475	-0.586135	-0.354590
C29	C	1.063516	-0.673991	-0.354609
C30	C	1.016547	-1.045480	-0.401661
C31	C	1.110731	-1.045454	-0.307618
C32	C	1.110706	-0.962908	-0.307611
C33	C	1.063599	-0.921644	-0.354629
C34	C	1.016518	-0.962926	-0.401654
C35	C	1.157781	-0.921619	-0.260582
C36	C	1.157756	-0.839068	-0.260573
C37	C	1.110653	-0.797803	-0.307595
C38	C	1.063570	-0.839091	-0.354622
C39	C	1.016464	-0.797827	-0.401640
C40	C	0.969384	-0.839113	-0.448672
C41	C	0.969414	-0.921661	-0.448676
C42	C	1.110623	-0.715255	-0.307591
C43	C	1.016435	-0.715273	-0.401634
C44	C	1.255489	-0.380783	-0.354624
C45	C	1.337288	-0.380789	-0.354633
C46	C	1.063581	-0.380714	-0.546555
C47	C	1.063601	-0.380691	-0.628354
C48	C	1.063619	-0.174600	-0.354631
C49	C	1.063653	-0.086744	-0.354643
C50	C	1.110707	-0.330092	-0.816562
C51	C	1.110716	-0.330069	-0.893420
C52	C	1.016546	-0.431167	-0.893384
C53	C	1.016534	-0.431186	-0.816527
C54	C	1.063619	-0.380649	-0.778118
C55	C	1.063639	-0.380608	-0.931834
C56	C	1.063649	-0.380583	-1.015168
C57	C	1.063609	-0.380672	-0.694779
C58	C	1.063534	-0.380766	-0.163396
C59	C	1.063658	-0.380566	-0.081597
H60	H	0.978077	-0.681682	-0.439924
O61	O	0.488135	-0.480448	-0.447323
C62	C	0.401370	-0.491227	-0.546646
C63	C	0.443640	-0.435579	-0.494921
H64	H	0.365374	-0.454974	-0.585132
H65	H	0.442011	-0.527387	-0.580276
H66	H	0.365393	-0.532529	-0.512782
H67	H	0.479618	-0.394230	-0.528729
H68	H	0.402959	-0.399475	-0.461289
O69	O	1.156513	-0.281109	-0.779216
C70	C	1.255830	-0.270484	-0.692426
C71	C	1.204015	-0.326052	-0.734685
H72	H	1.294237	-0.306798	-0.656401
H73	H	1.289538	-0.234356	-0.733074
H74	H	1.222031	-0.229149	-0.656479
H75	H	1.237757	-0.367436	-0.770634
H76	H	1.170303	-0.362125	-0.693998
H77	H	1.196127	-0.955222	-0.222297
H78	H	0.931026	-0.805506	-0.486951
O79	O	1.156528	-0.280934	-0.930651
C80	C	1.249901	-0.180630	-0.922570
C81	C	1.198067	-0.236251	-0.880316
H82	H	1.283488	-0.144477	-0.881893
H83	H	1.288422	-0.216874	-0.958536
H84	H	1.216123	-0.139320	-0.958572
H85	H	1.231786	-0.277572	-0.844275
H86	H	1.159544	-0.199958	-0.844397
H87	H	0.494176	-0.288952	-0.269376
O88	O	1.156279	-0.675028	-0.261934
C89	C	1.198010	-0.547847	-0.220276
C90	C	1.146251	-0.593304	-0.272010
H91	H	1.189931	-0.481765	-0.228415
H92	H	1.185121	-0.564058	-0.160908
H93	H	1.257342	-0.564074	-0.233243
H94	H	1.086901	-0.577101	-0.259109
H95	H	1.159203	-0.577089	-0.331362
H96	H	0.978214	-0.472314	-0.924667
O97	O	1.156511	-1.085412	-0.261878
C98	C	1.249963	-1.076680	-0.168633
C99	C	1.198140	-1.031326	-0.220386
H100	H	1.283645	-1.032972	-0.135084
H101	H	1.216247	-1.115351	-0.130073
H102	H	1.288403	-1.115303	-0.202473
H103	H	1.159690	-0.992660	-0.186605
H104	H	1.231902	-0.992705	-0.258948
O105	O	0.970870	-0.480415	-0.779210
C106	C	0.935065	-0.614869	-0.755688
C107	C	0.986835	-0.559215	-0.797982
H108	H	0.947944	-0.678589	-0.770861
H109	H	0.943147	-0.606266	-0.694150
H110	H	0.875735	-0.600943	-0.770781
H111	H	1.046185	-0.573106	-0.782951
H112	H	0.978690	-0.567828	-0.859510
O113	O	0.639650	-0.480467	-0.447339
C114	C	0.663170	-0.519027	-0.572462
C115	C	0.620896	-0.463386	-0.520735
H116	H	0.648012	-0.505248	-0.631812
H117	H	0.724711	-0.510328	-0.564452
H118	H	0.648044	-0.582742	-0.559406
H119	H	0.635961	-0.399650	-0.533759
H120	H	0.559366	-0.472153	-0.528754
O121	O	0.639547	-0.280961	-0.261905
C122	C	0.631432	-0.180521	-0.168728
C123	C	0.589198	-0.236206	-0.220447
H124	H	0.590743	-0.144311	-0.135206
H125	H	0.667370	-0.216719	-0.130141
H126	H	0.667459	-0.139269	-0.202591
H127	H	0.553131	-0.277469	-0.186642
H128	H	0.553306	-0.199959	-0.259036
H129	H	0.978218	-1.079098	-0.439955
O130	O	0.923704	-0.961888	-0.494284
C131	C	0.882032	-1.089073	-0.535992
C132	C	0.933826	-1.043611	-0.484296
H133	H	0.890208	-1.155154	-0.527945
H134	H	0.822677	-1.072953	-0.523008
H135	H	0.894904	-1.072759	-0.595338
H136	H	0.921020	-1.059901	-0.424932
H137	H	0.993165	-1.059736	-0.497342
O138	O	1.203561	-0.799089	-0.214871
C139	C	1.296957	-0.807782	-0.121566
C140	C	1.245131	-0.853158	-0.173295
H141	H	1.330568	-0.851477	-0.087927
H142	H	1.335455	-0.769113	-0.155354
H143	H	1.263171	-0.769156	-0.083082
H144	H	1.278857	-0.891827	-0.211789
H145	H	1.206630	-0.891777	-0.139461
