data_functionalizedCrystal
_audit_creation_method	'MofGen! by Chris Wilmer'
_symmetry_space_group_name_H-M	'P1'
_symmetry_Int_Tables_number	1
_symmetry_cell_setting	triclinic
loop_
_symmetry_equiv_pos_as_xyz
  x,y,z
_cell_length_a	6.817900
_cell_length_b	10.773890
_cell_length_c	10.943624
_cell_angle_alpha	95.382956
_cell_angle_beta	108.838799
_cell_angle_gamma	96.645716
loop_
_atom_site_label
_atom_site_type_symbol
_atom_site_fract_x
_atom_site_fract_y
_atom_site_fract_z
V1	V	-4.053411	-0.172562	-0.400448
O2	O	-4.076200	0.008326	-0.394990
O3	O	-3.970332	-0.342194	-0.395628
O4	O	-4.032334	-0.169893	-0.576047
O5	O	-4.013768	-0.165168	-0.213321
V6	V	-4.537992	-0.150927	-0.378319
O7	O	-4.312348	-0.220019	-0.448990
O8	O	-4.729252	-0.103470	-0.329777
O9	O	-4.397865	0.018704	-0.383140
O10	O	-4.632601	-0.331815	-0.383778
O11	O	-4.695032	-0.158322	-0.565446
O12	O	-4.335863	-0.153597	-0.202720
C13	C	-3.806012	-0.383547	-0.388774
C14	C	-3.819554	-0.522223	-0.386003
C15	C	-3.998378	-0.590085	-0.390818
C16	C	-4.012378	-0.733414	-0.387954
C17	C	-3.885101	-0.163758	-0.618915
C18	C	-3.948922	-0.162698	-0.762454
C19	C	-3.796320	-0.155561	-0.839689
C20	C	-3.947564	-0.261501	-0.944388
C21	C	-3.911419	-0.054882	-0.913519
C22	C	-4.099341	-0.268737	-0.865275
C23	C	-4.063150	-0.062025	-0.834384
C24	C	-4.214519	-0.167995	-0.939053
C25	C	-4.225525	0.060051	-0.389990
C26	C	-4.191223	0.198726	-0.392769
C27	C	-4.146436	-0.159735	-0.159846
C28	C	-4.061855	-0.160789	-0.016305
H29	H	-3.869635	-0.781421	-0.381719
F30	F	-4.377814	-0.738537	-0.400938
F31	F	-3.632988	-0.584972	-0.377854
H32	H	-3.832579	0.035477	-0.935382
F33	F	-3.564499	-0.148873	-0.782974
H34	H	-3.899362	-0.345832	-0.992309
F35	F	-4.202384	-0.387002	-0.836987
F36	F	-4.446410	-0.174895	-0.995494
F37	F	-4.126043	0.048206	-0.771697
H38	H	-4.141114	-0.542075	-0.397066
