data_functionalizedCrystal
_audit_creation_method	'MofGen! by Chris Wilmer'
_symmetry_space_group_name_H-M	'P1'
_symmetry_Int_Tables_number	1
_symmetry_cell_setting	triclinic
loop_
_symmetry_equiv_pos_as_xyz
  x,y,z
_cell_length_a	19.851628
_cell_length_b	23.196402
_cell_length_c	23.196401
_cell_angle_alpha	60.008822
_cell_angle_beta	90.016862
_cell_angle_gamma	59.998845
loop_
_atom_site_label
_atom_site_type_symbol
_atom_site_fract_x
_atom_site_fract_y
_atom_site_fract_z
Zr1	Zr	0.648976	0.630934	-0.075560
O2	O	0.541388	0.751211	-0.167618
O3	O	0.681955	0.510665	-0.047343
O4	O	0.681925	0.630932	-0.167608
O5	O	0.541444	0.630943	0.047519
O6	O	0.792787	0.630921	-0.167597
O7	O	0.541417	0.630944	-0.047352
O8	O	0.792841	0.415785	0.047536
O9	O	0.541391	0.846079	-0.167613
O10	O	0.778759	0.560122	-0.035296
O11	O	0.696043	0.560129	0.035497
O12	O	0.696008	0.701728	-0.106100
O13	O	0.613293	0.701735	-0.035307
Zr14	Zr	0.825830	0.630914	0.075767
Zr15	Zr	0.825788	0.630916	-0.075541
Zr16	Zr	0.649019	0.630931	0.075749
Zr17	Zr	0.648981	0.782236	-0.075553
Zr18	Zr	0.825825	0.479611	0.075761
O19	O	0.792851	0.751183	0.047550
O20	O	0.792791	0.751186	-0.167591
O21	O	0.541448	0.751208	0.047524
O22	O	0.933419	0.510636	0.167825
O23	O	0.933359	0.510639	-0.047317
O24	O	0.682015	0.510661	0.167799
O25	O	0.933363	0.630905	-0.047312
O26	O	0.792881	0.630915	0.167816
O27	O	0.682019	0.630927	0.167804
O28	O	0.933389	0.630903	0.047560
O29	O	0.681932	0.846064	-0.167599
O30	O	0.792874	0.415783	0.167806
O31	O	0.933416	0.415769	0.167821
O32	O	0.933382	0.415771	0.047551
O33	O	0.541424	0.846077	-0.047343
O34	O	0.681966	0.846063	-0.047328
O35	O	0.778798	0.560119	0.106307
O36	O	0.861513	0.560112	0.035514
O37	O	0.778763	0.701718	-0.035290
O38	O	0.696048	0.701726	0.035503
C39	C	0.737397	0.441667	0.000096
C40	C	0.737395	0.377436	0.000093
C41	C	0.780566	0.347261	-0.036863
C42	C	0.780574	0.286900	-0.036857
C43	C	0.737395	0.256727	0.000095
C44	C	0.694222	0.286906	0.037059
C45	C	0.694222	0.347260	0.037058
C46	C	0.665055	0.194705	-0.005187
C47	C	0.665052	0.134356	-0.005191
C48	C	0.737396	0.070573	0.000102
C49	C	0.809742	0.067153	0.005385
C50	C	0.809742	0.127508	0.005384
C51	C	0.737390	0.191283	0.000100
C52	C	0.780579	-0.025053	-0.036849
C53	C	0.780590	-0.085418	-0.036839
C54	C	0.694230	-0.085406	0.037072
C55	C	0.694228	-0.025048	0.037066
C56	C	0.737400	0.005128	0.000102
C57	C	0.516239	0.630946	0.000081
C58	C	0.441177	0.630953	0.000073
C59	C	0.214714	0.708145	-0.038509
C60	C	0.192343	0.669551	-0.066486
C61	C	0.303771	0.630932	0.000093
C62	C	0.192401	0.669531	0.028057
C63	C	0.171039	0.630918	0.000112
C64	C	0.282389	0.592338	-0.027923
C65	C	0.282444	0.592329	0.066657
C66	C	0.260127	0.553679	0.038697
C67	C	0.380233	0.630943	0.000081
C68	C	0.094582	0.630901	0.000124
C69	C	0.958568	0.630901	0.000127
C70	C	1.033629	0.630894	0.000135
C71	C	0.737350	0.630927	-0.189161
C72	C	0.737332	0.630928	-0.253395
C73	C	0.737409	0.820180	0.000112
C74	C	0.737411	0.884412	0.000115
C75	C	0.694142	0.704842	-0.320527
C76	C	0.694163	0.704843	-0.380882
C77	C	0.737363	0.630926	-0.374101
C78	C	0.780563	0.557001	-0.306957
C79	C	0.780548	0.557002	-0.246604
C80	C	0.731227	0.574298	-0.441422
C81	C	0.731236	0.574300	-0.501775
C82	C	0.737415	0.630919	-0.560249
C83	C	0.743568	0.687550	-0.558369
C84	C	0.743553	0.687551	-0.498016
C85	C	0.737385	0.630916	-0.439540
C86	C	0.694245	0.704840	-0.692828
C87	C	0.694272	0.704838	-0.753183
C88	C	0.780667	0.556994	-0.679255
C89	C	0.780646	0.556998	-0.618903
C90	C	0.737430	0.630924	-0.625694
C91	C	0.737456	0.630921	0.189368
C92	C	0.737474	0.630920	0.253603
C93	C	0.958562	0.441645	0.000119
C94	C	1.033621	0.377406	0.000124
C95	C	0.737450	0.441664	0.189360
C96	C	0.737466	0.377432	0.253592
C97	C	0.958615	0.441642	0.189383
C98	C	1.033692	0.377402	0.253623
C99	C	0.516192	0.820205	-0.189175
C100	C	0.441115	0.884445	-0.253415
C101	C	0.516245	0.820202	0.000089
C102	C	0.441186	0.884442	0.000084
C103	C	0.737356	0.820183	-0.189152
C104	C	0.737341	0.884416	-0.253384
C105	C	1.025672	0.347243	-0.036842
C106	C	1.096192	0.286892	-0.036852
C107	C	1.174659	0.256700	0.000109
C108	C	1.182606	0.286869	0.037077
C109	C	1.112087	0.347223	0.037082
C110	C	0.780671	0.347262	0.320724
C111	C	0.780682	0.286917	0.381083
C112	C	0.737494	0.256738	0.374307
C113	C	0.694284	0.286914	0.307168
C114	C	0.694268	0.347262	0.246811
C115	C	1.112133	0.347230	0.246837
C116	C	1.182682	0.286878	0.307191
C117	C	1.174789	0.256694	0.374330
C118	C	1.096340	0.286872	0.381115
C119	C	1.025792	0.347227	0.320761
C120	C	0.362674	0.914625	-0.246630
C121	C	0.292124	0.974996	-0.306984
C122	C	0.300017	1.005182	-0.374123
C123	C	0.378466	0.975001	-0.380907
C124	C	0.449014	0.914635	-0.320553
C125	C	0.449134	0.914610	0.037044
C126	C	0.378615	0.974978	0.037036
C127	C	0.300148	1.005172	0.000073
C128	C	0.292201	0.975001	-0.036891
C129	C	0.362719	0.914638	-0.036888
C130	C	0.780537	0.914575	-0.246586
C131	C	0.780539	0.974921	-0.306933
C132	C	0.737338	1.005110	-0.374077
C133	C	0.694139	0.974944	-0.380874
C134	C	0.694144	0.914596	-0.320528
H135	H	0.868654	0.015214	0.009704
H136	H	1.118575	0.371797	0.192175
Cl137	Cl	0.751290	0.758739	-0.495651
Cl138	Cl	0.342387	0.541989	0.153538
H139	H	0.153607	0.702179	0.051699
H140	H	0.196255	0.773432	-0.071200
H141	H	0.659057	0.765035	-0.698358
Cl142	Cl	0.211503	1.081056	0.000077
Cl143	Cl	0.388624	1.012892	0.083513
Cl144	Cl	0.639947	-0.123332	0.083526
Cl145	Cl	1.086432	0.248917	0.465524
H146	H	0.228304	0.999594	-0.066986
H147	H	0.513020	0.890031	0.067148
Cl148	Cl	0.352712	0.876713	-0.083351
Cl149	Cl	0.834973	0.385187	0.329261
Cl150	Cl	1.086182	0.248975	-0.083325
H151	H	1.232241	0.207549	0.423468
Cl152	Cl	0.737338	1.080980	-0.449935
H153	H	1.246553	0.262313	0.301655
H154	H	0.658964	0.890046	-0.326073
Cl155	Cl	0.927184	0.385145	0.329304
Cl156	Cl	0.639953	0.385177	0.162418
Cl157	Cl	0.834855	0.876635	-0.162183
Cl158	Cl	0.834843	1.012836	-0.298372
H159	H	0.815738	0.496817	-0.301440
H160	H	0.356231	0.890050	-0.191967
Cl161	Cl	1.281256	0.248901	0.083543
H162	H	0.153518	0.702185	-0.122770
H163	H	0.658966	0.999533	-0.435551
Cl164	Cl	0.193513	1.012922	-0.298439
H165	H	0.659070	-0.000477	0.067157
H166	H	0.961787	0.371825	-0.066949
Cl167	Cl	0.574104	0.138662	-0.011837
Cl168	Cl	0.639796	0.797777	-0.329067
H169	H	0.815722	0.371827	-0.066960
Cl170	Cl	0.547623	0.876697	-0.329096
H171	H	0.815730	0.262328	-0.066952
H172	H	0.242566	1.054336	-0.423261
H173	H	0.815736	-0.000485	-0.066946
Cl174	Cl	0.388375	1.012955	-0.465316
H175	H	0.737514	0.207599	0.423459
H176	H	0.659104	0.765031	-0.807846
H177	H	0.868648	0.124719	0.009688
H178	H	1.232073	0.207555	0.000100
Cl179	Cl	0.835011	0.248992	0.465478
Cl180	Cl	0.834863	-0.123349	-0.083305
Cl181	Cl	0.574099	0.274889	-0.011843
Cl182	Cl	0.639862	0.797772	-0.465289
Cl183	Cl	0.639946	0.385195	0.083520
Cl184	Cl	0.639947	0.248969	0.083519
Cl185	Cl	1.122094	0.385129	0.083564
Cl186	Cl	0.639996	0.248964	0.298662
H187	H	0.321076	0.559728	-0.051629
H188	H	0.748596	0.733657	-0.605981
Cl189	Cl	0.288784	0.452827	0.089055
H190	H	0.815813	0.496808	-0.564240
Cl191	Cl	0.834988	0.464067	-0.670724
H192	H	0.726189	0.528193	-0.393814
Cl193	Cl	0.723492	0.503114	-0.504136
H194	H	0.815720	0.496810	-0.191940
