data_functionalizedCrystal
_audit_creation_method	'MofGen! by Chris Wilmer'
_symmetry_space_group_name_H-M	'P1'
_symmetry_Int_Tables_number	1
_symmetry_cell_setting	triclinic
loop_
_symmetry_equiv_pos_as_xyz
  x,y,z
_cell_length_a	12.645323
_cell_length_b	12.645331
_cell_length_c	19.805405
_cell_angle_alpha	90.022956
_cell_angle_beta	90.032450
_cell_angle_gamma	90.027592
loop_
_atom_site_label
_atom_site_type_symbol
_atom_site_fract_x
_atom_site_fract_y
_atom_site_fract_z
Zn1	Zn	-0.599529	-1.620667	0.269520
Zn2	Zn	-0.422246	-1.620522	0.382715
Zn3	Zn	-0.422259	-1.443382	0.269538
Zn4	Zn	-0.599446	-1.443336	0.382666
O5	O	-0.510870	-1.531977	0.326110
O6	O	-0.576042	-1.768995	0.284549
O7	O	-0.273900	-1.596982	0.367730
O8	O	-0.445814	-1.466979	0.174819
O9	O	-0.445793	-1.768888	0.367712
O10	O	-0.576054	-1.597230	0.174806
O11	O	-0.273910	-1.466838	0.284579
O12	O	-0.445733	-1.295028	0.284532
O13	O	-0.747805	-1.466902	0.367629
O14	O	-0.575912	-1.294995	0.367646
O15	O	-0.747866	-1.597186	0.284501
O16	O	-0.445712	-1.596938	0.477425
O17	O	-0.575900	-1.466761	0.477389
C18	C	-0.510816	-1.256547	0.326086
C19	C	-0.510818	-1.138717	0.326092
C20	C	-0.429052	-1.093820	0.273722
C21	C	-0.429322	-0.971261	0.273523
C22	C	-0.622715	-0.970892	0.307064
C23	C	-0.622215	-1.093490	0.306677
C24	C	-0.481720	-1.093485	0.397637
C25	C	-0.479285	-0.970877	0.397259
C26	C	-0.787376	-1.532055	0.326057
C27	C	-0.905206	-1.532088	0.326035
C28	C	-1.072731	-1.449874	0.378084
C29	C	-0.950171	-1.450089	0.378342
C30	C	-0.949731	-1.643783	0.345397
C31	C	-1.072329	-1.643332	0.345724
C32	C	-1.072416	-1.503664	0.254333
C33	C	-0.949809	-1.501172	0.254762
C34	C	-0.235440	-1.531960	0.326113
C35	C	-0.117611	-1.532132	0.325945
C36	C	-0.510819	-1.531857	0.501966
C37	C	-0.510832	-1.531903	0.577198
C38	C	-0.510904	-0.808482	0.326124
C39	C	-0.510865	-0.926312	0.326103
C40	C	-0.510945	-1.532125	0.149567
C41	C	-0.510977	-1.532189	0.074335
C42	C	-0.443114	-1.599753	0.612538
C43	C	-0.443138	-1.599798	0.683227
C44	C	-0.510875	-1.531987	0.718573
C45	C	-0.578600	-1.464135	0.683228
C46	C	-0.578581	-1.464096	0.612541
C47	C	-0.578679	-1.464292	0.968301
C48	C	-0.578690	-1.464333	1.038993
C49	C	-0.443235	-1.599993	1.038987
C50	C	-0.443216	-1.599954	0.968300
C51	C	-0.510945	-1.532106	0.932961
C52	C	-0.510920	-1.532060	0.856312
C53	C	-0.510895	-1.532028	0.795220
H54	H	-0.534457	-0.940270	0.438345
C55	C	-0.911269	-1.475293	0.449154
C56	C	-0.998153	-1.490381	0.491875
C57	C	-0.962359	-1.513632	0.557110
H58	H	-0.869558	-1.418258	0.465489
H59	H	-0.869774	-1.537884	0.448093
H60	H	-1.039631	-1.427798	0.492938
H61	H	-1.039874	-1.547420	0.475562
H62	H	-0.920864	-1.576223	0.556049
H63	H	-0.920647	-1.456594	0.573438
H64	H	-1.021303	-1.523882	0.586102
H65	H	-0.920065	-1.367263	0.366225
C66	C	-0.369845	-1.673638	0.929837
C67	C	-0.429930	-1.741510	0.889182
C68	C	-0.362378	-1.809396	0.853734
H69	H	-0.329493	-1.714158	0.960931
H70	H	-0.323624	-1.633124	0.902264
H71	H	-0.476132	-1.782021	0.916753
H72	H	-0.470279	-1.701020	0.858075
H73	H	-0.316157	-1.768882	0.826161
H74	H	-0.322029	-1.849908	0.884833
H75	H	-0.403134	-1.855449	0.826141
C76	C	-0.369843	-1.673648	1.077479
C77	C	-0.384383	-1.659207	1.146949
C78	C	-0.316812	-1.727054	1.182426
H79	H	-0.298547	-1.658249	1.066024
H80	H	-0.385454	-1.744877	1.065882
H81	H	-0.368764	-1.587995	1.158541
H82	H	-0.455665	-1.674614	1.158424
H83	H	-0.332424	-1.798282	1.170829
H84	H	-0.245521	-1.711649	1.170966
H85	H	-0.326675	-1.717272	1.229565
C86	C	-0.652361	-1.390673	1.077249
C87	C	-0.711694	-1.331268	1.031172
C88	C	-0.779575	-1.263415	1.066389
H89	H	-0.611890	-1.344423	1.104868
H90	H	-0.698647	-1.431201	1.104770
H91	H	-0.665413	-1.290743	1.003663
H92	H	-0.752186	-1.377490	1.003553
H93	H	-0.825862	-1.303943	1.093909
H94	H	-0.739096	-1.217172	1.094006
H95	H	-0.819847	-1.223108	1.035131
C96	C	-1.112165	-1.339186	0.361993
C97	C	-1.177496	-1.342865	0.304940
C98	C	-1.213859	-1.240920	0.290101
H99	H	-1.053584	-1.294162	0.353309
H100	H	-1.151115	-1.312566	0.399313
H101	H	-1.138547	-1.369470	0.267628
H102	H	-1.236093	-1.387868	0.313609
H103	H	-1.252810	-1.214300	0.327421
H104	H	-1.155272	-1.195904	0.281420
H105	H	-1.258198	-1.243403	0.251393
C106	C	-0.655029	-1.131885	0.237009
C107	C	-0.654949	-1.242595	0.235924
C108	C	-0.685183	-1.277996	0.171759
H109	H	-0.606616	-1.106022	0.204283
H110	H	-0.724023	-1.106674	0.226951
H111	H	-0.585965	-1.267795	0.245975
H112	H	-0.703364	-1.268485	0.268637
H113	H	-0.754177	-1.252785	0.161700
H114	H	-0.636766	-1.252126	0.139037
H115	H	-0.685142	-1.353115	0.171016
H116	H	-0.647743	-0.940225	0.255353
H117	H	-0.633757	-1.408927	0.712013
C118	C	-1.110267	-1.675471	0.415578
C119	C	-1.022803	-1.695119	0.457090
C120	C	-1.057703	-1.724712	0.521449
H121	H	-1.152098	-1.737667	0.412232
H122	H	-1.151429	-1.620005	0.434428
H123	H	-0.981658	-1.750580	0.438245
H124	H	-0.980962	-1.632937	0.460457
H125	H	-1.098865	-1.669246	0.540299
H126	H	-1.099535	-1.786906	0.518096
H127	H	-0.998365	-1.738037	0.549625
H128	H	-1.101443	-1.563577	0.215487
H129	H	-0.387994	-1.655046	0.711998
H130	H	-0.633824	-1.409046	0.939534
H131	H	-0.396968	-0.941735	0.411621
H132	H	-0.346401	-0.941114	0.285402
H133	H	-0.633725	-1.408848	0.583767
H134	H	-0.920706	-1.418974	0.240161
H135	H	-0.345854	-1.123221	0.285466
C136	C	-0.560966	-1.132261	0.449739
C137	C	-0.508052	-1.190299	0.499563
C138	C	-0.581029	-1.226031	0.547561
H139	H	-0.612060	-1.176039	0.428363
H140	H	-0.595257	-1.073344	0.469888
H141	H	-0.473778	-1.249208	0.479416
H142	H	-0.456964	-1.146544	0.520956
H143	H	-0.615321	-1.167114	0.567710
H144	H	-0.632120	-1.269804	0.526179
H145	H	-0.545137	-1.265405	0.581375
H146	H	-1.102021	-1.706698	0.309396
C147	C	-0.454461	-1.134717	0.203378
C148	C	-0.475166	-1.049172	0.160509
C149	C	-0.498570	-1.086804	0.095703
H150	H	-0.514843	-1.179322	0.205326
H151	H	-0.395893	-1.173655	0.186543
H152	H	-0.533728	-1.010251	0.177339
H153	H	-0.414797	-1.004559	0.158541
H154	H	-0.440002	-1.125742	0.078868
H155	H	-0.558951	-1.131409	0.097658
H156	H	-0.512612	-1.028768	0.066606
H157	H	-0.387951	-1.654967	0.583764
C158	C	-0.909075	-1.575077	0.200119
C159	C	-0.950762	-1.544581	0.137585
C160	C	-0.913250	-1.612637	0.087232
H161	H	-0.930351	-1.645457	0.209947
H162	H	-0.834068	-1.571533	0.198546
H163	H	-1.025753	-1.548136	0.139158
H164	H	-0.929491	-1.474212	0.127735
H165	H	-0.838243	-1.609093	0.085660
H166	H	-0.934528	-1.683013	0.097066
H167	H	-0.941521	-1.591950	0.044796
C168	C	-0.910845	-1.727839	0.296481
C169	C	-0.853259	-1.804386	0.331914
C170	C	-0.817431	-1.881840	0.286876
H171	H	-0.866754	-1.696042	0.263396
H172	H	-0.969706	-1.760268	0.274985
H173	H	-0.794407	-1.771961	0.353399
H174	H	-0.897329	-1.836211	0.364996
H175	H	-0.876292	-1.914268	0.265380
H176	H	-0.773344	-1.850033	0.253794
H177	H	-0.778364	-1.933791	0.310912
H178	H	-0.448642	-0.941964	0.220512
C179	C	-0.706353	-1.132901	0.355348
C180	C	-0.757410	-1.046322	0.384974
C181	C	-0.834938	-1.082581	0.429799
H182	H	-0.674144	-1.174585	0.389533
H183	H	-0.756533	-1.174531	0.331468
H184	H	-0.707238	-1.004709	0.408853
H185	H	-0.789641	-1.004630	0.350806
H186	H	-0.885119	-1.124212	0.405919
H187	H	-0.802721	-1.124265	0.463980
H188	H	-0.869597	-1.023844	0.449901
H189	H	-0.685325	-0.941784	0.344045
H190	H	-0.401520	-1.124346	0.415025
H191	H	-1.103541	-1.468482	0.430841
H192	H	-0.919034	-1.668329	0.397198
H193	H	-1.103317	-1.423635	0.236685
