data_functionalizedCrystal
_audit_creation_method	'MofGen! by Chris Wilmer'
_symmetry_space_group_name_H-M	'P1'
_symmetry_Int_Tables_number	1
_symmetry_cell_setting	triclinic
loop_
_symmetry_equiv_pos_as_xyz
  x,y,z
_cell_length_a	21.395362
_cell_length_b	14.908520
_cell_length_c	21.395356
_cell_angle_alpha	93.272765
_cell_angle_beta	89.964230
_cell_angle_gamma	93.337688
loop_
_atom_site_label
_atom_site_type_symbol
_atom_site_fract_x
_atom_site_fract_y
_atom_site_fract_z
Zn1	Zn	0.943463	-0.358826	-0.368962
Zn2	Zn	1.276797	-0.025492	-0.035629
Zn3	Zn	1.610130	0.307841	0.297704
Zn4	Zn	0.937350	-0.509688	-0.270229
Zn5	Zn	1.270683	-0.176355	0.063104
Zn6	Zn	1.604016	0.156979	0.396437
Zn7	Zn	0.838691	-0.358886	-0.264166
Zn8	Zn	1.172024	-0.025553	0.069167
Zn9	Zn	1.505358	0.307780	0.402501
Zn10	Zn	0.832616	-0.509688	-0.374934
Zn11	Zn	1.165950	-0.176355	-0.041601
Zn12	Zn	1.499283	0.156979	0.291733
O13	O	0.888030	-0.434272	-0.319573
O14	O	1.221363	-0.100939	0.013760
O15	O	1.554697	0.232395	0.347094
O16	O	1.030331	-0.378813	-0.355904
O17	O	1.363665	-0.045479	-0.022570
O18	O	1.696998	0.287854	0.310763
O19	O	0.924246	-0.489709	-0.181748
O20	O	1.257579	-0.156376	0.151585
O21	O	1.590912	0.176957	0.484919
O22	O	0.857690	-0.232631	-0.273031
O23	O	1.191023	0.100703	0.060303
O24	O	1.524357	0.434036	0.393636
O25	O	1.025839	-0.489651	-0.283365
O26	O	1.359173	-0.156317	0.049969
O27	O	1.692506	0.177016	0.383302
O28	O	0.934666	-0.232586	-0.350024
O29	O	1.267999	0.100747	-0.016691
O30	O	1.601333	0.434080	0.316642
O31	O	0.851762	-0.378916	-0.177293
O32	O	1.185095	-0.045583	0.156040
O33	O	1.518428	0.287751	0.489373
O34	O	0.750206	-0.378916	-0.278821
O35	O	1.083539	-0.045583	0.054512
O36	O	1.416873	0.287751	0.387845
O37	O	0.847337	-0.489650	-0.461819
O38	O	1.180670	-0.156317	-0.128485
O39	O	1.514003	0.177016	0.204848
O40	O	0.745743	-0.489709	-0.360202
O41	O	1.079076	-0.156376	-0.026869
O42	O	1.412410	0.176957	0.306465
O43	O	0.928776	-0.378812	-0.457431
O44	O	1.262109	-0.045479	-0.124098
O45	O	1.595442	0.287854	0.209235
O46	O	0.918355	-0.635936	-0.289155
O47	O	1.251689	-0.302602	0.044178
O48	O	1.585022	0.030731	0.377511
O49	O	0.841408	-0.635936	-0.366081
O50	O	1.174742	-0.302602	-0.032748
O51	O	1.508075	0.030731	0.300585
C52	C	0.725240	-0.434320	-0.319502
C53	C	1.058574	-0.100986	0.013831
C54	C	1.391907	0.232347	0.347165
C55	C	0.655597	-0.434362	-0.319488
C56	C	0.988931	-0.101029	0.013846
C57	C	1.322264	0.232305	0.347179
C58	C	0.620574	-0.492128	-0.361806
C59	C	0.953907	-0.158795	-0.028472
C60	C	1.287240	0.174538	0.304861
C61	C	0.555139	-0.492106	-0.361833
C62	C	0.888473	-0.158773	-0.028499
C63	C	1.221806	0.174560	0.304834
C64	C	0.524731	-0.434327	-0.319531
C65	C	0.858064	-0.100994	0.013802
C66	C	1.191397	0.232340	0.347136
C67	C	0.559763	-0.376549	-0.277210
C68	C	0.893096	-0.043216	0.056124
C69	C	1.226429	0.290117	0.389457
C70	C	0.625196	-0.376567	-0.277188
C71	C	0.958529	-0.043233	0.056145
C72	C	1.291863	0.290100	0.389479
C73	C	0.421304	-0.427069	-0.262835
C74	C	0.754637	-0.093736	0.070498
C75	C	1.087971	0.239597	0.403832
C76	C	0.355872	-0.427058	-0.262856
C77	C	0.689205	-0.093725	0.070478
C78	C	1.022538	0.239608	0.403811
C79	C	0.322912	-0.434268	-0.319598
C80	C	0.656246	-0.100935	0.013736
C81	C	0.989579	0.232398	0.347069
C82	C	0.355393	-0.441508	-0.376321
C83	C	0.688726	-0.108175	-0.042988
C84	C	1.022059	0.225158	0.290345
C85	C	0.420826	-0.441526	-0.376300
C86	C	0.754160	-0.108192	-0.042966
C87	C	1.087493	0.225141	0.290367
C88	C	0.453779	-0.434301	-0.319550
C89	C	0.787113	-0.100968	0.013783
C90	C	1.120446	0.232365	0.347117
C91	C	0.216937	-0.492014	-0.361949
C92	C	0.550270	-0.158681	-0.028615
C93	C	0.883604	0.174653	0.304718
C94	C	0.151501	-0.491986	-0.361976
C95	C	0.484835	-0.158652	-0.028643
C96	C	0.818168	0.174681	0.304690
C97	C	0.156126	-0.376433	-0.277348
C98	C	0.489459	-0.043100	0.055985
C99	C	0.822792	0.290233	0.389319
C100	C	0.221560	-0.376457	-0.277325
C101	C	0.554894	-0.043124	0.056008
C102	C	0.888227	0.290210	0.389341
C103	C	0.251962	-0.434252	-0.319625
C104	C	0.585295	-0.100919	0.013708
C105	C	0.918628	0.232415	0.347042
C106	C	0.878576	-0.668670	-0.328938
C107	C	1.211910	-0.335337	0.004395
C108	C	1.545243	-0.002004	0.337729
C109	C	0.874589	-0.768947	-0.332965
C110	C	1.207923	-0.435613	0.000368
C111	C	1.541256	-0.102280	0.333701
C112	C	0.947305	-0.957316	-0.260495
C113	C	1.280638	-0.623982	0.072839
C114	C	1.613971	-0.290649	0.406172
C115	C	0.943561	-1.051534	-0.264277
C116	C	1.276894	-0.718201	0.069057
C117	C	1.610227	-0.384868	0.402390
C118	C	0.863361	-1.051604	-0.344314
C119	C	1.196694	-0.718271	-0.010981
C120	C	1.530027	-0.384938	0.322352
C121	C	0.867105	-0.957386	-0.340532
C122	C	1.200438	-0.624052	-0.007199
C123	C	1.533771	-0.290719	0.326134
C124	C	0.909077	-0.910245	-0.298620
C125	C	1.242411	-0.576911	0.034713
C126	C	1.575744	-0.243578	0.368046
C127	C	0.912818	-0.816024	-0.294836
C128	C	1.246151	-0.482691	0.038498
C129	C	1.579485	-0.149358	0.371831
C130	C	0.832622	-0.816096	-0.374876
C131	C	1.165955	-0.482763	-0.041542
C132	C	1.499288	-0.149429	0.291791
C133	C	0.828878	-0.910315	-0.378658
C134	C	1.162211	-0.576981	-0.045325
C135	C	1.495544	-0.243648	0.288009
C136	C	1.051455	-0.434225	-0.319644
C137	C	1.384789	-0.100891	0.013689
C138	C	1.718122	0.232442	0.347022
C139	C	1.121097	-0.434205	-0.319675
C140	C	1.454431	-0.100871	0.013659
C141	C	1.787764	0.232462	0.346992
C142	C	0.888061	-0.434225	-0.482994
C143	C	1.221394	-0.100891	-0.149661
C144	C	1.554727	0.232442	0.183672
C145	C	0.888074	-0.434204	-0.552635
C146	C	1.221407	-0.100871	-0.219302
C147	C	1.554740	0.232462	0.114032
C148	C	0.897538	-0.198959	-0.310185
C149	C	1.230871	0.134375	0.023148
C150	C	1.564204	0.467708	0.356482
C151	C	0.901589	-0.098682	-0.306184
C152	C	1.234923	0.234651	0.027149
C153	C	1.568256	0.567985	0.360482
C154	C	0.925894	-0.491705	-1.056744
C155	C	1.259227	-0.158372	-0.723410
C156	C	1.592561	0.174961	-0.390077
C157	C	0.925882	-0.491734	-0.991309
C158	C	1.259215	-0.158401	-0.657976
C159	C	1.592548	0.174933	-0.324643
C160	C	0.888139	-0.434061	-0.956268
C161	C	1.221472	-0.100728	-0.622934
C162	C	1.554806	0.232605	-0.289601
C163	C	0.850394	-0.376372	-0.986666
C164	C	1.183728	-0.043039	-0.653333
C165	C	1.517061	0.290295	-0.319999
C166	C	0.850403	-0.376352	-1.052099
C167	C	1.183736	-0.043018	-0.718766
C168	C	1.517070	0.290315	-0.385433
C169	C	0.886462	-0.352814	-0.849356
C170	C	1.219795	-0.019481	-0.516022
C171	C	1.553128	0.313853	-0.182689
C172	C	0.886457	-0.352833	-0.783923
C173	C	1.219791	-0.019500	-0.450590
C174	C	1.553124	0.313834	-0.117257
C175	C	0.888108	-0.434125	-0.754449
C176	C	1.221442	-0.100792	-0.421116
C177	C	1.554775	0.232541	-0.087783
C178	C	0.889777	-0.515401	-0.790416
C179	C	1.223110	-0.182068	-0.457082
C180	C	1.556443	0.151266	-0.123749
C181	C	0.889785	-0.515381	-0.855849
C182	C	1.223119	-0.182047	-0.522516
C183	C	1.556452	0.151286	-0.189183
C184	C	0.888125	-0.434078	-0.885316
C185	C	1.221458	-0.100744	-0.551983
C186	C	1.554792	0.232589	-0.218649
C187	C	0.925834	-0.491846	-0.653108
C188	C	1.259168	-0.158513	-0.319774
C189	C	1.592501	0.174820	0.013559
C190	C	0.925817	-0.491877	-0.587672
C191	C	1.259151	-0.158543	-0.254339
C192	C	1.592484	0.174790	0.078995
C193	C	0.850334	-0.376507	-0.583030
C194	C	1.183667	-0.043173	-0.249696
C195	C	1.517000	0.290160	0.083637
C196	C	0.850347	-0.376485	-0.648464
C197	C	1.183680	-0.043151	-0.315131
C198	C	1.517013	0.290182	0.018203
C199	C	0.888100	-0.434153	-0.683499
C200	C	1.221434	-0.100820	-0.350166
C201	C	1.554767	0.232513	-0.016832
C202	C	0.888038	-0.434254	-0.156785
C203	C	1.221372	-0.100921	0.176549
C204	C	1.554705	0.232412	0.509882
C205	C	0.888157	-0.434020	-0.087134
C206	C	1.221490	-0.100687	0.246199
C207	C	1.554823	0.232646	0.579532
H208	H	0.328559	-0.447378	-0.422526
H209	H	0.661892	-0.114044	-0.089193
H210	H	0.995225	0.219289	0.244140
Br211	Br	0.771921	-0.974300	-0.435539
Br212	Br	1.105254	-0.640966	-0.102205
Br213	Br	1.438588	-0.307633	0.231128
Br214	Br	0.977124	-0.569979	-1.104289
Br215	Br	1.310458	-0.236645	-0.770956
Br216	Br	1.643791	0.096688	-0.437622
Br217	Br	0.269096	-0.298055	-0.219890
Br218	Br	0.602429	0.035278	0.113443
Br219	Br	0.935762	0.368611	0.446776
Br220	Br	0.672732	-0.298161	-0.219753
Br221	Br	1.006065	0.035172	0.113580
Br222	Br	1.339398	0.368506	0.446914
Br223	Br	0.969776	-0.752047	-0.237952
Br224	Br	1.303109	-0.418714	0.095381
Br225	Br	1.636442	-0.085381	0.428714
H226	H	0.645322	-0.539189	-0.396250
H227	H	0.978656	-0.205855	-0.062917
H228	H	1.311989	0.127478	0.270416
H229	H	0.241691	-0.539070	-0.396394
H230	H	0.575025	-0.205736	-0.063061
H231	H	0.908358	0.127597	0.270272
Br232	Br	0.780728	-0.752209	-0.426610
Br233	Br	1.114061	-0.418876	-0.093277
Br234	Br	1.447394	-0.085543	0.240056
H235	H	0.981476	-0.918933	-0.226364
H236	H	1.314809	-0.585600	0.106969
H237	H	1.648143	-0.252266	0.440303
Br238	Br	0.892046	-0.625677	-0.904659
Br239	Br	1.225379	-0.292344	-0.571326
Br240	Br	1.558713	0.040990	-0.237992
H241	H	0.819601	-0.329551	-0.554499
H242	H	1.152935	0.003783	-0.221166
H243	H	1.486268	0.337116	0.112167
H244	H	0.829193	-1.090003	-0.378441
H245	H	1.162526	-0.756670	-0.045108
H246	H	1.495859	-0.423336	0.288226
Br247	Br	0.977098	-0.570029	-0.950055
Br248	Br	1.310431	-0.236696	-0.616722
Br249	Br	1.643765	0.096637	-0.283389
H250	H	0.956574	-0.538806	-0.681635
H251	H	1.289907	-0.205473	-0.348301
H252	H	1.623241	0.127861	-0.014968
H253	H	0.974690	-1.089856	-0.233232
H254	H	1.308024	-0.756523	0.100101
H255	H	1.641357	-0.423190	0.433435
H256	H	0.526618	-0.539146	-0.396295
H257	H	0.859951	-0.205813	-0.062962
H258	H	1.193284	0.127520	0.270371
H259	H	0.447269	-0.447418	-0.422486
H260	H	0.780603	-0.114085	-0.089153
H261	H	1.113936	0.219249	0.244181
Br262	Br	0.884570	-0.242436	-0.889347
Br263	Br	1.217903	0.090898	-0.556013
Br264	Br	1.551236	0.424231	-0.222680
Br265	Br	0.892022	-0.625734	-0.750425
Br266	Br	1.225355	-0.292401	-0.417091
Br267	Br	1.558689	0.040932	-0.083758
H268	H	0.122986	-0.539024	-0.396441
H269	H	0.456319	-0.205691	-0.063107
H270	H	0.789653	0.127642	0.270226
H271	H	0.956544	-0.538859	-0.562930
H272	H	1.289877	-0.205526	-0.229596
H273	H	1.623211	0.127807	0.103737
H274	H	0.819619	-0.329508	-0.673208
H275	H	1.152953	0.003826	-0.339875
H276	H	1.486286	0.337159	-0.006541
Br277	Br	0.799172	-0.298101	-0.939111
Br278	Br	1.132505	0.035232	-0.605778
Br279	Br	1.465838	0.368565	-0.272445
Br280	Br	0.884201	-0.242532	-0.735118
Br281	Br	1.217535	0.090802	-0.401785
Br282	Br	1.550868	0.424135	-0.068452
Br283	Br	0.799178	-0.298066	-1.093347
Br284	Br	1.132511	0.035267	-0.760014
Br285	Br	1.465845	0.368600	-0.426681
H286	H	0.131368	-0.329384	-0.242908
H287	H	0.464701	0.003949	0.090426
H288	H	0.798035	0.337283	0.423759
Br289	Br	0.311797	-0.417235	-0.185875
Br290	Br	0.645131	-0.083901	0.147458
Br291	Br	0.978464	0.249432	0.480792
H292	H	0.448134	-0.421194	-0.216625
H293	H	0.781468	-0.087861	0.116708
H294	H	1.114801	0.245472	0.450041
Br295	Br	0.518496	-0.298127	-0.219804
Br296	Br	0.851829	0.035207	0.113529
Br297	Br	1.185163	0.368540	0.446862
