data_functionalizedCrystal
_audit_creation_method	'MofGen! by Chris Wilmer'
_symmetry_space_group_name_H-M	'P1'
_symmetry_Int_Tables_number	1
_symmetry_cell_setting	triclinic
loop_
_symmetry_equiv_pos_as_xyz
  x,y,z
_cell_length_a	14.395555
_cell_length_b	14.446369
_cell_length_c	14.446369
_cell_angle_alpha	59.995450
_cell_angle_beta	90.001219
_cell_angle_gamma	60.000723
loop_
_atom_site_label
_atom_site_type_symbol
_atom_site_fract_x
_atom_site_fract_y
_atom_site_fract_z
Zr1	Zr	0.894921	1.013208	-0.121479
O2	O	0.746590	1.206342	-0.269305
O3	O	0.940391	0.820084	-0.076156
O4	O	0.940390	1.013214	-0.269286
O5	O	0.746594	1.013204	0.076162
O6	O	1.093264	1.013207	-0.269278
O7	O	0.746592	1.013212	-0.076175
O8	O	1.093267	0.667733	0.076196
O9	O	0.746591	1.358678	-0.269312
O10	O	1.073874	0.899510	-0.056828
O11	O	0.959787	0.899509	0.056853
O12	O	0.959785	1.126894	-0.170532
O13	O	0.845699	1.126893	-0.056851
Zr14	Zr	1.138742	1.013184	0.121494
Zr15	Zr	1.138738	1.013197	-0.121466
Zr16	Zr	0.894926	1.013195	0.121481
Zr17	Zr	0.894923	1.256166	-0.121490
Zr18	Zr	1.138740	0.770226	0.121505
O19	O	1.093272	1.206308	0.076171
O20	O	1.093265	1.206326	-0.269287
O21	O	0.746596	1.206323	0.076153
O22	O	1.287073	0.820050	0.269320
O23	O	1.287067	0.820069	-0.076138
O24	O	0.940398	0.820065	0.269302
O25	O	1.287069	1.013188	-0.076147
O26	O	1.093274	1.013178	0.269301
O27	O	0.940399	1.013185	0.269293
O28	O	1.287072	1.013180	0.076190
O29	O	0.940393	1.358669	-0.269302
O30	O	1.093270	0.667723	0.269317
O31	O	1.287072	0.667714	0.269327
O32	O	1.287069	0.667725	0.076206
O33	O	0.746595	1.358667	-0.076191
O34	O	0.940396	1.358658	-0.076181
O35	O	1.073878	0.899498	0.170547
O36	O	1.187964	0.899499	0.056865
O37	O	1.073876	1.126883	-0.056839
O38	O	0.959790	1.126882	0.056843
C39	C	1.016829	0.709293	0.000021
C40	C	1.016828	0.606151	0.000026
C41	C	0.945218	0.459140	0.072053
C42	C	0.944829	0.566760	0.071762
C43	C	0.964335	0.655156	-0.123518
C44	C	0.963797	0.547923	-0.123144
C45	C	1.140981	0.372684	0.050480
C46	C	1.140799	0.478835	0.053001
C47	C	0.711854	1.013210	-0.000009
C48	C	0.608348	1.013214	-0.000014
C49	C	0.485553	1.137194	-0.062001
C50	C	0.454716	1.075220	-0.106916
C51	C	0.454761	1.075183	0.044893
C52	C	0.578874	0.951240	-0.044992
C53	C	0.578916	0.951220	0.106876
C54	C	0.548153	0.889156	0.061988
C55	C	1.321809	1.013182	0.000024
C56	C	1.425315	1.013178	0.000029
C57	C	1.016826	1.013213	-0.303899
C58	C	1.016824	1.013218	-0.407042
C59	C	1.016834	1.317099	-0.000007
C60	C	1.016835	1.420241	-0.000011
C61	C	0.944521	1.156614	-0.625421
C62	C	0.944827	1.156711	-0.518189
C63	C	1.140793	0.941981	-0.410355
C64	C	1.140404	0.942891	-0.518124
C65	C	0.966185	0.939946	-0.516770
C66	C	0.963668	0.942649	-0.410801
C67	C	1.016837	1.013179	0.303913
C68	C	1.016839	1.013174	0.407056
C69	C	1.321806	0.709279	0.000038
C70	C	1.425312	0.606132	0.000048
C71	C	1.016834	0.709276	0.303927
C72	C	1.016835	0.606128	0.407075
C73	C	1.321812	0.709262	0.303944
C74	C	1.425319	0.606110	0.407097
C75	C	0.711851	1.317130	-0.303929
C76	C	0.608344	1.420282	-0.407082
C77	C	0.711857	1.317113	-0.000023
C78	C	0.608351	1.420260	-0.000033
C79	C	1.016829	1.317116	-0.303913
C80	C	1.016828	1.420264	-0.407060
C81	C	1.644450	0.459805	0.071394
C82	C	1.536841	0.566733	0.071794
C83	C	1.428652	0.479270	0.052353
C84	C	1.536800	0.371889	0.052877
C85	C	1.535420	0.546877	-0.123692
C86	C	1.429078	0.655354	-0.123498
C87	C	0.944532	0.459809	0.482065
C88	C	0.944837	0.566741	0.374725
C89	C	1.140804	0.479262	0.481645
C90	C	1.140416	0.371875	0.588515
C91	C	0.966199	0.546855	0.590084
C92	C	0.963681	0.655337	0.481401
C93	C	1.500573	0.459752	0.625476
C94	C	1.392859	0.566707	0.518234
C95	C	1.500124	0.479257	0.410418
C96	C	1.607367	0.371848	0.518197
C97	C	1.608988	0.546793	0.516850
C98	C	1.499927	0.655296	0.410871
H99	H	0.873854	0.747470	-0.164214
Cl100	Cl	1.492891	0.508613	-0.206183
Cl101	Cl	0.661547	0.870385	0.246384
Cl102	Cl	0.661231	0.870438	-0.103795
H103	H	1.018608	0.834277	-0.489314
H104	H	0.853000	1.212911	-0.679380
Cl105	Cl	0.998253	1.243111	-0.710314
Cl106	Cl	1.539294	0.704729	0.017551
H107	H	0.979340	0.370141	0.481035
Cl108	Cl	1.308780	0.704651	0.520733
Cl109	Cl	0.803897	0.704704	0.290913
H110	H	0.876292	0.586431	0.594194
H111	H	1.448321	0.440719	0.408270
Cl112	Cl	1.230128	0.512026	-0.019608
Cl113	Cl	1.227608	0.513595	0.523695
Cl114	Cl	0.587655	0.727210	0.142861
Cl115	Cl	0.372155	1.156111	0.103504
Cl116	Cl	1.496971	0.517214	0.708806
Cl117	Cl	0.803230	0.517307	0.478446
H118	H	0.853539	1.212616	-0.519820
H119	H	0.979961	1.212953	-0.520643
H120	H	1.539309	0.529260	0.163052
Cl121	Cl	1.429868	0.795077	-0.183834
Cl122	Cl	1.201351	0.417679	0.193524
Cl123	Cl	1.203007	1.021050	-0.595859
Cl124	Cl	1.498954	0.321320	0.710367
Cl125	Cl	1.228123	0.780413	-0.476968
Cl126	Cl	1.203852	0.419726	0.401975
Cl127	Cl	1.614814	0.231756	0.193426
Cl128	Cl	1.309495	0.508897	0.522000
Cl129	Cl	1.223751	0.332584	-0.030172
H130	H	1.181630	0.991451	-0.408214
Cl131	Cl	0.822661	0.795036	0.402013
Cl132	Cl	1.228137	0.325598	0.709851
Cl133	Cl	0.999079	0.508907	0.291676
Cl134	Cl	1.203017	0.231754	0.588102
Cl135	Cl	1.227596	0.779087	-0.289505
H136	H	1.510051	0.341938	0.004247
Cl137	Cl	1.606928	0.231735	0.595923
Cl138	Cl	0.827381	1.010814	-0.594010
H139	H	0.460109	1.242031	-0.114501
Cl140	Cl	1.036544	0.704944	0.520804
Cl141	Cl	0.822663	1.022834	-0.411605
Cl142	Cl	1.729122	0.325581	0.477061
Cl143	Cl	1.542315	0.513609	0.289578
H144	H	0.980244	0.370266	0.163253
Cl145	Cl	0.372083	1.156123	-0.246451
Cl146	Cl	1.728051	0.517305	0.017509
Cl147	Cl	1.047123	0.508568	0.710862
Cl148	Cl	1.307385	0.513619	-0.024039
Cl149	Cl	1.036535	0.781016	-0.288575
Cl150	Cl	1.729628	0.321362	0.211447
H151	H	1.426512	0.440706	0.142522
H152	H	1.585613	0.586450	-0.167382
Cl153	Cl	1.615390	0.607860	0.594090
Cl154	Cl	1.039140	0.513990	-0.210533
Cl155	Cl	1.420281	0.794999	0.411680
Cl156	Cl	1.306434	0.704959	-0.212516
H157	H	1.525542	0.687426	0.331714
Cl158	Cl	1.730174	0.508511	0.474481
H159	H	0.980041	0.530043	0.162736
H160	H	0.854185	0.494909	0.037342
H161	H	0.853256	0.655567	0.036758
H162	H	0.872443	0.588627	-0.163565
Cl163	Cl	1.040956	0.699675	-0.210025
Cl164	Cl	1.208670	0.227982	0.188802
