data_functionalizedCrystal
_audit_creation_method	'MofGen! by Chris Wilmer'
_symmetry_space_group_name_H-M	'P1'
_symmetry_Int_Tables_number	1
_symmetry_cell_setting	triclinic
loop_
_symmetry_equiv_pos_as_xyz
  x,y,z
_cell_length_a	18.627263
_cell_length_b	18.627226
_cell_length_c	18.627297
_cell_angle_alpha	120.004257
_cell_angle_beta	89.999758
_cell_angle_gamma	60.000314
loop_
_atom_site_label
_atom_site_type_symbol
_atom_site_fract_x
_atom_site_fract_y
_atom_site_fract_z
O1	O	-0.492472	-0.633254	-0.021364
O2	O	-0.388078	-0.486243	0.021251
O3	O	-0.388073	-0.633252	-0.125763
O4	O	-0.492476	-0.486246	0.125650
O5	O	-0.507480	-0.513842	-0.125750
O6	O	-0.507484	-0.366834	0.021264
O7	O	-0.611878	-0.513845	-0.021351
Cu8	Cu	-0.570584	-0.429436	-0.000042
Cu9	Cu	-0.429372	-0.570652	-0.000058
O10	O	-0.611883	-0.366836	0.125663
C11	C	-0.386972	-0.226052	0.030933
C12	C	-0.431269	-0.137457	0.024830
C13	C	-0.430378	-0.269043	0.031546
C14	C	-0.256974	-0.356049	0.030940
C15	C	-0.162277	-0.406446	0.024843
C16	C	-0.300578	-0.398842	0.031553
C17	C	-0.386977	-0.356045	0.030945
C18	C	-0.431279	-0.406439	0.024854
C19	C	-0.300573	-0.269046	0.031541
C20	C	-0.386972	-0.644049	-0.387063
C21	C	-0.431273	-0.593650	-0.431359
C22	C	-0.300570	-0.731061	-0.430476
C23	C	-0.386972	-0.644049	-0.257062
C24	C	-0.431274	-0.593649	-0.162360
C25	C	-0.300570	-0.731060	-0.300672
C26	C	-0.256967	-0.774057	-0.387075
C27	C	-0.162267	-0.862663	-0.431384
C28	C	-0.430378	-0.601250	-0.300660
C29	C	-0.612967	-0.774064	-0.031073
C30	C	-0.568663	-0.862671	-0.024986
C31	C	-0.699367	-0.731067	-0.031676
C32	C	-0.612973	-0.644053	-0.031059
C33	C	-0.568675	-0.593652	-0.024958
C34	C	-0.699373	-0.601254	-0.031662
C35	C	-0.742973	-0.644055	-0.031059
C36	C	-0.837671	-0.593656	-0.024957
C37	C	-0.569565	-0.731065	-0.031676
O38	O	0.125729	-0.513858	-0.021361
O39	O	-0.125673	-0.366850	0.021239
O40	O	0.021337	-0.513878	-0.125769
O41	O	-0.021281	-0.366830	0.125647
O42	O	0.021332	-0.633272	-0.125758
O43	O	-0.125678	-0.486244	0.021250
O44	O	0.125723	-0.633252	-0.021351
Cu45	Cu	0.000022	-0.570650	-0.000049
Cu46	Cu	0.000028	-0.429452	-0.000062
O47	O	-0.021286	-0.486224	0.125658
O48	O	-0.611861	0.104325	-0.021388
O49	O	-0.507471	-0.104455	0.021231
O50	O	-0.507458	-0.104488	-0.125785
O51	O	-0.611874	0.104358	0.125627
O52	O	-0.388054	-0.104491	-0.125790
O53	O	-0.388067	-0.104458	0.021226
O54	O	-0.492458	0.104323	-0.021393
Cu55	Cu	-0.429360	-0.000068	-0.000084
Cu56	Cu	-0.570569	-0.000065	-0.000078
O57	O	-0.492471	0.104355	0.125623
O58	O	0.125740	-1.104478	-0.492601
O59	O	-0.125666	-0.895666	-0.388186
O60	O	0.021333	-0.895665	-0.388184
O61	O	-0.021259	-1.104480	-0.492604
O62	O	0.021336	-0.895668	-0.507587
O63	O	-0.125662	-0.895670	-0.507590
O64	O	0.125743	-1.104481	-0.612004
Cu65	Cu	0.000041	-1.000076	-0.570700
Cu66	Cu	0.000036	-1.000072	-0.429491
O67	O	-0.021255	-1.104483	-0.612007
O68	O	-0.492482	-0.486240	-0.611947
O69	O	-0.388073	-0.633252	-0.507566
O70	O	-0.388080	-0.486241	-0.507549
O71	O	-0.492474	-0.633251	-0.611964
O72	O	-0.507485	-0.366833	-0.388135
O73	O	-0.507478	-0.513845	-0.388151
O74	O	-0.611886	-0.366832	-0.492533
Cu75	Cu	-0.570585	-0.429436	-0.429438
Cu76	Cu	-0.429375	-0.570649	-0.570660
O77	O	-0.611879	-0.513844	-0.492549
C78	C	-0.742991	-0.226029	0.386974
C79	C	-0.837691	-0.137423	0.431282
C80	C	-0.699388	-0.269025	0.430375
C81	C	-0.612985	-0.356038	0.256962
C82	C	-0.568682	-0.406439	0.162260
C83	C	-0.569580	-0.398837	0.300561
C84	C	-0.612987	-0.356036	0.386964
C85	C	-0.568686	-0.406435	0.431260
C86	C	-0.699387	-0.269027	0.300571
C87	C	0.031017	-0.774100	-0.387066
C88	C	0.024915	-0.862701	-0.431360
C89	C	0.031625	-0.731114	-0.430477
C90	C	0.031024	-0.644088	-0.257067
C91	C	0.024932	-0.593680	-0.162367
C92	C	0.031633	-0.601300	-0.300676
C93	C	0.031022	-0.644107	-0.387077
C94	C	0.024926	-0.593719	-0.431384
C95	C	0.031627	-0.731095	-0.300664
C96	C	-0.030971	-0.355995	0.386966
C97	C	-0.024876	-0.406382	0.431273
C98	C	-0.031574	-0.268988	0.430366
C99	C	-0.030974	-0.356014	0.256956
C100	C	-0.024881	-0.406422	0.162255
C101	C	-0.031576	-0.269007	0.300553
C102	C	-0.030965	-0.226002	0.386954
C103	C	-0.024863	-0.137402	0.431249
C104	C	-0.031582	-0.398802	0.300565
C105	C	-0.256934	-0.356141	-0.387100
C106	C	-0.162233	-0.406545	-0.431403
C107	C	-0.300533	-0.398945	-0.430504
C108	C	-0.386944	-0.226117	-0.257092
C109	C	-0.431252	-0.137499	-0.162391
C110	C	-0.430346	-0.269118	-0.300695
C111	C	-0.386935	-0.356140	-0.387097
C112	C	-0.431233	-0.406544	-0.431397
C113	C	-0.300542	-0.269119	-0.300697
O114	O	-0.021314	-0.366913	-0.492588
O115	O	0.021311	-0.513904	-0.388181
O116	O	-0.125701	-0.366928	-0.388190
O117	O	0.125699	-0.513889	-0.492578
O118	O	-0.125670	-0.486364	-0.507605
O119	O	0.021343	-0.633340	-0.507596
O120	O	-0.021282	-0.486349	-0.612002
Cu121	Cu	0.000033	-0.570750	-0.570702
Cu122	Cu	-0.000004	-0.429503	-0.429481
O123	O	0.125730	-0.633325	-0.611993
C124	C	-0.612996	0.356008	0.386935
C125	C	-0.568699	0.406412	0.431236
C126	C	-0.699398	0.398812	0.430342
C127	C	-0.612985	0.225984	0.256930
C128	C	-0.568677	0.137366	0.162229
C129	C	-0.699388	0.268986	0.300534
C130	C	-0.742997	0.356007	0.386937
C131	C	-0.837697	0.406411	0.431239
C132	C	-0.569585	0.268986	0.300533
H133	H	-0.501371	-0.233048	0.032535
H134	H	-0.265534	-0.233135	-0.265694
H135	H	-0.265572	-0.233058	0.032521
C136	C	-0.526251	-0.220499	-0.253399
N137	N	-0.598485	-0.183880	-0.217779
C138	C	-0.526284	-0.506665	-0.253363
N139	N	-0.598520	-0.435429	-0.217739
C140	C	-0.253277	-0.779671	-0.253384
N141	N	-0.217656	-0.816284	-0.217769
H142	H	-0.032555	-0.232995	0.501359
C143	C	-0.473663	-0.779677	-0.032998
N144	N	-0.401431	-0.816288	-0.033993
H145	H	-0.265567	-0.767045	-0.501469
C146	C	0.032956	-0.779747	-0.526387
N147	N	0.033962	-0.816377	-0.598625
C148	C	-0.032877	-0.220418	0.253248
N149	N	-0.033851	-0.183825	0.217618
C150	C	-0.746682	-0.220409	0.526282
N151	N	-0.782302	-0.183795	0.598516
H152	H	-0.265514	-0.468978	-0.501492
C153	C	-0.746667	-0.506668	-0.032976
N154	N	-0.782287	-0.435430	-0.033968
C155	C	-0.746679	-0.220414	0.253284
N156	N	-0.782297	-0.183801	0.217668
C157	C	-0.746667	-0.779661	-0.032966
N158	N	-0.782297	-0.816250	-0.033925
C159	C	-0.746672	0.220361	0.253244
N160	N	-0.782285	0.183737	0.217629
C161	C	-0.473674	-0.493423	0.253262
N162	N	-0.401440	-0.564661	0.217639
C163	C	0.032959	-0.506718	-0.253384
N164	N	0.033960	-0.435482	-0.217765
H165	H	0.032600	-0.767072	-0.265655
H166	H	-0.032541	-0.468829	0.265559
H167	H	-0.734406	0.468835	0.501335
H168	H	-0.265572	-0.468847	0.032539
C169	C	-0.473677	0.220363	0.253242
N170	N	-0.401440	0.183738	0.217623
