data_functionalizedCrystal
_audit_creation_method	'MofGen! by Chris Wilmer'
_symmetry_space_group_name_H-M	'P1'
_symmetry_Int_Tables_number	1
_symmetry_cell_setting	triclinic
loop_
_symmetry_equiv_pos_as_xyz
  x,y,z
_cell_length_a	13.635800
_cell_length_b	17.296766
_cell_length_c	19.551833
_cell_angle_alpha	80.211603
_cell_angle_beta	101.663477
_cell_angle_gamma	77.378987
loop_
_atom_site_label
_atom_site_type_symbol
_atom_site_fract_x
_atom_site_fract_y
_atom_site_fract_z
V1	V	2.003387	-0.111969	0.224942
O2	O	1.997113	0.004514	0.213425
O3	O	1.979427	-0.221183	0.230361
O4	O	1.974732	-0.110627	0.319872
O5	O	2.001841	-0.106807	0.123294
V6	V	2.245748	-0.097992	0.211939
O7	O	2.132703	-0.142631	0.253465
O8	O	2.341531	-0.067331	0.183415
O9	O	2.158105	0.011222	0.206519
O10	O	2.310720	-0.214475	0.223455
O11	O	2.305993	-0.103154	0.313586
O12	O	2.162800	-0.099334	0.117008
V13	V	2.503387	-0.111969	0.224942
O14	O	2.497113	0.004514	0.213425
O15	O	2.479427	-0.221183	0.230361
O16	O	2.474732	-0.110627	0.319872
O17	O	2.501841	-0.106807	0.123294
V18	V	2.745748	-0.097992	0.211939
O19	O	2.632703	-0.142631	0.253465
O20	O	2.841531	-0.067331	0.183415
O21	O	2.658105	0.011222	0.206519
O22	O	2.810720	-0.214475	0.223455
O23	O	2.805993	-0.103154	0.313586
O24	O	2.662800	-0.099334	0.117008
C25	C	1.902130	-0.247795	0.228608
C26	C	1.923153	-0.337082	0.233671
C27	C	1.915882	-0.367311	0.171322
C28	C	1.935645	-0.451205	0.176082
C29	C	1.962672	-0.504869	0.243192
C30	C	1.969946	-0.474635	0.305547
C31	C	1.950190	-0.390742	0.300786
C32	C	2.023187	-0.758758	0.260805
C33	C	2.042940	-0.842656	0.265561
C34	C	2.008639	-0.819220	0.136096
C35	C	1.988879	-0.735326	0.131341
C36	C	1.996160	-0.705100	0.193696
C37	C	1.982871	-0.590623	0.248060
C38	C	1.975968	-0.619348	0.188828
C39	C	1.896140	-0.106769	0.342787
C40	C	1.913354	-0.106395	0.420439
C41	C	2.067073	0.037830	0.208271
C42	C	2.035669	0.127115	0.203212
C43	C	2.073063	-0.103195	0.094090
C44	C	2.045468	-0.103565	0.016437
C45	C	2.402130	-0.247795	0.228608
C46	C	2.423153	-0.337082	0.233671
C47	C	2.396140	-0.106769	0.342787
C48	C	2.413354	-0.106395	0.420439
C49	C	2.012337	-0.110250	0.460730
C50	C	2.028512	-0.109898	0.533693
C51	C	1.945702	-0.105707	0.566364
C52	C	1.846704	-0.101846	0.526062
C53	C	1.830530	-0.102190	0.453100
C54	C	1.914397	-0.149379	0.688438
C55	C	1.930575	-0.149040	0.761401
C56	C	1.995583	-0.104642	0.791403
C57	C	2.044430	-0.060594	0.748437
C58	C	2.028256	-0.060938	0.675475
C59	C	1.963230	-0.105333	0.645479
C60	C	2.112110	-0.108115	0.910808
C61	C	2.128280	-0.107758	0.983771
C62	C	1.946472	-0.099714	0.976141
C63	C	1.930303	-0.100063	0.903178
C64	C	2.013127	-0.104268	0.870517
C65	C	2.567073	0.037830	0.208271
C66	C	2.535669	0.127115	0.203212
C67	C	2.573063	-0.103195	0.094090
C68	C	2.545468	-0.103565	0.016437
C69	C	2.523936	-0.383120	0.239800
C70	C	2.543707	-0.467017	0.244569
C71	C	2.462691	-0.504872	0.243204
C72	C	2.361900	-0.458827	0.237076
C73	C	2.342132	-0.374933	0.232313
C74	C	2.512343	-0.110237	0.460721
C75	C	2.528529	-0.109874	0.533681
C76	C	2.445726	-0.105675	0.566360
C77	C	2.346728	-0.101830	0.526072
C78	C	2.330542	-0.102187	0.453112
C79	C	2.607379	0.173153	0.197085
C80	C	2.577881	0.257049	0.192319
C81	C	2.476673	0.294904	0.193686
C82	C	2.404957	0.248860	0.199812
C83	C	2.434454	0.164967	0.204572
C84	C	2.446040	-0.107755	-0.016224
C85	C	2.420094	-0.108094	-0.089189
C86	C	2.493580	-0.104248	-0.129490
C87	C	2.593016	-0.100055	-0.096824
C88	C	2.618958	-0.099711	-0.023862
H89	H	1.893867	-0.323622	0.116673
F90	F	2.610177	-0.342848	0.241259
F91	F	2.600484	-0.114707	0.425956
H92	H	2.004878	-0.634325	0.302701
H93	H	2.079780	-0.113671	0.434142
F94	F	1.947218	-0.562234	0.117407
H95	H	2.609144	-0.113009	0.566475
F96	F	2.462969	-0.105298	0.644013
H97	H	2.109119	-0.113042	0.566505
F98	F	1.960114	-0.678218	0.059913
H99	H	2.376055	0.127487	0.209567
H100	H	2.472447	-0.104539	-0.188898
F101	F	2.367813	-0.111849	0.026655
F102	F	2.654221	0.306038	0.185802
H103	H	2.452668	0.363216	0.189809
F104	F	2.724790	-0.095261	0.010892
F105	F	2.258614	-0.097369	0.560863
H106	H	2.249934	-0.099060	0.420320
F107	F	2.297245	0.289161	0.201262
F108	F	2.314265	-0.112562	-0.123939
H109	H	2.097368	-0.024444	0.772864
F110	F	1.927914	-0.483373	0.109721
F111	F	2.715099	0.132881	0.195629
H112	H	2.260062	-0.337454	0.227319
H113	H	2.652841	-0.096922	-0.129649
H114	H	1.779280	-0.098431	0.552667
H115	H	2.002716	-0.843840	0.085331
H116	H	2.064944	-0.886348	0.320213
F117	F	2.080241	-0.014061	0.629750
H118	H	1.991960	-0.518335	0.360190
F119	F	1.957935	-0.358571	0.367147
F120	F	2.200256	-0.112585	0.876045
F121	F	2.030931	-0.726599	0.327169
H122	H	1.879044	-0.096294	1.002739
F123	F	2.233636	-0.111860	1.026652
H124	H	2.295943	-0.489662	0.235965
H125	H	1.849703	-0.096932	0.870374
H126	H	1.861449	-0.185527	0.664016
F127	F	1.878595	-0.195925	0.807123
F128	F	1.725175	-0.098088	0.410218
H129	H	2.478801	-0.573184	0.247083
F130	F	2.650981	-0.516005	0.251087
