data_functionalizedCrystal
_audit_creation_method	'MofGen! by Chris Wilmer'
_symmetry_space_group_name_H-M	'P1'
_symmetry_Int_Tables_number	1
_symmetry_cell_setting	triclinic
loop_
_symmetry_equiv_pos_as_xyz
  x,y,z
_cell_length_a	15.297327
_cell_length_b	18.215407
_cell_length_c	18.215399
_cell_angle_alpha	90.017587
_cell_angle_beta	99.645421
_cell_angle_gamma	80.292992
loop_
_atom_site_label
_atom_site_type_symbol
_atom_site_fract_x
_atom_site_fract_y
_atom_site_fract_z
Zn1	Zn	-0.359154	-1.074337	-0.466807
Zn2	Zn	-0.510031	-1.052947	-0.365029
Zn3	Zn	-0.359188	-0.951271	-0.343757
Zn4	Zn	-0.509973	-0.929939	-0.488044
O5	O	-0.434587	-1.002124	-0.415909
O6	O	-0.379178	-1.174482	-0.453320
O7	O	-0.490060	-1.039436	-0.259228
O8	O	-0.232937	-0.985475	-0.342290
O9	O	-0.490027	-1.158768	-0.378544
O10	O	-0.232912	-1.075891	-0.432694
O11	O	-0.379237	-0.964734	-0.243600
O12	O	-0.379181	-0.845458	-0.362883
O13	O	-0.489928	-0.949118	-0.588206
O14	O	-0.489961	-0.829786	-0.468890
O15	O	-0.379122	-1.055206	-0.572603
O16	O	-0.636270	-1.018751	-0.399137
O17	O	-0.636228	-0.928377	-0.489516
C18	C	-0.434569	-0.810920	-0.415883
C19	C	-0.434583	-0.729119	-0.415892
C20	C	-0.492356	-0.532771	-0.471041
C21	C	-0.492357	-0.455912	-0.471050
C22	C	-0.376823	-0.472227	-0.360781
C23	C	-0.376817	-0.549085	-0.360776
C24	C	-0.434589	-0.579355	-0.415906
C25	C	-0.434596	-0.425637	-0.415919
C26	C	-0.434598	-0.342304	-0.415928
C27	C	-0.434586	-0.662694	-0.415898
C28	C	-0.668983	-0.968948	-0.448955
C29	C	-0.769259	-0.954823	-0.463117
C30	C	-1.051883	-1.103381	-0.314943
C31	C	-0.957669	-1.116652	-0.301634
C32	C	-0.910562	-1.076196	-0.342003
C33	C	-0.957678	-1.022467	-0.395685
C34	C	-1.051901	-1.009191	-0.408992
C35	C	-0.910580	-0.982006	-0.436052
C36	C	-0.957696	-0.928276	-0.489734
C37	C	-1.051910	-0.915003	-0.503038
C38	C	-1.099017	-0.955459	-0.462668
C39	C	-0.816357	-0.995282	-0.422745
C40	C	-0.816375	-0.901091	-0.516794
C41	C	-0.910589	-0.887821	-0.530103
C42	C	-0.199275	-1.035448	-0.382750
C43	C	-0.098999	-1.049649	-0.368620
C44	C	-0.434515	-1.002168	-0.607852
C45	C	-0.434484	-1.002188	-0.689647
C46	C	-0.434602	-0.194074	-0.415932
C47	C	-0.434602	-0.275873	-0.415933
C48	C	-0.376739	-0.963336	-0.869699
C49	C	-0.376721	-0.963351	-0.946555
C50	C	-0.492121	-1.041142	-0.962818
C51	C	-0.492143	-1.041122	-0.885963
C52	C	-0.434447	-1.002221	-0.839405
C53	C	-0.434407	-1.002256	-0.993116
C54	C	-0.434388	-1.002273	-1.076447
C55	C	-0.434467	-1.002203	-0.756069
C56	C	-0.434593	-1.002130	-0.224704
C57	C	-0.434370	-1.002290	-0.142874
H58	H	-0.329771	-0.587016	-0.315878
O59	O	-0.320731	-0.925608	-0.824363
C60	C	-0.333138	-0.933911	-0.750034
H61	H	-0.362686	-0.986520	-0.743702
H62	H	-0.265570	-0.938476	-0.711307
H63	H	-0.381188	-0.883453	-0.734988
O64	O	-0.548340	-0.562275	-0.524615
C65	C	-0.497040	-0.613995	-0.564990
H66	H	-0.428634	-0.635181	-0.529476
H67	H	-0.533798	-0.662842	-0.579987
H68	H	-0.487206	-0.585784	-0.618154
O69	O	-0.548559	-0.410763	-0.524642
C70	C	-0.599527	-0.453966	-0.573308
H71	H	-0.602602	-0.508305	-0.543588
H72	H	-0.670621	-0.421702	-0.591090
H73	H	-0.566574	-0.466827	-0.624598
O74	O	-0.320705	-0.925470	-0.975904
C75	C	-0.340437	-0.849325	-0.959903
H76	H	-0.375135	-0.842880	-0.908987
H77	H	-0.275326	-0.825545	-0.948095
H78	H	-0.386805	-0.817977	-1.009687
O79	O	-0.320793	-0.442696	-0.307265
C80	C	-0.333168	-0.364872	-0.319102
H81	H	-0.402829	-0.344525	-0.352931
H82	H	-0.326963	-0.336519	-0.263113
H83	H	-0.279718	-0.350640	-0.350831
O84	O	-0.548233	-1.078963	-0.856650
C85	C	-0.599163	-1.113293	-0.914223
H86	H	-0.562196	-1.121092	-0.963803
H87	H	-0.608797	-1.169905	-0.893374
H88	H	-0.667676	-1.076643	-0.932045
H89	H	-0.948964	-0.844073	-0.573811
H90	H	-0.778003	-1.039029	-0.379037
H91	H	-0.778021	-0.868147	-0.549665
O92	O	-0.819043	-1.089205	-0.329010
C93	C	-0.787558	-1.145290	-0.272962
H94	H	-0.841821	-1.180645	-0.270354
H95	H	-0.724481	-1.182093	-0.286286
H96	H	-0.770910	-1.118484	-0.216925
O97	O	-1.190540	-0.942705	-0.475599
C98	C	-1.221920	-1.008802	-0.499015
H99	H	-1.167586	-1.058849	-0.478809
H100	H	-1.284966	-1.013028	-0.474736
H101	H	-1.238585	-1.007976	-0.562433
O102	O	-1.097777	-0.862897	-0.555232
C103	C	-1.152177	-0.897105	-0.610497
H104	H	-1.166260	-0.950907	-0.586579
H105	H	-1.218452	-0.857785	-0.629694
H106	H	-1.115810	-0.910285	-0.659904
O107	O	-0.912043	-1.168894	-0.249493
C108	C	-0.973820	-1.201745	-0.216704
H109	H	-1.040955	-1.194813	-0.256330
H110	H	-0.946547	-1.263576	-0.205058
H111	H	-0.983913	-1.173409	-0.162210
O112	O	-0.548075	-1.078922	-1.008147
C113	C	-0.535697	-1.070588	-1.082479
H114	H	-0.466070	-1.056348	-1.083167
H115	H	-0.541812	-1.124854	-1.112554
H116	H	-0.589201	-1.023827	-1.111823
H117	H	-1.090246	-1.136310	-0.282075
