data_functionalizedCrystal
_audit_creation_method	'MofGen! by Chris Wilmer'
_symmetry_space_group_name_H-M	'P1'
_symmetry_Int_Tables_number	1
_symmetry_cell_setting	triclinic
loop_
_symmetry_equiv_pos_as_xyz
  x,y,z
_cell_length_a	17.077404
_cell_length_b	13.897448
_cell_length_c	13.897441
_cell_angle_alpha	89.970373
_cell_angle_beta	89.980344
_cell_angle_gamma	90.017917
loop_
_atom_site_label
_atom_site_type_symbol
_atom_site_fract_x
_atom_site_fract_y
_atom_site_fract_z
Zn1	Zn	1.200084	-0.383988	-0.545408
Zn2	Zn	1.200003	-0.545307	-0.384110
Zn3	Zn	1.068816	-0.384028	-0.384124
Zn4	Zn	1.068796	-0.545243	-0.545359
O5	O	1.134425	-0.464641	-0.464750
O6	O	1.309920	-0.405397	-0.524026
O7	O	1.182575	-0.523956	-0.249130
O8	O	1.086271	-0.249041	-0.405545
O9	O	1.309860	-0.523917	-0.405521
O10	O	1.182713	-0.249011	-0.524040
O11	O	1.086192	-0.405465	-0.249140
O12	O	0.958966	-0.405404	-0.405497
O13	O	1.086237	-0.523809	-0.680348
O14	O	0.958952	-0.523848	-0.523957
O15	O	1.182694	-0.405335	-0.680384
O16	O	1.182556	-0.680280	-0.405474
O17	O	1.086158	-0.680233	-0.523943
C18	C	0.930477	-0.464624	-0.464724
C19	C	0.843227	-0.464639	-0.464735
C20	C	0.802250	-0.526406	-0.526318
C21	C	0.720269	-0.526408	-0.526333
C22	C	0.679268	-0.464648	-0.464761
C23	C	0.720250	-0.402874	-0.403175
C24	C	0.802229	-0.402868	-0.403165
C25	C	0.549380	-0.402893	-0.403198
C26	C	0.467396	-0.402900	-0.403207
C27	C	0.467420	-0.526434	-0.526366
C28	C	0.549399	-0.526427	-0.526357
C29	C	0.590377	-0.464655	-0.464770
C30	C	1.134367	-0.715256	-0.464722
C31	C	1.134415	-0.822469	-0.464743
C32	C	1.134497	-1.018765	-0.464803
C33	C	1.134449	-0.909532	-0.464773
C34	C	1.339169	-0.464659	-0.464778
C35	C	1.426419	-0.464667	-0.464789
C36	C	1.134473	-0.464560	-0.716344
C37	C	1.134493	-0.464526	-0.823558
C38	C	1.134504	-0.213048	-0.464800
C39	C	1.134537	-0.105834	-0.464820
C40	C	1.134509	-0.464498	-0.910627
C41	C	1.134532	-0.464455	-1.019860
C42	C	1.134422	-0.464652	-0.214136
C43	C	1.134554	-0.464415	-0.106923
H44	H	0.434014	-0.352598	-0.353080
O45	O	0.842110	-0.586504	-0.585994
C46	C	0.934679	-0.716706	-0.598743
C47	C	0.889575	-0.648723	-0.531045
H48	H	0.973077	-0.767013	-0.554345
H49	H	0.891341	-0.760920	-0.642745
H50	H	0.973051	-0.672458	-0.649271
H51	H	0.851202	-0.692896	-0.480459
H52	H	0.932956	-0.604505	-0.487111
O53	O	0.680555	-0.586373	-0.586282
C54	C	0.655497	-0.633398	-0.750276
C55	C	0.700533	-0.565436	-0.682492
H56	H	0.671620	-0.616482	-0.828076
H57	H	0.671615	-0.711165	-0.733261
H58	H	0.589865	-0.622818	-0.739665
H59	H	0.766175	-0.575931	-0.693065
H60	H	0.684349	-0.487694	-0.699523
H61	H	0.582742	-0.352583	-0.353056
H62	H	0.582781	-0.576724	-0.576489
H63	H	0.434053	-0.576728	-0.576516
H64	H	0.686860	-0.352583	-0.353046
H65	H	0.835592	-0.352566	-0.353023
