data_functionalizedCrystal
_audit_creation_method	'MofGen! by Chris Wilmer'
_symmetry_space_group_name_H-M	'P1'
_symmetry_Int_Tables_number	1
_symmetry_cell_setting	triclinic
loop_
_symmetry_equiv_pos_as_xyz
  x,y,z
_cell_length_a	15.538191
_cell_length_b	23.532407
_cell_length_c	14.750779
_cell_angle_alpha	77.433997
_cell_angle_beta	97.572172
_cell_angle_gamma	65.060386
loop_
_atom_site_label
_atom_site_type_symbol
_atom_site_fract_x
_atom_site_fract_y
_atom_site_fract_z
O1	O	1.231045	-0.168713	-0.079813
O2	O	1.731045	0.331287	0.420187
O3	O	0.956168	-0.102826	-0.079822
O4	O	1.456168	0.397174	0.420178
O5	O	1.101900	-0.220390	-0.079800
O6	O	1.601900	0.279610	0.420200
O7	O	1.085313	-0.051149	-0.079835
O8	O	1.585313	0.448851	0.420165
O9	O	1.143097	-0.253621	0.079857
O10	O	1.643097	0.246379	0.579857
O11	O	0.997364	-0.136057	0.079835
O12	O	1.497364	0.363943	0.579835
O13	O	1.272242	-0.201944	0.079843
O14	O	1.772242	0.298056	0.579843
Zn15	Zn	1.141344	-0.174277	0.105188
Zn16	Zn	1.641344	0.325723	0.605188
Zn17	Zn	1.087066	-0.130493	-0.105166
Zn18	Zn	1.587066	0.369507	0.394834
O19	O	1.126510	-0.084380	0.079821
O20	O	1.626510	0.415620	0.579821
C21	C	0.941606	-0.112548	0.000006
C22	C	1.441606	0.387452	0.500006
C23	C	0.836839	-0.092014	0.000003
C24	C	1.336839	0.407986	0.500003
C25	C	0.550965	-0.296010	0.000031
C26	C	1.050965	0.203990	0.500031
C27	C	0.452517	-0.276701	0.000026
C28	C	0.952517	0.223299	0.500026
C29	C	0.429052	-0.168092	0.000004
C30	C	0.929052	0.331908	0.500004
C31	C	0.527501	-0.187393	0.000013
C32	C	1.027501	0.312607	0.500013
C33	C	0.588450	-0.251353	0.000026
C34	C	1.088450	0.248647	0.500026
C35	C	0.564986	-0.142735	0.000008
C36	C	1.064986	0.357265	0.500008
C37	C	0.663425	-0.162034	0.000012
C38	C	1.163425	0.337966	0.500012
C39	C	0.724379	-0.225990	0.000022
C40	C	1.224379	0.274010	0.500022
C41	C	0.686889	-0.270651	0.000030
C42	C	1.186889	0.229349	0.500030
C43	C	0.504034	-0.078774	-0.000012
C44	C	1.004034	0.421226	0.499988
C45	C	0.541519	-0.034116	-0.000017
C46	C	1.041519	0.465884	0.499983
C47	C	0.639961	-0.053416	-0.000006
C48	C	1.139961	0.446584	0.499994
C49	C	0.700915	-0.117373	0.000004
C50	C	1.200915	0.382627	0.500004
C51	C	0.677451	-0.008755	-0.000014
C52	C	1.177451	0.491245	0.499986
C53	C	0.775891	-0.028054	-0.000010
C54	C	1.275891	0.471946	0.499990
C55	C	0.799354	-0.136672	0.000008
C56	C	1.299354	0.363328	0.500008
C57	C	1.122077	-0.258136	0.000031
C58	C	1.622077	0.241864	0.500031
C59	C	1.120810	-0.321097	0.000038
C60	C	1.620810	0.178903	0.500038
C61	C	1.199074	-0.736103	-0.000012
C62	C	1.699074	-0.236103	0.499988
C63	C	1.197893	-0.795262	-0.000019
C64	C	1.697893	-0.295262	0.499981
O65	O	1.270448	-0.846752	-0.000052
O66	O	1.770448	-0.346752	0.499948
N67	N	1.111258	-0.800275	-0.000021
N68	N	1.611258	-0.300275	0.499979
C69	C	1.025796	-0.746122	-0.000026
C70	C	1.525796	-0.246122	0.499974
O71	O	0.951997	-0.755818	-0.000029
O72	O	1.451997	-0.255818	0.499971
C73	C	1.026976	-0.686963	-0.000025
C74	C	1.526976	-0.186963	0.499975
C75	C	1.113619	-0.681957	-0.000013
C76	C	1.613619	-0.181957	0.499987
C77	C	1.285710	-0.731095	-0.000001
C78	C	1.785710	-0.231095	0.499999
C79	C	1.286891	-0.671940	0.000008
C80	C	1.786891	-0.171940	0.500008
C81	C	1.201436	-0.617794	0.000006
C82	C	1.701436	-0.117794	0.500006
C83	C	1.114800	-0.622802	-0.000004
C84	C	1.614800	-0.122802	0.499996
C85	C	0.941513	-0.632810	-0.000037
C86	C	1.441513	-0.132810	0.499963
C87	C	0.942701	-0.573649	-0.000037
C88	C	1.442701	-0.073649	0.499963
C89	C	1.029344	-0.568643	-0.000025
C90	C	1.529344	-0.068643	0.499975
C91	C	1.030526	-0.509501	0.000003
C92	C	1.530526	-0.009501	0.500003
N93	N	1.117161	-0.504489	0.000005
N94	N	1.617161	-0.004489	0.500005
C95	C	1.202616	-0.558635	0.000007
C96	C	1.702616	-0.058635	0.500007
C97	C	1.023324	-0.870362	-0.000028
C98	C	1.523324	-0.370362	0.499972
C99	C	1.022144	-0.929521	-0.000022
C100	C	1.522144	-0.429521	0.499978
C101	C	1.194241	-0.978656	-0.000017
C102	C	1.694241	-0.478656	0.499983
C103	C	1.195421	-0.919497	-0.000017
C104	C	1.695421	-0.419497	0.499983
C105	C	1.109959	-0.865349	-0.000026
C106	C	1.609959	-0.365349	0.499974
C107	C	1.205090	-0.434404	0.000027
C108	C	1.705090	0.065596	0.500027
C109	C	1.206264	-0.375243	0.000040
C110	C	1.706264	0.124757	0.500040
C111	C	1.034167	-0.326112	0.000030
C112	C	1.534167	0.173888	0.500030
C113	C	1.032993	-0.385268	0.000022
C114	C	1.532993	0.114732	0.500022
C115	C	1.118461	-0.439415	0.000017
C116	C	1.618461	0.060585	0.500017
O117	O	0.958008	-0.457984	0.000032
O118	O	1.458008	0.042016	0.500032
O119	O	1.276399	-0.548925	-0.000002
O120	O	1.776399	-0.048925	0.499998
C121	C	1.286804	-0.192222	0.000014
C122	C	1.786804	0.307778	0.500014
C123	C	1.391568	-0.212754	0.000010
C124	C	1.891568	0.287246	0.500010
C125	C	1.106332	-0.046633	-0.000012
C126	C	1.606332	0.453367	0.499988
C127	C	1.107598	0.016329	-0.000025
C128	C	1.607598	0.516329	0.499975
N129	N	1.178395	-0.204160	0.248749
N130	N	1.678395	0.295840	0.748749
N131	N	1.050023	-0.100616	-0.248728
N132	N	1.550023	0.399384	0.251272
C133	C	0.946546	-0.017183	0.600532
C134	C	1.446546	0.482817	1.100532
C135	C	0.972516	-0.038120	0.701035
C136	C	1.472516	0.461880	1.201035
C137	C	1.101588	-0.142200	0.701018
C138	C	1.601588	0.357800	1.201018
C139	C	1.075626	-0.121272	0.600512
C140	C	1.575626	0.378728	1.100512
C141	C	0.998105	-0.058763	0.550278
C142	C	1.498105	0.441237	1.050278
C143	C	1.127185	-0.162853	0.550258
C144	C	1.627185	0.337147	1.050258
C145	C	1.101228	-0.141925	0.449762
C146	C	1.601228	0.358075	0.949762
C147	C	1.023713	-0.079417	0.399520
C148	C	1.523713	0.420583	0.899520
C149	C	0.972148	-0.037835	0.449781
C150	C	1.472148	0.462165	0.949781
C151	C	1.204710	-0.225360	0.600495
C152	C	1.704710	0.274640	1.100495
C153	C	1.256269	-0.266941	0.550240
C154	C	1.756269	0.233059	1.050240
C155	C	1.230308	-0.246015	0.449742
C156	C	1.730308	0.253985	0.949742
C157	C	1.152792	-0.183507	0.399500
C158	C	1.652792	0.316493	0.899500
C159	C	1.281872	-0.287597	0.399480
C160	C	1.781872	0.212403	0.899480
C161	C	1.255915	-0.266669	0.298984
C162	C	1.755915	0.233331	0.798984
C163	C	1.126836	-0.162579	0.299004
C164	C	1.626836	0.337421	0.799004
H165	H	0.422002	-0.313071	0.000029
H166	H	0.922002	0.186929	0.500029
H167	H	0.870958	-0.636872	-0.000052
H168	H	1.370958	-0.136872	0.499948
Cl169	Cl	1.353723	-0.345521	0.613399
Cl170	Cl	1.853723	0.154479	1.113399
Cl171	Cl	0.835254	-0.505578	-0.000050
Cl172	Cl	1.335254	-0.005578	0.499950
Cl173	Cl	0.464888	0.046288	-0.000039
Cl174	Cl	0.964888	0.546288	0.499961
Cl175	Cl	1.379333	-0.366174	0.462642
Cl176	Cl	1.879333	0.133826	0.962642
H177	H	0.962448	-0.389349	0.000039
H178	H	1.462448	0.110651	0.500039
H179	H	1.263822	-1.022753	-0.000020
H180	H	1.763822	-0.522753	0.499980
H181	H	1.297902	-0.300528	0.258066
H182	H	1.797902	0.199472	0.758066
H183	H	1.355300	-0.775177	-0.000003
H184	H	1.855300	-0.275177	0.499997
H185	H	0.379414	-0.116014	-0.000011
H186	H	0.879414	0.383986	0.499989
Cl187	Cl	0.875987	-0.217083	0.000036
Cl188	Cl	1.375987	0.282917	0.500036
Cl189	Cl	1.315195	-0.368955	0.000053
Cl190	Cl	1.815195	0.131045	0.500053
H191	H	0.951595	-0.933593	-0.000015
H192	H	1.451595	-0.433593	0.499985
H193	H	0.804531	-0.241700	0.000013
H194	H	1.304531	0.258300	0.500013
Cl195	Cl	0.915876	-0.802294	-0.000029
Cl196	Cl	1.415876	-0.302294	0.499971
Cl197	Cl	1.199042	-0.220781	0.764177
Cl198	Cl	1.699042	0.279219	1.264177
Cl199	Cl	0.907689	0.014163	0.764205
Cl200	Cl	1.407689	0.514163	1.264205
H201	H	0.736519	-0.322735	0.000046
H202	H	1.236519	0.177265	0.500046
H203	H	0.883414	0.033716	0.559629
H204	H	1.383414	0.533716	1.059629
Cl205	Cl	1.237342	-0.251665	0.726835
Cl206	Cl	1.737342	0.248335	1.226835
Cl207	Cl	0.823018	0.028088	-0.000019
Cl208	Cl	1.323018	0.528088	0.499981
H209	H	0.423878	-0.063063	-0.000018
H210	H	0.923878	0.436937	0.499982
Cl211	Cl	0.627597	-0.376421	0.000059
Cl212	Cl	1.127597	0.123579	0.500059
H213	H	0.627810	0.043323	-0.000034
H214	H	1.127810	0.543323	0.499966
H215	H	1.274686	-0.478484	0.000019
H216	H	1.774686	0.021516	0.500019
H217	H	1.002583	-0.062378	0.317689
H218	H	1.502583	0.437622	0.817689
Cl219	Cl	0.874681	0.040747	0.386625
Cl220	Cl	1.374681	0.540747	0.886625
Cl221	Cl	1.395812	-0.665651	-0.000005
Cl222	Cl	1.895812	-0.165651	0.499995
H223	H	1.265973	-0.915427	-0.000008
H224	H	1.765973	-0.415427	0.499992
H225	H	0.964593	-0.282016	0.000032
H226	H	1.464593	0.217984	0.500032
H227	H	1.063704	-0.111680	0.258101
H228	H	1.563704	0.388320	0.758101
