data_functionalizedCrystal
_audit_creation_method	'MofGen! by Chris Wilmer'
_symmetry_space_group_name_H-M	'P1'
_symmetry_Int_Tables_number	1
_symmetry_cell_setting	triclinic
loop_
_symmetry_equiv_pos_as_xyz
  x,y,z
_cell_length_a	15.944551
_cell_length_b	15.944545
_cell_length_c	15.021413
_cell_angle_alpha	89.995468
_cell_angle_beta	90.003065
_cell_angle_gamma	83.497455
loop_
_atom_site_label
_atom_site_type_symbol
_atom_site_fract_x
_atom_site_fract_y
_atom_site_fract_z
O1	O	0.108296	1.114532	-0.073976
O2	O	0.121657	0.869982	-0.073991
O3	O	-0.007298	0.998935	-0.073975
O4	O	0.237252	0.985579	-0.073992
O5	O	-0.007280	0.998915	0.074089
O6	O	0.121676	0.869961	0.074073
O7	O	0.108314	1.114512	0.074088
Zn8	Zn	0.114998	0.992233	0.097589
Zn9	Zn	0.114974	0.992260	-0.097492
O10	O	0.237270	0.985558	0.074072
C11	C	0.121113	0.838677	0.000039
C12	C	0.119453	0.745431	0.000034
C13	C	0.034559	0.474798	0.000049
C14	C	0.075497	0.525370	0.073052
C15	C	0.113532	0.409787	0.000050
C16	C	0.075500	0.525371	-0.072928
C17	C	0.116437	0.574701	0.000040
C18	C	0.154449	0.459131	0.073113
C19	C	0.154440	0.459128	-0.072933
C20	C	0.195436	0.509667	0.000088
C21	C	0.111856	0.314785	0.000056
C22	C	0.118119	0.669700	0.000041
C23	C	-0.038583	0.998370	0.000057
C24	C	-0.131829	0.996708	0.000057
C25	C	-0.346684	0.912803	0.000040
C26	C	-0.407693	0.951756	0.073047
C27	C	-0.302555	0.993701	0.000050
C28	C	-0.407695	0.951795	-0.072933
C29	C	-0.467468	0.990790	0.000040
C30	C	-0.362336	1.032675	0.073118
C31	C	-0.362331	1.032703	-0.072928
C32	C	-0.423322	1.071715	0.000097
C33	C	-0.207553	0.995375	0.000057
C34	C	-0.562469	0.989122	0.000039
C35	C	0.268555	0.986123	0.000038
C36	C	0.361801	0.987785	0.000032
C37	C	0.108859	1.145816	0.000056
C38	C	0.110519	1.239062	0.000055
N39	N	0.115014	0.992221	0.230727
N40	N	0.114951	0.992279	-0.230630
C41	C	0.174615	0.932584	0.470402
C42	C	0.190920	1.008484	0.529740
C43	C	0.114993	0.992242	0.412333
C44	C	0.098706	0.916362	0.529737
C45	C	0.114975	0.992256	0.587757
C46	C	0.131336	1.068181	0.470365
C47	C	0.039089	0.976009	0.470357
C48	C	0.055362	1.051965	0.529668
C49	C	0.115006	0.992233	0.311276
C50	C	0.114961	0.992274	0.688813
H51	H	-0.033453	0.459145	0.000125
N52	N	0.241444	0.865822	0.435915
H53	H	0.229735	0.808608	0.458442
H54	H	0.298727	0.878275	0.457522
N55	N	0.198593	0.420966	0.154962
H56	H	0.219723	0.467087	0.192007
H57	H	0.247861	0.379204	0.136378
N58	N	0.031346	0.563695	0.154812
H59	H	0.060569	0.538655	0.209943
H60	H	-0.029385	0.551304	0.154693
N61	N	0.031297	0.563691	-0.154674
H62	H	0.009632	0.517709	-0.191489
H63	H	0.072325	0.593208	-0.191188
N64	N	-0.434321	0.906470	-0.154685
H65	H	-0.406154	0.846453	-0.154619
H66	H	-0.417015	0.936489	-0.209779
H67	H	0.084940	0.852186	0.555820
H68	H	-0.025073	0.962243	0.444252
N69	N	-0.434318	0.906416	0.154793
H70	H	-0.497627	0.906109	0.154482
H71	H	-0.416955	0.936389	0.209890
H72	H	0.263501	0.525159	0.000126
N73	N	0.198575	0.420790	-0.154689
H74	H	0.168670	0.445004	-0.209806
H75	H	0.197599	0.357573	-0.153685
H76	H	-0.313375	0.845655	0.000109
H77	H	-0.456483	1.138922	0.000142
H78	H	0.255103	1.022227	0.555824
H79	H	0.004931	1.102477	0.555526
H80	H	-0.342338	1.066854	0.134907
N81	N	-0.335677	1.078000	-0.154684
H82	H	-0.294757	1.038540	-0.190622
H83	H	-0.307499	1.128836	-0.136015
N84	N	0.149670	1.153212	0.435975
H85	H	0.149588	1.152675	0.368741
H86	H	0.206790	1.165568	0.458166
