data_functionalizedCrystal
_audit_creation_method	'MofGen! by Chris Wilmer'
_symmetry_space_group_name_H-M	'P1'
_symmetry_Int_Tables_number	1
_symmetry_cell_setting	triclinic
loop_
_symmetry_equiv_pos_as_xyz
  x,y,z
_cell_length_a	11.792254
_cell_length_b	11.792241
_cell_length_c	10.868271
_cell_angle_alpha	89.998441
_cell_angle_beta	89.995692
_cell_angle_gamma	84.196007
loop_
_atom_site_label
_atom_site_type_symbol
_atom_site_fract_x
_atom_site_fract_y
_atom_site_fract_z
O1	O	1.506901	0.155631	-0.102322
O2	O	2.006901	0.655631	0.397678
O3	O	1.176561	0.171649	-0.102324
O4	O	1.676561	0.671649	0.397676
O5	O	1.349747	-0.001530	-0.102314
O6	O	1.849747	0.498470	0.397686
O7	O	1.333715	0.328810	-0.102332
O8	O	1.833715	0.828810	0.397668
O9	O	1.349732	-0.001525	0.102330
O10	O	1.849732	0.498475	0.602330
O11	O	1.176546	0.171654	0.102320
O12	O	1.676546	0.671654	0.602320
O13	O	1.506885	0.155636	0.102323
O14	O	2.006885	0.655636	0.602323
Zn15	Zn	1.341713	0.163646	0.134813
Zn16	Zn	1.841713	0.663646	0.634813
Zn17	Zn	1.341733	0.163639	-0.134815
Zn18	Zn	1.841733	0.663639	0.365185
O19	O	1.333699	0.328815	0.102313
O20	O	1.833699	0.828815	0.602313
C21	C	1.134263	0.170642	-0.000002
C22	C	1.634263	0.670642	0.499998
C23	C	1.008250	0.167622	-0.000003
C24	C	1.508250	0.667622	0.499997
C25	C	0.905913	0.165168	-0.000008
C26	C	1.405913	0.665168	0.499992
C27	C	0.777527	0.162100	-0.000009
C28	C	1.277527	0.662100	0.499991
C29	C	1.348732	-0.043819	0.000008
C30	C	1.848732	0.456181	0.500008
C31	C	1.345718	-0.169832	0.000006
C32	C	1.845718	0.330168	0.500006
C33	C	1.340175	-0.400545	-0.000014
C34	C	1.840175	0.099455	0.499986
C35	C	1.343255	-0.272160	-0.000003
C36	C	1.843255	0.227840	0.499997
C37	C	1.549183	0.156643	-0.000002
C38	C	2.049183	0.656643	0.499998
C39	C	1.675196	0.159663	-0.000009
C40	C	2.175196	0.659663	0.499991
C41	C	1.334714	0.371104	-0.000012
C42	C	1.834714	0.871104	0.499988
C43	C	1.337728	0.497118	-0.000019
C44	C	1.837728	0.997118	0.499981
N45	N	1.341707	0.163651	0.318827
N46	N	1.841707	0.663651	0.818827
N47	N	1.341748	0.163626	-0.318829
N48	N	1.841748	0.663626	0.181171
C49	C	1.341716	0.163651	0.430165
C50	C	1.841716	0.663651	0.930165
C51	C	1.341730	0.163640	0.569843
C52	C	1.841730	0.663640	1.069843
