data_functionalizedCrystal
_audit_creation_method	'MofGen! by Chris Wilmer'
_symmetry_space_group_name_H-M	'P1'
_symmetry_Int_Tables_number	1
_symmetry_cell_setting	triclinic
loop_
_symmetry_equiv_pos_as_xyz
  x,y,z
_cell_length_a	13.262522
_cell_length_b	11.804499
_cell_length_c	9.065218
_cell_angle_alpha	76.865764
_cell_angle_beta	95.286927
_cell_angle_gamma	118.756420
loop_
_atom_site_label
_atom_site_type_symbol
_atom_site_fract_x
_atom_site_fract_y
_atom_site_fract_z
O1	O	1.508246	0.587477	-0.357180
O2	O	1.182450	0.481967	-0.350330
O3	O	1.352082	0.536900	-0.139621
O4	O	1.338614	0.532544	-0.567890
O5	O	1.311181	0.325601	-0.082615
O6	O	1.141549	0.270668	-0.293325
O7	O	1.467345	0.376177	-0.300175
Cu8	Cu	1.300713	0.304129	-0.291544
Cu9	Cu	1.349083	0.554015	-0.358960
O10	O	1.297714	0.321244	-0.510884
C11	C	1.120269	0.362803	-0.316971
C12	C	0.995924	0.322534	-0.302484
C13	C	0.915217	0.188429	-0.264605
C14	C	0.798389	0.150585	-0.250976
C15	C	0.762254	0.246841	-0.275238
C16	C	0.842960	0.380948	-0.313128
C17	C	0.959801	0.418797	-0.326747
C18	C	0.806838	0.477208	-0.337379
C19	C	0.887544	0.611315	-0.375270
C20	C	1.004373	0.649157	-0.388887
C21	C	1.040508	0.552901	-0.364626
C22	C	0.689996	0.439359	-0.323761
C23	C	0.734580	0.669726	-0.385903
C24	C	0.851409	0.707571	-0.399532
N25	N	1.266700	0.128376	-0.244128
C26	C	1.464790	-0.181433	-0.520255
C27	C	1.490515	-0.048442	-0.556147
C28	C	1.434564	-0.004231	-0.478144
C29	C	1.352882	-0.093024	-0.364246
C30	C	1.327148	-0.226031	-0.328359
C31	C	1.296922	-0.048828	-0.286248
C32	C	1.215240	-0.137622	-0.172350
C33	C	1.189511	-0.270615	-0.136468
C34	C	1.245462	-0.314826	-0.214470
C35	C	1.322656	0.084178	-0.322135
C36	C	1.185014	0.039581	-0.130239
C37	C	1.159289	-0.093411	-0.094347
C38	C	1.529527	0.495344	-0.333534
C39	C	1.653874	0.535622	-0.348024
C40	C	1.330337	0.430833	-0.056034
C41	C	1.326468	0.429586	0.108100
N42	N	1.383104	0.729772	-0.406366
C43	C	1.319459	0.427314	-0.594472
C44	C	1.323329	0.428570	-0.758607
H45	H	0.944652	0.110073	-0.244843
O46	O	1.220392	-0.444043	-0.179345
C47	C	1.107947	-0.659372	-0.022559
C48	C	1.136232	-0.513069	-0.062176
H49	H	1.039884	-0.715228	0.072153
H50	H	1.189118	-0.666948	0.016365
H51	H	1.073845	-0.704272	-0.126962
H52	H	1.170306	-0.468078	0.042164
H53	H	1.055032	-0.505585	-0.101159
O54	O	0.611588	0.309121	-0.286706
C55	C	0.465157	0.136391	-0.108641
C56	C	0.553929	0.283917	-0.150409
H57	H	0.418499	0.115972	0.001541
H58	H	0.511004	0.074038	-0.093528
H59	H	0.400190	0.109963	-0.203092
H60	H	0.618920	0.310469	-0.056009
H61	H	0.508003	0.346187	-0.165575
H62	H	1.135637	0.583708	-0.375725
O63	O	1.082617	0.779483	-0.425753
C64	C	1.114513	1.003983	-0.485852
C65	C	1.025781	0.856438	-0.444148
H66	H	1.068599	1.066245	-0.500705
H67	H	1.161113	1.024565	-0.596147
H68	H	1.179540	1.030371	-0.391460
H69	H	0.960684	0.829948	-0.538440
H70	H	0.979269	0.835934	-0.333807
O71	O	0.720141	0.020265	-0.214235
C72	C	0.688264	-0.204229	-0.153952
C73	C	0.777001	-0.056681	-0.195586
H74	H	0.734203	-0.266481	-0.138831
H75	H	0.623259	-0.230761	-0.248351
H76	H	0.641634	-0.224672	-0.043737
H77	H	0.823714	-0.036132	-0.305762
H78	H	0.841930	-0.030224	-0.101097
O79	O	1.079933	-0.179856	0.016197
C80	C	0.979285	-0.404516	0.156507
C81	C	1.069158	-0.306767	0.031260
H82	H	0.970562	-0.507139	0.168748
H83	H	0.892696	-0.408096	0.125236
H84	H	1.008125	-0.370646	0.268346
H85	H	1.040426	-0.340566	-0.080626
H86	H	1.155726	-0.303199	0.062660
O87	O	0.648772	0.210213	-0.262293
C88	C	0.481943	0.215291	-0.386615
C89	C	0.610482	0.256908	-0.401436
H90	H	0.450941	0.253002	-0.499105
H91	H	0.469186	0.259056	-0.294463
H92	H	0.430521	0.102906	-0.355321
H93	H	0.661986	0.369278	-0.432782
H94	H	0.623151	0.213046	-0.493551
H95	H	0.917136	0.816763	-0.430383
O96	O	1.459728	0.125013	-0.513143
C97	C	1.572126	0.340322	-0.669994
C98	C	1.543748	0.193989	-0.630487
H99	H	1.640041	0.396126	-0.764891
H100	H	1.606374	0.385325	-0.565681
H101	H	1.490898	0.347826	-0.708726
H102	H	1.624926	0.186368	-0.591789
H103	H	1.509453	0.149052	-0.734835
O104	O	1.130475	0.082393	-0.054593
C105	C	0.949286	0.061772	0.009870
C106	C	1.010908	0.013182	-0.075882
H107	H	0.852605	0.005817	-0.007285
H108	H	0.981610	0.172065	-0.035340
H109	H	0.968029	0.043344	0.135823
H110	H	0.992193	0.031519	-0.201847
H111	H	0.978577	-0.097097	-0.030548
H112	H	0.705161	0.748106	-0.405661
H113	H	1.389160	0.156462	-0.414873
O114	O	1.569925	0.037645	-0.666768
C115	C	1.703682	0.067821	-0.853372
C116	C	1.613787	-0.029810	-0.728099
H117	H	1.739154	0.013316	-0.903016
H118	H	1.776912	0.149876	-0.803418
H119	H	1.661466	0.112540	-0.946504
H120	H	1.655900	-0.074627	-0.634926
H121	H	1.540567	-0.111787	-0.778167
H122	H	1.510331	-0.217446	-0.583759
H123	H	1.122992	-0.342912	-0.043736
