data_functionalizedCrystal
_audit_creation_method	'MofGen! by Chris Wilmer'
_symmetry_space_group_name_H-M	'P1'
_symmetry_Int_Tables_number	1
_symmetry_cell_setting	triclinic
loop_
_symmetry_equiv_pos_as_xyz
  x,y,z
_cell_length_a	14.971506
_cell_length_b	14.519731
_cell_length_c	14.048226
_cell_angle_alpha	89.992586
_cell_angle_beta	89.993237
_cell_angle_gamma	83.655621
loop_
_atom_site_label
_atom_site_type_symbol
_atom_site_fract_x
_atom_site_fract_y
_atom_site_fract_z
O1	O	1.187012	0.120271	-0.079169
O2	O	1.687012	0.620271	0.420831
O3	O	0.926624	0.134644	-0.079170
O4	O	1.426624	0.634644	0.420830
O5	O	1.063712	-0.006783	-0.079161
O6	O	1.563712	0.493217	0.420839
O7	O	1.049924	0.261698	-0.079178
O8	O	1.549924	0.761698	0.420822
O9	O	1.063695	-0.006791	0.079160
O10	O	1.563695	0.493209	0.579160
O11	O	0.926607	0.134636	0.079151
O12	O	1.426607	0.634636	0.579151
O13	O	1.186996	0.120263	0.079152
O14	O	1.686996	0.620263	0.579152
Zn15	Zn	1.056799	0.127448	0.104288
Zn16	Zn	1.556799	0.627448	0.604288
Zn17	Zn	1.056821	0.127459	-0.104307
Zn18	Zn	1.556821	0.627459	0.395693
O19	O	1.049908	0.261690	0.079143
O20	O	1.549908	0.761690	0.579143
C21	C	0.893291	0.133994	-0.000010
C22	C	1.393291	0.633994	0.499990
C23	C	0.793993	0.132057	-0.000010
C24	C	1.293993	0.632057	0.499990
C25	C	0.355759	0.207754	-0.000024
C26	C	0.855759	0.707754	0.499976
C27	C	0.449060	0.209566	-0.000028
C28	C	0.949060	0.709566	0.499972
C29	C	0.506227	0.126473	-0.000019
C30	C	1.006227	0.626473	0.499981
C31	C	0.470089	0.041561	-0.000015
C32	C	0.970089	0.541561	0.499985
C33	C	0.376789	0.039750	-0.000017
C34	C	0.876789	0.539750	0.499983
C35	C	0.664554	0.045342	-0.000007
C36	C	1.164554	0.545342	0.499993
C37	C	0.757861	0.047153	-0.000002
C38	C	1.257861	0.547153	0.499998
C39	C	0.736826	0.215158	-0.000018
C40	C	1.236826	0.715158	0.499982
C41	C	0.643526	0.213347	-0.000021
C42	C	1.143526	0.713347	0.499979
C43	C	0.607394	0.128435	-0.000015
C44	C	1.107394	0.628435	0.499985
C45	C	1.063058	-0.041146	-0.000000
C46	C	1.563058	0.458854	0.500000
C47	C	1.061122	-0.143526	0.000000
C48	C	1.561122	0.356474	0.500000
C49	C	1.059549	-0.226669	-0.000002
C50	C	1.559549	0.273331	0.499998
C51	C	1.057583	-0.330977	-0.000009
C52	C	1.557583	0.169023	0.499991
C53	C	1.056023	-0.414115	-0.000015
C54	C	1.556023	0.085885	0.499985
C55	C	1.054058	-0.518429	-0.000021
C56	C	1.554058	-0.018429	0.499979
C57	C	1.220329	0.120913	-0.000011
C58	C	1.720329	0.620913	0.499989
C59	C	1.319626	0.122849	-0.000017
C60	C	1.819626	0.622849	0.499983
C61	C	1.050562	0.296053	-0.000020
C62	C	1.550562	0.796053	0.499980
C63	C	1.052498	0.398432	-0.000027
C64	C	1.552498	0.898432	0.499973
N65	N	1.056791	0.127440	0.246649
N66	N	1.556791	0.627440	0.746649
N67	N	1.056836	0.127460	-0.246667
N68	N	1.556836	0.627460	0.253333
C69	C	1.117512	0.064842	0.296471
C70	C	1.617512	0.564842	0.796471
C71	C	1.117518	0.064841	0.396129
C72	C	1.617518	0.564841	0.896129
C73	C	1.056806	0.127444	0.445963
C74	C	1.556806	0.627444	0.945963
C75	C	0.996078	0.190045	0.396134
C76	C	1.496078	0.690045	0.896134
C77	C	0.996068	0.190040	0.296478
C78	C	1.496068	0.690040	0.796478
C79	C	0.996104	0.190052	0.603848
C80	C	1.496104	0.690052	1.103848
C81	C	0.996114	0.190058	0.703511
C82	C	1.496114	0.690058	1.203511
C83	C	1.117554	0.064853	0.703499
C84	C	1.617554	0.564853	1.203499
C85	C	1.117544	0.064848	0.603843
C86	C	1.617544	0.564848	1.103843
C87	C	1.056817	0.127450	0.554021
C88	C	1.556817	0.627450	1.054021
H89	H	0.596982	0.281009	-0.000022
H90	H	1.096982	0.781009	0.499978
H91	H	0.478475	0.278704	-0.000043
H92	H	0.978475	0.778704	0.499957
H93	H	0.946650	0.241026	0.563286
H94	H	1.446650	0.741026	1.063286
C95	C	0.776562	0.308561	-0.000026
C96	C	1.276562	0.808561	0.499974
H97	H	0.729153	0.357789	-0.000018
H98	H	1.229153	0.857789	0.499982
H99	H	0.812528	0.312768	-0.055234
H100	H	1.312528	0.812768	0.444766
H101	H	0.812514	0.312754	0.055193
H102	H	1.312514	0.812754	0.555193
C103	C	0.820743	-0.044248	-0.000016
C104	C	1.320743	0.455752	0.499984
H105	H	0.785863	-0.095078	-0.000031
H106	H	1.285863	0.404922	0.499969
H107	H	0.857576	-0.047048	0.055190
H108	H	1.357576	0.452952	0.555190
H109	H	0.857575	-0.047012	-0.055237
H110	H	1.357575	0.452988	0.444763
H111	H	0.946675	0.241034	0.744080
H112	H	1.446675	0.741034	1.244080
H113	H	0.309219	0.275419	-0.000025
H114	H	0.809219	0.775419	0.499975
H115	H	0.946641	0.241014	0.436714
H116	H	1.446641	0.741014	0.936714
C117	C	0.624811	-0.048059	0.000002
C118	C	1.124811	0.451941	0.500002
H119	H	0.672218	-0.097288	0.000018
H120	H	1.172218	0.402712	0.500018
H121	H	0.588858	-0.052260	-0.055208
H122	H	1.088858	0.447740	0.444792
H123	H	0.588846	-0.052254	0.055220
H124	H	1.088846	0.447746	0.555220
H125	H	0.516642	-0.026095	-0.000012
H126	H	1.016642	0.473905	0.499988
H127	H	1.167000	0.013880	0.744070
H128	H	1.667000	0.513880	1.244070
C129	C	1.184302	-0.004013	0.241658
C130	C	1.684302	0.495987	0.741658
H131	H	1.175609	0.004955	0.175170
H132	H	1.675609	0.504955	0.675170
H133	H	1.174497	-0.065582	0.258001
H134	H	1.674497	0.434418	0.758001
H135	H	1.244012	0.006122	0.257979
H136	H	1.744012	0.506122	0.757979
C137	C	0.929278	0.258902	0.241673
C138	C	1.429278	0.758902	0.741673
H139	H	0.893127	0.296193	0.285624
H140	H	1.393127	0.796193	0.785624
H141	H	0.891990	0.225659	0.202812
H142	H	1.391990	0.725659	0.702812
H143	H	0.961517	0.297351	0.202784
H144	H	1.461517	0.797351	0.702784
H145	H	0.347372	-0.029388	-0.000013
H146	H	0.847372	0.470612	0.499987
H147	H	1.166962	0.013869	0.436693
H148	H	1.666962	0.513869	0.936693
C149	C	1.184325	-0.004014	0.549027
C150	C	1.684325	0.495986	1.049027
H151	H	1.220488	-0.041303	0.592971
H152	H	1.720488	0.458697	1.092971
H153	H	1.221604	0.029226	0.510133
H154	H	1.721604	0.529226	1.010133
H155	H	1.152076	-0.042464	0.510170
H156	H	1.652076	0.457536	1.010170
