data_functionalizedCrystal
_audit_creation_method	'MofGen! by Chris Wilmer'
_symmetry_space_group_name_H-M	'P1'
_symmetry_Int_Tables_number	1
_symmetry_cell_setting	triclinic
loop_
_symmetry_equiv_pos_as_xyz
  x,y,z
_cell_length_a	23.532407
_cell_length_b	23.532361
_cell_length_c	9.798715
_cell_angle_alpha	90.000604
_cell_angle_beta	89.992208
_cell_angle_gamma	82.839173
loop_
_atom_site_label
_atom_site_type_symbol
_atom_site_fract_x
_atom_site_fract_y
_atom_site_fract_z
O1	O	0.069007	0.755276	-0.113368
O2	O	0.569007	1.255276	0.386632
O3	O	0.079038	0.589409	-0.113403
O4	O	0.579038	1.089409	0.386597
O5	O	-0.008910	0.677344	-0.113359
O6	O	0.491090	1.177344	0.386641
O7	O	0.156955	0.667341	-0.113411
O8	O	0.656955	1.167341	0.386589
O9	O	-0.008910	0.677338	0.113623
O10	O	0.491090	1.177338	0.613623
O11	O	0.079038	0.589403	0.113580
O12	O	0.579038	1.089403	0.613580
O13	O	0.069007	0.755270	0.113614
O14	O	0.569007	1.255270	0.613614
Zn15	Zn	0.074023	0.672335	0.149635
Zn16	Zn	0.574023	1.172335	0.649635
Zn17	Zn	0.074023	0.672344	-0.149424
Zn18	Zn	0.574023	1.172344	0.350576
O19	O	0.156955	0.667334	0.113571
O20	O	0.656955	1.167334	0.613571
C21	C	0.078787	0.568189	0.000084
C22	C	0.578787	1.068189	0.500084
C23	C	0.078032	0.504971	0.000072
C24	C	0.578032	1.004971	0.500072
C25	C	0.074728	0.231731	-0.123646
C26	C	0.574728	0.731731	0.376354
C27	C	0.075443	0.291130	-0.123650
C28	C	0.575443	0.791130	0.376350
O29	O	0.075793	0.321859	-0.228874
O30	O	0.575793	0.821859	0.271126
N31	N	0.075804	0.320832	0.000078
N32	N	0.575804	0.820832	0.500078
C33	C	0.075445	0.291133	0.123818
C34	C	0.575445	0.791133	0.623818
O35	O	0.075817	0.321851	0.229059
O36	O	0.575817	0.821851	0.729059
C37	C	0.074726	0.231734	0.123821
C38	C	0.574726	0.731734	0.623821
C39	C	0.074370	0.202035	0.000084
C40	C	0.574370	0.702035	0.500084
C41	C	0.074372	0.202031	-0.247373
C42	C	0.574372	0.702031	0.252627
C43	C	0.073659	0.142635	-0.247369
C44	C	0.573659	0.642635	0.252631
C45	C	0.073301	0.112939	-0.123638
C46	C	0.573301	0.612939	0.376362
C47	C	0.073657	0.142639	0.000088
C48	C	0.573657	0.642639	0.500088
C49	C	0.074362	0.202036	0.247559
C50	C	0.574362	0.702036	0.747559
C51	C	0.073642	0.142634	0.247551
C52	C	0.573642	0.642634	0.747551
C53	C	0.073287	0.112934	0.123814
C54	C	0.573287	0.612934	0.623814
C55	C	0.072585	0.053547	0.123823
C56	C	0.572585	0.553547	0.623823
N57	N	0.072224	0.023845	0.000094
N58	N	0.572224	0.523845	0.500094
C59	C	0.072582	0.053541	-0.123636
C60	C	0.572582	0.553541	0.376364
C61	C	0.076954	0.415873	0.123804
C62	C	0.576954	0.915873	0.623804
C63	C	0.077677	0.475269	0.123804
C64	C	0.577677	0.975269	0.623804
C65	C	0.077674	0.475263	-0.123665
C66	C	0.577674	0.975263	0.376335
C67	C	0.076955	0.415865	-0.123663
C68	C	0.576955	0.915865	0.376337
C69	C	0.076593	0.386171	0.000076
C70	C	0.576593	0.886171	0.500076
C71	C	0.071083	-0.071195	-0.123618
C72	C	0.571083	0.428805	0.376382
C73	C	0.070372	-0.130596	-0.123603
C74	C	0.570372	0.369404	0.376397
C75	C	0.070371	-0.130584	0.123865
C76	C	0.570371	0.369416	0.623865
C77	C	0.071086	-0.071189	0.123851
C78	C	0.571086	0.428811	0.623851
C79	C	0.071440	-0.041495	0.000098
C80	C	0.571440	0.458505	0.500098
O81	O	0.072232	0.022781	0.228993
O82	O	0.572232	0.522781	0.728993
O83	O	0.072202	0.022816	-0.228859
O84	O	0.572202	0.522816	0.271141
C85	C	-0.030126	0.677086	0.000135
C86	C	0.469874	1.177086	0.500135
C87	C	-0.093343	0.676320	0.000146
C88	C	0.406657	1.176320	0.500146
C89	C	-0.492454	0.723555	0.000081
C90	C	0.007546	1.223555	0.500081
C91	C	-0.551854	0.722844	0.000070
C92	C	-0.051854	1.222844	0.500070
O93	O	-0.588606	0.766630	0.000029
O94	O	-0.088606	1.266630	0.500029
N95	N	-0.574471	0.670566	0.000060
N96	N	-0.074471	1.170566	0.500060
C97	C	-0.537685	0.618997	0.000047
C98	C	-0.037685	1.118997	0.500047
O99	O	-0.562377	0.574465	0.000036
O100	O	-0.062377	1.074465	0.500036
C101	C	-0.478286	0.619709	0.000048
C102	C	0.021714	1.119709	0.500048
C103	C	-0.455672	0.671990	0.000072
C104	C	0.044328	1.171990	0.500072
C105	C	-0.469839	0.775832	0.000103
C106	C	0.030161	1.275832	0.500103
C107	C	-0.410443	0.776543	0.000116
C108	C	0.089557	1.276543	0.500116
C109	C	-0.373662	0.724977	0.000107
C110	C	0.126338	1.224977	0.500107
C111	C	-0.396276	0.672701	0.000085
C112	C	0.103724	1.172701	0.500085
C113	C	-0.441501	0.568140	0.000025
C114	C	0.058499	1.068140	0.500025
C115	C	-0.382099	0.568857	0.000024
C116	C	0.117901	1.068857	0.500024
C117	C	-0.359485	0.621137	0.000048
C118	C	0.140515	1.121137	0.500048
C119	C	-0.300099	0.621847	0.000088
C120	C	0.199901	1.121847	0.500088
N121	N	-0.277481	0.674124	0.000098
N122	N	0.222519	1.174124	0.500098
C123	C	-0.314263	0.725690	0.000108
C124	C	0.185737	1.225690	0.500108
C125	C	-0.662427	0.617505	0.000043
C126	C	-0.162427	1.117505	0.500043
C127	C	-0.721825	0.616793	0.000052
C128	C	-0.221825	1.116793	0.500052
C129	C	-0.735990	0.720640	0.000073
C130	C	-0.235990	1.220640	0.500073
C131	C	-0.676591	0.721352	0.000073
C132	C	-0.176591	1.221352	0.500073
C133	C	-0.639810	0.669783	0.000053
C134	C	-0.139810	1.169783	0.500053
C135	C	-0.189526	0.727179	0.000136
C136	C	0.310474	1.227179	0.500136
C137	C	-0.130124	0.727886	0.000155
C138	C	0.369876	1.227886	0.500155
C139	C	-0.115965	0.624039	0.000127
C140	C	0.384035	1.124039	0.500127
C141	C	-0.175361	0.623332	0.000115
C142	C	0.324639	1.123332	0.500115
C143	C	-0.212141	0.674907	0.000115
C144	C	0.287859	1.174907	0.500115
O145	O	-0.263312	0.578083	0.000124
O146	O	0.236688	1.078083	0.500124
O147	O	-0.289562	0.770214	0.000100
O148	O	0.210438	1.270214	0.500100
C149	C	0.178171	0.667592	0.000073
C150	C	0.678171	1.167592	0.500073
C151	C	0.241388	0.668358	0.000054
C152	C	0.741388	1.168358	0.500054
C153	C	0.069258	0.776489	0.000124
C154	C	0.569258	1.276489	0.500124
C155	C	0.070014	0.839708	0.000127
C156	C	0.570014	1.339708	0.500127
N157	N	0.074022	0.672333	0.353735
N158	N	0.574022	1.172333	0.853735
N159	N	0.074019	0.672350	-0.353523
N160	N	0.574019	1.172350	0.146477
C161	C	0.036935	0.709257	0.421530
C162	C	0.536935	1.209257	0.921530
C163	C	0.036933	0.709266	0.578693
C164	C	0.536933	1.209266	1.078693
H165	H	0.070084	-0.154775	-0.224369
H166	H	0.570084	0.345225	0.275631
H167	H	-0.658183	0.763923	0.000092
H168	H	-0.158183	1.263923	0.500092
H169	H	0.005182	0.740861	0.363223
H170	H	0.505182	1.240861	0.863223
H171	H	-0.086007	0.582056	0.000124
H172	H	0.413993	1.082056	0.500124
H173	H	0.076666	0.391687	-0.224420
H174	H	0.576666	0.891687	0.275580
H175	H	0.073367	0.118459	-0.348128
H176	H	0.573367	0.618459	0.151872
H177	H	0.077965	0.499452	-0.224414
H178	H	0.577965	0.999452	0.275586
H179	H	0.077975	0.499445	0.224562
H180	H	0.577975	0.999445	0.724562
H181	H	0.005183	0.740881	0.636994
H182	H	0.505183	1.240881	1.136994
H183	H	0.074662	0.226203	-0.348135
H184	H	0.574662	0.726203	0.151865
H185	H	0.074649	0.226208	0.348319
H186	H	0.574649	0.726208	0.848319
H187	H	0.073352	0.118459	0.348316
H188	H	0.573352	0.618459	0.848316
H189	H	0.076666	0.391698	0.224574
H190	H	0.576666	0.891698	0.724574
H191	H	0.105774	0.640738	0.588185
H192	H	0.605774	1.140738	1.088185
H193	H	-0.765949	0.762627	0.000075
H194	H	-0.265949	1.262627	0.500075
H195	H	0.071386	-0.047007	0.224607
H196	H	0.571386	0.452993	0.724607
H197	H	0.071372	-0.047025	-0.224389
H198	H	0.571372	0.452975	0.275611
H199	H	0.070082	-0.154774	0.224603
H200	H	0.570082	0.345226	0.724603
H201	H	-0.111716	0.770461	0.000178
H202	H	0.388284	1.270461	0.500178
H203	H	0.105770	0.640726	0.412044
H204	H	0.605770	1.140726	0.912044
H205	H	-0.219466	0.769176	0.000131
H206	H	0.280534	1.269176	0.500131
H207	H	-0.392037	0.819115	0.000130
H208	H	0.107963	1.319115	0.500130
H209	H	-0.740232	0.574220	0.000056
H210	H	-0.240232	1.074220	0.500056
H211	H	-0.352154	0.526862	0.000006
H212	H	0.147846	1.026862	0.500006
H213	H	-0.499782	0.817825	0.000105
H214	H	0.000218	1.317825	0.500105
H215	H	-0.632483	0.575509	0.000038
H216	H	-0.132483	1.075509	0.500038
H217	H	-0.459902	0.525567	-0.000003
H218	H	0.040098	1.025567	0.499997
H219	H	-0.193774	0.580761	0.000134
H220	H	0.306226	1.080761	0.500134
