data_functionalizedCrystal
_audit_creation_method	'MofGen! by Chris Wilmer'
_symmetry_space_group_name_H-M	'P1'
_symmetry_Int_Tables_number	1
_symmetry_cell_setting	triclinic
loop_
_symmetry_equiv_pos_as_xyz
  x,y,z
_cell_length_a	20.919287
_cell_length_b	20.919309
_cell_length_c	18.426585
_cell_angle_alpha	57.441572
_cell_angle_beta	86.846206
_cell_angle_gamma	60.708769
loop_
_atom_site_label
_atom_site_type_symbol
_atom_site_fract_x
_atom_site_fract_y
_atom_site_fract_z
Zr1	Zr	0.644061	0.700773	-0.166445
O2	O	0.547037	0.834340	-0.282162
O3	O	0.670194	0.567209	-0.126655
O4	O	0.675394	0.700778	-0.284285
O5	O	0.541843	0.700767	-0.005102
O6	O	0.780750	0.700778	-0.290869
O7	O	0.541837	0.700771	-0.124532
O8	O	0.771450	0.461849	-0.008898
O9	O	0.551143	0.939696	-0.287072
O10	O	0.764328	0.622146	-0.119814
O11	O	0.685705	0.622142	-0.025770
O12	O	0.691827	0.779401	-0.211359
O13	O	0.613204	0.779397	-0.117315
Zr14	Zr	0.812102	0.700767	0.013532
Zr15	Zr	0.812093	0.700774	-0.176946
Zr16	Zr	0.644070	0.700766	0.024033
Zr17	Zr	0.650611	0.868805	-0.174276
Zr18	Zr	0.805552	0.532736	0.021363
O19	O	0.785968	0.834331	-0.026258
O20	O	0.785956	0.834341	-0.297094
O21	O	0.547049	0.834329	-0.011326
O22	O	0.909126	0.567201	0.129249
O23	O	0.909114	0.567211	-0.141587
O24	O	0.670206	0.567199	0.144181
O25	O	0.914320	0.700774	-0.147812
O26	O	0.780769	0.700763	0.131371
O27	O	0.675412	0.700762	0.137956
O28	O	0.914325	0.700769	-0.028381
O29	O	0.684706	0.939697	-0.295420
O30	O	0.771457	0.461843	0.142507
O31	O	0.905020	0.461844	0.134159
O32	O	0.905013	0.461850	-0.017245
O33	O	0.551150	0.939690	-0.135668
O34	O	0.684713	0.939691	-0.144015
O35	O	0.764336	0.622139	0.058446
O36	O	0.842959	0.622143	-0.035598
O37	O	0.770457	0.779398	-0.127143
O38	O	0.691835	0.779395	-0.033099
C39	C	0.719889	0.490588	-0.066661
C40	C	0.717109	0.419254	-0.063336
C41	C	0.756840	0.385744	-0.110864
C42	C	0.754230	0.318713	-0.107732
C43	C	0.711883	0.285199	-0.057076
C44	C	0.672150	0.318713	-0.009542
C45	C	0.674765	0.385738	-0.012670
C46	C	0.701937	0.082824	-0.045171
C47	C	0.699322	0.015797	-0.042049
C48	C	0.781404	0.015800	-0.140238
C49	C	0.784012	0.082830	-0.143365
C50	C	0.744282	0.116334	-0.095828
C51	C	0.709211	0.216685	-0.053875
C52	C	0.746959	0.184843	-0.099024
C53	C	0.517899	0.700769	-0.063321
C54	C	0.446565	0.700768	-0.058862
C55	C	0.413049	0.700773	-0.122565
C56	C	0.346025	0.700768	-0.118372
C57	C	0.312516	0.700765	-0.050479
C58	C	0.346038	0.700757	0.013230
C59	C	0.413063	0.700756	0.009040
C60	C	0.110145	0.700763	-0.034532
C61	C	0.043114	0.700767	-0.030348
C62	C	0.043107	0.700776	-0.161950
C63	C	0.110131	0.700780	-0.166137
C64	C	0.143649	0.700768	-0.102425
C65	C	0.244006	0.700762	-0.046193
C66	C	0.212161	0.700764	-0.106708
C67	C	0.938264	0.700771	-0.089592
C68	C	1.009598	0.700772	-0.094051
C69	C	0.728071	0.700779	-0.314716
C70	C	0.728067	0.700782	-0.395579
C71	C	0.736274	0.910952	-0.086252
C72	C	0.739054	0.982286	-0.089577
C73	C	0.728096	0.700755	-0.691663
C74	C	0.728089	0.700759	-0.609282
C75	C	0.728081	0.700768	-0.543624
C76	C	0.728076	0.700772	-0.461237
C77	C	0.728092	0.700761	0.161803
C78	C	0.728095	0.700758	0.242666
C79	C	0.930071	0.490590	-0.079797
C80	C	0.998625	0.419256	-0.080930
C81	C	0.719900	0.490579	0.171599
C82	C	0.717123	0.419243	0.255786
C83	C	0.930082	0.490581	0.158463
C84	C	0.998639	0.419244	0.238192
C85	C	0.526081	0.910960	-0.311376
C86	C	0.457524	0.982296	-0.391105
C87	C	0.526091	0.910951	-0.073117
C88	C	0.457538	0.982284	-0.071983
C89	C	0.736263	0.910961	-0.324512
C90	C	0.739040	0.982298	-0.408699
C91	C	0.989774	0.385759	-0.125430
C92	C	1.054181	0.318743	-0.126513
C93	C	1.127439	0.285221	-0.083090
C94	C	1.136288	0.318725	-0.038589
C95	C	1.071882	0.385744	-0.037512
C96	C	0.756863	0.385741	0.339290
C97	C	0.754251	0.318721	0.418400
C98	C	0.711903	0.285201	0.414005
C99	C	0.672158	0.318710	0.330493
C100	C	0.674766	0.385732	0.251385
C101	C	1.071881	0.385746	0.226544
C102	C	1.136305	0.318727	0.301450
C103	C	1.127484	0.285203	0.388004
C104	C	1.054234	0.318708	0.399651
C105	C	0.989813	0.385730	0.324746
C106	C	0.384282	1.015802	-0.379457
C107	C	0.319859	1.082842	-0.454364
C108	C	0.328680	1.116369	-0.540919
C109	C	0.401930	1.082860	-0.552566
C110	C	0.466351	1.015826	-0.477659
C111	C	0.466389	1.015788	-0.027491
C112	C	0.401982	1.082823	-0.026430
C113	C	0.328725	1.116347	-0.069856
C114	C	0.319875	1.082840	-0.114354
C115	C	0.384281	1.015811	-0.115420
C116	C	0.781395	1.015797	-0.404276
C117	C	0.784019	1.082817	-0.483372
C118	C	0.744283	1.116340	-0.566892
C119	C	0.701927	1.082834	-0.571313
C120	C	0.699307	1.015811	-0.492218
H121	H	0.818495	0.110116	-0.184613
H122	H	0.642407	0.413001	0.183396
H123	H	1.079078	0.413031	0.156073
H124	H	0.669575	1.110140	-0.639326
H125	H	0.525986	0.988546	-0.487154
H126	H	0.377085	0.988508	-0.308987
H127	H	0.637679	0.291407	0.326928
H128	H	0.137429	0.700755	0.017344
H129	H	0.239449	0.700762	-0.161984
H130	H	1.079099	0.413009	-0.001269
H131	H	0.930130	0.413052	-0.160802
H132	H	0.526033	0.988498	0.007878
H133	H	0.276288	1.170926	-0.068981
H134	H	0.260222	1.110114	-0.444864
H135	H	0.260221	1.110146	-0.149710
H136	H	1.046961	0.291472	-0.162751
H137	H	0.791348	0.413026	0.342885
H138	H	0.409103	1.110167	-0.623047
H139	H	0.318753	0.700749	0.068515
H140	H	0.664834	-0.011487	-0.000799
H141	H	1.195943	0.291454	0.291951
H142	H	0.786620	0.291447	0.486391
H143	H	0.664814	0.988544	-0.495832
H144	H	0.781441	0.212128	-0.140264
H145	H	0.377064	0.988534	-0.151647
H146	H	0.276217	1.170952	-0.601905
H147	H	0.674732	0.189391	-0.012631
H148	H	1.179947	0.230630	0.448990
H149	H	0.409203	1.110093	0.009808
H150	H	0.813754	0.988512	-0.336277
H151	H	0.818509	1.110090	-0.479754
H152	H	1.179876	0.230649	-0.083973
H153	H	0.709786	0.230627	0.478427
H154	H	0.637674	0.291416	0.031708
H155	H	0.746422	1.170915	-0.631289
H156	H	1.195943	0.291422	-0.003236
H157	H	0.791320	0.413030	-0.152118
H158	H	0.813751	-0.011486	-0.178939
H159	H	0.669589	0.110092	-0.006459
H160	H	0.642409	0.413023	0.026030
H161	H	0.786583	0.291429	-0.146432
H162	H	0.440325	0.700782	-0.177854
H163	H	0.137413	0.700783	-0.221421
H164	H	0.015811	0.700785	-0.213820
H165	H	0.318737	0.700771	-0.170243
H166	H	0.440352	0.700750	0.060915
H167	H	0.015833	0.700765	0.024942
H168	H	1.047063	0.291403	0.470133
H169	H	0.216716	0.700762	0.009086
H170	H	0.930177	0.412996	0.334243
