data_functionalizedCrystal
_audit_creation_method	'MofGen! by Chris Wilmer'
_symmetry_space_group_name_H-M	'P1'
_symmetry_Int_Tables_number	1
_symmetry_cell_setting	triclinic
loop_
_symmetry_equiv_pos_as_xyz
  x,y,z
_cell_length_a	19.188930
_cell_length_b	16.109301
_cell_length_c	15.186229
_cell_angle_alpha	90.005167
_cell_angle_beta	90.017233
_cell_angle_gamma	83.303130
loop_
_atom_site_label
_atom_site_type_symbol
_atom_site_fract_x
_atom_site_fract_y
_atom_site_fract_z
O1	O	-0.926386	-0.103796	-0.073514
O2	O	-0.426386	0.396204	0.426486
O3	O	-0.723108	-0.117769	-0.073454
O4	O	-0.223108	0.382231	0.426546
O5	O	-0.830331	0.010267	-0.073477
O6	O	-0.330331	0.510267	0.426523
O7	O	-0.819163	-0.231832	-0.073492
O8	O	-0.319163	0.268168	0.426508
O9	O	-0.830324	0.010268	0.072980
O10	O	-0.330324	0.510268	0.572980
O11	O	-0.723101	-0.117767	0.073003
O12	O	-0.223101	0.382233	0.573003
O13	O	-0.926379	-0.103795	0.072943
O14	O	-0.426379	0.396205	0.572943
Zn15	Zn	-0.824739	-0.110781	0.096226
Zn16	Zn	-0.324739	0.389219	0.596226
Zn17	Zn	-0.824748	-0.110783	-0.096738
Zn18	Zn	-0.324748	0.389217	0.403262
O19	O	-0.819156	-0.231831	0.072965
O20	O	-0.319156	0.268169	0.572965
C21	C	-0.697092	-0.117316	-0.000218
C22	C	-0.197092	0.382684	0.499782
C23	C	-0.619584	-0.115958	-0.000195
C24	C	-0.119584	0.384042	0.499805
C25	C	-0.952395	-0.104248	-0.000296
C26	C	-0.452395	0.395752	0.499704
C27	C	-1.029903	-0.105606	-0.000325
C28	C	-0.529903	0.394394	0.499675
C29	C	-0.829875	0.041241	-0.000248
C30	C	-0.329875	0.541241	0.499752
C31	C	-0.828519	0.133532	-0.000246
C32	C	-0.328519	0.633532	0.499754
C33	C	-0.574836	-0.191085	-0.000213
C34	C	-0.074836	0.308915	0.499787
C35	C	-0.502009	-0.189809	-0.000223
C36	C	-0.002009	0.310191	0.499777
C37	C	-0.473934	-0.113401	-0.000232
C38	C	0.026066	0.386599	0.499768
C39	C	-0.518692	-0.038264	-0.000208
C40	C	-0.018692	0.461736	0.499792
C41	C	-0.591517	-0.039542	-0.000190
C42	C	-0.091517	0.460458	0.499810
N43	N	-0.365820	-0.054998	-0.050109
N44	N	0.134180	0.445002	0.449891
N45	N	-0.296638	-0.053788	-0.050129
N46	N	0.203362	0.446212	0.449871
C47	C	-0.254516	-0.109545	-0.000285
C48	C	0.245484	0.390455	0.499715
N49	N	-0.284188	-0.166569	0.049567
N50	N	0.215812	0.333431	0.549567
N51	N	-0.353375	-0.167781	0.049583
N52	N	0.146625	0.332219	0.549583
C53	C	-0.394968	-0.112007	-0.000251
C54	C	0.105032	0.387993	0.499749
C55	C	-0.130800	-0.183294	-0.000313
C56	C	0.369200	0.316706	0.499687
C57	C	-0.057973	-0.182015	-0.000317
C58	C	0.442027	0.317985	0.499683
C59	C	-0.074657	-0.030468	-0.000312
C60	C	0.425343	0.469532	0.499688
C61	C	-0.147483	-0.031749	-0.000299
C62	C	0.352517	0.468251	0.499701
C63	C	-0.175550	-0.108165	-0.000303
C64	C	0.324450	0.391835	0.499697
C65	C	-0.819612	-0.262805	-0.000266
C66	C	-0.319612	0.237195	0.499734
C67	C	-0.820968	-0.355096	-0.000273
C68	C	-0.320968	0.144904	0.499727
N69	N	-0.824737	-0.110779	0.227919
N70	N	-0.324737	0.389221	0.727919
C71	C	-0.888990	0.356005	-0.000278
C72	C	-0.388990	0.856005	0.499722
C73	C	-0.887710	0.442721	-0.000285
C74	C	-0.387710	0.942721	0.499715
C75	C	-0.760493	0.422425	-0.000244
C76	C	-0.260493	0.922425	0.499756
C77	C	-0.761773	0.335710	-0.000243
C78	C	-0.261773	0.835710	0.499757
C79	C	-0.826024	0.302503	-0.000256
C80	C	-0.326024	0.802503	0.499744
C81	C	-0.823463	0.475933	-0.000263
C82	C	-0.323463	0.975933	0.499737
C83	C	-0.822075	0.569955	-0.000271
C84	C	-0.322075	1.069955	0.499729
C85	C	-0.827412	0.208475	-0.000250
C86	C	-0.327412	0.708475	0.499750
N87	N	-0.824755	-0.110779	-0.228430
N88	N	-0.324755	0.389221	0.271570
C89	C	-0.872232	-0.054103	0.453632
C90	C	-0.372232	0.445897	0.953632
C91	C	-0.872234	-0.054101	0.545821
C92	C	-0.372234	0.445899	1.045821
C93	C	-0.777255	-0.167457	0.545850
C94	C	-0.277255	0.332543	1.045850
C95	C	-0.777250	-0.167454	0.453662
C96	C	-0.277250	0.332546	0.953662
C97	C	-0.824743	-0.110778	0.407555
C98	C	-0.324743	0.389222	0.907555
C99	C	-0.824750	-0.110779	0.591933
C100	C	-0.324750	0.389221	1.091933
C101	C	-0.824752	-0.110777	0.691889
C102	C	-0.324752	0.389223	1.191889
C103	C	-0.824740	-0.110779	0.307593
C104	C	-0.324740	0.389221	0.807593
H105	H	-0.597683	-0.253308	-0.000219
H106	H	-0.097683	0.246692	0.499781
H107	H	-0.708182	0.449473	-0.000232
H108	H	-0.208182	0.949473	0.499768
H109	H	-0.938983	0.486279	-0.000305
H110	H	-0.438983	0.986279	0.499695
O111	O	-0.731213	-0.222549	0.408803
O112	O	-0.231213	0.277451	0.908803
C113	C	-0.716323	-0.336170	0.304750
C114	C	-0.216323	0.163830	0.804750
C115	C	-0.768534	-0.273814	0.355481
C116	C	-0.268534	0.226186	0.855481
H117	H	-0.746477	-0.377645	0.261641
H118	H	-0.246477	0.122355	0.761641
H119	H	-0.681461	-0.300422	0.261551
H120	H	-0.181461	0.199578	0.761551
H121	H	-0.682371	-0.376645	0.353556
H122	H	-0.182371	0.123355	0.853556
H123	H	-0.802532	-0.233324	0.306739
H124	H	-0.302532	0.266676	0.806739
H125	H	-0.803348	-0.309613	0.398694
H126	H	-0.303348	0.190387	0.898694
H127	H	-0.910902	-0.007953	0.416093
H128	H	-0.410902	0.492047	0.916093
O129	O	-0.951339	0.323607	-0.000261
O130	O	-0.451339	0.823607	0.499739
C131	C	-1.009696	0.199016	-0.000337
C132	C	-0.509696	0.699016	0.499663
C133	C	-0.939036	0.235591	-0.000332
C134	C	-0.439036	0.735591	0.499668
H135	H	-0.999774	0.127851	-0.000413
H136	H	-0.499774	0.627851	0.499587
H137	H	-1.040823	0.221016	0.060957
H138	H	-0.540823	0.721016	0.560957
H139	H	-1.040808	0.221115	-0.061628
H140	H	-0.540808	0.721115	0.438372
H141	H	-0.907867	0.213509	0.060917
H142	H	-0.407867	0.713509	0.560917
H143	H	-0.907962	0.213595	-0.061666
H144	H	-0.407962	0.713595	0.438334
H145	H	-0.710496	0.292146	-0.000228
H146	H	-0.210496	0.792146	0.499772
H147	H	-0.910904	-0.007950	0.583334
H148	H	-0.410904	0.492050	1.083334
O149	O	-0.731195	-0.222482	0.590777
O150	O	-0.231195	0.277518	1.090777
C151	C	-0.689084	-0.272696	0.732810
C152	C	-0.189084	0.227304	1.232810
C153	C	-0.741294	-0.210345	0.682044
C154	C	-0.241294	0.289655	1.182044
H155	H	-0.697221	-0.262893	0.806608
H156	H	-0.197221	0.237107	1.306608
H157	H	-0.698166	-0.339279	0.714734
H158	H	-0.198166	0.160721	1.214734
H159	H	-0.633173	-0.262038	0.714661
H160	H	-0.133173	0.237962	1.214661
H161	H	-0.797225	-0.220926	0.700166
H162	H	-0.297225	0.279074	1.200166
H163	H	-0.732152	-0.143784	0.700124
H164	H	-0.232152	0.356216	1.200124
H165	H	-0.465568	-0.250988	-0.000235
H166	H	0.034432	0.249012	0.499765
H167	H	-0.495829	0.023948	-0.000228
H168	H	0.004171	0.523948	0.499772
H169	H	-0.153654	-0.245516	-0.000304
H170	H	0.346346	0.254484	0.499696
O171	O	-0.634890	0.033517	-0.000217
O172	O	-0.134890	0.533517	0.499783
C173	C	-0.643754	0.183963	-0.000159
C174	C	-0.143754	0.683963	0.499841
C175	C	-0.594553	0.101286	-0.000146
C176	C	-0.094553	0.601286	0.499854
H177	H	-0.611161	0.238776	-0.000082
H178	H	-0.111161	0.738776	0.499918
H179	H	-0.678274	0.187209	-0.061460
H180	H	-0.178274	0.687209	0.438540
H181	H	-0.678259	0.187106	0.061125
H182	H	-0.178259	0.687106	0.561125
H183	H	-0.560004	0.098087	-0.061388
H184	H	-0.060004	0.598087	0.438612
H185	H	-0.560081	0.098074	0.061196
H186	H	-0.060081	0.598074	0.561196
H187	H	-0.021538	-0.243195	-0.000327
H188	H	0.478462	0.256805	0.499673
O189	O	-0.047278	0.043683	-0.000361
O190	O	0.452722	0.543683	0.499639
C191	C	0.057519	0.112817	-0.000334
C192	C	0.557519	0.612817	0.499666
C193	C	0.026602	0.028781	-0.000302
C194	C	0.526602	0.528781	0.499698
H195	H	0.117254	0.100798	-0.000268
H196	H	0.617254	0.600798	0.499732
H197	H	0.039114	0.149940	-0.061637
H198	H	0.539114	0.649940	0.438363
H199	H	0.039068	0.149932	0.060947
H200	H	0.539068	0.649932	0.560947
H201	H	0.045038	-0.008402	-0.061542
H202	H	0.545038	0.491598	0.438458
H203	H	0.045003	-0.008279	0.061042
H204	H	0.545003	0.491721	0.561042
H205	H	-0.183919	0.029428	-0.000288
H206	H	0.316081	0.529428	0.499712
