data_functionalizedCrystal
_audit_creation_method	'MofGen! by Chris Wilmer'
_symmetry_space_group_name_H-M	'P1'
_symmetry_Int_Tables_number	1
_symmetry_cell_setting	triclinic
loop_
_symmetry_equiv_pos_as_xyz
  x,y,z
_cell_length_a	16.992694
_cell_length_b	11.792241
_cell_length_c	15.455313
_cell_angle_alpha	92.683265
_cell_angle_beta	87.142206
_cell_angle_gamma	87.430819
loop_
_atom_site_label
_atom_site_type_symbol
_atom_site_fract_x
_atom_site_fract_y
_atom_site_fract_z
O1	O	1.044827	0.236106	-0.072022
O2	O	1.544827	0.736106	0.427978
O3	O	0.816531	0.233463	-0.072048
O4	O	1.316531	0.733463	0.427952
O5	O	0.936219	0.070068	-0.072029
O6	O	1.436219	0.570068	0.427971
O7	O	0.925139	0.399501	-0.072042
O8	O	1.425139	0.899501	0.427958
O9	O	0.929374	0.079370	0.072232
O10	O	1.429374	0.579370	0.572232
O11	O	0.809687	0.242766	0.072213
O12	O	1.309687	0.742766	0.572213
O13	O	1.037982	0.245409	0.072239
O14	O	1.537982	0.745409	0.572239
Cu15	Cu	0.923210	0.244937	0.085398
Cu16	Cu	1.423210	0.744937	0.585398
Cu17	Cu	0.931304	0.233935	-0.085207
Cu18	Cu	1.431304	0.733935	0.414793
O19	O	0.918295	0.408804	0.072219
O20	O	1.418295	0.908804	0.572219
C21	C	0.783882	0.234716	0.000079
C22	C	1.283882	0.734716	0.500079
C23	C	0.696795	0.224578	0.000070
C24	C	1.196795	0.724578	0.500070
C25	C	0.646971	0.322395	0.000066
C26	C	1.146971	0.822395	0.500066
C27	C	0.565143	0.312864	0.000079
C28	C	1.065143	0.812864	0.500079
C29	C	0.533142	0.205513	0.000088
C30	C	1.033142	0.705513	0.500088
C31	C	0.582973	0.107688	0.000094
C32	C	1.082973	0.607688	0.500094
C33	C	0.664799	0.117221	0.000088
C34	C	1.164799	0.617221	0.500088
C35	C	0.289375	0.166002	0.000113
C36	C	0.789375	0.666002	0.500113
C37	C	0.207543	0.156476	0.000117
C38	C	0.707543	0.656476	0.500117
C39	C	0.189719	0.361652	0.000103
C40	C	0.689719	0.861652	0.500103
C41	C	0.271548	0.371176	0.000091
C42	C	0.771548	0.871176	0.500091
C43	C	0.321371	0.273351	0.000102
C44	C	0.821371	0.773351	0.500102
N45	N	0.449501	0.195767	0.000098
N46	N	0.949501	0.695767	0.500098
N47	N	0.405010	0.283098	0.000098
N48	N	0.905010	0.783098	0.500098
C49	C	0.932101	0.032371	0.000102
C50	C	1.432101	0.532371	0.500102
C51	C	0.930017	-0.093813	0.000101
C52	C	1.430017	0.406187	0.500101
C53	C	0.926187	-0.324840	0.000086
C54	C	1.426187	0.175160	0.500086
C55	C	0.928315	-0.196280	0.000094
C56	C	1.428315	0.303720	0.500094
C57	C	1.070631	0.244155	0.000109
C58	C	1.570631	0.744155	0.500109
C59	C	1.157718	0.254293	0.000113
C60	C	1.657718	0.754293	0.500113
C61	C	0.922413	0.446501	0.000087
C62	C	1.422413	0.946501	0.500087
C63	C	0.924497	0.572684	0.000082
C64	C	1.424497	1.072684	0.500082
N65	N	0.917522	0.252674	0.205393
N66	N	1.417522	0.752674	0.705393
N67	N	0.936998	0.226189	-0.205202
N68	N	1.436998	0.726189	0.294798
C69	C	0.968388	0.183287	0.250795
C70	C	1.468388	0.683287	0.750795
C71	C	0.964094	0.189150	0.341602
C72	C	1.464094	0.689150	0.841602
C73	C	0.908938	0.264406	0.387005
C74	C	1.408938	0.764406	0.887005
C75	C	0.858067	0.333796	0.341597
C76	C	1.358067	0.833796	0.841597
C77	C	0.862358	0.327927	0.250791
C78	C	1.362358	0.827927	0.750791
C79	C	0.890417	0.289710	0.658584
C80	C	1.390417	0.789710	1.158584
C81	C	0.886132	0.295576	0.749396
C82	C	1.386132	0.795576	1.249396
C83	C	0.992158	0.150928	0.749395
C84	C	1.492158	0.650928	1.249395
C85	C	0.996447	0.145070	0.658588
C86	C	1.496447	0.645070	1.158588
C87	C	0.945574	0.214455	0.613187
C88	C	1.445574	0.714455	1.113187
N89	N	0.904549	0.270403	0.479825
N90	N	1.404549	0.770403	0.979825
N91	N	0.949959	0.208452	0.520369
N92	N	1.449959	0.708452	1.020369
H93	H	0.705366	0.037568	0.000090
H94	H	1.205366	0.537568	0.500090
O95	O	1.027872	0.102094	0.201839
O96	O	1.527872	0.602094	0.701839
H97	H	0.996564	0.041222	0.160484
H98	H	1.496564	0.541222	0.660484
H99	H	0.556910	0.020282	0.000114
H100	H	1.056910	0.520282	0.500114
H101	H	0.841215	0.356864	0.786359
H102	H	1.341215	0.856864	1.286359
H103	H	0.297597	0.458591	0.000074
H104	H	0.797597	0.958591	0.500074
H105	H	0.329932	0.086346	0.000122
H106	H	0.829932	0.586346	0.500122
H107	H	0.149144	0.441295	0.000096
H108	H	0.649144	0.941295	0.500096
O109	O	0.173022	0.040686	0.000135
O110	O	0.673022	0.540686	0.500135
H111	H	0.221413	-0.025736	0.000150
H112	H	0.721413	0.474264	0.500150
H113	H	1.005512	0.132648	0.378568
H114	H	1.505512	0.632648	0.878568
O115	O	1.055930	0.063890	0.609616
O116	O	1.555930	0.563890	1.109616
H117	H	1.090574	0.016616	0.656444
H118	H	1.590574	0.516616	1.156444
O119	O	0.807501	0.402771	0.201814
O120	O	1.307501	0.902771	0.701814
H121	H	0.768431	0.456096	0.248639
H122	H	1.268431	0.956096	0.748639
O123	O	0.835557	0.364554	0.609620
O124	O	1.335557	0.864554	1.109620
H125	H	0.796492	0.417879	0.656450
H126	H	1.296492	0.917879	1.156450
O127	O	1.047026	0.076086	0.798358
O128	O	1.547026	0.576086	1.298358
H129	H	1.011823	0.020544	0.839735
H130	H	1.511823	0.520544	1.339735
O131	O	0.681486	0.438182	0.000065
O132	O	1.181486	0.938182	0.500065
H133	H	0.633088	0.504599	0.000076
H134	H	1.133088	1.004599	0.500076
O135	O	0.511401	0.418365	0.000076
O136	O	1.011401	0.918365	0.500076
H137	H	0.547401	0.494613	0.000058
H138	H	1.047401	0.994613	0.500058
O139	O	0.798578	0.414974	0.390560
O140	O	1.298578	0.914974	0.890560
H141	H	0.804146	0.407410	0.461332
H142	H	1.304146	0.907410	0.961332
