data_functionalizedCrystal
_audit_creation_method	'MofGen! by Chris Wilmer'
_symmetry_space_group_name_H-M	'P1'
_symmetry_Int_Tables_number	1
_symmetry_cell_setting	triclinic
loop_
_symmetry_equiv_pos_as_xyz
  x,y,z
_cell_length_a	19.805407
_cell_length_b	18.215405
_cell_length_c	18.215399
_cell_angle_alpha	90.030551
_cell_angle_beta	89.979366
_cell_angle_gamma	89.975115
loop_
_atom_site_label
_atom_site_type_symbol
_atom_site_fract_x
_atom_site_fract_y
_atom_site_fract_z
Zn1	Zn	1.034750	0.292992	-0.416118
Zn2	Zn	1.534750	0.792992	0.083882
Zn3	Zn	1.034666	0.416063	-0.293046
Zn4	Zn	1.534666	0.916063	0.206954
Zn5	Zn	0.921562	0.293015	-0.293064
Zn6	Zn	1.421562	0.793015	0.206936
Zn7	Zn	0.921531	0.416021	-0.416070
Zn8	Zn	1.421531	0.916021	0.083930
O9	O	0.978127	0.354523	-0.354575
O10	O	1.478127	0.854523	0.145425
O11	O	1.129455	0.309325	-0.399806
O12	O	1.629455	0.809325	0.100194
O13	O	1.019640	0.399768	-0.190064
O14	O	1.519640	0.899768	0.309936
O15	O	0.936625	0.190028	-0.309415
O16	O	1.436625	0.690028	0.190585
O17	O	1.129393	0.399745	-0.309385
O18	O	1.629393	0.899745	0.190615
O19	O	1.019784	0.190011	-0.399823
O20	O	1.519784	0.690011	0.100177
O21	O	0.936544	0.309365	-0.190077
O22	O	1.436544	0.809365	0.309923
O23	O	0.826842	0.309324	-0.309368
O24	O	1.326842	0.809324	0.190632
O25	O	0.936572	0.399674	-0.519060
O26	O	1.436572	0.899674	-0.019060
O27	O	0.826819	0.399696	-0.399740
O28	O	1.326819	0.899696	0.100260
O29	O	1.019753	0.309285	-0.519096
O30	O	1.519753	0.809285	-0.019096
O31	O	1.019610	0.519042	-0.309338
O32	O	1.519610	1.019042	0.190662
O33	O	0.936490	0.519011	-0.399723
O34	O	1.436490	1.019011	0.100277
C35	C	0.802271	0.354509	-0.354551
C36	C	1.302271	0.854509	0.145449
C37	C	0.727039	0.354520	-0.354558
C38	C	1.227039	0.854520	0.145442
C39	C	0.978056	0.545729	-0.354539
C40	C	1.478056	1.045729	0.145461
C41	C	0.978087	0.627528	-0.354549
C42	C	1.478087	1.127528	0.145451
C43	C	0.978169	0.354472	-0.546528
C44	C	1.478169	0.854472	-0.046528
C45	C	0.978186	0.354450	-0.628327
C46	C	1.478186	0.854450	-0.128327
C47	C	0.691701	0.401648	-0.401538
C48	C	1.191701	0.901648	0.098462
C49	C	0.621012	0.401649	-0.401549
C50	C	1.121012	0.901649	0.098451
C51	C	0.585664	0.354526	-0.354575
C52	C	1.085664	0.854526	0.145425
C53	C	0.621007	0.307393	-0.307592
C54	C	1.121007	0.807393	0.192408
C55	C	0.691694	0.307389	-0.307586
C56	C	1.191694	0.807389	0.192414
C57	C	0.335934	0.307410	-0.307616
C58	C	0.835934	0.807410	0.192384
C59	C	0.265242	0.307419	-0.307625
C60	C	0.765242	0.807419	0.192375
C61	C	0.265252	0.401670	-0.401579
C62	C	0.765252	0.901670	0.098421
C63	C	0.335939	0.401666	-0.401573
C64	C	0.835939	0.901666	0.098427
C65	C	0.371276	0.354530	-0.354594
C66	C	0.871276	0.854530	0.145406
C67	C	0.447925	0.354529	-0.354584
C68	C	0.947925	0.854529	0.145416
C69	C	0.509017	0.354531	-0.354580
C70	C	1.009017	0.854531	0.145420
C71	C	1.154670	0.354537	-0.354599
C72	C	1.654670	0.854537	0.145401
C73	C	1.229902	0.354544	-0.354609
C74	C	1.729902	0.854544	0.145391
C75	C	0.978217	0.162570	-0.354626
C76	C	1.478217	0.662570	0.145374
C77	C	0.978256	0.080771	-0.354648
C78	C	1.478256	0.580771	0.145352
C79	C	1.021469	0.815713	-0.307572
C80	C	1.521469	1.315713	0.192428
C81	C	1.021499	0.892572	-0.307590
C82	C	1.521499	1.392572	0.192410
C83	C	0.934872	0.892580	-0.401630
C84	C	1.434872	1.392580	0.098370
C85	C	0.934846	0.815723	-0.401615
C86	C	1.434846	1.315723	0.098385
C87	C	0.978143	0.777291	-0.354582
C88	C	1.478143	1.277291	0.145418
C89	C	0.978200	0.931007	-0.354615
C90	C	1.478200	1.431007	0.145385
C91	C	0.978232	1.014341	-0.354634
C92	C	1.478232	1.514341	0.145366
C93	C	0.978112	0.693952	-0.354563
C94	C	1.478112	1.193952	0.145437
C95	C	1.021514	0.307341	-0.816540
C96	C	1.521514	0.807341	-0.316540
C97	C	1.021522	0.307319	-0.893399
C98	C	1.521522	0.807319	-0.393399
C99	C	0.934906	0.401446	-0.893351
C100	C	1.434906	0.901446	-0.393351
C101	C	0.934895	0.401463	-0.816493
C102	C	1.434895	0.901463	-0.316493
C103	C	0.978203	0.354412	-0.778090
C104	C	1.478203	0.854412	-0.278090
C105	C	0.978222	0.354373	-0.931806
C106	C	1.478222	0.854373	-0.431806
C107	C	0.978230	0.354350	-1.015140
C108	C	1.478230	0.854350	-0.515140
C109	C	0.978194	0.354433	-0.694751
C110	C	1.478194	0.854433	-0.194751
C111	C	0.978125	0.354520	-0.163368
C112	C	1.478125	0.854520	0.336632
C113	C	0.978239	0.354334	-0.081570
C114	C	1.478239	0.854334	0.418430
H115	H	0.592243	0.440026	-0.439804
H116	H	1.092243	0.940026	0.060196
H117	H	1.056781	0.923852	-0.269310
H118	H	1.556781	1.423852	0.230690
C119	C	0.887242	0.934857	-0.453355
C120	C	1.387242	1.434857	0.046645
H121	H	0.893457	0.986133	-0.446626
H122	H	1.393457	1.486133	0.053374
H123	H	0.897112	0.922219	-0.502811
H124	H	1.397112	1.422219	-0.002811
H125	H	0.841765	0.922306	-0.442526
H126	H	1.341765	1.422306	0.057474
H127	H	0.899564	0.784437	-0.439900
H128	H	1.399564	1.284437	0.060100
C129	C	1.069168	0.255545	-0.935691
C130	C	1.569168	0.755545	-0.435691
H131	H	1.094961	0.227531	-0.901810
H132	H	1.594961	0.727531	-0.401810
H133	H	1.043298	0.223469	-0.965677
H134	H	1.543298	0.723469	-0.465677
H135	H	1.098652	0.283697	-0.965671
H136	H	1.598652	0.783697	-0.465671
C137	C	0.374796	0.255576	-0.255929
C138	C	0.874796	0.755576	0.244071
H139	H	0.343618	0.227522	-0.227947
H140	H	0.843618	0.727522	0.272053
H141	H	0.402397	0.223540	-0.284126
H142	H	0.902397	0.723540	0.215874
H143	H	0.402344	0.283695	-0.223809
H144	H	0.902344	0.783695	0.276191
C145	C	1.069142	0.255577	-0.774299
C146	C	1.569142	0.755577	-0.274299
H147	H	1.094932	0.227535	-0.808209
H148	H	1.594932	0.727535	-0.308209
H149	H	1.098619	0.283731	-0.744312
H150	H	1.598619	0.783731	-0.244312
H151	H	1.043252	0.223516	-0.744325
H152	H	1.543252	0.723516	-0.244325
H153	H	0.899621	0.439794	-0.785186
H154	H	1.399621	0.939794	-0.285186
C155	C	0.730578	0.453483	-0.453212
C156	C	1.230578	0.953483	0.046788
H157	H	0.699405	0.481545	-0.481198
H158	H	1.199405	0.981545	0.018802
H159	H	0.758132	0.485512	-0.425003
H160	H	1.258132	0.985512	0.074997
H161	H	0.758174	0.425365	-0.485329
H162	H	1.258174	0.925365	0.014671
C163	C	0.374819	0.453498	-0.453247
C164	C	0.874819	0.953498	0.046753
H165	H	0.343648	0.481562	-0.481234
H166	H	0.843648	0.981562	0.018766
H167	H	0.402374	0.485526	-0.425038
H168	H	0.902374	0.985526	0.074962
H169	H	0.402414	0.425378	-0.485362
H170	H	0.902414	0.925378	0.014638
H171	H	0.592221	0.269022	-0.269348
H172	H	1.092221	0.769022	0.230652
C173	C	0.887275	0.453206	-0.935593
C174	C	1.387275	0.953206	-0.435593
H175	H	0.861475	0.481238	-0.901683
H176	H	1.361475	0.981238	-0.401683
H177	H	0.913157	0.485265	-0.965570
H178	H	1.413157	0.985265	-0.465570
H179	H	0.857798	0.425043	-0.965577
H180	H	1.357798	0.925043	-0.465577
C181	C	0.226379	0.453511	-0.453264
C182	C	0.726379	0.953511	0.046736
H183	H	0.179218	0.446761	-0.446549
H184	H	0.679218	0.946761	0.053451
H185	H	0.237942	0.502943	-0.442402
H186	H	0.737942	1.002943	0.057598
H187	H	0.237991	0.442799	-0.502731
H188	H	0.737991	0.942799	-0.002731
H189	H	0.236463	0.269041	-0.269372
H190	H	0.736463	0.769041	0.230628
H191	H	0.720466	0.269009	-0.269334
H192	H	1.220466	0.769009	0.230666
H193	H	1.056726	0.784424	-0.269276
H194	H	1.556726	1.284424	0.230724
