data_functionalizedCrystal
_audit_creation_method	'MofGen! by Chris Wilmer'
_symmetry_space_group_name_H-M	'P1'
_symmetry_Int_Tables_number	1
_symmetry_cell_setting	triclinic
loop_
_symmetry_equiv_pos_as_xyz
  x,y,z
_cell_length_a	17.077404
_cell_length_b	16.625546
_cell_length_c	17.077396
_cell_angle_alpha	90.030215
_cell_angle_beta	90.019501
_cell_angle_gamma	90.022693
loop_
_atom_site_label
_atom_site_type_symbol
_atom_site_fract_x
_atom_site_fract_y
_atom_site_fract_z
Zn1	Zn	1.200057	-0.320997	0.443833
Zn2	Zn	1.533390	0.012337	0.777167
Zn3	Zn	1.866724	0.345670	1.110500
Zn4	Zn	1.199965	-0.455839	0.312563
Zn5	Zn	1.533298	-0.122506	0.645897
Zn6	Zn	1.866632	0.210827	0.979230
Zn7	Zn	1.068789	-0.321025	0.312581
Zn8	Zn	1.402122	0.012308	0.645915
Zn9	Zn	1.735455	0.345642	0.979248
Zn10	Zn	1.068758	-0.455792	0.443787
Zn11	Zn	1.402091	-0.122458	0.777120
Zn12	Zn	1.735424	0.210875	1.110454
O13	O	1.134392	-0.388413	0.378191
O14	O	1.467725	-0.055080	0.711524
O15	O	1.801059	0.278253	1.044858
O16	O	1.309892	-0.338892	0.426432
O17	O	1.643225	-0.005559	0.759765
O18	O	1.976558	0.327775	1.093099
O19	O	1.182539	-0.437988	0.202719
O20	O	1.515872	-0.104655	0.536052
O21	O	1.849205	0.228679	0.869385
O22	O	1.086253	-0.208189	0.330019
O23	O	1.419587	0.125144	0.663352
O24	O	1.752920	0.458478	0.996686
O25	O	1.309824	-0.437960	0.329988
O26	O	1.643157	-0.104627	0.663322
O27	O	1.976491	0.228706	0.996655
O28	O	1.182695	-0.208168	0.426449
O29	O	1.516029	0.125165	0.759783
O30	O	1.849362	0.458499	1.093116
O31	O	1.086164	-0.338940	0.202732
O32	O	1.419497	-0.005607	0.536065
O33	O	1.752831	0.327726	0.869399
O34	O	0.958938	-0.338894	0.329974
O35	O	1.292271	-0.005561	0.663307
O36	O	1.625604	0.327773	0.996641
O37	O	1.086200	-0.437879	0.553640
O38	O	1.419534	-0.104546	0.886973
O39	O	1.752867	0.228788	1.220307
O40	O	0.958915	-0.437906	0.426370
O41	O	1.292248	-0.104573	0.759704
O42	O	1.625582	0.228760	1.093037
O43	O	1.182665	-0.338846	0.553674
O44	O	1.515999	-0.005512	0.887007
O45	O	1.849332	0.327821	1.220341
O46	O	1.182509	-0.568666	0.329943
O47	O	1.515842	-0.235332	0.663277
O48	O	1.849175	0.098001	0.996610
O49	O	1.086111	-0.568630	0.426353
O50	O	1.419444	-0.235297	0.759686
O51	O	1.752778	0.098036	1.093020
C52	C	0.930444	-0.388399	0.378169
C53	C	1.263778	-0.055065	0.711503
C54	C	1.597111	0.278268	1.044836
C55	C	0.843194	-0.388412	0.378179
C56	C	1.176528	-0.055078	0.711512
C57	C	1.509861	0.278255	1.044845
C58	C	0.802213	-0.440045	0.428292
C59	C	1.135546	-0.106712	0.761625
C60	C	1.468880	0.226621	1.094959
C61	C	0.720232	-0.440047	0.428304
C62	C	1.053566	-0.106714	0.761638
C63	C	1.386899	0.226620	1.094971
C64	C	0.679235	-0.388419	0.378199
C65	C	1.012568	-0.055085	0.711533
C66	C	1.345902	0.278248	1.044866
C67	C	0.720222	-0.336780	0.328084
C68	C	1.053556	-0.003446	0.661418
C69	C	1.386889	0.329887	0.994751
C70	C	0.802201	-0.336774	0.328076
C71	C	1.135535	-0.003441	0.661410
C72	C	1.468868	0.329892	0.994743
C73	C	0.549352	-0.336795	0.328103
C74	C	0.882686	-0.003462	0.661436
C75	C	1.216019	0.329871	0.994770
C76	C	0.467368	-0.336801	0.328110
C77	C	0.800701	-0.003468	0.661443
C78	C	1.134034	0.329865	0.994776
C79	C	0.467383	-0.440068	0.428331
C80	C	0.800717	-0.106735	0.761665
C81	C	1.134050	0.226598	1.094998
C82	C	0.549362	-0.440063	0.428323
C83	C	0.882696	-0.106730	0.761657
C84	C	1.216029	0.226604	1.094990
C85	C	0.590344	-0.388425	0.378207
C86	C	0.923677	-0.055091	0.711540
C87	C	1.257011	0.278242	1.044873
C88	C	1.134318	-0.597904	0.378158
C89	C	1.467651	-0.264571	0.711492
C90	C	1.800984	0.068763	1.044825
C91	C	1.134358	-0.687525	0.378170
C92	C	1.467691	-0.354192	0.711504
C93	C	1.801024	-0.020859	1.044837
C94	C	1.134495	-1.015701	0.378252
C95	C	1.467828	-0.682367	0.711586
C96	C	1.801161	-0.349034	1.044919
C97	C	1.134454	-0.924392	0.378232
C98	C	1.467787	-0.591059	0.711565
C99	C	1.801121	-0.257726	1.044898
C100	C	1.134426	-0.851616	0.378211
C101	C	1.467759	-0.518283	0.711544
C102	C	1.801092	-0.184949	1.044878
C103	C	1.134386	-0.760302	0.378191
C104	C	1.467720	-0.426968	0.711525
C105	C	1.801053	-0.093635	1.044858
C106	C	1.339136	-0.388428	0.378213
C107	C	1.672470	-0.055095	0.711547
C108	C	2.005803	0.278238	1.044880
C109	C	1.426386	-0.388435	0.378223
C110	C	1.759719	-0.055102	0.711556
C111	C	2.093053	0.278232	1.044889
C112	C	1.134440	-0.388354	0.582936
C113	C	1.467773	-0.055021	0.916269
C114	C	1.801106	0.278313	1.249602
C115	C	1.134460	-0.388329	0.670185
C116	C	1.467793	-0.054995	1.003519
C117	C	1.801126	0.278338	1.336852
C118	C	1.134488	-0.178104	0.378241
C119	C	1.467821	0.155229	0.711575
C120	C	1.801155	0.488562	1.044908
C121	C	1.134529	-0.088483	0.378263
C122	C	1.467862	0.244850	0.711596
C123	C	1.801196	0.578183	1.044929
C124	C	1.134390	-0.388414	0.174243
C125	C	1.467723	-0.055081	0.507577
C126	C	1.801057	0.278252	0.840910
C127	C	1.134522	-0.388212	0.086994
C128	C	1.467855	-0.054879	0.420327
C129	C	1.801188	0.278454	0.753661
C130	C	1.184691	-0.336758	0.711195
C131	C	1.518024	-0.003424	1.044528
C132	C	1.851358	0.329909	1.377861
C133	C	1.184700	-0.336731	0.793175
C134	C	1.518034	-0.003397	1.126508
C135	C	1.851367	0.329936	1.459842
C136	C	1.134482	-0.388280	0.834145
C137	C	1.467815	-0.054946	1.167478
C138	C	1.801149	0.278387	1.500812
C139	C	1.084245	-0.439853	0.793130
C140	C	1.417579	-0.106519	1.126463
C141	C	1.750912	0.226814	1.459797
C142	C	1.084233	-0.439875	0.711151
C143	C	1.417566	-0.106541	1.044484
C144	C	1.750899	0.226792	1.377818
C145	C	1.084277	-0.439804	0.964000
C146	C	1.417610	-0.106471	1.297333
C147	C	1.750944	0.226862	1.630667
C148	C	1.084291	-0.439783	1.045985
C149	C	1.417624	-0.106450	1.379318
C150	C	1.750957	0.226883	1.712651
C151	C	1.184745	-0.336660	1.046024
C152	C	1.518078	-0.003327	1.379358
C153	C	1.851411	0.330007	1.712691
C154	C	1.184732	-0.336682	0.964045
C155	C	1.518065	-0.003349	1.297379
C156	C	1.851399	0.329984	1.630712
C157	C	1.134496	-0.388257	0.923036
C158	C	1.467829	-0.054923	1.256369
C159	C	1.801163	0.278410	1.589703
H160	H	0.686836	-0.294739	0.287291
H161	H	1.020169	0.038594	0.620625
H162	H	1.353502	0.371927	0.953958
O163	O	1.233390	-0.286566	0.671436
O164	O	1.566724	0.046768	1.004770
O165	O	1.900057	0.380101	1.338103
C166	C	1.216284	-0.206200	0.691504
C167	C	1.549618	0.127134	1.024837
C168	C	1.882951	0.460467	1.358171
H169	H	1.153579	-0.202121	0.714027
H170	H	1.486912	0.131212	1.047361
H171	H	1.820246	0.464546	1.380694
H172	H	1.223057	-0.166377	0.637605
H173	H	1.556390	0.166957	0.970938
H174	H	1.889723	0.500290	1.304272
H175	H	1.258384	-0.185114	0.739105
H176	H	1.591717	0.148219	1.072438
H177	H	1.925051	0.481552	1.405772
O178	O	0.842047	-0.286534	0.279505
O179	O	1.175380	0.046800	0.612839
O180	O	1.508713	0.380133	0.946172
C181	C	0.889517	-0.234523	0.324281
C182	C	1.222850	0.098810	0.657615
C183	C	1.556184	0.432143	0.990948
H184	H	0.864841	-0.229626	0.386117
H185	H	1.198175	0.103708	0.719450
H186	H	1.531508	0.437041	1.052784
H187	H	0.890453	-0.172434	0.295999
H188	H	1.223786	0.160899	0.629332
H189	H	1.557119	0.494232	0.962666
H190	H	0.951641	-0.259451	0.326934
H191	H	1.284974	0.073882	0.660268
H192	H	1.618308	0.407216	0.993601
H193	H	1.225605	-0.294739	0.826561
H194	H	1.558939	0.038595	1.159894
H195	H	1.892272	0.371928	1.493228
O196	O	0.680514	-0.490174	0.477087
O197	O	1.013847	-0.156841	0.810421
O198	O	1.347181	0.176492	1.143754
C199	C	0.700574	-0.472654	0.555355
C200	C	1.033907	-0.139321	0.888688
C201	C	1.367241	0.194012	1.222022
H202	H	0.760104	-0.441651	0.557033
H203	H	1.093437	-0.108317	0.890367
H204	H	1.426770	0.225016	1.223700
H205	H	0.703384	-0.530899	0.590439
H206	H	1.036717	-0.197566	0.923773
H207	H	1.370050	0.135767	1.257106
H208	H	0.654457	-0.431249	0.581882
H209	H	0.987791	-0.097915	0.915215
H210	H	1.321124	0.235418	1.248549
H211	H	1.225629	-0.294711	0.930690
H212	H	1.558962	0.038622	1.264023
H213	H	1.892295	0.371955	1.597356
H214	H	1.043397	-0.481757	1.079340
H215	H	1.376730	-0.148424	1.412674
H216	H	1.710063	0.184910	1.746007
H217	H	1.043321	-0.481861	0.677762
H218	H	1.376655	-0.148528	1.011096
H219	H	1.709988	0.184806	1.344429
O220	O	1.233616	-0.286531	1.085735
O221	O	1.566949	0.046802	1.419068
O222	O	1.900283	0.380136	1.752401
C223	C	1.277926	-0.241028	1.031995
C224	C	1.611260	0.092306	1.365328
C225	C	1.944593	0.425639	1.698661
H226	H	1.280619	-0.274073	0.973551
H227	H	1.613952	0.059260	1.306884
H228	H	1.947286	0.392594	1.640218
H229	H	1.339782	-0.232427	1.055695
H230	H	1.673115	0.100906	1.389028
H231	H	2.006448	0.434239	1.722362
H232	H	1.249211	-0.179789	1.023283
H233	H	1.582545	0.153544	1.356617
H234	H	1.915878	0.486878	1.689950
O235	O	1.035466	-0.489993	0.924284
O236	O	1.368800	-0.156659	1.257617
O237	O	1.702133	0.176674	1.590951
C238	C	0.991139	-0.535482	0.978022
C239	C	1.324473	-0.202148	1.311355
C240	C	1.657806	0.131185	1.644688
H241	H	1.023292	-0.538241	1.036469
H242	H	1.356626	-0.204908	1.369803
H243	H	1.689959	0.128426	1.703136
H244	H	0.982757	-0.599022	0.954324
H245	H	1.316091	-0.265688	1.287658
H246	H	1.649424	0.067645	1.620991
H247	H	0.931526	-0.505968	0.986725
H248	H	1.264859	-0.172634	1.320058
H249	H	1.598193	0.160699	1.653392
H250	H	0.582717	-0.294739	0.287300
H251	H	0.916050	0.038595	0.620633
H252	H	1.249384	0.371928	0.953967
H253	H	1.043354	-0.481822	0.826494
H254	H	1.376687	-0.148488	1.159827
H255	H	1.710021	0.184845	1.493161
H256	H	0.582740	-0.482108	0.469119
H257	H	0.916074	-0.148774	0.802452
H258	H	1.249407	0.184559	1.135786
O259	O	0.842121	-0.490086	0.477004
O260	O	1.175454	-0.156752	0.810337
O261	O	1.508788	0.176581	1.143671
C262	C	0.889563	-0.444241	0.527792
C263	C	1.222896	-0.110908	0.861125
C264	C	1.556230	0.222426	1.194458
H265	H	0.901853	-0.383101	0.500211
H266	H	1.235187	-0.049767	0.833544
H267	H	1.568520	0.283566	1.166877
H268	H	0.947204	-0.477094	0.538251
H269	H	1.280537	-0.143761	0.871584
H270	H	1.613871	0.189572	1.204917
H271	H	0.857996	-0.435458	0.585981
H272	H	1.191329	-0.102124	0.919315
H273	H	1.524663	0.231209	1.252648
H274	H	0.434012	-0.482112	0.469140
H275	H	0.767346	-0.148778	0.802474
H276	H	1.100679	0.184555	1.135807
H277	H	0.433990	-0.294752	0.287319
H278	H	0.767323	0.038582	0.620653
H279	H	1.100656	0.371915	0.953986
