data_functionalizedCrystal
_audit_creation_method	'MofGen! by Chris Wilmer'
_symmetry_space_group_name_H-M	'P1'
_symmetry_Int_Tables_number	1
_symmetry_cell_setting	triclinic
loop_
_symmetry_equiv_pos_as_xyz
  x,y,z
_cell_length_a	6.817900
_cell_length_b	14.858565
_cell_length_c	16.255661
_cell_angle_alpha	95.050358
_cell_angle_beta	103.488922
_cell_angle_gamma	104.523916
loop_
_atom_site_label
_atom_site_type_symbol
_atom_site_fract_x
_atom_site_fract_y
_atom_site_fract_z
V1	V	-4.031916	-0.129422	-0.264108
V2	V	-3.781916	0.120578	-0.014108
V3	V	-3.531916	0.370578	0.235892
V4	V	-3.281916	0.620578	0.485892
O5	O	-4.013971	0.005446	-0.258838
O6	O	-3.763971	0.255446	-0.008838
O7	O	-3.513971	0.505446	0.241162
O8	O	-3.263971	0.755446	0.491162
O9	O	-3.988552	-0.255878	-0.262536
O10	O	-3.738552	-0.005878	-0.012536
O11	O	-3.488552	0.244122	0.237464
O12	O	-3.238552	0.494122	0.487464
O13	O	-3.983411	-0.127770	-0.379189
O14	O	-3.733411	0.122230	-0.129189
O15	O	-3.483411	0.372230	0.120811
O16	O	-3.233411	0.622230	0.370811
O17	O	-4.019148	-0.123549	-0.141377
O18	O	-3.769148	0.126451	0.108623
O19	O	-3.519148	0.376451	0.358623
O20	O	-3.269148	0.626451	0.608623
V21	V	-4.514905	-0.113250	-0.249400
V22	V	-4.264905	0.136750	0.000600
V23	V	-4.014905	0.386750	0.250600
V24	V	-3.764905	0.636750	0.500600
O25	O	-4.294346	-0.164896	-0.296372
O26	O	-4.044346	0.085104	-0.046372
O27	O	-3.794346	0.335104	0.203628
O28	O	-3.544346	0.585104	0.453628
O29	O	-4.702672	-0.077776	-0.217137
O30	O	-4.452672	0.172224	0.032863
O31	O	-4.202672	0.422224	0.282863
O32	O	-3.952672	0.672224	0.532863
O33	O	-4.335062	0.013206	-0.250973
O34	O	-4.085062	0.263206	-0.000973
O35	O	-3.835062	0.513206	0.249027
O36	O	-3.585062	0.763206	0.499027
O37	O	-4.650246	-0.248118	-0.254671
O38	O	-4.400246	0.001882	-0.004671
O39	O	-4.150246	0.251882	0.245329
O40	O	-3.900246	0.501882	0.495329
O41	O	-4.645069	-0.119123	-0.372131
O42	O	-4.395069	0.130877	-0.122131
O43	O	-4.145069	0.380877	0.127869
O44	O	-3.895069	0.630877	0.377869
O45	O	-4.340202	-0.114902	-0.134320
O46	O	-4.090202	0.135098	0.115680
O47	O	-3.840202	0.385098	0.365680
O48	O	-3.590202	0.635098	0.615680
C49	C	-3.834781	-0.286695	-0.258429
C50	C	-3.584781	-0.036695	-0.008429
C51	C	-3.334781	0.213305	0.241571
C52	C	-3.084781	0.463305	0.491571
C53	C	-3.880612	-0.390077	-0.257911
C54	C	-3.630612	-0.140077	-0.007911
C55	C	-3.380612	0.109923	0.242089
C56	C	-3.130612	0.359923	0.492089
C57	C	-4.048360	-0.768643	-0.256023
C58	C	-3.798360	-0.518643	-0.006023
C59	C	-3.548360	-0.268643	0.243977
C60	C	-3.298360	-0.018643	0.493977
C61	C	-4.001679	-0.663314	-0.256547
C62	C	-3.751679	-0.413314	-0.006547
C63	C	-3.501679	-0.163314	0.243453
C64	C	-3.251679	0.086686	0.493453
C65	C	-3.964487	-0.579363	-0.256966
C66	C	-3.714487	-0.329363	-0.006966
C67	C	-3.464487	-0.079363	0.243034
C68	C	-3.214487	0.170637	0.493034
C69	C	-3.917804	-0.474028	-0.257492
C70	C	-3.667804	-0.224028	-0.007492
C71	C	-3.417804	0.025972	0.242508
C72	C	-3.167804	0.275972	0.492508
C73	C	-3.828223	-0.123279	-0.407231
C74	C	-3.578223	0.126721	-0.157231
C75	C	-3.328223	0.376721	0.092769
C76	C	-3.078223	0.626721	0.342769
C77	C	-3.869882	-0.122766	-0.501311
C78	C	-3.619882	0.127234	-0.251311
C79	C	-3.369882	0.377234	-0.001311
C80	C	-3.119882	0.627234	0.248689
C81	C	-3.780192	-0.116631	-0.724119
C82	C	-3.530192	0.133369	-0.474119
C83	C	-3.280192	0.383369	-0.224119
C84	C	-3.030192	0.633369	0.025881
C85	C	-3.939791	-0.195814	-0.793740
C86	C	-3.689791	0.054186	-0.543740
C87	C	-3.439791	0.304186	-0.293740
C88	C	-3.189791	0.554186	-0.043740
C89	C	-3.946228	-0.121803	-0.673558
C90	C	-3.696228	0.128197	-0.423558
C91	C	-3.446228	0.378197	-0.173558
C92	C	-3.196228	0.628197	0.076442
C93	C	-3.860882	-0.041714	-0.771572
C94	C	-3.610882	0.208286	-0.521572
C95	C	-3.360882	0.458286	-0.271572
C96	C	-3.110882	0.708286	-0.021572
C97	C	-4.019958	-0.120868	-0.839940
C98	C	-3.769958	0.129132	-0.589940
C99	C	-3.519958	0.379132	-0.339940
C100	C	-3.269958	0.629132	-0.089940
C101	C	-4.105312	-0.201056	-0.741950
C102	C	-3.855312	0.048944	-0.491950
C103	C	-3.605312	0.298944	-0.241950
C104	C	-3.355312	0.548944	0.008050
C105	C	-4.026338	-0.046887	-0.719766
C106	C	-3.776338	0.203113	-0.469766
C107	C	-3.526338	0.453113	-0.219766
C108	C	-3.276338	0.703113	0.030234
C109	C	-4.186075	-0.126092	-0.789368
C110	C	-3.936075	0.123908	-0.539368
C111	C	-3.686075	0.373908	-0.289368
C112	C	-3.436075	0.623908	-0.039368
C113	C	-3.903748	-0.122342	-0.577710
C114	C	-3.653748	0.127658	-0.327710
C115	C	-3.403748	0.377658	-0.077710
C116	C	-3.153748	0.627658	0.172290
C117	C	-4.062455	-0.120336	-0.935788
C118	C	-3.812455	0.129664	-0.685788
C119	C	-3.562455	0.379664	-0.435788
C120	C	-3.312455	0.629664	-0.185788
C121	C	-4.152175	0.044018	-0.255077
C122	C	-3.902175	0.294018	-0.005077
C123	C	-3.652175	0.544018	0.244923
C124	C	-3.402175	0.794018	0.494923
C125	C	-4.085582	0.147399	-0.255601
C126	C	-3.835582	0.397399	-0.005601
C127	C	-3.585582	0.647399	0.244399
C128	C	-3.335582	0.897399	0.494399
C129	C	-4.158733	-0.119396	-0.106273
C130	C	-3.908733	0.130604	0.143727
C131	C	-3.658733	0.380604	0.393727
C132	C	-3.408733	0.630604	0.643727
C133	C	-4.096312	-0.119904	-0.012192
C134	C	-3.846312	0.130096	0.237808
C135	C	-3.596312	0.380096	0.487808
C136	C	-3.346312	0.630096	0.737808
H137	H	-3.608281	-0.112733	-0.695631
H138	H	-3.358281	0.137267	-0.445631
H139	H	-3.108281	0.387267	-0.195631
H140	H	-2.858281	0.637267	0.054369
H141	H	-3.757940	0.025610	-0.785059
H142	H	-3.507940	0.275610	-0.535059
H143	H	-3.257940	0.525610	-0.285059
H144	H	-3.007940	0.775610	-0.035059
H145	H	-4.358109	-0.130113	-0.817722
H146	H	-4.108109	0.119887	-0.567722
H147	H	-3.858109	0.369887	-0.317722
H148	H	-3.608109	0.619887	-0.067722
Br149	Br	-4.086446	0.058063	-0.666053
Br150	Br	-3.836446	0.308063	-0.416053
Br151	Br	-3.586446	0.558063	-0.166053
Br152	Br	-3.336446	0.808063	0.083947
Br153	Br	-4.276876	-0.313418	-0.719717
Br154	Br	-4.026876	-0.063418	-0.469717
Br155	Br	-3.776876	0.186582	-0.219717
Br156	Br	-3.526876	0.436582	0.030283
Br157	Br	-3.879563	-0.300758	-0.847412
Br158	Br	-3.629563	-0.050758	-0.597412
Br159	Br	-3.379563	0.199242	-0.347412
Br160	Br	-3.129563	0.449242	-0.097412
