data_functionalizedCrystal
_audit_creation_method	'MofGen! by Chris Wilmer'
_symmetry_space_group_name_H-M	'P1'
_symmetry_Int_Tables_number	1
_symmetry_cell_setting	triclinic
loop_
_symmetry_equiv_pos_as_xyz
  x,y,z
_cell_length_a	10.685976
_cell_length_b	10.685382
_cell_length_c	10.686551
_cell_angle_alpha	98.411574
_cell_angle_beta	89.651515
_cell_angle_gamma	89.636898
loop_
_atom_site_label
_atom_site_type_symbol
_atom_site_fract_x
_atom_site_fract_y
_atom_site_fract_z
Zn1	Zn	1.922088	0.609693	-0.518995
Zn2	Zn	1.887304	0.835418	-0.293363
Zn3	Zn	1.696410	0.607326	-0.325537
Zn4	Zn	1.696392	0.803194	-0.521457
O5	O	1.800549	0.713908	-0.414838
O6	O	2.091818	0.654113	-0.474569
O7	O	1.847433	0.817656	-0.121210
O8	O	1.740912	0.431202	-0.363634
O9	O	2.066263	0.819952	-0.308798
O10	O	1.906716	0.432941	-0.505767
O11	O	1.707184	0.650078	-0.144848
O12	O	1.522063	0.618831	-0.366021
O13	O	1.740880	0.765030	-0.697551
O14	O	1.522050	0.762734	-0.509963
O15	O	1.906698	0.622866	-0.695743
O16	O	1.847415	1.007581	-0.311185
O17	O	1.707152	0.983906	-0.478765
C18	C	1.476851	0.687030	-0.441751
C19	C	1.338371	0.675560	-0.453292
C20	C	1.773543	1.041493	-0.391775
C21	C	1.762107	1.181642	-0.381942
C22	C	2.125510	0.740891	-0.387820
C23	C	2.263990	0.752390	-0.376307
C24	C	1.827667	0.690618	-0.743670
C25	C	1.839223	0.680693	-0.883799
C26	C	1.827628	1.385037	-0.438032
C27	C	1.838995	1.244876	-0.447958
C28	C	1.773615	0.737022	-0.087286
C29	C	1.762330	0.746611	0.052837
H30	H	1.296113	0.601008	-0.528039
C31	C	1.321073	0.853120	-0.275323
C32	C	1.464212	0.864847	-0.263521
C33	C	1.521295	0.965574	-0.162540
C34	C	1.435239	1.054574	-0.073360
C35	C	1.292091	1.042850	-0.085160
C36	C	1.235008	0.942122	-0.186141
H37	H	1.527924	0.798961	-0.329539
H38	H	1.627263	0.974253	-0.153805
H39	H	1.477496	1.129139	0.001392
H40	H	1.228380	1.108735	-0.019141
H41	H	1.129040	0.933444	-0.194875
H42	H	1.913573	1.191796	-0.512007
C43	C	1.661341	1.253346	-0.295415
C44	C	1.699937	1.355399	-0.185704
C45	C	1.599173	1.427103	-0.099178
C46	C	1.459813	1.396753	-0.122364
C47	C	1.421210	1.294694	-0.232080
C48	C	1.521974	1.222991	-0.318606
H49	H	1.803106	1.377871	-0.168536
H50	H	1.627750	1.502654	-0.017959
H51	H	1.385221	1.449832	-0.058313
H52	H	1.318041	1.272223	-0.249248
H53	H	1.493396	1.147440	-0.399825
C54	C	1.661445	0.833111	-0.875635
C55	C	1.560760	0.776694	-0.797063
C56	C	1.459874	0.863195	-0.725527
C57	C	1.459674	1.006115	-0.732562
C58	C	1.560363	1.062540	-0.811137
C59	C	1.661249	0.976038	-0.882673
H60	H	1.560905	0.670890	-0.791853
H61	H	1.385337	0.821425	-0.667360
H62	H	1.384992	1.070148	-0.679606
H63	H	1.560219	1.168344	-0.816347
H64	H	1.735786	1.017809	-0.940840
H65	H	1.913905	0.616667	-0.936758
