data_functionalizedCrystal
_audit_creation_method	'MofGen! by Chris Wilmer'
_symmetry_space_group_name_H-M	'P1'
_symmetry_Int_Tables_number	1
_symmetry_cell_setting	triclinic
loop_
_symmetry_equiv_pos_as_xyz
  x,y,z
_cell_length_a	18.215407
_cell_length_b	18.215405
_cell_length_c	18.215399
_cell_angle_alpha	89.967040
_cell_angle_beta	89.983176
_cell_angle_gamma	90.025333
loop_
_atom_site_label
_atom_site_type_symbol
_atom_site_fract_x
_atom_site_fract_y
_atom_site_fract_z
Zn1	Zn	1.125050	-0.292966	-0.416103
Zn2	Zn	1.375050	-0.042966	-0.166103
Zn3	Zn	1.625050	0.207034	0.083897
Zn4	Zn	1.875050	0.457034	0.333897
Zn5	Zn	1.124965	-0.416042	-0.293031
Zn6	Zn	1.374965	-0.166042	-0.043031
Zn7	Zn	1.624965	0.083958	0.206969
Zn8	Zn	1.874965	0.333958	0.456969
Zn9	Zn	1.001989	-0.292995	-0.293050
Zn10	Zn	1.251989	-0.042995	-0.043050
Zn11	Zn	1.501989	0.207005	0.206950
Zn12	Zn	1.751989	0.457005	0.456950
Zn13	Zn	1.001949	-0.415996	-0.416056
Zn14	Zn	1.251949	-0.165996	-0.166056
Zn15	Zn	1.501949	0.084004	0.083944
Zn16	Zn	1.751949	0.334004	0.333944
O17	O	1.063488	-0.354500	-0.354560
O18	O	1.313488	-0.104500	-0.104560
O19	O	1.563488	0.145500	0.145440
O20	O	1.813488	0.395500	0.395440
O21	O	1.228023	-0.309299	-0.399788
O22	O	1.478023	-0.059299	-0.149788
O23	O	1.728023	0.190701	0.100212
O24	O	1.978023	0.440701	0.350212
O25	O	1.108633	-0.399751	-0.190049
O26	O	1.358633	-0.149751	0.059951
O27	O	1.608633	0.100249	0.309951
O28	O	1.858633	0.350249	0.559951
O29	O	1.018366	-0.190007	-0.309401
O30	O	1.268366	0.059993	-0.059401
O31	O	1.518366	0.309993	0.190599
O32	O	1.768366	0.559993	0.440599
O33	O	1.227961	-0.399723	-0.309368
O34	O	1.477961	-0.149723	-0.059368
O35	O	1.727961	0.100277	0.190632
O36	O	1.977961	0.350277	0.440632
O37	O	1.108778	-0.189985	-0.399807
O38	O	1.358778	0.060015	-0.149807
O39	O	1.608778	0.310015	0.100193
O40	O	1.858778	0.560015	0.350193
O41	O	1.018283	-0.309349	-0.190063
O42	O	1.268283	-0.059349	0.059937
O43	O	1.518283	0.190651	0.309937
O44	O	1.768283	0.440651	0.559937
O45	O	0.898999	-0.309304	-0.309355
O46	O	1.148999	-0.059304	-0.059355
O47	O	1.398999	0.190696	0.190645
O48	O	1.648999	0.440696	0.440645
O49	O	1.018297	-0.399644	-0.519046
O50	O	1.268297	-0.149644	-0.269046
O51	O	1.518297	0.100356	-0.019046
O52	O	1.768297	0.350356	0.230954
O53	O	0.898970	-0.399672	-0.399727
O54	O	1.148970	-0.149672	-0.149727
O55	O	1.398970	0.100328	0.100273
O56	O	1.648970	0.350328	0.350273
O57	O	1.108739	-0.309254	-0.519081
O58	O	1.358739	-0.059254	-0.269081
O59	O	1.608739	0.190746	-0.019081
O60	O	1.858739	0.440746	0.230919
O61	O	1.108594	-0.519020	-0.309322
O62	O	1.358594	-0.269020	-0.059322
O63	O	1.608594	-0.019020	0.190678
O64	O	1.858594	0.230980	0.440678
O65	O	1.018214	-0.518986	-0.399708
O66	O	1.268214	-0.268986	-0.149708
O67	O	1.518214	-0.018986	0.100292
O68	O	1.768214	0.231014	0.350292
C69	C	0.872282	-0.354487	-0.354539
C70	C	1.122282	-0.104487	-0.104539
C71	C	1.372282	0.145513	0.145461
C72	C	1.622282	0.395513	0.395461
C73	C	0.790483	-0.354499	-0.354547
C74	C	1.040483	-0.104499	-0.104547
C75	C	1.290483	0.145501	0.145453
C76	C	1.540483	0.395501	0.395453
C77	C	0.602293	-0.401628	-0.401545
C78	C	0.852293	-0.151628	-0.151545
C79	C	1.102293	0.098372	0.098455
C80	C	1.352293	0.348372	0.348455
C81	C	0.525434	-0.401630	-0.401554
C82	C	0.775434	-0.151630	-0.151554
C83	C	1.025434	0.098370	0.098446
C84	C	1.275434	0.348370	0.348446
C85	C	0.525436	-0.307384	-0.307591
C86	C	0.775436	-0.057384	-0.057591
C87	C	1.025436	0.192616	0.192409
C88	C	1.275436	0.442616	0.442409
C89	C	0.602293	-0.307379	-0.307586
C90	C	0.852293	-0.057379	-0.057586
C91	C	1.102293	0.192621	0.192414
C92	C	1.352293	0.442621	0.442414
C93	C	0.640720	-0.354505	-0.354562
C94	C	0.890720	-0.104505	-0.104562
C95	C	1.140720	0.145495	0.145438
C96	C	1.390720	0.395495	0.395438
C97	C	0.487003	-0.354513	-0.354576
C98	C	0.737003	-0.104513	-0.104576
C99	C	0.987003	0.145487	0.145424
C100	C	1.237003	0.395487	0.395424
C101	C	0.403670	-0.354515	-0.354585
C102	C	0.653670	-0.104515	-0.104585
C103	C	0.903670	0.145485	0.145415
C104	C	1.153670	0.395485	0.395415
C105	C	0.724059	-0.354502	-0.354553
C106	C	0.974059	-0.104502	-0.104553
C107	C	1.224059	0.145498	0.145447
C108	C	1.474059	0.395498	0.395447
C109	C	1.063410	-0.545706	-0.354524
C110	C	1.313410	-0.295706	-0.104524
C111	C	1.563410	-0.045706	0.145476
C112	C	1.813410	0.204294	0.395476
C113	C	1.063445	-0.627505	-0.354534
C114	C	1.313445	-0.377505	-0.104534
C115	C	1.563445	-0.127505	0.145466
C116	C	1.813445	0.122495	0.395466
C117	C	1.110616	-0.815692	-0.307556
C118	C	1.360616	-0.565692	-0.057556
C119	C	1.610616	-0.315692	0.192444
C120	C	1.860616	-0.065692	0.442444
C121	C	1.110649	-0.892551	-0.307574
C122	C	1.360649	-0.642551	-0.057574
C123	C	1.610649	-0.392551	0.192426
C124	C	1.860649	-0.142551	0.442426
C125	C	1.016455	-0.892555	-0.401616
C126	C	1.266455	-0.642555	-0.151616
C127	C	1.516455	-0.392555	0.098384
C128	C	1.766455	-0.142555	0.348384
C129	C	1.016426	-0.815698	-0.401601
C130	C	1.266426	-0.565698	-0.151601
C131	C	1.516426	-0.315698	0.098399
C132	C	1.766426	-0.065698	0.348399
C133	C	1.063506	-0.777268	-0.354567
C134	C	1.313506	-0.527268	-0.104567
C135	C	1.563506	-0.277268	0.145433
C136	C	1.813506	-0.027268	0.395433
C137	C	1.063567	-0.930984	-0.354600
C138	C	1.313567	-0.680984	-0.104600
C139	C	1.563567	-0.430984	0.145400
C140	C	1.813567	-0.180984	0.395400
C141	C	1.063602	-1.014318	-0.354619
C142	C	1.313602	-0.764318	-0.104619
C143	C	1.563602	-0.514318	0.145381
C144	C	1.813602	-0.264318	0.395381
C145	C	1.063471	-0.693929	-0.354548
C146	C	1.313471	-0.443929	-0.104548
C147	C	1.563471	-0.193929	0.145452
C148	C	1.813471	0.056071	0.395452
C149	C	1.255441	-0.354513	-0.354581
C150	C	1.505441	-0.104513	-0.104581
C151	C	1.755441	0.145487	0.145419
C152	C	2.005441	0.395487	0.395419
C153	C	1.337240	-0.354518	-0.354591
C154	C	1.587240	-0.104518	-0.104591
C155	C	1.837240	0.145482	0.145409
C156	C	2.087240	0.395482	0.395409
C157	C	1.063523	-0.354441	-0.546513
C158	C	1.313523	-0.104441	-0.296513
C159	C	1.563523	0.145559	-0.046513
C160	C	1.813523	0.395559	0.203487
C161	C	1.063538	-0.354416	-0.628312
C162	C	1.313538	-0.104416	-0.378312
C163	C	1.563538	0.145584	-0.128312
C164	C	1.813538	0.395584	0.121688
C165	C	1.063586	-0.162547	-0.354611
C166	C	1.313586	0.087453	-0.104611
C167	C	1.563586	0.337453	0.145389
C168	C	1.813586	0.587453	0.395389
C169	C	1.063628	-0.080748	-0.354633
C170	C	1.313628	0.169252	-0.104633
C171	C	1.563628	0.419252	0.145367
C172	C	1.813628	0.669252	0.395367
C173	C	1.016532	-0.307311	-0.816514
C174	C	1.266532	-0.057311	-0.566514
C175	C	1.516532	0.192689	-0.316514
C176	C	1.766532	0.442689	-0.066514
C177	C	1.016545	-0.307297	-0.893373
C178	C	1.266545	-0.057297	-0.643373
C179	C	1.516545	0.192703	-0.393373
C180	C	1.766545	0.442703	-0.143373
C181	C	1.110631	-0.401432	-0.893347
C182	C	1.360631	-0.151432	-0.643347
C183	C	1.610631	0.098568	-0.393347
C184	C	1.860631	0.348568	-0.143347
C185	C	1.110614	-0.401450	-0.816490
C186	C	1.360614	-0.151450	-0.566490
C187	C	1.610614	0.098550	-0.316490
C188	C	1.860614	0.348550	-0.066490
C189	C	1.063566	-0.354386	-0.778075
C190	C	1.313566	-0.104386	-0.528075
C191	C	1.563566	0.145614	-0.278075
C192	C	1.813566	0.395614	-0.028075
C193	C	1.063596	-0.354353	-0.931791
C194	C	1.313596	-0.104353	-0.681791
C195	C	1.563596	0.145647	-0.431791
C196	C	1.813596	0.395647	-0.181791
C197	C	1.063610	-0.354337	-1.015125
C198	C	1.313610	-0.104337	-0.765125
C199	C	1.563610	0.145663	-0.515125
C200	C	1.813610	0.395663	-0.265125
C201	C	1.063550	-0.354402	-0.694736
C202	C	1.313550	-0.104402	-0.444736
C203	C	1.563550	0.145598	-0.194736
C204	C	1.813550	0.395598	0.055264
C205	C	1.063496	-0.354505	-0.163353
C206	C	1.313496	-0.104505	0.086647
C207	C	1.563496	0.145495	0.336647
C208	C	1.813496	0.395495	0.586647
C209	C	1.063624	-0.354323	-0.081555
C210	C	1.313624	-0.104323	0.168445
C211	C	1.563624	0.145677	0.418445
C212	C	1.813624	0.395677	0.668445
H213	H	0.494150	-0.440002	-0.439813
H214	H	0.744150	-0.190002	-0.189813
H215	H	0.994150	0.059998	0.060187
H216	H	1.244150	0.309998	0.310187
H217	H	0.633578	-0.439999	-0.439797
H218	H	0.883578	-0.189999	-0.189797
H219	H	1.133578	0.060001	0.060203
H220	H	1.383578	0.310001	0.310203
H221	H	0.494139	-0.269017	-0.269344
H222	H	0.744139	-0.019017	-0.019344
H223	H	0.994139	0.230983	0.230656
H224	H	1.244139	0.480983	0.480656
Cl225	Cl	0.650605	-0.248129	-0.248522
Cl226	Cl	0.900605	0.001871	0.001478
Cl227	Cl	1.150605	0.251871	0.251478
Cl228	Cl	1.400605	0.501871	0.501478
H229	H	0.978123	-0.923854	-0.439908
H230	H	1.228123	-0.673854	-0.189908
H231	H	1.478123	-0.423854	0.060092
H232	H	1.728123	-0.173854	0.310092
H233	H	1.148916	-0.439786	-0.785192
H234	H	1.398916	-0.189786	-0.535192
H235	H	1.648916	0.060214	-0.285192
H236	H	1.898916	0.310214	-0.035192
Cl237	Cl	1.169803	-0.767383	-0.248430
Cl238	Cl	1.419803	-0.517383	0.001570
Cl239	Cl	1.669803	-0.267383	0.251570
Cl240	Cl	1.919803	-0.017383	0.501570
H241	H	0.978223	-0.268989	-0.785239
H242	H	1.228223	-0.018989	-0.535239
H243	H	1.478223	0.231011	-0.285239
H244	H	1.728223	0.481011	-0.035239
H245	H	1.149012	-0.923832	-0.269294
H246	H	1.399012	-0.673832	-0.019294
H247	H	1.649012	-0.423832	0.230706
H248	H	1.899012	-0.173832	0.480706
H249	H	0.978063	-0.784411	-0.439887
H250	H	1.228063	-0.534411	-0.189887
H251	H	1.478063	-0.284411	0.060113
H252	H	1.728063	-0.034411	0.310113
H253	H	1.148937	-0.439750	-0.924634
H254	H	1.398937	-0.189750	-0.674634
H255	H	1.648937	0.060250	-0.424634
H256	H	1.898937	0.310250	-0.174634
Cl257	Cl	0.957405	-0.248125	-0.941693
Cl258	Cl	1.207405	0.001875	-0.691693
Cl259	Cl	1.457405	0.251875	-0.441693
Cl260	Cl	1.707405	0.501875	-0.191693
