data_functionalizedCrystal
_audit_creation_method	'MofGen! by Chris Wilmer'
_symmetry_space_group_name_H-M	'P1'
_symmetry_Int_Tables_number	1
_symmetry_cell_setting	triclinic
loop_
_symmetry_equiv_pos_as_xyz
  x,y,z
_cell_length_a	9.065215
_cell_length_b	14.971482
_cell_length_c	13.448316
_cell_angle_alpha	89.993798
_cell_angle_beta	90.005418
_cell_angle_gamma	95.686347
loop_
_atom_site_label
_atom_site_type_symbol
_atom_site_fract_x
_atom_site_fract_y
_atom_site_fract_z
O1	O	-0.192236	1.188381	-0.082676
O2	O	0.141098	1.521714	0.250657
O3	O	0.474431	1.855048	0.583990
O4	O	-0.215265	0.928152	-0.082681
O5	O	0.118068	1.261485	0.250652
O6	O	0.451402	1.594818	0.583986
O7	O	0.011002	1.063647	-0.082675
O8	O	0.344335	1.396980	0.250658
O9	O	0.677668	1.730313	0.583992
O10	O	-0.418502	1.052886	-0.082683
O11	O	-0.085169	1.386219	0.250651
O12	O	0.248165	1.719553	0.583984
O13	O	0.011016	1.063629	0.082709
O14	O	0.344349	1.396963	0.416042
O15	O	0.677682	1.730296	0.749376
O16	O	-0.215251	0.928134	0.082703
O17	O	0.118082	1.261468	0.416036
O18	O	0.451416	1.594801	0.749369
O19	O	-0.192222	1.188364	0.082707
O20	O	0.141112	1.521697	0.416041
O21	O	0.474445	1.855030	0.749374
Cu22	Cu	-0.203735	1.058247	0.097806
Cu23	Cu	0.129598	1.391581	0.431139
Cu24	Cu	0.462932	1.724914	0.764473
Cu25	Cu	-0.203752	1.058268	-0.097780
Cu26	Cu	0.129582	1.391601	0.235554
Cu27	Cu	0.462915	1.724935	0.568887
O28	O	-0.418488	1.052869	0.082701
O29	O	-0.085155	1.386202	0.416035
O30	O	0.248178	1.719535	0.749368
C31	C	-0.214229	0.894811	0.000010
C32	C	0.119104	1.228144	0.333344
C33	C	0.452438	1.561477	0.666677
C34	C	-0.211146	0.795491	0.000009
C35	C	0.122188	1.128824	0.333342
C36	C	0.455521	1.462157	0.666675
C37	C	-0.209686	0.748826	0.090160
C38	C	0.123647	1.082159	0.423494
C39	C	0.456981	1.415492	0.756827
C40	C	-0.206765	0.655505	0.090162
C41	C	0.126568	0.988839	0.423495
C42	C	0.459902	1.322172	0.756828
C43	C	-0.205315	0.608851	0.000010
C44	C	0.128019	0.942184	0.333343
C45	C	0.461352	1.275518	0.666676
C46	C	-0.206770	0.655523	-0.090149
C47	C	0.126563	0.988856	0.243184
C48	C	0.459896	1.322189	0.576518
C49	C	-0.209680	0.748842	-0.090149
C50	C	0.123653	1.082175	0.243184
C51	C	0.456986	1.415509	0.576518
C52	C	-0.200708	0.461016	-0.090142
C53	C	0.132625	0.794349	0.243191
C54	C	0.465958	1.127682	0.576524
C55	C	-0.197801	0.367690	-0.090143
C56	C	0.135533	0.701023	0.243191
C57	C	0.468866	1.034356	0.576524
C58	C	-0.197793	0.367679	0.090168
C59	C	0.135540	0.701012	0.423501
C60	C	0.468874	1.034346	0.756835
C61	C	-0.200703	0.460998	0.090168
C62	C	0.132630	0.794332	0.423501
C63	C	0.465964	1.127665	0.756835
C64	C	-0.202161	0.507663	0.000009
C65	C	0.131172	0.840997	0.333342
C66	C	0.464505	1.174330	0.666676
C67	C	-0.473461	1.053911	0.000008
C68	C	-0.140128	1.387244	0.333342
C69	C	0.193206	1.720578	0.666675
C70	C	-0.637241	1.057001	0.000005
C71	C	-0.303908	1.390335	0.333339
C72	C	0.029425	1.723668	0.666672
C73	C	0.065974	1.062604	0.000016
C74	C	0.399308	1.395938	0.333349
C75	C	0.732641	1.729271	0.666683
C76	C	0.229755	1.059514	0.000012
C77	C	0.563088	1.392847	0.333346
C78	C	0.896421	1.726181	0.666679
C79	C	-0.193257	1.221705	0.000014
C80	C	0.140076	1.555038	0.333347
C81	C	0.473409	1.888371	0.666680
C82	C	-0.196341	1.321025	0.000009
C83	C	0.136992	1.654358	0.333342
C84	C	0.470326	1.987692	0.666676
N85	N	-0.203723	1.058240	0.235370
N86	N	0.129611	1.391573	0.568704
N87	N	0.462944	1.724906	0.902037
N88	N	-0.203752	1.058283	-0.235344
N89	N	0.129581	1.391616	0.097989
N90	N	0.462914	1.724950	0.431323
C91	C	-0.103573	1.118256	0.287413
C92	C	0.229760	1.451589	0.620747
C93	C	0.563094	1.784922	0.954080
C94	C	-0.103572	1.118261	0.391517
C95	C	0.229762	1.451595	0.724850
C96	C	0.563095	1.784928	1.058183
C97	C	-0.203728	1.058254	0.443575
C98	C	0.129605	1.391588	0.776908
C99	C	0.462938	1.724921	1.110241
C100	C	-0.303883	0.998232	0.391524
C101	C	0.029451	1.331565	0.724858
C102	C	0.362784	1.664898	1.058191
C103	C	-0.303876	0.998222	0.287423
C104	C	0.029458	1.331556	0.620756
C105	C	0.362791	1.664889	0.954090
C106	C	-0.303893	0.998257	0.608505
C107	C	0.029441	1.331590	0.941838
C108	C	0.362774	1.664923	1.275171
C109	C	-0.303902	0.998267	0.712613
C110	C	0.029431	1.331600	1.045946
C111	C	0.362765	1.664933	1.379280
C112	C	-0.103589	1.118296	0.712598
C113	C	0.229745	1.451629	1.045931
C114	C	0.563078	1.784962	1.379265
C115	C	-0.103582	1.118286	0.608497
C116	C	0.229752	1.451620	0.941830
C117	C	0.563085	1.784953	1.275163
C118	C	-0.203738	1.058264	0.556453
C119	C	0.129595	1.391598	0.889787
C120	C	0.462928	1.724931	1.223120
H121	H	-0.201893	0.498981	0.163578
H122	H	0.131440	0.832314	0.496911
H123	H	0.464774	1.165648	0.830244
H124	H	-0.210879	0.786804	0.163573
H125	H	0.122454	1.120137	0.496906
H126	H	0.455788	1.453471	0.830239
F127	F	-0.205232	0.605844	0.186114
F128	F	0.128102	0.939177	0.519447
F129	F	0.461435	1.272510	0.852780
F130	F	-0.196241	0.318014	0.186123
F131	F	0.137092	0.651347	0.519456
F132	F	0.470425	0.984681	0.852790
H133	H	-0.385446	0.949377	0.566134
H134	H	-0.052113	1.282711	0.899468
H135	H	0.281220	1.616044	1.232801
H136	H	-0.196621	0.329706	-0.163552
H137	H	0.136712	0.663040	0.169781
H138	H	0.470046	0.996373	0.503114
H139	H	-0.201896	0.499008	-0.163560
H140	H	0.131437	0.832341	0.169774
H141	H	0.464771	1.165674	0.503107
F142	F	-0.205182	0.605870	-0.186096
F143	F	0.128152	0.939204	0.147238
F144	F	0.461485	1.272537	0.480571
H145	H	-0.022038	1.167167	0.754978
H146	H	0.311295	1.500500	1.088311
H147	H	0.644629	1.833834	1.421644
F148	F	-0.410465	0.934342	0.232036
F149	F	-0.077132	1.267675	0.565370
F150	F	0.256202	1.601009	0.898703
H151	H	-0.022034	1.167153	0.566111
H152	H	0.311299	1.500486	0.899444
H153	H	0.644633	1.833819	1.232778
F154	F	-0.211229	0.798506	-0.186101
F155	F	0.122105	1.131840	0.147232
F156	F	0.455438	1.465173	0.480566
F157	F	0.003020	1.182136	0.446905
F158	F	0.336353	1.515469	0.780238
F159	F	0.669687	1.848803	1.113572
F160	F	0.003023	1.182129	0.232019
F161	F	0.336356	1.515463	0.565352
F162	F	0.669690	1.848796	0.898685
F163	F	-0.410501	0.934397	0.768010
F164	F	-0.077168	1.267730	1.101343
F165	F	0.256166	1.601064	1.434677
F166	F	-0.410472	0.934362	0.446930
F167	F	-0.077138	1.267696	0.780263
F168	F	0.256195	1.601029	1.113596
