data_functionalizedCrystal
_audit_creation_method	'MofGen! by Chris Wilmer'
_symmetry_space_group_name_H-M	'P1'
_symmetry_Int_Tables_number	1
_symmetry_cell_setting	triclinic
loop_
_symmetry_equiv_pos_as_xyz
  x,y,z
_cell_length_a	11.026607
_cell_length_b	10.654550
_cell_length_c	9.130313
_cell_angle_alpha	90.000276
_cell_angle_beta	89.997484
_cell_angle_gamma	83.464526
loop_
_atom_site_label
_atom_site_type_symbol
_atom_site_fract_x
_atom_site_fract_y
_atom_site_fract_z
O1	O	0.170768	-1.704908	-0.121683
O2	O	0.187037	-1.342961	-0.121709
O3	O	0.001997	-1.493937	-0.121693
O4	O	0.355808	-1.553932	-0.121699
O5	O	0.001991	-1.493922	0.121906
O6	O	0.187032	-1.342947	0.121889
O7	O	0.170762	-1.704894	0.121916
Cu8	Cu	0.178896	-1.523919	0.144145
Cu9	Cu	0.178903	-1.523936	-0.143939
O10	O	0.355802	-1.553918	0.121899
C11	C	0.185840	-1.295897	0.000087
C12	C	0.182266	-1.155678	0.000076
C13	C	-0.043310	-1.482861	0.000104
C14	C	-0.178302	-1.449867	0.000096
N15	N	0.178891	-1.523916	0.346768
C16	C	-0.251341	-1.540970	0.000101
C17	C	-0.390862	-1.506871	0.000093
C18	C	0.401109	-1.564993	0.000099
C19	C	0.536101	-1.597988	0.000097
C20	C	0.171959	-1.751958	0.000116
C21	C	0.175533	-1.892177	0.000117
C22	C	0.291214	-1.099841	0.000079
C23	C	0.287849	-0.968090	0.000104
C24	C	0.066576	-0.948022	0.000119
C25	C	0.069943	-1.079771	0.000104
N26	N	0.178898	-1.523947	-0.346561
C27	C	0.096990	-1.590804	0.423427
C28	C	0.096990	-1.590816	0.576764
C29	C	0.260803	-1.457050	0.576769
C30	C	0.260796	-1.457031	0.423435
H31	H	-0.210580	-1.644212	0.000117
Cl32	Cl	0.363760	-1.372929	0.327054
Cl33	Cl	0.432419	-1.195263	0.000053
Cl34	Cl	-0.005981	-1.674882	0.327052
H35	H	0.327491	-1.402596	0.639206
H36	H	-0.423146	-1.701236	-0.000005
Cl37	Cl	-0.241221	-1.290465	0.000070
H38	H	-0.431617	-1.403623	0.000076
Cl39	Cl	0.424820	-0.897902	0.000109
Cl40	Cl	-0.067033	-1.149970	0.000113
H41	H	0.030298	-1.645281	0.639175
Cl42	Cl	-0.074622	-0.852588	0.000144
