data_functionalizedCrystal
_audit_creation_method	'MofGen! by Chris Wilmer'
_symmetry_space_group_name_H-M	'P1'
_symmetry_Int_Tables_number	1
_symmetry_cell_setting	triclinic
loop_
_symmetry_equiv_pos_as_xyz
  x,y,z
_cell_length_a	23.532357
_cell_length_b	14.853567
_cell_length_c	13.930277
_cell_angle_alpha	89.996364
_cell_angle_beta	90.000907
_cell_angle_gamma	96.768389
loop_
_atom_site_label
_atom_site_type_symbol
_atom_site_fract_x
_atom_site_fract_y
_atom_site_fract_z
O1	O	0.074347	-1.195535	0.079777
O2	O	0.083204	-0.932976	0.079795
O3	O	-0.004124	-1.072196	0.079765
O4	O	0.161675	-1.056314	0.079806
O5	O	-0.004110	-1.072176	-0.079896
O6	O	0.083218	-0.932955	-0.079867
O7	O	0.074360	-1.195514	-0.079885
Zn8	Zn	0.078791	-1.064232	-0.105226
Zn9	Zn	0.078773	-1.064258	0.105135
O10	O	0.161688	-1.056294	-0.079856
C11	C	0.082810	-0.899381	-0.000034
C12	C	0.081607	-0.799311	-0.000028
C13	C	-0.025335	-1.071789	-0.000068
C14	C	-0.088559	-1.070594	-0.000077
C15	C	-0.480610	-1.063107	0.087007
C16	C	-0.540015	-1.061972	0.087012
O17	O	-0.570740	-1.061364	0.161029
N18	N	-0.569721	-1.061398	-0.000018
C19	C	-0.540019	-1.061950	-0.087060
O20	O	-0.570741	-1.061356	-0.161086
C21	C	-0.480615	-1.063079	-0.087064
C22	C	-0.450913	-1.063662	-0.000028
C23	C	-0.450908	-1.063690	0.174036
C24	C	-0.391507	-1.064827	0.174030
C25	C	-0.361810	-1.065381	0.086995
C26	C	-0.391513	-1.064799	-0.000034
C27	C	-0.450914	-1.063624	-0.174105
C28	C	-0.391506	-1.064753	-0.174102
C29	C	-0.361804	-1.065336	-0.087066
C30	C	-0.302415	-1.066491	-0.087075
N31	N	-0.272709	-1.067065	-0.000045
C32	C	-0.302406	-1.066510	0.086990
C33	C	-0.664771	-1.059578	-0.087044
C34	C	-0.724174	-1.058455	-0.087040
C35	C	-0.724166	-1.058476	0.087032
C36	C	-0.664762	-1.059605	0.087028
C37	C	-0.635065	-1.060152	-0.000013
C38	C	-0.177662	-1.068899	0.086971
C39	C	-0.118256	-1.070040	0.086958
C40	C	-0.118270	-1.070014	-0.087114
C41	C	-0.177670	-1.068878	-0.087101
C42	C	-0.207364	-1.068317	-0.000051
O43	O	-0.271652	-1.067096	-0.161054
O44	O	-0.271676	-1.067092	0.161003
C45	C	0.074755	-1.229109	-0.000054
C46	C	0.075957	-1.329179	-0.000054
C47	C	0.182900	-1.056701	-0.000020
C48	C	0.246123	-1.057896	-0.000005
N49	N	0.078803	-1.064220	-0.248792
C50	C	0.024648	-0.387416	-0.000064
C51	C	0.128396	-0.364971	-0.000037
C52	C	0.129527	-0.458992	-0.000034
C53	C	0.078218	-0.517230	-0.000044
C54	C	0.025778	-0.481447	-0.000057
C55	C	0.181966	-0.494783	-0.000011
C56	C	0.183099	-0.588809	-0.000006
C57	C	0.131789	-0.647049	-0.000023
C58	C	0.079347	-0.611260	-0.000038
C59	C	0.028038	-0.669498	-0.000048
C60	C	-0.024405	-0.633711	-0.000069
C61	C	-0.025532	-0.539686	-0.000074
C62	C	0.132916	-0.741074	-0.000018
C63	C	0.029167	-0.763528	-0.000042
C64	C	0.113368	-1.118626	-0.701046
C65	C	0.044156	-1.009919	-0.701046
C66	C	0.044165	-1.009905	-0.600550
C67	C	0.078775	-1.064254	-0.550298
C68	C	0.113377	-1.118616	-0.600541
C69	C	0.009560	-0.955551	-0.550299
C70	C	0.009567	-0.955536	-0.449797
C71	C	0.044181	-1.009880	-0.399543
C72	C	0.078784	-1.064244	-0.449793
C73	C	0.113395	-1.118592	-0.399540
C74	C	0.148001	-1.172952	-0.449788
C75	C	0.147991	-1.172960	-0.550287
C76	C	0.044192	-1.009871	-0.299044
C77	C	0.113404	-1.118582	-0.299035
N78	N	0.078757	-1.064277	0.248702
H79	H	-0.094075	-1.070517	0.157836
H80	H	0.225800	-0.617938	0.000011
N81	N	0.186477	-0.777631	-0.000016
N82	N	0.198689	-0.827586	-0.067316
H83	H	0.236520	-0.853404	-0.067318
N84	N	-0.207978	-1.068322	0.175898
N85	N	-0.181442	-1.068842	0.253590
H86	H	-0.202853	-1.068439	0.316395
N87	N	-0.361162	-1.065406	0.262928
N88	N	-0.308123	-1.066413	0.262929
H89	H	-0.286693	-1.066820	0.325717
N90	N	-0.023245	-0.823014	-0.000074
N91	N	-0.058095	-0.820029	-0.067392
H92	H	-0.095111	-0.862041	-0.067417
H93	H	-0.475088	-1.063151	-0.244979
N94	N	0.183324	-1.228504	-0.601611
N95	N	0.176599	-1.312578	-0.590368
H96	H	0.201552	-1.351810	-0.626618
N97	N	-0.025768	-0.900003	-0.398460
N98	N	-0.025752	-0.899992	-0.308730
H99	H	-0.050706	-0.860770	-0.272470
N100	N	-0.079101	-0.503144	-0.000098
N101	N	-0.113703	-0.521154	-0.067407
H102	H	-0.151537	-0.495344	-0.067422
H103	H	0.223739	-0.447360	0.000007
N104	N	-0.634442	-1.060169	-0.175961
N105	N	-0.606501	-1.124359	-0.195392
H106	H	-0.585083	-1.124777	-0.258190
H107	H	0.015974	-0.965677	-0.741967
N108	N	0.183341	-1.228482	-0.398446
N109	N	0.161165	-1.288283	-0.342359
H110	H	0.186121	-1.327503	-0.306093
N111	N	-0.025797	-0.900058	-0.601643
N112	N	-0.025799	-0.900080	-0.691374
H113	H	-0.050772	-0.860888	-0.727642
H114	H	0.141545	-1.162881	-0.741962
H115	H	0.016015	-0.965615	-0.258137
N116	N	-0.481248	-1.063148	0.262939
N117	N	-0.534287	-1.062154	0.262953
H118	H	-0.555713	-1.061782	0.325747
H119	H	0.170169	-0.317549	-0.000021
N120	N	-0.634425	-1.060213	0.175932
N121	N	-0.646262	-1.123656	0.234197
H122	H	-0.624838	-1.124086	0.296990
N123	N	-0.754517	-1.057922	0.175931
N124	N	-0.807556	-1.056918	0.175912
H125	H	-0.828995	-1.056532	0.238693
H126	H	-0.748354	-1.057994	-0.157914
N127	N	-0.028913	-0.350852	-0.000094
N128	N	-0.029918	-0.266901	-0.000107
H129	H	-0.067746	-0.241076	-0.000130
H130	H	-0.367329	-1.065185	-0.244983
N131	N	0.148754	-1.174115	-0.247720
N132	N	0.142030	-1.258190	-0.258938
H133	H	0.166995	-1.297414	-0.222696
N134	N	-0.208006	-1.068291	-0.176013
N135	N	-0.181480	-1.068787	-0.253715
H136	H	-0.202900	-1.068362	-0.316512
H137	H	-0.094080	-1.070470	-0.157976
N138	N	-0.076809	-0.693216	-0.000067
N139	N	-0.075788	-0.777163	-0.000051
H140	H	-0.112797	-0.819193	-0.000048
