data_functionalizedCrystal
_audit_creation_method	'MofGen! by Chris Wilmer'
_symmetry_space_group_name_H-M	'P1'
_symmetry_Int_Tables_number	1
_symmetry_cell_setting	triclinic
loop_
_symmetry_equiv_pos_as_xyz
  x,y,z
_cell_length_a	8.559649
_cell_length_b	17.699077
_cell_length_c	16.776229
_cell_angle_alpha	89.993415
_cell_angle_beta	89.994739
_cell_angle_gamma	76.529620
loop_
_atom_site_label
_atom_site_type_symbol
_atom_site_fract_x
_atom_site_fract_y
_atom_site_fract_z
O1	O	0.202065	0.992512	-0.066274
O2	O	0.702065	1.492512	0.433726
O3	O	0.228370	0.770627	-0.066277
O4	O	0.728370	1.270627	0.433723
O5	O	-0.017462	0.901118	-0.066275
O6	O	0.482538	1.401118	0.433725
O7	O	0.447896	0.862021	-0.066277
O8	O	0.947896	1.362021	0.433723
O9	O	-0.017477	0.901103	0.066302
O10	O	0.482523	1.401103	0.566302
O11	O	0.228355	0.770612	0.066299
O12	O	0.728355	1.270612	0.566299
O13	O	0.202050	0.992498	0.066303
O14	O	0.702050	1.492498	0.566303
Zn15	Zn	0.215200	0.881553	0.087350
Zn16	Zn	0.715200	1.381553	0.587350
Zn17	Zn	0.215220	0.881572	-0.087325
Zn18	Zn	0.715220	1.381572	0.412675
O19	O	0.447881	0.862007	0.066300
O20	O	0.947881	1.362007	0.566300
C21	C	0.227421	0.742477	0.000010
C22	C	0.727421	1.242477	0.500010
C23	C	0.224598	0.658620	0.000009
C24	C	0.724598	1.158620	0.500009
C25	C	0.223260	0.619221	0.072277
C26	C	0.723260	1.119221	0.572277
C27	C	0.220582	0.540431	0.072278
C28	C	0.720582	1.040431	0.572278
C29	C	0.219254	0.501042	0.000010
C30	C	0.719254	1.001042	0.500010
C31	C	0.220588	0.540447	-0.072264
C32	C	0.720588	1.040447	0.427736
C33	C	0.223254	0.619236	-0.072264
C34	C	0.723254	1.119236	0.427736
C35	C	0.209832	0.222699	-0.072266
C36	C	0.709832	0.722699	0.427734
C37	C	0.207171	0.143904	-0.072260
C38	C	0.707171	0.643904	0.427740
C39	C	0.207160	0.143895	0.072277
C40	C	0.707160	0.643895	0.572277
C41	C	0.209827	0.222684	0.072277
C42	C	0.709827	0.722684	0.572277
C43	C	0.211152	0.262083	0.000003
C44	C	0.711152	0.762083	0.500003
C45	C	0.214052	0.347516	0.000003
C46	C	0.714052	0.847516	0.500003
C47	C	0.216365	0.415609	0.000009
C48	C	0.716365	0.915609	0.500009
C49	C	-0.077011	0.904073	0.000012
C50	C	0.422989	1.404073	0.500012
C51	C	-0.254425	0.912893	0.000008
C52	C	0.245575	1.412893	0.500008
C53	C	0.507430	0.859051	0.000011
C54	C	1.007430	1.359051	0.500011
C55	C	0.684845	0.850232	0.000010
C56	C	1.184845	1.350232	0.500010
C57	C	0.202998	1.020648	0.000013
C58	C	0.702998	1.520648	0.500013
C59	C	0.205821	1.104505	0.000009
C60	C	0.705821	1.604505	0.500009
N61	N	0.215185	0.881545	0.206561
N62	N	0.715185	1.381545	0.706561
N63	N	0.215221	0.881586	-0.206536
N64	N	0.715221	1.381586	0.293464
C65	C	0.106376	0.939340	0.248280
C66	C	0.606376	1.439340	0.748280
C67	C	0.106374	0.939344	0.331732
C68	C	0.606374	1.439344	0.831732
C69	C	0.215191	0.881556	0.373464
C70	C	0.715191	1.381556	0.873464
C71	C	0.324006	0.823756	0.331740
C72	C	0.824006	1.323756	0.831740
C73	C	0.323998	0.823749	0.248289
C74	C	0.823998	1.323749	0.748289
C75	C	0.324037	0.823782	0.668287
C76	C	0.824037	1.323782	1.168287
C77	C	0.324040	0.823794	0.751744
C78	C	0.824040	1.323794	1.251744
C79	C	0.106413	0.939376	0.751730
C80	C	0.606413	1.439376	1.251730
C81	C	0.106406	0.939369	0.668279
C82	C	0.606406	1.439369	1.168279
C83	C	0.215214	0.881567	0.626562
C84	C	0.715214	1.381567	1.126562
C85	C	0.215212	0.881563	0.536074
C86	C	0.715212	1.381563	1.036074
C87	C	0.215202	0.881564	0.463951
C88	C	0.715202	1.381564	0.963951
H89	H	0.224355	0.651285	0.131127
H90	H	0.724355	1.151285	0.631127
Cl91	Cl	-0.030419	1.012000	0.384179
Cl92	Cl	0.469581	1.512000	0.884179
H93	H	-0.338168	0.973290	0.000015
H94	H	0.161832	1.473290	0.500015
Cl95	Cl	-0.030424	1.011995	0.195825
Cl96	Cl	0.469576	1.511995	0.695825
H97	H	0.219466	0.508359	0.131126
H98	H	0.719466	1.008359	0.631126
Cl99	Cl	0.218859	0.490935	-0.163116
Cl100	Cl	0.718859	0.990935	0.336884
H101	H	0.206088	0.111835	-0.131113
H102	H	0.706088	0.611835	0.368887
H103	H	0.412636	0.776718	0.634328
H104	H	0.912636	1.276718	1.134328
H105	H	-0.231421	0.789838	0.000012
H106	H	0.268579	1.289838	0.500012
H107	H	0.412602	0.776701	0.365723
H108	H	0.912602	1.276701	0.865723
Cl109	Cl	0.205486	0.094360	0.163136
Cl110	Cl	0.705486	0.594360	0.663136
Cl111	Cl	0.211505	0.272197	0.163132
Cl112	Cl	0.711505	0.772197	0.663132
Cl113	Cl	0.460847	0.751140	0.804207
Cl114	Cl	0.960847	1.251140	1.304207
H115	H	0.412600	0.776686	0.214323
H116	H	0.912600	1.276686	0.714323
H117	H	0.017802	0.986428	0.634303
H118	H	0.517802	1.486428	1.134303
H119	H	0.017810	0.986440	0.785705
H120	H	0.517810	1.486440	1.285705
H121	H	0.210906	0.254769	-0.131115
H122	H	0.710906	0.754769	0.368885
H123	H	0.224347	0.651313	-0.131112
H124	H	0.724347	1.151313	0.368888
