data_functionalizedCrystal
_audit_creation_method	'MofGen! by Chris Wilmer'
_symmetry_space_group_name_H-M	'P1'
_symmetry_Int_Tables_number	1
_symmetry_cell_setting	triclinic
loop_
_symmetry_equiv_pos_as_xyz
  x,y,z
_cell_length_a	14.044191
_cell_length_b	15.995350
_cell_length_c	12.503572
_cell_angle_alpha	93.525550
_cell_angle_beta	86.162165
_cell_angle_gamma	88.342076
loop_
_atom_site_label
_atom_site_type_symbol
_atom_site_fract_x
_atom_site_fract_y
_atom_site_fract_z
O1	O	1.263171	0.197459	-0.089258
O2	O	1.763171	0.697459	0.410742
O3	O	0.987202	0.190168	-0.089272
O4	O	1.487202	0.690168	0.410728
O5	O	1.132730	0.072489	-0.089264
O6	O	1.632730	0.572489	0.410736
O7	O	1.117643	0.315137	-0.089267
O8	O	1.617643	0.815137	0.410733
O9	O	1.121785	0.081355	0.089377
O10	O	1.621785	0.581355	0.589377
O11	O	0.976257	0.199034	0.089369
O12	O	1.476257	0.699034	0.589369
O13	O	1.252226	0.206325	0.089383
O14	O	1.752226	0.706325	0.589383
Cu15	Cu	1.113242	0.203489	0.105687
Cu16	Cu	1.613242	0.703489	0.605687
Cu17	Cu	1.126186	0.193004	-0.105577
Cu18	Cu	1.626186	0.693004	0.394423
O19	O	1.106698	0.324003	0.089375
O20	O	1.606698	0.824003	0.589375
C21	C	0.946415	0.191411	0.000046
C22	C	1.446415	0.691411	0.500046
C23	C	0.841190	0.181898	0.000041
C24	C	1.341190	0.681898	0.500041
C25	C	0.590903	0.231977	0.000051
C26	C	1.090903	0.731977	0.500051
C27	C	0.648532	0.164519	0.000050
C28	C	1.148532	0.664519	0.500050
C29	C	0.755736	0.174191	0.000045
C30	C	1.255736	0.674191	0.500045
C31	C	0.483688	0.222306	0.000056
C32	C	0.983688	0.722306	0.500056
C33	C	1.126634	0.045681	0.000055
C34	C	1.626634	0.545681	0.500055
C35	C	1.124765	-0.047410	0.000048
C36	C	1.624765	0.452590	0.500048
C37	C	1.118049	-0.385659	0.000052
C38	C	1.618049	0.114341	0.500052
C39	C	1.014431	-0.345988	-0.000354
C40	C	1.514431	0.154012	0.499646
C41	C	1.016276	-0.249138	0.000049
C42	C	1.516276	0.250862	0.500049
C43	C	1.121380	-0.217849	0.000049
C44	C	1.621380	0.282151	0.500049
C45	C	1.166250	-0.250045	0.102063
C46	C	1.666250	0.249955	0.602063
C47	C	1.163641	-0.346871	0.102148
C48	C	1.663641	0.153129	0.602148
C49	C	1.178229	-0.357151	-0.101000
C50	C	1.678229	0.142849	0.399000
C51	C	1.178287	-0.260275	-0.102348
C52	C	1.678287	0.239725	0.397652
C53	C	1.123268	-0.123011	0.000052
C54	C	1.623268	0.376989	0.500052
C55	C	1.116163	-0.480497	0.000057
C56	C	1.616163	0.019503	0.500057
C57	C	1.293013	0.205081	0.000062
C58	C	1.793013	0.705081	0.500062
C59	C	1.398239	0.214594	0.000060
C60	C	1.898239	0.714594	0.500060
C61	C	1.112794	0.350811	0.000054
C62	C	1.612794	0.850811	0.500054
C63	C	1.114664	0.443902	0.000053
C64	C	1.614664	0.943902	0.500053
N65	N	1.104146	0.210864	0.254279
N66	N	1.604146	0.710864	0.754279
N67	N	1.135290	0.185623	-0.254168
N68	N	1.635290	0.685623	0.245832
C69	C	1.090764	0.221719	0.473394
C70	C	1.590764	0.721719	0.973394
C71	C	1.148668	0.174770	0.526724
C72	C	1.648668	0.674770	1.026724
C73	C	1.141223	0.180810	0.648647
C74	C	1.641223	0.680810	1.148647
C75	C	1.098209	0.215680	0.351460
C76	C	1.598209	0.715680	0.851460
H77	H	0.617361	0.099499	-0.000025
H78	H	1.117361	0.599499	0.499975
F79	F	1.221057	0.116575	0.466721
F80	F	1.721057	0.616575	0.966721
F81	F	0.631649	0.316952	0.000041
F82	F	1.131649	0.816952	0.500041
F83	F	1.278961	-0.233107	-0.110405
F84	F	1.778961	0.266893	0.389595
F85	F	1.018665	0.280184	0.533395
F86	F	1.518665	0.780184	1.033395
H87	H	0.968733	-0.365053	0.072390
H88	H	1.468733	0.134947	0.572390
F89	F	1.135854	-0.232788	-0.201004
F90	F	1.635854	0.267212	0.298996
F91	F	0.966140	-0.378999	-0.095976
F92	F	1.466140	0.121001	0.404024
F93	F	0.969609	-0.220654	-0.095534
F94	F	1.469609	0.279346	0.404466
H95	H	1.149080	-0.384060	-0.178320
H96	H	1.649080	0.115940	0.321680
H97	H	0.971335	-0.220660	0.073297
H98	H	1.471335	0.279340	0.573297
F99	F	1.278163	-0.391248	-0.101898
F100	F	1.778163	0.108752	0.398102
H101	H	1.243235	-0.229962	0.105858
H102	H	1.743235	0.270038	0.605858
F103	F	1.108808	-0.369488	0.201818
F104	F	1.608808	0.130512	0.701818
H105	H	1.239451	-0.373204	0.106778
H106	H	1.739451	0.126796	0.606778
H107	H	1.126094	-0.220548	0.177977
H108	H	1.626094	0.279452	0.677977
