data_functionalizedCrystal
_audit_creation_method	'MofGen! by Chris Wilmer'
_symmetry_space_group_name_H-M	'P1'
_symmetry_Int_Tables_number	1
_symmetry_cell_setting	triclinic
loop_
_symmetry_equiv_pos_as_xyz
  x,y,z
_cell_length_a	6.817900
_cell_length_b	19.551136
_cell_length_c	11.168136
_cell_angle_alpha	94.562875
_cell_angle_beta	108.508683
_cell_angle_gamma	101.650842
loop_
_atom_site_label
_atom_site_type_symbol
_atom_site_fract_x
_atom_site_fract_y
_atom_site_fract_z
V1	V	-4.075337	-0.096687	-0.394321
O2	O	-4.071123	0.004635	-0.386175
O3	O	-4.017676	-0.191704	-0.392240
O4	O	-4.052157	-0.095205	-0.566017
O5	O	-4.036403	-0.092532	-0.211194
V6	V	-4.556897	-0.084567	-0.372343
O7	O	-4.340901	-0.123273	-0.442532
O8	O	-4.741529	-0.057981	-0.324132
O9	O	-4.391351	0.010450	-0.374424
O10	O	-4.678508	-0.185890	-0.380489
O11	O	-4.713227	-0.088722	-0.555470
O12	O	-4.356870	-0.086050	-0.200647
C13	C	-3.859608	-0.214867	-0.386178
C14	C	-3.893918	-0.292544	-0.385620
C15	C	-3.853822	-0.319032	-0.269644
C16	C	-3.886126	-0.392016	-0.269082
C17	C	-3.958488	-0.438510	-0.384501
C18	C	-3.998599	-0.412016	-0.500493
C19	C	-3.966314	-0.339033	-0.501053
C20	C	-3.935292	-0.559523	-0.468189
C21	C	-3.967561	-0.632504	-0.467624
C22	C	-4.058076	-0.663614	-0.382779
C23	C	-4.116281	-0.621732	-0.298477
C24	C	-4.083996	-0.548749	-0.299037
C25	C	-3.993503	-0.517649	-0.383907
C26	C	-4.053006	-0.769239	-0.266185
C27	C	-4.085326	-0.842225	-0.265628
C28	C	-4.197779	-0.862223	-0.497042
C29	C	-4.165479	-0.789238	-0.497596
C30	C	-4.093083	-0.742750	-0.382164
C31	C	-3.903591	-0.091771	-0.607847
C32	C	-3.965861	-0.091188	-0.748214
C33	C	-4.167278	-0.094242	-0.816925
C34	C	-4.231641	-0.093639	-0.962002
C35	C	-4.212760	0.033609	-0.380483
C36	C	-4.157689	0.111286	-0.381048
C37	C	-4.168777	-0.089485	-0.158810
C38	C	-4.085746	-0.090065	-0.018442
H39	H	-4.189967	-0.647059	-0.229381
H40	H	-3.913197	-0.087455	-0.959385
H41	H	-4.404191	-0.096257	-1.021070
O42	O	-4.042079	-0.870793	-0.140528
H43	H	-4.076715	-0.929353	-0.159528
O44	O	-4.332588	-0.098296	-0.752586
H45	H	-4.403840	-0.052014	-0.767124
H46	H	-3.841068	-0.088122	-0.796790
H47	H	-3.794888	-0.281185	-0.175651
O48	O	-3.842852	-0.420591	-0.143982
H49	H	-3.718273	-0.450719	-0.133490
O50	O	-4.146658	-0.503568	-0.208074
H51	H	-4.214990	-0.537454	-0.148962
O52	O	-4.275839	-0.912358	-0.621537
H53	H	-4.156635	-0.943441	-0.622101
O54	O	-3.974951	-0.719091	-0.141694
H55	H	-3.952530	-0.749774	-0.060951
O56	O	-3.837646	-0.525969	-0.559698
H57	H	-3.802562	-0.567350	-0.618205
O58	O	-4.208684	-0.760662	-0.622684
H59	H	-4.264410	-0.805251	-0.702850
O60	O	-3.904804	-0.677677	-0.558550
H61	H	-3.836487	-0.643787	-0.617662
H62	H	-3.998974	-0.317469	-0.595498
O63	O	-4.076652	-0.462157	-0.624986
H64	H	-4.092349	-0.517357	-0.605113
