data_functionalizedCrystal
_audit_creation_method	'MofGen! by Chris Wilmer'
_symmetry_space_group_name_H-M	'P1'
_symmetry_Int_Tables_number	1
_symmetry_cell_setting	triclinic
loop_
_symmetry_equiv_pos_as_xyz
  x,y,z
_cell_length_a	10.489689
_cell_length_b	10.489716
_cell_length_c	9.565339
_cell_angle_alpha	90.004273
_cell_angle_beta	90.006770
_cell_angle_gamma	95.476521
loop_
_atom_site_label
_atom_site_type_symbol
_atom_site_fract_x
_atom_site_fract_y
_atom_site_fract_z
O1	O	-1.694076	0.179644	-0.116350
O2	O	-1.322870	0.196606	-0.116329
O3	O	-1.516936	0.002523	-0.116345
O4	O	-1.500010	0.373726	-0.116334
O5	O	-1.516920	0.002536	0.116175
O6	O	-1.322855	0.196618	0.116191
O7	O	-1.694060	0.179656	0.116170
Zn8	Zn	-1.508455	0.188139	0.153098
Zn9	Zn	-1.508475	0.188123	-0.153257
O10	O	-1.499995	0.373738	0.116186
C11	C	-1.275330	0.195345	-0.000066
C12	C	-1.133697	0.191554	-0.000059
C13	C	-0.951299	0.308275	-0.000066
C14	C	-1.043458	0.249966	-0.114713
C15	C	-1.043416	0.249946	0.114534
C16	C	-0.973517	0.126427	-0.114823
C17	C	-0.973465	0.126425	0.114527
C18	C	-1.065597	0.068026	-0.000148
C19	C	-1.515656	-0.045002	-0.000089
C20	C	-1.511852	-0.186633	-0.000102
C21	C	-1.630859	-0.284329	-0.000096
C22	C	-1.567980	-0.361684	-0.114733
C23	C	-1.567938	-0.361636	0.114514
C24	C	-1.449023	-0.262122	-0.114834
C25	C	-1.448998	-0.262069	0.114516
C26	C	-1.386032	-0.339375	-0.000149
C27	C	-0.741598	0.180937	-0.000088
C28	C	-0.883223	0.184788	-0.000081
C29	C	-1.501274	0.421264	-0.000073
C30	C	-1.505079	0.562895	-0.000070
N31	N	-1.508451	0.188149	0.362178
N32	N	-1.508490	0.188103	-0.362336
C33	C	-1.418674	0.277876	0.453388
C34	C	-1.534171	0.303665	0.546561
C35	C	-1.393003	0.162370	0.546560
C36	C	-1.624007	0.213996	0.453299
C37	C	-1.482762	0.072651	0.453289
C38	C	-1.598342	0.098392	0.546420
H39	H	-0.942441	0.074223	0.211454
H40	H	-1.674364	0.022489	0.587013
O41	O	-1.628061	-0.413368	0.230099
C42	C	-1.757029	-0.385863	0.229628
H43	H	-1.767125	-0.297592	0.162509
H44	H	-1.819662	-0.470965	0.184877
C45	C	-1.787262	-0.468519	0.462667
C46	C	-1.799660	-0.360095	0.380240
H47	H	-1.813562	-0.452629	0.555571
H48	H	-1.700375	-0.487054	0.462984
H49	H	-1.839456	-0.539426	0.425359
H50	H	-1.747454	-0.289195	0.417539
H51	H	-1.886539	-0.341548	0.379933
O52	O	-1.754351	-0.254916	-0.000512
C53	C	-1.816654	-0.305883	-0.121619
H54	H	-1.742445	-0.320733	-0.205650
H55	H	-1.872296	-0.401607	-0.095468
C56	C	-2.000933	-0.193952	-0.072512
C57	C	-1.909789	-0.212180	-0.175726
H58	H	-2.058388	-0.136156	-0.105886
H59	H	-1.958961	-0.159617	0.009083
H60	H	-2.047288	-0.273729	-0.050729
H61	H	-1.863425	-0.132407	-0.197494
H62	H	-1.951755	-0.246499	-0.257326
H63	H	-1.460972	-0.024973	0.412288
H64	H	-1.398797	-0.218536	0.211445
H65	H	-1.074361	0.302223	0.211457
H66	H	-1.398819	-0.218814	-0.211858
O67	O	-0.936702	0.064352	-0.230692
C68	C	-0.851692	0.147756	-0.310034
H69	H	-0.867318	0.251180	-0.284044
H70	H	-0.748817	0.129892	-0.284101
C71	C	-0.857501	-0.003742	-0.498762
C72	C	-0.876700	0.123285	-0.466850
H73	H	-0.872921	-0.018840	-0.595493
H74	H	-0.914770	-0.059936	-0.445306
H75	H	-0.771772	-0.018614	-0.477141
H76	H	-0.962432	0.138150	-0.488454
H77	H	-0.819446	0.179481	-0.520313
H78	H	-1.618224	-0.405193	-0.211659
O79	O	-1.080527	0.312082	-0.230441
C80	C	-1.164730	0.228336	-0.310362
H81	H	-1.148321	0.125031	-0.284747
H82	H	-1.267888	0.245264	-0.284650
C83	C	-1.159677	0.380417	-0.498458
C84	C	-1.139516	0.253536	-0.467006
H85	H	-1.144130	0.395964	-0.595083
H86	H	-1.102952	0.436841	-0.444612
H87	H	-1.245643	0.394508	-0.477021
H88	H	-1.053548	0.239450	-0.488426
H89	H	-1.196226	0.197109	-0.520859
H90	H	-1.342823	0.353825	0.412540
O91	O	-1.262429	-0.368445	-0.000455
C92	C	-1.200167	-0.317272	-0.121468
H93	H	-1.274375	-0.302618	-0.205578
H94	H	-1.144810	-0.221421	-0.095211
C95	C	-1.015547	-0.428647	-0.072201
C96	C	-1.106690	-0.410659	-0.175510
H97	H	-0.957881	-0.486248	-0.105534
H98	H	-1.057491	-0.463120	0.009331
H99	H	-0.969429	-0.348764	-0.050329
H100	H	-1.152816	-0.490538	-0.197367
H101	H	-1.064751	-0.376202	-0.257047
H102	H	-1.555926	0.401319	0.587530
H103	H	-1.115064	-0.033575	-0.000210
H104	H	-1.721677	0.235897	0.412506
H105	H	-0.901599	0.409781	-0.000175
H106	H	-1.295355	0.140587	0.587528
