data_functionalizedCrystal
_audit_creation_method	'MofGen! by Chris Wilmer'
_symmetry_space_group_name_H-M	'P1'
_symmetry_Int_Tables_number	1
_symmetry_cell_setting	triclinic
loop_
_symmetry_equiv_pos_as_xyz
  x,y,z
_cell_length_a	8.559649
_cell_length_b	16.098524
_cell_length_c	8.559649
_cell_angle_alpha	86.632618
_cell_angle_beta	110.221336
_cell_angle_gamma	93.368839
loop_
_atom_site_label
_atom_site_type_symbol
_atom_site_fract_x
_atom_site_fract_y
_atom_site_fract_z
O1	O	2.132562	0.069244	0.049356
O2	O	1.657077	0.069247	-0.034426
O3	O	1.936710	0.069244	0.245208
O4	O	1.852929	0.069246	-0.230277
O5	O	1.925327	-0.069269	0.256573
O6	O	1.645694	-0.069267	-0.023060
O7	O	2.121179	-0.069270	0.060721
Zn8	Zn	1.881629	-0.091260	0.020635
Zn9	Zn	1.896627	0.091237	0.005661
O10	O	1.841546	-0.069267	-0.218912
C11	C	1.591077	-0.000009	-0.035092
C12	C	1.411377	-0.000008	-0.053991
N13	N	1.871406	-0.215810	0.030857
C14	C	1.954133	-0.259392	-0.051947
C15	C	1.947005	-0.346581	-0.044783
C16	C	1.857138	-0.390187	0.045177
C17	C	1.774408	-0.346599	0.127992
C18	C	1.781547	-0.259411	0.120836
C19	C	1.831274	-0.653438	0.071112
C20	C	1.824137	-0.740631	0.078257
C21	C	1.996737	-0.740607	-0.094515
C22	C	2.003860	-0.653418	-0.101671
C23	C	1.921137	-0.609838	-0.018849
C24	C	1.849845	-0.479308	0.052498
C25	C	1.928441	-0.520718	-0.026161
C26	C	2.187179	-0.000012	0.061388
C27	C	2.366879	-0.000008	0.080286
C28	C	1.937368	-0.000011	0.311199
C29	C	1.956267	-0.000007	0.490898
N30	N	1.906864	0.215787	-0.004547
C31	C	1.840888	-0.000010	-0.284904
C32	C	1.821989	-0.000009	-0.464603
H33	H	1.466257	-0.000004	0.209706
H34	H	2.064086	-0.776100	-0.161943
F35	F	1.281477	0.000000	-0.223166
F36	F	2.049779	-0.212991	-0.147699
F37	F	2.035053	-0.392960	-0.132918
H38	H	2.085694	-0.000014	0.590287
H39	H	1.714181	-0.223928	0.188264
H40	H	2.077044	-0.617920	-0.174920
H41	H	1.763916	-0.617965	0.138553
F42	F	1.728485	-0.787038	0.174010
H43	H	2.001617	-0.485210	-0.099400
H44	H	1.701246	-0.382110	0.201248
H45	H	1.776674	-0.514822	0.125743
H46	H	1.692569	-0.000011	0.436019
