data_functionalizedCrystal
_audit_creation_method	'MofGen! by Chris Wilmer'
_symmetry_space_group_name_H-M	'P1'
_symmetry_Int_Tables_number	1
_symmetry_cell_setting	triclinic
loop_
_symmetry_equiv_pos_as_xyz
  x,y,z
_cell_length_a	11.792254
_cell_length_b	23.532357
_cell_length_c	10.868271
_cell_angle_alpha	89.989339
_cell_angle_beta	89.995741
_cell_angle_gamma	83.513444
loop_
_atom_site_label
_atom_site_type_symbol
_atom_site_fract_x
_atom_site_fract_y
_atom_site_fract_z
O1	O	1.505034	0.078091	-0.102337
O2	O	1.174503	0.086128	-0.102342
O3	O	1.349765	-0.000765	-0.102314
O4	O	1.329772	0.164984	-0.102365
O5	O	1.349751	-0.000768	0.102330
O6	O	1.174488	0.086125	0.102303
O7	O	1.505020	0.078088	0.102307
Zn8	Zn	1.339752	0.082105	0.134797
Zn9	Zn	1.339770	0.082110	-0.134831
O10	O	1.329757	0.164980	0.102280
C11	C	1.132217	0.085620	-0.000020
C12	C	1.006240	0.084105	-0.000020
C13	C	1.349258	-0.021986	0.000012
C14	C	1.347754	-0.085214	0.000023
C15	C	0.903933	0.082873	-0.000025
C16	C	0.775583	0.081334	-0.000025
C17	C	1.338323	-0.477279	-0.111595
C18	C	1.336893	-0.536687	-0.111602
O19	O	1.336122	-0.567406	-0.206472
N20	N	1.336177	-0.566404	-0.000052
C21	C	1.336878	-0.536710	0.111513
O22	O	1.336136	-0.567442	0.206394
C23	C	1.338299	-0.477303	0.111519
C24	C	1.339027	-0.447589	-0.000039
C25	C	1.339049	-0.447566	-0.223143
C26	C	1.340481	-0.388162	-0.223136
C27	C	1.341185	-0.358472	-0.111580
C28	C	1.340459	-0.388185	-0.000031
C29	C	1.338992	-0.447609	0.223082
C30	C	1.340413	-0.388197	0.223078
C31	C	1.341141	-0.358484	0.111521
C32	C	1.342595	-0.299092	0.111532
N33	N	1.343311	-0.269374	-0.000018
C34	C	1.342606	-0.299064	-0.111574
C35	C	1.333892	-0.661469	0.111492
C36	C	1.332479	-0.720876	0.111488
C37	C	1.332492	-0.720849	-0.111627
C38	C	1.333913	-0.661442	-0.111622
C39	C	1.334608	-0.631752	-0.000058
C40	C	1.345613	-0.174312	-0.111550
C41	C	1.347050	-0.114904	-0.111533
C42	C	1.347030	-0.114936	0.111582
C43	C	1.345600	-0.174339	0.111565
C44	C	1.344888	-0.204026	-0.000011
O45	O	1.343362	-0.268334	0.206354
O46	O	1.343333	-0.268324	-0.206440
C47	C	1.547305	0.078596	-0.000018
C48	C	1.673282	0.080111	-0.000025
C49	C	1.330264	0.186202	-0.000049
C50	C	1.331768	0.249429	-0.000069
N51	N	1.339747	0.082102	0.318811
N52	N	1.339784	0.082109	-0.318846
C53	C	1.339765	0.082109	0.569817
C54	C	1.339751	0.082107	0.430139
H55	H	1.345028	-0.198476	-0.202406
N56	N	1.341177	-0.356173	0.343407
H57	H	1.271408	-0.327123	0.348384
H58	H	1.340545	-0.384052	0.414001
N59	N	1.338177	-0.479643	0.343409
H60	H	1.337162	-0.521784	0.326499
H61	H	1.408778	-0.473665	0.392143
N62	N	1.331751	-0.752867	-0.231968
H63	H	1.260801	-0.773116	-0.236974
H64	H	1.332475	-0.724987	-0.302549
N65	N	1.344840	-0.206390	0.231888
H66	H	1.414612	-0.235439	0.236854
H67	H	1.345473	-0.178523	0.302481
N68	N	1.347796	-0.082902	0.231892
H69	H	1.278024	-0.053853	0.236851
H70	H	1.347163	-0.110772	0.302501
N71	N	1.347840	-0.082856	-0.231859
H72	H	1.347173	-0.110682	-0.302528
H73	H	1.278070	-0.053804	-0.236722
N74	N	1.341260	-0.356117	-0.343459
H75	H	1.340593	-0.383948	-0.414120
H76	H	1.271484	-0.327069	-0.348322
H77	H	1.334461	-0.637300	0.202347
H78	H	1.338472	-0.471733	-0.313991
N79	N	1.331716	-0.752919	0.231814
H80	H	1.261600	-0.738181	0.280584
H81	H	1.330749	-0.795052	0.214796
N82	N	1.334698	-0.629396	-0.231942
H83	H	1.334039	-0.657224	-0.302607
H84	H	1.264922	-0.600348	-0.236810
