data_functionalizedCrystal
_audit_creation_method	'MofGen! by Chris Wilmer'
_symmetry_space_group_name_H-M	'P1'
_symmetry_Int_Tables_number	1
_symmetry_cell_setting	triclinic
loop_
_symmetry_equiv_pos_as_xyz
  x,y,z
_cell_length_a	17.917603
_cell_length_b	14.560432
_cell_length_c	14.560432
_cell_angle_alpha	59.994136
_cell_angle_beta	89.999141
_cell_angle_gamma	57.012543
loop_
_atom_site_label
_atom_site_type_symbol
_atom_site_fract_x
_atom_site_fract_y
_atom_site_fract_z
Zr1	Zr	0.754895	0.920788	-0.078339
O2	O	0.629769	1.126420	-0.232016
O3	O	0.793254	0.724876	-0.031215
O4	O	0.793253	0.916493	-0.222839
O5	O	0.629769	0.934800	0.110748
O6	O	0.922211	0.902048	-0.215615
O7	O	0.629770	0.934803	-0.040393
O8	O	0.922212	0.559280	0.127165
O9	O	0.629767	1.277568	-0.232032
O10	O	0.905851	0.791077	-0.005742
O11	O	0.809611	0.801855	0.101661
O12	O	0.809610	1.027460	-0.123951
O13	O	0.713370	1.038238	-0.016548
Zr14	Zr	0.960565	0.897746	0.174235
Zr15	Zr	0.960567	0.897750	-0.066818
Zr16	Zr	0.754893	0.920784	0.162713
Zr17	Zr	0.754892	1.161852	-0.078363
Zr18	Zr	0.960568	0.656681	0.174259
O19	O	0.922205	1.093657	0.127111
O20	O	0.922208	1.093663	-0.215634
O21	O	0.629766	1.126414	0.110729
O22	O	1.085691	0.692114	0.327912
O23	O	1.085693	0.692119	-0.014833
O24	O	0.793252	0.724871	0.311530
O25	O	1.085691	0.883733	-0.014853
O26	O	0.922206	0.902040	0.318734
O27	O	0.793249	0.916485	0.311510
O28	O	1.085690	0.883731	0.136288
O29	O	0.793249	1.259256	-0.222874
O30	O	0.922211	0.559277	0.318769
O31	O	1.085693	0.540965	0.327927
O32	O	1.085694	0.540968	0.136323
O33	O	0.629765	1.277565	-0.040427
O34	O	0.793247	1.259253	-0.031269
O35	O	0.905850	0.791073	0.219847
O36	O	1.002090	0.780295	0.112443
O37	O	0.905849	1.016678	-0.005765
O38	O	0.809608	1.027456	0.101638
C39	C	0.857734	0.607732	0.047978
C40	C	0.857735	0.505393	0.047989
C41	C	0.600465	0.938084	0.033536
C42	C	0.513152	0.947864	0.028645
C43	C	0.715624	0.495656	-0.126598
C44	C	0.644579	0.634977	-0.213835
C45	C	0.644584	0.731107	-0.213801
C46	C	0.715640	0.687907	-0.126519
C47	C	0.786685	0.548586	-0.039282
C48	C	0.786674	0.452464	-0.039328
C49	C	0.928780	0.366072	0.135226
C50	C	0.928781	0.269940	0.135189
C51	C	0.999836	0.322872	0.222508
C52	C	1.070887	0.183548	0.309742
C53	C	1.070879	0.087417	0.309704
C54	C	0.999826	0.130619	0.222426
C55	C	0.353308	0.965729	0.019712
C56	C	0.362145	0.852810	0.076180
C57	C	0.273202	0.862750	0.071210
C58	C	0.442257	0.955791	0.024681
C59	C	1.114994	0.880450	0.062359
C60	C	1.202307	0.870669	0.067251
C61	C	0.857732	0.909271	-0.253572
C62	C	0.857733	0.909273	-0.355905
C63	C	0.857726	1.210802	0.047917
C64	C	0.857725	1.313140	0.047907
C65	C	0.999819	0.893373	-0.347970
C66	C	1.070858	0.885428	-0.392079
C67	C	1.070855	0.885428	-0.488229
C68	C	0.999807	0.893370	-0.540270
C69	C	0.928769	0.901315	-0.496160
C70	C	0.928778	0.901318	-0.400009
C71	C	0.786688	0.917205	-0.504090
C72	C	0.786685	0.917215	-0.407945
C73	C	0.715640	0.925147	-0.556131
C74	C	0.644595	0.933102	-0.512026
C75	C	0.644601	0.933103	-0.415871
C76	C	0.715646	0.925160	-0.363835
C77	C	0.857728	0.909262	0.349467
C78	C	0.857727	0.909260	0.451800
C79	C	1.114998	0.578915	0.062390
C80	C	1.202313	0.466796	0.067291
C81	C	0.857731	0.607727	0.349498
C82	C	0.857732	0.505387	0.451841
C83	C	1.114996	0.578910	0.363909
C84	C	1.202310	0.466790	0.471144
C85	C	0.600464	1.239623	-0.268014
C86	C	0.513150	1.351744	-0.375248
C87	C	0.600462	1.239619	0.033506
C88	C	0.513147	1.351737	0.028604
C89	C	0.857728	1.210806	-0.253602
C90	C	0.857728	1.313146	-0.355945
C91	C	1.193081	0.419772	0.007891
C92	C	1.275114	0.314439	0.012474
C93	C	1.366379	0.256125	0.076464
C94	C	1.375608	0.303159	0.135866
C95	C	1.293576	0.408497	0.131276
C96	C	1.293558	0.408510	0.465439
C97	C	1.375606	0.303174	0.566189
C98	C	1.366404	0.256113	0.672641
C99	C	1.275146	0.314403	0.678343
C100	C	1.193100	0.419744	0.577595
C101	C	0.421902	1.410035	-0.369544
C102	C	0.339853	1.515401	-0.470293
C103	C	0.349055	1.562467	-0.576746
C104	C	0.440314	1.504171	-0.582448
C105	C	0.522360	1.398813	-0.481699
C106	C	0.522379	1.398771	0.087994
C107	C	0.440345	1.504131	0.083385
C108	C	0.349081	1.562448	0.019392
C109	C	0.339851	1.515410	-0.040005
C110	C	0.421884	1.410059	-0.035402
C111	C	0.958216	0.494101	0.575246
C112	C	1.008457	0.440377	0.685026
C113	C	1.008453	0.344222	0.781182
C114	C	0.958200	0.301792	0.767554
C115	C	0.907958	0.355516	0.657774
C116	C	0.907970	0.451670	0.561622
C117	C	0.807470	0.366809	0.534370
C118	C	0.807478	0.462957	0.438212
C119	C	0.757216	0.324380	0.520741
C120	C	0.706978	0.378097	0.410960
C121	C	0.706985	0.474256	0.314801
C122	C	0.757236	0.516681	0.328432
H123	H	0.586724	0.670138	-0.284896
O124	O	0.241413	1.578320	-0.109027
H125	H	0.201641	1.564316	-0.051799
O126	O	0.715629	0.925162	-0.659842
H127	H	0.783867	0.829481	-0.637357
H128	H	0.278950	1.069858	-0.032360
H129	H	0.715654	0.925167	-0.285549
O130	O	0.450230	1.554943	-0.697270
H131	H	0.490061	1.469771	-0.704820
H132	H	0.414391	1.371721	-0.282874
O133	O	0.260554	1.676118	-0.685402
H134	H	0.217231	1.644068	-0.687760
H135	H	0.666061	0.343549	0.399876
O136	O	0.958228	0.597805	0.471540
H137	H	0.914854	0.628029	0.392914
O138	O	0.620787	1.335925	-0.487835
H139	H	0.629128	1.291183	-0.534050
O140	O	1.454901	0.142480	0.781304
H141	H	1.519894	0.109856	0.759441
O142	O	0.460641	0.714860	0.145150
H143	H	0.516050	0.728602	0.138266
H144	H	1.267668	0.276071	0.765031
O145	O	0.999819	0.893376	-0.244266
H146	H	1.061157	0.886511	-0.215486
H147	H	1.118804	0.467183	0.582256
O148	O	1.147510	0.876807	-0.335926
H149	H	1.135586	0.878132	-0.261651
O150	O	1.147467	0.876873	-0.535821
H151	H	1.196867	0.871362	-0.483492
O152	O	0.241432	1.578245	-0.464131
H153	H	0.248825	1.527786	-0.373180
O154	O	1.062667	0.486129	0.699722
H155	H	1.011962	0.597883	0.655880
O156	O	1.062648	0.286259	0.899595
H157	H	1.097599	0.331904	0.892923
H158	H	0.596683	1.351297	0.140112
O159	O	0.652892	0.532078	0.196399
H160	H	0.617991	0.486365	0.203087
H161	H	0.586757	0.939559	-0.554398
H162	H	0.447879	1.542411	0.131759
H163	H	0.586722	0.844551	-0.284825
O164	O	1.094651	0.482670	-0.061142
H165	H	1.102029	0.432274	-0.101684
H166	H	0.282293	1.648231	0.015653
H167	H	0.958191	0.223510	0.845854
O168	O	0.411922	1.359320	-0.099450
H169	H	0.334677	1.417568	-0.144707
H170	H	0.715631	0.766189	-0.126491
H171	H	0.586755	0.939565	-0.379958
H172	H	0.999816	0.893353	-0.618551
O173	O	0.757221	0.220651	0.624447
H174	H	0.800613	0.190402	0.703075
O175	O	0.757236	0.620402	0.224725
H176	H	0.832045	0.575115	0.228984
O177	O	0.715624	0.391970	-0.126635
H178	H	0.654279	0.445411	-0.201977
H179	H	1.128731	0.148391	0.380804
O180	O	0.999849	0.426560	0.222525
H181	H	0.931616	0.495513	0.226770
H182	H	1.433167	0.170353	0.080192
O183	O	0.999827	0.026937	0.222380
H184	H	0.992941	-0.033626	0.301960
O185	O	1.265150	0.263711	-0.051588
H186	H	1.187905	0.321945	-0.096833
O187	O	1.474045	0.240248	0.204893
H188	H	1.529528	0.159090	0.198110
H189	H	1.128730	-0.026024	0.380747
H190	H	1.301106	0.446770	0.179654
O191	O	1.303495	0.459272	0.350629
H192	H	1.380736	0.401051	0.363607
O193	O	1.474028	0.240299	0.560027
H194	H	1.466635	0.290708	0.469076
