data_functionalizedCrystal
_audit_creation_method	'MofGen! by Chris Wilmer'
_symmetry_space_group_name_H-M	'P1'
_symmetry_Int_Tables_number	1
_symmetry_cell_setting	triclinic
loop_
_symmetry_equiv_pos_as_xyz
  x,y,z
_cell_length_a	11.792241
_cell_length_b	11.026607
_cell_length_c	10.065918
_cell_angle_alpha	82.291637
_cell_angle_beta	99.762002
_cell_angle_gamma	83.610284
loop_
_atom_site_label
_atom_site_type_symbol
_atom_site_fract_x
_atom_site_fract_y
_atom_site_fract_z
O1	O	0.494000	-1.629339	0.113506
O2	O	0.439808	-1.275676	0.113506
O3	O	0.303436	-1.461089	0.113496
O4	O	0.630372	-1.443927	0.113516
O5	O	0.267251	-1.428986	-0.113494
O6	O	0.403623	-1.243574	-0.113484
O7	O	0.457815	-1.597237	-0.113484
Zn8	Zn	0.424974	-1.415309	-0.149524
Zn9	Zn	0.472649	-1.457605	0.149545
O10	O	0.594187	-1.411824	-0.113475
C11	C	0.242839	-1.443960	0.000002
C12	C	0.116184	-1.440732	0.000003
C13	C	0.411718	-1.214349	0.000011
C14	C	0.381915	-1.079439	0.000011
C15	C	0.485905	-1.658565	0.000014
C16	C	0.515709	-1.793476	0.000023
C17	C	-0.115703	-1.434801	0.000026
C18	C	0.013335	-1.438097	0.000013
C19	C	0.654785	-1.428954	0.000023
C20	C	0.781440	-1.432182	0.000031
N21	N	0.392438	-1.386451	-0.353631
C22	C	0.464207	-1.006175	0.000017
C23	C	0.433406	-0.866738	0.000017
C24	C	0.461327	-1.447556	-0.421407
C25	C	0.436278	-1.425358	-0.578575
N26	N	0.505178	-1.486471	0.353652
H27	H	0.557460	-1.046680	0.000015
C28	C	0.641703	-0.848183	0.000031
N29	N	0.736600	-0.889390	0.000040
H30	H	0.288666	-1.038938	0.000041
C31	C	0.609919	-1.579352	-0.567561
N32	N	0.688811	-1.649306	-0.508217
H33	H	0.340151	-0.826243	0.000046
H34	H	0.538847	-1.516310	-0.363076
H35	H	0.358748	-1.356608	-0.636900
H36	H	0.314913	-1.317706	-0.411961
