data_functionalizedCrystal
_audit_creation_method	'MofGen! by Chris Wilmer'
_symmetry_space_group_name_H-M	'P1'
_symmetry_Int_Tables_number	1
_symmetry_cell_setting	triclinic
loop_
_symmetry_equiv_pos_as_xyz
  x,y,z
_cell_length_a	21.295418
_cell_length_b	13.032721
_cell_length_c	13.032268
_cell_angle_alpha	76.710373
_cell_angle_beta	82.858726
_cell_angle_gamma	97.222652
loop_
_atom_site_label
_atom_site_type_symbol
_atom_site_fract_x
_atom_site_fract_y
_atom_site_fract_z
Zn1	Zn	-0.874106	0.498740	-0.654662
Zn2	Zn	-0.874037	0.653825	-0.499610
Zn3	Zn	-0.784152	0.476270	-0.477034
Zn4	Zn	-0.753512	0.676346	-0.677088
O5	O	-0.821452	0.576295	-0.577098
O6	O	-0.962183	0.519291	-0.634156
O7	O	-0.874908	0.611443	-0.348002
O8	O	-0.808936	0.330616	-0.481763
O9	O	-0.962132	0.633231	-0.520240
O10	O	-0.875025	0.347124	-0.612266
O11	O	-0.808870	0.480995	-0.331416
O12	O	-0.692001	0.502832	-0.503509
O13	O	-0.756715	0.671615	-0.822726
O14	O	-0.669490	0.649827	-0.650488
O15	O	-0.845314	0.541129	-0.806250
O16	O	-0.845197	0.805448	-0.541986
O17	O	-0.756648	0.821994	-0.672379
C18	C	-0.657906	0.576336	-0.576983
C19	C	-0.587936	0.576382	-0.576962
C20	C	-0.797605	0.852263	-0.612089
C21	C	-0.787458	0.970328	-0.627093
C22	C	-0.985636	0.576256	-0.577215
C23	C	-1.055602	0.576239	-0.577264
C24	C	-0.543365	0.652999	-0.653404
C25	C	-0.477621	0.652979	-0.653449
C26	C	-0.456450	0.576350	-0.577034
C27	C	-0.501030	0.499719	-0.500585
C28	C	-0.566773	0.499735	-0.500550
N29	N	-0.361905	0.556260	-0.483091
N30	N	-0.299451	0.556252	-0.483128
C31	C	-0.258372	0.576297	-0.577138
N32	N	-0.282103	0.596371	-0.671113
N33	N	-0.344562	0.596385	-0.671075
C34	C	-0.385164	0.576324	-0.577064
C35	C	-0.142512	0.652896	-0.653634
C36	C	-0.076767	0.652869	-0.653679
C37	C	-0.100179	0.499614	-0.500807
C38	C	-0.165922	0.499637	-0.500771
C39	C	-0.187085	0.576284	-0.577183
C40	C	-0.797604	0.611391	-0.854099
C41	C	-0.787442	0.626346	-0.972141
C42	C	-0.845406	0.299253	-0.541995
C43	C	-0.855614	0.181194	-0.527036
C44	C	-0.826777	1.014750	-0.569315
C45	C	-0.816290	1.136776	-0.584822
C46	C	-0.826749	0.568452	-1.016615
C47	C	-0.816247	0.583908	-1.138616
C48	C	-0.845249	0.541260	-0.301165
C49	C	-0.855559	0.526005	-0.183087
H50	H	-0.560590	0.715409	-0.715627
O51	O	-0.480548	0.425317	-0.426211
C52	C	-0.503671	0.434972	-0.323243
H53	H	-0.548059	0.475525	-0.326131
H54	H	-0.465012	0.484974	-0.294318
C55	C	-0.466672	0.273389	-0.242394
C56	C	-0.521193	0.323188	-0.245939
H57	H	-0.477478	0.204437	-0.194706
H58	H	-0.451091	0.266886	-0.311764
H59	H	-0.434462	0.315068	-0.218292
H60	H	-0.553399	0.281516	-0.270053
H61	H	-0.536780	0.329682	-0.176570
O62	O	-0.766897	0.656819	-1.200992
C63	C	-0.791320	0.733466	-1.273881
H64	H	-0.843194	0.735796	-1.241257
H65	H	-0.789145	0.711195	-1.353736
C66	C	-0.687154	0.841265	-1.329769
C67	C	-0.750865	0.844134	-1.289695
H68	H	-0.662198	0.909530	-1.339528
H69	H	-0.670699	0.789625	-1.280665
H70	H	-0.685350	0.822702	-1.396310
H71	H	-0.752669	0.862684	-1.223149
H72	H	-0.767320	0.895780	-1.338788
H73	H	-0.896986	0.464987	-1.130846
H74	H	-0.746035	1.022636	-0.688043
H75	H	-0.868174	0.507440	-0.964369
O76	O	-0.209197	0.425311	-0.426368
C77	C	-0.200188	0.434924	-0.323415
H78	H	-0.175230	0.519069	-0.328682
H79	H	-0.169337	0.374420	-0.288544
C80	C	-0.296390	0.310141	-0.244475
C81	C	-0.265742	0.413493	-0.250943
H82	H	-0.336826	0.296917	-0.199769
H83	H	-0.302459	0.303661	-0.313836
H84	H	-0.270674	0.259734	-0.215419
H85	H	-0.291454	0.463899	-0.280011
H86	H	-0.259679	0.419981	-0.181586
O87	O	-0.434401	0.727508	-0.727758
C88	C	-0.467177	0.795137	-0.795216
H89	H	-0.517452	0.793255	-0.752145
H90	H	-0.470621	0.766593	-0.871015
C91	C	-0.368667	0.912425	-0.877590
C92	C	-0.430414	0.910120	-0.824687
H93	H	-0.345989	0.983351	-0.895774
H94	H	-0.346584	0.866860	-0.832146
H95	H	-0.371545	0.888632	-0.940750
H96	H	-0.427535	0.933900	-0.761522
H97	H	-0.452496	0.955692	-0.870121
O98	O	-0.610134	0.425452	-0.426252
C99	C	-0.648795	0.477128	-0.365176
H100	H	-0.648462	0.562413	-0.412708
H101	H	-0.629196	0.478694	-0.287934
C102	C	-0.718364	0.311507	-0.280214
C103	C	-0.717958	0.416253	-0.338597
H104	H	-0.761026	0.273955	-0.263814
H105	H	-0.692316	0.276690	-0.321358
H106	H	-0.702028	0.312826	-0.215853
H107	H	-0.734286	0.414933	-0.402962
H108	H	-0.744011	0.451068	-0.297462
O109	O	-0.162966	0.727384	-0.727970
C110	C	-0.109525	0.795015	-0.795444
H111	H	-0.066112	0.751976	-0.793701
H112	H	-0.098883	0.870682	-0.766653
C113	C	-0.177486	0.877676	-0.912537
C114	C	-0.124168	0.824812	-0.910403
H115	H	-0.186519	0.896061	-0.983448
H116	H	-0.213492	0.832115	-0.867077
H117	H	-0.168611	0.940726	-0.888539
H118	H	-0.133047	0.761757	-0.934387
H119	H	-0.088164	0.870363	-0.955869
O120	O	-0.876122	0.952293	-0.496486
C121	C	-0.851694	0.879501	-0.419751
H122	H	-0.799826	0.912251	-0.417325
H123	H	-0.853854	0.799623	-0.441981
C124	C	-0.955864	0.823422	-0.312157
C125	C	-0.892160	0.863651	-0.309171
H126	H	-0.980827	0.813640	-0.243946
H127	H	-0.972323	0.872460	-0.363856
H128	H	-0.957655	0.756861	-0.330687
H129	H	-0.890370	0.930215	-0.290654
H130	H	-0.875703	0.814623	-0.257465
O131	O	-0.033445	0.727162	-0.728034
C132	C	0.005240	0.675497	-0.789086
H133	H	-0.021251	0.592706	-0.785174
H134	H	0.051934	0.667611	-0.755818
C135	C	0.052744	0.843233	-0.910805
C136	C	0.020204	0.741551	-0.906008
H137	H	0.061977	0.883979	-0.982927
H138	H	0.026683	0.878042	-0.869672
H139	H	0.091651	0.836647	-0.883076
H140	H	-0.018706	0.748137	-0.933724
H141	H	0.046259	0.706744	-0.947149
H142	H	-0.082943	0.437217	-0.438593
O143	O	-0.738095	0.699253	-1.034519
C144	C	-0.762519	0.775900	-1.107409
H145	H	-0.814392	0.778230	-1.074785
H146	H	-0.760343	0.753629	-1.187264
C147	C	-0.658353	0.883699	-1.163296
C148	C	-0.722063	0.886568	-1.123223
H149	H	-0.633397	0.951964	-1.173056
H150	H	-0.641897	0.832059	-1.114192
H151	H	-0.656549	0.865136	-1.229838
H152	H	-0.723867	0.905118	-1.056677
H153	H	-0.738518	0.938214	-1.172316
H154	H	-0.774864	1.189081	-0.645776
O155	O	-0.904963	1.118745	-0.454200
C156	C	-0.880538	1.045954	-0.377461
H157	H	-0.828668	1.078700	-0.375037
H158	H	-0.882701	0.966073	-0.399685
C159	C	-0.984708	0.989891	-0.269865
C160	C	-0.921003	1.030115	-0.266882
H161	H	-1.009670	0.980116	-0.201655
H162	H	-1.001165	1.038929	-0.321567
H163	H	-0.986502	0.923328	-0.288390
H164	H	-0.919209	1.096682	-0.248371
H165	H	-0.904547	0.981087	-0.215174
