data_functionalizedCrystal
_audit_creation_method	'MofGen! by Chris Wilmer'
_symmetry_space_group_name_H-M	'P1'
_symmetry_Int_Tables_number	1
_symmetry_cell_setting	triclinic
loop_
_symmetry_equiv_pos_as_xyz
  x,y,z
_cell_length_a	14.971491
_cell_length_b	17.019294
_cell_length_c	13.448316
_cell_angle_alpha	86.114424
_cell_angle_beta	89.991393
_cell_angle_gamma	83.504855
loop_
_atom_site_label
_atom_site_type_symbol
_atom_site_fract_x
_atom_site_fract_y
_atom_site_fract_z
O1	O	1.186689	0.102820	-0.091537
O2	O	1.686689	0.602820	0.408463
O3	O	0.926259	0.115127	-0.092583
O4	O	1.426259	0.615127	0.407417
O5	O	1.063739	-0.005853	-0.082223
O6	O	1.563739	0.494147	0.417777
O7	O	1.049209	0.223800	-0.101897
O8	O	1.549209	0.723800	0.398103
O9	O	1.063721	-0.005860	0.083161
O10	O	1.563721	0.494140	0.583161
O11	O	0.926242	0.115119	0.072801
O12	O	1.426242	0.615119	0.572801
O13	O	1.186672	0.102813	0.073847
O14	O	1.686672	0.602813	0.573847
Cu15	Cu	1.056455	0.108965	0.088425
Cu16	Cu	1.556455	0.608965	0.588425
Cu17	Cu	1.056476	0.108974	-0.107161
Cu18	Cu	1.556476	0.608974	0.392839
O19	O	1.049192	0.223792	0.063487
O20	O	1.549192	0.723792	0.563487
C21	C	0.892927	0.114572	-0.009843
C22	C	1.392927	0.614572	0.490157
C23	C	0.793634	0.112920	-0.009699
C24	C	1.293634	0.612920	0.490301
C25	C	0.365956	0.105798	-0.099262
C26	C	0.865956	0.605798	0.400738
C27	C	0.459252	0.107348	-0.099391
C28	C	0.959252	0.607348	0.400609
C29	C	0.505887	0.108123	-0.009303
C30	C	1.005887	0.608123	0.490697
C31	C	0.459221	0.107342	0.080920
C32	C	0.959221	0.607342	0.580920
C33	C	0.365927	0.105787	0.081048
C34	C	0.865927	0.605787	0.581048
C35	C	0.653675	0.110585	0.080646
C36	C	1.153675	0.610585	0.580646
C37	C	0.746975	0.112141	0.080518
C38	C	1.246975	0.612141	0.580518
C39	C	0.747000	0.112145	-0.099794
C40	C	1.247000	0.612145	0.400206
C41	C	0.653706	0.110591	-0.099665
C42	C	1.153706	0.610591	0.400335
C43	C	0.607047	0.109810	-0.009442
C44	C	1.107047	0.609810	0.490558
C45	C	1.063179	-0.035246	0.002985
C46	C	1.563179	0.464754	0.502985
C47	C	1.061526	-0.122818	0.010481
C48	C	1.561526	0.377182	0.510481
C49	C	1.060761	-0.163951	-0.076148
C50	C	1.560761	0.336049	0.423852
C51	C	1.059202	-0.246234	-0.069102
C52	C	1.559202	0.253766	0.430898
C53	C	1.058414	-0.287383	0.024574
C54	C	1.558414	0.212617	0.524574
C55	C	1.059177	-0.246244	0.111209
C56	C	1.559177	0.253756	0.611209
C57	C	1.060729	-0.163962	0.104162
C58	C	1.560729	0.336038	0.604162
C59	C	1.053720	-0.535821	0.050363
C60	C	1.553720	-0.035821	0.550363
C61	C	1.052170	-0.618109	0.057404
C62	C	1.552170	-0.118109	0.557404
C63	C	1.052193	-0.618094	-0.122909
C64	C	1.552193	-0.118094	0.377091
C65	C	1.053751	-0.535811	-0.129948
C66	C	1.553751	-0.035811	0.370052
C67	C	1.054509	-0.494678	-0.043313
C68	C	1.554509	0.005322	0.456687
C69	C	1.056823	-0.371490	0.031779
C70	C	1.556823	0.128510	0.531779
C71	C	1.056093	-0.410572	-0.050518
C72	C	1.556093	0.089428	0.449482
C73	C	1.220004	0.103368	-0.008895
C74	C	1.720004	0.603368	0.491105
C75	C	1.319296	0.105019	-0.009046
C76	C	1.819296	0.605019	0.490954
C77	C	1.049752	0.253186	-0.021723
C78	C	1.549752	0.753186	0.478277
C79	C	1.051405	0.340758	-0.029225
C80	C	1.551405	0.840758	0.470775
N81	N	1.056447	0.108959	0.225990
N82	N	1.556447	0.608959	0.725990
N83	N	1.056490	0.108975	-0.244725
N84	N	1.556490	0.608975	0.255275
C85	C	1.117342	0.055411	0.282616
C86	C	1.617342	0.555411	0.782616
C87	C	1.117348	0.055410	0.386719
C88	C	1.617348	0.555410	0.886719
C89	C	1.056462	0.108962	0.434194
C90	C	1.556462	0.608962	0.934194
C91	C	0.995561	0.162512	0.377561
C92	C	1.495561	0.662512	0.877561
C93	C	0.995552	0.162508	0.273460
C94	C	1.495552	0.662508	0.773460
C95	C	0.995586	0.162517	0.594541
C96	C	1.495586	0.662517	1.094541
C97	C	0.995596	0.162522	0.698649
C98	C	1.495596	0.662522	1.198649
C99	C	1.117382	0.055419	0.707800
C100	C	1.617382	0.555419	1.207800
C101	C	1.117373	0.055416	0.603699
C102	C	1.617373	0.555416	1.103699
C103	C	1.056472	0.108967	0.547073
C104	C	1.556472	0.608967	1.047073
H105	H	1.061407	-0.130454	-0.152429
H106	H	1.561407	0.369546	0.347571
H107	H	0.327937	0.105160	0.154511
H108	H	0.827937	0.605160	0.654511
N109	N	1.183059	-0.002326	0.447779
N110	N	1.683059	0.497674	0.947779
H111	H	1.172861	-0.058337	0.434473
H112	H	1.672861	0.441663	0.934473
H113	H	1.246479	0.006954	0.428801
H114	H	1.746479	0.506954	0.928801
H115	H	1.166954	0.011814	0.565045
H116	H	1.666954	0.511814	1.065045
N117	N	0.603410	0.109752	-0.196832
N118	N	1.103410	0.609752	0.303168
H119	H	0.572018	0.060244	-0.196602
H120	H	1.072018	0.560244	0.303398
H121	H	0.557434	0.158002	-0.204929
H122	H	1.057434	0.658002	0.295071
H123	H	0.945982	0.206112	0.416221
H124	H	1.445982	0.706112	0.916221
H125	H	1.058582	-0.279721	-0.139644
H126	H	1.558582	0.220279	0.360356
H127	H	1.054355	-0.502343	0.120908
H128	H	1.554355	-0.002343	0.620908
N129	N	0.797318	0.112991	-0.197109
N130	N	1.297318	0.612991	0.302891
H131	H	0.863496	0.114090	-0.183524
H132	H	1.363496	0.614090	0.316476
H133	H	0.788329	0.063859	-0.232273
H134	H	1.288329	0.563859	0.267727
H135	H	0.615686	0.109959	0.154114
H136	H	1.115686	0.609959	0.654114
H137	H	1.058530	-0.279753	0.187483
H138	H	1.558530	0.220247	0.687483
N139	N	0.797277	0.112975	0.177681
N140	N	1.297277	0.612975	0.677681
H141	H	0.753565	0.112238	0.234857
H142	H	1.253565	0.612238	0.734857
H143	H	0.843301	0.064757	0.185731
H144	H	1.343301	0.564757	0.685731
H145	H	1.054394	-0.502313	-0.206229
H146	H	1.554394	-0.002313	0.293771
H147	H	1.166926	0.011807	0.243969
H148	H	1.666926	0.511807	0.743969
N149	N	0.315658	0.104955	-0.196426
N150	N	0.815658	0.604955	0.303574
H151	H	0.269636	0.153171	-0.204586
H152	H	0.769636	0.653171	0.295414
H153	H	0.359435	0.105651	-0.253539
H154	H	0.859435	0.605651	0.246461
N155	N	1.051375	-0.662457	-0.216346
N156	N	1.551375	-0.162457	0.283654
H157	H	1.050271	-0.720826	-0.197672
H158	H	1.550271	-0.220826	0.302328
H159	H	0.996228	-0.641730	-0.257488
H160	H	1.496228	-0.141730	0.242512
H161	H	1.166969	0.011816	0.753911
H162	H	1.666969	0.511816	1.253911
N163	N	0.509511	0.108180	0.178090
N164	N	1.009511	0.608180	0.678090
H165	H	0.555536	0.059965	0.186247
H166	H	1.055536	0.559965	0.686247
H167	H	0.540843	0.157721	0.177804
H168	H	1.040843	0.657721	0.677804
N169	N	1.051324	-0.662495	0.158444
N170	N	1.551324	-0.162495	0.658444
H171	H	1.052038	-0.623952	0.212259
H172	H	1.552038	-0.123952	0.712259
H173	H	0.995260	-0.690297	0.164747
H174	H	1.495260	-0.190297	0.664747
N175	N	1.061550	-0.119592	0.197596
N176	N	1.561550	0.380408	0.697596
H177	H	1.060817	-0.158144	0.258010
H178	H	1.560817	0.341856	0.758010
H179	H	1.117615	-0.091792	0.199144
H180	H	1.617615	0.408208	0.699144
H181	H	1.056728	-0.377065	-0.126789
H182	H	1.556728	0.122935	0.373211
N183	N	1.055997	-0.415877	0.132813
N184	N	1.555997	0.084123	0.632813
H185	H	0.999937	-0.443682	0.139221
H186	H	1.499937	0.056318	0.639221
H187	H	1.110815	-0.456312	0.140209
H188	H	1.610815	0.043688	0.640209
H189	H	0.946015	0.206128	0.737297
H190	H	1.446015	0.706128	1.237297
N191	N	0.929898	0.220271	0.533462
N192	N	1.429898	0.720271	1.033462
H193	H	0.891330	0.254199	0.579332
H194	H	1.391330	0.754199	1.079332
H195	H	0.964089	0.255194	0.487262
H196	H	1.464089	0.755194	0.987262
N197	N	0.929868	0.220258	0.212380
N198	N	1.429868	0.720258	0.712380
H199	H	0.891298	0.254184	0.258250
H200	H	1.391298	0.754184	0.758250
H201	H	0.964054	0.255183	0.166177
H202	H	1.464054	0.755183	0.666177
H203	H	0.497239	0.107977	-0.172854
H204	H	0.997239	0.607977	0.327146
