data_functionalizedCrystal
_audit_creation_method	'MofGen! by Chris Wilmer'
_symmetry_space_group_name_H-M	'P1'
_symmetry_Int_Tables_number	1
_symmetry_cell_setting	triclinic
loop_
_symmetry_equiv_pos_as_xyz
  x,y,z
_cell_length_a	6.817900
_cell_length_b	17.078472
_cell_length_c	12.200875
_cell_angle_alpha	95.444452
_cell_angle_beta	107.143593
_cell_angle_gamma	99.306020
loop_
_atom_site_label
_atom_site_type_symbol
_atom_site_fract_x
_atom_site_fract_y
_atom_site_fract_z
V1	V	-4.047438	-0.109947	-0.357546
V2	V	-3.547438	0.390053	0.142454
O3	O	-4.056007	0.005098	-0.350858
O4	O	-3.556007	0.505098	0.149142
O5	O	-3.978184	-0.217829	-0.354986
O6	O	-3.478184	0.282171	0.145014
O7	O	-4.017467	-0.108338	-0.513536
O8	O	-3.517467	0.391662	-0.013536
O9	O	-4.016453	-0.105151	-0.191211
O10	O	-3.516453	0.394849	0.308789
V11	V	-4.531380	-0.096177	-0.337664
V12	V	-4.031380	0.403823	0.162336
O13	O	-4.307777	-0.140154	-0.401156
O14	O	-3.807777	0.359846	0.098844
O15	O	-4.721239	-0.065971	-0.294054
O16	O	-4.221239	0.434029	0.205946
O17	O	-4.377428	0.011704	-0.340224
O18	O	-3.877428	0.511704	0.159776
O19	O	-4.640208	-0.211222	-0.344352
O20	O	-4.140208	0.288778	0.155648
O21	O	-4.679762	-0.100973	-0.503999
O22	O	-4.179762	0.399027	-0.003999
O23	O	-4.338145	-0.097787	-0.181674
O24	O	-3.838145	0.402213	0.318326
C25	C	-3.817515	-0.244126	-0.349316
C26	C	-3.317515	0.255874	0.150684
C27	C	-3.842302	-0.332321	-0.348264
C28	C	-3.342302	0.167679	0.151736
C29	C	-4.035951	-0.377798	-0.353486
C30	C	-3.535951	0.122202	0.146514
C31	C	-4.059232	-0.460668	-0.352504
C32	C	-3.559232	0.039332	0.147496
C33	C	-3.888857	-0.498056	-0.346290
C34	C	-3.388857	0.001944	0.153710
C35	C	-3.695194	-0.452573	-0.341071
C36	C	-3.195194	0.047427	0.158929
C37	C	-3.671920	-0.369706	-0.342061
C38	C	-3.171920	0.130294	0.157939
C39	C	-3.938952	-0.745459	-0.342722
C40	C	-3.438952	-0.245459	0.157278
C41	C	-3.962241	-0.828331	-0.341728
C42	C	-3.462241	-0.328331	0.158272
C43	C	-4.326278	-0.836420	-0.353164
C44	C	-3.826278	-0.336420	0.146836
C45	C	-4.302983	-0.753551	-0.354147
C46	C	-3.802983	-0.253551	0.145853
C47	C	-4.109326	-0.708075	-0.348933
C48	C	-3.609326	-0.208075	0.151067
N49	N	-3.912648	-0.582761	-0.345282
N50	N	-3.412648	-0.082761	0.154718
N51	N	-4.085542	-0.623373	-0.349949
N52	N	-3.585542	-0.123373	0.150051
C53	C	-3.867624	-0.104457	-0.551560
C54	C	-3.367624	0.395543	-0.051560
C55	C	-3.924264	-0.103855	-0.679082
C56	C	-3.424264	0.396145	-0.179082
C57	C	-4.027925	-0.102753	-0.912558
C58	C	-3.527925	0.397247	-0.412558
C59	C	-3.970233	-0.103366	-0.782635
C60	C	-3.470233	0.396634	-0.282635
C61	C	-4.201437	0.037997	-0.345890
C62	C	-3.701437	0.537997	0.154110
C63	C	-4.155890	0.126191	-0.346951
C64	C	-3.655890	0.626191	0.153049
C65	C	-4.151329	-0.101670	-0.143644
C66	C	-3.651329	0.398330	0.356356
C67	C	-4.073927	-0.102268	-0.016121
C68	C	-3.573927	0.397732	0.483879
H69	H	-3.823503	-0.858773	-0.336695
H70	H	-3.323503	-0.358773	0.163305
H71	H	-3.781265	-0.708441	-0.338469
H72	H	-3.281265	-0.208441	0.161531
F73	F	-3.513872	-0.492368	-0.334465
F74	F	-3.013872	0.007632	0.165535
F75	F	-3.465815	-0.321306	-0.336508
F76	F	-2.965815	0.178694	0.163492
H77	H	-4.174688	-0.347362	-0.358535
H78	H	-3.674688	0.152638	0.141465
H79	H	-4.441729	-0.723116	-0.359215
H80	H	-3.941729	-0.223116	0.140785
F81	F	-4.532371	-0.884824	-0.358713
F82	F	-4.032371	-0.384824	0.141287
F83	F	-4.265338	-0.509065	-0.358062
F84	F	-3.765338	-0.009065	0.141938
