data_functionalizedCrystal
_audit_creation_method	'MofGen! by Chris Wilmer'
_symmetry_space_group_name_H-M	'P1'
_symmetry_Int_Tables_number	1
_symmetry_cell_setting	triclinic
loop_
_symmetry_equiv_pos_as_xyz
  x,y,z
_cell_length_a	19.121241
_cell_length_b	29.839131
_cell_length_c	29.839126
_cell_angle_alpha	90.031806
_cell_angle_beta	92.463783
_cell_angle_gamma	92.469032
loop_
_atom_site_label
_atom_site_type_symbol
_atom_site_fract_x
_atom_site_fract_y
_atom_site_fract_z
Zn1	Zn	1.073716	-0.149653	0.283340
Zn2	Zn	1.323716	0.100347	0.533340
Zn3	Zn	1.573716	0.350347	0.783340
Zn4	Zn	1.823716	0.600347	1.033340
Zn5	Zn	1.073607	-0.224776	0.208197
Zn6	Zn	1.323607	0.025224	0.458197
Zn7	Zn	1.573607	0.275224	0.708197
Zn8	Zn	1.823607	0.525224	0.958197
Zn9	Zn	0.956260	-0.152856	0.205011
Zn10	Zn	1.206260	0.097144	0.455011
Zn11	Zn	1.456260	0.347144	0.705011
Zn12	Zn	1.706260	0.597144	0.955011
Zn13	Zn	0.956207	-0.227956	0.280088
Zn14	Zn	1.206207	0.022044	0.530088
Zn15	Zn	1.456207	0.272044	0.780088
Zn16	Zn	1.706207	0.522044	1.030088
O17	O	1.014948	-0.188810	0.244159
O18	O	1.264948	0.061190	0.494159
O19	O	1.514948	0.311190	0.744159
O20	O	1.764948	0.561190	0.994159
O21	O	1.171989	-0.156947	0.276066
O22	O	1.421989	0.093053	0.526066
O23	O	1.671989	0.343053	0.776066
O24	O	1.921989	0.593053	1.026066
O25	O	1.058017	-0.215246	0.144906
O26	O	1.308017	0.034754	0.394906
O27	O	1.558017	0.284754	0.644906
O28	O	1.808017	0.534754	0.894906
O29	O	0.971909	-0.089562	0.215429
O30	O	1.221909	0.160438	0.465429
O31	O	1.471909	0.410438	0.715429
O32	O	1.721909	0.660438	0.965429
O33	O	1.171909	-0.212140	0.220859
O34	O	1.421909	0.037860	0.470859
O35	O	1.671909	0.287860	0.720859
O36	O	1.921909	0.537860	0.970859
O37	O	1.058203	-0.087209	0.272977
O38	O	1.308203	0.162791	0.522977
O39	O	1.558203	0.412791	0.772977
O40	O	1.808203	0.662791	1.022977
O41	O	0.971803	-0.162407	0.142566
O42	O	1.221803	0.087593	0.392566
O43	O	1.471803	0.337593	0.642566
O44	O	1.721803	0.587593	0.892566
O45	O	0.857965	-0.165490	0.212276
O46	O	1.107965	0.084510	0.462276
O47	O	1.357965	0.334510	0.712276
O48	O	1.607965	0.584510	0.962276
O49	O	0.971818	-0.217559	0.343387
O50	O	1.221818	0.032441	0.593387
O51	O	1.471818	0.282441	0.843387
O52	O	1.721818	0.532441	1.093387
O53	O	0.857926	-0.220665	0.267435
O54	O	1.107926	0.029335	0.517435
O55	O	1.357926	0.279335	0.767435
O56	O	1.607926	0.529335	1.017435
O57	O	1.058151	-0.160030	0.345776
O58	O	1.308151	0.089970	0.595776
O59	O	1.558151	0.339970	0.845776
O60	O	1.808151	0.589970	1.095776
O61	O	1.057966	-0.288067	0.217706
O62	O	1.307966	-0.038067	0.467706
O63	O	1.557966	0.211933	0.717706
O64	O	1.807966	0.461933	0.967706
O65	O	0.971712	-0.290403	0.270524
O66	O	1.221712	-0.040403	0.520524
O67	O	1.471712	0.209597	0.770524
O68	O	1.721712	0.459597	1.020524
C69	C	0.832461	-0.193771	0.239157
C70	C	1.082461	0.056229	0.489157
C71	C	1.332461	0.306229	0.739157
C72	C	1.582461	0.556229	0.989157
C73	C	0.754392	-0.195903	0.237028
C74	C	1.004392	0.054097	0.487028
C75	C	1.254392	0.304097	0.737028
C76	C	1.504392	0.554097	0.987028
C77	C	0.717758	-0.168215	0.264815
C78	C	0.967758	0.081785	0.514815
C79	C	1.217758	0.331785	0.764815
C80	C	1.467758	0.581785	1.014815
C81	C	0.644404	-0.170217	0.262811
C82	C	0.894404	0.079783	0.512811
C83	C	1.144404	0.329783	0.762811
C84	C	1.394404	0.579783	1.012811
C85	C	0.607686	-0.199909	0.233021
C86	C	0.857686	0.050091	0.483021
C87	C	1.107686	0.300091	0.733021
C88	C	1.357686	0.550091	0.983021
C89	C	0.644326	-0.227599	0.205231
C90	C	0.894326	0.022401	0.455231
C91	C	1.144326	0.272401	0.705231
C92	C	1.394326	0.522401	0.955231
C93	C	0.717678	-0.225595	0.207234
C94	C	0.967678	0.024405	0.457234
C95	C	1.217678	0.274405	0.707234
C96	C	1.467678	0.524405	0.957234
C97	C	0.386207	-0.207395	0.225533
C98	C	0.636207	0.042605	0.475533
C99	C	0.886207	0.292605	0.725533
C100	C	1.136207	0.542605	0.975533
C101	C	0.312850	-0.209398	0.223533
C102	C	0.562850	0.040602	0.473533
C103	C	0.812850	0.290602	0.723533
C104	C	1.062850	0.540602	0.973533
C105	C	0.312933	-0.152015	0.281113
C106	C	0.562933	0.097985	0.531113
C107	C	0.812933	0.347985	0.781113
C108	C	1.062933	0.597985	1.031113
C109	C	0.386287	-0.150015	0.283114
C110	C	0.636287	0.099985	0.533114
C111	C	0.886287	0.349985	0.783114
C112	C	1.136287	0.599985	1.033114
C113	C	0.422920	-0.177703	0.255323
C114	C	0.672920	0.072297	0.505323
C115	C	0.922920	0.322297	0.755323
C116	C	1.172920	0.572297	1.005323
C117	C	0.532707	-0.201957	0.230973
C118	C	0.782707	0.048043	0.480973
C119	C	1.032707	0.298043	0.730973
C120	C	1.282707	0.548043	0.980973
C121	C	0.497898	-0.175652	0.257369
C122	C	0.747898	0.074348	0.507369
C123	C	0.997898	0.324348	0.757369
C124	C	1.247898	0.574348	1.007369
C125	C	1.014840	-0.305536	0.244118
C126	C	1.264840	-0.055536	0.494118
C127	C	1.514840	0.194464	0.744118
C128	C	1.764840	0.444464	0.994118
C129	C	1.014859	-0.355470	0.244118
C130	C	1.264859	-0.105470	0.494118
C131	C	1.514859	0.144530	0.744118
C132	C	1.764859	0.394530	0.994118
C133	C	1.059871	-0.663851	0.274165
C134	C	1.309871	-0.413851	0.524165
C135	C	1.559871	-0.163851	0.774165
C136	C	1.809871	0.086149	1.024165
C137	C	1.059947	-0.851522	0.274194
C138	C	1.309947	-0.601522	0.524194
C139	C	1.559947	-0.351522	0.774194
C140	C	1.809947	-0.101522	1.024194
O141	O	1.098113	-0.874716	0.299710
O142	O	1.348113	-0.624716	0.549710
O143	O	1.598113	-0.374716	0.799710
O144	O	1.848113	-0.124716	1.049710
N145	N	1.015067	-0.876249	0.244212
N146	N	1.265067	-0.626249	0.494212
N147	N	1.515067	-0.376249	0.744212
N148	N	1.765067	-0.126249	0.994212
C149	C	0.970161	-0.854056	0.214223
C150	C	1.220161	-0.604056	0.464223
C151	C	1.470161	-0.354056	0.714223
C152	C	1.720161	-0.104056	0.964223
O153	O	0.931984	-0.879395	0.188725
O154	O	1.181984	-0.629395	0.438725
O155	O	1.431984	-0.379395	0.688725
O156	O	1.681984	-0.129395	0.938725
C157	C	0.970082	-0.666386	0.214196
C158	C	1.220082	-0.416386	0.464196
C159	C	1.470082	-0.166386	0.714196
C160	C	1.720082	0.083614	0.964196
C161	C	1.014970	-0.641661	0.244177
C162	C	1.264970	-0.391661	0.494177
C163	C	1.514970	-0.141661	0.744177
C164	C	1.764970	0.108339	0.994177
C165	C	1.104755	-0.639126	0.304144
C166	C	1.354755	-0.389126	0.554144
C167	C	1.604755	-0.139126	0.804144
C168	C	1.854755	0.110874	1.054144
C169	C	1.104739	-0.592211	0.304134
C170	C	1.354739	-0.342211	0.554134
C171	C	1.604739	-0.092211	0.804134
C172	C	1.854739	0.157789	1.054134
C173	C	1.059837	-0.570021	0.274146
C174	C	1.309837	-0.320021	0.524146
C175	C	1.559837	-0.070021	0.774146
C176	C	1.809837	0.179979	1.024146
C177	C	1.014953	-0.594746	0.244168
C178	C	1.264953	-0.344746	0.494168
C179	C	1.514953	-0.094746	0.744168
C180	C	1.764953	0.155254	0.994168
C181	C	0.925172	-0.644194	0.184210
C182	C	1.175172	-0.394194	0.434210
C183	C	1.425172	-0.144194	0.684210
C184	C	1.675172	0.105806	0.934210
C185	C	0.925155	-0.597274	0.184206
C186	C	1.175155	-0.347274	0.434206
C187	C	1.425155	-0.097274	0.684206
C188	C	1.675155	0.152726	0.934206
C189	C	0.970044	-0.572549	0.214187
C190	C	1.220044	-0.322549	0.464187
C191	C	1.470044	-0.072549	0.714187
C192	C	1.720044	0.177451	0.964187
C193	C	0.970035	-0.525641	0.214171
C194	C	1.220035	-0.275641	0.464171
C195	C	1.470035	-0.025641	0.714171
C196	C	1.720035	0.224359	0.964171
N197	N	1.014916	-0.500914	0.244153
N198	N	1.264916	-0.250914	0.494153
N199	N	1.514916	-0.000914	0.744153
N200	N	1.764916	0.249086	0.994153
C201	C	1.059817	-0.523104	0.274140
C202	C	1.309817	-0.273104	0.524140
C203	C	1.559817	-0.023104	0.774140
C204	C	1.809817	0.226896	1.024140
C205	C	0.970207	-0.952586	0.214238
C206	C	1.220207	-0.702586	0.464238
C207	C	1.470207	-0.452586	0.714238
C208	C	1.720207	-0.202586	0.964238
C209	C	0.970227	-0.999503	0.214244
C210	C	1.220227	-0.749503	0.464244
C211	C	1.470227	-0.499503	0.714244
C212	C	1.720227	-0.249503	0.964244
C213	C	1.060013	-0.996965	0.274216
C214	C	1.310013	-0.746965	0.524216
C215	C	1.560013	-0.496965	0.774216
C216	C	1.810013	-0.246965	1.024216
C217	C	1.059995	-0.950047	0.274208
C218	C	1.309995	-0.700047	0.524208
C219	C	1.559995	-0.450047	0.774208
C220	C	1.809995	-0.200047	1.024208
C221	C	1.015087	-0.927858	0.244220
C222	C	1.265087	-0.677858	0.494220
C223	C	1.515087	-0.427858	0.744220
C224	C	1.765087	-0.177858	0.994220
C225	C	1.059779	-0.424579	0.274119
C226	C	1.309779	-0.174579	0.524119
C227	C	1.559779	0.075421	0.774119
C228	C	1.809779	0.325421	1.024119
C229	C	1.059760	-0.377660	0.274105
C230	C	1.309760	-0.127660	0.524105
C231	C	1.559760	0.122340	0.774105
C232	C	1.809760	0.372340	1.024105
C233	C	0.969972	-0.380202	0.214135
C234	C	1.219972	-0.130202	0.464135
C235	C	1.469972	0.119798	0.714135
C236	C	1.719972	0.369798	0.964135
C237	C	0.969993	-0.427117	0.214147
C238	C	1.219993	-0.177117	0.464147
C239	C	1.469993	0.072883	0.714147
C240	C	1.719993	0.322883	0.964147
C241	C	1.014899	-0.449304	0.244142
C242	C	1.264899	-0.199304	0.494142
C243	C	1.514899	0.050696	0.744142
C244	C	1.764899	0.300696	0.994142
O245	O	0.931884	-0.502418	0.188671
O246	O	1.181884	-0.252418	0.438671
O247	O	1.431884	-0.002418	0.688671
O248	O	1.681884	0.247582	0.938671
O249	O	1.097977	-0.497757	0.299641
O250	O	1.347977	-0.247757	0.549641
O251	O	1.597977	0.002243	0.799641
O252	O	1.847977	0.252243	1.049641
C253	C	1.059888	-0.710766	0.274174
C254	C	1.309888	-0.460766	0.524174
C255	C	1.559888	-0.210766	0.774174
C256	C	1.809888	0.039234	1.024174
C257	C	1.015004	-0.735491	0.244195
C258	C	1.265004	-0.485491	0.494195
C259	C	1.515004	-0.235491	0.744195
C260	C	1.765004	0.014509	0.994195
C261	C	0.970103	-0.713301	0.214208
C262	C	1.220103	-0.463301	0.464208
C263	C	1.470103	-0.213301	0.714208
C264	C	1.720103	0.036699	0.964208
C265	C	1.015024	-0.782408	0.244201
C266	C	1.265024	-0.532408	0.494201
C267	C	1.515024	-0.282408	0.744201
C268	C	1.765024	-0.032408	0.994201
C269	C	1.059925	-0.804598	0.274189
C270	C	1.309925	-0.554598	0.524189
C271	C	1.559925	-0.304598	0.774189
C272	C	1.809925	-0.054598	1.024189
C273	C	1.104806	-0.779870	0.304171
C274	C	1.354806	-0.529870	0.554171
C275	C	1.604806	-0.279870	0.804171
C276	C	1.854806	-0.029870	1.054171
C277	C	1.104789	-0.732955	0.304162
C278	C	1.354789	-0.482955	0.554162
C279	C	1.604789	-0.232955	0.804162
C280	C	1.854789	0.017045	1.054162
C281	C	0.925222	-0.738029	0.184226
C282	C	1.175222	-0.488029	0.434226
C283	C	1.425222	-0.238029	0.684226
C284	C	1.675222	0.011971	0.934226
C285	C	0.925243	-0.784944	0.184237
C286	C	1.175243	-0.534944	0.434237
C287	C	1.425243	-0.284944	0.684237
C288	C	1.675243	-0.034944	0.934237
C289	C	0.970144	-0.807133	0.214225
C290	C	1.220144	-0.557133	0.464225
C291	C	1.470144	-0.307133	0.714225
C292	C	1.720144	-0.057133	0.964225
C293	C	1.198147	-0.183831	0.249181
C294	C	1.448147	0.066169	0.499181
C295	C	1.698147	0.316169	0.749181
C296	C	1.948147	0.566169	0.999181
C297	C	1.276215	-0.181710	0.251320
C298	C	1.526215	0.068290	0.501320
C299	C	1.776215	0.318290	0.751320
C300	C	2.026215	0.568290	1.001320
C301	C	1.014991	-0.188792	0.361339
C302	C	1.264991	0.061208	0.611339
C303	C	1.514991	0.311208	0.861339
C304	C	1.764991	0.561208	1.111339
C305	C	1.015010	-0.188784	0.411274
C306	C	1.265010	0.061216	0.661274
C307	C	1.515010	0.311216	0.911274
C308	C	1.765010	0.561216	1.161274
C309	C	1.015074	-0.071629	0.244210
C310	C	1.265074	0.178371	0.494210
C311	C	1.515074	0.428371	0.744210
C312	C	1.765074	0.678371	0.994210
C313	C	1.015128	-0.021693	0.244232
C314	C	1.265128	0.228307	0.494232
C315	C	1.515128	0.478307	0.744232
C316	C	1.765128	0.728307	0.994232
C317	C	1.014945	-0.188795	0.127436
C318	C	1.264945	0.061205	0.377436
C319	C	1.514945	0.311205	0.627436
C320	C	1.764945	0.561205	0.877436
C321	C	1.015062	-0.188673	0.077505
C322	C	1.265062	0.061327	0.327505
C323	C	1.515062	0.311327	0.577505
C324	C	1.765062	0.561327	0.827505
C325	C	0.970132	-0.161225	0.719702
C326	C	1.220132	0.088775	0.969702
C327	C	1.470132	0.338775	1.219702
C328	C	1.720132	0.588775	1.469702
C329	C	0.970152	-0.161194	0.907375
C330	C	1.220152	0.088806	1.157375
C331	C	1.470152	0.338806	1.407375
C332	C	1.720152	0.588806	1.657375
O333	O	0.931960	-0.137808	0.930606
O334	O	1.181960	0.112192	1.180606
O335	O	1.431960	0.362192	1.430606
O336	O	1.681960	0.612192	1.680606
N337	N	1.015043	-0.188699	0.932060
N338	N	1.265043	0.061301	1.182060
N339	N	1.515043	0.311301	1.432060
N340	N	1.765043	0.561301	1.682060
C341	C	1.059929	-0.216216	0.909823
C342	C	1.309929	0.033784	1.159823
C343	C	1.559929	0.283784	1.409823
C344	C	1.809929	0.533784	1.659823
O345	O	1.098107	-0.239614	0.935125
O346	O	1.348107	0.010386	1.185125
O347	O	1.598107	0.260386	1.435125
O348	O	1.848107	0.510386	1.685125
C349	C	1.059905	-0.216250	0.722150
C350	C	1.309905	0.033750	0.972150
C351	C	1.559905	0.283750	1.222150
C352	C	1.809905	0.533750	1.472150
C353	C	1.015016	-0.188740	0.697468
C354	C	1.265016	0.061260	0.947468
C355	C	1.515016	0.311260	1.197468
C356	C	1.765016	0.561260	1.447468
C357	C	0.925246	-0.133718	0.695020
C358	C	1.175246	0.116282	0.945020
C359	C	1.425246	0.366282	1.195020
C360	C	1.675246	0.616282	1.445020
C361	C	0.925244	-0.133724	0.648104
C362	C	1.175244	0.116276	0.898104
C363	C	1.425244	0.366276	1.148104
C364	C	1.675244	0.616276	1.398104
C365	C	0.970128	-0.161238	0.625870
C366	C	1.220128	0.088762	0.875870
C367	C	1.470128	0.338762	1.125870
C368	C	1.720128	0.588762	1.375870
C369	C	1.015014	-0.188746	0.650552
C370	C	1.265014	0.061254	0.900552
C371	C	1.515014	0.311254	1.150552
C372	C	1.765014	0.561254	1.400552
C373	C	1.104787	-0.243770	0.699914
C374	C	1.354787	0.006230	0.949914
C375	C	1.604787	0.256230	1.199914
C376	C	1.854787	0.506230	1.449914
C377	C	1.104776	-0.243776	0.652993
C378	C	1.354776	0.006224	0.902993
C379	C	1.604776	0.256224	1.152993
C380	C	1.854776	0.506224	1.402993
C381	C	1.059887	-0.216266	0.628311
C382	C	1.309887	0.033734	0.878311
C383	C	1.559887	0.283734	1.128311
C384	C	1.809887	0.533734	1.378311
C385	C	1.059896	-0.216267	0.581403
C386	C	1.309896	0.033733	0.831403
C387	C	1.559896	0.283733	1.081403
C388	C	1.809896	0.533733	1.331403
N389	N	1.015005	-0.188761	0.556719
N390	N	1.265005	0.061239	0.806719
N391	N	1.515005	0.311239	1.056719
N392	N	1.765005	0.561239	1.306719
C393	C	0.970121	-0.161247	0.578952
C394	C	1.220121	0.088753	0.828952
C395	C	1.470121	0.338753	1.078952
C396	C	1.720121	0.588753	1.328952
C397	C	1.059939	-0.216196	1.008354
C398	C	1.309939	0.033804	1.258354
C399	C	1.559939	0.283804	1.508354
C400	C	1.809939	0.533804	1.758354
C401	C	1.059946	-0.216187	1.055272
C402	C	1.309946	0.033813	1.305272
C403	C	1.559946	0.283813	1.555272
C404	C	1.809946	0.533813	1.805272
C405	C	0.970168	-0.161165	1.052821
C406	C	1.220168	0.088835	1.302821
C407	C	1.470168	0.338835	1.552821
C408	C	1.720168	0.588835	1.802821
C409	C	0.970165	-0.161172	1.005902
C410	C	1.220165	0.088828	1.255902
C411	C	1.470165	0.338828	1.505902
C412	C	1.720165	0.588828	1.755902
C413	C	1.015048	-0.188691	0.983669
C414	C	1.265048	0.061309	1.233669
C415	C	1.515048	0.311309	1.483669
C416	C	1.765048	0.561309	1.733669
C417	C	0.970121	-0.161262	0.480427
C418	C	1.220121	0.088738	0.730427
C419	C	1.470121	0.338738	0.980427
C420	C	1.720121	0.588738	1.230427
C421	C	0.970126	-0.161270	0.433507
C422	C	1.220126	0.088730	0.683507
C423	C	1.470126	0.338730	0.933507
C424	C	1.720126	0.588730	1.183507
C425	C	1.059901	-0.216294	0.435962
C426	C	1.309901	0.033706	0.685962
C427	C	1.559901	0.283706	0.935962
C428	C	1.809901	0.533706	1.185962
C429	C	1.059899	-0.216285	0.482878
C430	C	1.309899	0.033715	0.732878
C431	C	1.559899	0.283715	0.982878
C432	C	1.809899	0.533715	1.232878
C433	C	1.015004	-0.188768	0.505109
C434	C	1.265004	0.061232	0.755109
C435	C	1.515004	0.311232	1.005109
C436	C	1.765004	0.561232	1.255109
O437	O	1.098062	-0.239644	0.558143
O438	O	1.348062	0.010356	0.808143
O439	O	1.598062	0.260356	1.058143
O440	O	1.848062	0.510356	1.308143
O441	O	0.931938	-0.137860	0.553642
O442	O	1.181938	0.112140	0.803642
O443	O	1.431938	0.362140	1.053642
O444	O	1.681938	0.612140	1.303642
C445	C	0.970134	-0.161219	0.766617
C446	C	1.220134	0.088781	1.016617
C447	C	1.470134	0.338781	1.266617
C448	C	1.720134	0.588781	1.516617
C449	C	1.015020	-0.188727	0.791299
C450	C	1.265020	0.061273	1.041299
C451	C	1.515020	0.311273	1.291299
C452	C	1.765020	0.561273	1.541299
C453	C	1.059904	-0.216241	0.769066
C454	C	1.309904	0.033759	1.019066
C455	C	1.559904	0.283759	1.269066
C456	C	1.809904	0.533759	1.519066
C457	C	1.015027	-0.188718	0.838217
C458	C	1.265027	0.061282	1.088217
C459	C	1.515027	0.311282	1.338217
C460	C	1.765027	0.561282	1.588217
C461	C	0.970143	-0.161204	0.860451
C462	C	1.220143	0.088796	1.110451
C463	C	1.470143	0.338796	1.360451
C464	C	1.720143	0.588796	1.610451
C465	C	0.925252	-0.133698	0.835766
C466	C	1.175252	0.116302	1.085766
C467	C	1.425252	0.366302	1.335766
C468	C	1.675252	0.616302	1.585766
C469	C	0.925250	-0.133705	0.788851
C470	C	1.175250	0.116295	1.038851
C471	C	1.425250	0.366295	1.288851
C472	C	1.675250	0.616295	1.538851
C473	C	1.104795	-0.243747	0.793750
C474	C	1.354795	0.006253	1.043750
C475	C	1.604795	0.256253	1.293750
C476	C	1.854795	0.506253	1.543750
C477	C	1.104793	-0.243737	0.840666
C478	C	1.354793	0.006263	1.090666
C479	C	1.604793	0.256263	1.340666
C480	C	1.854793	0.506263	1.590666
C481	C	1.059909	-0.216223	0.862899
C482	C	1.309909	0.033777	1.112899
C483	C	1.559909	0.283777	1.362899
C484	C	1.809909	0.533777	1.612899
H485	H	0.282956	-0.233580	0.199275
H486	H	0.532956	0.016420	0.449275
H487	H	0.782956	0.266420	0.699275
H488	H	1.032956	0.516420	0.949275
H489	H	0.283099	-0.129472	0.303739
H490	H	0.533099	0.120528	0.553739
H491	H	0.783099	0.370528	0.803739
H492	H	1.033099	0.620528	1.053739
H493	H	1.141343	-0.266154	0.775652
H494	H	1.391343	-0.016154	1.025652
H495	H	1.641343	0.233846	1.275652
H496	H	1.891343	0.483846	1.525652
Br497	Br	1.165657	-0.558662	0.344828
Br498	Br	1.415657	-0.308662	0.594828
Br499	Br	1.665657	-0.058662	0.844828
Br500	Br	1.915657	0.191338	1.094828
Br501	Br	1.120724	-0.454683	0.314826
Br502	Br	1.370724	-0.204683	0.564826
Br503	Br	1.620724	0.045317	0.814826
Br504	Br	1.870724	0.295317	1.064826
Br505	Br	0.909084	-0.460673	0.173452
Br506	Br	1.159084	-0.210673	0.423452
Br507	Br	1.409084	0.039327	0.673452
Br508	Br	1.659084	0.289327	0.923452
H509	H	1.096507	-0.238584	1.075364
H510	H	1.346507	0.011416	1.325364
H511	H	1.596507	0.261416	1.575364
H512	H	1.846507	0.511416	1.825364
Br513	Br	0.864326	-0.096367	0.755361
Br514	Br	1.114326	0.153633	1.005361
Br515	Br	1.364326	0.403633	1.255361
Br516	Br	1.614326	0.653633	1.505361
Br517	Br	0.909039	-0.350078	0.173439
Br518	Br	1.159039	-0.100078	0.423439
Br519	Br	1.409039	0.149922	0.673439
Br520	Br	1.659039	0.399922	0.923439
Br521	Br	0.864321	-0.818494	0.143542
Br522	Br	1.114321	-0.568494	0.393542
Br523	Br	1.364321	-0.318494	0.643542
Br524	Br	1.614321	-0.068494	0.893542
Br525	Br	0.482870	-0.242253	0.190545
Br526	Br	0.732870	0.007747	0.440545
Br527	Br	0.982870	0.257747	0.690545
Br528	Br	1.232870	0.507747	0.940545
Br529	Br	0.909255	-0.123824	1.083004
Br530	Br	1.159255	0.126176	1.333004
Br531	Br	1.409255	0.376176	1.583004
Br532	Br	1.659255	0.626176	1.833004
Br533	Br	0.909316	-1.033053	0.173547
Br534	Br	1.159316	-0.783053	0.423547
Br535	Br	1.409316	-0.533053	0.673547
Br536	Br	1.659316	-0.283053	0.923547
H537	H	0.933613	-0.138770	0.985809
H538	H	1.183613	0.111230	1.235809
H539	H	1.433613	0.361230	1.485809
H540	H	1.683613	0.611230	1.735809
Br541	Br	0.767582	-0.127919	0.305249
Br542	Br	1.017582	0.122081	0.555249
Br543	Br	1.267582	0.372081	0.805249
Br544	Br	1.517582	0.622081	1.055249
H545	H	0.614580	-0.147671	0.285439
H546	H	0.864580	0.102329	0.535439
H547	H	1.114580	0.352329	0.785439
H548	H	1.364580	0.602329	1.035439
H549	H	0.933572	-0.138866	0.413413
H550	H	1.183572	0.111134	0.663413
H551	H	1.433572	0.361134	0.913413
H552	H	1.683572	0.611134	1.163413
Br553	Br	0.436114	-0.109721	0.323549
Br554	Br	0.686114	0.140279	0.573549
Br555	Br	0.936114	0.390279	0.823549
Br556	Br	1.186114	0.640279	1.073549
Br557	Br	0.909250	-0.922479	0.173539
Br558	Br	1.159250	-0.672479	0.423539
Br559	Br	1.409250	-0.422479	0.673539
Br560	Br	1.659250	-0.172479	0.923539
Br561	Br	1.120861	-0.253545	0.978188
Br562	Br	1.370861	-0.003545	1.228188
Br563	Br	1.620861	0.246455	1.478188
Br564	Br	1.870861	0.496455	1.728188
H565	H	1.141354	-0.266139	0.860758
H566	H	1.391354	-0.016139	1.110758
H567	H	1.641354	0.233861	1.360758
H568	H	1.891354	0.483861	1.610758
Br569	Br	0.767397	-0.263172	0.169520
Br570	Br	1.017397	-0.013172	0.419520
Br571	Br	1.267397	0.236828	0.669520
Br572	Br	1.517397	0.486828	0.919520
Br573	Br	1.120817	-0.253629	0.405779
Br574	Br	1.370817	-0.003629	0.655779
Br575	Br	1.620817	0.246371	0.905779
Br576	Br	1.870817	0.496371	1.155779
Br577	Br	0.864247	-0.677738	0.143520
Br578	Br	1.114247	-0.427738	0.393520
Br579	Br	1.364247	-0.177738	0.643520
Br580	Br	1.614247	0.072262	0.893520
Br581	Br	1.165712	-0.699407	0.344852
Br582	Br	1.415712	-0.449407	0.594852
Br583	Br	1.665712	-0.199407	0.844852
Br584	Br	1.915712	0.050593	1.094852
Br585	Br	0.909196	-0.123915	0.510590
Br586	Br	1.159196	0.126085	0.760590
Br587	Br	1.409196	0.376085	1.010590
Br588	Br	1.659196	0.626085	1.260590
H589	H	1.141368	-0.797945	0.328587
H590	H	1.391368	-0.547945	0.578587
H591	H	1.641368	-0.297945	0.828587
H592	H	1.891368	-0.047945	1.078587
H593	H	0.888657	-0.719966	0.159807
H594	H	1.138657	-0.469966	0.409807
H595	H	1.388657	-0.219966	0.659807
H596	H	1.638657	0.030034	0.909807
Br597	Br	0.547730	-0.135354	0.297794
Br598	Br	0.797730	0.114646	0.547794
Br599	Br	1.047730	0.364646	0.797794
Br600	Br	1.297730	0.614646	1.047794
H601	H	1.096316	-0.357529	0.298519
H602	H	1.346316	-0.107529	0.548519
H603	H	1.596316	0.142471	0.798519
H604	H	1.846316	0.392471	1.048519
H605	H	1.141340	-0.266172	0.720002
H606	H	1.391340	-0.016172	0.970002
H607	H	1.641340	0.233828	1.220002
H608	H	1.891340	0.483828	1.470002
H609	H	1.141330	-0.266183	0.634893
H610	H	1.391330	-0.016183	0.884893
H611	H	1.641330	0.233817	1.134893
H612	H	1.891330	0.483817	1.384893
Br613	Br	1.120917	-0.916496	0.314897
Br614	Br	1.370917	-0.666496	0.564897
Br615	Br	1.620917	-0.416496	0.814897
Br616	Br	1.870917	-0.166496	1.064897
H617	H	1.096459	-0.238681	0.502975
H618	H	1.346459	0.011319	0.752975
H619	H	1.596459	0.261319	1.002975
H620	H	1.846459	0.511319	1.252975
H621	H	1.141319	-0.657187	0.328566
H622	H	1.391319	-0.407187	0.578566
H623	H	1.641319	-0.157187	0.828566
H624	H	1.891319	0.092813	1.078566
H625	H	0.888708	-0.111293	0.853877
H626	H	1.138708	0.138707	1.103877
H627	H	1.388708	0.388707	1.353877
H628	H	1.638708	0.638707	1.603877
Br629	Br	1.120951	-1.027089	0.314913
Br630	Br	1.370951	-0.777089	0.564913
Br631	Br	1.620951	-0.527089	0.814913
Br632	Br	1.870951	-0.277089	1.064913
Br633	Br	0.864203	-0.567163	0.143507
Br634	Br	1.114203	-0.317163	0.393507
Br635	Br	1.364203	-0.067163	0.643507
Br636	Br	1.614203	0.182837	0.893507
Br637	Br	0.864317	-0.096389	0.614614
Br638	Br	1.114317	0.153611	0.864614
Br639	Br	1.364317	0.403611	1.114614
Br640	Br	1.614317	0.653611	1.364614
H641	H	0.416025	-0.229941	0.202903
H642	H	0.666025	0.020059	0.452903
H643	H	0.916025	0.270059	0.702903
H644	H	1.166025	0.520059	0.952903
H645	H	0.614424	-0.251773	0.180974
H646	H	0.864424	-0.001773	0.430974
H647	H	1.114424	0.248227	0.680974
H648	H	1.364424	0.498227	0.930974
H649	H	0.888693	-0.111312	0.713117
H650	H	1.138693	0.138688	0.963117
H651	H	1.388693	0.388688	1.213117
H652	H	1.638693	0.638688	1.463117
