data_functionalizedCrystal
_audit_creation_method	'MofGen! by Chris Wilmer'
_symmetry_space_group_name_H-M	'P1'
_symmetry_Int_Tables_number	1
_symmetry_cell_setting	triclinic
loop_
_symmetry_equiv_pos_as_xyz
  x,y,z
_cell_length_a	12.837932
_cell_length_b	14.044190
_cell_length_c	11.892095
_cell_angle_alpha	94.240074
_cell_angle_beta	85.688545
_cell_angle_gamma	94.010740
loop_
_atom_site_label
_atom_site_type_symbol
_atom_site_fract_x
_atom_site_fract_y
_atom_site_fract_z
O1	O	1.404561	0.242992	-0.094032
O2	O	1.101619	0.230715	-0.094032
O3	O	1.248538	0.098458	-0.094010
O4	O	1.257642	0.375248	-0.094055
O5	O	1.236286	0.109467	0.093996
O6	O	1.089368	0.241723	0.093973
O7	O	1.392309	0.254000	0.093973
Zn8	Zn	1.238893	0.249609	0.123823
Zn9	Zn	1.255035	0.235105	-0.123882
O10	O	1.245391	0.386256	0.093951
C11	C	1.056489	0.232072	-0.000029
C12	C	0.940268	0.219704	-0.000029
C13	C	0.780862	0.116330	-0.000010
C14	C	0.890063	0.127945	-0.000012
C15	C	0.881264	0.299854	-0.000039
C16	C	0.772064	0.288239	-0.000037
C17	C	0.721867	0.196474	-0.000024
C18	C	0.612665	0.184860	-0.000030
C19	C	0.603868	0.356769	-0.000049
C20	C	0.713068	0.368384	-0.000051
C21	C	1.238430	0.068289	-0.000004
C22	C	1.226552	-0.038010	0.000006
C23	C	1.289077	-0.282651	-0.000038
C24	C	1.204857	-0.232629	-0.000031
C25	C	1.216931	-0.124333	-0.000010
C26	C	1.277004	-0.390957	-0.000059
C27	C	1.437439	0.252643	-0.000032
C28	C	1.553661	0.265010	-0.000040
C29	C	1.255499	0.416426	-0.000058
C30	C	1.267377	0.522723	-0.000075
N31	N	1.227884	0.259508	0.292876
N32	N	1.266052	0.225200	-0.292935
C33	C	1.342651	0.156265	0.529541
C34	C	1.334964	0.163192	0.647882
C35	C	1.204819	0.280283	0.647900
C36	C	1.212506	0.273356	0.529559
C37	C	1.281425	0.211346	0.470384
C38	C	1.289117	0.204425	0.352041
C39	C	1.158967	0.321511	0.352061
C40	C	1.151280	0.328437	0.470402
H41	H	0.739992	0.041611	-0.000011
H42	H	1.109116	0.366364	0.303882
H43	H	0.555822	0.422028	-0.000061
Br44	Br	0.781202	0.492916	-0.000068
H45	H	1.123686	-0.271137	-0.000037
Br46	Br	0.544541	0.060324	-0.000016
H47	H	1.370241	-0.244145	-0.000027
Br48	Br	0.949407	0.424383	-0.000052
Br49	Br	1.382654	0.120275	0.271733
H50	H	1.398775	0.105781	0.481360
H51	H	0.938093	0.062683	-0.000000
H52	H	1.384819	0.118338	0.696044
Br53	Br	1.111275	0.364421	0.728220
Br54	Br	1.057746	0.412585	0.550718
