data_functionalizedCrystal
_audit_creation_method	'MofGen! by Chris Wilmer'
_symmetry_space_group_name_H-M	'P1'
_symmetry_Int_Tables_number	1
_symmetry_cell_setting	triclinic
loop_
_symmetry_equiv_pos_as_xyz
  x,y,z
_cell_length_a	14.044220
_cell_length_b	10.654545
_cell_length_c	9.130313
_cell_angle_alpha	89.996934
_cell_angle_beta	89.994483
_cell_angle_gamma	88.835978
loop_
_atom_site_label
_atom_site_type_symbol
_atom_site_fract_x
_atom_site_fract_y
_atom_site_fract_z
O1	O	0.133211	1.681229	-0.121789
O2	O	0.145909	1.317026	-0.121796
O3	O	0.001540	1.493661	-0.121778
O4	O	0.277580	1.504594	-0.121807
O5	O	0.001535	1.493647	0.121821
O6	O	0.145905	1.317012	0.121803
O7	O	0.133207	1.681216	0.121810
Cu8	Cu	0.139555	1.499113	0.144049
Cu9	Cu	0.139560	1.499129	-0.144035
O10	O	0.277576	1.504581	0.121792
C11	C	0.144975	1.270128	0.000003
C12	C	0.142189	1.130404	0.000001
C13	C	0.140874	1.064760	0.132788
C14	C	0.138240	0.933476	0.132788
C15	C	0.138239	0.933491	-0.132797
C16	C	0.140866	1.064773	-0.132796
C17	C	-0.033808	1.488868	0.000022
C18	C	-0.139128	1.474593	0.000023
C19	C	-0.331961	1.448494	0.000002
C20	C	-0.388929	1.549742	-0.000001
C21	C	-0.496228	1.535220	-0.000013
C22	C	-0.224652	1.463014	0.000014
C23	C	0.312924	1.509373	-0.000011
C24	C	0.418244	1.523649	-0.000022
C25	C	0.134140	1.728114	0.000008
C26	C	0.136927	1.867838	0.000000
N27	N	0.139551	1.499110	0.346671
N28	N	0.139557	1.499140	-0.346658
C29	C	0.075652	1.577356	0.423331
C30	C	0.075652	1.577368	0.576668
C31	C	0.203460	1.420886	0.576672
C32	C	0.203454	1.420868	0.423338
H33	H	0.137163	0.880038	-0.240915
C34	C	0.273750	1.334797	0.339006
H35	H	0.311818	1.288215	0.406624
H36	H	0.239256	1.278659	0.279210
H37	H	0.313554	1.384429	0.279173
H38	H	-0.357118	1.647329	-0.000097
H39	H	0.141951	1.118193	0.240919
H40	H	-0.363770	1.350914	-0.000004
C41	C	0.005353	1.663406	0.339003
H42	H	-0.032709	1.709998	0.406625
H43	H	0.039837	1.719536	0.279164
H44	H	-0.034456	1.613760	0.279211
C45	C	0.005366	1.663443	0.660988
H46	H	-0.032685	1.710042	0.593362
H47	H	-0.034441	1.613828	0.720822
H48	H	0.039867	1.719586	0.720782
C49	C	0.142316	1.136992	-0.278864
H50	H	0.144061	1.224578	-0.259841
H51	H	0.197104	1.112086	-0.333435
H52	H	0.086661	1.118880	-0.333418
C53	C	0.273756	1.334839	0.661009
H54	H	0.264615	1.346065	0.763310
H55	H	0.262868	1.249807	0.635906
H56	H	0.337161	1.355583	0.635856
H57	H	0.137171	0.880035	0.240916
