data_functionalizedCrystal
_audit_creation_method	'MofGen! by Chris Wilmer'
_symmetry_space_group_name_H-M	'P1'
_symmetry_Int_Tables_number	1
_symmetry_cell_setting	triclinic
loop_
_symmetry_equiv_pos_as_xyz
  x,y,z
_cell_length_a	11.792254
_cell_length_b	11.792241
_cell_length_c	14.586319
_cell_angle_alpha	90.004494
_cell_angle_beta	90.004084
_cell_angle_gamma	84.196007
loop_
_atom_site_label
_atom_site_type_symbol
_atom_site_fract_x
_atom_site_fract_y
_atom_site_fract_z
O1	O	1.506900	0.155636	0.076240
O2	O	1.840233	0.488969	0.409573
O3	O	2.173566	0.822302	0.742907
O4	O	1.176560	0.171654	0.076242
O5	O	1.509894	0.504987	0.409575
O6	O	1.843227	0.838320	0.742909
O7	O	1.349746	-0.001526	0.076235
O8	O	1.683080	0.331808	0.409568
O9	O	2.016413	0.665141	0.742901
O10	O	1.333714	0.328815	0.076247
O11	O	1.667047	0.662148	0.409581
O12	O	2.000380	0.995481	0.742914
O13	O	1.349732	-0.001530	-0.076246
O14	O	1.683066	0.331804	0.257087
O15	O	2.016399	0.665137	0.590420
O16	O	1.176546	0.171649	-0.076239
O17	O	1.509880	0.504983	0.257095
O18	O	1.843213	0.838316	0.590428
O19	O	1.506886	0.155631	-0.076241
O20	O	1.840219	0.488965	0.257092
O21	O	2.173552	0.822298	0.590426
Cu22	Cu	1.341715	0.163640	-0.090163
Cu23	Cu	1.675048	0.496973	0.243171
Cu24	Cu	2.008381	0.830307	0.576504
Cu25	Cu	1.341731	0.163645	0.090164
Cu26	Cu	1.675065	0.496978	0.423497
Cu27	Cu	2.008398	0.830312	0.756830
O28	O	1.333700	0.328811	-0.076233
O29	O	1.667033	0.662144	0.257100
O30	O	2.000366	0.995477	0.590433
C31	C	1.134263	0.170642	0.000002
C32	C	1.467596	0.503976	0.333335
C33	C	1.800929	0.837309	0.666668
C34	C	1.008250	0.167622	0.000002
C35	C	1.341583	0.500956	0.333336
C36	C	1.674916	0.834289	0.666669
C37	C	0.905913	0.165168	0.000006
C38	C	1.239247	0.498502	0.333340
C39	C	1.572580	0.831835	0.666673
C40	C	0.777527	0.162100	0.000007
C41	C	1.110860	0.495433	0.333340
C42	C	1.444193	0.828767	0.666673
C43	C	1.348732	-0.043819	-0.000006
C44	C	1.682066	0.289515	0.333328
C45	C	2.015399	0.622848	0.666661
C46	C	1.345718	-0.169832	-0.000005
C47	C	1.679051	0.163501	0.333329
C48	C	2.012385	0.496834	0.666662
C49	C	1.340175	-0.400545	0.000011
C50	C	1.673508	-0.067212	0.333344
C51	C	2.006842	0.266122	0.666677
C52	C	1.343255	-0.272160	0.000002
C53	C	1.676588	0.061174	0.333336
C54	C	2.009921	0.394507	0.666669
C55	C	1.549183	0.156643	0.000001
C56	C	1.882517	0.489976	0.333335
C57	C	2.215850	0.823309	0.666668
C58	C	1.675196	0.159663	0.000007
C59	C	2.008530	0.492996	0.333340
C60	C	2.341863	0.826329	0.666673
C61	C	1.334714	0.371104	0.000009
C62	C	1.668047	0.704437	0.333342
C63	C	2.001380	1.037770	0.666675
C64	C	1.337728	0.497118	0.000014
C65	C	1.671061	0.830451	0.333347
C66	C	2.004395	1.163784	0.666681
N67	N	1.341711	0.163636	-0.216994
N68	N	1.675045	0.496969	0.116339
N69	N	2.008378	0.830302	0.449672
C70	C	1.418428	0.086978	-0.547991
C71	C	1.751762	0.420311	-0.214658
C72	C	2.085095	0.753644	0.118675
C73	C	1.418426	0.086978	-0.452010
C74	C	1.751759	0.420311	-0.118677
C75	C	2.085092	0.753645	0.214657
C76	C	1.265023	0.240307	-0.452014
C77	C	1.598356	0.573640	-0.118681
C78	C	1.931690	0.906973	0.214653
C79	C	1.265032	0.240311	-0.547994
C80	C	1.598366	0.573644	-0.214660
C81	C	1.931699	0.906977	0.118673
C82	C	1.341733	0.163640	-0.595980
C83	C	1.675067	0.496973	-0.262646
C84	C	2.008400	0.830306	0.070687
C85	C	1.341722	0.163636	-0.404019
C86	C	1.675055	0.496970	-0.070686
C87	C	2.008388	0.830303	0.262648
C88	C	1.341718	0.163637	-0.299952
C89	C	1.675051	0.496971	0.033381
C90	C	2.008385	0.830304	0.366715
C91	C	1.341739	0.163640	-0.700054
C92	C	1.675072	0.496973	-0.366720
C93	C	2.008405	0.830306	-0.033387
N94	N	1.341744	0.163640	0.216995
N95	N	1.675077	0.496974	0.550329
N96	N	2.008410	0.830307	0.883662
H97	H	1.480885	0.024549	-0.587059
H98	H	1.814218	0.357882	-0.253726
H99	H	2.147551	0.691216	0.079607
H100	H	1.480879	0.024554	-0.412941
H101	H	1.814212	0.357888	-0.079607
H102	H	2.147545	0.691221	0.253726
F103	F	1.183393	0.321899	-0.400938
F104	F	1.516726	0.655232	-0.067604
F105	F	1.850060	0.988566	0.265729
F106	F	1.183404	0.321914	-0.599070
F107	F	1.516737	0.655247	-0.265737
F108	F	1.850070	0.988580	0.067596
