data_functionalizedCrystal
_audit_creation_method	'MofGen! by Chris Wilmer'
_symmetry_space_group_name_H-M	'P1'
_symmetry_Int_Tables_number	1
_symmetry_cell_setting	triclinic
loop_
_symmetry_equiv_pos_as_xyz
  x,y,z
_cell_length_a	9.065218
_cell_length_b	10.908878
_cell_length_c	7.540329
_cell_angle_alpha	89.996957
_cell_angle_beta	89.996962
_cell_angle_gamma	72.550338
loop_
_atom_site_label
_atom_site_type_symbol
_atom_site_fract_x
_atom_site_fract_y
_atom_site_fract_z
O1	O	1.911445	0.187750	-0.147482
O2	O	2.411445	0.687750	0.352518
O3	O	1.478145	0.203150	-0.147485
O4	O	1.978145	0.703150	0.352515
O5	O	1.752234	0.009186	-0.147477
O6	O	2.252234	0.509186	0.352523
O7	O	1.637356	0.381714	-0.147490
O8	O	2.137356	0.881714	0.352510
O9	O	1.752221	0.009183	0.147489
O10	O	2.252221	0.509183	0.647489
O11	O	1.478132	0.203147	0.147481
O12	O	1.978132	0.703147	0.647481
O13	O	1.911432	0.187747	0.147483
O14	O	2.411432	0.687747	0.647483
Cu15	Cu	1.694781	0.195447	0.174414
Cu16	Cu	2.194781	0.695447	0.674414
Cu17	Cu	1.694796	0.195450	-0.174416
Cu18	Cu	2.194796	0.695450	0.325584
O19	O	1.637343	0.381711	0.147475
O20	O	2.137343	0.881711	0.647475
C21	C	1.423538	0.201669	-0.000002
C22	C	1.923538	0.701669	0.499998
C23	C	1.260849	0.197243	-0.000003
C24	C	1.760849	0.697243	0.499997
C25	C	1.762964	-0.038532	0.000004
C26	C	2.262964	0.461468	0.500004
C27	C	1.794936	-0.180713	-0.000002
C28	C	2.294936	0.319287	0.499998
C29	C	1.678276	-0.231078	-0.000006
C30	C	2.178276	0.268922	0.499994
C31	C	1.711318	-0.378029	-0.000012
C32	C	2.211318	0.121971	0.499988
C33	C	1.966039	0.189229	-0.000004
C34	C	2.466039	0.689229	0.499996
C35	C	2.128728	0.193654	-0.000014
C36	C	2.628728	0.693654	0.499986
C37	C	1.626613	0.429429	-0.000010
C38	C	2.126613	0.929429	0.499990
C39	C	1.594641	0.571610	-0.000015
C40	C	2.094641	1.071610	0.499985
N41	N	1.694781	0.195444	0.419763
N42	N	2.194781	0.695444	0.919763
N43	N	1.694810	0.195443	-0.419765
N44	N	2.194810	0.695443	0.080235
H45	H	1.553937	-0.165406	0.000005
H46	H	2.053937	0.334594	0.500005
C47	C	1.426654	-0.339696	-0.000008
C48	C	1.926654	0.160304	0.499992
H49	H	1.357749	-0.390354	0.000001
H50	H	1.857749	0.109646	0.500001
H51	H	1.409284	-0.287004	-0.102863
H52	H	1.909284	0.212996	0.397137
H53	H	1.409286	-0.287025	0.102872
H54	H	1.909286	0.212975	0.602872
C55	C	1.879301	-0.466731	-0.000024
C56	C	2.379301	0.033269	0.499976
H57	H	1.879472	-0.553862	-0.000042
H58	H	2.379472	-0.053862	0.499958
H59	H	1.931034	-0.450541	0.102832
H60	H	2.431034	0.049459	0.602832
H61	H	1.931021	-0.450526	-0.102902
H62	H	2.431021	0.049474	0.397098
H63	H	1.919275	-0.246385	0.000004
H64	H	2.419275	0.253615	0.500004
