data_functionalizedCrystal
_audit_creation_method	'MofGen! by Chris Wilmer'
_symmetry_space_group_name_H-M	'P1'
_symmetry_Int_Tables_number	1
_symmetry_cell_setting	triclinic
loop_
_symmetry_equiv_pos_as_xyz
  x,y,z
_cell_length_a	15.944486
_cell_length_b	13.262315
_cell_length_c	11.804917
_cell_angle_alpha	86.397603
_cell_angle_beta	101.837025
_cell_angle_gamma	96.026867
loop_
_atom_site_label
_atom_site_type_symbol
_atom_site_fract_x
_atom_site_fract_y
_atom_site_fract_z
O1	O	-1.106184	0.146124	0.051783
O2	O	-0.862554	0.161795	0.046688
O3	O	-0.982625	0.011067	0.095514
O4	O	-0.986112	0.296853	0.002957
O5	O	-1.014221	-0.028558	-0.089688
O6	O	-0.894149	0.122170	-0.138514
O7	O	-1.137779	0.106500	-0.133419
Cu8	Cu	-1.018849	0.110717	-0.152877
Cu9	Cu	-0.981484	0.157578	0.066146
O10	O	-1.017708	0.257228	-0.182245
C11	C	-0.847019	0.141342	-0.045708
C12	C	-0.753659	0.139424	-0.045094
C13	C	-0.467281	0.227008	-0.073448
C14	C	-0.510049	0.201023	0.032612
C15	C	-0.417606	0.132462	-0.042819
C16	C	-0.541184	0.161931	-0.149974
C17	C	-0.582720	0.135887	-0.043940
C18	C	-0.459131	0.106467	0.063325
C19	C	-0.490275	0.067370	-0.119348
C20	C	-0.533017	0.041322	-0.013242
C21	C	-0.322488	0.130491	-0.042173
C22	C	-0.677835	0.137852	-0.044576
C23	C	-0.995713	-0.045315	0.014759
C24	C	-0.987627	-0.154282	0.050056
C25	C	-0.153314	0.126965	-0.041030
C26	C	-0.246674	0.128922	-0.041666
C27	C	-1.004620	0.313611	-0.101488
C28	C	-1.012704	0.422578	-0.136778
N29	N	-1.045136	0.077757	-0.306926
C30	C	-0.966601	0.816124	0.167592
C31	C	-0.958996	0.713745	0.200746
C32	C	-0.972423	0.640948	0.116368
C33	C	-0.993455	0.670541	-0.001170
C34	C	-1.001054	0.772932	-0.034328
C35	C	-1.006876	0.597756	-0.085552
C36	C	-1.027908	0.627348	-0.203090
C37	C	-1.035507	0.729730	-0.236242
C38	C	-1.022080	0.802526	-0.151864
C39	C	-0.999277	0.495365	-0.052394
C40	C	-1.033730	0.452172	-0.254314
C41	C	-1.041335	0.554552	-0.287468
C42	C	-1.108263	-0.001440	-0.343581
C43	C	-1.128149	-0.026407	-0.460144
C44	C	-1.084914	0.027826	-0.540064
C45	C	-1.021790	0.107029	-0.503411
C46	C	-1.001898	0.131993	-0.386835
C47	C	-0.978549	0.161258	-0.583318
C48	C	-0.915425	0.240461	-0.546665
C49	C	-0.895536	0.265422	-0.430100
C50	C	-0.938771	0.211190	-0.350180
C51	C	-0.998441	0.136294	-0.699894
C52	C	-0.892076	0.269726	-0.743148
C53	C	-0.872191	0.294693	-0.626585
N54	N	-0.955203	0.190530	0.220197
H55	H	-0.519334	0.257533	0.096856
H56	H	-1.058459	0.578662	-0.383170
H57	H	-0.844131	0.329906	-0.400256
F58	F	-0.952331	0.893599	0.257380
H59	H	-1.044660	0.392901	-0.323022
H60	H	-1.028275	0.885893	-0.178852
F61	F	-1.195325	-0.110697	-0.499150
F62	F	-1.154263	-0.059157	-0.258521
H63	H	-1.049837	0.071806	-0.729726
F64	F	-1.106081	0.001253	-0.664121
H65	H	-1.052629	0.753820	-0.331949
H66	H	-0.922583	0.231520	-0.255265
H67	H	-0.820793	0.359182	-0.596727
H68	H	-0.423613	0.083050	0.153552
F69	F	-0.429739	0.329594	-0.106553
H70	H	-0.561557	-0.037207	0.012243
H71	H	-0.480974	0.010896	-0.183611
H72	H	-0.856869	0.313886	-0.808219
F73	F	-0.587722	0.192632	-0.267810
H74	H	-0.982150	0.471282	0.043306
F75	F	-0.964330	0.531987	0.151657
F76	F	-0.936614	0.682256	0.325834
