data_functionalizedCrystal
_audit_creation_method	'MofGen! by Chris Wilmer'
_symmetry_space_group_name_H-M	'P1'
_symmetry_Int_Tables_number	1
_symmetry_cell_setting	triclinic
loop_
_symmetry_equiv_pos_as_xyz
  x,y,z
_cell_length_a	16.109301
_cell_length_b	14.586319
_cell_length_c	16.109298
_cell_angle_alpha	89.992805
_cell_angle_beta	83.460834
_cell_angle_gamma	89.993787
loop_
_atom_site_label
_atom_site_type_symbol
_atom_site_fract_x
_atom_site_fract_y
_atom_site_fract_z
O1	O	1.103135	-0.076171	0.106876
O2	O	1.603135	0.423829	0.606876
O3	O	0.861073	-0.076184	0.120176
O4	O	1.361073	0.423816	0.620176
O5	O	0.988755	-0.076184	-0.007505
O6	O	1.488755	0.423816	0.492495
O7	O	0.975453	-0.076172	0.234557
O8	O	1.475453	0.423828	0.734557
O9	O	0.988735	0.076297	-0.007527
O10	O	1.488735	0.576297	0.492473
O11	O	0.861053	0.076296	0.120154
O12	O	1.361053	0.576296	0.620154
O13	O	1.103115	0.076310	0.106854
O14	O	1.603115	0.576310	0.606854
Cu15	Cu	0.982082	0.090226	0.113502
Cu16	Cu	1.482082	0.590226	0.613502
Cu17	Cu	0.982106	-0.090101	0.113528
Cu18	Cu	1.482106	0.409899	0.613528
O19	O	0.975433	0.076309	0.234535
O20	O	1.475433	0.576309	0.734535
C21	C	0.830088	0.000054	0.119626
C22	C	1.330088	0.500054	0.619626
C23	C	0.737793	0.000048	0.118011
C24	C	1.237793	0.500048	0.618011
N25	N	0.982072	0.217057	0.113483
N26	N	1.482072	0.717057	0.613483
C27	C	0.988207	0.000053	-0.038491
C28	C	1.488207	0.500053	0.461509
C29	C	0.986593	0.000042	-0.130787
C30	C	1.486593	0.500042	0.369213
C31	C	0.515520	0.000063	0.190019
C32	C	1.015520	0.500063	0.690019
C33	C	0.428799	0.000069	0.188495
C34	C	0.928799	0.500069	0.688495
C35	C	0.448675	0.000057	0.037006
C36	C	0.948675	0.500057	0.537006
C37	C	0.535394	0.000058	0.038531
C38	C	1.035394	0.500058	0.538531
C39	C	0.568814	0.000056	0.115039
C40	C	1.068814	0.500056	0.615039
C41	C	0.395375	0.000061	0.111990
C42	C	0.895375	0.500061	0.611990
C43	C	0.301349	0.000067	0.110337
C44	C	0.801349	0.500067	0.610337
C45	C	0.662846	0.000051	0.116693
C46	C	1.162846	0.500051	0.616693
C47	C	1.134100	0.000069	0.107404
C48	C	1.634100	0.500069	0.607404
C49	C	1.226395	0.000069	0.109019
C50	C	1.726395	0.500069	0.609019
C51	C	0.931687	0.548081	0.063078
C52	C	1.431687	1.048081	0.563078
C53	C	0.931681	0.452099	0.063066
C54	C	1.431681	0.952099	0.563066
C55	C	1.032503	0.452051	0.163945
C56	C	1.532503	0.952051	0.663945
C57	C	1.032513	0.548031	0.163951
C58	C	1.532513	1.048031	0.663951
C59	C	0.982100	0.596043	0.113519
C60	C	1.482100	1.096043	0.613519
C61	C	0.982085	0.404082	0.113502
C62	C	1.482085	0.904082	0.613502
C63	C	0.982079	0.300015	0.113490
C64	C	1.482079	0.800015	0.613490
C65	C	0.982106	0.700117	0.113530
C66	C	1.482106	1.200117	0.613530
N67	N	0.982112	0.783068	0.113538
N68	N	1.482112	1.283068	0.613538
C69	C	0.981336	-0.083057	-0.429843
C70	C	1.481336	0.416943	0.070157
C71	C	0.982864	-0.083063	-0.343124
C72	C	1.482864	0.416937	0.156876
C73	C	0.982854	0.083180	-0.343133
C74	C	1.482854	0.583180	0.156867
C75	C	0.981333	0.083185	-0.429852
C76	C	1.481333	0.583185	0.070148
C77	C	0.980569	0.000064	-0.473205
C78	C	1.480569	0.500064	0.026795
C79	C	0.983619	0.000053	-0.299766
C80	C	1.483619	0.500053	0.200234
C81	C	0.985276	0.000046	-0.205740
C82	C	1.485276	0.500046	0.294260
C83	C	0.978914	0.000070	-0.567236
C84	C	1.478914	0.500070	-0.067236
C85	C	0.975981	0.000070	0.265521
C86	C	1.475981	0.500070	0.765521
C87	C	0.977595	0.000075	0.357817
C88	C	1.477595	0.500075	0.857817
H89	H	0.542727	0.000068	0.252317
H90	H	1.042727	0.500068	0.752317
H91	H	0.890631	0.413053	0.021991
H92	H	1.390631	0.913053	0.521991
O93	O	0.983710	-0.163769	-0.300957
O94	O	1.483710	0.336231	0.199043
C95	C	1.057292	-0.260245	-0.212365
C96	C	1.557292	0.239755	0.287635
C97	C	1.056476	-0.168827	-0.260114
C98	C	1.556476	0.331173	0.239886
H99	H	1.116108	-0.264356	-0.179317
H100	H	1.616108	0.235644	0.320683
H101	H	1.056520	-0.319709	-0.258191
H102	H	1.556520	0.180291	0.241809
H103	H	0.999809	-0.264320	-0.164189
H104	H	1.499809	0.235680	0.335811
H105	H	1.113948	-0.164662	-0.308290
H106	H	1.613948	0.335338	0.191710
H107	H	1.057204	-0.109407	-0.214237
H108	H	1.557204	0.390593	0.285763
H109	H	0.385410	0.000076	0.249550
H110	H	0.885410	0.500076	0.749550
H111	H	0.983475	0.150854	-0.307825
H112	H	1.483475	0.650854	0.192175
O113	O	1.081390	0.405268	0.212915
O114	O	1.581390	0.905268	0.712915
C115	C	1.126094	0.257385	0.257579
C116	C	1.626094	0.757385	0.757579
C117	C	1.070677	0.310249	0.202093
C118	C	1.570677	0.810249	0.702093
H119	H	1.117465	0.180554	0.248836
H120	H	1.617465	0.680554	0.748836
H121	H	1.107540	0.276178	0.325864
H122	H	1.607540	0.776178	0.825864
H123	H	1.194357	0.276298	0.239071
H124	H	1.694357	0.776298	0.739071
H125	H	1.002398	0.291365	0.220528
H126	H	1.502398	0.791365	0.720528
H127	H	1.089302	0.291452	0.133822
H128	H	1.589302	0.791452	0.633822
H129	H	1.073569	0.587082	0.205028
H130	H	1.573569	1.087082	0.705028
O131	O	0.416071	0.000011	-0.037239
O132	O	0.916071	0.500011	0.462761
C133	C	0.291286	0.000055	-0.106727
C134	C	0.791286	0.500055	0.393273
C135	C	0.328096	0.000089	-0.022586
C136	C	0.828096	0.500089	0.477414
H137	H	0.220153	0.000137	-0.094910
H138	H	0.720153	0.500137	0.405090
H139	H	0.313183	-0.063776	-0.143780
H140	H	0.813183	0.436224	0.356220
H141	H	0.313280	0.063850	-0.143790
H142	H	0.813280	0.563850	0.356210
H143	H	0.306118	-0.063663	0.014543
H144	H	0.806118	0.436337	0.514543
H145	H	0.306202	0.063962	0.014403
H146	H	0.806202	0.563962	0.514403
H147	H	0.980714	-0.150739	-0.465138
H148	H	1.480714	0.349261	0.034862
O149	O	0.980552	0.164016	-0.471845
O150	O	1.480552	0.664016	0.028155
C151	C	0.980755	0.328907	-0.462717
C152	C	1.480755	0.828907	0.037283
C153	C	0.981617	0.237439	-0.415054
C154	C	1.481617	0.737439	0.084946
H155	H	0.981633	0.388292	-0.416825
H156	H	1.481633	0.888292	0.083175
H157	H	0.921880	0.333128	-0.495667
H158	H	1.421880	0.833128	0.004333
H159	H	1.038179	0.333009	-0.510965
H160	H	1.538179	0.833009	-0.010965
H161	H	0.924233	0.233275	-0.366767
H162	H	1.424233	0.733275	0.133233
H163	H	1.040529	0.233256	-0.382162
H164	H	1.540529	0.733256	0.117838
H165	H	0.578789	0.000055	-0.022530
H166	H	1.078789	0.500055	0.477470
H167	H	0.890638	0.587170	0.022012
H168	H	1.390638	1.087170	0.522012
