data_functionalizedCrystal
_audit_creation_method	'MofGen! by Chris Wilmer'
_symmetry_space_group_name_H-M	'P1'
_symmetry_Int_Tables_number	1
_symmetry_cell_setting	triclinic
loop_
_symmetry_equiv_pos_as_xyz
  x,y,z
_cell_length_a	17.038272
_cell_length_b	17.019294
_cell_length_c	7.540329
_cell_angle_alpha	86.117441
_cell_angle_beta	90.002667
_cell_angle_gamma	87.244363
loop_
_atom_site_label
_atom_site_type_symbol
_atom_site_fract_x
_atom_site_fract_y
_atom_site_fract_z
O1	O	1.037218	0.171285	-0.173415
O2	O	0.809590	0.168565	-0.173052
O3	O	0.929754	0.055519	-0.155751
O4	O	0.917054	0.284332	-0.190715
O5	O	0.929747	0.055517	0.139214
O6	O	0.809583	0.168563	0.121914
O7	O	1.037211	0.171283	0.121550
Cu8	Cu	0.923397	0.169923	0.148665
Cu9	Cu	0.923405	0.169925	-0.200166
O10	O	0.917047	0.284330	0.104250
C11	C	0.780460	0.166091	-0.025198
C12	C	0.693674	0.158710	-0.024091
C13	C	0.643502	0.226471	-0.034443
C14	C	0.561957	0.219531	-0.033359
C15	C	0.530586	0.144831	-0.021934
C16	C	0.580765	0.077066	-0.011575
C17	C	0.662308	0.084006	-0.012647
C18	C	0.284849	0.120313	-0.018140
C19	C	0.203300	0.113378	-0.017073
C20	C	0.184498	0.255844	-0.038854
C21	C	0.266043	0.262778	-0.039936
C22	C	0.316214	0.195013	-0.029568
C23	C	0.447235	0.137736	-0.020830
C24	C	0.399564	0.202108	-0.030659
C25	C	0.929269	0.026096	-0.003777
C26	C	0.927825	-0.061571	0.009606
C27	C	0.927152	-0.102752	-0.144891
C28	C	0.925789	-0.185124	-0.132310
C29	C	0.925106	-0.226315	0.034769
C30	C	0.925776	-0.185128	0.189277
C31	C	0.927133	-0.102757	0.176695
C32	C	0.921004	-0.475023	0.080803
C33	C	0.919650	-0.557400	0.093374
C34	C	0.919661	-0.557390	-0.228215
C35	C	0.921023	-0.475017	-0.240783
C36	C	0.921689	-0.433838	-0.086274
C37	C	0.923716	-0.310513	0.047632
C38	C	0.923074	-0.349641	-0.099139
C39	C	1.066341	0.173758	-0.026307
C40	C	1.153128	0.181138	-0.027426
C41	C	0.917532	0.313752	-0.047728
C42	C	0.918977	0.401420	-0.061123
N43	N	0.923396	0.169921	0.394013
N44	N	0.923411	0.169921	-0.445514
H45	H	0.703158	0.028828	-0.004218
H46	H	0.923162	-0.344059	0.183669
H47	H	0.921562	-0.441505	0.206616
C48	C	0.677406	0.307646	-0.046770
C49	C	0.616009	0.365501	-0.055555
C50	C	0.647209	0.440290	-0.066882
H51	H	0.708808	0.313428	-0.150491
H52	H	0.708807	0.313356	0.055255
H53	H	0.584621	0.359794	-0.157570
H54	H	0.584602	0.359745	0.048155
H55	H	0.678610	0.446000	0.035143
H56	H	0.678610	0.446064	-0.170603
H57	H	0.605557	0.479554	-0.072827
C58	C	0.169390	0.032200	-0.004570
C59	C	0.230780	-0.025662	0.004325
C60	C	0.199572	-0.100447	0.015859
H61	H	0.137982	0.026422	-0.106521
H62	H	0.137994	0.026493	0.099203
H63	H	0.262164	-0.019958	-0.099436
H64	H	0.262194	-0.019910	0.106273
H65	H	0.168176	-0.106154	0.119631
H66	H	0.168164	-0.106217	-0.086096
H67	H	0.241220	-0.139715	0.021912
H68	H	0.291579	0.323607	-0.049260
H69	H	0.927713	-0.069220	-0.280945
H70	H	0.925245	-0.218650	-0.258118
H71	H	0.919117	-0.590927	-0.354007
H72	H	0.555216	0.016243	-0.002247
H73	H	0.425110	0.262929	-0.039951
C74	C	0.507395	0.293037	-0.044885
C75	C	0.460012	0.293199	-0.196634
C76	C	0.409735	0.360898	-0.207301
H77	H	0.537662	0.338575	-0.051956
H78	H	0.475152	0.293303	0.057886
H79	H	0.492251	0.292940	-0.299380
H80	H	0.429728	0.247676	-0.189597
H81	H	0.377492	0.361165	-0.104530
H82	H	0.440008	0.406432	-0.214367
H83	H	0.377574	0.361014	-0.310253
H84	H	0.925215	-0.218672	0.325317
C85	C	0.413324	0.056564	-0.008351
C86	C	0.474712	-0.001300	0.000514
C87	C	0.443502	-0.076084	0.012034
H88	H	0.381910	0.050793	-0.110299
H89	H	0.381932	0.050853	0.095427
H90	H	0.506091	0.004409	-0.103254
H91	H	0.506131	0.004445	0.102458
H92	H	0.412110	-0.081795	0.115813
H93	H	0.412088	-0.081847	-0.089916
H94	H	0.485148	-0.115353	0.018067
C95	C	0.129933	0.329347	-0.050359
C96	C	0.082547	0.329519	-0.202106
C97	C	0.032265	0.397215	-0.212743
H98	H	0.160196	0.374888	-0.057414
H99	H	0.097691	0.329604	0.052416
H100	H	0.114784	0.329270	-0.304855
H101	H	0.052267	0.283993	-0.195085
H102	H	0.000024	0.397471	-0.109968
H103	H	0.062535	0.442750	-0.219793
H104	H	0.000103	0.397336	-0.315693
H105	H	0.325690	0.065133	-0.009696
H106	H	0.927670	-0.069228	0.302503
H107	H	0.921581	-0.441486	-0.376836
C108	C	0.923684	-0.304820	-0.280429
C109	C	0.857240	-0.253161	-0.297698
C110	C	0.857779	-0.211847	-0.464671
H111	H	0.923049	-0.341052	-0.370804
H112	H	0.969755	-0.275591	-0.291592
H113	H	0.811181	-0.282388	-0.286553
H114	H	0.857861	-0.216913	-0.207363
H115	H	0.903850	-0.182618	-0.475833
H116	H	0.857146	-0.248084	-0.555032
H117	H	0.812702	-0.176786	-0.476403
C118	C	0.918795	-0.602225	0.274659
C119	C	0.850808	-0.645183	0.290578
C120	C	0.850009	-0.686498	0.457528
H121	H	0.919348	-0.565999	0.365055
H122	H	0.963817	-0.637351	0.286700
H123	H	0.805799	-0.610061	0.278555
H124	H	0.850241	-0.681423	0.200222
H125	H	0.895030	-0.721625	0.469569
H126	H	0.850564	-0.650266	0.547911
H127	H	0.803884	-0.715656	0.468345
