data_functionalizedCrystal
_audit_creation_method	'MofGen! by Chris Wilmer'
_symmetry_space_group_name_H-M	'P1'
_symmetry_Int_Tables_number	1
_symmetry_cell_setting	triclinic
loop_
_symmetry_equiv_pos_as_xyz
  x,y,z
_cell_length_a	15.995350
_cell_length_b	17.666332
_cell_length_c	15.995350
_cell_angle_alpha	90.004241
_cell_angle_beta	83.492375
_cell_angle_gamma	90.005705
loop_
_atom_site_label
_atom_site_type_symbol
_atom_site_fract_x
_atom_site_fract_y
_atom_site_fract_z
O1	O	1.110991	0.062880	0.107928
O2	O	0.867216	0.062896	0.121256
O3	O	0.995767	0.062887	-0.007296
O4	O	0.982440	0.062889	0.236479
O5	O	0.995745	-0.063010	-0.007303
O6	O	0.867193	-0.063001	0.121249
O7	O	1.110969	-0.063016	0.107921
Cu8	Cu	0.989079	-0.074504	0.114584
Cu9	Cu	0.989106	0.074383	0.114592
O10	O	0.982417	-0.063008	0.236473
C11	C	0.836010	-0.000051	0.120701
C12	C	0.743060	-0.000045	0.119049
N13	N	0.989066	-0.179224	0.114578
C14	C	0.405312	-0.000061	0.113117
C15	C	0.452746	-0.000342	0.021565
C16	C	0.549436	-0.000053	0.023217
C17	C	0.572873	-0.000053	0.116060
C18	C	0.531798	0.071837	0.161220
C19	C	0.435163	0.071892	0.158920
C20	C	0.434798	-0.071276	0.160804
C21	C	0.531743	-0.072221	0.160782
C22	C	0.667570	-0.000047	0.117727
C23	C	0.310614	-0.000062	0.111452
C24	C	1.046007	-0.218837	0.057683
C25	C	1.046012	-0.298085	0.057679
C26	C	0.989084	-0.337716	0.114584
C27	C	0.932132	-0.298093	0.171483
C28	C	0.932124	-0.218847	0.171480
N29	N	0.978426	-0.462133	0.188673
N30	N	0.978439	-0.537414	0.188673
C31	C	0.989106	-0.576480	0.114596
N32	N	0.999776	-0.537421	0.040516
N33	N	0.999766	-0.462134	0.040517
C34	C	0.989087	-0.423645	0.114594
C35	C	1.046056	-0.702023	0.057692
C36	C	1.046055	-0.781272	0.057687
C37	C	0.932179	-0.781278	0.171499
C38	C	0.932176	-0.702030	0.171497
C39	C	0.989119	-0.662408	0.114594
C40	C	1.142175	-0.000068	0.108476
C41	C	1.235125	-0.000069	0.110127
C42	C	0.995205	-0.000060	-0.038494
C43	C	0.993553	-0.000056	-0.131444
N44	N	0.989125	0.179103	0.114592
C45	C	0.987621	-0.000058	-0.469192
C46	C	0.896069	0.000230	-0.421758
C47	C	0.897721	-0.000054	-0.325068
C48	C	0.990564	-0.000056	-0.301631
C49	C	1.035707	-0.071951	-0.342713
C50	C	1.033408	-0.072011	-0.439349
C51	C	1.035324	0.071157	-0.439699
C52	C	1.035303	0.072107	-0.342753
C53	C	0.992231	-0.000058	-0.206934
C54	C	0.985956	-0.000061	-0.563890
C55	C	0.982980	-0.000059	0.267671
C56	C	0.984631	-0.000059	0.360621
H57	H	0.577856	-0.051588	-0.012281
C58	C	0.552513	-0.078097	0.252243
N59	N	0.568162	-0.082521	0.321132
C60	C	0.550885	0.075454	0.253367
N61	N	0.565264	0.078177	0.322771
C62	C	0.570136	0.144118	0.118849
N63	N	0.599011	0.198559	0.086930
H64	H	0.885824	-0.813545	0.217829
H65	H	0.885812	-0.669775	0.217829
H66	H	1.004334	-0.125451	-0.314334
C67	C	0.849773	0.069567	-0.286664
N68	N	0.813652	0.122006	-0.257742
C69	C	0.846639	0.069876	-0.446798
N70	N	0.809407	0.122335	-0.465667
C71	C	1.127849	-0.075578	-0.323614
N72	N	1.197248	-0.078312	-0.309221
C73	C	0.568602	-0.144072	0.116220
N74	N	0.596363	-0.198189	0.082649
H75	H	0.577303	0.051570	-0.012515
H76	H	1.103008	0.076446	-0.327391
H77	H	1.000470	-0.125751	-0.457653
H78	H	1.092382	-0.330344	0.011347
H79	H	0.859630	-0.051035	-0.441355
C80	C	0.869508	-0.341688	0.234076
N81	N	0.822334	-0.374524	0.281219
H82	H	0.434215	-0.051898	-0.015033
C83	C	0.407051	-0.144892	0.120359
N84	N	0.386154	-0.200336	0.089886
C85	C	0.410441	0.144488	0.114428
N86	N	0.391825	0.199167	0.080912
H87	H	1.102825	0.071638	-0.471460
H88	H	1.092420	-0.813526	0.011352
H89	H	0.433162	0.050928	-0.014859
H90	H	0.402915	0.075155	0.226136
H91	H	1.092372	-0.186578	0.011348
C92	C	0.391887	-0.071935	0.251993
N93	N	0.359561	-0.072427	0.320673
H94	H	0.861977	-0.051674	-0.297206
H95	H	0.885754	-0.186592	0.217812
H96	H	1.092420	-0.669760	0.011357
H97	H	1.100623	-0.075275	-0.471597
C98	C	0.994897	0.144773	-0.467439
N99	N	0.964437	0.200217	-0.488331
C100	C	0.990756	0.143962	-0.305890
N101	N	0.957194	0.198081	-0.278127
