data_functionalizedCrystal
_audit_creation_method	'MofGen! by Chris Wilmer'
_symmetry_space_group_name_H-M	'P1'
_symmetry_Int_Tables_number	1
_symmetry_cell_setting	triclinic
loop_
_symmetry_equiv_pos_as_xyz
  x,y,z
_cell_length_a	19.377372
_cell_length_b	17.052679
_cell_length_c	19.377372
_cell_angle_alpha	44.653278
_cell_angle_beta	93.588494
_cell_angle_gamma	63.827799
loop_
_atom_site_label
_atom_site_type_symbol
_atom_site_fract_x
_atom_site_fract_y
_atom_site_fract_z
Zr1	Zr	0.246498	1.534878	-0.533760
O2	O	0.091151	1.749110	-0.689114
O3	O	0.322922	1.320647	-0.457330
O4	O	0.239030	1.613190	-0.689938
O5	O	0.208455	1.394794	-0.305787
O6	O	0.322916	1.674962	-0.723356
O7	O	0.175043	1.456568	-0.456506
O8	O	0.472983	1.151657	-0.307262
O9	O	0.058388	1.918099	-0.721882
O10	O	0.383321	1.454863	-0.484475
O11	O	0.345653	1.362662	-0.347056
O12	O	0.246881	1.707093	-0.620923
O13	O	0.209213	1.614892	-0.483504
Zr14	Zr	0.433575	1.534876	-0.346679
Zr15	Zr	0.380286	1.633398	-0.587057
Zr16	Zr	0.299786	1.436356	-0.293382
Zr17	Zr	0.194244	1.804396	-0.586020
Zr18	Zr	0.485828	1.265358	-0.294419
O19	O	0.357150	1.749107	-0.423109
O20	O	0.281381	1.889193	-0.764896
O21	O	0.166920	1.609025	-0.347327
O22	O	0.588921	1.320644	-0.191324
O23	O	0.513152	1.460730	-0.533112
O24	O	0.398691	1.180562	-0.115543
O25	O	0.471617	1.674960	-0.574651
O26	O	0.441042	1.456565	-0.190500
O27	O	0.357156	1.394792	-0.157083
O28	O	0.505029	1.613186	-0.423933
O29	O	0.164732	1.996409	-0.764246
O30	O	0.515340	1.073345	-0.116193
O31	O	0.621684	1.151655	-0.158557
O32	O	0.579327	1.229967	-0.349626
O33	O	0.100745	1.839787	-0.530813
O34	O	0.207089	1.918097	-0.573177
O35	O	0.433191	1.362661	-0.259516
O36	O	0.470859	1.454862	-0.396934
O37	O	0.334419	1.707092	-0.533382
O38	O	0.296751	1.614891	-0.395964
C39	C	0.405398	1.197752	-0.374850
C40	C	0.427581	1.083335	-0.352664
C41	C	0.159396	1.133274	-0.620869
C42	C	0.138555	1.240763	-0.641699
C43	C	0.210809	1.201412	-0.569443
C44	C	0.303909	1.054560	-0.476352
C45	C	0.324750	0.947056	-0.455513
C46	C	0.376164	1.015195	-0.404087
C47	C	0.469263	0.868342	-0.310996
C48	C	0.490100	0.760851	-0.290163
C49	C	0.417846	0.800202	-0.362419
C50	C	0.355322	1.122698	-0.424925
C51	C	0.520676	0.936480	-0.259570
C52	C	0.541517	0.828991	-0.238740
C53	C	0.172687	1.411644	-0.373553
C54	C	0.115890	1.369820	-0.350927
C55	C	-0.427001	1.890560	-0.632634
C56	C	-0.480351	1.851225	-0.611354
C57	C	-0.337909	1.587916	-0.468913
C58	C	-0.284545	1.627228	-0.490177
C59	C	-0.329098	1.778553	-0.572040
C60	C	-0.186641	1.515220	-0.429582
C61	C	-0.133283	1.554531	-0.450850
C62	C	-0.177828	1.705849	-0.532712
C63	C	-0.275740	1.817863	-0.593307
C64	C	-0.142091	1.363899	-0.347726
C65	C	-0.044188	1.251891	-0.287131
C66	C	0.009174	1.291198	-0.308392
C67	C	-0.035371	1.442517	-0.390254
C68	C	0.107086	1.179184	-0.247796
C69	C	0.160444	1.218495	-0.269064
C70	C	0.017987	1.481828	-0.411521
C71	C	0.507385	1.658110	-0.506886
C72	C	0.564182	1.699934	-0.529512
C73	C	0.273381	1.658113	-0.740896
C74	C	0.250758	1.699938	-0.842943
C75	C	0.274675	1.872003	-0.505589
C76	C	0.252492	1.986420	-0.527774
C77	C	0.532433	1.179192	-0.822442
C78	C	0.511155	1.218526	-0.918348
C79	C	0.368722	1.481835	-1.060780
C80	C	0.389991	1.442525	-0.964885
C81	C	0.471847	1.291201	-0.845720
C82	C	0.329405	1.554534	-0.988164
C83	C	0.350670	1.515224	-0.892276
C84	C	0.432521	1.363906	-0.773109
C85	C	0.493113	1.251892	-0.749832
C86	C	0.247545	1.705854	-1.107328
C87	C	0.186960	1.817863	-1.130606
C88	C	0.208228	1.778557	-1.034719
C89	C	0.290079	1.627239	-0.915552
C90	C	0.147637	1.890572	-1.057996
C91	C	0.168902	1.851262	-0.962108
C92	C	0.311344	1.587930	-0.819664
C93	C	0.406692	1.411641	-0.139543
C94	C	0.429314	1.369816	-0.037496
C95	C	0.572747	1.320985	-0.441516
C96	C	0.651726	1.248392	-0.441957
C97	C	0.472053	1.074516	-0.074173
C98	C	0.516858	0.918273	0.050059
C99	C	0.639402	1.197749	-0.140840
C100	C	0.741004	1.083331	-0.039233
C101	C	0.040670	1.872006	-0.739599
C102	C	-0.060932	1.986424	-0.841206
C103	C	0.107326	1.748770	-0.438922
C104	C	0.028346	1.821363	-0.438482
C105	C	0.208019	1.995239	-0.806265
C106	C	0.163214	2.151481	-0.930498
C107	C	0.643120	1.214306	-0.487869
C108	C	0.717317	1.146117	-0.488306
C109	C	0.800122	1.112006	-0.442822
C110	C	0.808726	1.146100	-0.396910
C111	C	0.734527	1.214298	-0.396481
C112	C	0.583596	0.844896	0.154105
C113	C	0.625692	0.698099	0.270842
C114	C	0.601054	0.624678	0.283531
C115	C	0.534308	0.698068	0.179473
C116	C	0.492209	0.844867	0.062738
C117	C	0.808386	1.077731	-0.063251
C118	C	0.903852	0.970245	0.032205
C119	C	0.931936	0.868353	0.151680
C120	C	0.864546	0.873960	0.175696
C121	C	0.769080	0.981452	0.080239
C122	C	-0.128316	1.992037	-0.817190
C123	C	-0.223788	2.099556	-0.912653
C124	C	-0.251874	2.201453	-1.032128
C125	C	-0.184482	2.195839	-1.056143
C126	C	-0.089013	2.088329	-0.960683
C127	C	0.036948	1.855464	-0.392582
C128	C	-0.037261	1.923693	-0.392178
C129	C	-0.120067	1.957810	-0.437665
C130	C	-0.128669	1.923708	-0.483572
C131	C	-0.054464	1.855490	-0.483984
C132	C	0.187872	2.224858	-0.943146
C133	C	0.145790	2.371655	-1.059869
C134	C	0.079044	2.445078	-1.163942
C135	C	0.054388	2.371688	-1.151289
C136	C	0.096475	2.224889	-1.034568
H137	H	0.279517	1.242254	-0.500713
H138	H	0.437872	0.904596	-0.021974
Br139	Br	-0.105417	1.759210	-0.561586
H140	H	0.449830	1.331902	-0.695033
H141	H	0.193835	1.288940	-0.586407
H142	H	-0.180483	2.013357	-0.437322
H143	H	0.560495	1.127303	-0.899378
Br144	Br	0.604231	1.046540	-0.588111
Br145	Br	0.149318	1.809183	-0.330846
Br146	Br	1.061502	0.722479	0.281216
H147	H	0.575697	1.242088	-0.524923
Br148	Br	0.921113	1.099791	-0.335182
Br149	Br	0.658199	0.425448	0.441967
H150	H	0.710295	1.118364	-0.525692
Br151	Br	0.716272	0.598528	0.412043
Br152	Br	-0.214510	1.310553	-0.318877
Br153	Br	0.746226	1.260539	-0.334158
Br154	Br	-0.036206	2.471362	-1.292544
Br155	Br	0.002429	2.080724	-0.993296
H156	H	0.565906	0.641273	-0.214353
H157	H	-0.207362	2.278817	-1.153431
H158	H	0.958712	0.965697	0.012630
Br159	Br	0.062990	2.125332	-1.017424
Br160	Br	-0.025565	1.969955	-0.329868
H161	H	0.860533	1.056473	-0.443177
H162	H	0.080985	2.013775	-1.155028
Br163	Br	-0.241056	1.970014	-0.545297
H164	H	-0.061478	1.827723	-0.521357
Br165	Br	0.902675	0.735668	0.337847
H166	H	0.603667	0.904657	0.143797
H167	H	0.599092	1.055971	-0.725409
Br168	Br	0.667862	0.629687	-0.112407
H169	H	0.302073	1.605041	-1.157813
H170	H	0.242216	2.165098	-0.858418
Br171	Br	0.021933	2.644309	-1.322342
H172	H	0.714224	0.985990	0.099813
H173	H	0.165876	2.431390	-1.070147
H174	H	0.062756	1.360331	-0.717503
H175	H	0.785535	1.160683	-0.160525
Br176	Br	0.061343	1.186651	-0.718903
Br177	Br	0.446128	0.654324	-0.334156
Br178	Br	-0.090224	1.853759	-0.655054
Br179	Br	0.086687	2.003281	-0.993699
H180	H	-0.018287	1.605038	-0.478150
Br181	Br	0.618740	0.883057	-0.161495
H182	H	-0.329614	2.288987	-1.109847
Br183	Br	-0.336195	2.023228	-0.704391
H184	H	-0.560076	1.942448	-0.660706
Br185	Br	-0.487457	2.095925	-0.743718
H186	H	-0.278647	2.104101	-0.893076
H187	H	-0.301645	1.464709	-0.402263
H188	H	-0.007924	1.128684	-0.220481
Br189	Br	0.167534	0.973831	-0.136718
Br190	Br	0.293316	1.066488	-0.186837
H191	H	0.378003	1.464709	-0.722631
Br192	Br	0.218682	1.759202	-1.237463
H193	H	0.514256	0.638266	0.189822
Br194	Br	0.075867	2.023219	-1.292330
