data_functionalizedCrystal
_audit_creation_method	'MofGen! by Chris Wilmer'
_symmetry_space_group_name_H-M	'P1'
_symmetry_Int_Tables_number	1
_symmetry_cell_setting	triclinic
loop_
_symmetry_equiv_pos_as_xyz
  x,y,z
_cell_length_a	27.440280
_cell_length_b	20.016444
_cell_length_c	27.440280
_cell_angle_alpha	60.001920
_cell_angle_beta	90.008670
_cell_angle_gamma	59.997619
loop_
_atom_site_label
_atom_site_type_symbol
_atom_site_fract_x
_atom_site_fract_y
_atom_site_fract_z
Zr1	Zr	0.469494	0.731183	-0.063871
O2	O	0.391665	0.870578	-0.141694
O3	O	0.493353	0.591803	-0.040018
O4	O	0.493339	0.731189	-0.141686
O5	O	0.391689	0.731181	0.040177
O6	O	0.573542	0.731177	-0.141676
O7	O	0.391678	0.731192	-0.040025
O8	O	0.573566	0.481839	0.040191
O9	O	0.391665	0.980518	-0.141690
O10	O	0.563383	0.649116	-0.029833
O11	O	0.503536	0.649117	0.030014
O12	O	0.503521	0.813227	-0.089688
O13	O	0.443674	0.813229	-0.029842
Zr14	Zr	0.597426	0.731144	0.064058
Zr15	Zr	0.597408	0.731162	-0.063855
Zr16	Zr	0.469511	0.731165	0.064042
Zr17	Zr	0.469494	0.906524	-0.063865
Zr18	Zr	0.597425	0.555803	0.064052
O19	O	0.573567	0.870524	0.040205
O20	O	0.573542	0.870549	-0.141671
O21	O	0.391689	0.870553	0.040182
O22	O	0.675255	0.591748	0.141881
O23	O	0.675230	0.591774	-0.039995
O24	O	0.493377	0.591778	0.141858
O25	O	0.675231	0.731146	-0.039990
O26	O	0.573580	0.731137	0.141874
O27	O	0.493378	0.731150	0.141864
O28	O	0.675241	0.731135	0.040212
O29	O	0.493340	0.980502	-0.141677
O30	O	0.573580	0.481825	0.141864
O31	O	0.675255	0.481809	0.141877
O32	O	0.675241	0.481823	0.040203
O33	O	0.391679	0.980504	-0.040016
O34	O	0.493353	0.980488	-0.040003
O35	O	0.563399	0.649100	0.089875
O36	O	0.623245	0.649098	0.030029
O37	O	0.563383	0.813209	-0.029827
O38	O	0.503537	0.813211	0.030020
C39	C	0.533459	0.511839	0.000086
C40	C	0.533459	0.437402	0.000083
C41	C	0.564700	0.266131	-0.031146
C42	C	0.564702	0.196184	-0.031142
C43	C	0.502218	0.196199	0.031338
C44	C	0.502220	0.266140	0.031336
C45	C	0.533460	0.301108	0.000091
C46	C	0.533460	0.161219	0.000097
C47	C	0.533461	0.085379	0.000102
C48	C	0.533459	0.376952	0.000086
C49	C	0.373459	0.731189	0.000074
C50	C	0.319156	0.731198	0.000067
C51	C	0.013705	0.645483	0.031354
C52	C	-0.037313	0.645478	0.031359
O53	O	-0.037126	0.572624	0.057949
N54	N	-0.094077	0.731142	0.000115
C55	C	-0.099822	0.816816	-0.031132
O56	O	-0.152789	0.889679	-0.057707
C57	C	-0.048804	0.816820	-0.031134
C58	C	0.007959	0.731151	0.000108
C59	C	0.070467	0.559821	0.062594
C60	C	0.121481	0.559827	0.062587
C61	C	0.115735	0.645495	0.031341
C62	C	0.058974	0.731157	0.000102
C63	C	-0.054550	0.902493	-0.062377
C64	C	-0.003526	0.902490	-0.062375
C65	C	0.053238	0.816821	-0.031133
C66	C	0.104243	0.816830	-0.031151
N67	N	0.161007	0.731166	0.000094
C68	C	0.166753	0.645499	0.031340
C69	C	-0.206961	0.816801	-0.031126
C70	C	-0.257978	0.816797	-0.031128
C71	C	-0.195465	0.645459	0.031364
C72	C	-0.144447	0.645463	0.031363
C73	C	-0.150197	0.731137	0.000119
C74	C	0.273885	0.645517	0.031324
C75	C	0.324902	0.645530	0.031313
C76	C	0.262385	0.816868	-0.031177
C77	C	0.211373	0.816855	-0.031169
C78	C	0.217127	0.731172	0.000086
O79	O	0.104102	0.889647	-0.057725
O80	O	0.219722	0.572648	0.057917
C81	C	0.693461	0.731138	0.000114
C82	C	0.747764	0.731129	0.000120
C83	C	0.533438	0.731186	-0.159906
C84	C	0.533431	0.731193	-0.214209
C85	C	0.533460	0.950488	0.000102
C86	C	0.533460	1.024925	0.000104
C87	C	0.577661	0.731135	-0.550900
C88	C	0.577666	0.731128	-0.601918
O89	O	0.615256	0.731087	-0.628288
N90	N	0.533481	0.731137	-0.627442
C91	C	0.489291	0.731143	-0.601941
O92	O	0.451709	0.731149	-0.628335
C93	C	0.489289	0.731143	-0.550922
C94	C	0.533473	0.731144	-0.525404
C95	C	0.621842	0.731135	-0.525383
C96	C	0.621835	0.731144	-0.474369
C97	C	0.577648	0.731152	-0.448873
C98	C	0.533467	0.731153	-0.474391
C99	C	0.445102	0.731142	-0.525419
C100	C	0.445104	0.731142	-0.474396
C101	C	0.489288	0.731143	-0.448879
C102	C	0.489274	0.731170	-0.397881
N103	N	0.533459	0.731161	-0.372358
C104	C	0.577646	0.731153	-0.397854
C105	C	0.489300	0.731141	-0.709084
C106	C	0.489299	0.731148	-0.760105
C107	C	0.577675	0.731131	-0.760079
C108	C	0.577672	0.731131	-0.709059
C109	C	0.533485	0.731132	-0.683561
C110	C	0.577630	0.731172	-0.290722
C111	C	0.577618	0.731184	-0.239705
C112	C	0.489245	0.731196	-0.239734
C113	C	0.489254	0.731188	-0.290748
C114	C	0.533452	0.731173	-0.316240
O115	O	0.451704	0.731208	-0.371477
O116	O	0.615226	0.731134	-0.371449
C117	C	0.533481	0.731141	0.160093
C118	C	0.533489	0.731134	0.214396
C119	C	0.693461	0.511813	0.000106
C120	C	0.747763	0.437367	0.000110
C121	C	0.533481	0.511817	0.160085
C122	C	0.533488	0.437372	0.214385
C123	C	0.693482	0.511791	0.160105
C124	C	0.747792	0.437338	0.214412
C125	C	0.373437	0.950536	-0.159918
C126	C	0.319127	1.024989	-0.214225
C127	C	0.373459	0.950514	0.000082
C128	C	0.319156	1.024960	0.000078
C129	C	0.533439	0.950510	-0.159898
C130	C	0.533431	1.024955	-0.214198
C131	C	0.742017	0.402416	-0.031141
C132	C	0.793035	0.332476	-0.031149
C133	C	0.849799	0.297484	0.000097
C134	C	0.855545	0.332442	0.031349
C135	C	0.804527	0.402386	0.031353
C136	C	0.564739	0.402403	0.271137
C137	C	0.564744	0.332464	0.322163
C138	C	0.533500	0.297492	0.316434
C139	C	0.502246	0.332468	0.259676
C140	C	0.502238	0.402410	0.208652
C141	C	0.804541	0.402373	0.208676
C142	C	0.855576	0.332426	0.259698
C143	C	0.849861	0.297441	0.316455
C144	C	0.793106	0.332412	0.322190
C145	C	0.742072	0.402362	0.271169
C146	C	0.262378	1.059962	-0.208488
C147	C	0.211343	1.129931	-0.259510
C148	C	0.217059	1.164920	-0.316268
C149	C	0.273814	1.129944	-0.322003
C150	C	0.324847	1.059982	-0.270982
C151	C	0.324903	1.059918	0.031323
C152	C	0.273884	1.129877	0.031317
C153	C	0.217120	1.164872	0.000069
C154	C	0.211375	1.129910	-0.031180
C155	C	0.262393	1.059957	-0.031177
C156	C	0.564681	1.059905	-0.208451
C157	C	0.564686	1.129844	-0.259466
C158	C	0.533437	1.164836	-0.316228
C159	C	0.502187	1.129879	-0.321974
C160	C	0.502186	1.059936	-0.270960
H161	H	0.476783	0.167720	0.056776
C162	C	0.440664	0.731206	-0.681064
N163	N	0.404025	0.731273	-0.659969
C164	C	0.467861	0.304604	0.065710
N165	N	0.441987	0.333569	0.091604
C166	C	0.387343	0.551284	0.065684
N167	N	0.434371	0.480299	0.091573
C168	C	0.679581	0.440900	-0.065520
N169	N	0.632555	0.469886	-0.091421
H170	H	0.891421	0.240482	0.357995
H171	H	0.453270	0.731201	-0.311530
C172	C	0.440643	0.731201	-0.211677
N173	N	0.404039	0.731197	-0.190540
C174	C	0.918001	0.293962	0.253376
N175	N	0.965018	0.264990	0.248612
C176	C	0.256077	1.021493	-0.146060
N177	N	0.251325	0.992528	-0.099039
H178	H	0.788346	0.304022	-0.056597
H179	H	0.809206	0.430848	0.162465
C180	C	0.599071	0.304586	-0.065512
N181	N	0.624962	0.333544	-0.091394
H182	H	0.278574	1.158331	0.056766
C183	C	0.670459	0.731114	-0.553417
N184	N	0.707080	0.731102	-0.574529
H185	H	0.278580	0.575746	0.056775
H186	H	0.476745	1.158380	-0.368197
H187	H	0.476736	1.031487	-0.275647
C188	C	-0.116982	0.996738	-0.096744
N189	N	-0.164006	1.067729	-0.122630
H190	H	0.167697	0.490066	0.088025
C191	C	0.599062	0.157723	-0.065513
N192	N	0.624940	0.128758	-0.091405
H193	H	0.533511	0.240540	0.357986
C194	C	0.148928	1.168402	-0.065541
N195	N	0.101892	1.197388	-0.091416
H196	H	0.788461	0.303917	0.368409
H197	H	0.590127	1.031426	-0.162237
H198	H	0.257705	1.031496	-0.056619
H199	H	0.371054	1.031507	-0.275659
H200	H	0.476808	0.303982	0.255021
H201	H	-0.098231	0.575704	0.056808
H202	H	0.075156	0.490057	0.088041
C203	C	0.626281	0.731123	-0.680992
N204	N	0.662897	0.731113	-0.659852
C205	C	0.679649	0.440814	0.277489
N206	N	0.632633	0.469774	0.282254
H207	H	0.476792	0.430872	0.162444
C208	C	-0.189153	0.551222	0.065741
N209	N	-0.184402	0.480248	0.091632
H210	H	0.891337	0.240531	0.000090
H211	H	0.590181	0.430870	0.275813
H212	H	0.165136	1.158396	-0.254829
C213	C	0.160914	1.241874	-0.372388
N214	N	0.118623	1.299831	-0.414655
H215	H	-0.304194	0.886558	-0.056576
H216	H	-0.211650	0.886571	-0.056571
H217	H	-0.008214	0.972258	-0.087810
C218	C	0.280091	1.168434	-0.384442
N219	N	0.284817	1.197421	-0.431473
H220	H	0.175583	1.221832	0.000071
H221	H	0.590133	1.158300	-0.254776
H222	H	0.533443	1.221788	-0.357763
C223	C	0.599135	0.293995	0.384591
N224	N	0.625040	0.265019	0.431610
H225	H	0.165152	0.886614	-0.056616
C226	C	0.387339	1.021441	0.065697
N227	N	0.434364	0.992470	0.091587
H228	H	0.257716	0.886616	-0.056619
C229	C	0.626228	0.731180	-0.211637
N230	N	0.662842	0.731174	-0.190497
H231	H	0.657815	0.731140	-0.453595
C232	C	0.626285	0.731112	-0.788131
N233	N	0.662897	0.731096	-0.809260
C234	C	0.626248	0.731158	-0.318756
N235	N	0.662865	0.731155	-0.339873
H236	H	0.409124	0.731141	-0.546188
C237	C	0.396488	0.731157	-0.446357
N238	N	0.359867	0.731177	-0.425241
C239	C	0.440690	0.731157	-0.788172
N240	N	0.404077	0.731156	-0.809308
H241	H	0.809214	0.430834	0.056804
C242	C	0.917991	0.293934	0.065722
N243	N	0.965028	0.264921	0.091616
