data_functionalizedCrystal
_audit_creation_method	'MofGen! by Chris Wilmer'
_symmetry_space_group_name_H-M	'P1'
_symmetry_Int_Tables_number	1
_symmetry_cell_setting	triclinic
loop_
_symmetry_equiv_pos_as_xyz
  x,y,z
_cell_length_a	16.625548
_cell_length_b	16.625539
_cell_length_c	16.625545
_cell_angle_alpha	89.971893
_cell_angle_beta	90.026626
_cell_angle_gamma	89.979432
loop_
_atom_site_label
_atom_site_type_symbol
_atom_site_fract_x
_atom_site_fract_y
_atom_site_fract_z
Zn1	Zn	1.232663	-0.455910	-0.320977
Zn2	Zn	1.232559	-0.321078	-0.455820
Zn3	Zn	1.097825	-0.321091	-0.321008
Zn4	Zn	1.097788	-0.455868	-0.455774
O5	O	1.165209	-0.388487	-0.388395
O6	O	1.345482	-0.438037	-0.338871
O7	O	1.214658	-0.208247	-0.437969
O8	O	1.115771	-0.338998	-0.208171
O9	O	1.345405	-0.338976	-0.437940
O10	O	1.214836	-0.438050	-0.208149
O11	O	1.115670	-0.208257	-0.338923
O12	O	0.984988	-0.338957	-0.338878
O13	O	1.115708	-0.568706	-0.437861
O14	O	0.984961	-0.437977	-0.437891
O15	O	1.214800	-0.568737	-0.338826
O16	O	1.214622	-0.338935	-0.568647
O17	O	1.115607	-0.437965	-0.568613
C18	C	0.955718	-0.388464	-0.388383
C19	C	0.866097	-0.388474	-0.388398
C20	C	0.537921	-0.388508	-0.388403
C21	C	0.629230	-0.388496	-0.388399
C22	C	0.702006	-0.388490	-0.388401
C23	C	0.793320	-0.388480	-0.388396
C24	C	1.165261	-0.598796	-0.388335
C25	C	1.165284	-0.688417	-0.388309
C26	C	1.165321	-1.016593	-0.388219
C27	C	1.165308	-0.925284	-0.388247
C28	C	1.165303	-0.852508	-0.388265
C29	C	1.165289	-0.761194	-0.388291
C30	C	1.375518	-0.388510	-0.388407
C31	C	1.465139	-0.388520	-0.388412
C32	C	1.165121	-0.388462	-0.597886
C33	C	1.165158	-0.388478	-0.687507
C34	C	1.165203	-0.178996	-0.388397
C35	C	1.165337	-0.089375	-0.388195
C36	C	1.165189	-0.388494	-0.760289
C37	C	1.165236	-0.388511	-0.851598
C38	C	1.165278	-0.388522	-0.924374
C39	C	1.165324	-0.388538	-1.015688
C40	C	1.165319	-0.388530	-0.178086
C41	C	1.165366	-0.388548	-0.088465
