data_functionalizedCrystal
_audit_creation_method	'MofGen! by Chris Wilmer'
_symmetry_space_group_name_H-M	'P1'
_symmetry_Int_Tables_number	1
_symmetry_cell_setting	triclinic
loop_
_symmetry_equiv_pos_as_xyz
  x,y,z
_cell_length_a	19.188930
_cell_length_b	19.288864
_cell_length_c	17.766277
_cell_angle_alpha	90.023209
_cell_angle_beta	89.988508
_cell_angle_gamma	96.859488
loop_
_atom_site_label
_atom_site_type_symbol
_atom_site_fract_x
_atom_site_fract_y
_atom_site_fract_z
O1	O	0.087099	-0.921360	-0.062844
O2	O	0.587099	-0.421360	0.437156
O3	O	0.098849	-0.719100	-0.062794
O4	O	0.598849	-0.219100	0.437206
O5	O	-0.008682	-0.826066	-0.062806
O6	O	0.491318	-0.326066	0.437194
O7	O	0.194630	-0.814393	-0.062832
O8	O	0.694630	-0.314393	0.437168
O9	O	-0.008688	-0.826048	0.062383
O10	O	0.491312	-0.326048	0.562383
O11	O	0.098843	-0.719081	0.062395
O12	O	0.598843	-0.219081	0.562395
O13	O	0.087094	-0.921341	0.062345
O14	O	0.587094	-0.421341	0.562345
Cu15	Cu	0.092968	-0.820209	0.073800
Cu16	Cu	0.592968	-0.320209	0.573800
Cu17	Cu	0.092974	-0.820231	-0.074250
Cu18	Cu	0.592974	-0.320231	0.425750
O19	O	0.194625	-0.814374	0.062356
O20	O	0.694625	-0.314374	0.562356
C21	C	0.098468	-0.693214	-0.000193
C22	C	0.598468	-0.193214	0.499807
C23	C	0.097333	-0.616110	-0.000173
C24	C	0.597333	-0.116110	0.499827
C25	C	0.087475	-0.947227	-0.000258
C26	C	0.587475	-0.447227	0.499742
C27	C	0.088609	-1.024330	-0.000283
C28	C	0.588609	-0.524330	0.499717
C29	C	-0.034696	-0.825679	-0.000209
C30	C	0.465304	-0.325679	0.499791
C31	C	-0.112200	-0.824544	-0.000202
C32	C	0.387800	-0.324544	0.499798
C33	C	-0.157129	-0.887309	-0.000214
C34	C	0.342871	-0.387309	0.499786
C35	C	-0.229953	-0.886243	-0.000226
C36	C	0.270047	-0.386243	0.499774
C37	C	-0.257844	-0.822408	-0.000211
C38	C	0.242156	-0.322408	0.499789
C39	C	-0.212906	-0.759636	-0.000203
C40	C	0.287094	-0.259636	0.499797
C41	C	-0.140084	-0.760704	-0.000199
C42	C	0.359916	-0.260704	0.499801
N43	N	-0.365848	-0.773608	0.042405
N44	N	0.134152	-0.273608	0.542405
N45	N	-0.435026	-0.772598	0.042403
N46	N	0.064974	-0.272598	0.542403
C47	C	-0.477253	-0.819187	-0.000225
C48	C	0.022747	-0.319187	0.499775
N49	N	-0.447689	-0.866835	-0.042841
N50	N	0.052311	-0.366835	0.457159
N51	N	-0.378504	-0.867847	-0.042836
N52	N	0.121496	-0.367847	0.457164
C53	C	-0.336807	-0.821243	-0.000216
C54	C	0.163193	-0.321243	0.499784
C55	C	-0.601146	-0.880800	-0.000251
C56	C	-0.101146	-0.380800	0.499749
C57	C	-0.673971	-0.879731	-0.000268
C58	C	-0.173971	-0.379731	0.499732
C59	C	-0.656922	-0.753122	-0.000237
C60	C	-0.156922	-0.253122	0.499763
C61	C	-0.584099	-0.754193	-0.000228
C62	C	-0.084099	-0.254193	0.499772
C63	C	-0.556216	-0.818034	-0.000231
C64	C	-0.056216	-0.318034	0.499769
C65	C	0.220638	-0.814762	-0.000242
C66	C	0.720638	-0.314762	0.499758
C67	C	0.298143	-0.815896	-0.000253
C68	C	0.798143	-0.315896	0.499747
N69	N	0.092963	-0.820199	0.177931
N70	N	0.592963	-0.320199	0.677931
C71	C	0.160427	-0.571419	-0.000193
C72	C	0.660427	-0.071419	0.499807
C73	C	0.159361	-0.498972	-0.000201
C74	C	0.659361	0.001028	0.499799
C75	C	0.095197	-0.471219	-0.000204
C76	C	0.595197	0.028781	0.499796
C77	C	0.032095	-0.515921	-0.000180
C78	C	0.532095	-0.015921	0.499820
C79	C	0.033163	-0.588366	-0.000164
C80	C	0.533163	-0.088366	0.499836
C81	C	0.044759	-0.362960	-0.044082
C82	C	0.544759	0.137040	0.455918
C83	C	0.043694	-0.290515	-0.044103
C84	C	0.543694	0.209485	0.455897
C85	C	0.091900	-0.247773	-0.000249
C86	C	0.591900	0.252227	0.499751
C87	C	0.141184	-0.277483	0.043614
C88	C	0.641184	0.222517	0.543614
C89	C	0.142252	-0.349929	0.043630
C90	C	0.642252	0.150071	0.543630
C91	C	0.094032	-0.392665	-0.000221
C92	C	0.594032	0.107335	0.499779
C93	C	0.153843	-0.124526	-0.000277
C94	C	0.653843	0.375474	0.499723
C95	C	0.152774	-0.052078	-0.000281
C96	C	0.652774	0.447922	0.499719
C97	C	0.025506	-0.069028	-0.000267
C98	C	0.525506	0.430972	0.499733
C99	C	0.026576	-0.141475	-0.000256
C100	C	0.526576	0.358525	0.499744
C101	C	0.090747	-0.169219	-0.000265
C102	C	0.590747	0.330781	0.499735
N103	N	0.092974	-0.820247	-0.178380
N104	N	0.592974	-0.320247	0.321620
C105	C	0.045372	-0.867579	0.217312
C106	C	0.545372	-0.367579	0.717312
C107	C	0.045368	-0.867583	0.296114
C108	C	0.545368	-0.367583	0.796114
C109	C	0.092969	-0.820213	0.335531
C110	C	0.592969	-0.320213	0.835531
C111	C	0.140564	-0.772824	0.296140
C112	C	0.640564	-0.272824	0.796140
C113	C	0.140561	-0.772817	0.217340
C114	C	0.640561	-0.272817	0.717340
C115	C	0.156585	-0.810919	0.460362
C116	C	0.656585	-0.310919	0.960362
C117	C	0.156589	-0.810931	0.539161
C118	C	0.656589	-0.310931	1.039161
C119	C	0.092977	-0.820232	0.578578
C120	C	0.592977	-0.320232	1.078578
C121	C	0.029359	-0.829535	0.539185
C122	C	0.529359	-0.329535	1.039185
C123	C	0.029356	-0.829528	0.460385
C124	C	0.529356	-0.329528	0.960385
C125	C	0.092977	-0.820216	0.420977
C126	C	0.592977	-0.320216	0.920977
C127	C	0.045378	-0.867619	0.703405
C128	C	0.545378	-0.367619	1.203405
C129	C	0.045374	-0.867618	0.782208
C130	C	0.545374	-0.367618	1.282208
C131	C	0.140575	-0.772863	0.782233
C132	C	0.640575	-0.272863	1.282233
C133	C	0.140573	-0.772861	0.703431
C134	C	0.640573	-0.272861	1.203431
C135	C	0.092976	-0.820242	0.664022
C136	C	0.592976	-0.320242	1.164022
H137	H	-0.134431	-0.939293	-0.000220
H138	H	0.365569	-0.439293	0.499780
Cl139	Cl	-0.046163	-0.644553	-0.000140
Cl140	Cl	0.453837	-0.144553	0.499860
H141	H	0.208391	-0.803361	0.571228
H142	H	0.708391	-0.303361	1.071228
H143	H	-0.235620	-0.707661	-0.000192
H144	H	0.264380	-0.207661	0.499808
H145	H	0.006612	-0.906167	0.328185
H146	H	0.506612	-0.406167	0.828185
Cl147	Cl	-0.018256	-0.253172	-0.099253
Cl148	Cl	0.481744	0.246828	0.400747
H149	H	0.005502	-0.397756	-0.079797
H150	H	0.505502	0.102244	0.420203
H151	H	-0.103502	-0.709591	-0.000189
H152	H	0.396498	-0.209591	0.499811
Cl153	Cl	-0.055159	-0.034147	-0.000263
Cl154	Cl	0.444841	0.465853	0.499737
Cl155	Cl	-0.286445	-0.965153	-0.000242
Cl156	Cl	0.213555	-0.465153	0.499758
Cl157	Cl	-0.730454	-0.958643	-0.000288
Cl158	Cl	-0.230454	-0.458643	0.499712
H159	H	-0.024802	-0.177864	-0.000244
H160	H	0.475198	0.322136	0.499756
H161	H	-0.578442	-0.932783	-0.000257
H162	H	-0.078442	-0.432783	0.499743
Cl163	Cl	-0.691979	-0.672873	-0.000222
Cl164	Cl	-0.191979	-0.172873	0.499778
Cl165	Cl	-0.527614	-0.675284	-0.000209
Cl166	Cl	-0.027614	-0.175284	0.499791
H167	H	0.212680	-0.594003	-0.000201
H168	H	0.712680	-0.094003	0.499799
H169	H	0.006613	-0.906158	0.185228
H170	H	0.506613	-0.406158	0.685228
Cl171	Cl	0.238686	-0.442777	-0.000225
Cl172	Cl	0.738686	0.057223	0.499775
Cl173	Cl	0.200409	-0.713298	0.653918
Cl174	Cl	0.700409	-0.213298	1.153918
Cl175	Cl	-0.048569	-0.481033	-0.000180
Cl176	Cl	0.451431	0.018967	0.499820
H177	H	0.182379	-0.374116	0.079348
H178	H	0.682379	0.125884	0.579348
Cl179	Cl	-0.050618	-0.841214	0.410866
Cl180	Cl	0.449382	-0.341214	0.910866
Cl181	Cl	0.201792	-0.223758	0.098748
Cl182	Cl	0.701792	0.276242	0.598748
Cl183	Cl	0.236565	-0.799291	0.410819
Cl184	Cl	0.736565	-0.299291	0.910819
H185	H	0.206094	-0.147116	-0.000273
H186	H	0.706094	0.352884	0.499727
Cl187	Cl	-0.050617	-0.841233	0.588728
Cl188	Cl	0.449383	-0.341233	1.088728
H189	H	0.204155	-0.015690	-0.000293
H190	H	0.704155	0.484310	0.499707
H191	H	0.179319	-0.734254	0.328238
H192	H	0.679319	-0.234254	0.828238
H193	H	0.179316	-0.734234	0.185275
H194	H	0.679316	-0.234234	0.685275
Cl195	Cl	-0.014462	-0.927180	0.653861
Cl196	Cl	0.485538	-0.427180	1.153861
Cl197	Cl	-0.014464	-0.927182	0.831720
Cl198	Cl	0.485536	-0.427182	1.331720
H199	H	0.179330	-0.734291	0.814326
H200	H	0.679330	-0.234291	1.314326
