data_functionalizedCrystal
_audit_creation_method	'MofGen! by Chris Wilmer'
_symmetry_space_group_name_H-M	'P1'
_symmetry_Int_Tables_number	1
_symmetry_cell_setting	triclinic
loop_
_symmetry_equiv_pos_as_xyz
  x,y,z
_cell_length_a	10.654550
_cell_length_b	17.699083
_cell_length_c	16.776229
_cell_angle_alpha	89.992455
_cell_angle_beta	89.989355
_cell_angle_gamma	83.883958
loop_
_atom_site_label
_atom_site_type_symbol
_atom_site_fract_x
_atom_site_fract_y
_atom_site_fract_z
O1	O	1.665985	0.106304	-0.066355
O2	O	1.300329	0.116432	-0.066343
O3	O	1.493488	0.001245	-0.066343
O4	O	1.472826	0.221492	-0.066356
O5	O	1.493462	0.001237	0.066234
O6	O	1.300304	0.116425	0.066234
O7	O	1.665959	0.106297	0.066221
Zn8	Zn	1.483127	0.111360	0.087277
Zn9	Zn	1.483161	0.111369	-0.087399
O10	O	1.472801	0.221484	0.066221
C11	C	1.492735	-0.026961	-0.000054
C12	C	1.490514	-0.110993	-0.000054
C13	C	1.253531	0.115685	-0.000053
C14	C	1.114127	0.113460	-0.000048
C15	C	1.603894	-0.158893	-0.000057
C16	C	1.601799	-0.237850	-0.000063
C17	C	1.486324	-0.268905	-0.000062
C18	C	1.372935	-0.220998	-0.000062
C19	C	1.375031	-0.142043	-0.000060
C20	C	1.364481	-0.539415	-0.000068
C21	C	1.362394	-0.618376	-0.000067
C22	C	1.591249	-0.635222	-0.000071
C23	C	1.593345	-0.556266	-0.000070
C24	C	1.479957	-0.508367	-0.000073
C25	C	1.482229	-0.422753	-0.000067
C26	C	1.484050	-0.354517	-0.000062
C27	C	1.033454	0.181281	-0.000064
C28	C	0.902470	0.179185	-0.000077
C29	C	0.932845	0.041443	-0.000063
C30	C	1.063826	0.043539	-0.000043
C31	C	1.083755	0.251201	-0.000068
C32	C	1.003081	0.319027	-0.000085
C33	C	0.872097	0.316932	-0.000098
C34	C	0.821787	0.247011	-0.000095
C35	C	1.712757	0.107044	-0.000071
C36	C	1.852161	0.109269	-0.000081
C37	C	1.473554	0.249690	-0.000069
C38	C	1.475775	0.333722	-0.000075
N39	N	1.483114	0.111353	0.206488
N40	N	1.483185	0.111370	-0.206610
C41	C	1.568670	0.060369	0.248205
C42	C	1.568677	0.060368	0.331657
C43	C	1.483133	0.111356	0.373391
C44	C	1.397567	0.162342	0.331668
C45	C	1.397555	0.162338	0.248217
C46	C	1.397612	0.162357	0.668215
C47	C	1.397633	0.162358	0.751671
C48	C	1.568735	0.060387	0.751655
C49	C	1.568723	0.060384	0.668205
C50	C	1.483153	0.111367	0.626489
C51	C	1.483145	0.111366	0.536000
C52	C	1.483146	0.111361	0.463878
H53	H	1.697927	-0.133615	-0.000053
Cl54	Cl	1.066326	0.406923	-0.000080
Cl55	Cl	1.221935	-0.479209	-0.000075
H56	H	1.327885	0.203853	0.214252
H57	H	1.638336	0.018852	0.214231
Cl58	Cl	1.227764	-0.260039	-0.000070
Cl59	Cl	1.232489	-0.081825	-0.000060
Cl60	Cl	0.869595	-0.046451	-0.000063
H61	H	1.694125	-0.276847	-0.000064
Cl62	Cl	1.738520	-0.517231	-0.000074
Cl63	Cl	1.290082	0.226461	0.804136
Cl64	Cl	1.733797	-0.695443	-0.000069
H65	H	1.268354	-0.643658	-0.000064
H66	H	1.190407	0.252915	-0.000061
H67	H	1.327941	0.203871	0.634256
Cl68	Cl	1.676306	-0.003710	0.804102
H69	H	0.806415	0.372160	-0.000104
H70	H	1.638343	0.018853	0.365623
Cl71	Cl	0.657119	0.244380	-0.000101
Cl72	Cl	1.676271	-0.003714	0.615743
H73	H	1.129513	-0.011686	-0.000033
H74	H	1.327909	0.203854	0.365652
