data_functionalizedCrystal
_audit_creation_method	'MofGen! by Chris Wilmer'
_symmetry_space_group_name_H-M	'P1'
_symmetry_Int_Tables_number	1
_symmetry_cell_setting	triclinic
loop_
_symmetry_equiv_pos_as_xyz
  x,y,z
_cell_length_a	17.699083
_cell_length_b	14.853567
_cell_length_c	16.176319
_cell_angle_alpha	89.996997
_cell_angle_beta	89.998611
_cell_angle_gamma	83.458972
loop_
_atom_site_label
_atom_site_type_symbol
_atom_site_fract_x
_atom_site_fract_y
_atom_site_fract_z
O1	O	1.004375	0.114008	-0.068624
O2	O	0.784035	0.128841	-0.068650
O3	O	0.900090	-0.009827	-0.068639
O4	O	0.888319	0.252676	-0.068635
O5	O	0.900074	-0.009836	0.068855
O6	O	0.784019	0.128832	0.068843
O7	O	1.004359	0.113999	0.068869
Cu8	Cu	0.894187	0.121415	0.081411
Cu9	Cu	0.894206	0.121425	-0.081191
O10	O	0.888303	0.252667	0.068858
C11	C	0.755828	0.128305	0.000093
C12	C	0.671806	0.126711	0.000083
C13	C	0.899549	-0.043418	0.000106
C14	C	0.897951	-0.143496	0.000098
C15	C	0.623396	0.208106	0.000084
C16	C	0.544449	0.206602	0.000095
C17	C	0.513913	0.123703	0.000098
C18	C	0.562329	0.042301	0.000099
C19	C	0.641275	0.043806	0.000095
C20	C	0.243950	0.036232	0.000120
C21	C	0.164999	0.034734	0.000122
C22	C	0.147125	0.199028	0.000120
C23	C	0.226070	0.200533	0.000115
C24	C	0.274479	0.119132	0.000121
C25	C	0.360083	0.120763	0.000111
C26	C	0.428311	0.122070	0.000102
C27	C	0.822255	-0.555751	0.000105
C28	C	0.960131	-0.577539	0.000121
C29	C	0.961634	-0.483511	0.000117
C30	C	0.893446	-0.425598	0.000107
C31	C	0.823756	-0.461714	0.000103
C32	C	1.031324	-0.447389	0.000129
C33	C	1.032829	-0.353355	0.000126
C34	C	0.964641	-0.295441	0.000111
C35	C	0.894947	-0.331561	0.000105
C36	C	0.826759	-0.273648	0.000096
C37	C	0.757065	-0.309767	0.000084
C38	C	0.755567	-0.403799	0.000088
C39	C	0.966139	-0.201409	0.000107
C40	C	0.828260	-0.179611	0.000094
C41	C	1.032565	0.114535	0.000125
C42	C	1.116587	0.116130	0.000129
C43	C	0.888844	0.286258	0.000112
C44	C	0.890443	0.386336	0.000114
N45	N	0.894179	0.121407	0.195776
N46	N	0.894220	0.121426	-0.195556
C47	C	0.945584	0.060030	0.239045
C48	C	0.945588	0.060029	0.325592
C49	C	0.894190	0.121410	0.368868
C50	C	0.842780	0.182790	0.325593
C51	C	0.842773	0.182786	0.239048
C52	C	0.842806	0.182807	0.674621
C53	C	0.842818	0.182808	0.761173
C54	C	0.945621	0.060050	0.761166
C55	C	0.945614	0.060046	0.674620
C56	C	0.894201	0.121422	0.631353
C57	C	0.894197	0.121422	0.537508
C58	C	0.894198	0.121416	0.462711
H59	H	0.505037	0.272882	0.000095
H60	H	1.022883	-0.172005	0.000122
O61	O	1.033672	-0.640001	0.000141
H62	H	1.067030	-0.627181	-0.055892
H63	H	0.537461	-0.025197	0.000114
H64	H	0.648252	0.275612	0.000081
H65	H	0.701546	-0.262602	0.000083
O66	O	0.259008	0.289945	0.000124
H67	H	0.212082	0.346293	0.000138
H68	H	0.107700	0.265309	0.000120
H69	H	0.140140	-0.032777	0.000126
H70	H	0.283356	-0.030050	0.000125
O71	O	1.104865	-0.509849	0.000143
H72	H	1.138196	-0.497033	0.056193
H73	H	0.680690	-0.022475	0.000093
O74	O	0.754710	-0.117154	0.000084
H75	H	0.767458	-0.045699	0.000081
H76	H	0.698825	-0.433216	0.000079
O77	O	0.747086	-0.594699	0.000092
H78	H	0.714310	-0.571420	0.056125
H79	H	0.800927	0.232765	0.360834
O80	O	0.787333	0.248989	0.192372
H81	H	0.751599	0.291679	0.237003
H82	H	0.987442	0.010050	0.203815
H83	H	1.089579	-0.323956	0.000134
O84	O	1.001045	-0.006153	0.372264
H85	H	1.036795	-0.048823	0.327632
H86	H	0.987470	0.010067	0.639387
H87	H	0.987482	0.010071	0.796404
O88	O	0.787391	0.249028	0.807855
H89	H	0.751639	0.291708	0.763229
O90	O	0.787363	0.249010	0.627958
H91	H	0.751633	0.291699	0.672593
