data_functionalizedCrystal
_audit_creation_method	'MofGen! by Chris Wilmer'
_symmetry_space_group_name_H-M	'P1'
_symmetry_Int_Tables_number	1
_symmetry_cell_setting	triclinic
loop_
_symmetry_equiv_pos_as_xyz
  x,y,z
_cell_length_a	10.489741
_cell_length_b	14.519709
_cell_length_c	13.596369
_cell_angle_alpha	89.999709
_cell_angle_beta	89.994306
_cell_angle_gamma	95.890341
loop_
_atom_site_label
_atom_site_type_symbol
_atom_site_fract_x
_atom_site_fract_y
_atom_site_fract_z
O1	O	0.167203	-1.224779	-0.081663
O2	O	0.417203	-0.974779	0.168337
O3	O	0.667203	-0.724779	0.418337
O4	O	0.917203	-0.474779	0.668337
O5	O	0.186894	-0.956410	-0.081693
O6	O	0.436894	-0.706410	0.168307
O7	O	0.686894	-0.456410	0.418307
O8	O	0.936894	-0.206410	0.668307
O9	O	-0.008613	-1.096701	-0.081671
O10	O	0.241387	-0.846701	0.168329
O11	O	0.491387	-0.596701	0.418329
O12	O	0.741387	-0.346701	0.668329
O13	O	0.362710	-1.084488	-0.081684
O14	O	0.612710	-0.834488	0.168316
O15	O	0.862710	-0.584488	0.418316
O16	O	1.112710	-0.334488	0.668316
O17	O	-0.008623	-1.096687	0.081912
O18	O	0.241377	-0.846687	0.331912
O19	O	0.491377	-0.596687	0.581912
O20	O	0.741377	-0.346687	0.831912
O21	O	0.186883	-0.956396	0.081890
O22	O	0.436883	-0.706396	0.331890
O23	O	0.686883	-0.456396	0.581890
O24	O	0.936883	-0.206396	0.831890
O25	O	0.167193	-1.224765	0.081920
O26	O	0.417193	-0.974765	0.331920
O27	O	0.667193	-0.724765	0.581920
O28	O	0.917193	-0.474765	0.831920
Zn29	Zn	0.177037	-1.090578	0.107878
Zn30	Zn	0.427037	-0.840578	0.357878
Zn31	Zn	0.677037	-0.590578	0.607878
Zn32	Zn	0.927037	-0.340578	0.857878
Zn33	Zn	0.177050	-1.090597	-0.107650
Zn34	Zn	0.427050	-0.840597	0.142350
Zn35	Zn	0.677050	-0.590597	0.392350
Zn36	Zn	0.927050	-0.340597	0.642350
O37	O	0.362700	-1.084474	0.081899
O38	O	0.612700	-0.834474	0.331899
O39	O	0.862700	-0.584474	0.581899
O40	O	1.112700	-0.334474	0.831899
C41	C	0.185971	-0.922038	0.000095
C42	C	0.435971	-0.672038	0.250095
C43	C	0.685971	-0.422038	0.500095
C44	C	0.935971	-0.172038	0.750095
C45	C	0.183221	-0.819642	0.000084
C46	C	0.433221	-0.569642	0.250084
C47	C	0.683221	-0.319642	0.500084
C48	C	0.933221	-0.069642	0.750084
C49	C	-0.056140	-1.095772	0.000120
C50	C	0.193860	-0.845772	0.250120
C51	C	0.443860	-0.595772	0.500120
C52	C	0.693860	-0.345772	0.750120
C53	C	-0.197741	-1.093012	0.000118
C54	C	0.052259	-0.843012	0.250118
C55	C	0.302259	-0.593012	0.500118
C56	C	0.552259	-0.343012	0.750118
N57	N	0.177026	-1.090572	0.254969
N58	N	0.427026	-0.840572	0.504969
N59	N	0.677026	-0.590572	0.754969
N60	N	0.927026	-0.340572	1.004969
C61	C	-0.264951	-1.003749	0.000100
C62	C	-0.014951	-0.753749	0.250100
C63	C	0.235049	-0.503749	0.500100
C64	C	0.485049	-0.253749	0.750100
C65	C	-0.357518	-1.045909	0.080760
C66	C	-0.107518	-0.795909	0.330760
C67	C	0.142482	-0.545909	0.580760
C68	C	0.392482	-0.295909	0.830760
C69	C	-0.357482	-1.045944	-0.080520
C70	C	-0.107482	-0.795944	0.169480
C71	C	0.142518	-0.545944	0.419480
C72	C	0.392518	-0.295944	0.669480
C73	C	-0.288443	-1.135209	0.080844
C74	C	-0.038443	-0.885209	0.330844
C75	C	0.211557	-0.635209	0.580844
C76	C	0.461557	-0.385209	0.830844
C77	C	-0.288398	-1.135232	-0.080509
C78	C	-0.038398	-0.885232	0.169491
C79	C	0.211602	-0.635232	0.419491
C80	C	0.461602	-0.385232	0.669491
C81	C	-0.380938	-1.177457	0.000171
C82	C	-0.130938	-0.927457	0.250171
C83	C	0.119062	-0.677457	0.500171
C84	C	0.369062	-0.427457	0.750171
C85	C	0.410227	-1.085403	0.000106
C86	C	0.660227	-0.835403	0.250106
C87	C	0.910227	-0.585403	0.500106
C88	C	1.160227	-0.335403	0.750106
C89	C	0.551828	-1.088163	0.000101
C90	C	0.801828	-0.838163	0.250101
C91	C	1.051828	-0.588163	0.500101
C92	C	1.301828	-0.338163	0.750101
C93	C	0.168116	-1.259137	0.000130
C94	C	0.418116	-1.009137	0.250130
C95	C	0.668116	-0.759137	0.500130
C96	C	0.918116	-0.509137	0.750130
C97	C	0.170866	-1.361533	0.000135
C98	C	0.420866	-1.111533	0.250135
C99	C	0.670866	-0.861533	0.500135
C100	C	0.920866	-0.611533	0.750135
C101	C	0.173098	-0.444691	0.000129
C102	C	0.423098	-0.194691	0.250129
C103	C	0.673098	0.055309	0.500129
C104	C	0.923098	0.305309	0.750129
C105	C	0.175909	-0.549014	0.000116
C106	C	0.425909	-0.299014	0.250116
C107	C	0.675909	-0.049014	0.500116
C108	C	0.925909	0.200986	0.750116
C109	C	0.178159	-0.632163	0.000105
C110	C	0.428159	-0.382163	0.250105
C111	C	0.678159	-0.132163	0.500105
C112	C	0.928159	0.117837	0.750105
C113	C	0.180971	-0.736493	0.000094
C114	C	0.430971	-0.486493	0.250094
C115	C	0.680971	-0.236493	0.500094
C116	C	0.930971	0.013507	0.750094
N117	N	0.177050	-1.090610	-0.254742
N118	N	0.427050	-0.840610	-0.004742
N119	N	0.677050	-0.590610	0.245258
N120	N	0.927050	-0.340610	0.495258
C121	C	0.177052	-1.090596	0.656260
C122	C	0.427052	-0.840596	0.906260
C123	C	0.677052	-0.590596	1.156260
C124	C	0.927052	-0.340596	1.406260
C125	C	0.177049	-1.090586	0.544609
C126	C	0.427049	-0.840586	0.794609
C127	C	0.677049	-0.590586	1.044609
C128	C	0.927049	-0.340586	1.294609
C129	C	0.177040	-1.090584	0.455618
C130	C	0.427040	-0.840584	0.705618
C131	C	0.677040	-0.590584	0.955618
C132	C	0.927040	-0.340584	1.205618
C133	C	0.177035	-1.090574	0.343960
C134	C	0.427035	-0.840574	0.593960
C135	C	0.677035	-0.590574	0.843960
C136	C	0.927035	-0.340574	1.093960
H137	H	-0.388140	-1.008134	0.148944
H138	H	-0.138140	-0.758134	0.398944
H139	H	0.111860	-0.508134	0.648944
H140	H	0.361860	-0.258134	0.898944
C141	C	-0.398790	-0.994915	-0.172642
C142	C	-0.148790	-0.744915	0.077358
C143	C	0.101210	-0.494915	0.327358
C144	C	0.351210	-0.244915	0.577358
H145	H	-0.358660	-0.933208	-0.172543
H146	H	-0.108660	-0.683208	0.077457
H147	H	0.141340	-0.433208	0.327457
H148	H	0.391340	-0.183208	0.577457
H149	H	-0.489210	-0.994013	-0.172307
H150	H	-0.239210	-0.744013	0.077693
H151	H	0.010790	-0.494013	0.327693
H152	H	0.260790	-0.244013	0.577693
H153	H	-0.373953	-1.026036	-0.229913
H154	H	-0.123953	-0.776036	0.020087
H155	H	0.126047	-0.526036	0.270087
H156	H	0.376047	-0.276036	0.520087
H157	H	-0.257742	-1.172975	-0.148696
H158	H	-0.007742	-0.922975	0.101304
H159	H	0.242258	-0.672975	0.351304
H160	H	0.492258	-0.422975	0.601304
C161	C	-0.196832	-0.904609	0.000196
C162	C	0.053168	-0.654609	0.250196
C163	C	0.303168	-0.404609	0.500196
C164	C	0.553168	-0.154609	0.750196
H165	H	-0.220324	-0.873040	0.057573
H166	H	0.029676	-0.623040	0.307573
H167	H	0.279676	-0.373040	0.557573
H168	H	0.529676	-0.123040	0.807573
H169	H	-0.221456	-0.872581	-0.056523
H170	H	0.028544	-0.622581	0.193477
H171	H	0.278544	-0.372581	0.443477
H172	H	0.528544	-0.122581	0.693477
H173	H	-0.106679	-0.907049	-0.000380
H174	H	0.143321	-0.657049	0.249620
H175	H	0.393321	-0.407049	0.499620
H176	H	0.643321	-0.157049	0.749620
H177	H	-0.431128	-1.250914	0.000224
H178	H	-0.181128	-1.000914	0.250224
H179	H	0.068872	-0.750914	0.500224
H180	H	0.318872	-0.500914	0.750224
C181	C	-0.247338	-1.186172	0.173073
C182	C	0.002662	-0.936172	0.423073
C183	C	0.252662	-0.686172	0.673073
C184	C	0.502662	-0.436172	0.923073
H185	H	-0.156994	-1.187585	0.172534
H186	H	0.093006	-0.937585	0.422534
H187	H	0.343006	-0.687585	0.672534
H188	H	0.593006	-0.437585	0.922534
H189	H	-0.288095	-1.247694	0.173317
H190	H	-0.038095	-0.997694	0.423317
H191	H	0.211905	-0.747694	0.673317
H192	H	0.461905	-0.497694	0.923317
H193	H	-0.271547	-1.154658	0.230272
H194	H	-0.021547	-0.904658	0.480272
H195	H	0.228453	-0.654658	0.730272
H196	H	0.478453	-0.404658	0.980272
