data_functionalizedCrystal
_audit_creation_method	'MofGen! by Chris Wilmer'
_symmetry_space_group_name_H-M	'P1'
_symmetry_Int_Tables_number	1
_symmetry_cell_setting	triclinic
loop_
_symmetry_equiv_pos_as_xyz
  x,y,z
_cell_length_a	12.759401
_cell_length_b	16.120444
_cell_length_c	12.759393
_cell_angle_alpha	92.863363
_cell_angle_beta	89.982620
_cell_angle_gamma	92.926596
loop_
_atom_site_label
_atom_site_type_symbol
_atom_site_fract_x
_atom_site_fract_y
_atom_site_fract_z
Zn1	Zn	1.584952	-0.331853	-0.615151
Zn2	Zn	2.084952	0.168147	-0.115151
Zn3	Zn	1.575904	-0.471291	-0.448366
Zn4	Zn	2.075904	0.028709	0.051634
Zn5	Zn	1.409255	-0.331897	-0.439493
Zn6	Zn	1.909255	0.168103	0.060507
Zn7	Zn	1.400301	-0.471227	-0.624004
Zn8	Zn	1.900301	0.028773	-0.124004
O9	O	1.492603	-0.401567	-0.531754
O10	O	1.992603	0.098433	-0.031754
O11	O	1.730772	-0.350358	-0.593035
O12	O	2.230772	0.149642	-0.093035
O13	O	1.553758	-0.452846	-0.300171
O14	O	2.053758	0.047154	0.199829
O15	O	1.440096	-0.215225	-0.455376
O16	O	1.940096	0.284775	0.044624
O17	O	1.724125	-0.452803	-0.470499
O18	O	2.224125	0.047197	0.029501
O19	O	1.569180	-0.215193	-0.584431
O20	O	2.069180	0.284807	-0.084431
O21	O	1.431322	-0.350433	-0.293652
O22	O	1.931322	0.149567	0.206348
O23	O	1.261047	-0.350371	-0.463960
O24	O	1.761047	0.149629	0.036040
O25	O	1.424835	-0.452693	-0.769848
O26	O	1.924835	0.047307	-0.269848
O27	O	1.254468	-0.452736	-0.599519
O28	O	1.754468	0.047264	-0.099519
O29	O	1.560497	-0.350295	-0.763344
O30	O	2.060497	0.149705	-0.263344
O31	O	1.545075	-0.587948	-0.479083
O32	O	2.045075	-0.087948	0.020917
O33	O	1.416061	-0.587901	-0.608123
O34	O	1.916061	-0.087901	-0.108123
C35	C	1.219637	-0.401552	-0.531738
C36	C	1.719637	0.098448	-0.031738
C37	C	1.102859	-0.401565	-0.531758
C38	C	1.602859	0.098435	-0.031758
C39	C	1.478643	-0.618175	-0.545550
C40	C	1.978643	-0.118175	-0.045550
C41	C	1.472767	-0.710841	-0.551487
C42	C	1.972767	-0.210841	-0.051487
C43	C	1.044594	-0.454952	-0.602238
C44	C	1.544594	0.045048	-0.102238
C45	C	0.934869	-0.454962	-0.602250
C46	C	1.434869	0.045038	-0.102250
C47	C	0.941685	-0.348197	-0.461293
C48	C	1.441685	0.151803	0.038707
C49	C	1.051408	-0.348183	-0.461287
C50	C	1.551408	0.151817	0.038713
C51	C	1.040657	-0.516595	-0.683615
C52	C	1.540657	-0.016595	-0.183615
C53	C	0.930933	-0.516605	-0.683627
C54	C	1.430933	-0.016605	-0.183627
C55	C	1.523342	-0.921786	-0.501180
C56	C	2.023342	-0.421786	-0.001180
C57	C	1.462058	-0.880497	-0.562338
C58	C	1.962058	-0.380497	-0.062338
C59	C	1.468019	-0.786091	-0.556298
C60	C	1.968019	-0.286091	-0.056298
C61	C	1.517383	-1.016200	-0.507218
C62	C	2.017383	-0.516200	-0.007218
C63	C	1.766635	-0.401583	-0.531770
C64	C	2.266635	0.098417	-0.031770
C65	C	1.883411	-0.401590	-0.531776
C66	C	2.383411	0.098410	-0.031776
C67	C	1.492677	-0.401482	-0.805782
C68	C	1.992677	0.098518	-0.305782
C69	C	1.492708	-0.401446	-0.922556
C70	C	1.992708	0.098554	-0.422556
C71	C	1.506646	-0.184113	-0.517927
C72	C	2.006646	0.315887	-0.017927
C73	C	1.512630	-0.091447	-0.512034
C74	C	2.012630	0.408553	-0.012034
C75	C	1.428985	-0.348110	-0.974029
C76	C	1.928985	0.151890	-0.474029
C77	C	1.429018	-0.348085	-1.083752
C78	C	1.929018	0.151915	-0.583752
C79	C	1.556507	-0.454735	-1.090519
C80	C	2.056507	0.045265	-0.590519
C81	C	1.556467	-0.454763	-0.980798
C82	C	2.056467	0.045237	-0.480798
C83	C	1.355383	-0.286534	-0.970123
C84	C	1.855383	0.213466	-0.470123
C85	C	1.355416	-0.286509	-1.079845
C86	C	1.855416	0.213491	-0.579845
C87	C	1.492594	-0.401591	-0.258788
C88	C	1.992594	0.098409	0.241212
C89	C	1.492781	-0.401393	-0.141999
C90	C	1.992781	0.098607	0.358001
H91	H	1.098844	-0.304705	-0.403902
H92	H	1.598844	0.195295	0.096098
F93	F	1.387627	-0.926963	-0.636700
F94	F	1.887627	-0.426963	-0.136700
H95	H	1.580280	-0.886238	-0.444290
H96	H	2.080280	-0.386238	0.055710
F97	F	1.624279	-0.511539	-0.926021
F98	F	2.124279	-0.011539	-0.426021
H99	H	0.899780	-0.304734	-0.403919
H100	H	1.399780	0.195266	0.096081
H101	H	1.071569	-0.499375	-0.763924
H102	H	1.571569	0.000625	-0.263924
F103	F	1.398645	-0.206382	-0.920543
F104	F	1.898645	0.293618	-0.420543
F105	F	0.886570	-0.600973	-0.660315
F106	F	1.386570	-0.100973	-0.160315
H107	H	1.070739	-0.577897	-0.658241
H108	H	1.570739	-0.077897	-0.158241
H109	H	1.608419	-0.498143	-1.137953
H110	H	2.108419	0.001857	-0.637953
H111	H	1.272884	-0.303824	-0.941448
H112	H	1.772884	0.196176	-0.441448
F113	F	0.888420	-0.486481	-0.782807
F114	F	1.388420	0.013519	-0.282807
H115	H	1.276636	-0.309621	-1.115346
H116	H	1.776636	0.190379	-0.615346
F117	F	1.389232	-0.202077	-1.113412
F118	F	1.889232	0.297923	-0.613412
