data_functionalizedCrystal
_audit_creation_method	'MofGen! by Chris Wilmer'
_symmetry_space_group_name_H-M	'P1'
_symmetry_Int_Tables_number	1
_symmetry_cell_setting	triclinic
loop_
_symmetry_equiv_pos_as_xyz
  x,y,z
_cell_length_a	14.044220
_cell_length_b	16.109301
_cell_length_c	15.186229
_cell_angle_alpha	90.000638
_cell_angle_beta	89.995248
_cell_angle_gamma	91.674821
loop_
_atom_site_label
_atom_site_type_symbol
_atom_site_fract_x
_atom_site_fract_y
_atom_site_fract_z
O1	O	0.121835	-1.112195	-0.073175
O2	O	0.621835	-0.612195	0.426825
O3	O	0.136997	-0.871261	-0.073189
O4	O	0.636997	-0.371261	0.426811
O5	O	-0.008568	-0.988112	-0.073174
O6	O	0.491432	-0.488112	0.426826
O7	O	0.267399	-0.995345	-0.073191
O8	O	0.767399	-0.495345	0.426809
O9	O	-0.008570	-0.988103	0.073284
O10	O	0.491430	-0.488103	0.573284
O11	O	0.136995	-0.871253	0.073268
O12	O	0.636995	-0.371253	0.573268
O13	O	0.121832	-1.112187	0.073282
O14	O	0.621832	-0.612187	0.573282
Zn15	Zn	0.129413	-0.991718	0.096528
Zn16	Zn	0.629413	-0.491718	0.596528
Zn17	Zn	0.129416	-0.991730	-0.096435
Zn18	Zn	0.629416	-0.491730	0.403565
O19	O	0.267397	-0.995336	0.073267
O20	O	0.767397	-0.495336	0.573267
C21	C	0.136381	-0.840236	0.000038
C22	C	0.636381	-0.340236	0.500038
C23	C	0.134540	-0.747804	0.000033
C24	C	0.634540	-0.247804	0.500033
C25	C	-0.043882	-0.984941	0.000055
C26	C	0.456118	-0.484941	0.500055
C27	C	-0.149105	-0.975498	0.000056
C28	C	0.350895	-0.475498	0.500056
C29	C	0.122448	-1.143211	0.000053
C30	C	0.622448	-0.643211	0.500053
C31	C	0.124289	-1.235644	0.000053
C32	C	0.624289	-0.735644	0.500053
C33	C	-0.341761	-0.958232	0.000042
C34	C	0.158239	-0.458232	0.500042
C35	C	-0.399415	-1.025212	0.000043
C36	C	0.100585	-0.525212	0.500043
C37	C	-0.506616	-1.015605	0.000036
C38	C	-0.006616	-0.515605	0.500036
C39	C	-0.234551	-0.967838	0.000050
C40	C	0.265449	-0.467838	0.500050
C41	C	0.302711	-0.998506	0.000036
C42	C	0.802711	-0.498506	0.500036
C43	C	0.407934	-1.007950	0.000030
C44	C	0.907934	-0.507950	0.500030
N45	N	0.129411	-0.991716	0.228221
N46	N	0.629411	-0.491716	0.728221
C47	C	0.216634	-0.531640	0.000038
C48	C	0.716634	-0.031640	0.500038
C49	C	0.214896	-0.444790	0.000043
C50	C	0.714896	0.055210	0.500043
C51	C	0.042189	-0.451815	0.000050
C52	C	0.542189	0.048185	0.500050
C53	C	0.043927	-0.538663	0.000051
C54	C	0.543927	-0.038663	0.500051
C55	C	0.131153	-0.578573	0.000040
C56	C	0.631153	-0.078573	0.500040
C57	C	0.127677	-0.404875	0.000045
C58	C	0.627677	0.095125	0.500045
C59	C	0.125792	-0.310709	0.000052
C60	C	0.625792	0.189291	0.500052
C61	C	0.133038	-0.672745	0.000036
C62	C	0.633038	-0.172745	0.500036
N63	N	0.129411	-0.991737	-0.228128
N64	N	0.629411	-0.491737	0.271872
C65	C	0.064976	-1.043479	0.453951
C66	C	0.564976	-0.543479	0.953951
C67	C	0.064974	-1.043481	0.546141
C68	C	0.564974	-0.543481	1.046141
C69	C	0.193848	-0.939969	0.546136
C70	C	0.693848	-0.439969	1.046136
C71	C	0.193845	-0.939963	0.453948
C72	C	0.693845	-0.439963	0.953948
C73	C	0.129410	-0.991723	0.407858
C74	C	0.629410	-0.491723	0.907858
C75	C	0.129411	-0.991731	0.592235
C76	C	0.629411	-0.491731	1.092235
C77	C	0.129409	-0.991734	0.692192
C78	C	0.629409	-0.491734	1.192192
C79	C	0.129411	-0.991719	0.307895
C80	C	0.629411	-0.491719	0.807895
H81	H	-0.372911	-0.893680	0.000036
H82	H	0.127089	-0.393680	0.500036
N83	N	0.259656	-0.887094	0.406843
N84	N	0.759656	-0.387094	0.906843
N85	N	0.229558	-0.833259	0.355408
N86	N	0.729558	-0.333259	0.855408
H87	H	0.276031	-0.795920	0.322138
H88	H	0.776031	-0.295920	0.822138
N89	N	-0.360329	-1.106195	0.000053
N90	N	0.139671	-0.606195	0.500053
N91	N	-0.272037	-1.113987	0.000063
N92	N	0.227963	-0.613987	0.500063
H93	H	-0.244427	-1.171179	0.000073
H94	H	0.255573	-0.671179	0.500073
H95	H	0.287658	-0.564132	0.000035
H96	H	0.787658	-0.064132	0.500035
H97	H	-0.028827	-0.419309	0.000065
H98	H	0.471173	0.080691	0.500065
N99	N	-0.043404	-0.586597	0.000062
N100	N	0.456596	-0.086597	0.500062
N101	N	-0.121276	-0.550956	0.000068
N102	N	0.378724	-0.050956	0.500068
H103	H	-0.182951	-0.584809	0.000080
H104	H	0.317049	-0.084809	0.500080
H105	H	0.284504	-0.406580	0.000043
H106	H	0.784504	0.093420	0.500043
N107	N	-0.000858	-1.096331	0.593228
N108	N	0.499142	-0.596331	1.093228
N109	N	-0.059707	-1.065580	0.644664
N110	N	0.440293	-0.565580	1.144664
H111	H	-0.106212	-1.102902	0.677918
H112	H	0.393788	-0.602902	1.177918
N113	N	-0.000903	-1.096298	0.406884
N114	N	0.499097	-0.596298	0.906884
N115	N	-0.058467	-1.142467	0.448054
N116	N	0.441533	-0.642467	0.948054
H117	H	-0.105020	-1.179751	0.414816
H118	H	0.394980	-0.679751	0.914816
H119	H	0.246311	-0.897829	0.583672
H120	H	0.746311	-0.397829	1.083672
