data_functionalizedCrystal
_audit_creation_method	'MofGen! by Chris Wilmer'
_symmetry_space_group_name_H-M	'P1'
_symmetry_Int_Tables_number	1
_symmetry_cell_setting	triclinic
loop_
_symmetry_equiv_pos_as_xyz
  x,y,z
_cell_length_a	8.559649
_cell_length_b	11.792241
_cell_length_c	7.681481
_cell_angle_alpha	84.218353
_cell_angle_beta	94.913240
_cell_angle_gamma	76.986040
loop_
_atom_site_label
_atom_site_type_symbol
_atom_site_fract_x
_atom_site_fract_y
_atom_site_fract_z
O1	O	2.104794	-0.026424	-0.146400
O2	O	2.604794	0.473576	0.353600
O3	O	1.640097	0.032148	-0.146410
O4	O	2.140097	0.532148	0.353590
O5	O	1.883724	-0.163342	-0.146392
O6	O	2.383724	0.336658	0.353608
O7	O	1.861167	0.169066	-0.146418
O8	O	2.361167	0.669066	0.353582
O9	O	1.913710	-0.187452	0.146467
O10	O	2.413710	0.312548	0.646467
O11	O	1.670083	0.008038	0.146450
O12	O	2.170083	0.508038	0.646450
O13	O	2.134780	-0.050534	0.146460
O14	O	2.634780	0.449466	0.646460
Zn15	Zn	1.907192	-0.025076	0.192953
Zn16	Zn	2.407192	0.474924	0.692953
Zn17	Zn	1.867684	0.006690	-0.192903
Zn18	Zn	2.367684	0.506690	0.307097
O19	O	1.891153	0.144956	0.146442
O20	O	2.391153	0.644956	0.646442
C21	C	1.595598	0.024531	0.000018
C22	C	2.095598	0.524531	0.500018
C23	C	1.418332	0.037744	0.000015
C24	C	1.918332	0.537744	0.500015
C25	C	1.897300	-0.217558	0.000037
C26	C	2.397300	0.282442	0.500037
C27	C	1.893059	-0.343183	0.000035
C28	C	2.393059	0.156817	0.500035
C29	C	1.885259	-0.573179	0.000005
C30	C	2.385259	-0.073179	0.500005
C31	C	1.889593	-0.445192	0.000022
C32	C	2.389593	0.054808	0.500022
C33	C	2.179278	-0.042917	0.000027
C34	C	2.679278	0.457083	0.500027
C35	C	2.356543	-0.056128	0.000019
C36	C	2.856543	0.443872	0.500019
C37	C	1.877577	0.199172	0.000009
C38	C	2.377577	0.699172	0.500009
C39	C	1.881816	0.324799	-0.000001
C40	C	2.381816	0.824799	0.499999
N41	N	1.934167	-0.046757	0.456289
N42	N	2.434167	0.453243	0.956289
N43	N	1.840722	0.028361	-0.456239
N44	N	2.340722	0.528361	0.043761
H45	H	1.439256	-0.146604	0.000018
H46	H	1.939256	0.353396	0.500018
C47	C	1.351251	0.208114	0.150540
C48	C	1.851251	0.708114	0.650540
C49	C	1.306677	0.159898	-0.000001
C50	C	1.806677	0.659898	0.499999
H51	H	1.282324	0.283528	0.150519
H52	H	1.782324	0.783528	0.650519
H53	H	1.341925	0.158583	0.252649
H54	H	1.841925	0.658583	0.752649
H55	H	1.459730	0.214949	0.150527
H56	H	1.959730	0.714949	0.650527
H57	H	1.198201	0.153055	0.000018
H58	H	1.698201	0.653055	0.500018
H59	H	1.315988	0.209441	-0.102137
H60	H	1.815988	0.709441	0.397863
C61	C	1.743225	0.237525	0.486665
C62	C	2.243225	0.737525	0.986665
C63	C	1.711943	0.131869	0.442248
C64	C	2.211943	0.631869	0.942248
H65	H	1.663725	0.301426	0.423977
H66	H	2.163725	0.801426	0.923977
H67	H	1.740295	0.239876	0.609600
H68	H	2.240295	0.739876	1.109600
H69	H	1.846865	0.242933	0.456511
H70	H	2.346865	0.742933	0.956511
H71	H	1.608308	0.126457	0.472414
H72	H	2.108308	0.626457	0.972414
H73	H	1.714857	0.129517	0.319286
H74	H	2.214857	0.629517	0.819286
H75	H	2.029573	-0.123429	0.531502
H76	H	2.529573	0.376571	1.031502
