data_functionalizedCrystal
_audit_creation_method	'MofGen! by Chris Wilmer'
_symmetry_space_group_name_H-M	'P1'
_symmetry_Int_Tables_number	1
_symmetry_cell_setting	triclinic
loop_
_symmetry_equiv_pos_as_xyz
  x,y,z
_cell_length_a	12.759401
_cell_length_b	18.050589
_cell_length_c	18.050591
_cell_angle_alpha	90.018270
_cell_angle_beta	90.002767
_cell_angle_gamma	90.027265
loop_
_atom_site_label
_atom_site_type_symbol
_atom_site_fract_x
_atom_site_fract_y
_atom_site_fract_z
Zn1	Zn	1.605993	-0.295725	0.419873
Zn2	Zn	1.605894	-0.419909	0.295692
Zn3	Zn	1.430343	-0.295735	0.295704
Zn4	Zn	1.430242	-0.419876	0.419848
O5	O	1.518118	-0.357811	0.357779
O6	O	1.753001	-0.312208	0.403406
O7	O	1.582608	-0.403454	0.191769
O8	O	1.453727	-0.191809	0.312190
O9	O	1.752928	-0.403445	0.312171
O10	O	1.582776	-0.191802	0.403417
O11	O	1.453632	-0.312225	0.191778
O12	O	1.283309	-0.312193	0.312166
O13	O	1.453555	-0.403389	0.523776
O14	O	1.283234	-0.403399	0.403374
O15	O	1.582678	-0.312176	0.523794
O16	O	1.582510	-0.523829	0.312146
O17	O	1.453459	-0.523805	0.403363
C18	C	1.245151	-0.357794	0.357769
C19	C	1.128374	-0.357804	0.357782
C20	C	1.073543	-0.310387	0.405362
C21	C	0.963819	-0.310401	0.405366
C22	C	0.963767	-0.405256	0.310210
C23	C	1.073489	-0.405238	0.310202
C24	C	1.128428	-0.262953	0.452942
C25	C	1.073596	-0.215532	0.500526
C26	C	0.963872	-0.215546	0.500531
C27	C	0.908980	-0.262981	0.452951
C28	C	1.517991	-0.550763	0.357767
C29	C	1.518033	-0.633309	0.357786
C30	C	1.447924	-0.832774	0.407372
C31	C	1.422336	-0.882207	0.339606
C32	C	1.518136	-0.784439	0.357796
C33	C	1.543776	-0.882087	0.425570
C34	C	1.518234	-0.930424	0.357811
C35	C	1.492498	-0.832786	0.289994
C36	C	1.613982	-0.832662	0.376004
C37	C	1.588431	-0.882073	0.308191
C38	C	1.518077	-0.700341	0.357788
C39	C	1.518293	-1.014521	0.357812
C40	C	1.792151	-0.357829	0.357790
C41	C	1.908928	-0.357837	0.357795
C42	C	1.518116	-0.357778	0.551485
C43	C	1.518115	-0.357764	0.634031
C44	C	1.518274	-0.164105	0.357808
C45	C	1.518340	-0.081560	0.357820
C46	C	1.588353	-0.308186	0.833491
C47	C	1.492519	-0.290020	0.882888
C48	C	1.518119	-0.357787	0.785161
C49	C	1.613956	-0.375941	0.882845
C50	C	1.518132	-0.357808	0.931146
C51	C	1.422235	-0.339586	0.833471
C52	C	1.543736	-0.425538	0.833423
C53	C	1.447836	-0.407398	0.882798
C54	C	1.518114	-0.357773	0.701063
C55	C	1.518127	-0.357822	1.015242
C56	C	1.518118	-0.357850	1.164827
C57	C	1.518135	-0.357834	1.082281
H58	H	0.919065	-0.443877	0.271474
H59	H	1.470851	-0.232734	0.904616
C60	C	1.721920	-0.396512	0.911867
C61	C	1.714583	-0.461099	0.954490
C62	C	1.814016	-0.480058	0.981242
H63	H	1.767975	-0.404792	0.871361
H64	H	1.748286	-0.357281	0.941621
H65	H	1.688231	-0.500321	0.924737
H66	H	1.668547	-0.452836	0.995006
H67	H	1.840382	-0.440827	1.010996
H68	H	1.860063	-0.488335	0.940732
H69	H	1.809050	-0.523878	1.010170
H70	H	1.217771	-0.262936	0.452943
H71	H	1.565423	-0.903743	0.482880
H72	H	1.388379	-0.449354	0.904312
H73	H	1.647665	-0.266198	0.811839
C74	C	1.314227	-0.319009	0.804535
C75	C	1.315500	-0.319190	0.726974
C76	C	1.216031	-0.300227	0.700291
H77	H	1.264214	-0.354001	0.821733
H78	H	1.295911	-0.271020	0.821842
H79	H	1.333804	-0.367173	0.709674
H80	H	1.365492	-0.284198	0.709756
H81	H	1.197714	-0.252237	0.717598
H82	H	1.166025	-0.335221	0.717494
H83	H	1.216883	-0.300341	0.647664
C84	C	1.572521	-0.501967	0.804528
C85	C	1.499885	-0.553943	0.830612
C86	C	1.526389	-0.624358	0.804016
H87	H	1.571654	-0.501615	0.751909
H88	H	1.640640	-0.514833	0.821426
H89	H	1.431784	-0.541081	0.813711
H90	H	1.500742	-0.554319	0.883228
H91	H	1.594508	-0.637224	0.820914
H92	H	1.525521	-0.623998	0.751398
H93	H	1.477116	-0.659633	0.821716
C94	C	1.314406	-0.911375	0.319050
C95	C	1.316156	-0.988931	0.318662
C96	C	1.216752	-1.015823	0.299726
H97	H	1.264472	-0.894580	0.354278
H98	H	1.295732	-0.893812	0.271230
H99	H	1.334817	-1.006487	0.366475
H100	H	1.366069	-1.005746	0.283433
H101	H	1.198077	-0.998259	0.251905
H102	H	1.166826	-0.999022	0.334956
H103	H	1.217928	-1.068446	0.299453
C104	C	1.132976	-0.456847	0.258641
C105	C	1.106291	-0.530354	0.274702
C106	C	1.161082	-0.577916	0.227225
H107	H	1.115038	-0.446013	0.208735
H108	H	1.206192	-0.450089	0.265459
H109	H	1.033091	-0.537109	0.267878
H110	H	1.124232	-0.541212	0.324600
H111	H	1.234298	-0.571158	0.234042
H112	H	1.143139	-0.567075	0.177321
H113	H	1.142991	-0.627796	0.238119
C114	C	1.133378	-0.164113	0.552151
C115	C	1.241205	-0.174261	0.541979
C116	C	1.296305	-0.126912	0.589530
H117	H	1.115542	-0.114171	0.541417
H118	H	1.115459	-0.175062	0.602047
H119	H	1.259116	-0.163307	0.492094
H120	H	1.259072	-0.224193	0.552719
H121	H	1.278386	-0.137862	0.639427
H122	H	1.278460	-0.076974	0.578792
H123	H	1.369471	-0.133796	0.582640
C124	C	1.368476	-0.803942	0.463098
C125	C	1.268319	-0.829036	0.443692
C126	C	1.195103	-0.802483	0.494999
H127	H	1.385847	-0.821531	0.511145
H128	H	1.369370	-0.751313	0.463010
H129	H	1.267428	-0.881655	0.443789
H130	H	1.250916	-0.811449	0.395654
H131	H	1.195996	-0.749853	0.494911
H132	H	1.212483	-0.820073	0.543043
H133	H	1.127137	-0.819499	0.481836
H134	H	1.470758	-0.811219	0.232669
C135	C	0.904529	-0.164034	0.552270
C136	C	0.976084	-0.122505	0.593946
C137	C	0.921458	-0.075052	0.641627
H138	H	0.861729	-0.131574	0.524004
H139	H	0.861744	-0.192479	0.584620
H140	H	1.018851	-0.094061	0.561600
H141	H	1.018886	-0.154945	0.622226
H142	H	0.878673	-0.103498	0.673977
H143	H	0.878660	-0.042598	0.613356
H144	H	0.969999	-0.046875	0.669915
C145	C	0.789849	-0.262915	0.453091
C146	C	0.753575	-0.211246	0.504954
C147	C	0.643841	-0.211174	0.505115
H148	H	0.764891	-0.249984	0.405235
H149	H	0.764976	-0.310849	0.465891
H150	H	0.778437	-0.163323	0.492151
H151	H	0.778504	-0.224165	0.552819
H152	H	0.618968	-0.259108	0.517914
H153	H	0.618893	-0.198245	0.457256
H154	H	0.619215	-0.176123	0.540308
H155	H	1.647849	-0.903583	0.266224
C156	C	1.721934	-0.803657	0.396712
C157	C	1.748324	-0.828576	0.467748
C158	C	1.847755	-0.801862	0.486862
H159	H	1.772128	-0.821253	0.362064
H160	H	1.721282	-0.751029	0.396151
H161	H	1.748985	-0.881193	0.468303
H162	H	1.698157	-0.810982	0.502412
H163	H	1.847102	-0.749234	0.486301
H164	H	1.897940	-0.819460	0.452210
H165	H	1.865669	-0.818760	0.535064
