data_functionalizedCrystal
_audit_creation_method	'MofGen! by Chris Wilmer'
_symmetry_space_group_name_H-M	'P1'
_symmetry_Int_Tables_number	1
_symmetry_cell_setting	triclinic
loop_
_symmetry_equiv_pos_as_xyz
  x,y,z
_cell_length_a	11.792241
_cell_length_b	10.654541
_cell_length_c	9.130307
_cell_angle_alpha	90.003083
_cell_angle_beta	89.997319
_cell_angle_gamma	84.338672
loop_
_atom_site_label
_atom_site_type_symbol
_atom_site_fract_x
_atom_site_fract_y
_atom_site_fract_z
O1	O	-1.507300	-0.172134	-0.121656
O2	O	-1.177000	-0.189874	-0.121691
O3	O	-1.349746	0.001757	-0.121664
O4	O	-1.334555	-0.363765	-0.121683
O5	O	-1.349740	0.001759	0.121935
O6	O	-1.176994	-0.189872	0.121908
O7	O	-1.507295	-0.172132	0.121943
Cu8	Cu	-1.342144	-0.181002	0.144168
Cu9	Cu	-1.342151	-0.181004	-0.143916
O10	O	-1.334549	-0.363763	0.121916
C11	C	-1.134704	-0.188759	0.000105
C12	C	-1.008682	-0.185423	0.000092
C13	C	-1.348628	0.048553	0.000135
C14	C	-1.345293	0.187987	0.000132
C15	C	-1.549591	-0.173247	0.000144
C16	C	-1.675612	-0.176582	0.000147
C17	C	-0.777956	-0.179290	0.000134
C18	C	-0.906349	-0.182698	0.000111
C19	C	-1.335667	-0.410559	0.000114
C20	C	-1.339002	-0.549993	0.000107
N21	N	-1.342148	-0.180999	0.346791
C22	C	-1.551857	0.216542	0.000172
C23	C	-1.653568	0.296324	0.000195
C24	C	-1.650427	0.427333	0.000190
C25	C	-1.545564	0.478562	0.000158
C26	C	-1.443854	0.398780	0.000135
C27	C	-1.447006	0.267770	0.000144
C28	C	-1.237292	0.370225	0.000085
C29	C	-1.240430	0.239216	0.000100
C30	C	-1.132429	0.421454	0.000053
C31	C	-1.030716	0.341672	0.000040
C32	C	-1.033861	0.210655	0.000047
C33	C	-1.138720	0.159434	0.000077
N34	N	-1.342156	-0.180996	-0.346539
C35	C	-1.495177	-0.011360	0.346805
C36	C	-1.571699	0.073457	0.423478
C37	C	-1.571711	0.073458	0.576812
C38	C	-1.495189	-0.011365	0.653475
C39	C	-1.418667	-0.096181	0.576801
C40	C	-1.418666	-0.096175	0.423464
C41	C	-1.265634	-0.265813	0.576788
C42	C	-1.265626	-0.265822	0.423454
C43	C	-1.189113	-0.350635	0.653451
C44	C	-1.112594	-0.435459	0.576777
C45	C	-1.112587	-0.435457	0.423435
C46	C	-1.189104	-0.350638	0.346781
H47	H	-1.554425	0.109869	0.000196
H48	H	-1.738945	0.254599	0.000233
C49	C	-1.854931	0.442415	0.000243
C50	C	-1.762226	0.515037	0.000216
H51	H	-1.923949	0.496563	0.000267
H52	H	-1.851874	0.390723	-0.084700
H53	H	-1.851849	0.390723	0.085197
H54	H	-1.765304	0.566723	-0.084745
H55	H	-1.765285	0.566752	0.085167
C56	C	-1.639741	0.148680	0.188429
C57	C	-1.655873	0.166620	0.339207
H58	H	-1.691729	0.206173	0.136412
H59	H	-1.563922	0.162968	0.163267
H60	H	-1.652651	0.064735	0.163352
H61	H	-1.642955	0.250564	0.364286
H62	H	-1.731710	0.152342	0.364380
C63	C	-1.071715	0.601343	-0.125206
C64	C	-1.128976	0.565461	0.000039
H65	H	-1.069590	0.690249	-0.125214
H66	H	-0.996142	0.561167	-0.125214
H67	H	-1.110594	0.576965	-0.210132
H68	H	-1.090093	0.589831	0.084965
H69	H	-1.204563	0.605652	0.000060
H70	H	-1.495194	-0.011348	0.778327
H71	H	-1.543016	0.585238	0.000136
H72	H	-0.945345	0.383393	0.000005
C73	C	-0.829361	0.195601	-0.000007
C74	C	-0.922055	0.122962	0.000022
H75	H	-0.760337	0.141464	-0.000014
H76	H	-0.832445	0.247282	-0.084953
H77	H	-0.832430	0.247304	0.084944
H78	H	-0.918991	0.071265	-0.084935
H79	H	-0.918970	0.071260	0.084977
C80	C	-1.086988	-0.036004	0.125303
C81	C	-1.142183	0.015428	0.000090
H82	H	-1.089137	-0.124906	0.125310
H83	H	-1.009991	-0.016923	0.125267
H84	H	-1.124418	-0.001075	0.210250
H85	H	-1.104747	-0.019494	-0.084858
H86	H	-1.219194	-0.003664	0.000112
H87	H	-1.495185	-0.011362	0.221952
H88	H	-1.634017	0.142527	0.639239
C89	C	-0.916683	-0.507710	0.623989
C90	C	-1.028485	-0.528679	0.661051
H91	H	-0.864759	-0.565256	0.676030
H92	H	-0.905736	-0.519866	0.521711
H93	H	-0.903728	-0.423788	0.649118
H94	H	-1.041443	-0.612598	0.635912
H95	H	-1.039438	-0.516533	0.763352
C96	C	-1.047613	-0.652376	0.376215
C97	C	-1.028472	-0.528694	0.339158
H98	H	-0.995687	-0.709935	0.324182
H99	H	-1.036663	-0.664500	0.478495
H100	H	-1.123467	-0.666575	0.351076
H101	H	-0.952620	-0.514492	0.364307
H102	H	-1.039413	-0.516564	0.236855
H103	H	-1.189120	-0.350625	0.778303
C104	C	-1.081964	-0.324490	0.127135
C105	C	-1.189095	-0.350639	0.178234
H106	H	-1.081960	-0.324495	0.023080
H107	H	-1.065828	-0.244107	0.161827
H108	H	-1.025451	-0.387149	0.161825
H109	H	-1.245608	-0.287973	0.143553
H110	H	-1.205245	-0.431032	0.143527
