data_functionalizedCrystal
_audit_creation_method	'MofGen! by Chris Wilmer'
_symmetry_space_group_name_H-M	'P1'
_symmetry_Int_Tables_number	1
_symmetry_cell_setting	triclinic
loop_
_symmetry_equiv_pos_as_xyz
  x,y,z
_cell_length_a	15.944493
_cell_length_b	19.188924
_cell_length_c	15.021413
_cell_angle_alpha	90.001940
_cell_angle_beta	89.993251
_cell_angle_gamma	83.308504
loop_
_atom_site_label
_atom_site_type_symbol
_atom_site_fract_x
_atom_site_fract_y
_atom_site_fract_z
O1	O	1.114220	0.089846	-0.074024
O2	O	0.869622	0.100990	-0.074029
O3	O	0.998983	-0.006221	-0.074016
O4	O	0.984860	0.197057	-0.074037
O5	O	0.998962	-0.006205	0.074048
O6	O	0.869601	0.101006	0.074035
O7	O	1.114200	0.089861	0.074040
Zn8	Zn	0.991897	0.095436	0.097546
Zn9	Zn	0.991924	0.095416	-0.097535
O10	O	0.984839	0.197073	0.074027
C11	C	0.838319	0.100543	0.000002
C12	C	0.745075	0.099177	0.000001
C13	C	0.509077	0.162284	-0.000006
C14	C	0.458637	0.128260	0.073004
C15	C	0.574364	0.096647	0.000003
C16	C	0.458662	0.128230	-0.072975
C17	C	0.409463	0.094207	0.000001
C18	C	0.525152	0.062641	0.073074
C19	C	0.525180	0.062620	-0.072971
C20	C	0.474773	0.028548	0.000057
C21	C	0.669358	0.098054	0.000005
C22	C	0.314472	0.092795	0.000005
C23	C	0.998516	-0.032225	0.000017
C24	C	0.997146	-0.109733	0.000019
C25	C	0.996518	-0.146142	-0.080691
C26	C	0.995219	-0.218968	-0.080698
C27	C	0.994565	-0.255384	0.000010
C28	C	0.995188	-0.218966	0.080731
C29	C	0.996479	-0.146141	0.080735
N30	N	1.040330	-0.374931	0.060080
N31	N	1.039106	-0.444112	0.060070
C32	C	0.990674	-0.474803	0.000001
N33	N	0.943523	-0.433700	-0.060071
N34	N	0.944751	-0.364512	-0.060064
C35	C	0.993164	-0.334351	0.000014
C36	C	0.988636	-0.590177	-0.080721
C37	C	0.987331	-0.663004	-0.080725
C38	C	0.987309	-0.663001	0.080706
C39	C	0.988605	-0.590175	0.080707
C40	C	0.989272	-0.553768	-0.000009
C41	C	1.145503	0.090309	0.000006
C42	C	1.238747	0.091675	0.000002
C43	C	0.985306	0.223077	-0.000008
C44	C	0.986676	0.300585	-0.000016
N45	N	0.991885	0.095449	0.230683
N46	N	0.991944	0.095397	-0.230673
C47	C	0.932059	0.145000	0.470361
C48	C	1.007911	0.158542	0.529695
C49	C	0.991907	0.095432	0.412290
C50	C	0.916076	0.081906	0.529698
C51	C	0.991921	0.095417	0.587714
C52	C	1.067796	0.109005	0.470318
C53	C	0.975911	0.032341	0.470316
C54	C	1.051817	0.045856	0.529623
C55	C	0.991897	0.095442	0.311233
C56	C	0.991939	0.095406	0.688770
H57	H	0.554075	0.034944	0.134860
C58	C	0.998447	-0.034505	0.152417
C59	C	0.997173	-0.106115	0.169458
H60	H	0.998872	-0.009795	0.207192
H61	H	1.047635	-0.027909	0.119263
H62	H	0.949689	-0.017244	0.119250
H63	H	1.045935	-0.123377	0.202619
H64	H	0.947981	-0.112715	0.202625
C65	C	0.922577	-0.233531	0.218313
C66	C	0.994468	-0.258991	0.169447
H67	H	0.922129	-0.258244	0.273082
H68	H	0.923441	-0.184954	0.229865
H69	H	0.873406	-0.240141	0.185136
H70	H	1.043640	-0.252377	0.202622
H71	H	0.993612	-0.307580	0.157899
H72	H	0.459520	-0.028034	0.000105
H73	H	0.986815	-0.692646	-0.146451
H74	H	0.986770	-0.692650	0.146420
H75	H	0.997059	-0.116503	-0.146416
C76	C	0.530700	0.059709	-0.232670
C77	C	0.564432	0.025228	-0.156290
H78	H	0.554940	0.036631	-0.284111
H79	H	0.471254	0.058920	-0.233565
H80	H	0.543044	0.106957	-0.232138
H81	H	0.552082	-0.022019	-0.156818
H82	H	0.623892	0.026009	-0.155395
H83	H	0.429587	0.155986	0.134723
C84	C	0.880780	0.267648	0.465195
C85	C	0.863810	0.201631	0.435219
H86	H	0.838651	0.302609	0.443493
H87	H	0.880646	0.268309	0.528421
H88	H	0.934550	0.276804	0.443987
H89	H	0.810043	0.192473	0.456432
H90	H	0.863935	0.200969	0.371980
C91	C	0.988471	-0.597492	0.240268
C92	C	0.989314	-0.550152	0.169427
H93	H	0.988914	-0.572783	0.295042
H94	H	0.938996	-0.620561	0.236914
H95	H	1.036941	-0.631233	0.236899
H96	H	0.940840	-0.516414	0.172793
H97	H	1.038794	-0.527072	0.172784
C98	C	1.171259	0.190384	0.466033
C99	C	1.154400	0.124545	0.435296
H100	H	1.224727	0.199980	0.444422
H101	H	1.128731	0.225381	0.445254
H102	H	1.171767	0.190435	0.529270
H103	H	1.153887	0.124495	0.372058
H104	H	1.196940	0.089539	0.456070
C105	C	0.332014	0.163415	-0.155825
C106	C	0.419477	0.165658	-0.156295
H107	H	0.307827	0.186530	-0.207257
H108	H	0.320543	0.115941	-0.155922
H109	H	0.308354	0.186264	-0.103980
H110	H	0.443137	0.142804	-0.208136
H111	H	0.430954	0.213141	-0.156206
C112	C	1.104121	-0.076622	0.533226
C113	C	1.120219	-0.010745	0.564536
H114	H	1.146354	-0.111561	0.554776
H115	H	1.050318	-0.086331	0.553674
H116	H	1.104787	-0.076654	0.469990
H117	H	1.119546	-0.010712	0.627772
H118	H	1.174035	-0.001034	0.544092
C119	C	0.995337	-0.211659	-0.240265
C120	C	0.994496	-0.258996	-0.169420
H121	H	0.994885	-0.236370	-0.295037
H122	H	0.946880	-0.177916	-0.236890
H123	H	1.044825	-0.188596	-0.236920
H124	H	0.945004	-0.282056	-0.172762
H125	H	1.042957	-0.292752	-0.172796
H126	H	0.989174	-0.560532	-0.146445
C127	C	1.026755	0.229571	0.658125
C128	C	1.026189	0.230556	0.564918
H129	H	1.038039	0.274029	0.679866
H130	H	0.973296	0.219627	0.679319
H131	H	1.069326	0.194394	0.678399
H132	H	0.983614	0.265729	0.544644
H133	H	1.079656	0.240508	0.543716
H134	H	0.962345	-0.020989	0.444213
C135	C	0.775835	0.057565	0.493046
C136	C	0.829500	0.066459	0.564905
H137	H	0.722388	0.048028	0.514782
H138	H	0.769014	0.099182	0.458275
H139	H	0.799705	0.019445	0.457356
H140	H	0.805633	0.104583	0.600592
H141	H	0.836319	0.024837	0.599691
C142	C	0.496131	0.272828	0.076625
C143	C	0.529900	0.238604	0.000080
H144	H	0.508993	0.319942	0.076682
H145	H	0.436614	0.272471	0.077151
H146	H	0.519898	0.249286	0.127956
H147	H	0.506129	0.262143	-0.051251
H148	H	0.589428	0.238965	-0.000454
