data_functionalizedCrystal
_audit_creation_method	'MofGen! by Chris Wilmer'
_symmetry_space_group_name_H-M	'P1'
_symmetry_Int_Tables_number	1
_symmetry_cell_setting	triclinic
loop_
_symmetry_equiv_pos_as_xyz
  x,y,z
_cell_length_a	15.298852
_cell_length_b	16.120566
_cell_length_c	15.296720
_cell_angle_alpha	82.717833
_cell_angle_beta	91.595671
_cell_angle_gamma	103.014412
loop_
_atom_site_label
_atom_site_type_symbol
_atom_site_fract_x
_atom_site_fract_y
_atom_site_fract_z
Zn1	Zn	-0.514357	-1.278272	-0.491267
Zn2	Zn	-0.638434	-1.325199	-0.321540
Zn3	Zn	-0.481518	-1.157885	-0.339505
Zn4	Zn	-0.653756	-1.165988	-0.460958
O5	O	-0.572016	-1.231836	-0.403317
O6	O	-0.538147	-1.401510	-0.473918
O7	O	-0.597463	-1.319253	-0.202063
O8	O	-0.361866	-1.150825	-0.379839
O9	O	-0.629306	-1.435987	-0.349220
O10	O	-0.385993	-1.239273	-0.491338
O11	O	-0.482177	-1.196328	-0.215262
O12	O	-0.497035	-1.041947	-0.350450
O13	O	-0.655420	-1.164634	-0.586839
O14	O	-0.623577	-1.047900	-0.439682
O15	O	-0.553005	-1.247129	-0.609107
O16	O	-0.764475	-1.327109	-0.319831
O17	O	-0.775732	-1.210137	-0.422261
C18	C	-0.558406	-1.014584	-0.393727
C19	C	-0.552608	-0.921644	-0.389641
C20	C	-0.802262	-1.274615	-0.365828
C21	C	-0.900772	-1.292989	-0.349822
C22	C	-1.201983	-1.101053	-0.517821
C23	C	-1.109429	-1.083792	-0.532865
C24	C	-1.057260	-1.136089	-0.487105
C25	C	-1.097654	-1.205652	-0.426299
C26	C	-1.190218	-1.222919	-0.411258
C27	C	-1.045496	-1.257955	-0.380543
C28	C	-1.085890	-1.327518	-0.319737
C29	C	-1.178444	-1.344781	-0.304699
C30	C	-1.230613	-1.292484	-0.350458
C31	C	-0.952932	-1.240687	-0.395584
C32	C	-0.941167	-1.362553	-0.289022
C33	C	-1.033721	-1.379815	-0.273977
C34	C	-0.542003	-0.751476	-0.382193
C35	C	-0.602107	-0.713050	-0.424437
C36	C	-0.596206	-0.618363	-0.420292
C37	C	-0.547903	-0.846172	-0.386336
C38	C	-0.340876	-1.188910	-0.440974
C39	C	-0.242378	-1.170618	-0.457020
C40	C	-0.609585	-1.201551	-0.630453
C41	C	-0.625595	-1.188645	-0.727245
C42	C	-0.585681	-0.449939	-0.412931
C43	C	-0.591505	-0.542888	-0.416990
C44	C	-0.457440	-1.324077	-1.046458
C45	C	-0.442401	-1.336208	-0.955517
C46	C	-0.488197	-1.299318	-0.898445
C47	C	-0.549037	-1.250296	-0.932322
C48	C	-0.564084	-1.238169	-1.023271
C49	C	-0.594841	-1.213410	-0.875258
C50	C	-0.655681	-1.164388	-0.909134
C51	C	-0.670724	-1.152263	-1.000075
C52	C	-0.624928	-1.189153	-1.057147
C53	C	-0.579794	-1.225537	-0.784309
C54	C	-0.686438	-1.139629	-0.761121
C55	C	-0.701478	-1.127498	-0.852062
C56	C	-0.534533	-1.262040	-0.177078
C57	C	-0.518284	-1.275061	-0.080335
H58	H	-0.920051	-1.184049	-0.445093
F59	F	-0.675152	-0.762994	-0.475784
F60	F	-0.468959	-0.701531	-0.330855
F61	F	-0.408715	-1.363340	-1.107201
F62	F	-0.958770	-1.117768	-0.503184
H63	H	-0.637170	-1.179278	-1.131200
H64	H	-0.720272	-1.112353	-1.027653
F65	F	-0.515046	-1.277709	-0.748265
H66	H	-0.475948	-1.309199	-0.824398
F67	F	-0.377653	-1.388380	-0.919469
F68	F	-1.076723	-1.453849	-0.209267
F69	F	-0.766228	-1.075327	-0.888127
F70	F	-0.735186	-1.100370	-0.700384
H71	H	-0.898692	-1.405140	-0.251762
H72	H	-1.244467	-1.058484	-0.555076
F73	F	-1.066446	-1.009763	-0.597579
H74	H	-1.305977	-1.306530	-0.338207
F75	F	-1.221434	-1.418825	-0.239993
