data_functionalizedCrystal
_audit_creation_method	'MofGen! by Chris Wilmer'
_symmetry_space_group_name_H-M	'P1'
_symmetry_Int_Tables_number	1
_symmetry_cell_setting	triclinic
loop_
_symmetry_equiv_pos_as_xyz
  x,y,z
_cell_length_a	23.532355
_cell_length_b	10.489716
_cell_length_c	22.610064
_cell_angle_alpha	89.999703
_cell_angle_beta	89.990547
_cell_angle_gamma	83.678317
loop_
_atom_site_label
_atom_site_type_symbol
_atom_site_fract_x
_atom_site_fract_y
_atom_site_fract_z
O1	O	0.756306	0.154509	-0.049099
O2	O	1.256306	0.654509	0.450901
O3	O	0.590586	0.176980	-0.049117
O4	O	1.090586	0.676980	0.450883
O5	O	0.677224	-0.019983	-0.049110
O6	O	1.177224	0.480017	0.450890
O7	O	0.669668	0.351472	-0.049106
O8	O	1.169668	0.851472	0.450894
O9	O	0.677198	-0.019983	0.049259
O10	O	1.177198	0.480017	0.549259
O11	O	0.590560	0.176980	0.049252
O12	O	1.090560	0.676980	0.549252
O13	O	0.756280	0.154509	0.049270
O14	O	1.256280	0.654509	0.549270
Zn15	Zn	0.673416	0.165745	0.064879
Zn16	Zn	1.173416	0.665745	0.564879
Zn17	Zn	0.673450	0.165744	-0.064726
Zn18	Zn	1.173450	0.665744	0.435274
O19	O	0.669642	0.351472	0.049263
O20	O	1.169642	0.851472	0.549263
C21	C	0.569353	0.176419	0.000065
C22	C	1.069353	0.676419	0.500065
C23	C	0.506123	0.174730	0.000058
C24	C	1.006123	0.674730	0.500058
C25	C	0.676643	-0.067496	0.000073
C26	C	1.176643	0.432504	0.500073
C27	C	0.674945	-0.209069	0.000067
C28	C	1.174945	0.290931	0.500067
C29	C	0.728074	-0.308532	0.000078
C30	C	1.228074	0.191468	0.500078
C31	C	0.700012	-0.384947	-0.048424
C32	C	1.200012	0.115053	0.451576
C33	C	0.699974	-0.384911	0.048560
C34	C	1.199974	0.115089	0.548560
C35	C	0.646905	-0.283620	-0.048475
C36	C	1.146905	0.216380	0.451525
C37	C	0.646875	-0.283579	0.048552
C38	C	1.146875	0.216421	0.548552
C39	C	0.618774	-0.359944	0.000038
C40	C	1.118774	0.140056	0.500038
C41	C	0.114026	0.164119	0.053704
C42	C	0.614026	0.664119	0.553704
C43	C	0.054616	0.162512	0.053706
C44	C	0.554616	0.662512	0.553706
O45	O	0.023879	0.161638	0.099308
O46	O	0.523879	0.661638	0.599308
N47	N	0.024916	0.161715	0.000085
N48	N	0.524916	0.661715	0.500085
C49	C	0.054630	0.162512	-0.053542
C50	C	0.554630	0.662512	0.446458
O51	O	0.023913	0.161686	-0.099150
O52	O	0.523913	0.661686	0.400850
C53	C	0.114039	0.164110	-0.053543
C54	C	0.614039	0.664110	0.446457
C55	C	0.143735	0.164920	0.000081
C56	C	0.643735	0.664920	0.500081
C57	C	0.143722	0.164927	0.107324
C58	C	0.643722	0.664927	0.607324
C59	C	0.203127	0.166536	0.107321
C60	C	0.703127	0.666536	0.607321
C61	C	0.232837	0.167337	0.053699
C62	C	0.732837	0.667337	0.553699
C63	C	0.203141	0.166529	0.000079
C64	C	0.703141	0.666529	0.500079
C65	C	0.143753	0.164898	-0.107169
C66	C	0.643753	0.664898	0.392831
C67	C	0.203166	0.166495	-0.107166
C68	C	0.703166	0.666495	0.392834
C69	C	0.232862	0.167304	-0.053542
C70	C	0.732862	0.667304	0.446458
C71	C	0.292256	0.168938	-0.053546
C72	C	0.792256	0.668938	0.446454
N73	N	0.321956	0.169735	0.000074
N74	N	0.821956	0.669735	0.500074
C75	C	0.292246	0.168934	0.053697
C76	C	0.792246	0.668934	0.553697
C77	C	-0.070134	0.159155	-0.053534
C78	C	0.429866	0.659155	0.446466
C79	C	-0.129543	0.157567	-0.053533
C80	C	0.370457	0.657567	0.446467
C81	C	-0.129553	0.157564	0.053715
C82	C	0.370447	0.657564	0.553715
C83	C	-0.070143	0.159162	0.053713
C84	C	0.429857	0.659162	0.553713
C85	C	-0.040434	0.159952	0.000087
C86	C	0.459566	0.659952	0.500087
C87	C	0.417003	0.172314	0.053688
C88	C	0.917003	0.672314	0.553688
C89	C	0.476414	0.173929	0.053680
C90	C	0.976414	0.673929	0.553680
C91	C	0.476419	0.173925	-0.053567
C92	C	0.976419	0.673925	0.446433
C93	C	0.417013	0.172317	-0.053560
C94	C	0.917013	0.672317	0.446440
C95	C	0.387307	0.171508	0.000072
C96	C	0.887307	0.671508	0.500072
O97	O	0.323031	0.169808	-0.099125
O98	O	0.823031	0.669808	0.400875
O99	O	0.322972	0.169744	0.099298
O100	O	0.822972	0.669744	0.599298
C101	C	0.777513	0.155070	0.000087
C102	C	1.277513	0.655070	0.500087
C103	C	0.840743	0.156759	0.000090
C104	C	1.340743	0.656759	0.500090
C105	C	0.670223	0.398985	0.000079
C106	C	1.170223	0.898985	0.500079
C107	C	0.671921	0.540558	0.000080
C108	C	1.171921	1.040558	0.500080
N109	N	0.673397	0.165744	0.153332
N110	N	1.173397	0.665744	0.653332
N111	N	0.673473	0.165735	-0.153179
N112	N	1.173473	0.665735	0.346821
C113	C	0.708302	0.242680	0.561978
C114	C	1.208302	0.742680	1.061978
C115	C	0.708309	0.242677	0.623898
C116	C	1.208309	0.742677	1.123898
O117	O	0.737964	0.308083	0.655921
O118	O	1.237964	0.808083	1.155921
N119	N	0.673461	0.165730	0.654869
N120	N	1.173461	0.665730	1.154869
C121	C	0.638607	0.088771	0.623917
C122	C	1.138607	0.588771	1.123917
O123	O	0.608967	0.023320	0.655946
O124	O	1.108967	0.523320	1.155946
C125	C	0.638603	0.088768	0.561998
C126	C	1.138603	0.588768	1.061998
C127	C	0.673450	0.165730	0.531030
C128	C	1.173450	0.665730	1.031030
C129	C	0.743147	0.319635	0.531010
C130	C	1.243147	0.819635	1.031010
C131	C	0.743139	0.319639	0.469094
C132	C	1.243139	0.819639	0.969094
C133	C	0.708286	0.242690	0.438147
C134	C	1.208286	0.742690	0.938147
C135	C	0.673442	0.165735	0.469114
C136	C	1.173442	0.665735	0.969114
C137	C	0.603753	0.011804	0.531047
C138	C	1.103753	0.511804	1.031047
C139	C	0.603753	0.011807	0.469124
C140	C	1.103753	0.511807	0.969124
C141	C	0.638599	0.088769	0.438156
C142	C	1.138599	0.588769	0.938156
C143	C	0.638581	0.088790	0.376251
C144	C	1.138581	0.588790	0.876251
N145	N	0.673430	0.165737	0.345280
N146	N	1.173430	0.665737	0.845280
C147	C	0.708282	0.242687	0.376228
C148	C	1.208282	0.742687	0.876228
C149	C	0.638618	0.088781	0.753950
C150	C	1.138618	0.588781	1.253950
C151	C	0.638618	0.088790	0.815868
C152	C	1.138618	0.588790	1.315868
C153	C	0.708322	0.242694	0.815845
C154	C	1.208322	0.742694	1.315845
C155	C	0.708318	0.242691	0.753926
C156	C	1.208318	0.742691	1.253926
C157	C	0.673467	0.165728	0.722979
C158	C	1.173467	0.665728	1.222979
C159	C	0.708263	0.242692	0.246201
C160	C	1.208263	0.742692	0.746201
C161	C	0.708250	0.242694	0.184279
C162	C	1.208250	0.742694	0.684279
C163	C	0.638549	0.088785	0.184308
C164	C	1.138549	0.588785	0.684308
C165	C	0.638559	0.088787	0.246224
C166	C	1.138559	0.588787	0.746224
C167	C	0.673421	0.165744	0.277168
C168	C	1.173421	0.665744	0.777168
O169	O	0.608944	0.023413	0.344189
O170	O	1.108944	0.523413	0.844189
O171	O	0.737924	0.308114	0.344191
O172	O	1.237924	0.808114	0.844191
H173	H	0.774287	-0.285411	0.000034
H174	H	1.274287	0.214589	0.500034
H175	H	0.722451	-0.429197	-0.089426
H176	H	1.222451	0.070803	0.410574
C177	C	0.565410	-0.072857	0.435086
C178	C	1.065410	0.427143	0.935086
N179	N	0.536529	-0.136621	0.409451
N180	N	1.036529	0.363379	0.909451
H181	H	0.610236	0.026135	0.841077
H182	H	1.110236	0.526135	1.341077
C183	C	0.509076	0.174813	0.112674
C184	C	1.009076	0.674813	0.612674
N185	N	0.533675	0.175475	0.157107
N186	N	1.033675	0.675475	0.657107
C187	C	0.556296	-0.390852	-0.000004
C188	C	1.056296	0.109148	0.499996
N189	N	0.509238	-0.414134	-0.000038
N190	N	1.009238	0.085866	0.499962
C191	C	0.616586	-0.223776	0.103947
C192	C	1.116586	0.276224	0.603947
N193	N	0.593774	-0.178735	0.145675
N194	N	1.093774	0.321265	0.645675
C195	C	0.600225	0.004129	0.280289
C196	C	1.100225	0.504129	0.780289
N197	N	0.571356	-0.059649	0.305943
N198	N	1.071356	0.440351	0.805943
H199	H	0.227301	0.167187	0.150988
H200	H	0.727301	0.667187	0.650988
H201	H	0.392822	0.171667	0.097360
H202	H	0.892822	0.671667	0.597360
H203	H	0.722403	-0.429139	0.089564
H204	H	1.222403	0.070861	0.589564
H205	H	0.624500	-0.239562	-0.089526
H206	H	1.124500	0.260438	0.410474
C207	C	0.600269	0.004127	0.719914
C208	C	1.100269	0.504127	1.219914
N209	N	0.571384	-0.059633	0.694282
N210	N	1.071384	0.440367	1.194282
C211	C	-0.037483	0.160040	0.112703
C212	C	0.462517	0.660040	0.612703
N213	N	-0.012885	0.160696	0.157138
N214	N	0.487115	0.660696	0.657138
C215	C	0.111049	0.164064	0.166318
C216	C	0.611049	0.664064	0.666318
N217	N	0.086444	0.163429	0.210756
N218	N	0.586444	0.663429	0.710756
H219	H	-0.153753	0.156910	0.097377
H220	H	0.346247	0.656910	0.597377
C221	C	0.746656	0.327345	0.719867
C222	C	1.246656	0.827345	1.219867
N223	N	0.775536	0.391106	0.694217
N224	N	1.275536	0.891106	1.194217
C225	C	0.746588	0.327356	0.150218
C226	C	1.246588	0.827356	0.650218
N227	N	0.775465	0.391118	0.124566
N228	N	1.275465	0.891118	0.624566
H229	H	-0.153717	0.156928	-0.097199
H230	H	0.346283	0.656928	0.402801
H231	H	0.610171	0.026138	0.159099
H232	H	1.110171	0.526138	0.659099
C233	C	-0.037460	0.160040	-0.112531
C234	C	0.462540	0.660040	0.387469
N235	N	-0.012853	0.160705	-0.156968
N236	N	0.487147	0.660705	0.343032
H237	H	0.119584	0.164237	-0.150836
H238	H	0.619584	0.664237	0.349164
C239	C	0.746606	0.327361	0.280231
C240	C	1.246606	0.827361	0.780231
N241	N	0.775483	0.391144	0.305862
N242	N	1.275483	0.891144	0.805862
H243	H	0.500619	0.174582	-0.097225
H244	H	1.000619	0.674582	0.402775
H245	H	0.227352	0.167139	-0.150836
H246	H	0.727352	0.667139	0.349164
C247	C	0.384346	0.171441	-0.112549
C248	C	0.884346	0.671441	0.387451
N249	N	0.359745	0.170770	-0.156981
N250	N	0.859745	0.670770	0.343019
H251	H	0.771517	0.382304	0.443886
H252	H	1.271517	0.882304	0.943886
H253	H	0.771531	0.382297	0.556201
H254	H	1.271531	0.882297	1.056201
C255	C	0.746665	0.327331	0.849899
C256	C	1.246665	0.827331	1.349899
N257	N	0.775543	0.391075	0.875551
N258	N	1.275543	0.891075	1.375551
H259	H	0.575378	-0.050869	0.556250
H260	H	1.075378	0.449131	1.056250
