data_functionalizedCrystal
_audit_creation_method	'MofGen! by Chris Wilmer'
_symmetry_space_group_name_H-M	'P1'
_symmetry_Int_Tables_number	1
_symmetry_cell_setting	triclinic
loop_
_symmetry_equiv_pos_as_xyz
  x,y,z
_cell_length_a	6.817900
_cell_length_b	11.102289
_cell_length_c	10.943624
_cell_angle_alpha	91.861746
_cell_angle_beta	108.838799
_cell_angle_gamma	108.605707
loop_
_atom_site_label
_atom_site_type_symbol
_atom_site_fract_x
_atom_site_fract_y
_atom_site_fract_z
V1	V	-4.114282	-0.175806	-0.402551
O2	O	-4.073263	0.008482	-0.394888
O3	O	-4.091041	-0.348626	-0.399798
O4	O	-4.092264	-0.173086	-0.578117
O5	O	-4.072031	-0.168273	-0.215334
V6	V	-4.591232	-0.153765	-0.380158
O7	O	-4.389960	-0.224155	-0.451671
O8	O	-4.765752	-0.105415	-0.331038
O9	O	-4.391267	0.019056	-0.382912
O10	O	-4.749649	-0.338053	-0.387821
O11	O	-4.750880	-0.161298	-0.567375
O12	O	-4.390044	-0.156484	-0.204592
C13	C	-3.941308	-0.390757	-0.393447
C14	C	-4.003768	-0.532039	-0.392366
C15	C	-4.217163	-0.604887	-0.398299
C16	C	-4.275844	-0.737639	-0.397294
C17	C	-3.907711	-0.724682	-0.384419
C18	C	-3.849038	-0.591934	-0.385432
C19	C	-4.429699	-0.612368	-0.405727
C20	C	-4.488380	-0.745120	-0.404723
C21	C	-3.942867	-0.166837	-0.620910
C22	C	-4.006314	-0.165757	-0.764437
C23	C	-3.851194	-0.158485	-0.841584
C24	C	-4.039808	-0.266416	-0.947574
C25	C	-3.930779	-0.055914	-0.914187
C26	C	-4.194138	-0.273789	-0.868550
C27	C	-4.085029	-0.063191	-0.835140
C28	C	-4.273779	-0.171153	-0.941100
C29	C	-4.204342	0.061180	-0.389259
C30	C	-4.121122	0.202461	-0.390348
C31	C	-4.202783	-0.162738	-0.161792
C32	C	-4.118573	-0.163811	-0.018265
H33	H	-4.539085	-0.770096	-0.316529
H34	H	-3.675284	-0.532628	-0.380616
C35	C	-4.109837	0.052877	-0.768948
C36	C	-3.974310	0.190492	-0.778545
C37	C	-3.999088	0.306573	-0.712345
C38	C	-4.159393	0.285038	-0.636547
C39	C	-4.294930	0.147417	-0.626947
C40	C	-4.270152	0.031336	-0.693147
H41	H	-3.855633	0.206438	-0.834658
H42	H	-3.898753	0.408449	-0.719452
H43	H	-4.177735	0.370968	-0.587542
H44	H	-4.413607	0.131470	-0.570834
H45	H	-4.370487	-0.070540	-0.686039
H46	H	-4.304885	-0.365970	-0.848005
H47	H	-3.672029	-0.153274	-0.798136
C48	C	-3.781213	0.068488	-0.942174
C49	C	-3.529617	0.099066	-0.896635
C50	C	-3.380037	0.223460	-0.924619
C51	C	-3.482054	0.317277	-0.998142
C52	C	-3.733663	0.286702	-1.043686
C53	C	-3.883242	0.162308	-1.015702
H54	H	-3.454087	0.029614	-0.842204
H55	H	-3.193779	0.246093	-0.890904
H56	H	-3.371326	0.409361	-1.018858
H57	H	-3.809193	0.356153	-1.098117
H58	H	-4.069501	0.139675	-1.049418
C59	C	-4.014891	-0.382479	-1.013716
C60	C	-3.787255	-0.398125	-0.975525
C61	C	-3.762320	-0.514182	-1.041660
C62	C	-3.965020	-0.614593	-1.145986
C63	C	-4.192673	-0.598951	-1.184182
C64	C	-4.217608	-0.482894	-1.118047
H65	H	-3.637189	-0.323791	-0.898292
H66	H	-3.593795	-0.525761	-1.013384
H67	H	-3.946562	-0.700506	-1.194942
H68	H	-4.342738	-0.673284	-1.261415
H69	H	-4.386132	-0.471315	-1.146324
H70	H	-3.781744	-0.773465	-0.378775
H71	H	-4.429145	-0.559149	-0.314695
H72	H	-4.542207	-0.593140	-0.499624
H73	H	-4.620843	-0.802979	-0.500372
H74	H	-4.453056	-0.176535	-0.984345
