data_functionalizedCrystal
_audit_creation_method	'MofGen! by Chris Wilmer'
_symmetry_space_group_name_H-M	'P1'
_symmetry_Int_Tables_number	1
_symmetry_cell_setting	triclinic
loop_
_symmetry_equiv_pos_as_xyz
  x,y,z
_cell_length_a	14.519709
_cell_length_b	15.995292
_cell_length_c	12.996460
_cell_angle_alpha	89.997047
_cell_angle_beta	90.000034
_cell_angle_gamma	83.574380
loop_
_atom_site_label
_atom_site_type_symbol
_atom_site_fract_x
_atom_site_fract_y
_atom_site_fract_z
O1	O	1.223644	0.109763	-0.085425
O2	O	0.955141	0.122689	-0.085456
O3	O	1.096760	-0.005654	-0.085441
O4	O	1.082025	0.238106	-0.085440
O5	O	1.096745	-0.005661	0.085692
O6	O	0.955126	0.122682	0.085678
O7	O	1.223629	0.109756	0.085708
Cu8	Cu	1.089376	0.116218	0.101319
Cu9	Cu	1.089394	0.116227	-0.101067
O10	O	1.082010	0.238099	0.085694
C11	C	0.920775	0.122083	0.000107
C12	C	0.818397	0.120278	0.000095
C13	C	0.443515	0.113632	0.000142
C14	C	0.547819	0.115478	0.000128
C15	C	0.630953	0.116955	0.000117
C16	C	0.735264	0.118801	0.000106
C17	C	1.096153	-0.036854	0.000123
C18	C	1.094355	-0.129810	0.000115
C19	C	1.087745	-0.467558	0.000124
C20	C	1.189962	-0.444093	0.000518
C21	C	1.191905	-0.347414	0.000128
C22	C	1.091025	-0.299997	0.000120
C23	C	1.039930	-0.329171	-0.097609
C24	C	1.038699	-0.425963	-0.097687
C25	C	1.036595	-0.425831	0.096924
C26	C	1.040383	-0.329333	0.098212
C27	C	1.092873	-0.205298	0.000114
C28	C	1.085894	-0.562257	0.000122
C29	C	1.257995	0.110362	0.000143
C30	C	1.360373	0.112167	0.000149
C31	C	1.082617	0.269299	0.000127
C32	C	1.084415	0.362254	0.000129
N33	N	1.089371	0.116212	0.243666
N34	N	1.089407	0.116226	-0.243414
C35	C	1.089393	0.116227	0.663480
C36	C	1.089384	0.116226	0.546675
C37	C	1.089382	0.116220	0.453577
C38	C	1.089373	0.116217	0.336764
H39	H	1.231922	-0.328332	0.070183
H40	H	0.961356	-0.439934	0.097576
H41	H	1.229355	-0.472034	0.070603
C42	C	1.090632	-0.304175	0.195885
H43	H	1.142257	-0.275907	0.176974
H44	H	1.111473	-0.353211	0.234262
H45	H	1.049167	-0.267866	0.236668
C46	C	1.086523	-0.462123	-0.196359
H47	H	1.086191	-0.521479	-0.197279
H48	H	1.148682	-0.448904	-0.197875
H49	H	1.054187	-0.438300	-0.254803
C50	C	1.242901	-0.483199	-0.093621
H51	H	1.202980	-0.513761	-0.133166
H52	H	1.294789	-0.520137	-0.071146
H53	H	1.263579	-0.439816	-0.134643
H54	H	1.232170	-0.328946	-0.070041
C55	C	0.937462	-0.445781	-0.103699
H56	H	0.936024	-0.505015	-0.103781
H57	H	0.909825	-0.422566	-0.165102
H58	H	0.904083	-0.421994	-0.045908
C59	C	0.939650	-0.286267	-0.102538
H60	H	0.928027	-0.250091	-0.044904
H61	H	0.897854	-0.327900	-0.101635
H62	H	0.931210	-0.254322	-0.164116
H63	H	1.075424	-0.309054	-0.170331
C64	C	1.079842	-0.463939	0.196992
H65	H	1.129504	-0.505658	0.180668
H66	H	1.034169	-0.488772	0.235146
H67	H	1.102557	-0.420896	0.236887
C68	C	0.940914	-0.284940	0.106188
H69	H	0.928912	-0.247774	0.049541
H70	H	0.934288	-0.253892	0.168561
H71	H	0.898173	-0.325771	0.105360
