data_functionalizedCrystal
_audit_creation_method	'MofGen! by Chris Wilmer'
_symmetry_space_group_name_H-M	'P1'
_symmetry_Int_Tables_number	1
_symmetry_cell_setting	triclinic
loop_
_symmetry_equiv_pos_as_xyz
  x,y,z
_cell_length_a	10.540539
_cell_length_b	22.010155
_cell_length_c	10.540514
_cell_angle_alpha	89.992541
_cell_angle_beta	84.520326
_cell_angle_gamma	90.006485
loop_
_atom_site_label
_atom_site_type_symbol
_atom_site_fract_x
_atom_site_fract_y
_atom_site_fract_z
O1	O	1.685880	0.050492	0.178885
O2	O	2.185880	0.550492	0.678885
O3	O	1.316466	0.050499	0.195741
O4	O	1.816466	0.550499	0.695741
O5	O	1.509618	0.050496	0.002604
O6	O	2.009618	0.550496	0.502604
O7	O	1.492728	0.050495	0.372021
O8	O	1.992728	0.550495	0.872021
O9	O	1.509582	-0.050554	0.002633
O10	O	2.009582	0.449446	0.502633
O11	O	1.316431	-0.050551	0.195770
O12	O	1.816431	0.449449	0.695770
O13	O	1.685845	-0.050558	0.178914
O14	O	2.185845	0.449442	0.678914
Cu15	Cu	1.501135	-0.059782	0.187344
Cu16	Cu	2.001135	0.440218	0.687344
Cu17	Cu	1.501176	0.059722	0.187310
Cu18	Cu	2.001176	0.559722	0.687310
O19	O	1.492693	-0.050556	0.372050
O20	O	1.992693	0.449444	0.872050
C21	C	1.269145	-0.000025	0.194491
C22	C	1.769145	0.499975	0.694491
C23	C	1.128197	-0.000022	0.190709
C24	C	1.628197	0.499978	0.690709
N25	N	1.501115	-0.143834	0.187368
N26	N	2.001115	0.356166	0.687368
C27	C	0.944784	-0.000258	0.045791
C28	C	1.444784	0.499742	0.545791
C29	C	1.091402	-0.000024	0.049624
C30	C	1.591402	0.499976	0.549624
C31	C	1.066539	0.057680	0.258589
C32	C	1.566539	0.557680	0.758589
C33	C	0.919995	0.057722	0.253774
C34	C	1.419995	0.557722	0.753774
C35	C	0.919466	-0.057191	0.256677
C36	C	1.419466	0.442809	0.756677
C37	C	1.066448	-0.057948	0.257977
C38	C	1.566448	0.442052	0.757977
C39	C	1.586709	-0.563615	0.101802
C40	C	2.086709	-0.063615	0.601802
C41	C	1.586715	-0.627222	0.101793
C42	C	2.086715	-0.127222	0.601793
O43	O	1.659439	-0.660115	0.029058
O44	O	2.159439	-0.160115	0.529058
N45	N	1.501175	-0.659041	0.187284
N46	N	2.001175	-0.159041	0.687284
C47	C	1.415615	-0.627249	0.272780
C48	C	1.915615	-0.127249	0.772780
O49	O	1.342857	-0.660154	0.345495
O50	O	1.842857	-0.160154	0.845495
C51	C	1.415604	-0.563643	0.272781
C52	C	1.915604	-0.063643	0.772781
C53	C	1.501158	-0.531827	0.187294
C54	C	2.001158	-0.031827	0.687294
C55	C	1.672255	-0.531799	0.016320
C56	C	2.172255	-0.031799	0.516320
C57	C	1.672250	-0.468196	0.016331
C58	C	2.172250	0.031804	0.516331
C59	C	1.586700	-0.436408	0.101823
C60	C	2.086700	0.063592	0.601823
C61	C	1.501154	-0.468224	0.187304
C62	C	2.001154	0.031776	0.687304
C63	C	1.330040	-0.531852	0.358270
C64	C	1.830040	-0.031852	0.858270
C65	C	1.330035	-0.468241	0.358264
C66	C	1.830035	0.031759	0.858264
C67	C	1.415589	-0.436426	0.272776
C68	C	1.915589	0.063574	0.772776
C69	C	1.415599	-0.372833	0.272807
C70	C	1.915599	0.127167	0.772807
N71	N	1.501138	-0.341014	0.187317
N72	N	2.001138	0.158986	0.687317
C73	C	1.586689	-0.372802	0.101824
C74	C	2.086689	0.127198	0.601824
C75	C	1.415643	-0.760827	0.272769
C76	C	1.915643	-0.260827	0.772769
C77	C	1.415659	-0.824432	0.272774
C78	C	1.915659	-0.324432	0.772774
C79	C	1.586758	-0.824401	0.101786
C80	C	2.086758	-0.324401	0.601786
C81	C	1.586747	-0.760795	0.101787
C82	C	2.086747	-0.260795	0.601787
C83	C	1.501183	-0.729008	0.187278
C84	C	2.001183	-0.229008	0.687278
C85	C	1.586674	-0.239231	0.101854
C86	C	2.086674	0.260769	0.601854
C87	C	1.586665	-0.175622	0.101876
C88	C	2.086665	0.324378	0.601876
C89	C	1.415563	-0.175658	0.272859
C90	C	1.915563	0.324342	0.772859
C91	C	1.415576	-0.239262	0.272843
C92	C	1.915576	0.260738	0.772843
C93	C	1.501136	-0.271046	0.187329
C94	C	2.001136	0.228954	0.687329
O95	O	1.342908	-0.339900	0.345502
O96	O	1.842908	0.160100	0.845502
O97	O	1.659424	-0.339889	0.029111
O98	O	2.159424	0.160111	0.529111
C99	C	1.733166	-0.000033	0.180163
C100	C	2.233166	0.499967	0.680163
C101	C	1.874113	-0.000032	0.183945
C102	C	2.374113	0.499968	0.683945
C103	C	1.508340	-0.000028	-0.044685
C104	C	2.008340	0.499972	0.455315
C105	C	1.504571	-0.000023	-0.185634
C106	C	2.004571	0.499977	0.314366
N107	N	1.501206	0.143775	0.187277
N108	N	2.001206	0.643775	0.687277
C109	C	1.642711	-0.000027	-0.256340
C110	C	2.142711	0.499973	0.243660
C111	C	1.638837	-0.000261	-0.402953
C112	C	2.138837	0.499739	0.097047
C113	C	1.429424	-0.057619	-0.377953
C114	C	1.929424	0.442381	0.122047
C115	C	1.434278	-0.057663	-0.231414
C116	C	1.934278	0.442337	0.268586
C117	C	1.432273	0.057254	-0.231048
C118	C	1.932273	0.557254	0.268952
C119	C	1.430941	0.058007	-0.378028
C120	C	1.930941	0.558007	0.121972
C121	C	1.493970	-0.000031	0.419339
C122	C	1.993970	0.499969	0.919339
C123	C	1.497740	-0.000031	0.560289
C124	C	1.997740	0.499969	1.060289
H125	H	1.134006	-0.041387	-0.003787
H126	H	1.634006	0.458613	0.496213
Cl127	Cl	1.308019	-0.135687	0.380332
Cl128	Cl	1.808019	0.364313	0.880332
H129	H	1.345970	-0.734950	0.342396
H130	H	1.845970	-0.234950	0.842396
Cl131	Cl	1.721789	0.063459	-0.468858
Cl132	Cl	2.221789	0.563459	0.031142
H133	H	1.332803	-0.060117	-0.183407
H134	H	1.832803	0.439883	0.316593
H135	H	1.090663	-0.061432	0.360838
H136	H	1.590663	0.438568	0.860838
H137	H	1.698756	0.041269	-0.227831
H138	H	2.198756	0.541269	0.272169
H139	H	0.916189	-0.041639	-0.009934
H140	H	1.416189	0.458361	0.490066
H141	H	1.741912	-0.442295	-0.053284
H142	H	2.241912	0.057705	0.446716
H143	H	1.480866	0.100611	-0.419037
H144	H	1.980866	0.600611	0.080963
H145	H	1.476267	-0.100642	-0.420498
H146	H	1.976267	0.399358	0.079502
H147	H	1.346007	-0.850332	0.342399
H148	H	1.846007	-0.350332	0.842399
H149	H	1.345922	-0.265167	0.342467
H150	H	1.845922	0.234833	0.842467
Cl151	Cl	1.272204	0.063688	-0.415503
Cl152	Cl	1.772204	0.563688	0.084497
Cl153	Cl	1.132314	0.123984	0.185753
Cl154	Cl	1.632314	0.623984	0.685753
H155	H	1.133166	0.041412	-0.004187
H156	H	1.633166	0.541412	0.495813
H157	H	0.914596	0.040894	-0.009722
H158	H	1.414596	0.540894	0.490278
H159	H	1.260373	-0.557747	0.427881
H160	H	1.760373	-0.057747	0.927881
Cl161	Cl	0.876465	0.124315	0.176277
Cl162	Cl	1.376465	0.624315	0.676277
Cl163	Cl	1.101073	0.061010	0.418540
Cl164	Cl	1.601073	0.561010	0.918540
Cl165	Cl	0.845915	0.061766	0.410423
Cl166	Cl	1.345915	0.561766	0.910423
H167	H	1.484142	-0.100878	-0.203175
H168	H	1.984142	0.399122	0.296825
Cl169	Cl	1.274960	0.058117	-0.158090
Cl170	Cl	1.774960	0.558117	0.341910
H171	H	0.887909	-0.100929	0.211031
H172	H	1.387909	0.399071	0.711031
H173	H	1.697954	-0.041235	-0.226010
H174	H	2.197954	0.458765	0.273990
Cl175	Cl	1.129515	-0.123855	0.181288
Cl176	Cl	1.629515	0.376145	0.681288
Cl177	Cl	1.222460	-0.428286	0.465744
Cl178	Cl	1.722460	0.071714	0.965744
H179	H	1.692309	-0.041787	-0.444671
H180	H	2.192309	0.458213	0.055329
H181	H	1.478270	0.100918	-0.199565
H182	H	1.978270	0.600918	0.300435
H183	H	0.872230	-0.057582	0.358582
H184	H	1.372230	0.442418	0.858582
H185	H	1.656338	-0.149719	0.032261
H186	H	2.156338	0.350281	0.532261
H187	H	1.656343	-0.265102	0.032220
H188	H	2.156343	0.234898	0.532220
H189	H	1.741920	-0.557675	-0.053304
H190	H	2.241920	-0.057675	0.446696
Cl191	Cl	1.694304	-0.864376	-0.005693
Cl192	Cl	2.194304	-0.364376	0.494307
Cl193	Cl	1.694301	-0.720805	-0.005690
Cl194	Cl	2.194301	-0.220805	0.494310
Cl195	Cl	1.269421	-0.060675	-0.412399
Cl196	Cl	1.769421	0.439325	0.087601
