data_functionalizedCrystal
_audit_creation_method	'MofGen! by Chris Wilmer'
_symmetry_space_group_name_H-M	'P1'
_symmetry_Int_Tables_number	1
_symmetry_cell_setting	triclinic
loop_
_symmetry_equiv_pos_as_xyz
  x,y,z
_cell_length_a	14.044220
_cell_length_b	13.101018
_cell_length_c	14.044220
_cell_angle_alpha	93.664400
_cell_angle_beta	86.811122
_cell_angle_gamma	93.664297
loop_
_atom_site_label
_atom_site_type_symbol
_atom_site_fract_x
_atom_site_fract_y
_atom_site_fract_z
O1	O	1.281975	0.085109	-0.225353
O2	O	1.615308	0.418443	0.107980
O3	O	1.948642	0.751776	0.441314
O4	O	1.005305	0.085135	-0.217046
O5	O	1.338638	0.418469	0.116288
O6	O	1.671972	0.751802	0.449621
O7	O	1.139486	0.085113	-0.082864
O8	O	1.472820	0.418446	0.250469
O9	O	1.806153	0.751779	0.583803
O10	O	1.147793	0.085132	-0.359534
O11	O	1.481127	0.418465	-0.026201
O12	O	1.814460	0.751799	0.307132
O13	O	1.129848	-0.085316	-0.092500
O14	O	1.463181	0.248017	0.240834
O15	O	1.796514	0.581350	0.574167
O16	O	0.995666	-0.085294	-0.226681
O17	O	1.328999	0.248040	0.106652
O18	O	1.662333	0.581373	0.439985
O19	O	1.272336	-0.085319	-0.234988
O20	O	1.605669	0.248014	0.098345
O21	O	1.939003	0.581347	0.431678
Zn22	Zn	1.132471	-0.112366	-0.232365
Zn23	Zn	1.465804	0.220968	0.100969
Zn24	Zn	1.799137	0.554301	0.434302
Zn25	Zn	1.145170	0.112182	-0.219669
Zn26	Zn	1.478504	0.445515	0.113664
Zn27	Zn	1.811837	0.778848	0.446997
O28	O	1.138155	-0.085297	-0.369170
O29	O	1.471488	0.248037	-0.035837
O30	O	1.804821	0.581370	0.297497
C31	C	0.964864	-0.000076	-0.218228
C32	C	1.298197	0.333257	0.115106
C33	C	1.631531	0.666591	0.448439
C34	C	0.858722	-0.000066	-0.207383
C35	C	1.192055	0.333267	0.125951
C36	C	1.525388	0.666600	0.459284
N37	N	1.123811	-0.265613	-0.241029
N38	N	1.457144	0.067720	0.092304
N39	N	1.790477	0.401053	0.425638
C40	C	0.664383	-0.000088	-0.187558
C41	C	0.997716	0.333245	0.145776
C42	C	1.331049	0.666579	0.479109
C43	C	0.613253	-0.000087	-0.264472
C44	C	0.946586	0.333246	0.068861
C45	C	1.279920	0.666580	0.402195
C46	C	0.505116	-0.000099	-0.253441
C47	C	0.838449	0.333234	0.079892
C48	C	1.171783	0.666568	0.413226
C49	C	0.772529	-0.000076	-0.198587
C50	C	1.105863	0.333257	0.134746
C51	C	1.439196	0.666591	0.468080
C52	C	1.165614	-0.525530	-0.199206
C53	C	1.498948	-0.192196	0.134127
C54	C	1.832281	0.141137	0.467460
C55	C	1.112036	-0.474648	-0.252818
C56	C	1.445370	-0.141315	0.080515
C57	C	1.778703	0.192019	0.413849
C58	C	1.118589	-0.358330	-0.246257
C59	C	1.451923	-0.024997	0.087076
C60	C	1.785256	0.308337	0.420410
C61	C	1.159063	-0.641858	-0.205766
C62	C	1.492396	-0.308525	0.127567
C63	C	1.825729	0.024809	0.460900
C64	C	1.312777	-0.000106	-0.233806
C65	C	1.646111	0.333227	0.099527
C66	C	1.979444	0.666561	0.432860
C67	C	1.418920	-0.000109	-0.244651
C68	C	1.752253	0.333225	0.088682
C69	C	2.085587	0.666558	0.422016
C70	C	1.131031	-0.000102	-0.052060
C71	C	1.464365	0.333231	0.281273
C72	C	1.797698	0.666565	0.614607
C73	C	1.120187	-0.000102	0.054083
C74	C	1.453520	0.333231	0.387416
C75	C	1.786854	0.666565	0.720749
N76	N	1.153837	0.265429	-0.210998
N77	N	1.487171	0.598762	0.122335
N78	N	1.820504	0.932096	0.455668
C79	C	1.146610	-0.000080	-0.399974
C80	C	1.479943	0.333253	-0.066641
C81	C	1.813276	0.666587	0.266693
C82	C	1.157455	-0.000073	-0.506116
C83	C	1.490788	0.333260	-0.172783
C84	C	1.824121	0.666594	0.160550
C85	C	1.100362	-0.000086	0.248421
C86	C	1.433695	0.333248	0.581755
C87	C	1.767028	0.666581	0.915088
C88	C	1.177276	-0.000090	0.299551
C89	C	1.510609	0.333244	0.632884
C90	C	1.843942	0.666577	0.966218
C91	C	1.166245	-0.000080	0.407688
C92	C	1.499578	0.333253	0.741021
C93	C	1.832911	0.666586	1.074354
C94	C	1.111391	-0.000095	0.140275
C95	C	1.444725	0.333239	0.473608
C96	C	1.778058	0.666572	0.806941
H97	H	0.650693	-0.000077	-0.338605
H98	H	0.984026	0.333256	-0.005271
H99	H	1.317359	0.666590	0.328062
H100	H	1.026235	-0.000076	0.285859
H101	H	1.359568	0.333257	0.619192
H102	H	1.692901	0.666590	0.952525
H103	H	1.061246	-0.518444	-0.303645
H104	H	1.394580	-0.185111	0.029688
H105	H	1.727913	0.148222	0.363022
F106	F	0.615449	-0.000098	-0.090666
F107	F	0.948783	0.333235	0.242667
F108	F	1.282116	0.666569	0.576000
H109	H	1.251413	-0.000028	0.262115
H110	H	1.584746	0.333306	0.595449
H111	H	1.918079	0.666639	0.928782
F112	F	1.232000	-0.468290	-0.132778
F113	F	1.565333	-0.134957	0.200555
F114	F	1.898667	0.198376	0.533889
