data_functionalizedCrystal
_audit_creation_method	'MofGen! by Chris Wilmer'
_symmetry_space_group_name_H-M	'P1'
_symmetry_Int_Tables_number	1
_symmetry_cell_setting	triclinic
loop_
_symmetry_equiv_pos_as_xyz
  x,y,z
_cell_length_a	27.435584
_cell_length_b	27.434948
_cell_length_c	27.431174
_cell_angle_alpha	60.005483
_cell_angle_beta	60.011353
_cell_angle_gamma	59.993028
loop_
_atom_site_label
_atom_site_type_symbol
_atom_site_fract_x
_atom_site_fract_y
_atom_site_fract_z
O1	O	0.067437	-0.712144	0.595551
O2	O	0.567437	-0.212144	1.095551
O3	O	0.025356	-0.554453	0.479848
O4	O	0.525356	-0.054453	0.979848
O5	O	0.125206	-0.654236	0.479781
O6	O	0.625206	-0.154236	0.979781
O7	O	-0.032412	-0.612361	0.595618
O8	O	0.467588	-0.112361	1.095618
O9	O	0.158328	-0.621117	0.512835
O10	O	0.658328	-0.121117	1.012835
O11	O	0.058479	-0.521333	0.512902
O12	O	0.558479	-0.021333	1.012902
O13	O	0.100560	-0.679025	0.628605
O14	O	0.600560	-0.179025	1.128605
Zn15	Zn	0.084778	-0.594921	0.576001
Zn16	Zn	0.584778	-0.094921	1.076001
Zn17	Zn	0.041138	-0.638557	0.532452
Zn18	Zn	0.541138	-0.138557	1.032452
O19	O	0.000710	-0.579241	0.628672
O20	O	0.500710	-0.079241	1.128672
N21	N	0.114563	-0.565144	0.605726
N22	N	0.614563	-0.065144	1.105726
N23	N	0.011358	-0.668338	0.502727
N24	N	0.511358	-0.168338	1.002727
C25	C	0.156385	-0.523520	0.904506
C26	C	0.656385	-0.023520	1.404506
C27	C	0.413419	-0.523497	0.647322
C28	C	0.913419	-0.023497	1.147322
C29	C	0.156253	-0.523488	0.647384
C30	C	0.656253	-0.023488	1.147384
C31	C	0.156238	-0.266354	0.647407
C32	C	0.656238	0.233646	1.147407
C33	C	0.197637	-0.390463	0.688753
C34	C	0.697637	0.109537	1.188753
C35	C	0.197646	-0.482126	0.688741
C36	C	0.697646	0.017874	1.188741
C37	C	0.220575	-0.459215	0.711654
C38	C	0.720575	0.040785	1.211654
C39	C	0.320555	-0.441991	0.659023
C40	C	0.820555	0.058009	1.159023
C41	C	0.383051	-0.462825	0.638179
C42	C	0.883051	0.037175	1.138179
C43	C	0.383069	-0.563942	0.676737
C44	C	0.883069	-0.063942	1.176737
C45	C	0.320575	-0.543107	0.697583
C46	C	0.820575	-0.043107	1.197583
C47	C	0.212704	-0.359206	0.627313
C48	C	0.712704	0.140794	1.127313
C49	C	0.191849	-0.296705	0.606496
C50	C	0.691849	0.203295	1.106496
C51	C	0.140866	-0.296722	0.708562
C52	C	0.640866	0.203278	1.208562
C53	C	0.161721	-0.359223	0.729379
C54	C	0.661721	0.140777	1.229379
C55	C	0.136200	-0.467030	0.703858
C56	C	0.636200	0.032970	1.203858
C57	C	0.115361	-0.487857	0.683021
C58	C	0.615361	0.012143	1.183021
C59	C	0.217408	-0.538877	0.631968
C60	C	0.717408	-0.038877	1.131968
C61	C	0.238249	-0.518050	0.652796
C62	C	0.738249	-0.018050	1.152796
C63	C	0.136259	-0.467047	0.811668
C64	C	0.636259	0.032953	1.311668
C65	C	0.115461	-0.487892	0.874167
C66	C	0.615461	0.012108	1.374167
C67	C	0.217537	-0.538923	0.874131
C68	C	0.717537	-0.038923	1.374131
C69	C	0.238333	-0.518080	0.811631
C70	C	0.738333	-0.018080	1.311631
C71	C	0.197693	-0.482140	0.780401
C72	C	0.697693	0.017860	1.280401
C73	C	0.289320	-0.482131	0.688723
C74	C	0.789320	0.017869	1.188723
C75	C	0.132699	-0.546027	0.973247
C76	C	0.632699	-0.046027	1.473247
C77	C	0.482158	-0.545613	0.624075
C78	C	0.982158	-0.045613	1.124075
C79	C	0.132521	-0.546006	0.624886
C80	C	0.632521	-0.046006	1.124886
C81	C	0.132917	-0.197607	0.625310
C82	C	0.632917	0.302393	1.125310
C83	C	-0.098217	-0.686189	0.484419
C84	C	0.401783	-0.186189	0.984419
C85	C	-0.006438	-0.686322	0.392891
C86	C	0.493562	-0.186322	0.892891
C87	C	-0.006621	-0.777944	0.484592
C88	C	0.493379	-0.277944	0.984592
C89	C	-0.006606	-0.686315	0.484649
C90	C	0.493394	-0.186315	0.984649
C91	C	-0.029470	-0.709193	0.461638
C92	C	0.470530	-0.209193	0.961638
N93	N	0.538410	-0.565162	0.605628
N94	N	1.038410	-0.065162	1.105628
O95	O	0.742647	-0.575135	0.458625
O96	O	1.242647	-0.075135	0.958625
O97	O	0.742821	-0.691181	0.616169
O98	O	1.242821	-0.191181	1.116169
O99	O	0.742757	-0.690917	0.516248
O100	O	1.242757	-0.190917	1.016248
O101	O	0.742711	-0.575399	0.558546
O102	O	1.242711	-0.075399	1.058546
O103	O	0.643472	-0.657878	0.549405
O104	O	1.143472	-0.157878	1.049405
O105	O	0.643536	-0.658142	0.649326
O106	O	1.143536	-0.158142	1.149326
O107	O	0.643362	-0.542096	0.491782
O108	O	1.143362	-0.042096	0.991782
Zn109	Zn	0.627685	-0.594873	0.575818
Zn110	Zn	1.127685	-0.094873	1.075818
Zn111	Zn	0.758498	-0.638404	0.532133
Zn112	Zn	1.258498	-0.138404	1.032133
O113	O	0.643426	-0.542360	0.591702
O114	O	1.143426	-0.042360	1.091702
N115	N	0.847774	-0.668115	0.502317
N116	N	1.347774	-0.168115	1.002317
N117	N	0.114542	-0.141354	0.605766
N118	N	0.614542	0.358646	1.105766
O119	O	-0.032397	0.062987	0.595660
O120	O	0.467603	0.562987	1.095660
O121	O	0.125155	0.062987	0.479633
O122	O	0.625155	0.562987	0.979633
O123	O	0.025219	0.062974	0.479910
O124	O	0.525219	0.562974	0.979910
O125	O	0.067539	0.063001	0.595383
O126	O	0.567539	0.563001	1.095383
O127	O	0.058343	-0.036320	0.513009
O128	O	0.558343	0.463680	1.013009
O129	O	0.158279	-0.036306	0.512732
O130	O	0.658279	0.463694	1.012732
O131	O	0.000728	-0.036306	0.628759
O132	O	0.500728	0.463694	1.128759
Zn133	Zn	0.084763	-0.052071	0.576000
Zn134	Zn	0.584763	0.447929	1.076000
Zn135	Zn	0.041120	0.078752	0.532392
Zn136	Zn	0.541120	0.578752	1.032392
O137	O	0.100664	-0.036292	0.628482
O138	O	0.600664	0.463708	1.128482
N139	N	0.011333	0.168036	0.502628
N140	N	0.511333	0.668036	1.002628
N141	N	0.114782	-0.565197	1.029501
N142	N	0.614782	-0.065197	1.529501
O143	O	0.104681	-0.712124	1.233827
O144	O	0.604681	-0.212124	1.733827
O145	O	-0.011334	-0.554523	1.233839
O146	O	0.488666	-0.054523	1.733839
O147	O	-0.011066	-0.654443	1.233797
O148	O	0.488934	-0.154443	1.733797
O149	O	0.104414	-0.612204	1.233869
O150	O	0.604414	-0.112204	1.733869
O151	O	0.022028	-0.621336	1.134509
O152	O	0.522028	-0.121336	1.634509
O153	O	0.021760	-0.521417	1.134551
O154	O	0.521760	-0.021417	1.634551
O155	O	0.137775	-0.679018	1.134539
O156	O	0.637775	-0.179018	1.634539
Zn157	Zn	0.085022	-0.594961	1.118780
Zn158	Zn	0.585022	-0.094961	1.618780
Zn159	Zn	0.041420	-0.638580	1.249597
Zn160	Zn	0.541420	-0.138580	1.749597
O161	O	0.137508	-0.579098	1.134580
O162	O	0.637508	-0.079098	1.634580
N163	N	0.011658	-0.668350	1.338876
N164	N	0.511658	-0.168350	1.838876
C165	C	0.037974	-0.518023	0.480435
C166	C	0.537974	-0.018023	0.980435
C167	C	0.161625	-0.641592	0.480351
C168	C	0.661625	-0.141592	0.980351
C169	C	0.087941	-0.715455	0.628017
C170	C	0.587941	-0.215455	1.128017
C171	C	-0.035710	-0.591885	0.628101
C172	C	0.464290	-0.091885	1.128101
C173	C	0.693199	-0.690642	0.652596
C174	C	1.193199	-0.190642	1.152596
C175	C	0.693122	-0.690315	0.528855
C176	C	1.193122	-0.190315	1.028855
C177	C	0.692981	-0.542634	0.455356
C178	C	1.192981	-0.042634	0.955356
C179	C	0.693062	-0.542961	0.579095
C180	C	1.193062	-0.042961	1.079095
C181	C	0.161524	0.013463	0.480164
C182	C	0.661524	0.513463	0.980164
C183	C	0.037807	0.013324	0.480547
C184	C	0.537807	0.513324	0.980547
C185	C	-0.035683	0.013341	0.628188
C186	C	0.464317	0.513341	1.128188
C187	C	0.088076	0.013357	0.627845
C188	C	0.588076	0.513357	1.127845
C189	C	-0.010764	-0.518114	1.184196
C190	C	0.489236	-0.018114	1.684196
C191	C	-0.010426	-0.641846	1.184125
C192	C	0.489574	-0.141846	1.684125
C193	C	0.137205	-0.715426	1.184182
C194	C	0.637205	-0.215426	1.684182
C195	C	0.136875	-0.591687	1.184231
C196	C	0.636875	-0.091687	1.684231
H197	H	0.103160	-0.437777	0.786243
H198	H	0.603160	0.062223	1.286243
H199	H	0.028745	0.013321	0.444270
H200	H	0.528745	0.513321	0.944270
C201	C	0.201876	-0.620099	1.235293
C202	C	0.701876	-0.120099	1.735293
C203	C	0.185854	-0.579493	1.184250
C204	C	0.685854	-0.079493	1.684250
H205	H	0.232112	-0.612568	1.235306
H206	H	0.732112	-0.112568	1.735306
H207	H	0.216460	-0.659623	1.235280
H208	H	0.716460	-0.159623	1.735280
H209	H	0.167923	-0.615638	1.269912
H210	H	0.667923	-0.115638	1.769912
H211	H	0.219807	-0.583958	1.149632
H212	H	0.719807	-0.083958	1.649632
H213	H	0.171272	-0.539960	1.184258
H214	H	0.671272	-0.039960	1.684258
C215	C	0.016652	-0.435338	0.867915
C216	C	0.516652	0.064662	1.367915
C217	C	0.047926	-0.471288	0.908529
C218	C	0.547926	0.028712	1.408529
H219	H	-0.025040	-0.425086	0.889131
H220	H	0.474960	0.074914	1.389131
H221	H	0.026883	-0.456539	0.843539
H222	H	0.526883	0.043461	1.343539
H223	H	0.026897	-0.400004	0.843538
H224	H	0.526897	0.099996	1.343538
H225	H	0.037685	-0.506624	0.932903
H226	H	0.537685	-0.006624	1.432903
H227	H	0.037691	-0.450087	0.932916
H228	H	0.537691	0.049913	1.432916
C229	C	0.744217	-0.789330	0.523168
C230	C	1.244217	-0.289330	1.023168
C231	C	0.693144	-0.739307	0.516639
C232	C	1.193144	-0.239307	1.016639
H233	H	0.744231	-0.819573	0.515622
H234	H	1.244231	-0.319573	1.015622
H235	H	0.744247	-0.803915	0.562687
H236	H	1.244247	-0.303915	1.062687
H237	H	0.778813	-0.778428	0.495613
H238	H	1.278813	-0.278428	0.995613
H239	H	0.658548	-0.750209	0.544197
H240	H	1.158548	-0.250209	1.044197
H241	H	0.693109	-0.724720	0.477114
H242	H	1.193109	-0.224720	0.977114
H243	H	0.693053	-0.506675	0.588146
H244	H	1.193053	-0.006675	1.088146
C245	C	0.320526	-0.587258	0.867809
C246	C	0.820526	-0.087258	1.367809
C247	C	0.262211	-0.578418	0.908455
C248	C	0.762211	-0.078418	1.408455
H249	H	0.348106	-0.611644	0.889000
H250	H	0.848106	-0.111644	1.389000
H251	H	0.326506	-0.549797	0.843438
H252	H	0.826506	-0.049797	1.343438
H253	H	0.326514	-0.606339	0.843430
H254	H	0.826514	-0.106339	1.343430
H255	H	0.256221	-0.559333	0.932831
H256	H	0.756221	-0.059333	1.432831
H257	H	0.256228	-0.615885	0.932836
H258	H	0.756228	-0.115885	1.432836
C259	C	0.641851	-0.479638	0.383583
C260	C	1.141851	0.020362	0.883583
C261	C	0.692906	-0.493445	0.394280
C262	C	1.192906	0.006555	0.894280
H263	H	0.641807	-0.449273	0.345876
H264	H	1.141807	0.050727	0.845876
H265	H	0.607247	-0.465972	0.413973
H266	H	1.107247	0.034028	0.913973
H267	H	0.641880	-0.514304	0.383637
H268	H	1.141880	-0.014304	0.883637
H269	H	0.692875	-0.458780	0.394231
H270	H	1.192875	0.041220	0.894231
H271	H	0.727519	-0.507109	0.363881
H272	H	1.227519	-0.007109	0.863881
H273	H	0.206679	0.013739	0.443646
H274	H	0.706679	0.513739	0.943646
C275	C	0.049448	0.013368	0.728032
C276	C	0.549448	0.513368	1.228032
C277	C	0.100301	0.013365	0.676821
C278	C	0.600301	0.513365	1.176821
H279	H	0.056995	0.013377	0.758266
H280	H	0.556995	0.513377	1.258266
H281	H	0.039984	-0.021259	0.741824
H282	H	0.539984	0.478741	1.241824
H283	H	0.016880	0.047993	0.718738
H284	H	0.516880	0.547993	1.218738
H285	H	0.132868	-0.021263	0.686114
H286	H	0.632868	0.478737	1.186114
H287	H	0.109772	0.047995	0.663027
H288	H	0.609772	0.547995	1.163027
H289	H	0.693242	-0.727072	0.697844
H290	H	1.193242	-0.227072	1.197844
C291	C	0.249105	-0.612966	0.415215
C292	C	0.749105	-0.112966	0.915215
C293	C	0.222736	-0.653637	0.431239
C294	C	0.722736	-0.153637	0.931239
H295	H	0.286830	-0.620401	0.384892
H296	H	0.786830	-0.120401	0.884892
H297	H	0.254316	-0.617461	0.449137
H298	H	0.754316	-0.117461	0.949137
H299	H	0.224053	-0.573454	0.400739
H300	H	0.724053	-0.073454	0.900739
H301	H	0.247786	-0.693149	0.445719
H302	H	0.747786	-0.193149	0.945719
H303	H	0.217528	-0.649147	0.397310
H304	H	0.717528	-0.149147	0.897310
C305	C	-0.133751	0.013355	0.656109
C306	C	0.366249	0.513355	1.156109
C307	C	-0.096769	0.013357	0.677360
C308	C	0.403231	0.513357	1.177360
H309	H	-0.171465	0.013372	0.686465
H310	H	0.328535	0.513372	1.186465
H311	H	-0.115899	-0.021277	0.645280
H312	H	0.384101	0.478723	1.145280
H313	H	-0.138978	0.047975	0.622175
H314	H	0.361022	0.547975	1.122175
H315	H	-0.091538	-0.021265	0.711292
H316	H	0.408462	0.478735	1.211292
H317	H	-0.114625	0.047992	0.688198
H318	H	0.385375	0.547992	1.188198
H319	H	0.028987	-0.472723	0.444098
H320	H	0.528987	0.027277	0.944098
C321	C	0.158318	-0.813460	0.655657
C322	C	0.658318	-0.313460	1.155657
C323	C	0.100067	-0.776606	0.677075
C324	C	0.600067	-0.276606	1.177075
H325	H	0.165801	-0.851213	0.685943
H326	H	0.665801	-0.351213	1.185943
H327	H	0.185878	-0.795540	0.644786
H328	H	0.685878	-0.295540	1.144786
H329	H	0.162776	-0.818628	0.621722
H330	H	0.662776	-0.318628	1.121722
H331	H	0.095611	-0.771434	0.711007
H332	H	0.595611	-0.271434	1.211007
H333	H	0.072500	-0.794529	0.687954
H334	H	0.572500	-0.294529	1.187954
C335	C	-0.038685	-0.420053	1.184227
C336	C	0.461315	0.079947	1.684227
C337	C	-0.059937	-0.457012	1.184201
C338	C	0.440063	0.042988	1.684201
H339	H	-0.069045	-0.382333	1.184234
H340	H	0.430955	0.117667	1.684234
H341	H	-0.004766	-0.414831	1.149612
H342	H	0.495234	0.085169	1.649612
H343	H	-0.027840	-0.437926	1.218861
H344	H	0.472160	0.062074	1.718861
H345	H	-0.070778	-0.439141	1.149565
H346	H	0.429222	0.060859	1.649565
H347	H	-0.093868	-0.462233	1.218819
H348	H	0.406132	0.037767	1.718819
H349	H	-0.080982	-0.582959	0.664476
H350	H	0.419018	-0.082959	1.164476
H351	H	-0.046689	-0.650868	1.184063
H352	H	0.453311	-0.150868	1.684063
C353	C	0.202360	-0.802857	1.235228
C354	C	0.702360	-0.302857	1.735228
C355	C	0.186380	-0.776528	1.184177
C356	C	0.686380	-0.276528	1.684177
H357	H	0.232721	-0.840577	1.235222
H358	H	0.732721	-0.340577	1.735222
H359	H	0.168437	-0.808081	1.269838
H360	H	0.668437	-0.308081	1.769838
H361	H	0.216770	-0.777773	1.235240
H362	H	0.716770	-0.277773	1.735240
H363	H	0.171965	-0.801611	1.184168
H364	H	0.671965	-0.301611	1.684168
H365	H	0.220309	-0.771307	1.149559
H366	H	0.720309	-0.271307	1.649559
H367	H	0.103135	-0.437780	0.733124
H368	H	0.603135	0.062220	1.233124
C369	C	0.016579	-0.435351	0.735596
C370	C	0.516579	0.064649	1.235596
C371	C	0.047819	-0.471274	0.699640
C372	C	0.547819	0.028726	1.199640
H373	H	-0.025118	-0.425118	0.745860
H374	H	0.474882	0.074882	1.245860
H375	H	0.026804	-0.400010	0.714397
H376	H	0.526804	0.099990	1.214397
H377	H	0.026858	-0.456567	0.770922
H378	H	0.526858	0.043433	1.270922
H379	H	0.037544	-0.450056	0.664312
H380	H	0.537544	0.049944	1.164312
H381	H	0.037590	-0.506620	0.720840
H382	H	0.537590	-0.006620	1.220840
C383	C	0.320374	-0.587216	0.583599
C384	C	0.820374	-0.087216	1.083599
C385	C	0.262043	-0.578366	0.592460
C386	C	0.762043	-0.078366	1.092460
H387	H	0.347930	-0.611592	0.559204
H388	H	0.847930	-0.111592	1.059204
H389	H	0.326395	-0.606304	0.621050
H390	H	0.826395	-0.106304	1.121050
H391	H	0.326360	-0.549751	0.564522
H392	H	0.826360	-0.049751	1.064522
H393	H	0.256056	-0.615831	0.611541
H394	H	0.756056	-0.115831	1.111541
H395	H	0.256020	-0.559279	0.555002
H396	H	0.756020	-0.059279	1.055002
C397	C	0.320941	-0.482574	0.741329
C398	C	0.820941	0.017426	1.241329
C399	C	0.305867	-0.534672	0.777262
C400	C	0.805867	-0.034672	1.277262
H401	H	0.362632	-0.492819	0.720110
H402	H	0.862632	0.007181	1.220110
H403	H	0.310707	-0.461380	0.765714
H404	H	0.810707	0.038620	1.265714
H405	H	0.299712	-0.458194	0.713786
H406	H	0.799712	0.041806	1.213786
H407	H	0.327093	-0.559050	0.804808
H408	H	0.827093	-0.059050	1.304808
H409	H	0.316107	-0.555875	0.752876
H410	H	0.816107	-0.055875	1.252876
H411	H	0.288283	-0.530335	0.640482
H412	H	0.788283	-0.030335	1.140482
H413	H	0.408519	-0.613593	0.683941
H414	H	0.908519	-0.113593	1.183941
C415	C	0.301326	-0.616342	0.692308
C416	C	0.801326	-0.116342	1.192308
C417	C	0.286238	-0.587231	0.730227
C418	C	0.786238	-0.087231	1.230227
H419	H	0.280125	-0.643579	0.712462
H420	H	0.780125	-0.143579	1.212462
H421	H	0.343014	-0.637474	0.681165
H422	H	0.843014	-0.137474	1.181165
H423	H	0.291061	-0.587713	0.657585
H424	H	0.791061	-0.087713	1.157585
H425	H	0.296508	-0.615859	0.764949
H426	H	0.796508	-0.115859	1.264949
H427	H	0.244541	-0.566097	0.741379
H428	H	0.744541	-0.066097	1.241379
C429	C	0.376755	-0.360781	0.602151
C430	C	0.876755	0.139219	1.102151
C431	C	0.417387	-0.418702	0.605528
C432	C	0.917387	0.081298	1.105528
H433	H	0.397955	-0.333542	0.581989
H434	H	0.897955	0.166458	1.081989
H435	H	0.352396	-0.359186	0.641301
H436	H	0.852396	0.140814	1.141301
H437	H	0.352364	-0.350330	0.580861
H438	H	0.852364	0.149670	1.080861
H439	H	0.441775	-0.429155	0.626821
H440	H	0.941775	0.070845	1.126821
H441	H	0.441756	-0.420299	0.566370
H442	H	0.941756	0.079701	1.066370
H443	H	0.241946	-0.384640	0.594232
H444	H	0.741946	0.115360	1.094232
C445	C	0.250287	-0.366429	0.704643
C446	C	0.750287	0.133571	1.204643
C447	C	0.286200	-0.374966	0.649286
C448	C	0.786200	0.125034	1.149286
H449	H	0.229075	-0.325050	0.698630
H450	H	0.729075	0.174950	1.198630
H451	H	0.274683	-0.381088	0.727528
H452	H	0.774683	0.118912	1.227528
H453	H	0.222740	-0.387354	0.725311
H454	H	0.722740	0.112646	1.225311
H455	H	0.313750	-0.354044	0.628620
H456	H	0.813750	0.145956	1.128620
H457	H	0.261802	-0.360300	0.626392
H458	H	0.761802	0.139700	1.126392
H459	H	0.204115	-0.271255	0.556464
H460	H	0.704115	0.228745	1.056464
H461	H	0.111630	-0.271286	0.741644
H462	H	0.611630	0.228714	1.241644
H463	H	0.149444	-0.384673	0.779411
H464	H	0.649444	0.115327	1.279411
