data_functionalizedCrystal
_audit_creation_method	'MofGen! by Chris Wilmer'
_symmetry_space_group_name_H-M	'P1'
_symmetry_Int_Tables_number	1
_symmetry_cell_setting	triclinic
loop_
_symmetry_equiv_pos_as_xyz
  x,y,z
_cell_length_a	18.050591
_cell_length_b	18.050589
_cell_length_c	15.296720
_cell_angle_alpha	99.646980
_cell_angle_beta	99.656035
_cell_angle_gamma	90.024227
loop_
_atom_site_label
_atom_site_type_symbol
_atom_site_fract_x
_atom_site_fract_y
_atom_site_fract_z
Zn1	Zn	1.062583	-0.368408	-0.510231
Zn2	Zn	1.083989	-0.471122	-0.359392
Zn3	Zn	0.959899	-0.346940	-0.359382
Zn4	Zn	0.938358	-0.492545	-0.510177
O5	O	1.011207	-0.419754	-0.434795
O6	O	1.169343	-0.382053	-0.490249
O7	O	1.085501	-0.436700	-0.233155
O8	O	0.973576	-0.245866	-0.379411
O9	O	1.185070	-0.457516	-0.379428
O10	O	1.049018	-0.261639	-0.490240
O11	O	0.994333	-0.345464	-0.233148
O12	O	0.853120	-0.366236	-0.379358
O13	O	0.936863	-0.494027	-0.636419
O14	O	0.837294	-0.473211	-0.490146
O15	O	1.028131	-0.402825	-0.636459
O16	O	1.064614	-0.577886	-0.379375
O17	O	0.957619	-0.593625	-0.490156
C18	C	0.818262	-0.419719	-0.434745
C19	C	0.735716	-0.419725	-0.434746
C20	C	0.544830	-0.361515	-0.374637
C21	C	0.498573	-0.426092	-0.352444
C22	C	0.584580	-0.419754	-0.434786
C23	C	0.483756	-0.355200	-0.456977
C24	C	0.438589	-0.419775	-0.434824
C25	C	0.539416	-0.484360	-0.412550
C26	C	0.524597	-0.413428	-0.517121
C27	C	0.478358	-0.478056	-0.494959
C28	C	0.668682	-0.419740	-0.434762
C29	C	0.354489	-0.419796	-0.434848
C30	C	1.011119	-0.612704	-0.434780
C31	C	1.011146	-0.695253	-0.434804
C32	C	0.953014	-0.903287	-0.495026
C33	C	0.946646	-0.941003	-0.412708
C34	C	1.011217	-0.846385	-0.434816
C35	C	1.017619	-0.955752	-0.517143
C36	C	1.011283	-0.992373	-0.434835
C37	C	1.004820	-0.883008	-0.352454
C38	C	1.075816	-0.897761	-0.456945
C39	C	1.069483	-0.935446	-0.374571
C40	C	1.011176	-0.762285	-0.434806
C41	C	1.011325	-1.076469	-0.434835
C42	C	1.204905	-0.419789	-0.434846
C43	C	1.287448	-0.419805	-0.434867
C44	C	0.977706	-0.453211	-0.670086
C45	C	0.963430	-0.467468	-0.770353
C46	C	1.011312	-0.226053	-0.434830
C47	C	1.011357	-0.143510	-0.434845
C48	C	1.113267	-0.317725	-1.053072
C49	C	1.126685	-0.304331	-0.958866
C50	C	1.085872	-0.345114	-0.911733
C51	C	1.031640	-0.399294	-0.958815
C52	C	1.018225	-0.412693	-1.053030
C53	C	0.990830	-0.440082	-0.911691
C54	C	0.936598	-0.494261	-0.958773
C55	C	0.923185	-0.507658	-1.052979
C56	C	0.963997	-0.466875	-1.100112
C57	C	1.004245	-0.426682	-0.817476
C58	C	0.909203	-0.521650	-0.817434
C59	C	0.895785	-0.535044	-0.911640
C60	C	1.044620	-0.386374	-0.200420
C61	C	1.059040	-0.371908	-0.100154
H62	H	0.459380	-0.300602	-0.475700
H63	H	1.118740	-0.949705	-0.323602
F64	F	0.582625	-0.297189	-0.308083
F65	F	1.147158	-0.872784	-0.481439
F66	F	0.997694	-0.841866	-0.261435
H67	H	1.146495	-0.284530	-1.091456
F68	F	0.875280	-0.965961	-0.388244
H69	H	0.879031	-0.551781	-1.091310
H70	H	1.023009	-0.987318	-0.586759
H71	H	1.096800	-0.334205	-0.835027
H72	H	1.048401	-0.382568	-0.779152
F73	F	0.838069	-0.592705	-0.961759
H74	H	1.170843	-0.260220	-0.920539
H75	H	0.953076	-0.477778	-1.176822
F76	F	0.888614	-0.884447	-0.561486
H77	H	0.449586	-0.527364	-0.545841
F78	F	0.540069	-0.406386	-0.608086
H79	H	0.563678	-0.538967	-0.393719
H80	H	0.875971	-0.554860	-0.779059
H81	H	0.486756	-0.431458	-0.282831
