data_functionalizedCrystal
_audit_creation_method	'MofGen! by Chris Wilmer'
_symmetry_space_group_name_H-M	'P1'
_symmetry_Int_Tables_number	1
_symmetry_cell_setting	triclinic
loop_
_symmetry_equiv_pos_as_xyz
  x,y,z
_cell_length_a	21.295417
_cell_length_b	21.395364
_cell_length_c	21.395355
_cell_angle_alpha	90.025677
_cell_angle_beta	89.978549
_cell_angle_gamma	89.975461
loop_
_atom_site_label
_atom_site_type_symbol
_atom_site_fract_x
_atom_site_fract_y
_atom_site_fract_z
Zn1	Zn	-0.250782	-0.957860	-0.354267
Zn2	Zn	0.249218	-0.457860	0.145733
Zn3	Zn	-0.356034	-0.957763	-0.249485
Zn4	Zn	0.143966	-0.457763	0.250515
Zn5	Zn	-0.250772	-0.853075	-0.249502
Zn6	Zn	0.249228	-0.353075	0.250498
Zn7	Zn	-0.356007	-0.853044	-0.354223
Zn8	Zn	0.143993	-0.353044	0.145777
O9	O	-0.303399	-0.905435	-0.301869
O10	O	0.196601	-0.405435	0.198131
O11	O	-0.264760	-1.045525	-0.340379
O12	O	0.235240	-0.545525	0.159621
O13	O	-0.342077	-0.943848	-0.161809
O14	O	0.157923	-0.443848	0.338191
O15	O	-0.162684	-0.867028	-0.263425
O16	O	0.337316	-0.367028	0.236575
O17	O	-0.342088	-1.045453	-0.263396
O18	O	0.157912	-0.545453	0.236604
O19	O	-0.162692	-0.944013	-0.340396
O20	O	0.337308	-0.444013	0.159604
O21	O	-0.264742	-0.866934	-0.161822
O22	O	0.235258	-0.366934	0.338178
O23	O	-0.264715	-0.765393	-0.263382
O24	O	0.235285	-0.265393	0.236618
O25	O	-0.342042	-0.866976	-0.441907
O26	O	0.157958	-0.366976	0.058093
O27	O	-0.342031	-0.765371	-0.340320
O28	O	0.157969	-0.265371	0.159680
O29	O	-0.264734	-0.943984	-0.441939
O30	O	0.235266	-0.443984	0.058061
O31	O	-0.444120	-0.943818	-0.263352
O32	O	0.055880	-0.443818	0.236648
O33	O	-0.444100	-0.866882	-0.340303
O34	O	0.055900	-0.366882	0.159697
C35	C	-0.303370	-0.742648	-0.301848
C36	C	0.196630	-0.242648	0.198152
C37	C	-0.303372	-0.673007	-0.301854
C38	C	0.196628	-0.173007	0.198146
C39	C	-0.263207	-0.171247	-0.342014
C40	C	0.236793	0.328753	0.157986
C41	C	-0.263204	-0.236682	-0.342015
C42	C	0.236796	0.263318	0.157985
C43	C	-0.303399	-0.269368	-0.301870
C44	C	0.196601	0.230632	0.198130
C45	C	-0.343610	-0.236613	-0.261733
C46	C	0.156390	0.263387	0.238267
C47	C	-0.343616	-0.171179	-0.261737
C48	C	0.156384	0.328821	0.238263
C49	C	-0.308276	-0.373005	-0.245405
C50	C	0.191724	0.126995	0.254595
C51	C	-0.308266	-0.438438	-0.245400
C52	C	0.191734	0.061562	0.254600
C53	C	-0.303384	-0.471189	-0.301857
C54	C	0.196616	0.028811	0.198143
C55	C	-0.298499	-0.438499	-0.358322
C56	C	0.201501	0.061501	0.141678
C57	C	-0.298505	-0.373065	-0.358326
C58	C	0.201495	0.126935	0.141674
C59	C	-0.303397	-0.340321	-0.301861
C60	C	0.196603	0.159679	0.198139
C61	C	-0.263175	-0.574889	-0.341996
C62	C	0.236825	-0.074889	0.158004
C63	C	-0.263177	-0.640325	-0.341999
C64	C	0.236823	-0.140325	0.158001
C65	C	-0.343579	-0.640255	-0.261711
C66	C	0.156421	-0.140255	0.238289
C67	C	-0.343581	-0.574820	-0.261714
C68	C	0.156419	-0.074820	0.238286
C69	C	-0.303375	-0.542140	-0.301856
C70	C	0.196625	-0.042140	0.198144
C71	C	-0.466950	-0.905353	-0.301834
C72	C	0.033050	-0.405353	0.198166
C73	C	-0.536918	-0.905376	-0.301841
C74	C	-0.036918	-0.405376	0.198159
C75	C	-0.569774	-0.945472	-0.261813
C76	C	-0.069774	-0.445472	0.238187
C77	C	-0.635517	-0.945501	-0.261828
C78	C	-0.135517	-0.445501	0.238172
C79	C	-0.668401	-0.905423	-0.301862
C80	C	-0.168401	-0.405423	0.198138
C81	C	-0.635537	-0.865324	-0.341897
C82	C	-0.135537	-0.365324	0.158103
C83	C	-0.569795	-0.865300	-0.341886
C84	C	-0.069795	-0.365300	0.158114
N85	N	-0.771662	-0.850613	-0.306632
N86	N	-0.271662	-0.350613	0.193368
N87	N	-0.834113	-0.850638	-0.306638
N88	N	-0.334113	-0.350638	0.193362
C89	C	-0.866475	-0.905493	-0.301898
C90	C	-0.366475	-0.405493	0.198102
N91	N	-0.834027	-0.960325	-0.297139
N92	N	-0.334027	-0.460325	0.202861
N93	N	-0.771570	-0.960300	-0.297129
N94	N	-0.271570	-0.460300	0.202871
C95	C	-0.739686	-0.905445	-0.301879
C96	C	-0.239686	-0.405445	0.198121
C97	C	-0.970617	-0.945625	-0.261884
C98	C	-0.470617	-0.445625	0.238116
C99	C	-1.036361	-0.945655	-0.261903
C100	C	-0.536361	-0.445655	0.238097
C101	C	-1.036379	-0.865472	-0.341969
C102	C	-0.536379	-0.365472	0.158031
C103	C	-0.970637	-0.865448	-0.341954
C104	C	-0.470637	-0.365448	0.158046
C105	C	-0.937760	-0.905523	-0.301908
C106	C	-0.437760	-0.405523	0.198092
C107	C	-0.139208	-0.905535	-0.301918
C108	C	0.360792	-0.405535	0.198082
C109	C	-0.069240	-0.905577	-0.301938
C110	C	0.430760	-0.405577	0.198062
C111	C	-0.303386	-0.905487	-0.465293
C112	C	0.196614	-0.405487	0.034707
C113	C	-0.303380	-0.905510	-0.534934
C114	C	0.196620	-0.405510	-0.034934
C115	C	-0.303421	-0.068859	-0.301885
C116	C	0.196579	0.431141	0.198115
C117	C	-0.303411	-0.138500	-0.301879
C118	C	0.196589	0.361500	0.198121
C119	C	-0.263125	-0.945606	-0.567665
C120	C	0.236875	-0.445606	-0.067665
C121	C	-0.263097	-0.945605	-0.633100
C122	C	0.236903	-0.445605	-0.133100
C123	C	-0.303338	-0.905515	-0.665802
C124	C	0.196662	-0.405515	-0.165802
C125	C	-0.343596	-0.865411	-0.633063
C126	C	0.156404	-0.365411	-0.133063
C127	C	-0.343618	-0.865408	-0.567629
C128	C	0.156382	-0.365408	-0.067629
C129	C	-0.360017	-0.900539	-0.769465
C130	C	0.139983	-0.400539	-0.269465
C131	C	-0.359997	-0.900546	-0.834898
C132	C	0.140003	-0.400546	-0.334898
C133	C	-0.303271	-0.905518	-0.867623
C134	C	0.196729	-0.405518	-0.367623
C135	C	-0.246564	-0.910498	-0.834907
C136	C	0.253436	-0.410498	-0.334907
C137	C	-0.246585	-0.910495	-0.769473
C138	C	0.253415	-0.410495	-0.269473
C139	C	-0.303318	-0.905512	-0.736755
C140	C	0.196682	-0.405512	-0.236755
C141	C	-0.262982	-0.945616	-0.971307
C142	C	0.237018	-0.445616	-0.471307
C143	C	-0.262954	-0.945610	-1.036744
C144	C	0.237046	-0.445610	-0.536744
C145	C	-0.343459	-0.865420	-1.036705
C146	C	0.156541	-0.365420	-0.536705
C147	C	-0.343481	-0.865422	-0.971269
C148	C	0.156519	-0.365422	-0.471269
C149	C	-0.303244	-0.905523	-0.938574
C150	C	0.196756	-0.405523	-0.438574
C151	C	-0.303366	-0.905420	-0.139082
C152	C	0.196634	-0.405420	0.360918
C153	C	-0.303194	-0.905519	-0.069441
C154	C	0.196806	-0.405519	0.430559
H155	H	-0.312239	-0.465049	-0.199422
H156	H	0.187761	0.034951	0.300578
H157	H	-0.376217	-0.832771	-1.063330
H158	H	0.123783	-0.332771	-0.563330
N159	N	-0.222016	-0.986551	-0.534259
N160	N	0.277984	-0.486551	-0.034259
N161	N	-0.222035	-0.986541	-0.475837
N162	N	0.277965	-0.486541	0.024163
H163	H	-0.193000	-1.015456	-0.452241
H164	H	0.307000	-0.515456	0.047759
N165	N	-0.313267	-0.339563	-0.187725
N166	N	0.186733	0.160437	0.312275
N167	N	-0.317620	-0.368755	-0.137317
N168	N	0.182380	0.131245	0.362683
H169	H	-0.321145	-0.345138	-0.096581
H170	H	0.178855	0.154862	0.403419
N171	N	-0.222122	-0.270134	-0.383007
N172	N	0.277878	0.229866	0.116993
N173	N	-0.164032	-0.262841	-0.378945
N174	N	0.335968	0.237159	0.121055
H175	H	-0.135015	-0.286465	-0.407894
H176	H	0.364985	0.213535	0.092106
N177	N	-0.669134	-0.824384	-0.382782
N178	N	-0.169134	-0.324384	0.117218
N179	N	-0.705861	-0.784483	-0.360703
N180	N	-0.205861	-0.284483	0.139297
H181	H	-0.729590	-0.755568	-0.389580
H182	H	-0.229590	-0.255568	0.110420
H183	H	-0.230313	-0.978255	-0.659755
H184	H	0.269687	-0.478255	-0.159755
H185	H	-0.543043	-0.832648	-0.374482
H186	H	-0.043043	-0.332648	0.125518
N187	N	-0.293515	-0.339683	-0.416004
N188	N	0.206485	0.160317	0.083996
N189	N	-0.289154	-0.368925	-0.466411
N190	N	0.210846	0.131075	0.033589
H191	H	-0.285631	-0.345350	-0.507147
H192	H	0.214369	0.154650	-0.007147
N193	N	-0.384629	-0.673644	-0.220703
N194	N	0.115371	-0.173644	0.279297
N195	N	-0.362420	-0.710145	-0.180816
N196	N	0.137580	-0.210145	0.319184
H197	H	-0.391414	-0.733729	-0.151854
H198	H	0.108586	-0.233729	0.348146
H199	H	-0.294520	-0.465164	-0.404295
H200	H	0.205480	0.034836	0.095705
H201	H	-0.376338	-0.263230	-0.229049
H202	H	0.123662	0.236770	0.270951
N203	N	-0.384614	-0.824477	-0.937830
N204	N	0.115386	-0.324477	-0.437830
N205	N	-0.424743	-0.846496	-0.901324
N206	N	0.075257	-0.346496	-0.401324
H207	H	-0.453793	-0.817575	-0.877706
H208	H	0.046207	-0.317575	-0.377706
N209	N	-0.669078	-0.986460	-0.220931
N210	N	-0.169078	-0.486460	0.279069
N211	N	-0.639716	-1.022235	-0.185178
N212	N	-0.139716	-0.522235	0.314822
H213	H	-0.663417	-1.051160	-0.156292
H214	H	-0.163417	-0.551160	0.343708
H215	H	-0.943848	-0.978258	-0.229278
H216	H	-0.443848	-0.478258	0.270722
N217	N	-0.384652	-0.541375	-0.220713
N218	N	0.115348	-0.041375	0.279287
N219	N	-0.420541	-0.570564	-0.184874
N220	N	0.079459	-0.070564	0.315126
H221	H	-0.449551	-0.546944	-0.155916
H222	H	0.050449	-0.046944	0.344084
H223	H	-0.406171	-0.896495	-0.861530
H224	H	0.093829	-0.396495	-0.361530
N225	N	-1.069915	-0.986626	-0.221017
N226	N	-0.569915	-0.486626	0.278983
N227	N	-1.040550	-1.022405	-0.185271
N228	N	-0.540550	-0.522405	0.314729
H229	H	-1.064247	-1.051343	-0.156395
H230	H	-0.564247	-0.551343	0.343605
N231	N	-0.384691	-0.137735	-0.220737
N232	N	0.115309	0.362265	0.279263
N233	N	-0.420581	-0.166923	-0.184899
N234	N	0.079419	0.333077	0.315101
H235	H	-0.449591	-0.143303	-0.155941
H236	H	0.050409	0.356697	0.344059
H237	H	-1.063153	-0.832843	-0.374569
H238	H	-0.563153	-0.332843	0.125431
H239	H	-0.943884	-0.832795	-0.374545
H240	H	-0.443884	-0.332795	0.125455
H241	H	-0.543008	-0.978105	-0.229207
H242	H	-0.043008	-0.478105	0.270793
H243	H	-0.200413	-0.914548	-0.742839
H244	H	0.299587	-0.414548	-0.242839
H245	H	-0.200372	-0.914548	-0.861551
H246	H	0.299628	-0.414548	-0.361551
N247	N	-0.221877	-0.986577	-0.937915
N248	N	0.278123	-0.486577	-0.437915
N249	N	-0.185930	-1.022370	-0.967150
N250	N	0.314070	-0.522370	-0.467150
H251	H	-0.156897	-1.051300	-0.943569
H252	H	0.343103	-0.551300	-0.443569
H253	H	-0.230169	-0.978261	-1.063392
H254	H	0.269831	-0.478261	-0.563392
N255	N	-0.417963	-0.895494	-0.736031
N256	N	0.082037	-0.395494	-0.236031
N257	N	-0.417976	-0.895512	-0.677608
N258	N	0.082024	-0.395512	-0.177608
H259	H	-0.458900	-0.891959	-0.653994
H260	H	0.041100	-0.391959	-0.153994
N261	N	-0.384693	-0.824459	-0.666473
N262	N	0.115307	-0.324459	-0.166473
N263	N	-0.384669	-0.824467	-0.724896
N264	N	0.115331	-0.324467	-0.224896
H265	H	-0.413692	-0.795541	-0.748493
H266	H	0.086308	-0.295541	-0.248493
N267	N	-0.222135	-0.137883	-0.383025
N268	N	0.277865	0.362117	0.116975
N269	N	-0.226382	-0.145225	-0.440831
N270	N	0.273618	0.354775	0.059169
H271	H	-0.197372	-0.121663	-0.469796
H272	H	0.302628	0.378337	0.030204
H273	H	-0.376398	-0.832754	-0.540979
H274	H	0.123602	-0.332754	-0.040979
H275	H	-0.230440	-0.666987	-0.374686
H276	H	0.269560	-0.166987	0.125314
N277	N	-0.222119	-0.541513	-0.383017
N278	N	0.277881	-0.041513	0.116983
N279	N	-0.186238	-0.570762	-0.418864
N280	N	0.313762	-0.070762	0.081136
H281	H	-0.157247	-0.547193	-0.447840
H282	H	0.342753	-0.047193	0.052160
