data_functionalizedCrystal
_audit_creation_method	'MofGen! by Chris Wilmer'
_symmetry_space_group_name_H-M	'P1'
_symmetry_Int_Tables_number	1
_symmetry_cell_setting	triclinic
loop_
_symmetry_equiv_pos_as_xyz
  x,y,z
_cell_length_a	18.101398
_cell_length_b	21.295417
_cell_length_c	21.295411
_cell_angle_alpha	89.979403
_cell_angle_beta	89.970135
_cell_angle_gamma	90.024968
loop_
_atom_site_label
_atom_site_type_symbol
_atom_site_fract_x
_atom_site_fract_y
_atom_site_fract_z
Zn1	Zn	1.132169	-0.250760	-0.356005
Zn2	Zn	1.132056	-0.356012	-0.250732
Zn3	Zn	1.008316	-0.250752	-0.250740
Zn4	Zn	1.008281	-0.355987	-0.355954
O5	O	1.070205	-0.303378	-0.303358
O6	O	1.235787	-0.264736	-0.342058
O7	O	1.115608	-0.342056	-0.162644
O8	O	1.024807	-0.162664	-0.264729
O9	O	1.235704	-0.342064	-0.264715
O10	O	1.115801	-0.162670	-0.342066
O11	O	1.024697	-0.264722	-0.162650
O12	O	0.904678	-0.264698	-0.264679
O13	O	1.024748	-0.342021	-0.444050
O14	O	0.904653	-0.342013	-0.341980
O15	O	1.115768	-0.264712	-0.444088
O16	O	1.115575	-0.444098	-0.264666
O17	O	1.024639	-0.444080	-0.341972
C18	C	0.877795	-0.303352	-0.303325
C19	C	0.795481	-0.303357	-0.303326
C20	C	0.496390	-0.303396	-0.303379
C21	C	0.527706	-0.254508	-0.254981
C22	C	0.613324	-0.254639	-0.254774
C23	C	0.644772	-0.303376	-0.303353
C24	C	0.613654	-0.369683	-0.285223
C25	C	0.528009	-0.369412	-0.284886
C26	C	0.528011	-0.286553	-0.370020
C27	C	0.613662	-0.285076	-0.369657
C28	C	0.728632	-0.303369	-0.303339
C29	C	0.412530	-0.303408	-0.303391
C30	C	1.070111	-0.466930	-0.303326
C31	C	1.070138	-0.536898	-0.303334
C32	C	1.117492	-0.569710	-0.343632
C33	C	1.117518	-0.635453	-0.343648
C34	C	1.070198	-0.668380	-0.303353
C35	C	1.022836	-0.635560	-0.263052
C36	C	1.022806	-0.569818	-0.263042
N37	N	1.064599	-0.771632	-0.248262
N38	N	1.064632	-0.834084	-0.248273
C39	C	1.070285	-0.866455	-0.303382
N40	N	1.075918	-0.834015	-0.358480
N41	N	1.075889	-0.771558	-0.358468
C42	C	1.070225	-0.739666	-0.303360
C43	C	1.117669	-0.970553	-0.343701
C44	C	1.117690	-1.036297	-0.343717
C45	C	1.023012	-1.036402	-0.263116
C46	C	1.022987	-0.970660	-0.263105
C47	C	1.070320	-0.937739	-0.303396
C48	C	1.263367	-0.303404	-0.303391
C49	C	1.345681	-0.303415	-0.303406
C50	C	1.070267	-0.303365	-0.467548
C51	C	1.070293	-0.303359	-0.537516
C52	C	1.070320	-0.139188	-0.303404
C53	C	1.070369	-0.069220	-0.303423
C54	C	1.117685	-0.263102	-0.570404
C55	C	1.117684	-0.263075	-0.636146
C56	C	1.070299	-0.303316	-0.668999
C57	C	1.022898	-0.343575	-0.636104
C58	C	1.022895	-0.343597	-0.570363
N59	N	1.064586	-0.358383	-0.772215
N60	N	1.064593	-0.358361	-0.834666
C61	C	1.070303	-0.303252	-0.867074
N62	N	1.076021	-0.248165	-0.834671
N63	N	1.076018	-0.248188	-0.772213
C64	C	1.070296	-0.303296	-0.740284
C65	C	1.117697	-0.262962	-0.971247
C66	C	1.117690	-0.262934	-1.036990
C67	C	1.022908	-0.343440	-1.036947
C68	C	1.022911	-0.343462	-0.971205
C69	C	1.070309	-0.303224	-0.938358
C70	C	1.070187	-0.303346	-0.139806
C71	C	1.070304	-0.303174	-0.069839
H72	H	0.634006	-0.236281	-0.383327
Cl73	Cl	1.177252	-0.212450	-0.677499
Cl74	Cl	0.496744	-0.341527	-0.425696
H75	H	1.156287	-0.230194	-0.944502
Cl76	Cl	1.177217	-1.077548	-0.394391
H77	H	0.635073	-0.318090	-0.407650
H78	H	0.984244	-0.543102	-0.230226
Cl79	Cl	0.496020	-0.427555	-0.336931
H80	H	1.156031	-0.542908	-0.376441
Cl81	Cl	1.177267	-0.212514	-0.529114
H82	H	0.984306	-0.662373	-0.230246
H83	H	0.634023	-0.407084	-0.319370
H84	H	1.156073	-0.662174	-0.376471
H85	H	0.984319	-0.376198	-1.063695
Cl86	Cl	0.963325	-0.394161	-0.677404
H87	H	1.156208	-0.943748	-0.376510
H88	H	0.984478	-1.063211	-0.230312
Cl89	Cl	1.177286	-0.212330	-1.078335
Cl90	Cl	0.963453	-0.929407	-0.212441
Cl91	Cl	0.644900	-0.271826	-0.178534
Cl92	Cl	0.963332	-0.394077	-0.929858
H93	H	0.507992	-0.383697	-0.236168
Cl94	Cl	0.645812	-0.178723	-0.272318
H95	H	0.984299	-0.376378	-0.543586
H96	H	0.507136	-0.205188	-0.266220
H97	H	0.506151	-0.265516	-0.205888
H98	H	0.506440	-0.239044	-0.386503
Cl99	Cl	0.646704	-0.392124	-0.210817
