data_functionalizedCrystal
_audit_creation_method	'MofGen! by Chris Wilmer'
_symmetry_space_group_name_H-M	'P1'
_symmetry_Int_Tables_number	1
_symmetry_cell_setting	triclinic
loop_
_symmetry_equiv_pos_as_xyz
  x,y,z
_cell_length_a	13.897449
_cell_length_b	17.077402
_cell_length_c	17.077384
_cell_angle_alpha	90.089817
_cell_angle_beta	89.944994
_cell_angle_gamma	89.975837
loop_
_atom_site_label
_atom_site_type_symbol
_atom_site_fract_x
_atom_site_fract_y
_atom_site_fract_z
Zn1	Zn	1.474994	0.312016	-0.443814
Zn2	Zn	1.808328	0.645350	-0.110481
Zn3	Zn	2.141661	0.978683	0.222852
Zn4	Zn	1.474777	0.443429	-0.312545
Zn5	Zn	1.808110	0.776762	0.020788
Zn6	Zn	2.141444	1.110095	0.354122
Zn7	Zn	1.313587	0.312184	-0.312564
Zn8	Zn	1.646920	0.645517	0.020769
Zn9	Zn	1.980254	0.978850	0.354102
Zn10	Zn	1.313650	0.443247	-0.443771
Zn11	Zn	1.646984	0.776580	-0.110438
Zn12	Zn	1.980317	1.109914	0.222895
O13	O	1.394252	0.377719	-0.378174
O14	O	1.727586	0.711052	-0.044841
O15	O	2.060919	1.044386	0.288493
O16	O	1.609947	0.329454	-0.426411
O17	O	1.943280	0.662788	-0.093078
O18	O	2.276614	0.996121	0.240256
O19	O	1.453277	0.426165	-0.202700
O20	O	1.786611	0.759498	0.130633
O21	O	2.119944	1.092832	0.463966
O22	O	1.335062	0.202315	-0.330001
O23	O	1.668395	0.535648	0.003332
O24	O	2.001729	0.868981	0.336666
O25	O	1.609788	0.426002	-0.329968
O26	O	1.943121	0.759336	0.003365
O27	O	2.276454	1.092669	0.336699
O28	O	1.453647	0.202191	-0.426430
O29	O	1.786981	0.535525	-0.093097
O30	O	2.120314	0.868858	0.240237
O31	O	1.334852	0.329740	-0.202715
O32	O	1.668185	0.663073	0.130619
O33	O	2.001518	0.996406	0.463952
O34	O	1.178614	0.329564	-0.329959
O35	O	1.511947	0.662897	0.003374
O36	O	1.845280	0.996230	0.336707
O37	O	1.335171	0.425693	-0.553624
O38	O	1.668504	0.759026	-0.220291
O39	O	2.001837	1.092359	0.113042
O40	O	1.178660	0.425855	-0.426357
O41	O	1.511994	0.759189	-0.093023
O42	O	1.845327	1.092522	0.240310
O43	O	1.453709	0.329278	-0.553656
O44	O	1.787043	0.662611	-0.220323
O45	O	2.120376	0.995945	0.113011
O46	O	1.453339	0.553252	-0.329926
O47	O	1.786672	0.886585	0.003407
O48	O	2.120006	1.219918	0.336740
O49	O	1.334960	0.553118	-0.426338
O50	O	1.668293	0.886451	-0.093005
O51	O	2.001627	1.219785	0.240329
C52	C	1.143638	0.377708	-0.378156
C53	C	1.476971	0.711042	-0.044823
C54	C	1.810304	1.044375	0.288511
C55	C	1.036424	0.377723	-0.378167
C56	C	1.369757	0.711056	-0.044834
C57	C	1.703091	1.044390	0.288500
C58	C	1.394159	0.581667	-0.378143
C59	C	1.727492	0.915000	-0.044809
C60	C	2.060826	1.248333	0.288524
C61	C	1.394207	0.668917	-0.378155
C62	C	1.727541	1.002250	-0.044822
C63	C	2.060874	1.335583	0.288511
C64	C	1.394471	0.377446	-0.582919
C65	C	1.727805	0.710780	-0.249585
C66	C	2.061138	1.044113	0.083748
C67	C	1.394565	0.377330	-0.670169
C68	C	1.727898	0.710664	-0.336835
C69	C	2.061231	1.043997	-0.003502
C70	C	0.840129	0.377726	-0.378187
C71	C	1.173462	0.711059	-0.044854
C72	C	1.506795	1.044392	0.288479
C73	C	0.949361	0.377722	-0.378174
C74	C	1.282695	0.711055	-0.044841
C75	C	1.616028	1.044388	0.288493
C76	C	1.645845	0.377730	-0.378192
C77	C	1.979178	0.711063	-0.044859
C78	C	2.312512	1.044397	0.288474
C79	C	1.753059	0.377735	-0.378200
C80	C	2.086392	0.711068	-0.044867
C81	C	2.419726	1.044401	0.288467
C82	C	1.394372	0.172975	-0.378222
C83	C	1.727705	0.506308	-0.044889
C84	C	2.061039	0.839641	0.288444
C85	C	1.394423	0.085725	-0.378243
C86	C	1.727756	0.419058	-0.044910
C87	C	2.061090	0.752391	0.288423
C88	C	1.455910	0.709950	-0.328008
C89	C	1.789244	1.043283	0.005325
C90	C	2.122577	1.376617	0.338659
C91	C	1.455958	0.791931	-0.328028
C92	C	1.789291	1.125264	0.005305
C93	C	2.122624	1.458597	0.338639
C94	C	1.394296	0.832876	-0.378192
C95	C	1.727630	1.166209	-0.044859
C96	C	2.060963	1.499543	0.288475
C97	C	1.332591	0.791837	-0.428345
C98	C	1.665924	1.125170	-0.095012
C99	C	1.999257	1.458503	0.238322
C100	C	1.332549	0.709858	-0.428328
C101	C	1.665882	1.043191	-0.094995
C102	C	1.999216	1.376524	0.238338
C103	C	1.332680	0.962707	-0.428375
C104	C	1.666013	1.296040	-0.095042
C105	C	1.999347	1.629373	0.238292
C106	C	1.332720	1.044691	-0.428391
C107	C	1.666053	1.378024	-0.095057
C108	C	1.999387	1.711358	0.238276
C109	C	1.456089	1.044779	-0.328074
C110	C	1.789422	1.378113	0.005259
C111	C	2.122755	1.711446	0.338592
C112	C	1.456047	0.962800	-0.328058
C113	C	1.789380	1.296134	0.005276
C114	C	2.122714	1.629467	0.338609
C115	C	1.394340	0.921767	-0.378210
C116	C	1.727673	1.255100	-0.044877
C117	C	2.061006	1.588434	0.288457
C118	C	1.394089	0.377934	-0.174226
C119	C	1.727423	0.711267	0.159108
C120	C	2.060756	1.044600	0.492441
C121	C	1.394183	0.377829	-0.086976
C122	C	1.727516	0.711162	0.246357
C123	C	2.060850	1.044495	0.579691
C124	C	1.332421	0.327544	0.288793
C125	C	1.665755	0.660877	0.622127
C126	C	1.999088	0.994210	0.955460
C127	C	1.332342	0.327644	0.206813
C128	C	1.665675	0.660978	0.540146
C129	C	1.999008	0.994311	0.873480
C130	C	1.394410	0.377528	0.165872
C131	C	1.727744	0.710862	0.499206
C132	C	2.061077	1.044195	0.832539
C133	C	1.456556	0.427321	0.206916
C134	C	1.789890	0.760654	0.540249
C135	C	2.123223	1.093987	0.873583
C136	C	1.456631	0.427223	0.288895
C137	C	1.789964	0.760557	0.622228
C138	C	2.123297	1.093890	0.955562
C139	C	1.456399	0.427519	0.036047
C140	C	1.789732	0.760852	0.369380
C141	C	2.123065	1.094185	0.702713
C142	C	1.456326	0.427615	-0.045938
C143	C	1.789659	0.760949	0.287395
C144	C	2.122993	1.094282	0.620729
C145	C	1.332110	0.327940	-0.046035
C146	C	1.665443	0.661273	0.287298
C147	C	1.998777	0.994606	0.620631
C148	C	1.332184	0.327842	0.035943
C149	C	1.665518	0.661176	0.369277
C150	C	1.998851	0.994509	0.702610
C151	C	1.394332	0.377634	0.076982
C152	C	1.727665	0.710967	0.410315
C153	C	2.060998	1.044301	0.743648
H154	H	1.506118	0.676618	-0.287155
H155	H	1.839451	1.009951	0.046178
H156	H	2.172785	1.343284	0.379512
Br157	Br	1.248188	0.259834	0.344348
Br158	Br	1.581521	0.593167	0.677681
Br159	Br	1.914854	0.926501	1.011014
H160	H	1.506868	0.468235	-0.079270
H161	H	1.840201	0.801569	0.254064
H162	H	2.173535	1.134902	0.587397
Br163	Br	1.247956	0.260134	0.091506
Br164	Br	1.581290	0.593468	0.424839
Br165	Br	1.914623	0.926801	0.758172
Br166	Br	1.539707	0.847616	-0.259972
Br167	Br	1.873040	1.180950	0.073361
Br168	Br	2.206374	1.514283	0.406694
Br169	Br	1.247949	0.260117	0.151121
Br170	Br	1.581282	0.593450	0.484455
Br171	Br	1.914616	0.926783	0.817788
Br172	Br	1.540736	0.495099	0.091741
Br173	Br	1.874070	0.828432	0.425074
Br174	Br	2.207403	1.161765	0.758408
H175	H	1.507089	0.467941	0.173576
H176	H	1.840422	0.801275	0.506909
H177	H	2.173756	1.134608	0.840242
H178	H	1.282305	0.676449	-0.469165
H179	H	1.615639	1.009782	-0.135831
H180	H	1.948972	1.343116	0.197502
H181	H	1.281508	0.287397	-0.079453
H182	H	1.614842	0.620730	0.253881
H183	H	1.948175	0.954063	0.587214
H184	H	1.506251	0.929463	-0.287206
H185	H	1.839585	1.262796	0.046127
H186	H	2.172918	1.596130	0.379460
Br187	Br	1.539821	1.100466	-0.260000
Br188	Br	1.873155	1.433800	0.073334
Br189	Br	2.206488	1.767133	0.406667
Br190	Br	1.540964	0.494800	0.344591
Br191	Br	1.874297	0.828133	0.677924
Br192	Br	2.207630	1.161467	1.011257
H193	H	1.282528	1.078027	-0.469253
H194	H	1.615861	1.411360	-0.135920
H195	H	1.949195	1.744693	0.197413
H196	H	1.282435	0.929300	-0.469217
H197	H	1.615768	1.262633	-0.135884
H198	H	1.949101	1.595966	0.197450
H199	H	1.282389	0.825181	-0.469193
H200	H	1.615722	1.158514	-0.135860
H201	H	1.949056	1.491848	0.197474
