data_functionalizedCrystal
_audit_creation_method	'MofGen! by Chris Wilmer'
_symmetry_space_group_name_H-M	'P1'
_symmetry_Int_Tables_number	1
_symmetry_cell_setting	triclinic
loop_
_symmetry_equiv_pos_as_xyz
  x,y,z
_cell_length_a	19.288840
_cell_length_b	19.288865
_cell_length_c	17.766277
_cell_angle_alpha	89.988397
_cell_angle_beta	89.983415
_cell_angle_gamma	83.131131
loop_
_atom_site_label
_atom_site_type_symbol
_atom_site_fract_x
_atom_site_fract_y
_atom_site_fract_z
O1	O	-0.921364	-0.086566	0.062729
O2	O	-0.719101	-0.098273	0.062704
O3	O	-0.826077	0.008711	0.062702
O4	O	-0.814388	-0.193550	0.062730
O5	O	-0.826058	0.008717	-0.062487
O6	O	-0.719082	-0.098267	-0.062485
O7	O	-0.921345	-0.086560	-0.062460
Cu8	Cu	-0.820212	-0.092413	-0.073903
Cu9	Cu	-0.820234	-0.092420	0.074147
O10	O	-0.814369	-0.193545	-0.062458
C11	C	-0.693215	-0.097896	0.000106
C12	C	-0.616110	-0.096774	0.000096
N13	N	-0.820202	-0.092409	-0.178034
C14	C	-0.825692	0.034591	0.000105
C15	C	-0.824563	0.111694	0.000099
C16	C	-0.947232	-0.086937	0.000139
C17	C	-1.024336	-0.088059	0.000154
C18	C	-0.579917	-0.096238	0.068338
C19	C	-0.507470	-0.095176	0.068347
C20	C	-0.471221	-0.094636	0.000110
C21	C	-0.507423	-0.095176	-0.068141
C22	C	-0.579867	-0.096245	-0.068148
C23	C	-0.361886	-0.052256	-0.052164
C24	C	-0.289443	-0.051183	-0.052155
C25	C	-0.247778	-0.091342	0.000129
C26	C	-0.278565	-0.132566	0.052416
C27	C	-0.351010	-0.133635	0.052408
C28	C	-0.392667	-0.093477	0.000110
C29	C	-0.133029	-0.089655	0.068386
C30	C	-0.060580	-0.088598	0.068392
C31	C	-0.060535	-0.088591	-0.068098
C32	C	-0.132982	-0.089656	-0.068102
C33	C	-0.169225	-0.090185	0.000142
C34	C	-0.814755	-0.219424	0.000140
C35	C	-0.815884	-0.296527	0.000152
C36	C	-0.887331	0.156396	0.000103
C37	C	-0.886270	0.228843	0.000114
C38	C	-0.822438	0.256585	0.000107
C39	C	-0.759661	0.211873	0.000107
C40	C	-0.760723	0.139428	0.000103
C41	C	-0.772251	0.364870	-0.043750
C42	C	-0.771191	0.437314	-0.043750
C43	C	-0.819158	0.480030	0.000123
C44	C	-0.868196	0.450295	0.043988
C45	C	-0.869259	0.377849	0.043984
C46	C	-0.821278	0.335139	0.000112
C47	C	-0.880781	0.603288	0.000141
C48	C	-0.879717	0.675736	0.000158
C49	C	-0.753106	0.658764	0.000143
C50	C	-0.754171	0.586318	0.000134
C51	C	-0.818010	0.558584	0.000130
C52	C	-0.867586	-0.045059	-0.217421
C53	C	-0.867590	-0.045056	-0.296223
C54	C	-0.820216	-0.092414	-0.335634
C55	C	-0.772823	-0.139767	-0.296237
C56	C	-0.772816	-0.139764	-0.217437
C57	C	-0.810917	-0.155703	-0.460464
C58	C	-0.810930	-0.155706	-0.539263
C59	C	-0.820235	-0.092422	-0.578680
C60	C	-0.829543	-0.029132	-0.539290
C61	C	-0.829535	-0.029129	-0.460489
C62	C	-0.820219	-0.092422	-0.421080
C63	C	-0.867626	-0.045065	-0.703514
C64	C	-0.867625	-0.045061	-0.782317
C65	C	-0.772862	-0.139779	-0.782330
C66	C	-0.772859	-0.139777	-0.703528
C67	C	-0.820245	-0.092421	-0.664125
N68	N	-0.820250	-0.092419	0.178277
H69	H	-0.609422	-0.096669	0.123907
H70	H	-0.477996	-0.094741	0.123920
H71	H	-0.837120	0.022400	-0.571382
H72	H	-0.701132	0.681351	0.000141
H73	H	-0.906168	-0.006498	-0.185341
H74	H	-0.703058	0.549920	0.000127
Br75	Br	-0.392791	-0.189580	0.123362
Br76	Br	-0.708552	-0.204042	-0.650067
Br77	Br	-0.418425	0.002248	-0.123130
H78	H	-0.907256	0.485073	0.079715
H79	H	-0.734250	-0.178326	-0.328329
Br80	Br	-0.458229	-0.094451	-0.160749
Br81	Br	-0.222028	-0.187074	0.123376
Br82	Br	-0.182220	-0.090378	0.161000
H83	H	-0.930833	0.712132	0.000165
H84	H	-0.837112	0.022404	-0.428420
Br85	Br	-0.704644	0.477663	-0.103285
Br86	Br	-0.798358	-0.241598	-0.406977
Br87	Br	-0.935804	0.337494	0.103515
H88	H	-0.031112	-0.088165	0.123965
Br89	Br	-0.798305	-0.241598	-0.592714
H90	H	-0.932763	0.580706	0.000141
H91	H	-0.733189	0.330095	-0.079481
H92	H	-0.937386	0.265246	0.000121
Br93	Br	-0.931932	0.019205	-0.650036
H94	H	-0.707687	0.234465	0.000103
Br95	Br	-0.708503	-0.204029	-0.163977
H96	H	-0.709608	0.103030	0.000099
H97	H	-0.031021	-0.088156	-0.123658
Br98	Br	-0.931902	0.019211	-0.349687
Br99	Br	-0.931931	0.019210	-0.835776
H100	H	-0.609335	-0.096683	-0.123721
Br101	Br	-0.182105	-0.090381	-0.160722
Br102	Br	-0.247665	0.004745	-0.123128
H103	H	-0.734287	-0.178336	-0.814418
H104	H	-0.939314	0.133820	0.000102
