data_functionalizedCrystal
_audit_creation_method	'MofGen! by Chris Wilmer'
_symmetry_space_group_name_H-M	'P1'
_symmetry_Int_Tables_number	1
_symmetry_cell_setting	triclinic
loop_
_symmetry_equiv_pos_as_xyz
  x,y,z
_cell_length_a	19.121324
_cell_length_b	19.077105
_cell_length_c	19.076808
_cell_angle_alpha	90.072392
_cell_angle_beta	85.138196
_cell_angle_gamma	89.971547
loop_
_atom_site_label
_atom_site_type_symbol
_atom_site_fract_x
_atom_site_fract_y
_atom_site_fract_z
Zn1	Zn	-0.426783	-1.045509	-0.304069
Zn2	Zn	0.073217	-0.545509	0.195931
Zn3	Zn	-0.304408	-1.045715	-0.427013
Zn4	Zn	0.195592	-0.545715	0.072987
Zn5	Zn	-0.304814	-0.933000	-0.304773
Zn6	Zn	0.195186	-0.433000	0.195227
Zn7	Zn	-0.417323	-0.923635	-0.417237
Zn8	Zn	0.082677	-0.423635	0.082763
O9	O	-0.363332	-0.986965	-0.363273
O10	O	0.136668	-0.486965	0.136727
O11	O	-0.414340	-1.143712	-0.324175
O12	O	0.085660	-0.643712	0.175825
O13	O	-0.206162	-1.034769	-0.415183
O14	O	0.293838	-0.534769	0.084817
O15	O	-0.325123	-0.951757	-0.206161
O16	O	0.174877	-0.451757	0.293839
O17	O	-0.324431	-1.143864	-0.414500
O18	O	0.175569	-0.643864	0.085500
O19	O	-0.414733	-1.034417	-0.205644
O20	O	0.085267	-0.534417	0.294356
O21	O	-0.206460	-0.951957	-0.325374
O22	O	0.293540	-0.451957	0.174626
O23	O	-0.315949	-0.833581	-0.315895
O24	O	0.184051	-0.333581	0.184105
O25	O	-0.516877	-0.935797	-0.397839
O26	O	-0.016877	-0.435797	0.102161
O27	O	-0.398608	-0.826701	-0.398522
O28	O	0.101392	-0.326701	0.101478
O29	O	-0.523828	-1.025336	-0.314695
O30	O	-0.023828	-0.525336	0.185305
O31	O	-0.315257	-1.025689	-0.524234
O32	O	0.184743	-0.525689	-0.024234
O33	O	-0.398215	-0.935997	-0.517052
O34	O	0.101785	-0.435997	-0.017052
C35	C	-0.356296	-0.804685	-0.356225
C36	C	0.143704	-0.304685	0.143775
C37	C	-0.353302	-0.726704	-0.353226
C38	C	0.146698	-0.226704	0.146774
C39	C	-0.355682	-0.979867	-0.546188
C40	C	0.144318	-0.479867	-0.046188
C41	C	-0.352435	-0.976894	-0.624442
C42	C	0.147565	-0.476894	-0.124442
C43	C	-0.546553	-0.979499	-0.355098
C44	C	-0.046553	-0.479499	0.144902
C45	C	-0.624632	-0.976317	-0.351615
C46	C	-0.124632	-0.476317	0.148385
C47	C	-0.661160	-1.017935	-0.396734
C48	C	-0.161160	-0.517935	0.103266
C49	C	-0.734523	-1.014946	-0.393452
C50	C	-0.234523	-0.514946	0.106548
C51	C	-0.771356	-0.970335	-0.345054
C52	C	-0.271356	-0.470335	0.154946
C53	C	-0.734822	-0.928716	-0.299930
C54	C	-0.234822	-0.428716	0.200070
C55	C	-0.661461	-0.931709	-0.303209
C56	C	-0.161461	-0.431709	0.196791
C57	C	-0.992868	-0.959143	-0.332812
C58	C	-0.492868	-0.459143	0.167188
C59	C	-1.066234	-0.956152	-0.329538
C60	C	-0.566234	-0.456152	0.170462
C61	C	-1.065930	-1.042383	-0.423060
C62	C	-0.565930	-0.542383	0.076940
C63	C	-0.992567	-1.045369	-0.426337
C64	C	-0.492567	-0.545369	0.073663
C65	C	-0.956040	-1.003753	-0.381211
C66	C	-0.456040	-0.503753	0.118789
C67	C	-0.846345	-0.967277	-0.341700
C68	C	-0.346345	-0.467277	0.158300
C69	C	-0.881053	-1.006815	-0.384562
C70	C	-0.381053	-0.506815	0.115438
C71	C	-0.180827	-0.994444	-0.371367
C72	C	0.319173	-0.494444	0.128633
C73	C	-0.102763	-0.997769	-0.374657
C74	C	0.397237	-0.497769	0.125343
C75	C	-0.370396	-1.169956	-0.370349
C76	C	0.129604	-0.669956	0.129651
C77	C	-0.373406	-1.247936	-0.373365
C78	C	0.126594	-0.747936	0.126635
C79	C	-0.394859	-0.686505	-0.394907
C80	C	0.105141	-0.186505	0.105093
C81	C	-0.392049	-0.613233	-0.392079
C82	C	0.107951	-0.113233	0.107921
C83	C	-0.347679	-0.580162	-0.347574
C84	C	0.152321	-0.080162	0.152426
C85	C	-0.306121	-0.620367	-0.305888
C86	C	0.193879	-0.120367	0.194112
C87	C	-0.308935	-0.693637	-0.308712
C88	C	0.191065	-0.193637	0.191288
C89	C	-0.334661	-0.361411	-0.334503
C90	C	0.165339	0.138589	0.165497
C91	C	-0.331849	-0.288135	-0.331684
C92	C	0.168151	0.211865	0.168316
C93	C	-0.417779	-0.281007	-0.417874
C94	C	0.082221	0.218993	0.082126
C95	C	-0.420585	-0.354278	-0.420698
C96	C	0.079415	0.145722	0.079302
C97	C	-0.379030	-0.394477	-0.379009
C98	C	0.120970	0.105523	0.120991
N99	N	-0.344805	-0.505267	-0.344684
N100	N	0.155195	-0.005267	0.155316
N101	N	-0.381908	-0.469370	-0.381895
N102	N	0.118092	0.030630	0.118105
C103	C	-0.397600	-1.018499	-0.660872
C104	C	0.102400	-0.518499	-0.160872
C105	C	-0.394550	-1.015703	-0.734399
C106	C	0.105450	-0.515703	-0.234399
C107	C	-0.346331	-0.971305	-0.771495
C108	C	0.153669	-0.471305	-0.271495
C109	C	-0.301164	-0.929695	-0.735059
C110	C	0.198836	-0.429695	-0.235059
C111	C	-0.304218	-0.932489	-0.661533
C112	C	0.195782	-0.432489	-0.161533
C113	C	-0.332195	-0.958336	-0.991430
C114	C	0.167805	-0.458336	-0.491430
C115	C	-0.329143	-0.955548	-1.064961
C116	C	0.170857	-0.455548	-0.564961
C117	C	-0.422530	-1.041555	-1.064297
C118	C	0.077470	-0.541555	-0.564297
C119	C	-0.425577	-1.044347	-0.990769
C120	C	0.074423	-0.544347	-0.490769
C121	C	-0.380412	-1.002735	-0.954340
C122	C	0.119588	-0.502735	-0.454340
N123	N	-0.343211	-0.968447	-0.846651
N124	N	0.156789	-0.468447	-0.346651
N125	N	-0.383536	-1.005589	-0.879184
N126	N	0.116464	-0.505589	-0.379184
C127	C	-0.371028	-0.994108	-0.179644
C128	C	0.128972	-0.494108	0.320356
C129	C	-0.374308	-0.997153	-0.101392
C130	C	0.125692	-0.497153	0.398608
H131	H	-0.631177	-1.054264	-0.436143
H132	H	-0.131177	-0.554264	0.063857
N133	N	-0.264111	-0.737002	-0.263762
N134	N	0.235889	-0.237002	0.236238
H135	H	-0.295245	-0.767503	-0.231078
H136	H	0.204755	-0.267503	0.268922
H137	H	-0.235579	-0.704891	-0.235184
H138	H	0.264421	-0.204891	0.264816
H139	H	-0.962582	-1.081684	-0.465759
H140	H	-0.462582	-0.581684	0.034241
H141	H	-0.876342	-0.930953	-0.302295
H142	H	-0.376342	-0.430953	0.197705
H143	H	-0.764262	-1.048835	-0.430193
H144	H	-0.264262	-0.548835	0.069807
N145	N	-0.283476	-0.913464	-0.952146
N146	N	0.216524	-0.413464	-0.452146
H147	H	-0.253317	-0.944488	-0.924179
H148	H	0.246683	-0.444488	-0.424179
H149	H	-0.312052	-0.880926	-0.919170
H150	H	0.187948	-0.380926	-0.419170
N151	N	-1.105950	-0.908014	-0.277345
N152	N	-0.605950	-0.408014	0.222655
H153	H	-1.133918	-0.873146	-0.303354
H154	H	-0.633918	-0.373146	0.196646
H155	H	-1.071625	-0.882153	-0.249280
H156	H	-0.571625	-0.382153	0.250720
N157	N	-0.622064	-0.886823	-0.254539
N158	N	-0.122064	-0.386823	0.245461
H159	H	-0.632434	-0.835749	-0.262961
H160	H	-0.132434	-0.335749	0.237039
H161	H	-0.570015	-0.895547	-0.263979
H162	H	-0.070015	-0.395547	0.236021
H163	H	-0.295722	-0.261211	-0.295434
H164	H	0.204278	0.238789	0.204566
H165	H	-0.261906	-0.893543	-0.765267
H166	H	0.238094	-0.393543	-0.265267
N167	N	-0.436864	-0.569875	-0.437042
N168	N	0.063136	-0.069875	0.062958
H169	H	-0.405726	-0.539372	-0.469721
H170	H	0.094274	-0.039372	0.030279
H171	H	-0.469489	-0.539303	-0.405812
H172	H	0.030511	-0.039303	0.094188
H173	H	-0.464840	-1.080499	-0.960568
H174	H	0.035160	-0.580499	-0.460568
H175	H	-0.267441	-0.898609	-0.631871
H176	H	0.232559	-0.398609	-0.131871
N177	N	-0.471242	-1.086433	-1.103588
N178	N	0.028758	-0.586433	-0.603588
H179	H	-0.461993	-1.077928	-1.155795
H180	H	0.038007	-0.577928	-0.655795
H181	H	-0.521512	-1.073916	-1.088066
H182	H	-0.021512	-0.573916	-0.588066
N183	N	-0.277132	-0.907661	-1.104974
N184	N	0.222868	-0.407661	-0.604974
H185	H	-0.248984	-0.881723	-1.070739
H186	H	0.251016	-0.381723	-0.570739
H187	H	-0.303180	-0.872852	-1.132973
H188	H	0.196820	-0.372852	-0.632973
N189	N	-0.449605	-1.066384	-0.620860
N190	N	0.050395	-0.566384	-0.120860
H191	H	-0.440144	-1.116479	-0.636037
H192	H	0.059856	-0.616479	-0.136037
H193	H	-0.498811	-1.052856	-0.631000
H194	H	0.001189	-0.552856	-0.131000
N195	N	-1.105327	-1.087265	-0.471732
N196	N	-0.605327	-0.587265	0.028268
H197	H	-1.157390	-1.078601	-0.462314
H198	H	-0.657390	-0.578601	0.037686
H199	H	-1.094899	-1.138320	-0.463287
H200	H	-0.594899	-0.638320	0.036713
H201	H	-0.269998	-0.593435	-0.269648
H202	H	0.230002	-0.093435	0.230352
N203	N	-0.442712	-0.722168	-0.442915
N204	N	0.057288	-0.222168	0.057085
H205	H	-0.492885	-0.707803	-0.429328
H206	H	0.007115	-0.207803	0.070672
H207	H	-0.438130	-0.774675	-0.438363
H208	H	0.061870	-0.274675	0.061637
N209	N	-0.953477	-0.914271	-0.284131
N210	N	-0.453477	-0.414271	0.215869
H211	H	-0.987944	-0.885560	-0.252973
H212	H	-0.487944	-0.385560	0.247027
H213	H	-0.920576	-0.881927	-0.312878
H214	H	-0.420576	-0.381927	0.187122
H215	H	-0.451611	-0.248269	-0.451814
H216	H	0.048389	0.251731	0.048186
N217	N	-0.468437	-0.389947	-0.468704
N218	N	0.031563	0.110053	0.031296
H219	H	-0.494337	-0.353362	-0.494681
H220	H	0.005663	0.146638	0.005319
H221	H	-0.503356	-0.420138	-0.439820
H222	H	-0.003356	0.079862	0.060180
H223	H	-0.764817	-0.892396	-0.260520
H224	H	-0.264817	-0.392396	0.239480
N225	N	-0.443297	-1.060539	-0.773691
N226	N	0.056703	-0.560539	-0.273691
H227	H	-0.474315	-1.089080	-0.739033
H228	H	0.025685	-0.589080	-0.239033
H229	H	-0.414753	-1.093043	-0.806728
H230	H	0.085247	-0.593043	-0.306728
H231	H	-0.300818	-0.394131	-0.300563
H232	H	0.199182	0.105869	0.199437
H233	H	-0.851061	-1.043140	-0.423965
H234	H	-0.351061	-0.543140	0.076035
