data_functionalizedCrystal
_audit_creation_method	'MofGen! by Chris Wilmer'
_symmetry_space_group_name_H-M	'P1'
_symmetry_Int_Tables_number	1
_symmetry_cell_setting	triclinic
loop_
_symmetry_equiv_pos_as_xyz
  x,y,z
_cell_length_a	9.065215
_cell_length_b	12.996460
_cell_length_c	9.065218
_cell_angle_alpha	90.001592
_cell_angle_beta	94.984709
_cell_angle_gamma	90.005726
loop_
_atom_site_label
_atom_site_type_symbol
_atom_site_fract_x
_atom_site_fract_y
_atom_site_fract_z
O1	O	1.960409	0.085550	-0.216326
O2	O	2.460409	0.585550	0.283674
O3	O	1.531123	0.085555	-0.234077
O4	O	2.031123	0.585555	0.265923
O5	O	1.754639	0.085550	-0.010559
O6	O	2.254639	0.585550	0.489441
O7	O	1.736893	0.085555	-0.439844
O8	O	2.236893	0.585555	0.060156
O9	O	1.754610	-0.085584	-0.010572
O10	O	2.254610	0.414416	0.489428
O11	O	1.531094	-0.085579	-0.234090
O12	O	2.031094	0.414421	0.265910
O13	O	1.960380	-0.085584	-0.216339
O14	O	2.460380	0.414416	0.283661
Cu15	Cu	1.745734	-0.101207	-0.225216
Cu16	Cu	2.245734	0.398793	0.274784
Cu17	Cu	1.745769	0.101178	-0.225201
Cu18	Cu	2.245769	0.601178	0.274799
O19	O	1.736864	-0.085579	-0.439857
O20	O	2.236864	0.414421	0.060143
C21	C	1.476122	-0.000012	-0.232379
C22	C	1.976122	0.499988	0.267621
C23	C	1.312279	-0.000010	-0.227281
C24	C	1.812279	0.499990	0.272719
N25	N	1.745721	-0.243554	-0.225226
N26	N	2.245721	0.256446	0.274774
C27	C	1.745728	-0.336660	-0.225229
C28	C	2.245728	0.163340	0.274771
C29	C	1.745741	-0.453465	-0.225220
C30	C	2.245741	0.046535	0.274780
C31	C	1.745759	-0.546564	-0.225204
C32	C	2.245759	-0.046564	0.274796
C33	C	1.745775	-0.663376	-0.225195
C34	C	2.245775	-0.163376	0.274805
C35	C	2.015381	-0.000015	-0.218038
C36	C	2.515381	0.499985	0.281962
C37	C	2.179224	-0.000010	-0.223136
C38	C	2.679224	0.499990	0.276864
C39	C	1.752919	-0.000015	0.044421
C40	C	2.252919	0.499985	0.544421
C41	C	1.747819	-0.000010	0.208264
C42	C	2.247819	0.499990	0.708264
N43	N	1.745793	0.243525	-0.225179
N44	N	2.245793	0.743525	0.274821
C45	C	1.738584	-0.000012	-0.494837
C46	C	2.238584	0.499988	0.005163
C47	C	1.743683	-0.000010	-0.658680
C48	C	2.243683	0.499990	-0.158680
