data_functionalizedCrystal
_audit_creation_method	'MofGen! by Chris Wilmer'
_symmetry_space_group_name_H-M	'P1'
_symmetry_Int_Tables_number	1
_symmetry_cell_setting	triclinic
loop_
_symmetry_equiv_pos_as_xyz
  x,y,z
_cell_length_a	13.635800
_cell_length_b	8.626579
_cell_length_c	21.370280
_cell_angle_alpha	91.183942
_cell_angle_beta	116.957370
_cell_angle_gamma	104.969810
loop_
_atom_site_label
_atom_site_type_symbol
_atom_site_fract_x
_atom_site_fract_y
_atom_site_fract_z
V1	V	-2.059025	-0.501504	-0.098417
O2	O	-2.014307	-0.491177	0.003460
O3	O	-2.070640	-0.498824	-0.193924
O4	O	-2.038231	-0.719885	-0.097460
O5	O	-2.046940	-0.268586	-0.093672
V6	V	-2.295757	-0.473554	-0.086166
O7	O	-2.200687	-0.562814	-0.125292
O8	O	-2.379194	-0.412243	-0.059291
O9	O	-2.172539	-0.476234	0.009341
O10	O	-2.399174	-0.483880	-0.188043
O11	O	-2.366541	-0.706472	-0.090911
O12	O	-2.204948	-0.255173	-0.087123
C13	C	-2.001743	-0.491106	-0.217189
C14	C	-2.051905	-0.490371	-0.295271
C15	C	-1.960401	-0.773089	-0.094139
C16	C	-1.984278	-0.951622	-0.093988
V17	V	-1.559025	-0.501504	-0.098417
O18	O	-1.514307	-0.491177	0.003460
O19	O	-1.570640	-0.498824	-0.193924
O20	O	-1.538231	-0.719885	-0.097460
O21	O	-1.546940	-0.268586	-0.093672
V22	V	-1.795757	-0.473554	-0.086166
O23	O	-1.700687	-0.562814	-0.125292
O24	O	-1.879194	-0.412243	-0.059291
O25	O	-1.672539	-0.476234	0.009341
O26	O	-1.899174	-0.483880	-0.188043
O27	O	-1.866541	-0.706472	-0.090911
O28	O	-1.704948	-0.255173	-0.087123
C29	C	-2.048901	-0.342859	-0.321550
C30	C	-2.096044	-0.342145	-0.394915
C31	C	-2.146185	-0.488945	-0.442000
C32	C	-2.149192	-0.636468	-0.415718
C33	C	-2.102056	-0.637181	-0.342354
C34	C	-2.114450	-0.201960	-0.090446
C35	C	-2.080190	-0.023426	-0.090593
C36	C	-2.073109	-0.483947	0.032603
C37	C	-2.012566	-0.484693	0.110684
C38	C	-1.501743	-0.491106	-0.217189
C39	C	-1.551905	-0.490371	-0.295271
C40	C	-1.665146	-0.481959	0.671653
C41	C	-1.722043	-0.481269	0.598287
C42	C	-1.665686	-0.488959	0.558001
C43	C	-1.552429	-0.497381	0.591085
C44	C	-1.495539	-0.498087	0.664449
N45	N	-1.669217	-0.401954	0.446627
N46	N	-1.723265	-0.401280	0.376935
C47	C	-1.837088	-0.486837	0.336960
N48	N	-1.894831	-0.573073	0.369313
N49	N	-1.840778	-0.573740	0.439012
C50	C	-1.727364	-0.488196	0.478450
C51	C	-2.012030	-0.477680	0.224333
C52	C	-2.068928	-0.477000	0.150965
C53	C	-1.899306	-0.493097	0.143765
C54	C	-1.842416	-0.493792	0.217131
C55	C	-1.898782	-0.486075	0.257411
C56	C	-1.460401	-0.773089	-0.094139
C57	C	-1.484278	-0.951622	-0.093988
C58	C	-1.573109	-0.483947	0.032603
C59	C	-1.512566	-0.484693	0.110684
C60	C	-1.614450	-0.201960	-0.090446
C61	C	-1.580190	-0.023426	-0.090593
C62	C	-1.568944	-0.476991	0.150953
C63	C	-1.512065	-0.477665	0.224321
C64	C	-1.398810	-0.486054	0.257418
C65	C	-1.342428	-0.493752	0.217144
C66	C	-1.399304	-0.493066	0.143778
H67	H	-2.008072	-0.223311	-0.283220
O68	O	-2.178878	-0.468598	0.118774
C69	C	-2.307001	-0.318497	0.050058
C70	C	-2.182440	-0.327848	0.086465
H71	H	-2.309918	-0.204693	0.023939
H72	H	-2.365802	-0.430656	0.007866
H73	H	-2.337488	-0.313173	0.091465
H74	H	-2.151847	-0.333121	0.045110
H75	H	-2.123716	-0.215693	0.128669
O76	O	-1.719974	-0.474267	0.710716
C77	C	-1.812991	-0.320842	0.749229
C78	C	-1.750937	-0.329354	0.704949
H79	H	-1.838020	-0.203674	0.744594
H80	H	-1.893924	-0.429631	0.728584
H81	H	-1.752886	-0.322878	0.807337
H82	H	-1.810950	-0.327269	0.646833
H83	H	-1.669989	-0.220573	0.725653
H84	H	-1.814260	-0.474418	0.571351
O85	O	-1.385457	-0.505961	0.696570
C86	C	-1.188593	-0.380124	0.722704
C87	C	-1.313209	-0.370994	0.686309
H88	H	-1.130150	-0.271037	0.714408
H89	H	-1.157523	-0.379199	0.782072
H90	H	-1.185872	-0.496981	0.698530
H91	H	-1.316027	-0.254152	0.710424
H92	H	-1.344226	-0.372010	0.626942
H93	H	-2.136071	0.051703	-0.087766
H94	H	-1.648980	-0.977243	-0.100197
H95	H	-1.506547	-0.503647	0.558280
H96	H	-1.353388	-0.499352	0.110995
H97	H	-1.418143	-1.013394	-0.091056
H98	H	-2.190024	-0.755988	-0.454065
O99	O	-2.092966	-0.198686	-0.420315
C100	C	-2.035300	0.093161	-0.391923
C101	C	-2.038688	-0.069185	-0.363064
H102	H	-1.991441	0.197903	-0.345651
H103	H	-1.984941	0.107135	-0.422965
H104	H	-2.127096	0.094617	-0.428529
H105	H	-1.946935	-0.070754	-0.326429
H106	H	-2.089110	-0.083093	-0.332063
H107	H	-1.557992	-0.471399	0.257102
O108	O	-1.679028	-0.469122	0.118760
C109	C	-1.876190	-0.598785	0.030202
C110	C	-1.751579	-0.607934	0.066604
H111	H	-1.934879	-0.710983	-0.011983
H112	H	-1.906783	-0.593488	0.071559
H113	H	-1.879140	-0.485030	0.004049
H114	H	-1.748532	-0.721678	0.092756
H115	H	-1.721039	-0.613141	0.025217
O116	O	-2.191866	-0.487945	-0.513242
C117	C	-2.230381	-0.325399	-0.607097
C118	C	-2.178590	-0.326309	-0.526401
H119	H	-2.219688	-0.194732	-0.617763
H120	H	-2.183889	-0.384143	-0.628896
H121	H	-2.325994	-0.396677	-0.634379
H122	H	-2.082983	-0.255014	-0.499060
H123	H	-2.225169	-0.267624	-0.504655
H124	H	-2.104505	-0.757306	-0.320965
O125	O	-1.917464	-0.041113	-0.097235
C126	C	-1.730659	-0.084505	-0.042058
C127	C	-1.806204	0.016960	-0.038286
H128	H	-1.640684	-0.037570	0.005587
H129	H	-1.771030	-0.217376	-0.041325
H130	H	-1.724321	-0.073616	-0.093266
H131	H	-1.812571	0.006207	0.012915
H132	H	-1.765803	0.149788	-0.039059
O133	O	-2.066655	-0.469915	0.263518
C134	C	-2.066310	-0.321554	0.360439
C135	C	-2.004347	-0.330129	0.316109
H136	H	-2.015947	-0.208564	0.402978
H137	H	-2.157016	-0.315329	0.324237
H138	H	-2.071801	-0.434506	0.386952
H139	H	-1.998769	-0.217205	0.289590
H140	H	-1.913676	-0.336434	0.352345
O141	O	-1.732349	-0.501713	0.249360
C142	C	-1.535168	-0.371922	0.337858
C143	C	-1.659776	-0.362763	0.301432
H144	H	-1.476453	-0.259579	0.379955
H145	H	-1.532083	-0.485552	0.364097
H146	H	-1.504705	-0.377373	0.296445
H147	H	-1.690316	-0.357250	0.342800
H148	H	-1.662789	-0.249150	0.275178
H149	H	-1.853420	-0.499368	0.110965
H150	H	-1.352510	-0.486610	0.317157
H151	H	-1.250209	-0.500580	0.244102
