data_functionalizedCrystal
_audit_creation_method	'MofGen! by Chris Wilmer'
_symmetry_space_group_name_H-M	'P1'
_symmetry_Int_Tables_number	1
_symmetry_cell_setting	triclinic
loop_
_symmetry_equiv_pos_as_xyz
  x,y,z
_cell_length_a	16.109301
_cell_length_b	15.186229
_cell_length_c	16.109295
_cell_angle_alpha	90.002834
_cell_angle_beta	83.460334
_cell_angle_gamma	89.997109
loop_
_atom_site_label
_atom_site_type_symbol
_atom_site_fract_x
_atom_site_fract_y
_atom_site_fract_z
O1	O	-1.103132	0.073167	-0.106862
O2	O	-0.853132	0.323167	0.143138
O3	O	-0.603132	0.573167	0.393138
O4	O	-0.353132	0.823167	0.643138
O5	O	-0.861069	0.073180	-0.120161
O6	O	-0.611069	0.323180	0.129839
O7	O	-0.361069	0.573180	0.379839
O8	O	-0.111069	0.823180	0.629839
O9	O	-0.988753	0.073174	0.007520
O10	O	-0.738753	0.323174	0.257520
O11	O	-0.488753	0.573174	0.507520
O12	O	-0.238753	0.823174	0.757520
O13	O	-0.975448	0.073173	-0.234543
O14	O	-0.725448	0.323173	0.015457
O15	O	-0.475448	0.573173	0.265457
O16	O	-0.225448	0.823173	0.515457
O17	O	-0.988738	-0.073283	0.007513
O18	O	-0.738738	0.176717	0.257513
O19	O	-0.488738	0.426717	0.507513
O20	O	-0.238738	0.676717	0.757513
O21	O	-0.861054	-0.073277	-0.120168
O22	O	-0.611054	0.176723	0.129832
O23	O	-0.361054	0.426723	0.379832
O24	O	-0.111054	0.676723	0.629832
O25	O	-1.103117	-0.073291	-0.106869
O26	O	-0.853117	0.176709	0.143131
O27	O	-0.603117	0.426709	0.393131
O28	O	-0.353117	0.676709	0.643131
Zn29	Zn	-0.982083	-0.096537	-0.113520
Zn30	Zn	-0.732083	0.153463	0.136480
Zn31	Zn	-0.482083	0.403463	0.386480
Zn32	Zn	-0.232083	0.653463	0.636480
Zn33	Zn	-0.982103	0.096427	-0.113510
Zn34	Zn	-0.732103	0.346427	0.136490
Zn35	Zn	-0.482103	0.596427	0.386490
Zn36	Zn	-0.232103	0.846427	0.636490
O37	O	-0.975433	-0.073285	-0.234550
O38	O	-0.725433	0.176715	0.015450
O39	O	-0.475433	0.426715	0.265450
O40	O	-0.225433	0.676715	0.515450
C41	C	-0.830087	-0.000047	-0.119626
C42	C	-0.580087	0.249953	0.130374
C43	C	-0.330087	0.499953	0.380374
C44	C	-0.080087	0.749953	0.630374
C45	C	-0.737792	-0.000042	-0.118011
C46	C	-0.487792	0.249958	0.131989
C47	C	-0.237792	0.499958	0.381989
C48	C	0.012208	0.749958	0.631989
N49	N	-0.982076	-0.228230	-0.113526
N50	N	-0.732076	0.021770	0.136474
N51	N	-0.482076	0.271770	0.386474
N52	N	-0.232076	0.521770	0.636474
C53	C	-0.988207	-0.000052	0.038491
C54	C	-0.738207	0.249948	0.288491
C55	C	-0.488207	0.499948	0.538491
C56	C	-0.238207	0.749948	0.788491
C57	C	-0.986594	-0.000046	0.130787
C58	C	-0.736594	0.249954	0.380787
C59	C	-0.486594	0.499954	0.630787
C60	C	-0.236594	0.749954	0.880787
C61	C	-1.134099	-0.000062	-0.107404
C62	C	-0.884099	0.249938	0.142596
C63	C	-0.634099	0.499938	0.392596
C64	C	-0.384099	0.749938	0.642596
C65	C	-1.226394	-0.000061	-0.109019
C66	C	-0.976394	0.249939	0.140981
C67	C	-0.726394	0.499939	0.390981
C68	C	-0.476394	0.749939	0.640981
C69	C	-0.515518	-0.000052	-0.190019
C70	C	-0.265518	0.249948	0.059981
C71	C	-0.015518	0.499948	0.309981
C72	C	0.234482	0.749948	0.559981
C73	C	-0.428798	-0.000058	-0.188495
C74	C	-0.178798	0.249942	0.061505
C75	C	0.071202	0.499942	0.311505
C76	C	0.321202	0.749942	0.561505
C77	C	-0.448675	-0.000053	-0.037006
C78	C	-0.198675	0.249947	0.212994
C79	C	0.051325	0.499947	0.462994
C80	C	0.301325	0.749947	0.712994
C81	C	-0.535394	-0.000054	-0.038531
C82	C	-0.285394	0.249946	0.211469
C83	C	-0.035394	0.499946	0.461469
C84	C	0.214606	0.749946	0.711469
C85	C	-0.568813	-0.000049	-0.115040
C86	C	-0.318813	0.249951	0.134960
C87	C	-0.068813	0.499951	0.384960
C88	C	0.181187	0.749951	0.634960
C89	C	-0.395374	-0.000054	-0.111991
C90	C	-0.145374	0.249946	0.138009
C91	C	0.104626	0.499946	0.388009
C92	C	0.354626	0.749946	0.638009
C93	C	-0.301348	-0.000060	-0.110338
C94	C	-0.051348	0.249940	0.139662
C95	C	0.198652	0.499940	0.389662
C96	C	0.448652	0.749940	0.639662
C97	C	-0.662845	-0.000044	-0.116693
C98	C	-0.412845	0.249956	0.133307
C99	C	-0.162845	0.499956	0.383307
C100	C	0.087155	0.749956	0.633307
C101	C	-1.032499	-0.453956	-0.163954
C102	C	-0.782499	-0.203956	0.086046
C103	C	-0.532499	0.046044	0.336046
C104	C	-0.282499	0.296044	0.586046
C105	C	-1.032508	-0.546146	-0.163948
C106	C	-0.782508	-0.296146	0.086052
C107	C	-0.532508	-0.046146	0.336052
C108	C	-0.282508	0.203854	0.586052
C109	C	-0.931692	-0.546148	-0.063064
C110	C	-0.681692	-0.296148	0.186936
C111	C	-0.431692	-0.046148	0.436936
C112	C	-0.181692	0.203852	0.686936
C113	C	-0.931688	-0.453960	-0.063066
C114	C	-0.681688	-0.203960	0.186934
C115	C	-0.431688	0.046040	0.436934
C116	C	-0.181688	0.296040	0.686934
C117	C	-0.982090	-0.407866	-0.113516
C118	C	-0.732090	-0.157866	0.136484
C119	C	-0.482090	0.092134	0.386484
C120	C	-0.232090	0.342134	0.636484
C121	C	-0.982103	-0.592244	-0.113508
C122	C	-0.732103	-0.342244	0.136492
C123	C	-0.482103	-0.092244	0.386492
C124	C	-0.232103	0.157756	0.636492
C125	C	-0.982112	-0.692200	-0.113501
C126	C	-0.732112	-0.442200	0.136499
C127	C	-0.482112	-0.192200	0.386499
C128	C	-0.232112	0.057800	0.636499
C129	C	-0.982082	-0.307904	-0.113522
C130	C	-0.732082	-0.057904	0.136478
C131	C	-0.482082	0.192096	0.386478
C132	C	-0.232082	0.442096	0.636478
N133	N	-0.982117	0.228119	-0.113498
N134	N	-0.732117	0.478119	0.136502
N135	N	-0.482117	0.728119	0.386502
N136	N	-0.232117	0.978119	0.636502
C137	C	-1.058606	-0.000017	0.353060
C138	C	-0.808606	0.249983	0.603060
C139	C	-0.558606	0.499983	0.853060
C140	C	-0.308606	0.749983	1.103060
C141	C	-1.057084	-0.000003	0.439780
C142	C	-0.807084	0.249997	0.689780
C143	C	-0.557084	0.499997	0.939780
C144	C	-0.307084	0.749997	1.189780
C145	C	-0.905595	0.000001	0.419906
C146	C	-0.655595	0.250001	0.669906
C147	C	-0.405595	0.500001	0.919906
C148	C	-0.155595	0.750001	1.169906
C149	C	-0.907118	-0.000007	0.333187
C150	C	-0.657118	0.249993	0.583187
C151	C	-0.407118	0.499993	0.833187
C152	C	-0.157118	0.749993	1.083187
C153	C	-0.983626	-0.000021	0.299766
C154	C	-0.733626	0.249979	0.549766
C155	C	-0.483626	0.499979	0.799766
C156	C	-0.233626	0.749979	1.049766
C157	C	-0.980580	0.000002	0.473206
C158	C	-0.730580	0.250002	0.723206
C159	C	-0.480580	0.500002	0.973206
C160	C	-0.230580	0.750002	1.223206
C161	C	-0.978929	0.000018	0.567232
C162	C	-0.728929	0.250018	0.817232
C163	C	-0.478929	0.500018	1.067232
C164	C	-0.228929	0.750018	1.317232
C165	C	-0.985277	-0.000035	0.205734
C166	C	-0.735277	0.249965	0.455734
C167	C	-0.485277	0.499965	0.705734
C168	C	-0.235277	0.749965	0.955734
C169	C	-0.975984	-0.000035	0.734479
C170	C	-0.725984	0.249965	0.984479
C171	C	-0.475984	0.499965	1.234479
C172	C	-0.225984	0.749965	1.484479
C173	C	-0.977612	0.000027	0.642186
C174	C	-0.727612	0.250027	0.892186
C175	C	-0.477612	0.500027	1.142186
C176	C	-0.227612	0.750027	1.392186
H177	H	-0.542724	-0.000055	-0.252317
H178	H	-0.292724	0.249945	-0.002317
H179	H	-0.042724	0.499945	0.247683
H180	H	0.207276	0.749945	0.497683
H181	H	-0.385408	-0.000062	-0.249551
H182	H	-0.135408	0.249938	0.000449
H183	H	0.114592	0.499938	0.250449
H184	H	0.364592	0.749938	0.500449
H185	H	-1.073539	-0.416429	-0.205034
H186	H	-0.823539	-0.166429	0.044966
H187	H	-0.573539	0.083571	0.294966
H188	H	-0.323539	0.333571	0.544966
H189	H	-0.421454	-0.000063	0.025285
H190	H	-0.171454	0.249937	0.275285
H191	H	0.078546	0.499937	0.525285
H192	H	0.328546	0.749937	0.775285
H193	H	-0.890639	-0.416433	-0.021989
H194	H	-0.640639	-0.166433	0.228011
H195	H	-0.390639	0.083567	0.478011
H196	H	-0.140639	0.333567	0.728011
Cl197	Cl	-1.151349	0.000004	0.506775
Cl198	Cl	-0.901349	0.250004	0.756775
Cl199	Cl	-0.651349	0.500004	1.006775
Cl200	Cl	-0.401349	0.750004	1.256775
Cl201	Cl	-0.809418	0.000018	0.461927
Cl202	Cl	-0.559418	0.250018	0.711927
Cl203	Cl	-0.309418	0.500018	0.961927
Cl204	Cl	-0.059418	0.750018	1.211927
Cl205	Cl	-0.602398	-0.000057	0.055737
Cl206	Cl	-0.352398	0.249943	0.305737
Cl207	Cl	-0.102398	0.499943	0.555737
Cl208	Cl	0.147602	0.749943	0.805737
H209	H	-0.846056	-0.000007	0.289793
H210	H	-0.596056	0.249993	0.539793
H211	H	-0.346056	0.499993	0.789793
H212	H	-0.096056	0.749993	1.039793
Cl213	Cl	-0.868327	-0.604101	0.000349
Cl214	Cl	-0.618327	-0.354101	0.250349
Cl215	Cl	-0.368327	-0.104101	0.500349
Cl216	Cl	-0.118327	0.145899	0.750349
Cl217	Cl	-1.095883	-0.604083	-0.227358
Cl218	Cl	-0.845883	-0.354083	0.022642
Cl219	Cl	-0.595883	-0.104083	0.272642
Cl220	Cl	-0.345883	0.145917	0.522642
H221	H	-1.120904	-0.000027	0.325852
H222	H	-0.870904	0.249973	0.575852
H223	H	-0.620904	0.499973	0.825852
H224	H	-0.370904	0.749973	1.075852
