data_functionalizedCrystal
_audit_creation_method	'MofGen! by Chris Wilmer'
_symmetry_space_group_name_H-M	'P1'
_symmetry_Int_Tables_number	1
_symmetry_cell_setting	triclinic
loop_
_symmetry_equiv_pos_as_xyz
  x,y,z
_cell_length_a	17.699077
_cell_length_b	17.699092
_cell_length_c	18.366186
_cell_angle_alpha	89.995439
_cell_angle_beta	89.991511
_cell_angle_gamma	83.283472
loop_
_atom_site_label
_atom_site_type_symbol
_atom_site_fract_x
_atom_site_fract_y
_atom_site_fract_z
O1	O	1.004086	0.095690	-0.060537
O2	O	0.783708	0.108148	-0.060540
O3	O	0.900120	-0.008270	-0.060537
O4	O	0.887674	0.212108	-0.060541
O5	O	0.900100	-0.008276	0.060562
O6	O	0.783688	0.108142	0.060559
O7	O	1.004067	0.095685	0.060562
Zn8	Zn	0.893874	0.101912	0.079788
Zn9	Zn	0.893900	0.101920	-0.079766
O10	O	0.887654	0.212102	0.060559
C11	C	0.755501	0.107699	0.000009
C12	C	0.671482	0.106362	0.000007
C13	C	0.632004	0.105729	0.066020
C14	C	0.553062	0.104461	0.066020
C15	C	0.513598	0.103831	0.000008
C16	C	0.553082	0.104462	-0.066009
C17	C	0.632024	0.105725	-0.066009
C18	C	0.234718	0.099369	-0.066010
C19	C	0.155771	0.098108	-0.066005
C20	C	0.155756	0.098105	0.066019
C21	C	0.234698	0.099368	0.066019
C22	C	0.274176	0.099994	0.000002
C23	C	0.359774	0.101368	0.000002
C24	C	0.428000	0.102463	0.000008
C25	C	0.899663	-0.036470	0.000011
C26	C	0.898322	-0.120487	0.000008
C27	C	0.897705	-0.159952	-0.066004
C28	C	0.896440	-0.238895	-0.066005
C29	C	0.895798	-0.278373	0.000007
C30	C	0.896413	-0.238902	0.066024
C31	C	0.897672	-0.159960	0.066024
C32	C	0.891333	-0.557267	0.066025
C33	C	0.890075	-0.636215	0.066020
C34	C	0.890100	-0.636202	-0.066004
C35	C	0.891359	-0.557260	-0.066004
C36	C	0.891970	-0.517796	0.000013
C37	C	0.893341	-0.432197	0.000013
C38	C	0.894433	-0.363971	0.000008
C39	C	1.032274	0.096133	0.000011
C40	C	1.116292	0.097470	0.000008
C41	C	0.888111	0.240302	0.000009
C42	C	0.889452	0.324320	0.000007
N43	N	0.893862	0.101907	0.188679
N44	N	0.893918	0.101919	-0.188657
C45	C	0.945426	0.050382	0.226781
C46	C	0.945431	0.050379	0.303008
C47	C	0.893879	0.101913	0.341132
C48	C	0.842305	0.153441	0.303020
C49	C	0.842296	0.153438	0.226794
C50	C	0.883838	0.170862	0.461891
C51	C	0.883851	0.170866	0.538116
C52	C	0.893900	0.101922	0.576239
C53	C	0.903951	0.032972	0.538128
C54	C	0.903943	0.032969	0.461902
C55	C	0.893882	0.101922	0.423786
C56	C	0.945472	0.050390	0.696996
C57	C	0.945472	0.050386	0.773225
C58	C	0.842349	0.153455	0.773236
C59	C	0.842346	0.153452	0.697008
C60	C	0.893912	0.101921	0.658893
H61	H	0.898231	-0.127815	-0.119759
C62	C	0.112363	0.097407	-0.138627
N63	N	0.079669	0.096878	-0.193323
C64	C	0.889361	-0.679638	0.138642
N65	N	0.888823	-0.712345	0.193338
H66	H	0.891885	-0.525121	-0.119758
C67	C	0.509669	0.103767	-0.138623
N68	N	0.476971	0.103247	-0.193318
C69	C	1.002143	-0.006311	0.184858
N70	N	1.044860	-0.049016	0.153281
H71	H	0.664129	0.106248	0.119774
C72	C	0.895701	-0.282330	0.138638
N73	N	0.895167	-0.315040	0.193333
H74	H	0.266852	0.099877	-0.119765
C75	C	0.675449	0.106423	-0.138627
N76	N	0.708156	0.106947	-0.193326
C77	C	0.278104	0.100059	0.138637
N78	N	0.310797	0.100575	0.193335
H79	H	0.889598	-0.668342	-0.119758
C80	C	1.002187	-0.006311	0.815137
N81	N	1.044903	-0.049020	0.846706
H82	H	0.800372	0.195412	0.804275
H83	H	0.895940	-0.271023	-0.119759
H84	H	0.891845	-0.525147	0.119780
H85	H	0.898165	-0.127828	0.119778
C86	C	1.002165	-0.006297	0.344929
N87	N	1.044901	-0.048982	0.376501
H88	H	0.800361	0.195412	0.665983
H89	H	0.912125	-0.023173	0.430875
H90	H	0.875672	0.227010	0.569140
H91	H	0.520924	0.103933	0.119774
C92	C	0.112325	0.097407	0.138640
N93	N	0.079614	0.096882	0.193336
C94	C	1.002188	-0.006302	0.655066
N95	N	1.044905	-0.049004	0.623487
C96	C	0.872783	0.246710	0.419962
N97	N	0.864457	0.303838	0.388383
C98	C	0.785594	0.210126	0.344957
N99	N	0.742875	0.252819	0.376544
H100	H	0.912134	-0.023169	0.569167
H101	H	0.800306	0.195396	0.195771
