data_functionalizedCrystal
_audit_creation_method	'MofGen! by Chris Wilmer'
_symmetry_space_group_name_H-M	'P1'
_symmetry_Int_Tables_number	1
_symmetry_cell_setting	triclinic
loop_
_symmetry_equiv_pos_as_xyz
  x,y,z
_cell_length_a	16.109301
_cell_length_b	14.044220
_cell_length_c	14.586319
_cell_angle_alpha	89.995213
_cell_angle_beta	89.999213
_cell_angle_gamma	88.325179
loop_
_atom_site_label
_atom_site_type_symbol
_atom_site_fract_x
_atom_site_fract_y
_atom_site_fract_z
O1	O	1.112195	0.121835	-0.076185
O2	O	1.612195	0.621835	0.423815
O3	O	0.871261	0.136997	-0.076199
O4	O	1.371261	0.636997	0.423801
O5	O	0.988112	-0.008568	-0.076183
O6	O	1.488112	0.491432	0.423817
O7	O	0.995345	0.267399	-0.076201
O8	O	1.495345	0.767399	0.423799
O9	O	0.988103	-0.008570	0.076298
O10	O	1.488103	0.491430	0.576298
O11	O	0.871252	0.136995	0.076281
O12	O	1.371252	0.636995	0.576281
O13	O	1.112186	0.121832	0.076296
O14	O	1.612186	0.621832	0.576296
Cu15	Cu	0.991719	0.129413	0.090212
Cu16	Cu	1.491719	0.629413	0.590212
Cu17	Cu	0.991729	0.129416	-0.090115
Cu18	Cu	1.491729	0.629416	0.409885
O19	O	0.995336	0.267397	0.076280
O20	O	1.495336	0.767397	0.576280
C21	C	0.840236	0.136381	0.000039
C22	C	1.340236	0.636381	0.500039
C23	C	0.747804	0.134540	0.000034
C24	C	1.247804	0.634540	0.500034
C25	C	0.531640	0.216634	0.000039
C26	C	1.031640	0.716634	0.500039
C27	C	0.444790	0.214896	0.000045
C28	C	0.944790	0.714896	0.500045
C29	C	0.451815	0.042189	0.000052
C30	C	0.951815	0.542189	0.500052
C31	C	0.538663	0.043927	0.000053
C32	C	1.038663	0.543927	0.500053
C33	C	0.578573	0.131153	0.000042
C34	C	1.078573	0.631153	0.500042
C35	C	0.404875	0.127677	0.000047
C36	C	0.904875	0.627677	0.500047
C37	C	0.310709	0.125792	0.000054
C38	C	0.810709	0.625792	0.500054
C39	C	0.672745	0.133038	0.000037
C40	C	1.172745	0.633038	0.500037
C41	C	0.984941	-0.043882	0.000058
C42	C	1.484941	0.456118	0.500058
C43	C	0.975498	-0.149105	0.000058
C44	C	1.475498	0.350895	0.500058
C45	C	0.958232	-0.341761	0.000044
C46	C	1.458232	0.158239	0.500044
C47	C	1.025212	-0.399415	0.000045
C48	C	1.525212	0.100585	0.500045
C49	C	1.015605	-0.506616	0.000037
C50	C	1.515605	-0.006616	0.500037
C51	C	0.967838	-0.234551	0.000052
C52	C	1.467838	0.265449	0.500052
C53	C	1.143211	0.122448	0.000056
C54	C	1.643211	0.622448	0.500056
C55	C	1.235644	0.124289	0.000055
C56	C	1.735644	0.624289	0.500055
C57	C	0.998506	0.302711	0.000037
C58	C	1.498506	0.802711	0.500037
C59	C	1.007950	0.407934	0.000031
C60	C	1.507950	0.907934	0.500031
N61	N	0.991717	0.129411	0.217043
N62	N	1.491717	0.629411	0.717043
N63	N	0.991737	0.129411	-0.216946
N64	N	1.491737	0.629411	0.283054
C65	C	1.043479	0.064976	0.452057
C66	C	1.543479	0.564976	0.952057
C67	C	1.043481	0.064974	0.548038
C68	C	1.543481	0.564974	1.048038
C69	C	0.939969	0.193848	0.548033
C70	C	1.439969	0.693848	1.048033
C71	C	0.939963	0.193845	0.452054
C72	C	1.439963	0.693845	0.952054
C73	C	0.991723	0.129410	0.404068
C74	C	1.491723	0.629410	0.904068
C75	C	0.991731	0.129411	0.596029
C76	C	1.491731	0.629411	1.096029
C77	C	0.991733	0.129409	0.700096
C78	C	1.491733	0.629409	1.200096
C79	C	0.991720	0.129411	0.299994
C80	C	1.491720	0.629411	0.799994
H81	H	0.419309	-0.028827	0.000067
H82	H	0.919309	0.471173	0.500067
N83	N	1.110724	-0.358152	0.000067
N84	N	1.610724	0.141848	0.500067
H85	H	1.141944	-0.380263	0.056597
H86	H	1.641944	0.119737	0.556597
H87	H	1.141900	-0.380250	-0.056490
H88	H	1.641900	0.119750	0.443510
N89	N	0.872722	-0.383014	0.000037
N90	N	1.372722	0.116986	0.500037
H91	H	0.877895	-0.454858	0.000035
H92	H	1.377895	0.045142	0.500035
H93	H	0.841537	-0.360854	0.056566
H94	H	1.341537	0.139146	0.556566
H95	H	1.085624	0.012505	0.587108
H96	H	1.585624	0.512505	1.087108
N97	N	0.884146	0.263343	0.599789
N98	N	1.384146	0.763343	1.099789
H99	H	0.892003	0.253571	0.667874
H100	H	1.392003	0.753571	1.167874
H101	H	0.898733	0.330588	0.583003
H102	H	1.398733	0.830588	1.083003
H103	H	0.564132	0.287658	0.000037
H104	H	1.064132	0.787658	0.500037
N105	N	1.099301	-0.004519	0.400299
N106	N	1.599301	0.495481	0.900299
H107	H	1.132087	-0.045338	0.445268
H108	H	1.632087	0.454662	0.945268
H109	H	1.064363	-0.046434	0.360483
H110	H	1.564363	0.453566	0.860483
N111	N	0.884130	0.263343	0.400294
N112	N	1.384130	0.763343	0.900294
H113	H	0.898691	0.330623	0.416984
H114	H	1.398691	0.830623	0.916984
H115	H	0.892000	0.253479	0.332227
H116	H	1.392000	0.753479	0.832227
N117	N	0.394190	0.307108	0.000079
N118	N	0.894190	0.807108	0.500079
H119	H	0.407764	0.345183	-0.056437
H120	H	0.907764	0.845183	0.443563
H121	H	0.333129	0.292721	0.000131
H122	H	0.833129	0.792721	0.500131
N123	N	0.589291	-0.048274	0.000066
N124	N	1.089291	0.451726	0.500066
H125	H	0.550832	-0.103795	0.000069
H126	H	1.050832	0.396205	0.500069
H127	H	0.625483	-0.051314	-0.056457
H128	H	1.125483	0.448686	0.443543
