data_functionalizedCrystal
_audit_creation_method	'MofGen! by Chris Wilmer'
_symmetry_space_group_name_H-M	'P1'
_symmetry_Int_Tables_number	1
_symmetry_cell_setting	triclinic
loop_
_symmetry_equiv_pos_as_xyz
  x,y,z
_cell_length_a	19.805405
_cell_length_b	19.805407
_cell_length_c	19.805399
_cell_angle_alpha	90.019573
_cell_angle_beta	89.970699
_cell_angle_gamma	89.973590
loop_
_atom_site_label
_atom_site_type_symbol
_atom_site_fract_x
_atom_site_fract_y
_atom_site_fract_z
Zn1	Zn	-0.269479	-1.034736	-0.382712
Zn2	Zn	0.230521	-0.534736	0.117288
Zn3	Zn	-0.382667	-1.034651	-0.269520
Zn4	Zn	0.117333	-0.534651	0.230480
Zn5	Zn	-0.269498	-0.921550	-0.269536
Zn6	Zn	0.230502	-0.421550	0.230464
Zn7	Zn	-0.382631	-0.921514	-0.382667
Zn8	Zn	0.117369	-0.421514	0.117333
O9	O	-0.326069	-0.978113	-0.326109
O10	O	0.173931	-0.478113	0.173891
O11	O	-0.284501	-1.129441	-0.367708
O12	O	0.215499	-0.629441	0.132292
O13	O	-0.367678	-1.019627	-0.174805
O14	O	0.132322	-0.519627	0.325195
O15	O	-0.174778	-0.936616	-0.284575
O16	O	0.325222	-0.436616	0.215425
O17	O	-0.367660	-1.129378	-0.284547
O18	O	0.132340	-0.629378	0.215453
O19	O	-0.174765	-1.019772	-0.367724
O20	O	0.325235	-0.519772	0.132276
O21	O	-0.284533	-0.936533	-0.174817
O22	O	0.215467	-0.436533	0.325183
O23	O	-0.284498	-0.826829	-0.284531
O24	O	0.215502	-0.326829	0.215469
O25	O	-0.367598	-0.936553	-0.477389
O26	O	0.132402	-0.436553	0.022611
O27	O	-0.367617	-0.826802	-0.367648
O28	O	0.132383	-0.326802	0.132352
O29	O	-0.284466	-1.019737	-0.477422
O30	O	0.215534	-0.519737	0.022578
O31	O	-0.477379	-1.019592	-0.284503
O32	O	0.022621	-0.519592	0.215497
O33	O	-0.477353	-0.936471	-0.367632
O34	O	0.022647	-0.436471	0.132368
C35	C	-0.326056	-0.802257	-0.326087
C36	C	0.173944	-0.302257	0.173913
C37	C	-0.326067	-0.727025	-0.326093
C38	C	0.173933	-0.227025	0.173907
C39	C	-0.501925	-0.978036	-0.326076
C40	C	-0.001925	-0.478036	0.173924
C41	C	-0.577157	-0.978066	-0.326084
C42	C	-0.077157	-0.478066	0.173916
C43	C	-0.326026	-0.978151	-0.502651
C44	C	0.173974	-0.478151	-0.002651
C45	C	-0.326008	-0.978167	-0.577883
C46	C	0.173992	-0.478167	-0.077883
C47	C	-0.612492	-1.021389	-0.282845
C48	C	-0.112492	-0.521389	0.217155
C49	C	-0.683181	-1.021418	-0.282860
C50	C	-0.183181	-0.521418	0.217140
C51	C	-0.718532	-0.978119	-0.326111
C52	C	-0.218532	-0.478119	0.173889
C53	C	-0.683192	-0.934794	-0.369356
C54	C	-0.183192	-0.434794	0.130644
C55	C	-0.612505	-0.934769	-0.369344
C56	C	-0.112505	-0.434769	0.130656
C57	C	-0.968265	-0.934894	-0.369406
C58	C	-0.468265	-0.434894	0.130594
C59	C	-1.038957	-0.934921	-0.369413
C60	C	-0.538957	-0.434921	0.130587
C61	C	-1.038941	-1.021542	-0.282922
C62	C	-0.538941	-0.521542	0.217078
C63	C	-0.968254	-1.021517	-0.282910
C64	C	-0.468254	-0.521517	0.217090
C65	C	-0.932920	-0.978195	-0.326157
C66	C	-0.432920	-0.478195	0.173843
C67	C	-0.856271	-0.978166	-0.326141
C68	C	-0.356271	-0.478166	0.173859
C69	C	-0.795179	-0.978145	-0.326124
C70	C	-0.295179	-0.478145	0.173876
C71	C	-0.149526	-0.978207	-0.326156
C72	C	0.350474	-0.478207	0.173844
C73	C	-0.074294	-0.978248	-0.326177
C74	C	0.425706	-0.478248	0.173823
C75	C	-0.326082	-1.154655	-0.326131
C76	C	0.173918	-0.654655	0.173869
C77	C	-0.326088	-1.229887	-0.326140
C78	C	0.173912	-0.729887	0.173860
C79	C	-0.369412	-0.691684	-0.369302
C80	C	0.130588	-0.191684	0.130698
C81	C	-0.369413	-0.620996	-0.369312
C82	C	0.130587	-0.120996	0.130688
C83	C	-0.326072	-0.585649	-0.326109
C84	C	0.173928	-0.085649	0.173891
C85	C	-0.282722	-0.620994	-0.282898
C86	C	0.217278	-0.120994	0.217102
C87	C	-0.282718	-0.691681	-0.282892
C88	C	0.217282	-0.191681	0.217108
C89	C	-0.282737	-0.335921	-0.282920
C90	C	0.217263	0.164079	0.217080
C91	C	-0.282746	-0.265229	-0.282928
C92	C	0.217254	0.234771	0.217072
C93	C	-0.369432	-0.265235	-0.369340
C94	C	0.130568	0.234765	0.130660
C95	C	-0.369428	-0.335922	-0.369334
C96	C	0.130572	0.164078	0.130666
C97	C	-0.326076	-0.371262	-0.326126
C98	C	0.173924	0.128738	0.173874
C99	C	-0.326074	-0.447910	-0.326117
C100	C	0.173926	0.052090	0.173883
C101	C	-0.326076	-0.509002	-0.326114
C102	C	0.173924	-0.009002	0.173886
C103	C	-0.282719	-1.021481	-0.613246
C104	C	0.217281	-0.521481	-0.113246
C105	C	-0.282699	-1.021488	-0.683934
C106	C	0.217301	-0.521488	-0.183934
C107	C	-0.325973	-0.978184	-0.719259
C108	C	0.174027	-0.478184	-0.219259
C109	C	-0.369264	-0.934864	-0.683892
C110	C	0.130736	-0.434864	-0.183892
C111	C	-0.369279	-0.934854	-0.613204
C112	C	0.130721	-0.434854	-0.113204
C113	C	-0.369201	-0.934902	-0.968965
C114	C	0.130799	-0.434902	-0.468965
C115	C	-0.369183	-0.934917	-1.039657
C116	C	0.130817	-0.434917	-0.539657
C117	C	-0.282620	-1.021536	-1.039695
C118	C	0.217380	-0.521536	-0.539695
C119	C	-0.282636	-1.021527	-0.969008
C120	C	0.217364	-0.521527	-0.469008
C121	C	-0.325924	-0.978205	-0.933647
C122	C	0.174076	-0.478205	-0.433647
C123	C	-0.325944	-0.978197	-0.856998
C124	C	0.174056	-0.478197	-0.356998
C125	C	-0.325957	-0.978194	-0.795906
C126	C	0.174043	-0.478194	-0.295906
C127	C	-0.326062	-0.978114	-0.150253
C128	C	0.173938	-0.478114	0.349747
C129	C	-0.325890	-0.978229	-0.075021
C130	C	0.174110	-0.478229	0.424979
H131	H	-0.583713	-1.056644	-0.247621
H132	H	-0.083713	-0.556644	0.252379
H133	H	-0.404523	-0.899576	-0.584413
H134	H	0.095477	-0.399576	-0.084413
H135	H	-0.404423	-0.899650	-1.068417
H136	H	0.095577	-0.399650	-0.568417
H137	H	-0.404729	-0.236454	-0.404524
H138	H	0.095271	0.263546	0.095476
H139	H	-0.404459	-0.899637	-0.940183
H140	H	0.095541	-0.399637	-0.440183
Cl141	Cl	-0.423663	-0.880421	-0.728300
Cl142	Cl	0.076337	-0.380421	-0.228300
H143	H	-1.067719	-1.056820	-0.247711
H144	H	-0.567719	-0.556820	0.252289
Cl145	Cl	-0.228197	-1.075996	-1.084153
Cl146	Cl	0.271803	-0.575996	-0.584153
Cl147	Cl	-0.727599	-1.075886	-0.228501
Cl148	Cl	-0.227599	-0.575886	0.271499
Cl149	Cl	-0.228223	-0.736110	-0.228572
Cl150	Cl	0.271777	-0.236110	0.271428
Cl151	Cl	-0.423907	-0.576571	-0.423634
Cl152	Cl	0.076093	-0.076571	0.076366
H153	H	-0.404723	-0.364698	-0.404512
H154	H	0.095277	0.135302	0.095488
Cl155	Cl	-0.228318	-1.075928	-0.568845
Cl156	Cl	0.271682	-0.575928	-0.068845
Cl157	Cl	-0.228306	-1.075974	-0.728387
Cl158	Cl	0.271694	-0.575974	-0.228387
Cl159	Cl	-0.228235	-1.075971	-0.924603
Cl160	Cl	0.271765	-0.575971	-0.424603
H161	H	-0.247448	-0.236452	-0.247747
H162	H	0.252552	0.263548	0.252253
H163	H	-0.247442	-0.364686	-0.247733
H164	H	0.252558	0.135314	0.252267
H165	H	-0.939473	-1.056773	-0.247688
H166	H	-0.439473	-0.556773	0.252312
H167	H	-0.939502	-0.899618	-0.404618
H168	H	-0.439502	-0.399618	0.095382
Cl169	Cl	-0.727634	-0.880366	-0.423734
Cl170	Cl	-0.227634	-0.380366	0.076266
Cl171	Cl	-0.568083	-0.880306	-0.423707
Cl172	Cl	-0.068083	-0.380306	0.076293
Cl173	Cl	-0.423904	-0.736113	-0.423615
Cl174	Cl	0.076096	-0.236113	0.076385
Cl175	Cl	-1.083399	-0.880486	-0.423793
Cl176	Cl	-0.583399	-0.380486	0.076207
Cl177	Cl	-0.228231	-0.576558	-0.228590
Cl178	Cl	0.271769	-0.076558	0.271410
