data_functionalizedCrystal
_audit_creation_method	'MofGen! by Chris Wilmer'
_symmetry_space_group_name_H-M	'P1'
_symmetry_Int_Tables_number	1
_symmetry_cell_setting	triclinic
loop_
_symmetry_equiv_pos_as_xyz
  x,y,z
_cell_length_a	19.288840
_cell_length_b	18.366186
_cell_length_c	19.288864
_cell_angle_alpha	89.973735
_cell_angle_beta	96.868870
_cell_angle_gamma	90.012747
loop_
_atom_site_label
_atom_site_type_symbol
_atom_site_fract_x
_atom_site_fract_y
_atom_site_fract_z
O1	O	0.921360	0.060706	-0.086564
O2	O	0.719097	0.060685	-0.098271
O3	O	0.826073	0.060651	0.008713
O4	O	0.814384	0.060740	-0.193549
O5	O	0.826062	-0.060448	0.008715
O6	O	0.719086	-0.060414	-0.098269
O7	O	0.921349	-0.060394	-0.086562
Zn8	Zn	0.820216	-0.079631	-0.092415
Zn9	Zn	0.820231	0.079923	-0.092418
O10	O	0.814373	-0.060359	-0.193546
C11	C	0.693215	0.000132	-0.097896
C12	C	0.616110	0.000122	-0.096774
N13	N	0.820211	-0.188522	-0.092412
C14	C	0.867611	-0.773088	-0.045056
C15	C	0.867612	-0.696860	-0.045057
C16	C	0.820231	-0.658733	-0.092412
C17	C	0.772857	-0.696841	-0.139781
C18	C	0.772863	-0.773068	-0.139782
C19	C	0.756938	-0.537983	-0.101687
C20	C	0.756931	-0.461758	-0.101681
C21	C	0.820215	-0.423626	-0.092411
C22	C	0.883507	-0.461728	-0.083132
C23	C	0.883513	-0.537954	-0.083134
C24	C	0.820220	-0.576079	-0.092416
C25	C	0.867590	-0.302872	-0.045050
C26	C	0.867591	-0.226643	-0.045056
C27	C	0.772831	-0.226626	-0.139776
C28	C	0.772835	-0.302854	-0.139773
C29	C	0.820214	-0.340972	-0.092406
C30	C	0.579913	0.066135	-0.096237
C31	C	0.507466	0.066143	-0.095175
C32	C	0.471221	0.000135	-0.094636
C33	C	0.507427	-0.065886	-0.095178
C34	C	0.579871	-0.065893	-0.096247
C35	C	0.361889	-0.050445	-0.052257
C36	C	0.289446	-0.050435	-0.051184
C37	C	0.247778	0.000153	-0.091342
C38	C	0.278562	0.050744	-0.132565
C39	C	0.351006	0.050737	-0.133634
C40	C	0.392667	0.000135	-0.093477
C41	C	0.133025	0.066179	-0.089654
C42	C	0.060576	0.066185	-0.088596
C43	C	0.060539	-0.065847	-0.088593
C44	C	0.132986	-0.065851	-0.089657
C45	C	0.169225	0.000164	-0.090185
C46	C	0.947232	0.000161	-0.086937
C47	C	1.024336	0.000176	-0.088059
N48	N	0.820241	0.188814	-0.092415
C49	C	0.814755	0.000202	-0.219424
C50	C	0.815884	0.000237	-0.296527
C51	C	0.753115	0.000216	-0.341229
C52	C	0.754176	0.000199	-0.413676
C53	C	0.818009	0.000189	-0.441418
C54	C	0.880786	0.000215	-0.396706
C55	C	0.879723	0.000238	-0.324261
C56	C	0.868184	-0.042271	-0.549663
C57	C	0.869244	-0.042299	-0.622107
C58	C	0.821289	0.000120	-0.664863
C59	C	0.772261	0.042557	-0.635168
C60	C	0.771199	0.042580	-0.562723
C61	C	0.819168	0.000164	-0.519972
C62	C	0.759666	0.000082	-0.788121
C63	C	0.760729	0.000070	-0.860569
C64	C	0.887341	0.000078	-0.843598
C65	C	0.886276	0.000097	-0.771151
C66	C	0.822436	0.000096	-0.743418
C67	C	0.825692	0.000091	0.034591
C68	C	0.824563	0.000061	0.111694
H69	H	0.906191	-0.804122	-0.006488
H70	H	0.609343	-0.119650	-0.096685
F71	F	0.719024	0.087747	-0.531121
H72	H	0.906188	-0.665834	-0.006490
H73	H	0.031105	0.119943	-0.088163
F74	F	0.918015	-0.186094	0.005349
H75	H	0.935039	-0.430683	-0.075589
H76	H	0.935047	-0.568974	-0.075581
F77	F	0.918017	-0.343442	0.005359
H78	H	0.264388	-0.091626	-0.017615
H79	H	0.734255	-0.195584	-0.178336
H80	H	0.376068	0.091928	-0.167200
H81	H	0.701132	0.000221	-0.318654
H82	H	0.734259	-0.333876	-0.178335
H83	H	0.733207	0.077093	-0.669980
F84	F	0.691723	0.000084	-0.758603
H85	H	0.709613	0.000058	-0.896966
F86	F	0.687366	0.000175	-0.461260
F87	F	0.021969	-0.136098	-0.088025
H88	H	0.162531	0.119933	-0.090091
H89	H	0.909163	-0.076856	-0.646279
F90	F	0.171511	-0.136112	-0.090226
H91	H	0.395810	-0.091643	-0.019554
F92	F	0.955277	0.000074	-0.873118
H93	H	0.734288	-0.804088	-0.178349
H94	H	0.907242	-0.076812	-0.514855
H95	H	0.937389	0.000110	-0.734754
H96	H	0.705395	-0.430741	-0.109228
F97	F	0.689578	-0.578559	-0.111558
F98	F	0.722433	-0.656264	-0.190181
F99	F	0.468851	-0.136137	-0.094609
H100	H	0.932759	0.000220	-0.419298
H101	H	0.930839	0.000256	-0.287864
H102	H	0.609414	0.119890	-0.096666
F103	F	0.468934	0.136406	-0.094602
H104	H	0.244636	0.091935	-0.165268
