data_functionalizedCrystal
_audit_creation_method	'MofGen! by Chris Wilmer'
_symmetry_space_group_name_H-M	'P1'
_symmetry_Int_Tables_number	1
_symmetry_cell_setting	triclinic
loop_
_symmetry_equiv_pos_as_xyz
  x,y,z
_cell_length_a	13.339070
_cell_length_b	27.732048
_cell_length_c	12.376457
_cell_angle_alpha	101.176348
_cell_angle_beta	75.589755
_cell_angle_gamma	99.135974
loop_
_atom_site_label
_atom_site_type_symbol
_atom_site_fract_x
_atom_site_fract_y
_atom_site_fract_z
O1	O	1.358025	0.235161	-0.094094
O2	O	1.063992	0.203422	-0.094081
O3	O	1.220136	0.150154	-0.094066
O4	O	1.201881	0.288430	-0.094108
O5	O	1.181114	0.163448	0.093942
O6	O	1.024970	0.216716	0.093928
O7	O	1.319003	0.248455	0.093915
Zn8	Zn	1.165791	0.234696	0.123772
Zn9	Zn	1.217204	0.217181	-0.123938
O10	O	1.162859	0.301723	0.093900
C11	C	1.006875	0.204708	-0.000074
C12	C	0.894822	0.188727	-0.000068
C13	C	0.528098	0.312985	-0.000124
C14	C	0.633378	0.328001	-0.000133
C15	C	0.698744	0.293184	-0.000117
C16	C	0.658820	0.243348	-0.000092
C17	C	0.553531	0.228330	-0.000092
C18	C	0.724177	0.208529	-0.000084
C19	C	0.684253	0.158693	-0.000059
C20	C	0.578975	0.143677	-0.000058
C21	C	0.513609	0.178494	-0.000075
C22	C	0.829466	0.223547	-0.000084
C23	C	0.854899	0.138891	-0.000052
C24	C	0.749619	0.123875	-0.000042
C25	C	1.200241	0.138741	-0.000059
C26	C	1.199085	0.084928	-0.000049
C27	C	1.284103	-0.242187	-0.000111
C28	C	1.279823	-0.444437	-0.000127
O29	O	1.357565	-0.464994	-0.000180
N30	N	1.187233	-0.476309	-0.000122
C31	C	1.095708	-0.457617	-0.000120
O32	O	1.016858	-0.489367	-0.000127
C33	C	1.099990	-0.255368	-0.000112
C34	C	1.192584	-0.223497	-0.000106
C35	C	1.376689	-0.210317	-0.000106
C36	C	1.377757	-0.159757	-0.000096
C37	C	1.286238	-0.141067	-0.000091
C38	C	1.193652	-0.172937	-0.000096
C39	C	1.008468	-0.236676	-0.000119
C40	C	1.009548	-0.186111	-0.000120
C41	C	1.102141	-0.154240	-0.000114
C42	C	1.103201	-0.103687	-0.000081
N43	N	1.195791	-0.071815	-0.000086
C44	C	1.287310	-0.090505	-0.000091
C45	C	1.093465	-0.563800	-0.000122
C46	C	1.092394	-0.614362	-0.000121
C47	C	1.276510	-0.601179	-0.000130
C48	C	1.277578	-0.550616	-0.000122
C49	C	1.186055	-0.531928	-0.000127
C50	C	1.289545	0.015674	-0.000069
C51	C	1.290603	0.066238	-0.000054
C52	C	1.106489	0.053051	-0.000051
C53	C	1.105429	0.002491	-0.000060
C54	C	1.196966	-0.016195	-0.000073
O55	O	1.025503	-0.083098	-0.000041
O56	O	1.366153	-0.058748	-0.000109
C57	C	1.283035	-0.292747	-0.000121
C58	C	1.190449	-0.324617	-0.000126
C59	C	1.098930	-0.305927	-0.000121
C60	C	1.189377	-0.375179	-0.000126
C61	C	1.280896	-0.393869	-0.000131
C62	C	1.373486	-0.361997	-0.000136
C63	C	1.374554	-0.311437	-0.000126
C64	C	1.006340	-0.337799	-0.000116
C65	C	1.005279	-0.388358	-0.000125
C66	C	1.096798	-0.407048	-0.000130
C67	C	1.376121	0.247169	-0.000094
C68	C	1.488175	0.263150	-0.000107
C69	C	1.182754	0.313136	-0.000110
C70	C	1.183912	0.366948	-0.000126
N71	N	1.130710	0.246650	0.292827
N72	N	1.252293	0.205224	-0.292993
C73	C	1.333726	0.177465	0.647831
C74	C	1.358274	0.169097	0.529493
C75	C	1.301385	0.188485	0.470321
C76	C	1.219945	0.216241	0.529497
C77	C	1.195400	0.224613	0.647847
C78	C	1.163058	0.235633	0.470337
C79	C	1.081618	0.263390	0.529513
C80	C	1.057077	0.271760	0.647851
C81	C	1.113967	0.252372	0.707023
C82	C	1.187603	0.227261	0.351987
C83	C	1.049277	0.274410	0.352003
C84	C	1.024729	0.282777	0.470341
H85	H	0.546476	0.103096	-0.000050
N86	N	1.326440	0.179926	0.349443
N87	N	1.259528	0.157724	0.296650
H88	H	1.277223	0.151676	0.211274
H89	H	0.474871	0.341327	-0.000148
N90	N	1.013006	0.072138	-0.000072
N91	N	0.930340	0.043680	-0.000090
H92	H	0.864318	0.057159	-0.000116
H93	H	1.424582	0.146499	0.481316
N94	N	0.916062	-0.167023	-0.000148
N95	N	0.870765	-0.182681	-0.079407
H96	H	0.804742	-0.169201	-0.079428
H97	H	1.380043	0.161685	0.696016
H98	H	1.253912	0.204662	0.303816
H99	H	1.016991	-0.640306	-0.000107
H100	H	1.364084	0.000466	-0.000084
N101	N	1.088898	0.260911	0.827906
N102	N	1.139695	0.243593	0.880717
H103	H	1.121992	0.249623	0.966092
H104	H	0.958419	0.305378	0.518537
H105	H	0.990772	0.294366	0.696033
N106	N	0.806277	0.308531	-0.000105
N107	N	0.831128	0.339739	0.079140
H108	H	0.907076	0.350581	0.079155
H109	H	0.861960	0.264124	-0.000100
H110	H	1.018931	-0.548590	-0.000125
N111	N	0.991177	0.294217	0.291556
N112	N	1.013103	0.286740	0.185894
H113	H	0.972078	0.300729	0.143195
H114	H	0.427880	0.166270	-0.000067
N115	N	0.674142	0.378904	-0.000170
N116	N	0.615774	0.409986	-0.000190
H117	H	0.644564	0.445939	-0.000217
N118	N	0.912844	-0.318710	-0.000081
N119	N	0.876448	-0.286374	0.079184
H120	H	0.810409	-0.272893	0.079217
N121	N	0.708814	0.072973	-0.000012
N122	N	0.614809	0.059574	-0.000006
H123	H	0.585988	0.023624	0.000017
H124	H	0.908122	0.110540	-0.000043
N125	N	1.385186	0.098794	-0.000028
N126	N	1.430251	0.103154	0.079223
H127	H	1.497048	0.126146	0.079243
H128	H	1.030025	-0.023457	-0.000034
H129	H	1.451220	-0.225528	-0.000114
N130	N	1.472350	-0.127213	-0.000094
N131	N	1.554049	-0.143916	-0.000103
H132	H	1.620862	-0.120935	-0.000106
N133	N	1.372155	-0.518061	-0.000100
N134	N	1.417218	-0.513699	0.079154
H135	H	1.484017	-0.490709	0.079171
N136	N	1.370005	-0.620266	-0.000131
N137	N	1.415327	-0.604611	0.079108
H138	H	1.481357	-0.618092	0.079102
N139	N	1.469145	-0.278892	-0.000116
N140	N	1.550843	-0.295595	-0.000119
H141	H	1.617654	-0.272613	-0.000112
N142	N	0.913892	-0.269226	-0.000158
N143	N	0.909209	-0.304504	-0.079422
H144	H	0.842410	-0.327494	-0.079455
N145	N	1.466959	-0.381101	-0.000130
N146	N	1.465977	-0.426247	-0.000134
H147	H	1.531989	-0.439742	-0.000133
N148	N	0.910678	-0.420903	-0.000118
N149	N	0.828977	-0.404203	-0.000114
H150	H	0.762167	-0.427186	-0.000117
