data_functionalizedCrystal
_audit_creation_method	'MofGen! by Chris Wilmer'
_symmetry_space_group_name_H-M	'P1'
_symmetry_Int_Tables_number	1
_symmetry_cell_setting	triclinic
loop_
_symmetry_equiv_pos_as_xyz
  x,y,z
_cell_length_a	33.428889
_cell_length_b	33.428139
_cell_length_c	33.424847
_cell_angle_alpha	60.004234
_cell_angle_beta	60.008465
_cell_angle_gamma	59.994972
loop_
_atom_site_label
_atom_site_type_symbol
_atom_site_fract_x
_atom_site_fract_y
_atom_site_fract_z
O1	O	0.055565	-0.584504	0.488714
O2	O	0.555565	-0.084504	0.988714
O3	O	0.020982	-0.455083	0.393778
O4	O	0.520982	0.044917	0.893778
O5	O	0.102943	-0.536959	0.393689
O6	O	0.602943	-0.036959	0.893689
O7	O	-0.026396	-0.502628	0.488803
O8	O	0.473604	-0.002628	0.988803
O9	O	0.130140	-0.509767	0.420792
O10	O	0.630140	-0.009767	0.920792
O11	O	0.048179	-0.427891	0.420881
O12	O	0.548179	0.072109	0.920881
O13	O	0.082762	-0.557312	0.515817
O14	O	0.582762	-0.057312	1.015817
Cu15	Cu	0.067954	-0.490119	0.470823
Cu16	Cu	0.567954	0.009881	0.970823
Cu17	Cu	0.035790	-0.522276	0.438771
Cu18	Cu	0.535790	-0.022276	0.938771
O19	O	0.000801	-0.475436	0.515906
O20	O	0.500801	0.024564	1.015906
N21	N	0.090577	-0.467504	0.493370
N22	N	0.590577	0.032496	0.993370
N23	N	0.013171	-0.544895	0.416225
N24	N	0.513171	-0.044895	0.916225
C25	C	0.143377	-0.280390	0.546067
C26	C	0.643377	0.219610	1.046067
C27	C	0.143515	-0.414755	0.680369
C28	C	0.643515	0.085245	1.180369
C29	C	0.143392	-0.414735	0.546069
C30	C	0.643392	0.085265	1.046069
C31	C	0.277766	-0.414702	0.545966
C32	C	0.777766	0.085298	1.045966
C33	C	0.158177	-0.324719	0.560828
C34	C	0.658177	0.175281	1.060828
C35	C	0.158255	-0.399967	0.636038
C36	C	0.658255	0.100033	1.136038
C37	C	0.233434	-0.399936	0.560773
C38	C	0.733434	0.100064	1.060773
C39	C	0.158186	-0.399955	0.560829
C40	C	0.658186	0.100045	1.060829
C41	C	0.124540	-0.223964	0.527278
C42	C	0.624540	0.276036	1.027278
C43	C	0.124565	-0.433545	0.527281
C44	C	0.624565	0.066455	1.027281
C45	C	0.177014	-0.381145	0.579617
C46	C	0.677014	0.118855	1.079617
C47	C	0.359814	-0.400540	0.502735
C48	C	0.859814	0.099460	1.002735
C49	C	0.411105	-0.417624	0.485606
C50	C	0.911105	0.082376	0.985606
C51	C	0.411136	-0.500620	0.517255
C52	C	0.911136	-0.000620	1.017255
C53	C	0.359845	-0.483534	0.534385
C54	C	0.859845	0.016466	1.034385
C55	C	0.136887	-0.198305	0.476855
C56	C	0.636887	0.301695	0.976855
C57	C	0.119761	-0.147011	0.459777
C58	C	0.619761	0.352989	0.959777
C59	C	0.077945	-0.147038	0.543547
C60	C	0.577945	0.352962	1.043547
C61	C	0.095072	-0.198332	0.560625
C62	C	0.595072	0.301668	1.060625
C63	C	0.074134	-0.421169	0.539710
C64	C	0.574134	0.078831	1.039710
C65	C	0.057023	-0.438269	0.522625
C66	C	0.557023	0.061731	1.022625
C67	C	0.140770	-0.480120	0.480694
C68	C	0.640770	0.019880	0.980694
C69	C	0.157883	-0.463020	0.497773
C70	C	0.657883	0.036980	0.997773
C71	C	0.074339	-0.421208	0.762475
C72	C	0.574339	0.078792	1.262475
C73	C	0.057288	-0.438323	0.813768
C74	C	0.557288	0.061677	1.313768
C75	C	0.141075	-0.480183	0.813699
C76	C	0.641075	0.019817	1.313699
C77	C	0.158125	-0.463069	0.762404
C78	C	0.658125	0.036931	1.262404
C79	C	0.124756	-0.433580	0.736794
C80	C	0.624756	0.066420	1.236794
C81	C	0.334186	-0.433494	0.527123
C82	C	0.834186	0.066506	1.027123
C83	C	-0.173769	-0.597444	0.363037
C84	C	0.326231	-0.097444	0.863037
C85	C	-0.039302	-0.597595	0.228856
C86	C	0.460698	-0.097595	0.728856
C87	C	-0.039496	-0.597587	0.363300
C88	C	0.460504	-0.097587	0.863300
C89	C	-0.039512	-0.731889	0.363237
C90	C	0.460488	-0.231889	0.863237
C91	C	-0.129442	-0.612265	0.348329
C92	C	0.370558	-0.112265	0.848329
C93	C	-0.054138	-0.612351	0.273187
C94	C	0.445862	-0.112351	0.773187
C95	C	-0.054257	-0.687554	0.348440
C96	C	0.445743	-0.187554	0.848440
C97	C	-0.054247	-0.612346	0.348477
C98	C	0.445753	-0.112346	0.848477
C99	C	-0.230191	-0.578579	0.381758
C100	C	0.269809	-0.078579	0.881758
C101	C	-0.020722	-0.578803	0.382168
C102	C	0.479278	-0.078803	0.882168
C103	C	-0.073020	-0.631130	0.329609
C104	C	0.426980	-0.131130	0.829609
C105	C	-0.053713	-0.813916	0.406386
C106	C	0.446287	-0.313916	0.906386
C107	C	-0.036654	-0.865210	0.423504
C108	C	0.463346	-0.365210	0.923504
C109	C	0.046338	-0.865293	0.391984
C110	C	0.546338	-0.365293	0.891984
C111	C	0.029278	-0.813999	0.374865
C112	C	0.529278	-0.313999	0.874865
C113	C	-0.255900	-0.590938	0.432169
C114	C	0.244100	-0.090938	0.932169
C115	C	-0.307191	-0.573786	0.449185
C116	C	0.192809	-0.073786	0.949185
C117	C	-0.307060	-0.531922	0.365377
C118	C	0.192940	-0.031922	0.865377
C119	C	-0.255769	-0.549074	0.348360
C120	C	0.244231	-0.049074	0.848360
C121	C	-0.033081	-0.528377	0.369764
C122	C	0.466919	-0.028377	0.869764
C123	C	-0.016014	-0.511306	0.386922
C124	C	0.483986	-0.011306	0.886922
C125	C	0.025770	-0.595083	0.428877
C126	C	0.525770	-0.095083	0.928877
C127	C	0.008703	-0.612156	0.411725
C128	C	0.508703	-0.112156	0.911725
C129	C	-0.032755	-0.528393	0.146761
C130	C	0.467245	-0.028393	0.646761
C131	C	-0.015585	-0.511324	0.095468
C132	C	0.484415	-0.011324	0.595468
C133	C	0.026262	-0.595106	0.095516
C134	C	0.526262	-0.095106	0.595516
C135	C	0.009094	-0.612174	0.146811
C136	C	0.509094	-0.112174	0.646811
C137	C	-0.020417	-0.578816	0.172432
C138	C	0.479583	-0.078816	0.672432
C139	C	-0.020748	-0.788312	0.382068
C140	C	0.479252	-0.288312	0.882068
N141	N	0.436037	-0.467415	0.493101
N142	N	0.936037	0.032585	0.993101
O143	O	0.592642	-0.471896	0.376066
O144	O	1.092642	0.028104	0.876066
O145	O	0.592838	-0.567146	0.505347
O146	O	1.092838	-0.067146	1.005347
O147	O	0.592754	-0.566928	0.423360
O148	O	1.092754	-0.066928	0.923360
O149	O	0.592727	-0.472113	0.458053
O150	O	1.092727	0.027887	0.958053
O151	O	0.511269	-0.539835	0.450606
O152	O	1.011269	-0.039835	0.950606
O153	O	0.511353	-0.540052	0.532594
O154	O	1.011353	-0.040052	1.032594
O155	O	0.511157	-0.444802	0.403312
O156	O	1.011157	0.055198	0.903312
Cu157	Cu	0.503815	-0.489954	0.470441
Cu158	Cu	1.003815	0.010046	0.970441
Cu159	Cu	0.600180	-0.521995	0.438219
Cu160	Cu	1.100180	-0.021995	0.938219
O161	O	0.511242	-0.445020	0.485300
O162	O	1.011242	0.054980	0.985300
N163	N	0.667959	-0.544533	0.415554
N164	N	1.167959	-0.044533	0.915554
N165	N	0.090544	-0.122107	0.493359
N166	N	0.590544	0.377893	0.993359
O167	O	-0.026406	0.034587	0.488773
O168	O	0.473594	0.534587	0.988773
O169	O	0.102877	0.034627	0.393499
O170	O	0.602877	0.534627	0.893499
O171	O	0.020848	0.034591	0.393771
O172	O	0.520848	0.534591	0.893771
O173	O	0.055623	0.034623	0.488500
O174	O	0.555623	0.534623	0.988500
O175	O	0.048051	-0.046899	0.420925
O176	O	0.548051	0.453101	0.920925
O177	O	0.130080	-0.046864	0.420653
O178	O	0.630080	0.453136	0.920653
O179	O	0.000796	-0.046903	0.515927
O180	O	0.500796	0.453097	1.015927
Cu181	Cu	0.067922	-0.054324	0.470769
Cu182	Cu	0.567922	0.445676	0.970769
Cu183	Cu	0.035752	0.042048	0.438656
Cu184	Cu	0.535752	0.542048	0.938656
O185	O	0.082825	-0.046867	0.515655
O186	O	0.582825	0.453133	1.015655
N187	N	0.013123	0.109830	0.416068
N188	N	0.513123	0.609830	0.916068
N189	N	0.090892	-0.467554	0.838649
N190	N	0.590892	0.032446	1.338649
O191	O	0.086330	-0.584488	0.995334
O192	O	0.586330	-0.084488	1.495334
O193	O	-0.008902	-0.455160	0.995379
O194	O	0.491098	0.044840	1.495379
O195	O	-0.008679	-0.537172	0.995355
O196	O	0.491321	-0.037172	1.495355
O197	O	0.086107	-0.502475	0.995358
O198	O	0.586107	-0.002475	1.495358
O199	O	0.018452	-0.509990	0.913868
O200	O	0.518452	-0.009990	1.413868
O201	O	0.018230	-0.427978	0.913891
O202	O	0.518230	0.072022	1.413891
O203	O	0.113461	-0.557306	0.913847
O204	O	0.613461	-0.057306	1.413847
Cu205	Cu	0.068323	-0.490160	0.906429
Cu206	Cu	0.568323	0.009840	1.406429
Cu207	Cu	0.036237	-0.522306	1.002797
Cu208	Cu	0.536237	-0.022306	1.502797
O209	O	0.113239	-0.475293	0.913870
O210	O	0.613239	0.024707	1.413870
N211	N	0.013667	-0.544916	1.070577
N212	N	0.513667	-0.044916	1.570577
C213	C	0.031339	-0.425179	0.394250
C214	C	0.531339	0.074821	0.894250
C215	C	0.132837	-0.526572	0.394139
C216	C	0.632837	-0.026572	0.894139
C217	C	0.072405	-0.587216	0.515344
C218	C	0.572405	-0.087216	1.015344
C219	C	-0.029093	-0.485823	0.515455
C220	C	0.470907	0.014177	1.015455
C221	C	0.552119	-0.566716	0.535258
C222	C	1.052119	-0.066716	1.035258
C223	C	0.552016	-0.566447	0.433726
C224	C	1.052016	-0.066447	0.933726
C225	C	0.551873	-0.445232	0.373402
C226	C	1.051873	0.054768	0.873402
C227	C	0.551980	-0.445502	0.474933
C228	C	1.051980	0.054498	0.974933
C229	C	0.132731	-0.006013	0.393923
C230	C	0.632731	0.493987	0.893923
C231	C	0.031182	-0.006158	0.394293
C232	C	0.531182	0.493842	0.894293
C233	C	-0.029092	-0.006163	0.515469
C234	C	0.470908	0.493837	1.015469
C235	C	0.072491	-0.006119	0.515133
C236	C	0.572491	0.493881	1.015133
C237	C	-0.008451	-0.425276	0.954641
C238	C	0.491549	0.074724	1.454641
C239	C	-0.008170	-0.526833	0.954596
C240	C	0.491830	-0.026833	1.454596
C241	C	0.113010	-0.587190	0.954585
C242	C	0.613010	-0.087190	1.454585
C243	C	0.112735	-0.485627	0.954611
C244	C	0.612735	0.014373	1.454611
H245	H	0.016234	-0.428240	0.834672
H246	H	0.516234	0.071760	1.334672
H247	H	0.552170	-0.596617	0.572390
H248	H	1.052170	-0.096617	1.072390
H249	H	0.142910	-0.624330	0.954565
H250	H	0.642910	-0.124330	1.454565
C251	C	-0.079278	-0.475942	0.555805
C252	C	0.420722	0.024058	1.055805
N253	N	-0.117078	-0.468499	0.586196
N254	N	0.382922	0.031501	1.086196
C255	C	0.021126	-0.006179	0.354089
C256	C	0.521126	0.493821	0.854089
N257	N	0.013552	-0.006200	0.323810
N258	N	0.513552	0.493800	0.823810
H259	H	0.552029	-0.596233	0.426301
H260	H	1.052029	-0.096233	0.926301
C261	C	-0.072919	-0.893376	0.450261
C262	C	0.427081	-0.393376	0.950261
N263	N	-0.100234	-0.914592	0.470420
N264	N	0.399766	-0.414592	0.970420
C265	C	0.082387	-0.637442	0.555628
C266	C	0.582387	-0.137442	1.055628
N267	N	0.089905	-0.675273	0.585969
N268	N	0.589905	-0.175273	1.085969
H269	H	0.551811	-0.415327	0.336274
H270	H	1.051811	0.084673	0.836274
C271	C	-0.048382	-0.536845	0.954548
C272	C	0.451618	-0.036845	1.454548
N273	N	-0.078670	-0.544386	0.954510
N274	N	0.421330	-0.044386	1.454510
H275	H	-0.066220	-0.006175	0.545378
H276	H	0.433780	0.493825	1.045378
H277	H	0.551974	-0.415718	0.482355
H278	H	1.051974	0.084282	0.982355
C279	C	0.182785	-0.005688	0.353414
C280	C	0.682785	0.494312	0.853414
N281	N	0.220486	-0.005443	0.322901
N282	N	0.720486	0.494557	0.822901
C283	C	0.082552	-0.006111	0.555341
C284	C	0.582552	0.493889	1.055341
N285	N	0.090131	-0.006104	0.585626
N286	N	0.590131	0.493896	1.085626
C287	C	0.037481	-0.388739	0.572160
C288	C	0.537481	0.111261	1.072160
N289	N	0.009873	-0.364309	0.596600
N290	N	0.509873	0.135691	1.096600
H291	H	-0.038348	-0.388133	0.954654
H292	H	0.461652	0.111867	1.454654
C293	C	0.152966	-0.475596	0.954604
C294	C	0.652966	0.024404	1.454604
N295	N	0.183268	-0.468040	0.954597
N296	N	0.683268	0.031960	1.454597
C297	C	0.058715	-0.631803	0.067335
C298	C	0.558715	-0.131803	0.567335
N299	N	0.083161	-0.659444	0.046109
N300	N	0.583161	-0.159444	0.546109
H301	H	0.168250	-0.504186	0.834549
H302	H	0.668250	-0.004186	1.334549
C303	C	0.037627	-0.388742	0.734308
C304	C	0.537627	0.111258	1.234308
N305	N	0.009976	-0.364281	0.713092
N306	N	0.509976	0.135719	1.213092
H307	H	0.199181	-0.473148	0.741498
H308	H	0.699181	0.026852	1.241498
H309	H	0.015959	-0.428182	0.532734
H310	H	0.515959	0.071818	1.032734
H311	H	0.167905	-0.504126	0.456671
H312	H	0.667905	-0.004126	0.956671
H313	H	0.198948	-0.473094	0.487648
H314	H	0.698948	0.026906	0.987648
H315	H	0.338981	-0.510371	0.554246
H316	H	0.838981	-0.010371	1.054246
H317	H	0.432025	-0.541365	0.523165
H318	H	0.932025	-0.041365	1.023165
H319	H	0.338923	-0.359792	0.496821
H320	H	0.838923	0.140208	0.996821
C321	C	0.169302	-0.226497	0.440169
C322	C	0.669302	0.273503	0.940169
N323	N	0.193717	-0.247732	0.412537
N324	N	0.693717	0.252268	0.912537
C325	C	0.439298	-0.381372	0.458774
C326	C	0.939298	0.118628	0.958774
N327	N	0.460533	-0.354066	0.438561
N328	N	0.960533	0.145934	0.938561
H329	H	0.053957	-0.126168	0.570702
H330	H	0.553957	0.373832	1.070702
C331	C	0.133340	-0.118783	0.404307
C332	C	0.633340	0.381217	0.904307
N333	N	0.143569	-0.097524	0.362527
N334	N	0.643569	0.402476	0.862527
H335	H	-0.094449	-0.793002	0.412253
H336	H	0.405551	-0.293002	0.912253
H337	H	0.169984	-0.533889	0.364272
H338	H	0.669984	-0.033889	0.864272
H339	H	0.085016	-0.219221	0.601683
H340	H	0.585016	0.280779	1.101683
C341	C	-0.065219	-0.491694	0.174940
C342	C	0.434781	0.008306	0.674940
N343	N	-0.089667	-0.464052	0.196164
N344	N	0.410333	0.035948	0.696164
C345	C	-0.029171	-0.455854	0.067237
C346	C	0.470829	0.044146	0.567237
N347	N	-0.039403	-0.414073	0.045973
N348	N	0.460597	0.085927	0.545973
H349	H	0.019144	-0.653235	0.167709
H350	H	0.519144	-0.153235	0.667709
C351	C	-0.065453	-0.491685	0.337256
C352	C	0.434547	0.008315	0.837256
N353	N	-0.089837	-0.464048	0.312771
N354	N	0.410163	0.035952	0.812771
H355	H	-0.026079	-0.470245	0.376824
H356	H	0.473921	0.029755	0.876824
C357	C	0.058150	-0.631778	0.461380
C358	C	0.558150	-0.131778	0.961380
N359	N	0.082539	-0.659416	0.485860
N360	N	0.582539	-0.159416	0.985860
H361	H	0.018765	-0.653217	0.421828
H362	H	0.518765	-0.153217	0.921828
H363	H	0.056124	-0.793157	0.355062
H364	H	0.556124	-0.293157	0.855062
H365	H	-0.235077	-0.614964	0.459366
H366	H	0.264923	-0.114964	0.959366
C367	C	0.101368	-0.893547	0.384062
C368	C	0.601368	-0.393547	0.884062
N369	N	0.142818	-0.914830	0.378095
N370	N	0.642818	-0.414830	0.878095
C371	C	-0.335473	-0.587381	0.504641
C372	C	0.164527	-0.087381	1.004641
N373	N	-0.356773	-0.597622	0.546412
N374	N	0.143227	-0.097622	1.046412
H375	H	-0.234840	-0.539009	0.307312
H376	H	0.265160	-0.039009	0.807312
C377	C	-0.335197	-0.499470	0.328637
C378	C	0.164803	0.000530	0.828637
N379	N	-0.356388	-0.475025	0.300964
N380	N	0.143612	0.024975	0.800964
H381	H	0.023949	-0.388000	0.364433
H382	H	0.523949	0.112000	0.864433
