data_functionalizedCrystal
_audit_creation_method	'MofGen! by Chris Wilmer'
_symmetry_space_group_name_H-M	'P1'
_symmetry_Int_Tables_number	1
_symmetry_cell_setting	triclinic
loop_
_symmetry_equiv_pos_as_xyz
  x,y,z
_cell_length_a	15.995300
_cell_length_b	15.995350
_cell_length_c	12.503572
_cell_angle_alpha	93.525550
_cell_angle_beta	86.480794
_cell_angle_gamma	83.482091
loop_
_atom_site_label
_atom_site_type_symbol
_atom_site_fract_x
_atom_site_fract_y
_atom_site_fract_z
O1	O	1.115842	0.102879	-0.089355
O2	O	0.872061	0.116251	-0.089348
O3	O	1.000615	-0.012324	-0.089351
O4	O	0.987288	0.231454	-0.089352
O5	O	0.990947	-0.002638	0.089292
O6	O	0.862393	0.125937	0.089294
O7	O	1.106174	0.112565	0.089287
Cu8	Cu	0.983401	0.120135	0.105602
Cu9	Cu	0.994834	0.108681	-0.105663
O10	O	0.977619	0.241140	0.089290
C11	C	0.836031	0.120549	-0.000026
C12	C	0.743078	0.118914	-0.000023
C13	C	0.572896	0.115894	-0.000032
C14	C	0.525430	0.207442	-0.000030
C15	C	0.428764	0.205750	-0.000438
C16	C	0.405339	0.112922	-0.000038
C17	C	0.451982	0.061982	-0.101850
C18	C	0.548620	0.064294	-0.101933
C19	C	0.537904	0.073953	0.101223
C20	C	0.440888	0.074034	0.102559
C21	C	0.310645	0.111237	-0.000046
C22	C	0.667591	0.117576	-0.000031
C23	C	0.995230	-0.038676	-0.000032
C24	C	0.993579	-0.131626	-0.000038
C25	C	0.987646	-0.469372	-0.000034
C26	C	0.896114	-0.421943	-0.000432
C27	C	0.897744	-0.325231	-0.000029
C28	C	0.990589	-0.301812	-0.000036
C29	C	1.030226	-0.337367	0.101974
C30	C	1.027921	-0.433998	0.102059
C31	C	1.040807	-0.445371	-0.101090
C32	C	1.040858	-0.348498	-0.102438
C33	C	0.992257	-0.207115	-0.000034
C34	C	0.985981	-0.564069	-0.000029
C35	C	1.142204	0.108267	-0.000037
C36	C	1.235157	0.109902	-0.000047
C37	C	0.983005	0.267491	-0.000031
C38	C	0.984656	0.360441	-0.000033
N39	N	0.975365	0.128191	0.254195
N40	N	1.002877	0.100618	-0.254255
C41	C	0.963544	0.140049	0.473310
C42	C	1.014695	0.088764	0.526636
C43	C	1.008117	0.095361	0.648559
C44	C	0.970120	0.133452	0.351376
H45	H	0.539970	0.248190	0.072968
H46	H	1.063426	0.039903	0.480722
C47	C	0.844117	-0.282205	0.098925
H48	H	0.844924	-0.222882	0.099503
H49	H	0.866647	-0.302250	0.162382
H50	H	0.787686	-0.294928	0.095927
C51	C	0.433189	-0.030437	-0.106598
H52	H	0.462010	-0.060084	-0.168760
H53	H	0.374219	-0.032216	-0.109657
H54	H	0.451759	-0.056032	-0.044305
C55	C	1.001841	-0.317137	-0.204390
H56	H	0.955113	-0.275761	-0.184643
H57	H	0.983441	-0.363205	-0.244445
H58	H	1.042897	-0.293077	-0.246971
C59	C	0.852017	-0.452333	-0.099244
H60	H	0.889029	-0.494223	-0.141141
H61	H	0.837452	-0.406032	-0.141253
H62	H	0.802368	-0.475516	-0.076292
C63	C	0.977855	-0.453137	0.205067
H64	H	0.976010	-0.512244	0.206030
H65	H	0.922057	-0.425240	0.206655
H66	H	1.004620	-0.433741	0.266071
C67	C	0.384973	0.259309	0.098127
H68	H	0.426238	0.282303	0.138777
H69	H	0.354336	0.224870	0.141445
H70	H	0.347341	0.303815	0.074961
C71	C	0.557236	0.251063	-0.098517
H72	H	0.599315	0.213725	-0.139639
H73	H	0.580496	0.300590	-0.075271
H74	H	0.511515	0.265769	-0.141416
H75	H	0.569632	0.006509	0.102203
C76	C	1.132776	-0.328222	-0.110768
H77	H	1.141740	-0.290856	-0.051635
H78	H	1.143392	-0.302408	-0.175878
H79	H	1.169909	-0.378898	-0.109904
C80	C	0.897724	0.206059	0.535327
H81	H	0.901891	0.201894	0.610324
H82	H	0.842789	0.196074	0.516979
H83	H	0.907901	0.260940	0.516960
H84	H	0.404889	0.237305	-0.073847
C85	C	0.592541	-0.026835	-0.107823
H86	H	0.551299	-0.065103	-0.110163
H87	H	0.623711	-0.034888	-0.046263
H88	H	0.629700	-0.036735	-0.170707
C89	C	1.132043	-0.488350	-0.102035
H90	H	1.137747	-0.520770	-0.041179
H91	H	1.169751	-0.446573	-0.099800
H92	H	1.144910	-0.524239	-0.165703
C93	C	0.419242	0.098503	-0.204599
H94	H	0.447850	0.067251	-0.265781
H95	H	0.429257	0.155862	-0.205759
H96	H	0.360416	0.094915	-0.205650
C97	C	0.578956	0.102925	-0.205128
H98	H	0.532220	0.117065	-0.246602
H99	H	0.619154	0.063214	-0.245749
H100	H	0.604196	0.152346	-0.186691
H101	H	0.554227	0.108278	0.178416
H102	H	0.409472	0.111286	0.177881
C103	C	0.841570	-0.443075	0.097834
H104	H	0.786371	-0.414169	0.096971
H105	H	0.866060	-0.425962	0.161722
H106	H	0.838620	-0.502140	0.095416
C107	C	0.419670	-0.016931	0.111300
H108	H	0.388725	-0.032456	0.052221
H109	H	0.386774	-0.020296	0.176440
H110	H	0.470422	-0.054163	0.110610
H111	H	0.866205	-0.300768	-0.073154
H112	H	1.094889	-0.466007	0.106683
H113	H	1.098231	-0.323048	0.105762
C114	C	1.006028	-0.478769	-0.205544
H115	H	1.038996	-0.463607	-0.265544
H116	H	0.949161	-0.454866	-0.208675
H117	H	1.008481	-0.538446	-0.206855
C118	C	0.982300	-0.293473	0.204534
H119	H	0.938131	-0.253478	0.185405
H120	H	1.020054	-0.265504	0.245809
H121	H	0.959129	-0.334365	0.245652
