data_functionalizedCrystal
_audit_creation_method	'MofGen! by Chris Wilmer'
_symmetry_space_group_name_H-M	'P1'
_symmetry_Int_Tables_number	1
_symmetry_cell_setting	triclinic
loop_
_symmetry_equiv_pos_as_xyz
  x,y,z
_cell_length_a	16.109304
_cell_length_b	19.288864
_cell_length_c	14.586319
_cell_angle_alpha	89.982652
_cell_angle_beta	90.000981
_cell_angle_gamma	96.700557
loop_
_atom_site_label
_atom_site_type_symbol
_atom_site_fract_x
_atom_site_fract_y
_atom_site_fract_z
O1	O	0.103714	-0.921596	0.076529
O2	O	0.603714	-0.421596	0.576529
O3	O	0.117705	-0.719369	0.076465
O4	O	0.617705	-0.219369	0.576465
O5	O	-0.010341	-0.826037	0.076499
O6	O	0.489659	-0.326037	0.576499
O7	O	0.231759	-0.814928	0.076495
O8	O	0.731759	-0.314928	0.576495
O9	O	-0.010343	-0.826029	-0.075981
O10	O	0.489657	-0.326029	0.424019
O11	O	0.117703	-0.719361	-0.076015
O12	O	0.617703	-0.219361	0.423985
O13	O	0.103712	-0.921588	-0.075952
O14	O	0.603712	-0.421588	0.424048
Cu15	Cu	0.110707	-0.820474	-0.089906
Cu16	Cu	0.610707	-0.320474	0.410094
Cu17	Cu	0.110709	-0.820483	0.090420
Cu18	Cu	0.610709	-0.320483	0.590420
O19	O	0.231757	-0.814921	-0.075986
O20	O	0.731757	-0.314921	0.424014
C21	C	0.117253	-0.693488	0.000217
C22	C	0.617253	-0.193488	0.500217
C23	C	0.115902	-0.616381	0.000193
C24	C	0.615902	-0.116381	0.500193
C25	C	-0.041315	-0.825583	0.000261
C26	C	0.458685	-0.325583	0.500261
C27	C	-0.133606	-0.824233	0.000267
C28	C	0.366394	-0.324233	0.500267
C29	C	0.104163	-0.947470	0.000298
C30	C	0.604163	-0.447470	0.500298
C31	C	0.105514	-1.024577	0.000328
C32	C	0.605514	-0.524577	0.500328
C33	C	-0.345931	-0.821117	0.083380
C34	C	0.154069	-0.321117	0.583380
C35	C	-0.432647	-0.819842	0.083378
C36	C	0.067353	-0.319842	0.583378
C37	C	-0.432646	-0.819838	-0.082865
C38	C	0.067354	-0.319838	0.417135
C39	C	-0.345931	-0.821108	-0.082862
C40	C	0.154069	-0.321108	0.417138
C41	C	-0.302577	-0.821751	0.000262
C42	C	0.197423	-0.321751	0.500262
C43	C	-0.476007	-0.819206	0.000259
C44	C	0.023993	-0.319206	0.500259
C45	C	-0.570028	-0.817824	0.000257
C46	C	-0.070028	-0.317824	0.500257
C47	C	-0.208549	-0.823132	0.000265
C48	C	0.291451	-0.323132	0.500265
C49	C	0.262731	-0.815375	0.000255
C50	C	0.762731	-0.315375	0.500255
C51	C	0.355022	-0.816725	0.000255
C52	C	0.855022	-0.316725	0.500255
N53	N	0.110705	-0.820473	-0.216738
N54	N	0.610705	-0.320473	0.283262
C55	C	0.191033	-0.571864	0.000206
C56	C	0.691033	-0.071864	0.500206
C57	C	0.189764	-0.499414	0.000216
C58	C	0.689764	0.000586	0.500216
C59	C	0.113359	-0.471484	0.000232
C60	C	0.613359	0.028516	0.500232
C61	C	0.038218	-0.516010	0.000213
C62	C	0.538218	-0.016010	0.500213
C63	C	0.039489	-0.588458	0.000194
C64	C	0.539489	-0.088458	0.500194
C65	C	0.053296	-0.363080	0.053684
C66	C	0.553296	0.136920	0.553684
C67	C	0.052028	-0.290633	0.053709
C68	C	0.552028	0.209367	0.553709
C69	C	0.109433	-0.248029	0.000287
C70	C	0.609433	0.251971	0.500287
C71	C	0.168121	-0.277879	-0.053148
C72	C	0.668121	0.222121	0.446852
C73	C	0.169393	-0.350328	-0.053167
C74	C	0.669393	0.149672	0.446833
C75	C	0.111971	-0.392926	0.000252
C76	C	0.611971	0.107074	0.500252
C77	C	0.183193	-0.124953	0.000310
C78	C	0.683193	0.375047	0.500310
C79	C	0.181920	-0.052502	0.000314
C80	C	0.681920	0.447498	0.500314
C81	C	0.030372	-0.069099	0.000321
C82	C	0.530372	0.430901	0.500321
C83	C	0.031647	-0.141549	0.000307
C84	C	0.531647	0.358451	0.500307
C85	C	0.108059	-0.169471	0.000306
C86	C	0.608059	0.330529	0.500306
C87	C	0.054025	-0.867721	-0.451730
C88	C	0.554025	-0.367721	0.048270
C89	C	0.054023	-0.867723	-0.547711
C90	C	0.554023	-0.367723	-0.047711
C91	C	0.167387	-0.773236	-0.547750
C92	C	0.667387	-0.273236	-0.047750
C93	C	0.167384	-0.773232	-0.451771
C94	C	0.667384	-0.273232	0.048229
C95	C	0.110705	-0.820478	-0.403763
C96	C	0.610705	-0.320478	0.096237
C97	C	0.110705	-0.820485	-0.595724
C98	C	0.610705	-0.320485	-0.095724
C99	C	0.110703	-0.820487	-0.699791
C100	C	0.610703	-0.320487	-0.199791
C101	C	0.110705	-0.820475	-0.299689
C102	C	0.610705	-0.320475	0.200311
N103	N	0.110705	-0.820490	0.217252
N104	N	0.610705	-0.320490	0.717252
H105	H	-0.310634	-0.821639	0.151065
H106	H	0.189366	-0.321639	0.651065
Cl107	Cl	-0.017233	-0.927114	-0.391381
Cl108	Cl	0.482767	-0.427114	0.108619
H109	H	0.217176	-0.374630	-0.096679
H110	H	0.717176	0.125370	0.403321
H111	H	-0.310630	-0.821620	-0.150550
H112	H	0.189370	-0.321620	0.349450
Cl113	Cl	-0.018878	-0.416633	0.120850
Cl114	Cl	0.481122	0.083367	0.620850
Cl115	Cl	-0.017235	-0.927116	-0.608009
Cl116	Cl	0.482765	-0.427116	-0.108009
H117	H	0.213536	-0.734770	-0.586848
H118	H	0.713536	-0.234770	-0.086848
H119	H	0.214865	-0.243192	-0.096650
H120	H	0.714865	0.256808	0.403350
Cl121	Cl	0.238640	-0.713832	-0.391464
Cl122	Cl	0.738640	-0.213832	0.108536
Cl123	Cl	0.287095	-0.606963	0.000200
Cl124	Cl	0.787095	-0.106963	0.500200
Cl125	Cl	-0.487146	-0.819044	0.187874
Cl126	Cl	0.012854	-0.319044	0.687874
H127	H	-0.467956	-0.819316	-0.150542
H128	H	0.032044	-0.319316	0.349458
H129	H	0.250946	-0.463162	0.000224
H130	H	0.750946	0.036838	0.500224
Cl131	Cl	0.279252	-0.160059	0.000299
Cl132	Cl	0.779252	0.339941	0.500299
H133	H	0.004244	-0.266334	0.097223
H134	H	0.504244	0.233666	0.597223
Cl135	Cl	-0.065682	-0.033993	0.000330
Cl136	Cl	0.434318	0.466007	0.500330
Cl137	Cl	0.276380	0.003463	0.000326
Cl138	Cl	0.776380	0.503463	0.500326
H139	H	-0.029534	-0.177795	0.000302
H140	H	0.470466	0.322205	0.500302
Cl141	Cl	-0.054969	-0.644425	0.000179
Cl142	Cl	0.445031	-0.144425	0.500179
Cl143	Cl	-0.057835	-0.480898	0.000228
Cl144	Cl	0.442165	0.019102	0.500228
