data_functionalizedCrystal
_audit_creation_method	'MofGen! by Chris Wilmer'
_symmetry_space_group_name_H-M	'P1'
_symmetry_Int_Tables_number	1
_symmetry_cell_setting	triclinic
loop_
_symmetry_equiv_pos_as_xyz
  x,y,z
_cell_length_a	14.044191
_cell_length_b	14.044190
_cell_length_c	7.681481
_cell_angle_alpha	83.728840
_cell_angle_beta	96.250963
_cell_angle_gamma	93.191777
loop_
_atom_site_label
_atom_site_type_symbol
_atom_site_fract_x
_atom_site_fract_y
_atom_site_fract_z
O1	O	1.268918	0.238473	-0.146383
O2	O	0.992245	0.230162	-0.146404
O3	O	1.126427	0.095979	-0.146359
O4	O	1.134736	0.372656	-0.146428
O5	O	1.142939	0.079423	0.146504
O6	O	1.008757	0.213605	0.146459
O7	O	1.285431	0.221917	0.146480
Zn8	Zn	1.149715	0.215132	0.192968
Zn9	Zn	1.127960	0.236946	-0.192892
O10	O	1.151248	0.356099	0.146435
C11	C	0.964879	0.218247	0.000026
C12	C	0.858735	0.207400	0.000019
C13	C	0.613278	0.264501	0.000022
C14	C	0.664402	0.187583	0.000039
C15	C	0.772539	0.198612	0.000028
C16	C	0.505132	0.253473	0.000033
C17	C	1.131047	0.052079	0.000077
C18	C	1.120200	-0.054065	0.000092
C19	C	1.177297	-0.299519	0.000027
C20	C	1.100381	-0.248396	0.000034
C21	C	1.111411	-0.140260	0.000066
C22	C	1.166269	-0.407664	-0.000005
C23	C	1.312796	0.233832	0.000047
C24	C	1.418940	0.244679	0.000042
C25	C	1.146628	0.400000	-0.000005
C26	C	1.157474	0.506145	-0.000031
N27	N	1.164570	0.200245	0.456307
N28	N	1.113112	0.251827	-0.456231
H29	H	0.650720	0.338629	-0.000001
H30	H	1.251426	-0.262077	0.000051
O31	O	1.050551	0.314770	0.454130
C32	C	1.076690	0.408055	0.499060
H33	H	1.156014	0.412079	0.549836
H34	H	1.063030	0.461850	0.377727
H35	H	1.032166	0.425671	0.605943
O36	O	0.619583	0.099215	-0.000035
C37	C	0.520027	0.107728	0.000007
H38	H	0.499941	0.183429	-0.055433
H39	H	0.479806	0.053791	-0.085025
H40	H	0.499830	0.092848	0.140507
O41	O	1.012012	-0.293215	0.000098
C42	C	1.020524	-0.392769	0.000027
H43	H	1.096212	-0.412871	0.055464
H44	H	0.966567	-0.433014	0.085046
H45	H	1.005673	-0.412924	-0.140482
O46	O	1.227181	0.137309	0.545843
C47	C	1.201008	0.044017	0.500984
H48	H	1.156718	0.048559	0.367091
H49	H	1.268389	0.003353	0.494858
H50	H	1.156756	0.004701	0.604728
