data_functionalizedCrystal
_audit_creation_method	'MofGen! by Chris Wilmer'
_symmetry_space_group_name_H-M	'P1'
_symmetry_Int_Tables_number	1
_symmetry_cell_setting	triclinic
loop_
_symmetry_equiv_pos_as_xyz
  x,y,z
_cell_length_a	14.908571
_cell_length_b	12.645330
_cell_length_c	14.908308
_cell_angle_alpha	93.270481
_cell_angle_beta	90.175053
_cell_angle_gamma	86.714080
loop_
_atom_site_label
_atom_site_type_symbol
_atom_site_fract_x
_atom_site_fract_y
_atom_site_fract_z
Zn1	Zn	1.345316	-0.553227	-0.587609
Zn2	Zn	1.353903	-0.720906	-0.437258
Zn3	Zn	1.203631	-0.532865	-0.428606
Zn4	Zn	1.194931	-0.719646	-0.578909
O5	O	1.274445	-0.631661	-0.508096
O6	O	1.472282	-0.584518	-0.574926
O7	O	1.341204	-0.687967	-0.310285
O8	O	1.222473	-0.387223	-0.449718
O9	O	1.478590	-0.707711	-0.464464
O10	O	1.326569	-0.402183	-0.566537
O11	O	1.230799	-0.549815	-0.303929
O12	O	1.076650	-0.548593	-0.441282
O13	O	1.207645	-0.705565	-0.705889
O14	O	1.070259	-0.685821	-0.551710
O15	O	1.318133	-0.583297	-0.712280
O16	O	1.332768	-0.869081	-0.456028
O17	O	1.215971	-0.868156	-0.560099
C18	C	1.040829	-0.614862	-0.494614
C19	C	0.940886	-0.607702	-0.488867
C20	C	0.746483	-0.737343	-0.592903
C21	C	0.652577	-0.730619	-0.587507
C22	C	0.659166	-0.587526	-0.472684
C23	C	0.753072	-0.594249	-0.478080
C24	C	0.796727	-0.669162	-0.538191
C25	C	0.890635	-0.675890	-0.543582
C26	C	0.897222	-0.532792	-0.428764
C27	C	0.803316	-0.526068	-0.423368
C28	C	1.274380	-0.907085	-0.508079
C29	C	1.274433	-1.024921	-0.508107
C30	C	1.201231	-1.191981	-0.573809
C31	C	1.200890	-1.069382	-0.573564
C32	C	1.254254	-1.061620	-0.411871
C33	C	1.253808	-1.184216	-0.412269
C34	C	1.368282	-1.200403	-0.537898
C35	C	1.367579	-1.077886	-0.539936
C36	C	1.508974	-0.648527	-0.521631
C37	C	1.608916	-0.655714	-0.527399
C38	C	1.260961	-0.646562	-0.742622
C39	C	1.255214	-0.652912	-0.842563
C40	C	1.274534	-0.355164	-0.508133
C41	C	1.274571	-0.237338	-0.508149
C42	C	1.359465	-0.537502	-1.037020
C43	C	1.354068	-0.543464	-1.130923
C44	C	1.239021	-0.670794	-1.124275
C45	C	1.244418	-0.664831	-1.030371
C46	C	1.304642	-0.598184	-0.986747
C47	C	1.310043	-0.592227	-0.892842
C48	C	1.194992	-0.719550	-0.886195
C49	C	1.189595	-0.725513	-0.980099
C50	C	1.287929	-0.616745	-0.274485
C51	C	1.293850	-0.610109	-0.174555
H52	H	0.611672	-0.786137	-0.632061
O53	O	1.124642	-0.797390	-1.027159
H54	H	1.087423	-0.838579	-0.976422
H55	H	1.359082	-0.537961	-0.857325
O56	O	1.443180	-1.038482	-0.481761
H57	H	1.491536	-0.999793	-0.523898
H58	H	0.926177	-0.736889	-0.592525
H59	H	0.623606	-0.526530	-0.423751
H60	H	0.782028	-0.798344	-0.641842
O61	O	1.323089	-1.023141	-0.344976
H62	H	1.307309	-1.050132	-0.277553
H63	H	1.408506	-0.483240	-1.001501
H64	H	1.189989	-0.725054	-1.159810
O65	O	1.413202	-0.478022	-1.185151
H66	H	1.455989	-0.430686	-1.139037
O67	O	1.135852	-0.785004	-0.831975
H68	H	1.149716	-0.769659	-0.759348
H69	H	0.767759	-0.465075	-0.374431
O70	O	1.164717	-1.012771	-0.378887
H71	H	1.134451	-0.962349	-0.430869
H72	H	0.938141	-0.477276	-0.384212
H73	H	1.213061	-1.227037	-0.645218
O74	O	1.216702	-1.036892	-0.667868
H75	H	1.224666	-1.108808	-0.714059
O76	O	1.109620	-1.224880	-0.547436
H77	H	1.116096	-1.273394	-0.487766
H78	H	1.131307	-1.034056	-0.553424
H79	H	1.185468	-1.206601	-0.387705
H80	H	1.305205	-1.213914	-0.361385
H81	H	1.387759	-1.237265	-0.607169
H82	H	1.382895	-1.054579	-0.610788
H83	H	1.422855	-1.229860	-0.490142
