data_functionalizedCrystal
_audit_creation_method	'MofGen! by Chris Wilmer'
_symmetry_space_group_name_H-M	'P1'
_symmetry_Int_Tables_number	1
_symmetry_cell_setting	triclinic
loop_
_symmetry_equiv_pos_as_xyz
  x,y,z
_cell_length_a	14.044220
_cell_length_b	15.944551
_cell_length_c	12.503572
_cell_angle_alpha	93.522593
_cell_angle_beta	86.164750
_cell_angle_gamma	88.343808
loop_
_atom_site_label
_atom_site_type_symbol
_atom_site_fract_x
_atom_site_fract_y
_atom_site_fract_z
O1	O	1.263178	0.198062	-0.089210
O2	O	1.596512	0.531395	0.244123
O3	O	1.929845	0.864728	0.577456
O4	O	0.987210	0.190753	-0.089237
O5	O	1.320544	0.524086	0.244096
O6	O	1.653877	0.857420	0.577429
O7	O	1.132730	0.072697	-0.089213
O8	O	1.466063	0.406031	0.244120
O9	O	1.799397	0.739364	0.577453
O10	O	1.117659	0.316117	-0.089234
O11	O	1.450992	0.649451	0.244099
O12	O	1.784326	0.982784	0.577432
O13	O	1.121786	0.081592	0.089427
O14	O	1.455119	0.414925	0.422760
O15	O	1.788453	0.748258	0.756093
O16	O	0.976267	0.199647	0.089403
O17	O	1.309600	0.532981	0.422736
O18	O	1.642933	0.866314	0.756069
O19	O	1.252235	0.206956	0.089430
O20	O	1.585568	0.540290	0.422763
O21	O	1.918901	0.873623	0.756096
Cu22	Cu	1.113251	0.204114	0.105728
Cu23	Cu	1.446585	0.537447	0.439061
Cu24	Cu	1.779918	0.870781	0.772394
Cu25	Cu	1.126194	0.193595	-0.105535
Cu26	Cu	1.459527	0.526928	0.227798
Cu27	Cu	1.792860	0.860262	0.561132
O28	O	1.106715	0.325012	0.089406
O29	O	1.440048	0.658345	0.422739
O30	O	1.773382	0.991679	0.756073
C31	C	0.946424	0.192001	0.000079
C32	C	1.279757	0.525335	0.333413
C33	C	1.613091	0.858668	0.666746
C34	C	0.841198	0.182459	0.000069
C35	C	1.174532	0.515793	0.333403
C36	C	1.507865	0.849126	0.666736
C37	C	1.126632	0.045804	0.000107
C38	C	1.459966	0.379137	0.333440
C39	C	1.793299	0.712470	0.666773
C40	C	1.124756	-0.047583	0.000107
C41	C	1.458090	0.285751	0.333440
C42	C	1.791423	0.619084	0.666774
C43	C	0.648534	0.165017	0.000092
C44	C	0.981868	0.498350	0.333425
C45	C	1.315201	0.831684	0.666759
C46	C	0.590906	0.232688	0.000091
C47	C	0.924239	0.566021	0.333424
C48	C	1.257572	0.899354	0.666758
C49	C	0.483701	0.222983	0.000104
C50	C	0.817034	0.556316	0.333437
C51	C	1.150367	0.889649	0.666770
C52	C	0.755749	0.174721	0.000079
C53	C	1.089083	0.508054	0.333413
C54	C	1.422416	0.841388	0.666746
C55	C	1.030073	-0.269530	0.000083
C56	C	1.363407	0.063803	0.333416
C57	C	1.696740	0.397136	0.666750
C58	C	1.068645	-0.322870	0.088168
C59	C	1.401979	0.010464	0.421501
C60	C	1.735312	0.343797	0.754834
C61	C	1.121363	-0.218563	0.000099
C62	C	1.454697	0.114770	0.333432
C63	C	1.788030	0.448104	0.666765
C64	C	1.079457	-0.331621	-0.087957
C65	C	1.412790	0.001713	0.245376
C66	C	1.746123	0.335046	0.578709
C67	C	1.118079	-0.383722	0.000086
C68	C	1.451413	-0.050389	0.333419
C69	C	1.784746	0.282944	0.666752
C70	C	1.159956	-0.270669	0.088256
C71	C	1.493289	0.062665	0.421589
C72	C	1.826623	0.395998	0.754923
C73	C	1.170759	-0.279418	-0.087948
C74	C	1.504093	0.053915	0.245385
C75	C	1.837426	0.387248	0.578718
C76	C	1.209396	-0.332734	0.000158
C77	C	1.542730	0.000599	0.333491
C78	C	1.876063	0.333933	0.666825
C79	C	1.123252	-0.123419	0.000107
C80	C	1.456586	0.209914	0.333440
C81	C	1.789919	0.543248	0.666774
C82	C	1.116197	-0.478865	0.000085
C83	C	1.449530	-0.145531	0.333418
C84	C	1.782863	0.187802	0.666752
C85	C	1.293021	0.205708	0.000111
C86	C	1.626354	0.539041	0.333444
C87	C	1.959688	0.872374	0.666777
C88	C	1.398247	0.215249	0.000114
C89	C	1.731581	0.548583	0.333447
C90	C	2.064914	0.881916	0.666780
C91	C	1.112813	0.351905	0.000083
C92	C	1.446146	0.685239	0.333417
C93	C	1.779480	1.018572	0.666750
C94	C	1.114689	0.445291	0.000076
C95	C	1.448023	0.778625	0.333409
C96	C	1.781356	1.111958	0.666743
N97	N	1.104155	0.211512	0.254318
N98	N	1.437488	0.544846	0.587652
N99	N	1.770822	0.878179	0.920985
N100	N	1.135297	0.186191	-0.254126
N101	N	1.468631	0.519524	0.079207
N102	N	1.801964	0.852857	0.412541
C103	C	1.090774	0.222403	0.473431
C104	C	1.424108	0.555736	0.806765
C105	C	1.757441	0.889069	1.140098
C106	C	1.148675	0.175303	0.526768
C107	C	1.482008	0.508636	0.860101
C108	C	1.815342	0.841970	1.193435
C109	C	1.141230	0.181362	0.648690
C110	C	1.474563	0.514696	0.982023
C111	C	1.807896	0.848029	1.315357
C112	C	1.098218	0.216344	0.351498
C113	C	1.431552	0.549677	0.684832
C114	C	1.764885	0.883011	1.018165
H115	H	0.622081	0.297911	0.000080
H116	H	0.955415	0.631245	0.333413
H117	H	1.288748	0.964578	0.666747
Br118	Br	1.216652	-0.226356	0.212510
Br119	Br	1.549986	0.106978	0.545844
Br120	Br	1.883319	0.440311	0.879177
H121	H	0.617360	0.099799	0.000104
H122	H	0.950694	0.433132	0.333437
H123	H	1.284027	0.766465	0.666770
H124	H	1.285235	-0.360211	0.000215
H125	H	1.618568	-0.026878	0.333548
H126	H	1.951902	0.306456	0.666882
Br127	Br	0.903769	-0.223467	0.000207
Br128	Br	1.237102	0.109866	0.333540
Br129	Br	1.570436	0.443200	0.666873
Br130	Br	0.996690	-0.355023	0.212278
Br131	Br	1.330024	-0.021690	0.545611
Br132	Br	1.663357	0.311643	0.878944
H133	H	1.045395	-0.358298	-0.162431
H134	H	1.378728	-0.024964	0.170902
H135	H	1.712062	0.308369	0.504235
Br136	Br	1.242667	-0.247229	-0.212063
Br137	Br	1.576001	0.086104	0.121271
Br138	Br	1.909334	0.419438	0.454604
H139	H	1.203838	0.130429	0.480864
H140	H	1.537171	0.463762	0.814197
H141	H	1.870504	0.797096	1.147531
Br142	Br	0.998839	0.297194	0.549934
Br143	Br	1.332173	0.630528	0.883267
Br144	Br	1.665506	0.963861	1.216600
