data_functionalizedCrystal
_audit_creation_method	'MofGen! by Chris Wilmer'
_symmetry_space_group_name_H-M	'P1'
_symmetry_Int_Tables_number	1
_symmetry_cell_setting	triclinic
loop_
_symmetry_equiv_pos_as_xyz
  x,y,z
_cell_length_a	10.654553
_cell_length_b	19.188930
_cell_length_c	9.130313
_cell_angle_alpha	89.993647
_cell_angle_beta	89.999282
_cell_angle_gamma	83.815479
loop_
_atom_site_label
_atom_site_type_symbol
_atom_site_fract_x
_atom_site_fract_y
_atom_site_fract_z
O1	O	1.665757	0.098069	-0.121834
O2	O	1.300081	0.107409	-0.121835
O3	O	1.493471	0.001153	-0.121806
O4	O	1.472366	0.204326	-0.121863
O5	O	1.493469	0.001156	0.121793
O6	O	1.300079	0.107412	0.121764
O7	O	1.665754	0.098072	0.121765
Cu8	Cu	1.482916	0.102742	0.144007
Cu9	Cu	1.482919	0.102739	-0.144077
O10	O	1.472364	0.204329	0.121735
C11	C	1.253296	0.106725	-0.000036
C12	C	1.113897	0.104671	-0.000035
C13	C	0.917417	0.101775	0.132742
C14	C	1.048396	0.103708	0.132749
C15	C	1.048409	0.103709	-0.132835
C16	C	0.917430	0.101781	-0.132842
C17	C	0.917411	0.101771	0.286075
C18	C	1.048391	0.103704	0.286083
C19	C	1.492787	-0.024861	-0.000002
C20	C	1.490735	-0.102379	0.000010
C21	C	1.604210	-0.146560	0.000017
C22	C	1.602283	-0.219397	-0.000006
C23	C	1.486874	-0.248049	-0.000007
C24	C	1.373384	-0.203858	-0.000023
C25	C	1.375314	-0.131023	-0.000014
N26	N	1.398656	-0.356630	0.082894
N27	N	1.396830	-0.425821	0.082888
C28	C	1.481050	-0.467496	-0.000037
N29	N	1.567184	-0.437367	-0.082939
N30	N	1.569014	-0.368171	-0.082927
C31	C	1.484767	-0.327025	-0.000018
C32	C	1.592443	-0.590655	-0.000057
C33	C	1.590510	-0.663492	-0.000090
C34	C	1.361608	-0.647952	-0.000092
C35	C	1.363543	-0.575116	-0.000074
C36	C	1.478964	-0.546472	-0.000050
C37	C	1.712539	0.098757	-0.000038
C38	C	1.851938	0.100810	-0.000049
C39	C	1.473048	0.230343	-0.000071
C40	C	1.475100	0.307861	-0.000094
N41	N	1.482923	0.102744	0.346629
N42	N	1.482922	0.102732	-0.346700
C43	C	1.568578	0.055710	0.423294
C44	C	1.568575	0.055702	0.576631
C45	C	1.397258	0.149768	0.576624
C46	C	1.397256	0.149773	0.423290
C47	C	1.667491	0.001403	0.423299
C48	C	1.667487	0.001395	0.576636
H49	H	0.888915	0.050852	0.333661
H50	H	1.763746	0.013358	0.618249
F51	F	1.306078	0.199824	0.341699
F52	F	1.306089	0.199816	0.658225
H53	H	1.694691	-0.255376	-0.000006
H54	H	1.647183	-0.052260	0.381694
F55	F	1.628999	-0.064885	0.638810
F56	F	0.847745	0.100766	-0.274175
F57	F	1.727052	-0.116080	0.000012
H58	H	1.758314	0.018408	0.375736
H59	H	0.870106	0.150019	0.344937
H60	H	1.101748	0.104500	-0.240951
F61	F	1.254533	-0.084000	-0.000023
H62	H	1.267639	-0.671280	-0.000100
F63	F	1.085633	0.170261	0.348258
H64	H	1.095696	0.055453	0.344962
H65	H	1.279417	-0.227191	-0.000027
F66	F	1.715282	-0.560167	-0.000024
H67	H	1.682919	-0.699464	-0.000092
H68	H	1.271139	-0.539143	-0.000072
