data_functionalizedCrystal
_audit_creation_method	'MofGen! by Chris Wilmer'
_symmetry_space_group_name_H-M	'P1'
_symmetry_Int_Tables_number	1
_symmetry_cell_setting	triclinic
loop_
_symmetry_equiv_pos_as_xyz
  x,y,z
_cell_length_a	8.559649
_cell_length_b	8.634740
_cell_length_c	7.088929
_cell_angle_alpha	82.809607
_cell_angle_beta	84.674985
_cell_angle_gamma	94.825514
loop_
_atom_site_label
_atom_site_type_symbol
_atom_site_fract_x
_atom_site_fract_y
_atom_site_fract_z
O1	O	2.098509	0.033904	0.158958
O2	O	1.645345	-0.044308	0.158966
O3	O	1.850476	0.216734	0.158957
O4	O	1.893378	-0.227138	0.158966
O5	O	1.877879	0.251690	-0.159019
O6	O	1.672748	-0.009352	-0.159011
O7	O	2.125912	0.068860	-0.159019
Cu8	Cu	1.901832	0.032945	-0.188048
Cu9	Cu	1.869425	-0.008394	0.187995
O10	O	1.920781	-0.192182	-0.159010
C11	C	1.600429	-0.032757	-0.000021
C12	C	1.425765	-0.050400	-0.000018
C13	C	1.854458	0.290511	-0.000028
C14	C	1.825479	0.458261	-0.000018
C15	C	2.170827	0.057308	-0.000027
C16	C	2.345490	0.074950	-0.000018
C17	C	1.916798	-0.265960	-0.000021
C18	C	1.945776	-0.433712	-0.000018
N19	N	1.924637	0.062024	-0.452537
N20	N	1.846631	-0.037459	0.452484
H21	H	1.360859	-0.171224	-0.000006
H22	H	2.070931	0.530433	0.000046
H23	H	1.700309	0.494114	-0.000004
C24	C	1.737401	-0.176730	-0.437224
C25	C	1.718965	-0.201070	-0.217067
C26	C	1.609732	-0.340344	-0.106762
C27	C	1.518937	-0.455279	-0.216614
C28	C	1.537370	-0.430942	-0.436784
C29	C	1.646602	-0.291668	-0.547089
H30	H	1.786180	-0.115986	-0.135737
H31	H	1.596087	-0.358359	0.056223
H32	H	1.438076	-0.558378	-0.134960
H33	H	1.470155	-0.516027	-0.518114
H34	H	1.660247	-0.273653	-0.710074
H35	H	2.005500	0.165114	-0.534196
H36	H	1.410387	0.195764	-0.000011
