data_functionalizedCrystal
_audit_creation_method	'MofGen! by Chris Wilmer'
_symmetry_space_group_name_H-M	'P1'
_symmetry_Int_Tables_number	1
_symmetry_cell_setting	triclinic
loop_
_symmetry_equiv_pos_as_xyz
  x,y,z
_cell_length_a	21.395362
_cell_length_b	21.295416
_cell_length_c	21.395355
_cell_angle_alpha	90.018978
_cell_angle_beta	89.956060
_cell_angle_gamma	89.953791
loop_
_atom_site_label
_atom_site_type_symbol
_atom_site_fract_x
_atom_site_fract_y
_atom_site_fract_z
Zn1	Zn	0.957861	0.250415	-0.354584
Zn2	Zn	1.207861	0.500415	-0.104584
Zn3	Zn	1.457861	0.750415	0.145416
Zn4	Zn	1.707861	1.000415	0.395416
Zn5	Zn	0.957764	0.355667	-0.249805
Zn6	Zn	1.207764	0.605667	0.000195
Zn7	Zn	1.457764	0.855667	0.250195
Zn8	Zn	1.707764	1.105667	0.500195
Zn9	Zn	0.853076	0.250445	-0.249785
Zn10	Zn	1.103076	0.500445	0.000215
Zn11	Zn	1.353076	0.750445	0.250215
Zn12	Zn	1.603076	1.000445	0.500215
Zn13	Zn	0.853046	0.355680	-0.354510
Zn14	Zn	1.103046	0.605680	-0.104510
Zn15	Zn	1.353046	0.855680	0.145490
Zn16	Zn	1.603046	1.105680	0.395490
O17	O	0.905437	0.303052	-0.302171
O18	O	1.155437	0.553052	-0.052171
O19	O	1.405437	0.803052	0.197829
O20	O	1.655437	1.053052	0.447829
O21	O	1.045526	0.264359	-0.340724
O22	O	1.295526	0.514359	-0.090724
O23	O	1.545526	0.764359	0.159276
O24	O	1.795526	1.014359	0.409276
O25	O	0.943849	0.341716	-0.162125
O26	O	1.193849	0.591716	0.087875
O27	O	1.443849	0.841716	0.337875
O28	O	1.693849	1.091716	0.587875
O29	O	0.867029	0.162351	-0.263709
O30	O	1.117029	0.412351	-0.013709
O31	O	1.367029	0.662351	0.236291
O32	O	1.617029	0.912351	0.486291
O33	O	1.045455	0.341687	-0.263744
O34	O	1.295455	0.591687	-0.013744
O35	O	1.545455	0.841687	0.236256
O36	O	1.795455	1.091687	0.486256
O37	O	0.944014	0.162330	-0.340704
O38	O	1.194014	0.412330	-0.090704
O39	O	1.444014	0.662330	0.159296
O40	O	1.694014	0.912330	0.409296
O41	O	0.866935	0.264409	-0.162110
O42	O	1.116935	0.514409	0.087890
O43	O	1.366935	0.764409	0.337890
O44	O	1.616935	1.014409	0.587890
O45	O	0.765394	0.264422	-0.263638
O46	O	1.015394	0.514422	-0.013638
O47	O	1.265394	0.764422	0.236362
O48	O	1.515394	1.014422	0.486362
O49	O	0.866978	0.341709	-0.442198
O50	O	1.116978	0.591709	-0.192198
O51	O	1.366978	0.841709	0.057802
O52	O	1.616978	1.091709	0.307802
O53	O	0.765372	0.341738	-0.340579
O54	O	1.015372	0.591738	-0.090579
O55	O	1.265372	0.841738	0.159421
O56	O	1.515372	1.091738	0.409421
O57	O	0.943985	0.264372	-0.442252
O58	O	1.193985	0.514372	-0.192252
O59	O	1.443985	0.764372	0.057748
O60	O	1.693985	1.014372	0.307748
O61	O	0.943820	0.443758	-0.263672
O62	O	1.193820	0.693758	-0.013672
O63	O	1.443820	0.943758	0.236328
O64	O	1.693820	1.193758	0.486328
O65	O	0.866884	0.443767	-0.340598
O66	O	1.116884	0.693767	-0.090598
O67	O	1.366884	0.943767	0.159402
O68	O	1.616884	1.193767	0.409402
C69	C	0.742649	0.303085	-0.302098
C70	C	0.992649	0.553085	-0.052098
C71	C	1.242649	0.803085	0.197902
C72	C	1.492649	1.053085	0.447902
C73	C	0.673008	0.303114	-0.302082
C74	C	0.923008	0.553114	-0.052082
C75	C	1.173008	0.803114	0.197918
C76	C	1.423008	1.053114	0.447918
C77	C	0.640300	0.343426	-0.342085
C78	C	0.890300	0.593426	-0.092085
C79	C	1.140300	0.843426	0.157915
C80	C	1.390300	1.093426	0.407915
C81	C	0.574864	0.343411	-0.342113
C82	C	0.824864	0.593411	-0.092113
C83	C	1.074864	0.843411	0.157887
C84	C	1.324864	1.093411	0.407887
C85	C	0.542140	0.303090	-0.302127
C86	C	0.792140	0.553090	-0.052127
C87	C	1.042140	0.803090	0.197873
C88	C	1.292140	1.053090	0.447873
C89	C	0.574856	0.262771	-0.262121
C90	C	0.824856	0.512771	-0.012121
C91	C	1.074856	0.762771	0.237879
C92	C	1.324856	1.012771	0.487879
C93	C	0.640290	0.262783	-0.262098
C94	C	0.890290	0.512783	-0.012098
C95	C	1.140290	0.762783	0.237902
C96	C	1.390290	1.012783	0.487902
C97	C	0.438415	0.298019	-0.245721
C98	C	0.688415	0.548019	0.004279
C99	C	0.938415	0.798019	0.254279
C100	C	1.188415	1.048019	0.504279
C101	C	0.372982	0.298011	-0.245743
C102	C	0.622982	0.548011	0.004257
C103	C	0.872982	0.798011	0.254257
C104	C	1.122982	1.048011	0.504257
C105	C	0.340319	0.303049	-0.302196
C106	C	0.590319	0.553049	-0.052196
C107	C	0.840319	0.803049	0.197804
C108	C	1.090319	1.053049	0.447804
C109	C	0.373097	0.308108	-0.358629
C110	C	0.623097	0.558108	-0.108629
C111	C	0.873097	0.808108	0.141371
C112	C	1.123097	1.058108	0.391371
C113	C	0.438531	0.308120	-0.358607
C114	C	0.688531	0.558120	-0.108607
C115	C	0.938531	0.808120	0.141393
C116	C	1.188531	1.058120	0.391393
C117	C	0.471187	0.303072	-0.302147
C118	C	0.721187	0.553072	-0.052147
C119	C	0.971187	0.803072	0.197853
C120	C	1.221187	1.053072	0.447853
C121	C	0.236658	0.343346	-0.342233
C122	C	0.486658	0.593346	-0.092233
C123	C	0.736658	0.843346	0.157767
C124	C	0.986658	1.093346	0.407767
C125	C	0.171222	0.343326	-0.342262
C126	C	0.421222	0.593326	-0.092262
C127	C	0.671222	0.843326	0.157738
C128	C	0.921222	1.093326	0.407738
C129	C	0.171214	0.262690	-0.262264
C130	C	0.421214	0.512690	-0.012264
C131	C	0.671214	0.762690	0.237736
C132	C	0.921214	1.012690	0.487736
C133	C	0.236650	0.262706	-0.262240
C134	C	0.486650	0.512706	-0.012240
C135	C	0.736650	0.762706	0.237760
C136	C	0.986650	1.012706	0.487760
C137	C	0.269368	0.303038	-0.302224
C138	C	0.519368	0.553038	-0.052224
C139	C	0.769368	0.803038	0.197776
C140	C	1.019368	1.053038	0.447776
C141	C	0.905355	0.466603	-0.302143
C142	C	1.155355	0.716603	-0.052143
C143	C	1.405355	0.966603	0.197857
C144	C	1.655355	1.216603	0.447857
C145	C	0.905378	0.536571	-0.302152
C146	C	1.155378	0.786571	-0.052152
C147	C	1.405378	1.036571	0.197848
C148	C	1.655378	1.286571	0.447848
C149	C	0.945474	0.569412	-0.262139
C150	C	1.195474	0.819412	-0.012139
C151	C	1.445474	1.069412	0.237861
C152	C	1.695474	1.319412	0.487861
C153	C	0.945504	0.635155	-0.262156
C154	C	1.195504	0.885155	-0.012156
C155	C	1.445504	1.135155	0.237844
C156	C	1.695504	1.385155	0.487844
C157	C	0.905426	0.668054	-0.302180
C158	C	1.155426	0.918054	-0.052180
C159	C	1.405426	1.168054	0.197820
C160	C	1.655426	1.418054	0.447820
C161	C	0.865326	0.635205	-0.342200
C162	C	1.115326	0.885205	-0.092200
C163	C	1.365326	1.135205	0.157800
C164	C	1.615326	1.385205	0.407800
C165	C	0.865302	0.569464	-0.342187
C166	C	1.115302	0.819464	-0.092187
C167	C	1.365302	1.069464	0.157813
C168	C	1.615302	1.319464	0.407813
N169	N	0.850616	0.771336	-0.306936
N170	N	1.100616	1.021336	-0.056936
N171	N	1.350616	1.271336	0.193064
N172	N	1.600616	1.521336	0.443064
N173	N	0.850641	0.833787	-0.306945
N174	N	1.100641	1.083787	-0.056945
N175	N	1.350641	1.333787	0.193055
N176	N	1.600641	1.583787	0.443055
C177	C	0.905496	0.866129	-0.302224
C178	C	1.155496	1.116129	-0.052224
C179	C	1.405496	1.366129	0.197776
C180	C	1.655496	1.616129	0.447776
N181	N	0.960328	0.833659	-0.297481
N182	N	1.210328	1.083659	-0.047481
N183	N	1.460328	1.333659	0.202519
N184	N	1.710328	1.583659	0.452519
N185	N	0.960303	0.771202	-0.297468
N186	N	1.210303	1.021202	-0.047468
N187	N	1.460303	1.271202	0.202532
N188	N	1.710303	1.521202	0.452532
C189	C	0.905447	0.739339	-0.302199
C190	C	1.155447	0.989339	-0.052199
C191	C	1.405447	1.239339	0.197801
C192	C	1.655447	1.489339	0.447801
C193	C	0.945628	0.970255	-0.262227
C194	C	1.195628	1.220255	-0.012227
C195	C	1.445628	1.470255	0.237773
C196	C	1.695628	1.720255	0.487773
C197	C	0.945659	1.035999	-0.262249
C198	C	1.195659	1.285999	-0.012249
C199	C	1.445659	1.535999	0.237751
C200	C	1.695659	1.785999	0.487751
C201	C	0.865476	1.036048	-0.342289
C202	C	1.115476	1.286048	-0.092289
C203	C	1.365476	1.536048	0.157711
C204	C	1.615476	1.786048	0.407711
C205	C	0.865451	0.970305	-0.342271
C206	C	1.115451	1.220305	-0.092271
C207	C	1.365451	1.470305	0.157729
C208	C	1.615451	1.720305	0.407729
C209	C	0.905526	0.937413	-0.302237
C210	C	1.155526	1.187413	-0.052237
C211	C	1.405526	1.437413	0.197763
C212	C	1.655526	1.687413	0.447763
C213	C	1.068860	0.303019	-0.302244
C214	C	1.318860	0.553019	-0.052244
C215	C	1.568860	0.803019	0.197756
C216	C	1.818860	1.053019	0.447756
C217	C	1.138501	0.303005	-0.302275
C218	C	1.388501	0.553005	-0.052275
C219	C	1.638501	0.803005	0.197725
C220	C	1.888501	1.053005	0.447725
C221	C	0.905489	0.303039	-0.465594
C222	C	1.155489	0.553039	-0.215594
C223	C	1.405489	0.803039	0.034406
C224	C	1.655489	1.053039	0.284406
C225	C	0.905511	0.303033	-0.535236
C226	C	1.155511	0.553033	-0.285236
C227	C	1.405511	0.803033	-0.035236
C228	C	1.655511	1.053033	0.214764
C229	C	0.905537	1.138861	-0.302223
C230	C	1.155537	1.388861	-0.052223
C231	C	1.405537	1.638861	0.197777
C232	C	1.655537	1.888861	0.447777
C233	C	0.905581	1.068893	-0.302273
C234	C	1.155581	1.318893	-0.052273
C235	C	1.405581	1.568893	0.197727
C236	C	1.655581	1.818893	0.447727
C237	C	0.945607	0.262762	-0.567978
C238	C	1.195607	0.512762	-0.317978
C239	C	1.445607	0.762762	-0.067978
C240	C	1.695607	1.012762	0.182022
C241	C	0.945606	0.262735	-0.633413
C242	C	1.195606	0.512735	-0.383413
C243	C	1.445606	0.762735	-0.133413
C244	C	1.695606	1.012735	0.116587
C245	C	0.905516	0.302991	-0.666104
C246	C	1.155516	0.552991	-0.416104
C247	C	1.405516	0.802991	-0.166104
C248	C	1.655516	1.052991	0.083896
C249	C	0.865412	0.343265	-0.633354
C250	C	1.115412	0.593265	-0.383354
C251	C	1.365412	0.843265	-0.133354
C252	C	1.615412	1.093265	0.116646
C253	C	0.865410	0.343286	-0.567920
C254	C	1.115410	0.593286	-0.317920
C255	C	1.365410	0.843286	-0.067920
C256	C	1.615410	1.093286	0.182080
C257	C	0.900540	0.359672	-0.769767
C258	C	1.150540	0.609672	-0.519767
C259	C	1.400540	0.859672	-0.269767
C260	C	1.650540	1.109672	-0.019767
C261	C	0.900547	0.359652	-0.835200
C262	C	1.150547	0.609652	-0.585200
C263	C	1.400547	0.859652	-0.335200
C264	C	1.650547	1.109652	-0.085200
C265	C	0.905520	0.302924	-0.867925
C266	C	1.155520	0.552924	-0.617925
C267	C	1.405520	0.802924	-0.367925
C268	C	1.655520	1.052924	-0.117925
C269	C	0.910499	0.246215	-0.835208
C270	C	1.160499	0.496215	-0.585208
C271	C	1.410499	0.746215	-0.335208
C272	C	1.660499	0.996215	-0.085208
C273	C	0.910496	0.246237	-0.769774
C274	C	1.160496	0.496237	-0.519774
C275	C	1.410496	0.746237	-0.269774
C276	C	1.660496	0.996237	-0.019774
C277	C	0.905514	0.302972	-0.737056
C278	C	1.155514	0.552972	-0.487056
C279	C	1.405514	0.802972	-0.237056
C280	C	1.655514	1.052972	0.012944
C281	C	0.945617	0.262620	-0.971620
C282	C	1.195617	0.512620	-0.721620
C283	C	1.445617	0.762620	-0.471620
C284	C	1.695617	1.012620	-0.221620
C285	C	0.945612	0.262592	-1.037056
C286	C	1.195612	0.512592	-0.787056
C287	C	1.445612	0.762592	-0.537056
C288	C	1.695612	1.012592	-0.287056
C289	C	0.865421	0.343127	-1.036996
C290	C	1.115421	0.593127	-0.786996
C291	C	1.365421	0.843127	-0.536996
C292	C	1.615421	1.093127	-0.286996
C293	C	0.865423	0.343150	-0.971560
C294	C	1.115423	0.593150	-0.721560
C295	C	1.365423	0.843150	-0.471560
C296	C	1.615423	1.093150	-0.221560
C297	C	0.905524	0.302897	-0.938876
C298	C	1.155524	0.552897	-0.688876
C299	C	1.405524	0.802897	-0.438876
C300	C	1.655524	1.052897	-0.188876
C301	C	0.905421	0.303019	-0.139383
C302	C	1.155421	0.553019	0.110617
C303	C	1.405421	0.803019	0.360617
C304	C	1.655421	1.053019	0.610617
C305	C	0.905520	0.302847	-0.069742
C306	C	1.155520	0.552847	0.180258
C307	C	1.405520	0.802847	0.430258
C308	C	1.655520	1.052847	0.680258
H309	H	0.346504	0.312209	-0.404599
H310	H	0.596504	0.562209	-0.154599
H311	H	0.846504	0.812209	0.095401
H312	H	1.096504	1.062209	0.345401
H313	H	0.548228	0.376237	-0.374691
H314	H	0.798228	0.626237	-0.124691
H315	H	1.048228	0.876237	0.125309
H316	H	1.298228	1.126237	0.375309
Cl317	Cl	0.479736	0.314475	-0.429549
Cl318	Cl	0.729736	0.564475	-0.179549
Cl319	Cl	0.979736	0.814475	0.070451
Cl320	Cl	1.229736	1.064475	0.320451
H321	H	0.832696	0.661996	-0.374789
H322	H	1.082696	0.911996	-0.124789
H323	H	1.332696	1.161996	0.125211
H324	H	1.582696	1.411996	0.375211
H325	H	0.263281	0.229883	-0.229662
H326	H	0.513281	0.479883	0.020338
H327	H	0.763281	0.729883	0.270338
H328	H	1.013281	0.979883	0.520338
H329	H	0.978260	0.229985	-0.541371
H330	H	1.228260	0.479985	-0.291371
H331	H	1.478260	0.729985	-0.041371
H332	H	1.728260	0.979985	0.208629
H333	H	0.896323	0.405855	-0.743129
H334	H	1.146323	0.655855	-0.493129
H335	H	1.396323	0.905855	-0.243129
H336	H	1.646323	1.155855	0.006871
H337	H	0.548207	0.229940	-0.229564
H338	H	0.798207	0.479940	0.020436
H339	H	1.048207	0.729940	0.270436
H340	H	1.298207	0.979940	0.520436
H341	H	0.832847	1.062834	-0.374880
H342	H	1.082847	1.312834	-0.124880
H343	H	1.332847	1.562834	0.125120
H344	H	1.582847	1.812834	0.375120
H345	H	0.832768	0.376039	-0.659975
H346	H	1.082768	0.626039	-0.409975
H347	H	1.332768	0.876039	-0.159975
H348	H	1.582768	1.126039	0.090025
H349	H	0.263299	0.376183	-0.374793
H350	H	0.513299	0.626183	-0.124793
H351	H	0.763299	0.876183	0.125207
H352	H	1.013299	1.126183	0.375207
H353	H	0.978157	0.661899	-0.229573
H354	H	1.228157	0.911899	0.020427
H355	H	1.478157	1.161899	0.270427
H356	H	1.728157	1.411899	0.520427
H357	H	0.978314	1.062736	-0.229667
H358	H	1.228314	1.312736	0.020333
H359	H	1.478314	1.562736	0.270333
H360	H	1.728314	1.812736	0.520333
H361	H	0.346299	0.293896	-0.199791
H362	H	0.596299	0.543896	0.050209
H363	H	0.846299	0.793896	0.300209
H364	H	1.096299	1.043896	0.550209
Cl365	Cl	0.479470	0.291688	-0.174744
Cl366	Cl	0.729470	0.541688	0.075256
Cl367	Cl	0.979470	0.791688	0.325256
Cl368	Cl	1.229470	1.041688	0.575256
H369	H	0.978256	0.229938	-0.660077
H370	H	1.228256	0.479938	-0.410077
H371	H	1.478256	0.729938	-0.160077
H372	H	1.728256	0.979938	0.089923
H373	H	0.144592	0.376152	-0.374841
H374	H	0.394592	0.626152	-0.124841
H375	H	0.644592	0.876152	0.125159
H376	H	0.894592	1.126152	0.375159
H377	H	0.914549	0.200062	-0.743139
H378	H	1.164549	0.450062	-0.493139
H379	H	1.414549	0.700062	-0.243139
H380	H	1.664549	0.950062	0.006861
H381	H	0.914549	0.200022	-0.861851
H382	H	1.164549	0.450022	-0.611851
H383	H	1.414549	0.700022	-0.361851
H384	H	1.664549	0.950022	-0.111851
Cl385	Cl	0.815038	0.929017	-0.392573
Cl386	Cl	1.065038	1.179017	-0.142573
Cl387	Cl	1.315038	1.429017	0.107427
Cl388	Cl	1.565038	1.679017	0.357427
Cl389	Cl	0.130081	0.211996	-0.211998
Cl390	Cl	0.380081	0.461996	0.038002
Cl391	Cl	0.630081	0.711996	0.288002
Cl392	Cl	0.880081	0.961996	0.538002
Cl393	Cl	0.681411	0.212101	-0.211804
Cl394	Cl	0.931411	0.462101	0.038196
Cl395	Cl	1.181411	0.712101	0.288196
Cl396	Cl	1.431411	0.962101	0.538196
H397	H	0.978107	0.542633	-0.229543
H398	H	1.228107	0.792633	0.020457
H399	H	1.478107	1.042633	0.270457
H400	H	1.728107	1.292633	0.520457
H401	H	0.832772	0.375897	-1.063612
H402	H	1.082772	0.625897	-0.813612
H403	H	1.332772	0.875897	-0.563612
H404	H	1.582772	1.125897	-0.313612
Cl405	Cl	0.815000	0.393918	-0.526756
Cl406	Cl	1.065000	0.643918	-0.276756
Cl407	Cl	1.315000	0.893918	-0.026756
Cl408	Cl	1.565000	1.143918	0.223244
Cl409	Cl	0.814891	0.528176	-0.392492
Cl410	Cl	1.064891	0.778176	-0.142492
Cl411	Cl	1.314891	1.028176	0.107508
Cl412	Cl	1.564891	1.278176	0.357508
H413	H	0.978262	0.943473	-0.229631
H414	H	1.228262	1.193473	0.020369
H415	H	1.478262	1.443473	0.270369
H416	H	1.728262	1.693473	0.520369
H417	H	0.978266	0.229840	-0.945007
H418	H	1.228266	0.479840	-0.695007
H419	H	1.478266	0.729840	-0.445007
H420	H	1.728266	0.979840	-0.195007
H421	H	0.978262	0.229795	-1.063714
H422	H	1.228262	0.479795	-0.813714
H423	H	1.478262	0.729795	-0.563714
H424	H	1.728262	0.979795	-0.313714
H425	H	0.832776	0.375947	-0.944901
H426	H	1.082776	0.625947	-0.694901
H427	H	1.332776	0.875947	-0.444901
H428	H	1.582776	1.125947	-0.194901
H429	H	0.666935	0.376266	-0.374644
H430	H	0.916935	0.626266	-0.124644
H431	H	1.166935	0.876266	0.125356
H432	H	1.416935	1.126266	0.375356
Cl433	Cl	0.894294	0.430942	-0.876323
Cl434	Cl	1.144294	0.680942	-0.626323
Cl435	Cl	1.394294	0.930942	-0.376323
Cl436	Cl	1.644294	1.180942	-0.126323
