data_functionalizedCrystal
_audit_creation_method	'MofGen! by Chris Wilmer'
_symmetry_space_group_name_H-M	'P1'
_symmetry_Int_Tables_number	1
_symmetry_cell_setting	triclinic
loop_
_symmetry_equiv_pos_as_xyz
  x,y,z
_cell_length_a	16.992694
_cell_length_b	15.944499
_cell_length_c	16.053802
_cell_angle_alpha	92.568450
_cell_angle_beta	87.249047
_cell_angle_gamma	87.072916
loop_
_atom_site_label
_atom_site_type_symbol
_atom_site_fract_x
_atom_site_fract_y
_atom_site_fract_z
O1	O	1.043673	0.174801	-0.069315
O2	O	1.543673	0.674801	0.430685
O3	O	0.815389	0.172846	-0.069339
O4	O	1.315389	0.672846	0.430661
O5	O	0.935786	0.051965	-0.069328
O6	O	1.435786	0.551965	0.430672
O7	O	0.923276	0.295682	-0.069326
O8	O	1.423276	0.795682	0.430674
O9	O	0.929159	0.058589	0.069531
O10	O	1.429159	0.558589	0.569531
O11	O	0.808762	0.179470	0.069519
O12	O	1.308762	0.679470	0.569519
O13	O	1.037046	0.181425	0.069544
O14	O	1.537046	0.681425	0.569544
Zn15	Zn	0.921852	0.181499	0.091578
Zn16	Zn	1.421852	0.681499	0.591578
Zn17	Zn	0.930583	0.172772	-0.091374
Zn18	Zn	1.430583	0.672772	0.408626
O19	O	0.916649	0.302306	0.069532
O20	O	1.416649	0.802306	0.569532
C21	C	0.782863	0.173644	0.000087
C22	C	1.282863	0.673644	0.500087
C23	C	0.695820	0.166143	0.000077
C24	C	1.195820	0.666143	0.500077
C25	C	0.645571	0.238509	0.000078
C26	C	1.145571	0.738509	0.500078
C27	C	0.563785	0.231458	0.000089
C28	C	1.063785	0.731458	0.500089
C29	C	0.532250	0.152039	0.000094
C30	C	1.032250	0.652039	0.500094
C31	C	0.582505	0.079668	0.000095
C32	C	1.082505	0.579668	0.500095
C33	C	0.664290	0.086721	0.000090
C34	C	1.164290	0.586721	0.500090
C35	C	0.288654	0.122809	0.000116
C36	C	0.788654	0.622809	0.500116
C37	C	0.206864	0.115761	0.000119
C38	C	0.706864	0.615761	0.500119
C39	C	0.188149	0.267552	0.000115
C40	C	0.688149	0.767552	0.500115
C41	C	0.269936	0.274597	0.000104
C42	C	0.769936	0.774597	0.500104
C43	C	0.320184	0.202226	0.000110
C44	C	0.820184	0.702226	0.500110
N45	N	0.448651	0.144829	0.000103
N46	N	0.948651	0.644829	0.500103
N47	N	0.403781	0.209437	0.000107
N48	N	0.903781	0.709437	0.500107
C49	C	0.931960	0.023948	0.000099
C50	C	1.431960	0.523948	0.500099
C51	C	0.930425	-0.069404	0.000093
C52	C	1.430425	0.430596	0.500093
C53	C	1.000372	-0.356248	0.000105
C54	C	1.500372	0.143752	0.500105
C55	C	0.960744	-0.294395	0.068568
C56	C	1.460744	0.205605	0.568568
C57	C	0.924846	-0.405414	0.000102
C58	C	1.424846	0.094586	0.500102
C59	C	0.967258	-0.300934	-0.068335
C60	C	1.467258	0.199066	0.431665
C61	C	0.927591	-0.240321	0.000096
C62	C	1.427591	0.259679	0.500096
C63	C	0.885194	-0.344788	0.068622
C64	C	1.385194	0.155212	0.568622
C65	C	0.891721	-0.351335	-0.068343
C66	C	1.391721	0.148665	0.431657
C67	C	0.852037	-0.289503	0.000137
C68	C	1.352037	0.210497	0.500137
C69	C	0.923267	-0.500520	0.000106
C70	C	1.423267	-0.000520	0.500106
C71	C	0.929164	-0.145217	0.000098
C72	C	1.429164	0.354783	0.500098
C73	C	1.069571	0.180627	0.000116
C74	C	1.569571	0.680627	0.500116
C75	C	1.156614	0.188127	0.000120
C76	C	1.656614	0.688127	0.500120
C77	C	0.920474	0.330323	0.000103
C78	C	1.420474	0.830323	0.500103
C79	C	0.922010	0.423674	0.000104
C80	C	1.422010	0.923674	0.500104
N81	N	0.915898	0.187456	0.216438
N82	N	1.415898	0.687456	0.716438
N83	N	0.936542	0.166809	-0.216233
N84	N	1.436542	0.666809	0.283767
C85	C	0.967146	0.136042	0.260137
C86	C	1.467146	0.636042	0.760137
C87	C	0.962989	0.140217	0.347543
C88	C	1.462989	0.640217	0.847543
C89	C	0.907587	0.195811	0.391249
C90	C	1.407587	0.695811	0.891249
C91	C	0.856334	0.247227	0.347544
C92	C	1.356334	0.747227	0.847544
C93	C	0.860488	0.243047	0.260139
C94	C	1.360488	0.743047	0.760139
C95	C	0.889443	0.214045	0.652657
C96	C	1.389443	0.714045	1.152657
C97	C	0.885294	0.218223	0.740068
C98	C	1.385294	0.718223	1.240068
C99	C	0.991949	0.111211	0.740061
C100	C	1.491949	0.611211	1.240061
C101	C	0.996101	0.107040	0.652654
C102	C	1.496101	0.607040	1.152654
C103	C	0.944845	0.158453	0.608957
C104	C	1.444845	0.658453	1.108957
N105	N	0.903339	0.200082	0.480592
N106	N	1.403339	0.700082	0.980592
N107	N	0.949091	0.154177	0.519615
N108	N	1.449091	0.654177	1.019615
H109	H	0.181192	0.051086	0.000122
H110	H	0.681192	0.551086	0.500122
N111	N	1.015314	0.087692	0.392202
N112	N	1.515314	0.587692	0.892202
N113	N	1.061650	0.119945	0.440994
N114	N	1.561650	0.619945	0.940994
H115	H	1.098593	0.082840	0.472543
H116	H	1.598593	0.582840	0.972543
H117	H	0.847710	0.255909	0.617085
H118	H	1.347710	0.755909	1.117085
N119	N	1.010793	-0.276520	-0.140952
N120	N	1.510793	0.223480	0.359048
N121	N	0.977801	-0.231534	-0.192224
N122	N	1.477801	0.268466	0.307776
H123	H	1.008551	-0.214293	-0.243508
H124	H	1.508551	0.285707	0.256492
H125	H	0.671240	0.303180	0.000074
H126	H	1.171240	0.803180	0.500074
N127	N	0.512468	0.305387	0.000095
N128	N	1.012468	0.805387	0.500095
N129	N	0.540634	0.376291	0.000087
N130	N	1.040634	0.876291	0.500087
H131	H	0.504392	0.428508	0.000092
H132	H	1.004392	0.928508	0.500092
H133	H	0.850510	-0.364146	0.126563
H134	H	1.350510	0.135854	0.626563
H135	H	1.041213	0.061771	0.617071
H136	H	1.541213	0.561771	1.117071
H137	H	0.789302	-0.260526	0.000170
H138	H	1.289302	0.239474	0.500170
H139	H	0.862565	-0.376350	-0.126232
H140	H	1.362565	0.123650	0.373768
H141	H	0.556822	0.015004	0.000111
H142	H	1.056822	0.515004	0.500111
N143	N	0.339963	0.048877	0.000118
N144	N	0.839963	0.548877	0.500118
N145	N	0.311794	-0.022025	0.000118
N146	N	0.811794	0.477975	0.500118
H147	H	0.348033	-0.074244	0.000117
H148	H	0.848033	0.425756	0.500117
H149	H	1.012263	0.090775	0.224557
H150	H	1.512263	0.590775	0.724557
H151	H	0.295606	0.339268	0.000091
H152	H	0.795606	0.839268	0.500091
N153	N	0.997336	-0.263028	0.141191
N154	N	1.497336	0.236972	0.641191
N155	N	0.959439	-0.213146	0.192443
N156	N	1.459439	0.286854	0.692443
H157	H	0.985283	-0.190999	0.243735
H158	H	1.485283	0.309001	0.743735
H159	H	0.840177	0.263498	0.775649
H160	H	1.340177	0.763498	1.275649
H161	H	1.033678	0.069352	0.775647
H162	H	1.533678	0.569352	1.275647
H163	H	0.705203	0.027792	0.000088
H164	H	1.205203	0.527792	0.500088
H165	H	0.147228	0.326472	0.000112
H166	H	0.647228	0.826472	0.500112
H167	H	1.063048	-0.385370	0.000177
H168	H	1.563048	0.114630	0.500177
N169	N	0.799741	0.304004	0.392198
N170	N	1.299741	0.804004	0.892198
N171	N	0.796039	0.307730	0.470237
N172	N	1.296039	0.807730	0.970237
H173	H	0.756069	0.347831	0.501775
H174	H	1.256069	0.847831	1.001775
N175	N	0.808131	0.295568	0.215512
N176	N	1.308131	0.795568	0.715512
N177	N	0.758667	0.345202	0.254542
N178	N	1.258667	0.845202	0.754542
H179	H	0.721685	0.382294	0.223026
H180	H	1.221685	0.882294	0.723026
