data_functionalizedCrystal
_audit_creation_method	'MofGen! by Chris Wilmer'
_symmetry_space_group_name_H-M	'P1'
_symmetry_Int_Tables_number	1
_symmetry_cell_setting	triclinic
loop_
_symmetry_equiv_pos_as_xyz
  x,y,z
_cell_length_a	8.597249
_cell_length_b	10.654550
_cell_length_c	9.130313
_cell_angle_alpha	90.000276
_cell_angle_beta	97.699358
_cell_angle_gamma	95.090212
loop_
_atom_site_label
_atom_site_type_symbol
_atom_site_fract_x
_atom_site_fract_y
_atom_site_fract_z
O1	O	0.220464	-1.669009	-0.093862
O2	O	0.241468	-1.303642	-0.091237
O3	O	0.002578	-1.493517	-0.121368
O4	O	0.459354	-1.479134	-0.063731
O5	O	0.002571	-1.493504	0.122230
O6	O	0.241461	-1.303629	0.152361
O7	O	0.220457	-1.668996	0.149736
Cu8	Cu	0.230958	-1.486311	0.173291
Cu9	Cu	0.230966	-1.486327	-0.114792
O10	O	0.459347	-1.479121	0.179867
C11	C	0.239922	-1.256829	0.030364
C12	C	0.235308	-1.117362	0.029771
C13	C	-0.055914	-1.491966	-0.006952
C14	C	-0.230190	-1.487349	-0.028953
C15	C	0.222002	-1.715809	0.028132
C16	C	0.226617	-1.855276	0.028715
C17	C	0.517838	-1.480672	0.065448
C18	C	0.692115	-1.485288	0.087439
N19	N	0.230951	-1.486309	0.375913
C20	C	0.375963	-1.038622	0.047523
C21	C	0.371618	-0.907578	0.047001
C22	C	0.085951	-0.934026	0.010966
C23	C	0.090298	-1.065067	0.011499
N24	N	0.230961	-1.486338	-0.317415
C25	C	0.125216	-1.570415	0.439228
C26	C	0.125216	-1.570427	0.592565
C27	C	0.336701	-1.402224	0.619259
C28	C	0.336692	-1.402207	0.465924
H29	H	-0.241076	-1.487056	0.203909
H30	H	-0.024248	-1.129181	-0.002954
H31	H	0.486153	-0.843473	0.061459
H32	H	0.039113	-1.638895	0.365944
H33	H	-0.032112	-0.891431	-0.003902
H34	H	0.039115	-1.638912	0.644111
H35	H	-0.297009	-1.485595	-0.145431
Br36	Br	0.480205	-1.288091	0.741421
H37	H	0.494039	-1.081195	0.062412
H38	H	0.422795	-1.333712	0.414369
