data_functionalizedCrystal
_audit_creation_method	'MofGen! by Chris Wilmer'
_symmetry_space_group_name_H-M	'P1'
_symmetry_Int_Tables_number	1
_symmetry_cell_setting	triclinic
loop_
_symmetry_equiv_pos_as_xyz
  x,y,z
_cell_length_a	16.109302
_cell_length_b	27.731996
_cell_length_c	15.186229
_cell_angle_alpha	89.990305
_cell_angle_beta	89.994701
_cell_angle_gamma	83.041584
loop_
_atom_site_label
_atom_site_type_symbol
_atom_site_fract_x
_atom_site_fract_y
_atom_site_fract_z
O1	O	1.102341	0.062133	-0.073280
O2	O	0.860181	0.069865	-0.073274
O3	O	0.988804	-0.004368	-0.073258
O4	O	0.973717	0.136366	-0.073296
O5	O	0.988796	-0.004369	0.073199
O6	O	0.860172	0.069864	0.073183
O7	O	1.102332	0.062132	0.073177
Zn8	Zn	0.981251	0.065998	0.096433
Zn9	Zn	0.981262	0.065999	-0.096530
O10	O	0.973709	0.136365	0.073161
C11	C	0.829206	0.069551	-0.000045
C12	C	0.736922	0.068612	-0.000042
C13	C	0.524604	0.066440	0.079784
C14	C	0.437896	0.065552	0.079781
C15	C	0.437915	0.065556	-0.079895
C16	C	0.524623	0.066440	-0.079891
C17	C	0.567965	0.066885	-0.000049
C18	C	0.394548	0.065113	-0.000056
C19	C	0.300535	0.064150	-0.000059
C20	C	0.661985	0.067846	-0.000045
C21	C	0.988490	-0.022377	-0.000027
C22	C	0.987557	-0.076037	-0.000018
C23	C	0.981688	-0.408778	-0.079894
C24	C	0.978143	-0.610451	-0.079910
O25	O	0.977653	-0.636523	-0.147806
N26	N	0.977698	-0.635670	-0.000077
C27	C	0.978134	-0.610468	0.079766
O28	O	0.977666	-0.636546	0.147669
C29	C	0.981673	-0.408795	0.079781
C30	C	0.982127	-0.383579	-0.000058
C31	C	0.982141	-0.383561	-0.159726
C32	C	0.983031	-0.333146	-0.159722
C33	C	0.983470	-0.307948	-0.079885
C34	C	0.983017	-0.333164	-0.000053
C35	C	0.982103	-0.383594	0.159622
C36	C	0.982986	-0.333172	0.159619
C37	C	0.983439	-0.307956	0.079780
C38	C	0.984346	-0.257551	0.079788
N39	N	0.984791	-0.232331	-0.000045
C40	C	0.984353	-0.257530	-0.079882
C41	C	0.976278	-0.716349	0.079753
C42	C	0.975395	-0.766767	0.079749
C43	C	0.975402	-0.766746	-0.079927
C44	C	0.976292	-0.716328	-0.079922
C45	C	0.976723	-0.691130	-0.000080
C46	C	0.986224	-0.151655	-0.079866
C47	C	0.987118	-0.101236	-0.079854
C48	C	0.987106	-0.101261	0.079821
C49	C	0.986217	-0.151676	0.079810
C50	C	0.985773	-0.176871	-0.000040
O51	O	0.984828	-0.231447	0.147649
O52	O	0.984803	-0.231442	-0.147774
C53	C	0.980798	-0.459192	-0.079899
C54	C	0.980345	-0.484409	-0.000067
C55	C	0.980783	-0.459210	0.079769
C56	C	0.979462	-0.534827	-0.000071
C57	C	0.979024	-0.560025	-0.079907
C58	C	0.979468	-0.534806	-0.159740
C59	C	0.980359	-0.484391	-0.159735
C60	C	0.980339	-0.484430	0.159602
C61	C	0.979449	-0.534845	0.159591
C62	C	0.979010	-0.560043	0.079755
C63	C	1.133308	0.062446	-0.000054
C64	C	1.225591	0.063385	-0.000063
C65	C	0.974023	0.154374	-0.000072
C66	C	0.974957	0.208034	-0.000087
N67	N	0.981249	0.065997	0.228126
N68	N	0.981270	0.065997	-0.228223
C69	C	1.038223	0.033137	0.453856
C70	C	1.038226	0.033136	0.546046
C71	C	0.924291	0.098858	0.546041
C72	C	0.924285	0.098856	0.453853
C73	C	0.981256	0.065996	0.407763
C74	C	0.981264	0.065997	0.592140
C75	C	0.981267	0.065996	0.692096
C76	C	0.981252	0.065997	0.307800
H77	H	0.559929	0.066801	-0.144904
O78	O	0.976596	-0.691922	0.157374
C79	C	0.904340	-0.698753	0.205940
H80	H	0.879678	-0.733523	0.183225
H81	H	0.854400	-0.666530	0.194894
C82	C	0.956477	-0.660069	0.332493
C83	C	0.926191	-0.702777	0.304599
H84	H	0.969954	-0.662549	0.393351
H85	H	1.005156	-0.655465	0.299773
H86	H	0.914855	-0.633221	0.323281
H87	H	0.967817	-0.729623	0.313801
H88	H	0.877520	-0.707385	0.337323
O89	O	0.868988	0.130844	0.590715
C90	C	0.881880	0.178697	0.568182
H91	H	0.913925	0.178641	0.501243
H92	H	0.923065	0.193655	0.620054
C93	C	0.757683	0.210907	0.646136
C94	C	0.797034	0.210839	0.563916
H95	H	0.705347	0.230736	0.643508
H96	H	0.748998	0.178668	0.661320
H97	H	0.792012	0.223371	0.689354
H98	H	0.762710	0.198370	0.520702
H99	H	0.805711	0.243077	0.548725
O100	O	0.395869	0.065046	-0.157473
C101	C	0.427043	0.023432	-0.206048
H102	H	0.457836	-0.005573	-0.159332
H103	H	0.475129	0.033406	-0.255824
C104	C	0.316721	0.039307	-0.312354
C105	C	0.354536	0.003681	-0.254975
H106	H	0.271997	0.027124	-0.342537
H107	H	0.295721	0.067344	-0.279630
H108	H	0.356801	0.047616	-0.353825
H109	H	0.314459	-0.004622	-0.213498
H110	H	0.375528	-0.024358	-0.287693
H111	H	0.983397	-0.312619	-0.224734
O112	O	0.979178	-0.559274	-0.237321
C113	C	1.051411	-0.552436	-0.285920
H114	H	1.102013	-0.542423	-0.239221
H115	H	1.035639	-0.521923	-0.335696
C116	C	1.021113	-0.612007	-0.392206
C117	C	1.083266	-0.599713	-0.334848
H118	H	1.040761	-0.641169	-0.422391
H119	H	0.972446	-0.616614	-0.359466
H120	H	1.007975	-0.586576	-0.433678
H121	H	1.096395	-0.625141	-0.293371
H122	H	1.131936	-0.595113	-0.367582
O123	O	0.987518	-0.076813	-0.157492
C124	C	0.986958	-0.109871	-0.227955
H125	H	0.959991	-0.143804	-0.204548
H126	H	1.053589	-0.120318	-0.252505
C127	C	0.965887	-0.044352	-0.332132
C128	C	0.932759	-0.086028	-0.303385
H129	H	0.932459	-0.029644	-0.378663
H130	H	0.966268	-0.022080	-0.284660
H131	H	1.021413	-0.053064	-0.352584
H132	H	0.877239	-0.077315	-0.282924
H133	H	0.932368	-0.108298	-0.350855
H134	H	0.985859	-0.172163	-0.144888
O135	O	0.981756	-0.407963	-0.237365
C136	C	0.982322	-0.374883	-0.307814
H137	H	1.009277	-0.340954	-0.284389
H138	H	0.915695	-0.364433	-0.332365
C139	C	1.003429	-0.440370	-0.412017
C140	C	1.036541	-0.398699	-0.383248
H141	H	1.036870	-0.455060	-0.458551
H142	H	1.003044	-0.462656	-0.364555
H143	H	0.947906	-0.431656	-0.432471
H144	H	1.092058	-0.407414	-0.362785
H145	H	1.036936	-0.376414	-0.430709
H146	H	0.981735	-0.404116	0.224635
O147	O	0.976687	-0.691906	-0.157555
C148	C	0.976136	-0.724966	-0.228015
H149	H	0.949176	-0.758902	-0.204605
H150	H	1.042769	-0.735410	-0.252563
C151	C	0.955053	-0.659452	-0.332199
C152	C	0.921934	-0.701130	-0.303448
H153	H	0.921622	-0.644748	-0.378731
H154	H	0.955428	-0.637178	-0.284730
H155	H	1.010580	-0.668160	-0.352649
H156	H	0.866413	-0.692420	-0.282988
H157	H	0.921549	-0.723402	-0.350916
H158	H	1.084613	0.006379	0.583572
O159	O	0.983287	-0.308737	0.237234
C160	C	0.911018	-0.315564	0.285780
H161	H	0.886367	-0.350338	0.263073
H162	H	0.861078	-0.283343	0.274706
C163	C	0.963114	-0.276859	0.412332
C164	C	0.932841	-0.319572	0.384448
H165	H	0.976573	-0.279329	0.473196
H166	H	1.011802	-0.272258	0.379625
H167	H	0.921492	-0.250013	0.403097
H168	H	0.974466	-0.346416	0.393674
H169	H	0.884160	-0.324178	0.417159
O170	O	0.566585	0.066844	0.157418
C171	C	0.509713	0.066272	0.227878
H172	H	0.451552	0.050349	0.204470
H173	H	0.491255	0.104932	0.252423
C174	C	0.622526	0.054487	0.332062
C175	C	0.551094	0.034927	0.303313
H176	H	0.648052	0.035155	0.378596
H177	H	0.660842	0.054874	0.284592
H178	H	0.607134	0.086704	0.352509
H179	H	0.566489	0.002714	0.282856
H180	H	0.512781	0.034534	0.350782
O181	O	0.395761	0.065034	0.157309
C182	C	0.355563	0.022687	0.162086
H183	H	0.388667	-0.006287	0.116785
H184	H	0.287596	0.031474	0.140638
C185	C	0.318091	0.039285	0.313111
C186	C	0.358754	0.003697	0.257477
H187	H	0.320055	0.027572	0.371953
H188	H	0.345170	0.067815	0.309893
H189	H	0.261455	0.046604	0.295227
H190	H	0.415391	-0.003617	0.275355
H191	H	0.331684	-0.024835	0.260701
O192	O	0.974841	-0.791301	0.157251
C193	C	0.902281	-0.814961	0.162035
H194	H	0.878148	-0.820685	0.092717
H195	H	0.852176	-0.791682	0.201417
C196	C	0.952941	-0.857489	0.292839
C197	C	0.923305	-0.864523	0.207700
H198	H	0.965908	-0.888061	0.321011
H199	H	1.001825	-0.841548	0.289619
H200	H	0.911182	-0.838089	0.325646
H201	H	0.965068	-0.883918	0.174892
H202	H	0.874429	-0.880469	0.210916
H203	H	1.084611	0.006381	0.416332
O204	O	0.868865	0.130712	0.409031
C205	C	0.817930	0.104815	0.355706
H206	H	0.817027	0.066695	0.383506
H207	H	0.843983	0.102282	0.285837
C208	C	0.729427	0.178262	0.320142
C209	C	0.728312	0.131443	0.354291
H210	H	0.674147	0.194688	0.319264
H211	H	0.763744	0.195710	0.356065
H212	H	0.751142	0.176144	0.261921
H213	H	0.706608	0.133562	0.412514
H214	H	0.693989	0.113996	0.318378
O215	O	0.978974	-0.559260	0.237232
C216	C	0.979571	-0.526203	0.307692
H217	H	0.953882	-0.488254	0.284279
H218	H	1.046387	-0.525931	0.332246
C219	C	0.956217	-0.588330	0.411873
C220	C	0.924659	-0.541722	0.383119
H221	H	0.922349	-0.597904	0.458402
H222	H	0.955818	-0.610602	0.364404
H223	H	1.011897	-0.588098	0.432329
H224	H	0.868985	-0.541956	0.362654
H225	H	0.925048	-0.519450	0.430587
O226	O	0.985748	-0.176097	0.157442
C227	C	0.986352	-0.143044	0.227907
H228	H	0.960664	-0.105094	0.204503
H229	H	1.053171	-0.142775	0.252456
C230	C	0.963004	-0.205177	0.332080
C231	C	0.931446	-0.158567	0.303336
H232	H	0.929139	-0.214753	0.378611
H233	H	0.962600	-0.227446	0.284607
H234	H	1.018686	-0.204947	0.352532
H235	H	0.875770	-0.158799	0.282876
H236	H	0.931840	-0.136298	0.350808
H237	H	0.975046	-0.787271	-0.144933
O238	O	0.987378	-0.076741	0.157344
C239	C	0.915865	-0.042081	0.162086
H240	H	0.865264	-0.053442	0.116778
H241	H	0.932823	-0.005112	0.140623
C242	C	0.945343	-0.024859	0.313109
C243	C	0.883191	-0.038815	0.257467
H244	H	0.925190	-0.022842	0.371945
H245	H	0.993525	-0.048208	0.309914
H246	H	0.959470	0.005948	0.295213
H247	H	0.869074	-0.069623	0.275357
H248	H	0.835007	-0.015470	0.260667
H249	H	0.980728	-0.463864	-0.224748
H250	H	0.980697	-0.463918	0.224616
