data_functionalizedCrystal
_audit_creation_method	'MofGen! by Chris Wilmer'
_symmetry_space_group_name_H-M	'P1'
_symmetry_Int_Tables_number	1
_symmetry_cell_setting	triclinic
loop_
_symmetry_equiv_pos_as_xyz
  x,y,z
_cell_length_a	29.839135
_cell_length_b	21.295417
_cell_length_c	21.295411
_cell_angle_alpha	90.021644
_cell_angle_beta	90.027776
_cell_angle_gamma	90.033036
loop_
_atom_site_label
_atom_site_type_symbol
_atom_site_fract_x
_atom_site_fract_y
_atom_site_fract_z
Zn1	Zn	0.686808	-0.250638	0.355965
Zn2	Zn	1.186808	0.249362	0.855965
Zn3	Zn	0.686739	-0.355890	0.250691
Zn4	Zn	1.186739	0.144110	0.750691
Zn5	Zn	0.611675	-0.250644	0.250705
Zn6	Zn	1.111675	0.249356	0.750705
Zn7	Zn	0.611653	-0.355878	0.355917
Zn8	Zn	1.111653	0.144122	0.855917
O9	O	0.649219	-0.303263	0.303319
O10	O	1.149219	0.196737	0.803319
O11	O	0.749666	-0.264603	0.342015
O12	O	1.249666	0.235397	0.842015
O13	O	0.676761	-0.341936	0.162603
O14	O	1.176761	0.158064	0.662603
O15	O	0.621680	-0.162553	0.264694
O16	O	1.121680	0.337447	0.764694
O17	O	0.749615	-0.341931	0.264670
O18	O	1.249615	0.158069	0.764670
O19	O	0.676880	-0.162550	0.342029
O20	O	1.176880	0.337450	0.842029
O21	O	0.621612	-0.264612	0.162613
O22	O	1.121612	0.235388	0.662613
O23	O	0.548805	-0.264600	0.264646
O24	O	1.048805	0.235400	0.764646
O25	O	0.621643	-0.341911	0.444013
O26	O	1.121643	0.158089	0.944013
O27	O	0.548789	-0.341916	0.341945
O28	O	1.048789	0.158084	0.841945
O29	O	0.676859	-0.264592	0.444048
O30	O	1.176859	0.235408	0.944048
O31	O	0.676740	-0.443978	0.264623
O32	O	1.176740	0.056022	0.764623
O33	O	0.621575	-0.443969	0.341932
O34	O	1.121575	0.056031	0.841932
C35	C	0.649160	-0.466814	0.303284
C36	C	1.149160	0.033186	0.803284
C37	C	0.649176	-0.536782	0.303291
C38	C	1.149176	-0.036782	0.803291
C39	C	0.532496	-0.303258	0.303292
C40	C	1.032496	0.196742	0.803292
C41	C	0.482562	-0.303271	0.303296
C42	C	0.982562	0.196729	0.803296
C43	C	0.677926	-0.569633	0.263077
C44	C	1.177926	-0.069633	0.763077
C45	C	0.677947	-0.635375	0.263091
C46	C	1.177947	-0.135375	0.763091
C47	C	0.649210	-0.668265	0.303312
C48	C	1.149210	-0.168265	0.803312
C49	C	0.620458	-0.635407	0.343534
C50	C	1.120458	-0.135407	0.843534
C51	C	0.620441	-0.569665	0.343523
C52	C	1.120441	-0.069665	0.843523
N53	N	0.609910	-0.771534	0.308102
N54	N	1.109910	-0.271534	0.808102
N55	N	0.609927	-0.833985	0.308109
N56	N	1.109927	-0.333985	0.808109
C57	C	0.649260	-0.866340	0.303348
C58	C	1.149260	-0.366340	0.803348
N59	N	0.688576	-0.833883	0.298569
N60	N	1.188576	-0.333883	0.798569
N61	N	0.688558	-0.771426	0.298559
N62	N	1.188558	-0.271426	0.798559
C63	C	0.649225	-0.739550	0.303329
C64	C	1.149225	-0.239550	0.803329
C65	C	0.678035	-0.970475	0.263148
C66	C	1.178035	-0.470475	0.763148
C67	C	0.678057	-1.036219	0.263167
C68	C	1.178057	-0.536219	0.763167
C69	C	0.620564	-1.036249	0.343606
C70	C	1.120564	-0.536249	0.843606
C71	C	0.620546	-0.970507	0.343591
C72	C	1.120546	-0.470507	0.843591
C73	C	0.649281	-0.937624	0.303358
C74	C	1.149281	-0.437624	0.803358
C75	C	0.172942	-0.263059	0.343652
C76	C	0.672942	0.236941	0.843652
C77	C	-0.014731	-0.263063	0.343670
C78	C	0.485269	0.236937	0.843670
O79	O	-0.038976	-0.228859	0.377952
O80	O	0.461024	0.271141	0.877952
N81	N	-0.038223	-0.303263	0.303342
N82	N	0.461777	0.196737	0.803342
C83	C	-0.014795	-0.343462	0.263005
C84	C	0.485205	0.156538	0.763005
O85	O	-0.039083	-0.377650	0.228699
O86	O	0.460917	0.122350	0.728699
C87	C	0.172878	-0.343454	0.262984
C88	C	0.672878	0.156546	0.762984
C89	C	0.196367	-0.303256	0.303319
C90	C	0.696367	0.196744	0.803319
C91	C	0.196432	-0.222864	0.383983
C92	C	0.696432	0.277136	0.883983
C93	C	0.243347	-0.222865	0.383981
C94	C	0.743347	0.277135	0.883981
C95	C	0.266773	-0.263062	0.343647
C96	C	0.766773	0.236938	0.843647
C97	C	0.243283	-0.303258	0.303316
C98	C	0.743283	0.196742	0.803316
C99	C	0.196306	-0.383649	0.222643
C100	C	0.696306	0.116351	0.722643
C101	C	0.243227	-0.383643	0.222641
C102	C	0.743227	0.116357	0.722641
C103	C	0.266716	-0.343445	0.262975
C104	C	0.766716	0.156555	0.762975
C105	C	0.313624	-0.343457	0.262980
C106	C	0.813624	0.156543	0.762980
N107	N	0.337116	-0.303257	0.303308
N108	N	0.837116	0.196743	0.803308
C109	C	0.313691	-0.263060	0.343641
C110	C	0.813691	0.236940	0.843641
C111	C	-0.113325	-0.343464	0.263019
C112	C	0.386675	0.156536	0.763019
C113	C	-0.160243	-0.343467	0.263025
C114	C	0.339757	0.156533	0.763025
C115	C	-0.160176	-0.263067	0.343690
C116	C	0.339824	0.236933	0.843690
C117	C	-0.113258	-0.263068	0.343687
C118	C	0.386742	0.236932	0.843687
C119	C	-0.089833	-0.303264	0.303347
C120	C	0.410167	0.196736	0.803347
C121	C	0.412217	-0.263067	0.343634
C122	C	0.912217	0.236933	0.843634
C123	C	0.459136	-0.263074	0.343629
C124	C	0.959136	0.236926	0.843629
C125	C	0.459065	-0.343471	0.262963
C126	C	0.959065	0.156529	0.762963
C127	C	0.412150	-0.343467	0.262969
C128	C	0.912150	0.156533	0.762969
C129	C	0.388727	-0.303259	0.303306
C130	C	0.888727	0.196741	0.803306
O131	O	0.337898	-0.377638	0.228711
O132	O	0.837898	0.122362	0.728711
O133	O	0.337987	-0.228867	0.377932
O134	O	0.837987	0.271133	0.877932
C135	C	0.126026	-0.263057	0.343655
C136	C	0.626026	0.236943	0.843655
C137	C	0.102537	-0.303253	0.303324
C138	C	0.602537	0.196747	0.803324
C139	C	0.125962	-0.343450	0.262990
C140	C	0.625962	0.156550	0.762990
C141	C	0.055619	-0.303255	0.303329
C142	C	0.555619	0.196745	0.803329
C143	C	0.032193	-0.263058	0.343663
C144	C	0.532193	0.236942	0.843663
C145	C	0.055686	-0.222858	0.383990
C146	C	0.555686	0.277142	0.883990
C147	C	0.102601	-0.222860	0.383988
C148	C	0.602601	0.277140	0.883988
C149	C	0.102470	-0.383650	0.222663
C150	C	0.602470	0.116350	0.722663
C151	C	0.055554	-0.383645	0.222669
C152	C	0.555554	0.116355	0.722669
C153	C	0.032129	-0.343448	0.263002
C154	C	0.532129	0.156552	0.763002
C155	C	0.766397	-0.303268	0.303347
C156	C	1.266397	0.196732	0.803347
C157	C	0.816331	-0.303270	0.303358
C158	C	1.316331	0.196730	0.803358
C159	C	0.649256	-0.303249	0.467510
C160	C	1.149256	0.196751	0.967510
C161	C	0.649272	-0.303244	0.537478
C162	C	1.149272	0.196756	1.037478
C163	C	0.649290	-0.139072	0.303368
C164	C	1.149290	0.360928	0.803368
C165	C	0.649320	-0.069104	0.303389
C166	C	1.149320	0.430896	0.803389
C167	C	0.649207	-0.303230	0.139768
C168	C	1.149207	0.196770	0.639768
C169	C	0.649279	-0.303059	0.069800
C170	C	1.149279	0.196941	0.569800
C171	C	0.678022	-0.262982	0.570364
C172	C	1.178022	0.237018	1.070364
C173	C	0.678021	-0.262954	0.636107
C174	C	1.178021	0.237046	1.136107
C175	C	0.649275	-0.303200	0.668960
C176	C	1.149275	0.196800	1.168960
C177	C	0.620520	-0.343465	0.636066
C178	C	1.120520	0.156535	1.136066
C179	C	0.620518	-0.343487	0.570325
C180	C	1.120518	0.156513	1.070325
N181	N	0.645809	-0.358268	0.772175
N182	N	1.145809	0.141732	1.272175
N183	N	0.645813	-0.358246	0.834627
N184	N	1.145813	0.141754	1.334627
C185	C	0.649278	-0.303137	0.867035
C186	C	1.149278	0.196863	1.367035
N187	N	0.652747	-0.248049	0.834633
N188	N	1.152747	0.251951	1.334633
N189	N	0.652745	-0.248072	0.772176
N190	N	1.152745	0.251928	1.272176
C191	C	0.649274	-0.303181	0.740246
C192	C	1.149274	0.196819	1.240246
C193	C	0.678029	-0.262842	0.971207
C194	C	1.178029	0.237158	1.471207
C195	C	0.678025	-0.262813	1.036951
C196	C	1.178025	0.237187	1.536951
C197	C	0.620526	-0.343330	1.036909
C198	C	1.120526	0.156670	1.536909
C199	C	0.620528	-0.343352	0.971167
C200	C	1.120528	0.156648	1.471167
C201	C	0.649281	-0.303109	0.938320
C202	C	1.149281	0.196891	1.438320
H203	H	0.701324	-0.542861	0.230319
H204	H	1.201324	-0.042861	0.730319
H205	H	0.701360	-0.662127	0.230345
H206	H	1.201360	-0.162127	0.730345
C207	C	-0.185801	-0.387016	0.219203
C208	C	0.314199	0.112984	0.719203
C209	C	-0.212748	-0.351319	0.178933
C210	C	0.287252	0.148681	0.678933
C211	C	-0.236301	-0.391413	0.138558
C212	C	0.263699	0.108587	0.638558
H213	H	-0.165178	-0.410967	0.195122
H214	H	0.334822	0.089033	0.695122
H215	H	-0.204130	-0.414472	0.243216
H216	H	0.295870	0.085528	0.743216
H217	H	-0.194420	-0.323874	0.154922
H218	H	0.305580	0.176126	0.654922
H219	H	-0.233379	-0.327369	0.202996
H220	H	0.266621	0.172631	0.702996
H221	H	-0.254630	-0.418869	0.162571
H222	H	0.245370	0.081131	0.662571
H223	H	-0.215675	-0.415363	0.114481
H224	H	0.284325	0.084637	0.614481
H225	H	-0.254590	-0.367199	0.111234
H226	H	0.245410	0.132801	0.611234
H227	H	0.597029	-0.542918	0.376270
H228	H	1.097029	-0.042918	0.876270
H229	H	-0.179257	-0.230338	0.376531
H230	H	0.320743	0.269662	0.876531
C231	C	0.709208	-0.934847	0.219372
C232	C	1.209208	-0.434847	0.719372
C233	C	0.699460	-0.950901	0.157080
C234	C	1.199460	-0.450901	0.657080
C235	C	0.728170	-0.918100	0.116737
C236	C	1.228170	-0.418100	0.616737
H237	H	0.705106	-0.890980	0.225037
H238	H	1.205106	-0.390980	0.725037
H239	H	0.739401	-0.945586	0.228590
H240	H	1.239401	-0.445586	0.728590
H241	H	0.669274	-0.940158	0.147865
H242	H	1.169274	-0.440158	0.647865
H243	H	0.703565	-0.994763	0.151395
H244	H	1.203565	-0.494763	0.651395
H245	H	0.758363	-0.928839	0.125955
H246	H	1.258363	-0.428839	0.625955
H247	H	0.724066	-0.874234	0.122407
H248	H	1.224066	-0.374234	0.622407
H249	H	0.721563	-0.928992	0.074468
H250	H	1.221563	-0.428992	0.574468
C251	C	0.170751	-0.427190	0.178813
C252	C	0.670751	0.072810	0.678813
C253	C	0.143807	-0.391489	0.138544
C254	C	0.643807	0.108511	0.638544
C255	C	0.120256	-0.431579	0.098162
C256	C	0.620256	0.068421	0.598162
H257	H	0.191376	-0.451139	0.154732
H258	H	0.691376	0.048861	0.654732
H259	H	0.152421	-0.454648	0.202821
H260	H	0.652421	0.045352	0.702821
H261	H	0.162136	-0.364041	0.114538
H262	H	0.662136	0.135959	0.614538
H263	H	0.123174	-0.367541	0.162608
H264	H	0.623174	0.132459	0.662608
H265	H	0.101925	-0.459037	0.122170
H266	H	0.601925	0.040963	0.622170
H267	H	0.140883	-0.455526	0.074085
H268	H	0.640883	0.044474	0.574085
H269	H	0.101968	-0.407362	0.070838
H270	H	0.601968	0.092638	0.570838
C271	C	0.589262	-0.386967	0.935422
C272	C	1.089262	0.113033	1.435422
C273	C	0.560474	-0.351334	0.897675
C274	C	1.060474	0.148666	1.397675
C275	C	0.531660	-0.391490	0.864745
C276	C	1.031660	0.108510	1.364745
H277	H	0.606383	-0.414415	0.909735
H278	H	1.106383	0.085585	1.409735
H279	H	0.572114	-0.410923	0.964382
H280	H	1.072114	0.089077	1.464382
H281	H	0.577620	-0.327389	0.868720
H282	H	1.077620	0.172611	1.368720
H283	H	0.543343	-0.323887	0.923347
H284	H	1.043343	0.176113	1.423347
H285	H	0.514513	-0.415446	0.893704
H286	H	1.014513	0.084554	1.393704
H287	H	0.548785	-0.418937	0.839061
H288	H	1.048785	0.081063	1.339061
H289	H	0.512122	-0.367319	0.839135
H290	H	1.012122	0.132681	1.339135
C291	C	0.709368	-1.071774	0.219542
C292	C	1.209368	-0.571774	0.719542
C293	C	0.753796	-1.055661	0.233321
C294	C	1.253796	-0.555661	0.733321
C295	C	0.782660	-1.088380	0.193142
C296	C	1.282660	-0.588380	0.693142
H297	H	0.705347	-1.115653	0.225251
H298	H	1.205347	-0.615653	0.725251
H299	H	0.702835	-1.061009	0.177227
H300	H	1.202835	-0.561009	0.677227
H301	H	0.760327	-1.066429	0.275626
H302	H	1.260327	-0.566429	0.775626
H303	H	0.757830	-1.011787	0.227608
H304	H	1.257830	-0.511787	0.727608
H305	H	0.776127	-1.077616	0.150827
H306	H	1.276127	-0.577616	0.650827
H307	H	0.778636	-1.132258	0.198854
H308	H	1.278636	-0.632258	0.698854
H309	H	0.812808	-1.077448	0.202482
H310	H	1.312808	-0.577448	0.702482
H311	H	0.597061	-0.662190	0.376283
H312	H	1.097061	-0.162190	0.876283
C313	C	0.589382	-1.072063	0.387210
C314	C	1.089382	-0.572063	0.887210
C315	C	0.595544	-1.136669	0.378605
C316	C	1.095544	-0.636669	0.878605
C317	C	0.566824	-1.169683	0.418760
C318	C	1.066824	-0.669683	0.918760
H319	H	0.595912	-1.061331	0.429537
H320	H	1.095912	-0.561331	0.929537
H321	H	0.559187	-1.061372	0.377949
H322	H	1.059187	-0.561372	0.877949
H323	H	0.625732	-1.147355	0.387870
H324	H	1.125732	-0.647355	0.887870
H325	H	0.589011	-1.147420	0.336286
H326	H	1.089011	-0.647420	0.836286
H327	H	0.536629	-1.158992	0.409500
H328	H	1.036629	-0.658992	0.909500
H329	H	0.573356	-1.158946	0.461085
H330	H	1.073356	-0.658946	0.961085
H331	H	0.570998	-1.213521	0.412923
H332	H	1.070998	-0.713521	0.912923
H333	H	0.597134	-0.943758	0.376334
H334	H	1.097134	-0.443758	0.876334
C335	C	0.589392	-0.387110	1.072600
C336	C	1.089392	0.112890	1.572600
C337	C	0.614816	-0.427456	1.110342
C338	C	1.114816	0.072544	1.610342
C339	C	0.586150	-0.467803	1.143224
C340	C	1.086150	0.032197	1.643224
H341	H	0.569817	-0.363099	1.098287
H342	H	1.069817	0.136901	1.598287
H343	H	0.572281	-0.411131	1.043612
H344	H	1.072281	0.088869	1.543612
H345	H	0.631920	-0.403438	1.139326
H346	H	1.131920	0.096562	1.639326
H347	H	0.634390	-0.451481	1.084670
H348	H	1.134390	0.048519	1.584670
H349	H	0.569038	-0.491824	1.114236
H350	H	1.069038	0.008176	1.614236
H351	H	0.566576	-0.443787	1.168908
H352	H	1.066576	0.056213	1.668908
H353	H	0.603395	-0.495186	1.168831
H354	H	1.103395	0.004814	1.668831
C355	C	-0.087732	-0.219526	0.387553
C356	C	0.412268	0.280474	0.887553
C357	C	-0.060802	-0.255224	0.427843
C358	C	0.439198	0.244776	0.927843
C359	C	-0.037289	-0.215132	0.468267
C360	C	0.462711	0.284868	0.968267
H361	H	-0.069393	-0.192047	0.363596
H362	H	0.430607	0.307953	0.863596
H363	H	-0.108393	-0.195601	0.411611
H364	H	0.391607	0.304399	0.911611
H365	H	-0.040143	-0.279139	0.403787
H366	H	0.459857	0.220861	0.903787
H367	H	-0.079129	-0.282702	0.451813
H368	H	0.420871	0.217298	0.951813
H369	H	-0.057949	-0.191207	0.492325
H370	H	0.442051	0.308793	0.992325
H371	H	-0.018952	-0.187655	0.444305
H372	H	0.481048	0.312345	0.944305
H373	H	-0.019017	-0.239348	0.495612
H374	H	0.480983	0.260652	0.995612
H375	H	0.478260	-0.230339	0.376477
H376	H	0.978260	0.269661	0.876477
H377	H	0.121538	-0.416383	0.189817
H378	H	0.621538	0.083617	0.689817
C379	C	0.128124	-0.179317	0.427856
C380	C	0.628124	0.320683	0.927856
C381	C	0.155052	-0.215013	0.468151
C382	C	0.655052	0.284987	0.968151
C383	C	0.178561	-0.174921	0.508577
C384	C	0.678561	0.325079	1.008577
H385	H	0.146464	-0.151838	0.403901
H386	H	0.646464	0.348162	0.903901
H387	H	0.107461	-0.155391	0.451910
H388	H	0.607461	0.344609	0.951910
H389	H	0.175712	-0.238929	0.444099
H390	H	0.675712	0.261071	0.944099
H391	H	0.136722	-0.242491	0.492120
H392	H	0.636722	0.257509	0.992120
H393	H	0.157899	-0.150995	0.532632
H394	H	0.657899	0.349005	1.032632
H395	H	0.196900	-0.147444	0.484618
H396	H	0.696900	0.352556	0.984618
H397	H	0.196832	-0.199135	0.535926
H398	H	0.696832	0.300865	1.035926
H399	H	0.393151	-0.230324	0.376478
H400	H	0.893151	0.269676	0.876478
H401	H	0.262469	-0.190131	0.416824
H402	H	0.762469	0.309869	0.916824
C403	C	0.709164	-0.219013	1.072689
C404	C	1.209164	0.280987	1.572689
C405	C	0.683744	-0.178636	1.110398
C406	C	1.183744	0.321364	1.610398
C407	C	0.712413	-0.138271	1.143321
C408	C	1.212413	0.361729	1.643321
H409	H	0.728737	-0.243009	1.098401
H410	H	1.228737	0.256991	1.598401
H411	H	0.726278	-0.195015	1.043725
H412	H	1.226278	0.304985	1.543725
H413	H	0.666638	-0.202632	1.139358
H414	H	1.166638	0.297368	1.639358
H415	H	0.664172	-0.154627	1.084701
H416	H	1.164172	0.345373	1.584701
H417	H	0.729527	-0.114273	1.114358
H418	H	1.229527	0.385727	1.614358
H419	H	0.731985	-0.162272	1.169030
H420	H	1.231985	0.337728	1.669030
H421	H	0.695170	-0.110867	1.168906
H422	H	1.195170	0.389133	1.668906
H423	H	0.177364	-0.190127	0.416827
H424	H	0.677364	0.309873	0.916827
H425	H	-0.094257	-0.376199	0.230168
H426	H	0.405743	0.123801	0.730168
C427	C	0.709258	-0.219076	0.935653
C428	C	1.209258	0.280924	1.435653
C429	C	0.734425	-0.183792	0.978528
C430	C	1.234425	0.316208	1.478528
C431	C	0.763194	-0.143463	0.945801
C432	C	1.263194	0.356537	1.445801
H433	H	0.728863	-0.243095	0.910018
H434	H	1.228863	0.256905	1.410018
H435	H	0.692094	-0.191624	0.910010
H436	H	1.192094	0.308376	1.410010
H437	H	0.751589	-0.211241	1.004161
H438	H	1.251589	0.288759	1.504161
H439	H	0.714833	-0.159761	1.004165
H440	H	1.214833	0.340239	1.504165
H441	H	0.746029	-0.116011	0.920158
H442	H	1.246029	0.383989	1.420158
H443	H	0.782795	-0.167487	0.920167
H444	H	1.282795	0.332513	1.420167
H445	H	0.780270	-0.119514	0.974887
H446	H	1.280270	0.380486	1.474887
C447	C	0.386588	-0.387011	0.219144
C448	C	0.886588	0.112989	0.719144
C449	C	0.359648	-0.351308	0.178871
C450	C	0.859648	0.148692	0.678871
C451	C	0.336093	-0.391396	0.138491
C452	C	0.836093	0.108604	0.638491
H453	H	0.407210	-0.410966	0.195065
H454	H	0.907210	0.089034	0.695065
H455	H	0.368254	-0.414464	0.243153
H456	H	0.868254	0.085536	0.743153
H457	H	0.377980	-0.323866	0.154864
H458	H	0.877980	0.176134	0.654864
H459	H	0.339017	-0.327354	0.202932
H460	H	0.839017	0.172646	0.702932
H461	H	0.317760	-0.418849	0.162500
H462	H	0.817760	0.081151	0.662500
H463	H	0.356719	-0.415349	0.114417
H464	H	0.856719	0.084651	0.614417
H465	H	0.317809	-0.367177	0.111165
H466	H	0.817809	0.132823	0.611165
C467	C	0.709155	-0.219230	0.534632
C468	C	1.209155	0.280770	1.034632
C469	C	0.683725	-0.178904	0.496878
C470	C	1.183725	0.321096	0.996878
C471	C	0.712386	-0.138588	0.463950
C472	C	1.212386	0.361412	0.963950
H473	H	0.726281	-0.195187	0.563574
H474	H	1.226281	0.304813	1.063574
H475	H	0.728718	-0.243283	0.508953
H476	H	1.228718	0.256717	1.008953
H477	H	0.664170	-0.154853	0.522555
H478	H	1.164170	0.345147	1.022555
H479	H	0.666601	-0.202929	0.467925
H480	H	1.166601	0.297071	0.967925
H481	H	0.731949	-0.162641	0.438271
H482	H	1.231949	0.337359	0.938271
H483	H	0.729510	-0.114549	0.492896
H484	H	1.229510	0.385451	0.992896
H485	H	0.695136	-0.111225	0.438326
H486	H	1.195136	0.388775	0.938326
H487	H	0.478147	-0.376200	0.230125
H488	H	0.978147	0.123800	0.730125
C489	C	0.268577	-0.427359	0.178821
C490	C	0.768577	0.072641	0.678821
C491	C	0.237960	-0.462570	0.143515
C492	C	0.737960	0.037430	0.643515
C493	C	0.261295	-0.502855	0.103150
C494	C	0.761295	-0.002855	0.603150
H495	H	0.286882	-0.403311	0.151380
H496	H	0.786882	0.096689	0.651380
H497	H	0.286867	-0.454858	0.202834
H498	H	0.786867	0.045142	0.702834
H499	H	0.219678	-0.435074	0.119503
H500	H	0.719678	0.064926	0.619503
H501	H	0.219654	-0.486631	0.170939
H502	H	0.719654	0.013369	0.670939
H503	H	0.279585	-0.530354	0.127164
H504	H	0.779585	-0.030354	0.627164
H505	H	0.279599	-0.478802	0.075713
H506	H	0.779599	0.021198	0.575713
H507	H	0.240525	-0.526755	0.079194
H508	H	0.740525	-0.026755	0.579194
H509	H	0.036604	-0.190130	0.416833
H510	H	0.536604	0.309870	0.916833
H511	H	0.701432	-0.230165	0.662888
H512	H	1.201432	0.269835	1.162888
C513	C	0.030112	-0.427396	0.178909
C514	C	0.530112	0.072604	0.678909
C515	C	0.041513	-0.489698	0.192485
C516	C	0.541513	0.010302	0.692485
C517	C	0.018092	-0.530012	0.152179
C518	C	0.518092	-0.030012	0.652179
H519	H	-0.001193	-0.421728	0.184640
H520	H	0.498807	0.078272	0.684640
H521	H	0.037803	-0.418153	0.136623
H522	H	0.537803	0.081847	0.636623
H523	H	0.033819	-0.498938	0.234762
H524	H	0.533819	0.001062	0.734762
H525	H	0.072815	-0.495386	0.186750
H526	H	0.572815	0.004614	0.686750
H527	H	0.025783	-0.520770	0.109892
H528	H	0.525783	-0.020770	0.609892
H529	H	-0.013213	-0.524339	0.157913
H530	H	0.486787	-0.024339	0.657913
H531	H	0.025827	-0.572289	0.161381
H532	H	0.525827	-0.072289	0.661381
H533	H	0.597114	-0.376232	0.662820
H534	H	1.097114	0.123768	1.162820
H535	H	0.597105	-0.376272	0.543549
H536	H	1.097105	0.123728	1.043549
