data_functionalizedCrystal
_audit_creation_method	'MofGen! by Chris Wilmer'
_symmetry_space_group_name_H-M	'P1'
_symmetry_Int_Tables_number	1
_symmetry_cell_setting	triclinic
loop_
_symmetry_equiv_pos_as_xyz
  x,y,z
_cell_length_a	11.792241
_cell_length_b	19.188930
_cell_length_c	10.268362
_cell_angle_alpha	89.989600
_cell_angle_beta	89.999626
_cell_angle_gamma	83.669099
loop_
_atom_site_label
_atom_site_type_symbol
_atom_site_fract_x
_atom_site_fract_y
_atom_site_fract_z
O1	O	1.505476	0.095695	-0.108190
O2	O	2.005476	0.595695	0.391810
O3	O	1.174988	0.105558	-0.108222
O4	O	1.674988	0.605558	0.391778
O5	O	1.349769	-0.000975	-0.108179
O6	O	1.849769	0.499025	0.391821
O7	O	1.330695	0.202228	-0.108232
O8	O	1.830695	0.702228	0.391768
O9	O	1.349754	-0.000980	0.108421
O10	O	1.849754	0.499020	0.608421
O11	O	1.174973	0.105553	0.108379
O12	O	1.674973	0.605553	0.608379
O13	O	1.505461	0.095691	0.108411
O14	O	2.005461	0.595691	0.608411
Cu15	Cu	1.340216	0.100622	0.128172
Cu16	Cu	1.840216	0.600622	0.628172
Cu17	Cu	1.340233	0.100627	-0.127983
Cu18	Cu	1.840233	0.600627	0.372017
O19	O	1.330680	0.202224	0.108368
O20	O	1.830680	0.702224	0.608368
C21	C	1.132699	0.104936	0.000075
C22	C	1.632699	0.604936	0.500075
C23	C	1.006713	0.103082	0.000064
C24	C	1.506713	0.603082	0.500064
C25	C	0.776051	0.099672	0.000102
C26	C	1.276051	0.599672	0.500102
C27	C	0.904408	0.101566	0.000081
C28	C	1.404408	0.601566	0.500081
C29	C	1.349144	-0.026992	0.000125
C30	C	1.849144	0.473008	0.500125
C31	C	1.347290	-0.104507	0.000136
C32	C	1.847290	0.395493	0.500136
C33	C	1.449846	-0.148850	0.000152
C34	C	1.949846	0.351150	0.500152
C35	C	1.448104	-0.221684	0.000131
C36	C	1.948104	0.278316	0.500131
C37	C	1.343800	-0.250171	0.000120
C38	C	1.843800	0.249829	0.500120
C39	C	1.241230	-0.205818	0.000096
C40	C	1.741230	0.294182	0.500096
C41	C	1.242975	-0.132986	0.000104
C42	C	1.742975	0.367014	0.500104
N43	N	1.264067	-0.358629	0.073825
N44	N	1.764067	0.141371	0.573825
N45	N	1.262416	-0.427817	0.073820
N46	N	1.762416	0.072183	0.573820
C47	C	1.338536	-0.469609	0.000093
C48	C	1.838536	0.030391	0.500093
N49	N	1.416387	-0.439602	-0.073614
N50	N	1.916387	0.060398	0.426386
N51	N	1.418041	-0.370407	-0.073603
N52	N	1.918041	0.129593	0.426397
C53	C	1.341896	-0.329144	0.000110
C54	C	1.841896	0.170856	0.500110
C55	C	1.439211	-0.592928	0.000084
C56	C	1.939211	-0.092928	0.500084
C57	C	1.437464	-0.665762	0.000055
C58	C	1.937464	-0.165762	0.500055
C59	C	1.230588	-0.649895	0.000034
C60	C	1.730588	-0.149895	0.500034
C61	C	1.232337	-0.577062	0.000050
C62	C	1.732337	-0.077062	0.500050
C63	C	1.336652	-0.548583	0.000081
C64	C	1.836652	-0.048583	0.500081
C65	C	1.547751	0.096313	0.000111
C66	C	2.047751	0.596313	0.500111
C67	C	1.673737	0.098167	0.000114
C68	C	2.173737	0.598167	0.500114
C69	C	1.331305	0.228240	0.000062
C70	C	1.831305	0.728240	0.500062
C71	C	1.333159	0.305755	0.000042
C72	C	1.833159	0.805755	0.500042
N73	N	1.340211	0.100617	0.308338
N74	N	1.840211	0.600617	0.808338
N75	N	1.340247	0.100625	-0.308149
N76	N	1.840247	0.600625	0.191851
C77	C	1.340228	0.100625	0.574009
C78	C	1.840228	0.600625	1.074009
C79	C	1.340215	0.100623	0.426171
C80	C	1.840215	0.600623	0.926171
H81	H	1.534787	-0.125667	0.000173
H82	H	2.034787	0.374333	0.500173
H83	H	1.148825	-0.540957	0.000044
H84	H	1.648825	-0.040957	0.500044
C85	C	1.559578	-0.269723	0.000219
C86	C	2.059578	0.230277	0.500219
C87	C	1.651304	-0.229193	0.000277
C88	C	2.151304	0.270807	0.500277
C89	C	1.754010	-0.273419	0.000377
C90	C	2.254010	0.226581	0.500377
H91	H	1.563369	-0.298472	-0.075294
H92	H	2.063369	0.201528	0.424706
H93	H	1.563244	-0.298461	0.075783
H94	H	2.063244	0.201539	0.575783
H95	H	1.647640	-0.200466	-0.075279
H96	H	2.147640	0.299534	0.424721
H97	H	1.647551	-0.200445	0.075785
H98	H	2.147551	0.299555	0.575785
H99	H	1.757675	-0.302158	0.075941
H100	H	2.257675	0.197842	0.575941
H101	H	1.757789	-0.302167	-0.075137
H102	H	2.257789	0.197833	0.424863
H103	H	1.816258	-0.245927	0.000429
H104	H	2.316258	0.254073	0.500429
H105	H	1.524150	-0.569739	0.000104
H106	H	2.024150	-0.069739	0.500104
C107	C	1.128100	-0.236879	0.000152
C108	C	1.628100	0.263121	0.500152
C109	C	1.148521	-0.310154	0.000186
C110	C	1.648521	0.189846	0.500186
C111	C	1.044330	-0.338789	0.000248
C112	C	1.544330	0.161211	0.500248
H113	H	1.085807	-0.221753	-0.075366
H114	H	1.585807	0.278247	0.424634
H115	H	1.085870	-0.221730	0.075710
H116	H	1.585870	0.278270	0.575710
H117	H	1.190734	-0.325296	-0.075365
H118	H	1.690734	0.174704	0.424635
H119	H	1.190798	-0.325298	0.075698
H120	H	1.690798	0.174702	0.575698
H121	H	1.002099	-0.323641	0.075806
H122	H	1.502099	0.176359	0.575806
H123	H	1.002045	-0.323659	-0.075272
H124	H	1.502045	0.176341	0.424728
H125	H	1.058171	-0.388508	0.000283
H126	H	1.558171	0.111492	0.500283
C127	C	1.548941	-0.713793	0.000138
C128	C	2.048941	-0.213793	0.500138
C129	C	1.640661	-0.673259	0.000204
C130	C	2.140661	-0.173259	0.500204
C131	C	1.743371	-0.717482	0.000299
C132	C	2.243371	-0.217482	0.500299
H133	H	1.552735	-0.742539	-0.075379
H134	H	2.052735	-0.242539	0.424621
H135	H	1.552609	-0.742535	0.075697
H136	H	2.052609	-0.242535	0.575697
H137	H	1.636995	-0.644530	-0.075348
H138	H	2.136995	-0.144530	0.424652
H139	H	1.636904	-0.644515	0.075716
H140	H	2.136904	-0.144515	0.575716
H141	H	1.747039	-0.746224	0.075858
H142	H	2.247039	-0.246224	0.575858
H143	H	1.747154	-0.746226	-0.075220
H144	H	2.247154	-0.246226	0.424780
H145	H	1.805615	-0.689986	0.000355
H146	H	2.305615	-0.189986	0.500355
C147	C	1.117305	-0.680774	-0.000249
C148	C	1.617305	-0.180774	0.499751
C149	C	1.055350	-0.658270	-0.111707
C150	C	1.555350	-0.158270	0.388293
C151	C	0.950993	-0.686712	-0.112027
C152	C	1.450993	-0.186712	0.387973
H153	H	1.074949	-0.665609	0.075192
H154	H	1.574949	-0.165609	0.575192
H155	H	1.130903	-0.730505	-0.000326
H156	H	1.630903	-0.230505	0.499674
H157	H	1.041750	-0.608550	-0.111619
H158	H	1.541750	-0.108550	0.388381
H159	H	1.097672	-0.673435	-0.187167
H160	H	1.597672	-0.173435	0.312833
H161	H	0.964590	-0.736443	-0.112103
H162	H	1.464590	-0.236443	0.387897
H163	H	0.908646	-0.671544	-0.036581
H164	H	1.408646	-0.171544	0.463419
H165	H	0.908948	-0.671452	-0.187655
H166	H	1.408948	-0.171452	0.312345
C167	C	1.131500	-0.084954	0.000161
C168	C	1.631500	0.415046	0.500161
C169	C	1.039777	-0.125486	0.000173
C170	C	1.539777	0.374514	0.500173
C171	C	0.937069	-0.081262	0.000247
C172	C	1.437069	0.418738	0.500247
H173	H	1.127726	-0.056185	-0.075346
H174	H	1.627726	0.443815	0.424654
H175	H	1.127814	-0.056235	0.075731
H176	H	1.627814	0.443765	0.575731
H177	H	1.043462	-0.154193	-0.075389
H178	H	1.543462	0.345807	0.424611
H179	H	1.043514	-0.154253	0.075675
H180	H	1.543514	0.345747	0.575675
H181	H	0.933383	-0.052543	0.075816
H182	H	1.433383	0.447457	0.575816
H183	H	0.933307	-0.052496	-0.075262
H184	H	1.433307	0.447504	0.424738
H185	H	0.874823	-0.108756	0.000267
H186	H	1.374823	0.391244	0.500267
