data_functionalizedCrystal
_audit_creation_method	'MofGen! by Chris Wilmer'
_symmetry_space_group_name_H-M	'P1'
_symmetry_Int_Tables_number	1
_symmetry_cell_setting	triclinic
loop_
_symmetry_equiv_pos_as_xyz
  x,y,z
_cell_length_a	16.974848
_cell_length_b	9.730223
_cell_length_c	16.974959
_cell_angle_alpha	86.350875
_cell_angle_beta	96.363465
_cell_angle_gamma	86.343837
loop_
_atom_site_label
_atom_site_type_symbol
_atom_site_fract_x
_atom_site_fract_y
_atom_site_fract_z
O1	O	-1.049031	0.219787	0.100823
O2	O	-0.818813	0.192755	0.113647
O3	O	-0.940332	0.219760	-0.007872
O4	O	-0.927513	0.192781	0.222342
O5	O	-0.940330	-0.008820	-0.007869
O6	O	-0.818812	-0.035825	0.113650
O7	O	-1.049030	-0.008794	0.100826
Zn8	Zn	-0.933921	-0.058602	0.107239
Zn9	Zn	-0.933922	0.242563	0.107234
O10	O	-0.927511	-0.035799	0.222345
C11	C	-0.789355	0.075243	0.113159
C12	C	-0.701581	0.065643	0.111691
N13	N	-0.933925	-0.264138	0.107241
C14	C	-0.207500	-0.001775	0.103450
C15	C	-0.289973	0.007249	0.104830
C16	C	-0.331212	0.136362	0.105512
C17	C	-0.289971	0.256460	0.104823
C18	C	-0.207499	0.247434	0.103449
C19	C	-0.577868	0.176715	0.109627
C20	C	-0.660346	0.185731	0.110999
C21	C	-0.660343	-0.063481	0.111007
C22	C	-0.577869	-0.072494	0.109628
C23	C	-0.536635	0.047602	0.108943
N24	N	-0.415513	0.145589	0.106920
N25	N	-0.452335	0.038374	0.107541
C26	C	-0.987747	-0.324106	0.053450
C27	C	-0.987745	-0.467989	0.053440
C28	C	-0.880097	-0.491922	0.161019
C29	C	-0.880095	-0.348042	0.161024
C30	C	-1.041577	-0.240202	-0.000334
C31	C	-1.095404	-0.300170	-0.054128
C32	C	-1.095402	-0.444052	-0.054138
C33	C	-1.041573	-0.527966	-0.000353
C34	C	-0.078489	0.108717	0.101308
C35	C	-0.166265	0.118314	0.102759
C36	C	-0.939841	0.108688	-0.037328
C37	C	-0.938370	0.118276	-0.125100
N38	N	-0.933924	0.448100	0.107226
C39	C	-0.930162	0.185777	-0.619177
C40	C	-0.931536	0.176740	-0.536704
C41	C	-0.932216	0.047621	-0.495482
C42	C	-0.931530	-0.072467	-0.536737
C43	C	-0.930162	-0.063428	-0.619210
C44	C	-0.936315	0.007227	-0.248828
C45	C	-0.937681	-0.001804	-0.166350
C46	C	-0.937689	0.247405	-0.166323
C47	C	-0.936315	0.256432	-0.248796
C48	C	-0.935633	0.136344	-0.290045
N49	N	-0.933619	0.038380	-0.411181
N50	N	-0.934237	0.145587	-0.374345
C51	C	-0.928002	0.075276	0.251801
C52	C	-0.929473	0.065698	0.339573
H53	H	-0.323543	-0.090540	0.105392
H54	H	-1.041570	-0.645124	-0.000370
H55	H	-0.932089	-0.177598	-0.503168
H56	H	-0.935760	-0.090558	-0.282404
H57	H	-0.836268	-0.299216	0.204825
O58	O	-0.822049	-0.582419	0.219036
H59	H	-0.831099	-0.692542	0.210002
H60	H	-0.938211	-0.106957	-0.132786
O61	O	-0.163021	-0.141034	0.102719
H62	H	-0.205552	-0.223023	0.103441
O63	O	-0.533388	-0.211753	0.108901
H64	H	-0.575916	-0.293746	0.109622
O65	O	-0.935582	0.395701	-0.293251
H66	H	-0.934507	0.381811	-0.357529
O67	O	-0.163031	0.376970	0.102696
H68	H	-0.118364	0.372071	0.155937
H69	H	-1.041585	-0.123045	-0.000329
H70	H	-0.929601	0.290919	-0.652733
O71	O	-0.932264	0.306251	-0.492208
H72	H	-0.931546	0.397551	-0.534726
H73	H	-0.693924	-0.161257	0.111567
H74	H	-0.929600	-0.161210	-0.652794
O75	O	-0.704837	0.324989	0.111734
H76	H	-0.681927	0.376243	0.165338
O77	O	-0.533404	0.306247	0.108838
H78	H	-0.575942	0.397542	0.109519
H79	H	-0.938245	0.345173	-0.132729
O80	O	-1.153449	-0.508741	-0.112158
H81	H	-1.191831	-0.573733	-0.078888
O82	O	-0.334446	0.395725	0.105545
H83	H	-0.398724	0.381831	0.106603
O84	O	-1.153442	-0.209676	-0.112156
H85	H	-1.144401	-0.099551	-0.103116
