data_functionalizedCrystal
_audit_creation_method	'MofGen! by Chris Wilmer'
_symmetry_space_group_name_H-M	'P1'
_symmetry_Int_Tables_number	1
_symmetry_cell_setting	triclinic
loop_
_symmetry_equiv_pos_as_xyz
  x,y,z
_cell_length_a	16.109301
_cell_length_b	16.109301
_cell_length_c	14.586319
_cell_angle_alpha	90.000846
_cell_angle_beta	90.000787
_cell_angle_gamma	96.538519
loop_
_atom_site_label
_atom_site_type_symbol
_atom_site_fract_x
_atom_site_fract_y
_atom_site_fract_z
O1	O	-1.103131	0.106866	-0.076173
O2	O	-0.769797	0.440199	0.257161
O3	O	-0.436464	0.773533	0.590494
O4	O	-0.861069	0.120165	-0.076186
O5	O	-0.527735	0.453499	0.257147
O6	O	-0.194402	0.786832	0.590480
O7	O	-0.988749	-0.007515	-0.076184
O8	O	-0.655416	0.325818	0.257149
O9	O	-0.322083	0.659151	0.590483
O10	O	-0.975450	0.234547	-0.076175
O11	O	-0.642117	0.567880	0.257158
O12	O	-0.308783	0.901213	0.590492
O13	O	-0.988741	-0.007517	0.076297
O14	O	-0.655407	0.325816	0.409630
O15	O	-0.322074	0.659150	0.742964
O16	O	-0.861060	0.120164	0.076295
O17	O	-0.527727	0.453497	0.409628
O18	O	-0.194393	0.786830	0.742961
O19	O	-1.103122	0.106864	0.076308
O20	O	-0.769789	0.440198	0.409641
O21	O	-0.436455	0.773531	0.742975
Cu22	Cu	-0.982090	0.113514	0.090224
Cu23	Cu	-0.648757	0.446847	0.423557
Cu24	Cu	-0.315423	0.780180	0.756891
Cu25	Cu	-0.982101	0.113516	-0.090102
Cu26	Cu	-0.648767	0.446849	0.243231
Cu27	Cu	-0.315434	0.780183	0.576564
O28	O	-0.975441	0.234545	0.076306
O29	O	-0.642108	0.567878	0.409639
O30	O	-0.308775	0.901212	0.742972
C31	C	-0.830090	0.119626	0.000052
C32	C	-0.496756	0.452959	0.333386
C33	C	-0.163423	0.786292	0.666719
C34	C	-0.737794	0.118011	0.000047
C35	C	-0.404461	0.451344	0.333380
C36	C	-0.071128	0.784677	0.666713
C37	C	-0.988206	-0.038491	0.000053
C38	C	-0.654873	0.294842	0.333387
C39	C	-0.321540	0.628176	0.666720
C40	C	-0.986591	-0.130786	0.000044
C41	C	-0.653258	0.202547	0.333377
C42	C	-0.319925	0.535880	0.666710
N43	N	-0.982089	0.113512	0.217056
N44	N	-0.648755	0.446845	0.550389
N45	N	-0.315422	0.780178	0.883722
C46	C	-1.134101	0.107404	0.000067
C47	C	-0.800768	0.440737	0.333401
C48	C	-0.467435	0.774071	0.666734
C49	C	-1.226397	0.109019	0.000067
C50	C	-0.893063	0.442352	0.333400
C51	C	-0.559730	0.775686	0.666734
C52	C	-0.515522	0.190018	0.000060
C53	C	-0.182188	0.523352	0.333393
C54	C	0.151145	0.856685	0.666727
C55	C	-0.428801	0.188494	0.000066
C56	C	-0.095468	0.521828	0.333399
C57	C	0.237865	0.855161	0.666732
C58	C	-0.448676	0.037006	0.000057
C59	C	-0.115342	0.370339	0.333390
C60	C	0.217991	0.703672	0.666723
C61	C	-0.535394	0.038530	0.000057
C62	C	-0.202061	0.371864	0.333391
C63	C	0.131272	0.705197	0.666724
C64	C	-0.568815	0.115039	0.000054
C65	C	-0.235482	0.448373	0.333388
C66	C	0.097852	0.781706	0.666721
C67	C	-0.395376	0.111990	0.000059
C68	C	-0.062042	0.445324	0.333393
C69	C	0.271291	0.778657	0.666726
C70	C	-0.301350	0.110337	0.000066
C71	C	0.031984	0.443671	0.333399
C72	C	0.365317	0.777004	0.666732
C73	C	-0.662847	0.116693	0.000050
C74	C	-0.329514	0.450026	0.333383
C75	C	0.003820	0.783359	0.666716
C76	C	-0.975984	0.265521	0.000066
C77	C	-0.642651	0.598854	0.333400
C78	C	-0.309318	0.932187	0.666733
C79	C	-0.977600	0.357816	0.000070
C80	C	-0.644266	0.691149	0.333403
C81	C	-0.310933	1.024483	0.666737
C82	C	-0.905592	0.580088	0.000053
C83	C	-0.572259	0.913422	0.333386
C84	C	-0.238925	1.246755	0.666719
C85	C	-0.907116	0.666809	0.000046
C86	C	-0.573783	1.000142	0.333379
C87	C	-0.240449	1.333475	0.666713
C88	C	-1.058605	0.646934	0.000058
C89	C	-0.725271	0.980268	0.333392
C90	C	-0.391938	1.313601	0.666725
C91	C	-1.057080	0.560216	0.000059
C92	C	-0.723746	0.893549	0.333392
C93	C	-0.390413	1.226882	0.666725
C94	C	-0.980571	0.526795	0.000060
C95	C	-0.647238	0.860129	0.333394
C96	C	-0.313904	1.193462	0.666727
C97	C	-0.983620	0.700234	0.000053
C98	C	-0.650287	1.033568	0.333387
C99	C	-0.316953	1.366901	0.666720
C100	C	-0.985273	0.794260	0.000046
C101	C	-0.651940	1.127594	0.333379
C102	C	-0.318606	1.460927	0.666713
C103	C	-0.978917	0.432763	0.000066
C104	C	-0.645584	0.766097	0.333399
C105	C	-0.312251	1.099430	0.666733
N106	N	-0.982109	0.113511	-0.216934
N107	N	-0.648775	0.446845	0.116399
N108	N	-0.315442	0.780178	0.449733
C109	C	-1.038644	0.056994	0.452063
C110	C	-0.705311	0.390327	0.785397
C111	C	-0.371978	0.723660	1.118730
C112	C	-1.038647	0.056992	0.548044
C113	C	-0.705314	0.390325	0.881378
C114	C	-0.371980	0.723658	1.214711
C115	C	-0.925547	0.170032	0.548052
C116	C	-0.592213	0.503366	0.881385
C117	C	-0.258880	0.836699	1.214719
C118	C	-0.925541	0.170030	0.452072
C119	C	-0.592208	0.503363	0.785406
C120	C	-0.258874	0.836696	1.118739
C121	C	-0.982095	0.113511	0.404081
C122	C	-0.648761	0.446845	0.737414
C123	C	-0.315428	0.780178	1.070747
C124	C	-0.982103	0.113512	0.596041
C125	C	-0.648769	0.446845	0.929375
C126	C	-0.315436	0.780178	1.262708
C127	C	-0.982105	0.113510	0.700108
C128	C	-0.648772	0.446843	1.033442
C129	C	-0.315438	0.780177	1.366775
C130	C	-0.982092	0.113512	0.300007
C131	C	-0.648758	0.446845	0.633340
C132	C	-0.315425	0.780178	0.966673
H133	H	-0.542730	0.252317	0.000065
H134	H	-0.209396	0.585650	0.333398
H135	H	0.123937	0.918983	0.666731
C136	C	-0.370182	0.270971	0.000066
C137	C	-0.036849	0.604305	0.333399
C138	C	0.296484	0.937638	0.666732
H139	H	-0.402510	0.316752	0.000057
H140	H	-0.069176	0.650085	0.333390
H141	H	0.264157	0.983419	0.666724
H142	H	-0.335939	0.273528	0.053239
H143	H	-0.002606	0.606862	0.386572
H144	H	0.330728	0.940195	0.719905
H145	H	-0.335942	0.273524	-0.053115
H146	H	-0.002609	0.606857	0.280218
H147	H	0.330724	0.940191	0.613552
H148	H	-0.843293	0.552881	0.000057
H149	H	-0.509960	0.886214	0.333391
H150	H	-0.176627	1.219547	0.666724
H151	H	-0.879487	0.216053	0.413002
H152	H	-0.546154	0.549387	0.746336
H153	H	-0.212821	0.882720	1.079669
C154	C	-1.139558	0.501586	0.000061
C155	C	-0.806225	0.834919	0.333394
C156	C	-0.472892	1.168253	0.666728
H157	H	-1.127691	0.445154	0.000049
H158	H	-0.794357	0.778487	0.333383
H159	H	-0.461024	1.111820	0.666716
H160	H	-1.170932	0.511710	0.053234
H161	H	-0.837599	0.845043	0.386567
H162	H	-0.504265	1.178376	0.719901
H163	H	-1.170928	0.511716	-0.053120
H164	H	-0.837595	0.845049	0.280214
H165	H	-0.504262	1.178382	0.613547
C166	C	-0.824639	0.725428	0.000043
C167	C	-0.491306	1.058761	0.333376
C168	C	-0.157972	1.392094	0.666710
H169	H	-0.778858	0.693101	0.000051
H170	H	-0.445525	1.026434	0.333384
H171	H	-0.112192	1.359767	0.666718
H172	H	-0.822085	0.759669	-0.053131
H173	H	-0.488751	1.093002	0.280202
H174	H	-0.155418	1.426335	0.613536
H175	H	-0.822083	0.759671	0.053223
H176	H	-0.488750	1.093004	0.386556
H177	H	-0.155417	1.426337	0.719889
H178	H	-0.578788	-0.022530	0.000055
H179	H	-0.245455	0.310803	0.333389
H180	H	0.087878	0.644136	0.666722
H181	H	-1.120896	0.674156	0.000066
H182	H	-0.787562	1.007490	0.333399
H183	H	-0.454229	1.340823	0.666733
C184	C	-0.863351	0.232205	0.600846
C185	C	-0.530018	0.565538	0.934179
C186	C	-0.196684	0.898871	1.267512
H187	H	-0.871458	0.224119	0.664880
H188	H	-0.538125	0.557452	0.998214
H189	H	-0.204792	0.890786	1.331547
H190	H	-0.807866	0.223163	0.585124
H191	H	-0.474533	0.556497	0.918457
H192	H	-0.141200	0.889830	1.251791
H193	H	-0.872371	0.287697	0.585111
H194	H	-0.539038	0.621030	0.918444
H195	H	-0.205704	0.954363	1.251778
C196	C	-0.411910	-0.047147	0.000048
C197	C	-0.078576	0.286186	0.333381
C198	C	0.254757	0.619520	0.666714
H199	H	-0.352630	-0.037318	0.000038
H200	H	-0.019297	0.296015	0.333372
H201	H	0.314036	0.629349	0.666705
H202	H	-0.430202	-0.078024	0.053217
H203	H	-0.096869	0.255309	0.386551
H204	H	0.236465	0.588642	0.719884
H205	H	-0.430207	-0.078012	-0.053136
H206	H	-0.096874	0.255321	0.280197
H207	H	0.236459	0.588655	0.613531
C208	C	-1.100843	-0.005181	0.399275
C209	C	-0.767510	0.328152	0.732608
C210	C	-0.434176	0.661486	1.065942
H211	H	-1.134516	-0.038846	0.441602
H212	H	-0.801183	0.294487	0.774935
H213	H	-0.467850	0.627821	1.108269
H214	H	-1.135442	0.024732	0.361828
H215	H	-0.802108	0.358065	0.695161
H216	H	-0.468775	0.691398	1.028494
H217	H	-1.070937	-0.039802	0.361840
H218	H	-0.737603	0.293532	0.695173
H219	H	-0.404270	0.626865	1.028506
H220	H	-1.084694	0.010969	0.587109
H221	H	-0.751361	0.344302	0.920443
H222	H	-0.418027	0.677635	1.253776
