data_functionalizedCrystal
_audit_creation_method	'MofGen! by Chris Wilmer'
_symmetry_space_group_name_H-M	'P1'
_symmetry_Int_Tables_number	1
_symmetry_cell_setting	triclinic
loop_
_symmetry_equiv_pos_as_xyz
  x,y,z
_cell_length_a	9.065215
_cell_length_b	10.489741
_cell_length_c	8.140239
_cell_angle_alpha	89.996756
_cell_angle_beta	89.997810
_cell_angle_gamma	84.776936
loop_
_atom_site_label
_atom_site_type_symbol
_atom_site_fract_x
_atom_site_fract_y
_atom_site_fract_z
O1	O	1.959497	0.187025	-0.136594
O2	O	1.530137	0.202371	-0.136601
O3	O	1.754587	0.009135	-0.136587
O4	O	1.735047	0.380261	-0.136607
O5	O	1.754574	0.009133	0.136640
O6	O	1.530125	0.202369	0.136626
O7	O	1.959484	0.187023	0.136634
Zn8	Zn	1.744802	0.194695	0.180011
Zn9	Zn	1.744819	0.194699	-0.179978
O10	O	1.735034	0.380258	0.136620
C11	C	1.475151	0.200896	0.000012
C12	C	1.311330	0.196489	0.000009
C13	C	1.753105	-0.038403	0.000025
C14	C	1.748689	-0.180048	0.000022
C15	C	2.014470	0.188498	0.000017
C16	C	2.178292	0.192905	0.000009
C17	C	1.605879	-0.248703	0.000008
C18	C	1.673335	-0.340583	0.134724
C19	C	1.673381	-0.340555	-0.134656
C20	C	1.816205	-0.270063	0.134850
C21	C	1.816231	-0.270026	-0.134652
C22	C	1.883791	-0.361879	0.000097
C23	C	1.736517	0.427797	0.000004
C24	C	1.740932	0.569442	-0.000004
N25	N	1.744802	0.194693	0.425693
N26	N	1.744831	0.194691	-0.425660
H27	H	1.488461	-0.199474	0.000141
N28	N	2.039454	-0.426803	0.000178
H29	H	2.112810	-0.359879	0.001191
H30	H	2.054455	-0.482604	0.100991
N31	N	1.896130	-0.228942	0.285909
H32	H	1.929384	-0.306641	0.354274
H33	H	1.985326	-0.184280	0.251647
N34	N	1.593307	-0.381943	0.285601
H35	H	1.488333	-0.340384	0.285507
H36	H	1.591864	-0.478101	0.284952
H37	H	1.876611	-0.238763	-0.248549
H38	H	1.612942	-0.371736	-0.248559
