data_functionalizedCrystal
_audit_creation_method	'MofGen! by Chris Wilmer'
_symmetry_space_group_name_H-M	'P1'
_symmetry_Int_Tables_number	1
_symmetry_cell_setting	triclinic
loop_
_symmetry_equiv_pos_as_xyz
  x,y,z
_cell_length_a	34.408637
_cell_length_b	34.407814
_cell_length_c	34.404193
_cell_angle_alpha	60.004510
_cell_angle_beta	60.009006
_cell_angle_gamma	59.994604
loop_
_atom_site_label
_atom_site_type_symbol
_atom_site_fract_x
_atom_site_fract_y
_atom_site_fract_z
O1	O	0.053973	-0.567860	0.474801
O2	O	0.020377	-0.442124	0.382567
O3	O	0.100004	-0.521670	0.382483
O4	O	-0.025653	-0.488314	0.474886
O5	O	0.126426	-0.495253	0.408816
O6	O	0.046800	-0.415707	0.408900
O7	O	0.080396	-0.541443	0.501134
Zn8	Zn	0.067793	-0.474381	0.459198
Zn9	Zn	0.032980	-0.509186	0.424503
O10	O	0.000769	-0.461897	0.501219
N11	N	0.091552	-0.450631	0.482879
N12	N	0.009225	-0.532940	0.400823
C13	C	0.142848	-0.268847	0.534081
C14	C	0.142979	-0.399386	0.664559
C15	C	0.142862	-0.399365	0.534081
C16	C	0.273409	-0.399338	0.533986
C17	C	0.157225	-0.311914	0.548422
C18	C	0.157300	-0.385019	0.621491
C19	C	0.230339	-0.384991	0.548370
C20	C	0.157235	-0.385007	0.548422
C21	C	0.124548	-0.214028	0.515827
C22	C	0.124571	-0.417639	0.515827
C23	C	0.175526	-0.366733	0.566676
C24	C	0.353121	-0.385580	0.491988
C25	C	0.402952	-0.402180	0.475348
C26	C	0.402981	-0.482812	0.506096
C27	C	0.353151	-0.466211	0.522737
C28	C	0.136544	-0.189099	0.466839
C29	C	0.119905	-0.139265	0.450247
C30	C	0.079280	-0.139291	0.531632
C31	C	0.095918	-0.189125	0.548224
C32	C	0.075577	-0.405615	0.527900
C33	C	0.058953	-0.422228	0.511301
C34	C	0.140315	-0.462889	0.470566
C35	C	0.156941	-0.446276	0.487159
C36	C	0.075772	-0.405653	0.744326
C37	C	0.059206	-0.422280	0.794159
C38	C	0.140607	-0.462951	0.794094
C39	C	0.157172	-0.446325	0.744260
C40	C	0.124753	-0.417674	0.719377
C41	C	0.328223	-0.417595	0.515681
C42	C	-0.172390	-0.583988	0.349141
C43	C	-0.041751	-0.584138	0.218783
C44	C	-0.041941	-0.584130	0.349402
C45	C	-0.041957	-0.714607	0.349338
C46	C	-0.129326	-0.598388	0.334853
C47	C	-0.056165	-0.598473	0.261852
C48	C	-0.056282	-0.671535	0.334962
C49	C	-0.056272	-0.598469	0.334999
C50	C	-0.227205	-0.565659	0.367327
C51	C	-0.023703	-0.565882	0.367734
C52	C	-0.074511	-0.616717	0.316667
C53	C	-0.055754	-0.794298	0.391257
C54	C	-0.039181	-0.844132	0.407888
C55	C	0.041447	-0.844215	0.377269
C56	C	0.024873	-0.794381	0.360637
C57	C	-0.252183	-0.577666	0.416302
C58	C	-0.302014	-0.561001	0.432833
C59	C	-0.301886	-0.520329	0.351410
C60	C	-0.252055	-0.536994	0.334880
C61	C	-0.035709	-0.516892	0.355682
C62	C	-0.019129	-0.500308	0.372353
C63	C	0.021465	-0.581700	0.413115
C64	C	0.004884	-0.598286	0.396450
C65	C	-0.035389	-0.516907	0.139026
C66	C	-0.018707	-0.500324	0.089193
C67	C	0.021949	-0.581721	0.089240
C68	C	0.005268	-0.598303	0.139074
C69	C	-0.023402	-0.565894	0.163965
C70	C	-0.023728	-0.769425	0.367633
N71	N	0.427173	-0.450553	0.482630
O72	O	0.589997	-0.458460	0.365361
O73	O	0.590185	-0.550997	0.490963
O74	O	0.590104	-0.550786	0.411309
O75	O	0.590077	-0.458671	0.445016
O76	O	0.510940	-0.524462	0.437777
O77	O	0.511020	-0.524674	0.517432
O78	O	0.510832	-0.432136	0.391830
Zn79	Zn	0.498357	-0.474225	0.458833
Zn80	Zn	0.602660	-0.508908	0.423960
O81	O	0.510913	-0.432348	0.471484
N82	N	0.673844	-0.532580	0.400158
N83	N	0.091520	-0.115070	0.482873
O84	O	-0.025663	0.047841	0.474857
O85	O	0.099940	0.047877	0.382299
O86	O	0.020247	0.047844	0.382560
O87	O	0.054030	0.047874	0.474596
O88	O	0.046674	-0.031326	0.408942
O89	O	0.126367	-0.031293	0.408680
O90	O	0.000764	-0.031329	0.501238
Zn91	Zn	0.067761	-0.043881	0.459148
Zn92	Zn	0.032943	0.060429	0.424389
O93	O	0.080457	-0.031296	0.500977
N94	N	0.009178	0.131618	0.400665
N95	N	0.091852	-0.450680	0.818332
O96	O	0.083862	-0.567845	0.981235
O97	O	-0.008657	-0.442198	0.981276
O98	O	-0.008441	-0.521875	0.981252
O99	O	0.083646	-0.488168	0.981258
O100	O	0.017919	-0.495468	0.902085
O101	O	0.017703	-0.415791	0.902109
O102	O	0.110222	-0.541438	0.902067
Zn103	Zn	0.068148	-0.474422	0.889518
Zn104	Zn	0.033417	-0.509214	0.993825
O105	O	0.110006	-0.461761	0.902091
N106	N	0.009712	-0.532961	1.065011
C107	C	0.030439	-0.413071	0.383027
C108	C	0.129046	-0.511580	0.382922
C109	C	0.070334	-0.570496	0.500675
C110	C	-0.028274	-0.471987	0.500780
C111	C	0.550625	-0.550579	0.520021
C112	C	0.550527	-0.550317	0.421379
C113	C	0.550389	-0.432554	0.362773
C114	C	0.550491	-0.432816	0.461414
C115	C	0.128944	0.008394	0.382712
C116	C	0.030287	0.008256	0.383068
C117	C	-0.028273	0.008252	0.500793
C118	C	0.070417	0.008292	0.500470
C119	C	-0.008218	-0.413165	0.941698
C120	C	-0.007945	-0.511830	0.941653
C121	C	0.109783	-0.570471	0.941646
C122	C	0.109516	-0.471800	0.941673
H123	H	0.019320	-0.412483	0.814467
H124	H	0.550674	-0.579628	0.556096
H125	H	0.077514	-0.606615	0.529644
H126	H	-0.064365	-0.464880	0.529794
H127	H	0.550540	-0.579254	0.414165
C128	C	0.103427	-0.265526	0.609798
C129	C	0.082766	-0.216526	0.602073
H130	H	0.095313	-0.282442	0.643043
H131	H	0.137039	-0.273664	0.595755
H132	H	0.091934	-0.273705	0.595841
H133	H	0.094261	-0.208347	0.616027
H134	H	0.049147	-0.208385	0.616122
H135	H	0.164941	0.008624	0.353583
H136	H	0.023260	-0.376951	0.354059
C137	C	0.180085	-0.265477	0.456136
C138	C	0.168012	-0.216472	0.431227
H139	H	0.199515	-0.282376	0.434150
H140	H	0.151922	-0.273654	0.475590
H141	H	0.197014	-0.273637	0.475555
H142	H	0.151080	-0.208311	0.411811
H143	H	0.196180	-0.208292	0.411765
H144	H	0.165136	-0.518689	0.353905
C145	C	0.222414	-0.501415	0.431966
C146	C	0.175900	-0.494369	0.439055
H147	H	0.244380	-0.520846	0.412511
H148	H	0.227228	-0.516636	0.461821
H149	H	0.227182	-0.471539	0.416752
H150	H	0.171131	-0.524245	0.454273
H151	H	0.171084	-0.479149	0.409195
H152	H	0.550329	-0.403500	0.326702
C153	C	0.297157	-0.499534	0.594798
C154	C	0.325780	-0.501401	0.548774
H155	H	0.280261	-0.521261	0.610870
H156	H	0.275182	-0.468208	0.592978
H157	H	0.316619	-0.507876	0.611761
H158	H	0.306318	-0.493056	0.531810
H159	H	0.347758	-0.532734	0.550592
C160	C	-0.059748	-0.489154	0.900903
C161	C	-0.046987	-0.521544	0.941606
H162	H	-0.083853	-0.495150	0.900877
H163	H	-0.032672	-0.492703	0.873306
H164	H	-0.071380	-0.457641	0.900926
H165	H	-0.035352	-0.553057	0.941580
H166	H	-0.074068	-0.517999	0.969210
H167	H	-0.064344	0.008241	0.529850
C168	C	0.030406	-0.610234	0.488694
C169	C	0.052893	-0.617322	0.444677
H170	H	0.049809	-0.632222	0.508177
H171	H	0.000535	-0.614991	0.503857
H172	H	0.025630	-0.578682	0.483900
H173	H	0.057666	-0.648872	0.449470
H174	H	0.082772	-0.612568	0.429511
C175	C	0.025716	0.048942	0.304132
C176	C	0.020517	0.008242	0.344037
H177	H	0.019680	0.048933	0.280040
H178	H	0.057230	0.048950	0.292483
H179	H	0.003756	0.076547	0.312809
H180	H	0.042479	-0.019362	0.335360
H181	H	-0.011001	0.008230	0.355688
C182	C	0.132051	-0.648660	0.941619
C183	C	0.148998	-0.619183	0.941628
H184	H	0.156261	-0.678733	0.941611
H185	H	0.123395	-0.634413	0.914016
H186	H	0.105009	-0.652830	0.969231
H187	H	0.176039	-0.615010	0.914014
H188	H	0.157661	-0.633433	0.969234
H189	H	0.077653	0.008301	0.529384
C190	C	0.591201	-0.409942	0.482240
C191	C	0.550478	-0.393752	0.471149
H192	H	0.591191	-0.385826	0.488253
H193	H	0.618783	-0.417322	0.456255
H194	H	0.591242	-0.437656	0.509742
H195	H	0.550439	-0.366040	0.443645
H196	H	0.522889	-0.386366	0.497137
H197	H	-0.037264	-0.377079	0.941710
C198	C	0.159468	-0.423787	0.900973
C199	C	0.148576	-0.462066	0.941665
H200	H	0.183583	-0.417781	0.900968
H201	H	0.131763	-0.396280	0.900989
H202	H	0.170452	-0.431345	0.873366
H203	H	0.137588	-0.454507	0.969273
H204	H	0.176286	-0.489580	0.941654
C205	C	0.011490	-0.399096	0.729041
C206	C	0.040135	-0.374160	0.716977
H207	H	-0.010508	-0.379655	0.712154
H208	H	-0.005382	-0.407274	0.762286
H209	H	0.030934	-0.427267	0.720858
H210	H	0.020691	-0.345990	0.725164
H211	H	0.057008	-0.365975	0.683725
C212	C	0.204888	-0.535965	0.809385
C213	C	0.176238	-0.494441	0.821450
H214	H	0.226882	-0.555410	0.826277
H215	H	0.221765	-0.527781	0.776142
H216	H	0.185446	-0.552870	0.817563
H217	H	0.195680	-0.477534	0.813269
H218	H	0.159360	-0.502624	0.854701
C219	C	0.218713	-0.438902	0.667843
C220	C	0.211016	-0.459541	0.716837
H221	H	0.251954	-0.447064	0.650915
H222	H	0.204706	-0.405283	0.659692
H223	H	0.204706	-0.450368	0.659695
H224	H	0.225021	-0.448072	0.724986
H225	H	0.225029	-0.493166	0.724992
C226	C	0.011316	-0.332600	0.534500
C227	C	0.039995	-0.374132	0.559405
H228	H	-0.010649	-0.313163	0.553950
H229	H	-0.005593	-0.340776	0.526346
H230	H	0.030742	-0.315692	0.506318
H231	H	0.020569	-0.391043	0.587586
H232	H	0.056905	-0.365957	0.567566
C233	C	-0.006905	-0.450567	0.549480
C234	C	0.005098	-0.409016	0.524567
H235	H	-0.040152	-0.442410	0.557666
H236	H	0.001290	-0.467474	0.577641
H237	H	0.010000	-0.469993	0.530024
H238	H	-0.011805	-0.389592	0.544024
H239	H	-0.003103	-0.392102	0.496402
C240	C	0.218555	-0.438862	0.494511
C241	C	0.210797	-0.459491	0.473891
H242	H	0.251803	-0.447020	0.486316
H243	H	0.204589	-0.450335	0.528131
H244	H	0.204539	-0.405239	0.483062
H245	H	0.224810	-0.493115	0.485342
H246	H	0.224769	-0.448021	0.440263
C247	C	0.398005	-0.560847	0.538161
C248	C	0.430383	-0.536250	0.513849
H249	H	0.414925	-0.593839	0.542949
H250	H	0.378549	-0.549162	0.519921
H251	H	0.378589	-0.556228	0.568106
H252	H	0.449797	-0.540867	0.483903
H253	H	0.449847	-0.547939	0.532090
H254	H	-0.028474	-0.460433	0.068892
C255	C	0.397922	-0.320809	0.446618
C256	C	0.430324	-0.366988	0.449299
H257	H	0.414822	-0.299084	0.430531
H258	H	0.378511	-0.319542	0.477837
H259	H	0.378463	-0.312481	0.429658
H260	H	0.449781	-0.375318	0.466263
H261	H	0.449744	-0.368256	0.418074
H262	H	0.129672	-0.118967	0.410356
C263	C	0.297038	-0.314921	0.457343
C264	C	0.325718	-0.332139	0.484233
H265	H	0.280125	-0.281928	0.452552
H266	H	0.275078	-0.331609	0.473836
H267	H	0.316464	-0.319542	0.427400
H268	H	0.306292	-0.327521	0.514178
H269	H	0.347681	-0.315446	0.467741
H270	H	0.055974	-0.119015	0.558014
H271	H	0.045284	-0.608113	0.068976
C272	C	-0.041973	-0.452663	0.154391
C273	C	-0.066907	-0.481280	0.166383
H274	H	-0.061430	-0.430671	0.171283
H275	H	-0.033756	-0.435781	0.121147
H276	H	-0.013826	-0.472130	0.162618
H277	H	-0.095052	-0.461813	0.158153
H278	H	-0.075130	-0.498163	0.199634
C279	C	0.001564	-0.672748	0.154391
C280	C	0.018441	-0.652154	0.166488
H281	H	0.009693	-0.705992	0.171317
H282	H	0.015602	-0.667510	0.121155
H283	H	-0.032053	-0.658712	0.162504
H284	H	0.052059	-0.666188	0.158372
H285	H	0.004404	-0.657395	0.199732
C286	C	-0.108682	-0.452589	0.349011
C287	C	-0.067139	-0.481271	0.324126
H288	H	-0.128087	-0.430599	0.329530
H289	H	-0.100522	-0.435705	0.357211
H290	H	-0.125616	-0.472012	0.377166
H291	H	-0.050203	-0.461847	0.295972
H292	H	-0.075299	-0.498156	0.315919
C293	C	-0.015327	-0.425874	0.309543
C294	C	-0.032308	-0.446458	0.359102
H295	H	-0.023457	-0.392631	0.301363
H296	H	-0.029299	-0.431105	0.295509
H297	H	0.018293	-0.439922	0.298150
H298	H	-0.065929	-0.432412	0.370496
H299	H	-0.018338	-0.441223	0.373142
H300	H	0.050956	-0.774133	0.341399
C301	C	0.046677	-0.677077	0.438416
C302	C	0.018083	-0.652138	0.409693
H303	H	0.054828	-0.710322	0.446588
H304	H	0.029736	-0.668890	0.466582
H305	H	0.074864	-0.668936	0.421552
H306	H	-0.010106	-0.660276	0.426557
H307	H	0.035024	-0.660328	0.381522
H308	H	0.081021	-0.864532	0.371574
H309	H	-0.065262	-0.864385	0.427124
C310	C	-0.124313	-0.778883	0.376663
C311	C	-0.109176	-0.766856	0.398928
H312	H	-0.157291	-0.761938	0.381392
H313	H	-0.119033	-0.812117	0.389955
H314	H	-0.106885	-0.770742	0.343539
H315	H	-0.126602	-0.775000	0.432052
H316	H	-0.114460	-0.733615	0.385637
C317	C	-0.257318	-0.616185	0.498449
C318	C	-0.224870	-0.609172	0.451970
H319	H	-0.240454	-0.635634	0.520467
H320	H	-0.276755	-0.631374	0.503196
H321	H	-0.276747	-0.586301	0.503209
H322	H	-0.205443	-0.639056	0.447209
H323	H	-0.205425	-0.593984	0.447221
H324	H	-0.322352	-0.570775	0.472713
H325	H	-0.231721	-0.527215	0.295000
C326	C	-0.296754	-0.481810	0.269264
C327	C	-0.329203	-0.488823	0.315744
H328	H	-0.313619	-0.462356	0.247246
H329	H	-0.277328	-0.511688	0.264503
H330	H	-0.277314	-0.466621	0.264520
H331	H	-0.348641	-0.504015	0.320489
H332	H	-0.348637	-0.458938	0.320507
