data_functionalizedCrystal
_audit_creation_method	'MofGen! by Chris Wilmer'
_symmetry_space_group_name_H-M	'P1'
_symmetry_Int_Tables_number	1
_symmetry_cell_setting	triclinic
loop_
_symmetry_equiv_pos_as_xyz
  x,y,z
_cell_length_a	8.597366
_cell_length_b	8.559649
_cell_length_c	7.088929
_cell_angle_alpha	84.655815
_cell_angle_beta	103.954530
_cell_angle_gamma	77.624636
loop_
_atom_site_label
_atom_site_type_symbol
_atom_site_fract_x
_atom_site_fract_y
_atom_site_fract_z
O1	O	2.074461	0.219466	0.182744
O2	O	1.606581	0.245558	0.105668
O3	O	1.881742	-0.000149	0.150998
O4	O	1.799300	0.465172	0.137413
O5	O	1.918523	-0.033059	0.475033
O6	O	1.643363	0.212647	0.429702
O7	O	2.111242	0.186555	0.506778
Cu8	Cu	1.880661	0.196596	0.497827
Cu9	Cu	1.837163	0.235517	0.114619
O10	O	1.836082	0.432261	0.461448
C11	C	1.565628	0.228134	0.257909
C12	C	1.388803	0.225231	0.228780
C13	C	1.906380	-0.076142	0.314041
C14	C	1.924976	-0.253547	0.317094
C15	C	2.152196	0.203979	0.354533
C16	C	2.329019	0.206884	0.383649
C17	C	1.811443	0.508255	0.298401
C18	C	1.792846	0.685662	0.295335
N19	N	1.911267	0.169221	0.767357
N20	N	1.806571	0.262879	-0.154909
H21	H	1.665498	-0.230663	0.274363
C22	C	2.045687	-0.113982	0.851476
C23	C	2.057762	0.038189	0.901706
H24	H	2.136130	-0.194871	0.934412
H25	H	1.945004	-0.134445	0.867635
H26	H	2.047766	-0.115834	0.718319
H27	H	2.055671	0.040045	1.034860
H28	H	2.158472	0.058657	0.885564
C29	C	1.379846	0.314466	0.687451
C30	C	1.442535	0.188680	0.592764
H31	H	1.449923	0.303219	0.816551
H32	H	1.375186	0.415424	0.615429
H33	H	1.271920	0.310044	0.694617
H34	H	1.550457	0.193110	0.585585
H35	H	1.447214	0.087697	0.664805
C36	C	2.082683	-0.526285	0.343084
C37	C	2.096910	-0.366505	0.345417
H38	H	2.188826	-0.596015	0.360555
H39	H	2.037635	-0.557076	0.446547
H40	H	2.011958	-0.534125	0.220546
H41	H	2.167626	-0.358662	0.467960
H42	H	2.141982	-0.335705	0.241945
H43	H	1.304712	0.238707	0.073893
H44	H	1.698066	0.359936	0.745570
