data_functionalizedCrystal
_audit_creation_method	'MofGen! by Chris Wilmer'
_symmetry_space_group_name_H-M	'P1'
_symmetry_Int_Tables_number	1
_symmetry_cell_setting	triclinic
loop_
_symmetry_equiv_pos_as_xyz
  x,y,z
_cell_length_a	14.395555
_cell_length_b	14.560438
_cell_length_c	14.560438
_cell_angle_alpha	60.000069
_cell_angle_beta	90.001329
_cell_angle_gamma	59.999305
loop_
_atom_site_label
_atom_site_type_symbol
_atom_site_fract_x
_atom_site_fract_y
_atom_site_fract_z
Zr1	Zr	0.894916	1.005237	-0.120460
O2	O	0.746586	1.196847	-0.267113
O3	O	0.940387	0.813633	-0.075506
O4	O	0.940387	1.005238	-0.267106
O5	O	0.746586	1.005240	0.075629
O6	O	1.093261	1.005231	-0.267098
O7	O	0.746586	1.005243	-0.075512
O8	O	1.093261	0.662486	0.075640
O9	O	0.746586	1.347985	-0.267110
O10	O	1.073868	0.892435	-0.056324
O11	O	0.959780	0.892438	0.056465
O12	O	0.959780	1.118027	-0.169121
O13	O	0.845692	1.118031	-0.056332
Zr14	Zr	1.138733	1.005222	0.120605
Zr15	Zr	1.138733	1.005226	-0.120447
Zr16	Zr	0.894916	1.005233	0.120592
Zr17	Zr	0.894916	1.246285	-0.120456
Zr18	Zr	1.138732	0.764174	0.120600
O19	O	1.093262	1.196825	0.075650
O20	O	1.093261	1.196831	-0.267095
O21	O	0.746586	1.196841	0.075632
O22	O	1.287063	0.813612	0.267258
O23	O	1.287063	0.813618	-0.075487
O24	O	0.940387	0.813627	0.267240
O25	O	1.287063	1.005219	-0.075484
O26	O	1.093262	1.005221	0.267251
O27	O	0.940388	1.005228	0.267243
O28	O	1.287063	1.005216	0.075657
O29	O	0.940388	1.347976	-0.267100
O30	O	1.093261	0.662483	0.267245
O31	O	1.287063	0.662474	0.267255
O32	O	1.287063	0.662477	0.075651
O33	O	0.746586	1.347981	-0.075506
O34	O	0.940388	1.347973	-0.075496
O35	O	1.073869	0.892431	0.169265
O36	O	1.187957	0.892428	0.056477
O37	O	1.073869	1.118020	-0.056320
O38	O	0.959781	1.118024	0.056469
C39	C	1.016824	0.703716	0.000067
C40	C	1.016824	0.601385	0.000065
C41	C	1.076374	0.553307	-0.058810
C42	C	1.076379	0.457148	-0.058799
C43	C	0.957273	0.457156	0.058962
C44	C	0.957276	0.553307	0.058957
C45	C	0.711847	1.005243	0.000056
C46	C	0.608341	1.005248	0.000051
C47	C	0.485546	1.128250	-0.061441
C48	C	0.454710	1.066762	-0.106008
C49	C	0.454753	1.066731	0.044609
C50	C	0.578868	0.943759	-0.044578
C51	C	0.578908	0.943745	0.106098
C52	C	0.548146	0.882167	0.061558
C53	C	1.321802	1.005216	0.000088
C54	C	1.425308	1.005211	0.000094
C55	C	1.016824	1.005235	-0.301447
C56	C	1.016824	1.005237	-0.403780
C57	C	1.016825	1.306743	0.000078
C58	C	1.016825	1.409074	0.000080
C59	C	1.101043	1.005234	-0.451852
C60	C	1.101047	1.005222	-0.547998
C61	C	0.932601	1.005221	-0.547995
C62	C	0.932603	1.005223	-0.451846
C63	C	1.016825	1.005224	0.301592
C64	C	1.016825	1.005222	0.403925
C65	C	1.321801	0.703702	0.000083
C66	C	1.425307	0.601366	0.000086
C67	C	1.016824	0.703710	0.301586
C68	C	1.016824	0.601377	0.403917
C69	C	1.321802	0.703697	0.301602
C70	C	1.425308	0.601359	0.403939
C71	C	0.711847	1.306762	-0.301458
C72	C	0.608341	1.409100	-0.403794
C73	C	0.711848	1.306757	0.000062
C74	C	0.608341	1.409092	0.000058
C75	C	1.016825	1.306749	-0.301442
C76	C	1.016825	1.409081	-0.403773
C77	C	1.414385	0.553290	-0.058790
C78	C	1.511644	0.457143	-0.058791
C79	C	1.630745	0.457153	0.058971
C80	C	1.533487	0.553305	0.058964
C81	C	1.076376	0.553296	0.510874
C82	C	1.076363	0.457152	0.607021
C83	C	0.957245	0.457177	0.489242
C84	C	0.957252	0.553325	0.393097
C85	C	1.533488	0.553277	0.393145
C86	C	1.630740	0.457128	0.489305
C87	C	1.511617	0.457149	0.607049
C88	C	1.414368	0.553302	0.510890
H89	H	1.124863	0.592448	-0.106762
F90	F	1.545136	0.604425	0.279322
F91	F	0.842970	1.005212	-0.599158
H92	H	0.460102	1.232261	-0.113522
H93	H	1.169622	1.005242	-0.412717
F94	F	1.139758	0.405986	-0.121465
F95	F	1.500011	0.405983	-0.121458
H96	H	1.718834	0.418007	0.106909
H97	H	1.124879	0.592421	0.519690
H98	H	0.864021	1.005221	-0.412701
H99	H	1.326304	0.592431	-0.106744
F100	F	1.299224	0.604484	0.522382
H101	H	1.718823	0.417984	0.480509
H102	H	0.573803	0.778072	0.113566
H103	H	0.908790	0.418001	0.106909
F104	F	0.384756	1.134711	-0.223205
F105	F	0.648595	0.875885	-0.093970
H106	H	1.169627	1.005218	-0.587134
H107	H	1.542389	0.592453	0.106908
H108	H	0.632422	0.891803	0.195744
F109	F	1.139743	0.405987	0.720851
F110	F	0.893850	0.406026	0.477737
H111	H	0.908752	0.592477	0.306002
F112	F	0.893898	0.604471	0.121630
H113	H	1.502723	0.418008	0.694138
F114	F	0.384818	1.134708	0.093843
