data_functionalizedCrystal
_audit_creation_method	'MofGen! by Chris Wilmer'
_symmetry_space_group_name_H-M	'P1'
_symmetry_Int_Tables_number	1
_symmetry_cell_setting	triclinic
loop_
_symmetry_equiv_pos_as_xyz
  x,y,z
_cell_length_a	13.897449
_cell_length_b	19.121063
_cell_length_c	13.897441
_cell_angle_alpha	92.406550
_cell_angle_beta	89.981404
_cell_angle_gamma	92.470221
loop_
_atom_site_label
_atom_site_type_symbol
_atom_site_fract_x
_atom_site_fract_y
_atom_site_fract_z
Zn1	Zn	1.458236	-0.279574	-0.561726
Zn2	Zn	1.451226	-0.397036	-0.407295
Zn3	Zn	1.296929	-0.279605	-0.400446
Zn4	Zn	1.290000	-0.396991	-0.568545
O5	O	1.374098	-0.338302	-0.484503
O6	O	1.592287	-0.295161	-0.541253
O7	O	1.430725	-0.381490	-0.271406
O8	O	1.324161	-0.181317	-0.416121
O9	O	1.587137	-0.381459	-0.427793
O10	O	1.442672	-0.181294	-0.534612
O11	O	1.317364	-0.295214	-0.266375
O12	O	1.161029	-0.295172	-0.422732
O13	O	1.312350	-0.381384	-0.702620
O14	O	1.155937	-0.381415	-0.546234
O15	O	1.435953	-0.295118	-0.697610
O16	O	1.424005	-0.495314	-0.434405
O17	O	1.305553	-0.495282	-0.552874
C18	C	1.123484	-0.338292	-0.484480
C19	C	1.016269	-0.338305	-0.484495
C20	C	0.819974	-0.338308	-0.484520
C21	C	0.929207	-0.338304	-0.484503
C22	C	1.363293	-0.520782	-0.495144
C23	C	1.358758	-0.598848	-0.499728
C24	C	1.418348	-0.635517	-0.440252
C25	C	1.414089	-0.708868	-0.444569
C26	C	1.350236	-0.745549	-0.508358
C27	C	1.290643	-0.708875	-0.567841
C28	C	1.294908	-0.635525	-0.563528
C29	C	1.334277	-0.967019	-0.524468
C30	C	1.330015	-1.040374	-0.528775
C31	C	1.453463	-1.040362	-0.405504
C32	C	1.457717	-0.967011	-0.401193
C33	C	1.398129	-0.930343	-0.460679
C34	C	1.345879	-0.820526	-0.512770
C35	C	1.402491	-0.855368	-0.456271
C36	C	1.625690	-0.338312	-0.484526
C37	C	1.732904	-0.338316	-0.484536
C38	C	1.374160	-0.338243	-0.736093
C39	C	1.374187	-0.338218	-0.843305
C40	C	1.384971	-0.155109	-0.473842
C41	C	1.389605	-0.077043	-0.469299
C42	C	1.374208	-0.338198	-0.930374
C43	C	1.374237	-0.338166	-1.039605
C44	C	1.374094	-0.338310	-0.233889
C45	C	1.374266	-0.338137	-0.126666
H46	H	1.462613	-0.738721	-0.396137
H47	H	1.238656	-0.738746	-0.619783
H48	H	1.509712	-0.937147	-0.349251
C49	C	1.195449	-1.122928	-0.546921
C50	C	1.259821	-1.080691	-0.598900
H51	H	1.152112	-1.147813	-0.590211
H52	H	1.230326	-1.155262	-0.512122
H53	H	1.160241	-1.094348	-0.503188
H54	H	1.295034	-1.109272	-0.642628
H55	H	1.224941	-1.048353	-0.633715
H56	H	1.470340	-0.605656	-0.388304
H57	H	1.501978	-1.070225	-0.357075
H58	H	1.285756	-0.937169	-0.572902
C59	C	1.172458	-0.642899	-0.685807
C60	C	1.229407	-0.595215	-0.628907
H61	H	1.132019	-0.618013	-0.726170
H62	H	1.212804	-0.671463	-0.724414
H63	H	1.133915	-0.671553	-0.645424
H64	H	1.267954	-0.566565	-0.669291
H65	H	1.189056	-0.566639	-0.590297
C66	C	1.420740	-0.772945	-0.321694
C67	C	1.472675	-0.815051	-0.386151
H68	H	1.464068	-0.748055	-0.278400
H69	H	1.385870	-0.740615	-0.356507
H70	H	1.377071	-0.801614	-0.286450
H71	H	1.516339	-0.786381	-0.421400
H72	H	1.507562	-0.847384	-0.351334
H73	H	1.293887	-0.850399	-0.564706
