data_functionalizedCrystal
_audit_creation_method	'MofGen! by Chris Wilmer'
_symmetry_space_group_name_H-M	'P1'
_symmetry_Int_Tables_number	1
_symmetry_cell_setting	triclinic
loop_
_symmetry_equiv_pos_as_xyz
  x,y,z
_cell_length_a	17.038272
_cell_length_b	11.026607
_cell_length_c	10.065875
_cell_angle_alpha	79.268236
_cell_angle_beta	99.382126
_cell_angle_gamma	99.848786
loop_
_atom_site_label
_atom_site_type_symbol
_atom_site_fract_x
_atom_site_fract_y
_atom_site_fract_z
O1	O	-1.084093	-0.250529	-0.113309
O2	O	-0.855867	-0.246277	-0.113350
O3	O	-0.951065	-0.069798	-0.113328
O4	O	-0.988896	-0.427009	-0.113331
O5	O	-0.932932	-0.103595	0.113657
O6	O	-0.837735	-0.280074	0.113635
O7	O	-1.065961	-0.284326	0.113675
Zn8	Zn	-0.948969	-0.287566	0.149694
Zn9	Zn	-0.972859	-0.243037	-0.149368
O10	O	-0.970763	-0.460806	0.113654
C11	C	-0.935020	-0.040764	0.000162
C12	C	-0.914215	0.096099	0.000153
C13	C	-0.817129	-0.259313	0.000137
C14	C	-0.728714	-0.247789	0.000122
C15	C	-1.104699	-0.271290	0.000185
C16	C	-1.193115	-0.282813	0.000192
C17	C	-0.693506	-0.353573	0.000122
C18	C	-0.610427	-0.342742	0.000141
C19	C	-0.562559	-0.226125	0.000150
C20	C	-0.597772	-0.120334	0.000154
C21	C	-0.680848	-0.131167	0.000145
C22	C	-0.311404	-0.187855	0.000187
C23	C	-0.228323	-0.177029	0.000192
C24	C	-0.240984	-0.399439	0.000181
C25	C	-0.324062	-0.410260	0.000164
C26	C	-0.359267	-0.304470	0.000175
C27	C	-0.477639	-0.215052	0.000165
C28	C	-0.444184	-0.315547	0.000170
C29	C	-0.986809	-0.489839	0.000161
C30	C	-1.007614	-0.626701	0.000161
N31	N	-0.932670	-0.317956	0.353796
C32	C	-0.971661	0.163973	0.000161
C33	C	-0.950160	0.305428	0.000152
N34	N	-0.989163	-0.212639	-0.353470
C35	C	-0.967182	-0.253603	0.421582
C36	C	-0.954646	-0.277001	0.578747
H37	H	-0.732475	-0.448535	0.000114
H38	H	-1.027990	-0.140211	0.588218
H39	H	-0.189350	-0.082061	0.000198
H40	H	-1.072725	0.326708	0.000070
H41	H	-0.581765	-0.428883	0.000139
F42	F	-0.375002	-0.534379	0.000147
F43	F	-1.017763	-0.158713	0.345363
H44	H	-0.558789	-0.025385	0.000181
F45	F	-0.903886	-0.371658	0.654961
H46	H	-0.212310	-0.485567	0.000175
F47	F	-0.718318	-0.018578	0.000149
H48	H	-0.340058	-0.101712	0.000197
F49	F	-0.495130	-0.439656	0.000166
H50	H	-0.438653	-0.120107	0.000211
F51	F	-1.056752	0.103053	0.000168
F52	F	-0.829125	0.157022	0.000126
H53	H	-0.893838	-0.390369	0.412113
H54	H	-0.885057	0.352038	0.000132
