data_functionalizedCrystal
_audit_creation_method	'MofGen! by Chris Wilmer'
_symmetry_space_group_name_H-M	'P1'
_symmetry_Int_Tables_number	1
_symmetry_cell_setting	triclinic
loop_
_symmetry_equiv_pos_as_xyz
  x,y,z
_cell_length_a	10.685972
_cell_length_b	10.686285
_cell_length_c	12.594510
_cell_angle_alpha	85.599163
_cell_angle_beta	85.602605
_cell_angle_gamma	89.663699
loop_
_atom_site_label
_atom_site_type_symbol
_atom_site_fract_x
_atom_site_fract_y
_atom_site_fract_z
Zn1	Zn	-1.956348	0.352387	0.705791
Zn2	Zn	-1.972343	0.562216	0.515297
Zn3	Zn	-1.746556	0.368532	0.513191
Zn4	Zn	-1.762656	0.578170	0.678617
O5	O	-1.859476	0.465326	0.603224
O6	O	-2.134023	0.366787	0.692774
O7	O	-1.942348	0.536604	0.366063
O8	O	-1.760954	0.190842	0.549231
O9	O	-2.145774	0.520948	0.552819
O10	O	-1.915087	0.178980	0.690733
O11	O	-1.776464	0.394305	0.364516
O12	O	-1.573139	0.409775	0.522882
O13	O	-1.788393	0.548139	0.831176
O14	O	-1.584967	0.563795	0.644420
O15	O	-1.930698	0.382257	0.851140
O16	O	-1.957959	0.739881	0.526471
O17	O	-1.803903	0.751602	0.646462
C18	C	-1.533534	0.490269	0.580474
C19	C	-1.394097	0.500970	0.570766
C20	C	-1.884448	0.791257	0.583772
C21	C	-1.895246	0.930683	0.575493
C22	C	-1.859557	0.465177	0.880860
C23	C	-1.859592	0.465113	0.999172
C24	C	-1.186689	0.440278	0.626058
C25	C	-1.326127	0.429583	0.635777
C26	C	-1.834440	0.138120	0.622778
C27	C	-1.823771	-0.001315	0.631111
C28	C	-1.859460	0.465379	0.326678
C29	C	-1.859641	0.465071	0.208405
C30	C	-1.937019	0.374862	1.150051
C31	C	-1.976448	0.486980	1.074542
C32	C	-1.820220	0.353004	1.073112
C33	C	-1.899134	0.577244	1.134456
C34	C	-1.742847	0.443195	1.133032
C35	C	-1.782238	0.555395	1.057548
H36	H	-1.345610	0.570279	0.507670
H37	H	-1.374607	0.360271	0.698863
H38	H	-1.754319	0.950241	0.685062
H39	H	-1.964694	0.979135	0.521531
C40	C	-1.609476	0.418108	1.168065
N41	N	-1.509020	0.399198	1.194457
H42	H	-1.932596	0.672045	1.161433
C43	C	-2.025529	0.271895	1.204446
N44	N	-2.092197	0.194346	1.245419
C45	C	-2.109852	0.512007	1.039546
N46	N	-2.210332	0.530848	1.013188
C47	C	-1.693847	0.658592	1.003375
N48	N	-1.627287	0.736325	0.962558
C49	C	-1.775198	0.224946	1.036505
N50	N	-1.741297	0.128489	1.008939
