data_functionalizedCrystal
_audit_creation_method	'MofGen! by Chris Wilmer'
_symmetry_space_group_name_H-M	'P1'
_symmetry_Int_Tables_number	1
_symmetry_cell_setting	triclinic
loop_
_symmetry_equiv_pos_as_xyz
  x,y,z
_cell_length_a	14.044220
_cell_length_b	11.792241
_cell_length_c	10.868271
_cell_angle_alpha	90.003536
_cell_angle_beta	90.006815
_cell_angle_gamma	91.308853
loop_
_atom_site_label
_atom_site_type_symbol
_atom_site_fract_x
_atom_site_fract_y
_atom_site_fract_z
O1	O	0.129988	-1.519105	0.102206
O2	O	0.143385	-1.190022	0.102234
O3	O	-0.001324	-1.349624	0.102208
O4	O	0.274696	-1.359503	0.102232
O5	O	-0.001332	-1.349621	-0.102436
O6	O	0.143377	-1.190019	-0.102410
O7	O	0.129980	-1.519102	-0.102439
Zn8	Zn	0.136677	-1.354560	-0.134916
Zn9	Zn	0.136688	-1.354564	0.134712
O10	O	0.274688	-1.359500	-0.102413
C11	C	0.142539	-1.147650	-0.000084
C12	C	0.140020	-1.021400	-0.000074
N13	N	0.136688	-1.354566	0.318726
C14	C	-0.036664	-1.345298	-0.000114
C15	C	-0.141956	-1.332399	-0.000115
C16	C	-0.334739	-1.308817	-0.000095
C17	C	-0.391902	-1.400302	-0.000099
C18	C	-0.499173	-1.387181	-0.000088
C19	C	-0.227458	-1.321937	-0.000106
C20	C	0.310029	-1.363826	-0.000088
C21	C	0.415321	-1.376725	-0.000079
C22	C	0.130826	-1.561474	-0.000118
C23	C	0.133344	-1.687724	-0.000120
C24	C	0.135389	-0.790253	-0.000109
C25	C	0.137962	-0.918880	-0.000090
N26	N	0.136669	-1.354566	-0.318930
C27	C	0.136682	-1.354563	0.569732
C28	C	0.136688	-1.354562	0.430054
H29	H	-0.360278	-1.488479	-0.000024
O30	O	-0.372414	-1.203604	0.000130
C31	C	-0.341735	-1.144251	0.106099
H32	H	-0.320742	-1.207393	0.180177
H33	H	-0.401984	-1.089996	0.141678
H34	H	-0.277673	-1.087372	0.082132
