data_functionalizedCrystal
_audit_creation_method	'MofGen! by Chris Wilmer'
_symmetry_space_group_name_H-M	'P1'
_symmetry_Int_Tables_number	1
_symmetry_cell_setting	triclinic
loop_
_symmetry_equiv_pos_as_xyz
  x,y,z
_cell_length_a	6.817900
_cell_length_b	11.102193
_cell_length_c	17.110486
_cell_angle_alpha	95.185856
_cell_angle_beta	99.060439
_cell_angle_gamma	108.604125
loop_
_atom_site_label
_atom_site_type_symbol
_atom_site_fract_x
_atom_site_fract_y
_atom_site_fract_z
V1	V	-4.002957	-0.175461	-0.246723
O2	O	-3.964063	0.008821	-0.242023
O3	O	-3.980470	-0.348285	-0.245039
O4	O	-3.932389	-0.172591	-0.354326
O5	O	-4.012478	-0.168088	-0.131979
V6	V	-4.486100	-0.153439	-0.232998
O7	O	-4.265050	-0.223768	-0.276829
O8	O	-4.674205	-0.105132	-0.202892
O9	O	-4.285380	0.019384	-0.234683
O10	O	-4.642390	-0.337721	-0.237698
O11	O	-4.593976	-0.160812	-0.347742
O12	O	-4.333462	-0.156309	-0.125395
C13	C	-3.832492	-0.390421	-0.241147
C14	C	-3.895245	-0.531705	-0.240487
C15	C	-3.956589	-0.761111	-0.094302
C16	C	-3.898818	-0.676691	-0.022146
C17	C	-3.839858	-0.543943	-0.022768
C18	C	-3.838664	-0.495614	-0.095554
C19	C	-3.896435	-0.580033	-0.167709
C20	C	-3.955400	-0.712783	-0.167080
C21	C	-3.953016	-0.616125	-0.312643
C22	C	-4.011992	-0.748874	-0.312023
C23	C	-3.951822	-0.567795	-0.385428
C24	C	-4.009608	-0.652216	-0.457586
C25	C	-4.068574	-0.784971	-0.456961
C26	C	-4.069763	-0.833293	-0.384178
C27	C	-3.771158	-0.166305	-0.380553
C28	C	-3.794916	-0.165102	-0.468519
C29	C	-3.988315	-0.170880	-0.513877
C30	C	-4.010626	-0.169749	-0.596531
C31	C	-3.839539	-0.162849	-0.633825
C32	C	-3.646122	-0.157067	-0.588461
C33	C	-3.623810	-0.158189	-0.505808
C34	C	-3.897787	-0.159136	-0.883180
C35	C	-3.920116	-0.158018	-0.965839
C36	C	-4.284618	-0.170698	-0.973903
C37	C	-4.262292	-0.171827	-0.891249
C38	C	-4.068875	-0.166038	-0.845891
C39	C	-3.862341	-0.161697	-0.718310
C40	C	-4.046071	-0.167181	-0.761407
C41	C	-4.096702	0.061514	-0.238572
C42	C	-4.013186	0.202797	-0.239237
C43	C	-4.158036	-0.162600	-0.099164
C44	C	-4.113516	-0.163796	-0.011197
H45	H	-4.117777	-0.941382	-0.383663
C46	C	-4.008283	-0.599043	-0.537640
N47	N	-4.007288	-0.558988	-0.597939
H48	H	-3.466311	-0.153452	-0.468875
C49	C	-3.773778	-0.349585	-0.096233
N50	N	-3.724905	-0.239595	-0.096746
C51	C	-4.234259	-0.174769	-0.720380
N52	N	-4.376002	-0.180490	-0.689472
C53	C	-4.450497	-0.179402	-0.850230
N54	N	-4.592257	-0.185106	-0.819334
C55	C	-3.776308	-0.451079	0.056606
N56	N	-3.728445	-0.381134	0.116390
C57	C	-4.132120	-0.877824	-0.536339
N58	N	-4.179984	-0.947757	-0.596130
H59	H	-4.127641	-0.176507	-0.483519
H60	H	-4.168105	-0.174446	-0.633457
H61	H	-3.903803	-0.459703	-0.385929
H62	H	-4.442091	-0.175409	-1.010842
H63	H	-4.004615	-0.869200	-0.093789
H64	H	-3.723048	-0.156084	-0.748685
C65	C	-3.731893	-0.150421	-1.006860
N66	N	-3.590132	-0.144699	-1.037758
H67	H	-3.740320	-0.154467	-0.846264
C68	C	-3.900194	-0.729866	0.057913
N69	N	-3.901247	-0.769915	0.118213
H70	H	-3.506818	-0.151441	-0.618832
