data_functionalizedCrystal
_audit_creation_method	'MofGen! by Chris Wilmer'
_symmetry_space_group_name_H-M	'P1'
_symmetry_Int_Tables_number	1
_symmetry_cell_setting	triclinic
loop_
_symmetry_equiv_pos_as_xyz
  x,y,z
_cell_length_a	10.540539
_cell_length_b	14.519709
_cell_length_c	9.616153
_cell_angle_alpha	89.996797
_cell_angle_beta	89.995174
_cell_angle_gamma	84.102818
loop_
_atom_site_label
_atom_site_type_symbol
_atom_site_fract_x
_atom_site_fract_y
_atom_site_fract_z
O1	O	-1.684565	-0.129964	0.115583
O2	O	-1.315027	-0.142209	0.115601
O3	O	-1.509594	-0.001901	0.115579
O4	O	-1.489999	-0.270272	0.115605
O5	O	-1.509568	-0.001904	-0.115712
O6	O	-1.315001	-0.142212	-0.115690
O7	O	-1.684539	-0.129967	-0.115708
Zn8	Zn	-1.499765	-0.136090	-0.152422
Zn9	Zn	-1.499801	-0.136086	0.152315
O10	O	-1.489972	-0.270275	-0.115686
C11	C	-1.267720	-0.141293	-0.000043
C12	C	-1.126800	-0.138545	-0.000036
C13	C	-1.508668	0.032462	-0.000067
C14	C	-1.505931	0.134858	-0.000067
C15	C	-1.731846	-0.130884	-0.000061
C16	C	-1.872766	-0.133631	-0.000058
C17	C	-0.944448	-0.033266	-0.000587
C18	C	-1.091038	-0.036051	-0.000051
C19	C	-1.064640	-0.187868	0.132042
C20	C	-0.918131	-0.184370	0.132138
C21	C	-0.917591	-0.186458	-0.130884
C22	C	-1.064563	-0.187402	-0.132615
C23	C	-1.490899	-0.304639	-0.000037
C24	C	-1.493635	-0.407035	-0.000028
N25	N	-1.499751	-0.136092	-0.360396
C26	C	-1.495856	0.509808	-0.000031
C27	C	-1.498654	0.405485	-0.000041
C28	C	-1.500893	0.322337	-0.000050
C29	C	-1.503692	0.218007	-0.000058
C30	C	-1.395358	-0.210896	-0.580755
C31	C	-1.395583	-0.211176	-0.419587
C32	C	-1.632251	-0.157984	-0.418850
C33	C	-1.631681	-0.158513	-0.580067
C34	C	-1.472968	-0.039152	-0.580316
C35	C	-1.469915	-0.039780	-0.419089
N36	N	-1.499825	-0.136077	0.360289
H37	H	-1.134037	0.002759	-0.094731
Br38	Br	-1.230682	-0.189265	-0.645395
H39	H	-1.711857	-0.106214	-0.619064
H40	H	-1.412748	-0.283086	-0.381001
H41	H	-1.541038	0.018571	-0.378802
Br42	Br	-0.836918	-0.307224	0.142141
Br43	Br	-0.871743	-0.123608	0.296682
H44	H	-1.711847	-0.104977	-0.380505
Br45	Br	-0.897470	0.034223	-0.158465
H46	H	-1.086225	-0.263137	0.136963
Br47	Br	-0.894798	0.033949	0.156383
Br48	Br	-1.672568	-0.274512	-0.351524
Br49	Br	-1.671071	-0.276373	-0.642716
H50	H	-1.378444	-0.018317	-0.621050
H51	H	-0.869608	-0.260489	-0.131769
Br52	Br	-1.136219	-0.130761	0.295869
Br53	Br	-1.161259	0.028804	0.158291
Br54	Br	-1.133252	-0.127242	-0.295475
H55	H	-0.886371	-0.153290	-0.230998
Br56	Br	-1.103657	-0.311955	-0.145896
Br57	Br	-1.231414	-0.189286	-0.353713
H58	H	-1.549149	0.016536	-0.618440
H59	H	-1.412295	-0.282399	-0.621247
Br60	Br	-1.307458	-0.012119	-0.355421
