data_functionalizedCrystal
_audit_creation_method	'MofGen! by Chris Wilmer'
_symmetry_space_group_name_H-M	'P1'
_symmetry_Int_Tables_number	1
_symmetry_cell_setting	triclinic
loop_
_symmetry_equiv_pos_as_xyz
  x,y,z
_cell_length_a	16.959455
_cell_length_b	13.897441
_cell_length_c	16.959454
_cell_angle_alpha	90.027967
_cell_angle_beta	89.982978
_cell_angle_gamma	89.979236
loop_
_atom_site_label
_atom_site_type_symbol
_atom_site_fract_x
_atom_site_fract_y
_atom_site_fract_z
Zn1	Zn	1.208434	-0.545400	0.314721
Zn2	Zn	1.708434	-0.045400	0.814721
Zn3	Zn	1.208342	-0.384108	0.446916
Zn4	Zn	1.708342	0.115892	0.946916
Zn5	Zn	1.076248	-0.384118	0.314748
Zn6	Zn	1.576248	0.115882	0.814748
Zn7	Zn	1.076227	-0.545361	0.446854
Zn8	Zn	1.576227	-0.045361	0.946854
O9	O	1.142313	-0.464747	0.380810
O10	O	1.642313	0.035253	0.880810
O11	O	1.319033	-0.524016	0.332271
O12	O	1.819033	-0.024016	0.832271
O13	O	1.190789	-0.249128	0.429421
O14	O	1.690789	0.250872	0.929421
O15	O	1.093830	-0.405532	0.204134
O16	O	1.593830	0.094468	0.704134
O17	O	1.318965	-0.405516	0.429394
O18	O	1.818965	0.094484	0.929394
O19	O	1.190946	-0.524025	0.204113
O20	O	1.690946	-0.024025	0.704113
O21	O	1.093740	-0.249135	0.332318
O22	O	1.593740	0.250865	0.832318
O23	O	0.965634	-0.405495	0.332258
O24	O	1.465634	0.094505	0.832258
O25	O	1.093795	-0.680348	0.429289
O26	O	1.593795	-0.180348	0.929289
O27	O	0.965619	-0.523959	0.429316
O28	O	1.465619	-0.023959	0.929316
O29	O	1.190927	-0.680376	0.332211
O30	O	1.690927	-0.180376	0.832211
O31	O	1.190769	-0.405479	0.557519
O32	O	1.690769	0.094521	1.057519
O33	O	1.093705	-0.523950	0.557473
O34	O	1.593705	-0.023950	1.057473
C35	C	0.936946	-0.464725	0.380784
C36	C	1.436946	0.035275	0.880784
C37	C	0.849090	-0.464738	0.380792
C38	C	1.349090	0.035262	0.880792
C39	C	0.477598	-0.403191	0.330231
C40	C	0.977598	0.096809	0.830231
C41	C	0.477631	-0.526357	0.431454
C42	C	0.977631	-0.026357	0.931454
C43	C	0.560177	-0.526352	0.431443
C44	C	1.060177	-0.026352	0.931443
C45	C	0.601437	-0.464763	0.380825
C46	C	1.101437	0.035237	0.880825
C47	C	0.560151	-0.403181	0.330219
C48	C	1.060151	0.096819	0.830219
C49	C	0.601468	-0.587926	0.482054
C50	C	1.101468	-0.087926	0.982054
C51	C	0.684019	-0.587922	0.482045
C52	C	1.184019	-0.087922	0.982045
C53	C	0.725281	-0.526338	0.431423
C54	C	1.225281	-0.026338	0.931423
C55	C	0.683990	-0.464754	0.380814
C56	C	1.183990	0.035246	0.880814
C57	C	0.725251	-0.403165	0.330197
C58	C	1.225251	0.096835	0.830197
C59	C	0.683961	-0.341586	0.279583
C60	C	1.183961	0.158414	0.779583
C61	C	0.601413	-0.341597	0.279597
C62	C	1.101413	0.158403	0.779597
C63	C	0.807830	-0.526326	0.431409
C64	C	1.307830	-0.026326	0.931409
C65	C	0.807804	-0.403156	0.330186
C66	C	1.307804	0.096844	0.830186
C67	C	1.142369	-0.716340	0.380740
C68	C	1.642369	-0.216340	0.880740
C69	C	1.142393	-0.823554	0.380710
C70	C	1.642393	-0.323554	0.880710
C71	C	1.142414	-1.019849	0.380657
C72	C	1.642414	-0.519849	0.880657
C73	C	1.142400	-0.910616	0.380689
C74	C	1.642400	-0.410616	0.880689
C75	C	1.348481	-0.464769	0.380837
C76	C	1.848481	0.035231	0.880837
C77	C	1.436337	-0.464779	0.380848
C78	C	1.936337	0.035221	0.880848
C79	C	1.142246	-0.464730	0.586176
C80	C	1.642246	0.035270	1.086176
C81	C	1.142290	-0.464755	0.674033
C82	C	1.642290	0.035245	1.174033
C83	C	1.142302	-0.214132	0.380822
C84	C	1.642302	0.285868	0.880822
C85	C	1.142431	-0.106919	0.380629
C86	C	1.642431	0.393081	0.880629
C87	C	1.142401	-0.464784	0.174642
C88	C	1.642401	0.035216	0.674642
C89	C	1.142438	-0.464800	0.086785
C90	C	1.642438	0.035200	0.586785
C91	C	1.091845	-0.526428	1.045514
C92	C	1.591845	-0.026428	1.545514
C93	C	1.193001	-0.403163	1.045502
C94	C	1.693001	0.096837	1.545502
C95	C	1.192973	-0.403154	0.962956
C96	C	1.692973	0.096846	1.462956
C97	C	1.142380	-0.464782	0.921686
C98	C	1.642380	0.035218	1.421686
C99	C	1.091814	-0.526419	0.962961
C100	C	1.591814	-0.026419	1.462961
C101	C	1.243532	-0.341512	0.921674
C102	C	1.743532	0.158488	1.421674
C103	C	1.243506	-0.341500	0.839124
C104	C	1.743506	0.158500	1.339124
C105	C	1.192916	-0.403133	0.797852
C106	C	1.692916	0.096867	1.297852
C107	C	1.142349	-0.464773	0.839132
C108	C	1.642349	0.035227	1.339132
C109	C	1.091755	-0.526401	0.797862
C110	C	1.591755	-0.026401	1.297862
C111	C	1.041192	-0.588047	0.839141
C112	C	1.541192	-0.088047	1.339141
C113	C	1.041224	-0.588053	0.921689
C114	C	1.541224	-0.088053	1.421689
C115	C	1.192884	-0.403128	0.715303
C116	C	1.692884	0.096872	1.215303
C117	C	1.091725	-0.526392	0.715308
C118	C	1.591725	-0.026392	1.215308
H119	H	0.567788	-0.291461	0.238392
H120	H	1.067788	0.208539	0.738392
O121	O	1.037309	-0.592906	1.090038
O122	O	1.537309	-0.092906	1.590038
H123	H	1.050828	-0.668625	1.074154
H124	H	1.550828	-0.168625	1.574154
H125	H	1.050528	-0.576581	0.681711
H126	H	1.550528	-0.076581	1.181711
O127	O	0.433128	-0.592761	0.486060
O128	O	0.933128	-0.092761	0.986060
H129	H	0.475707	-0.635570	0.521256
H130	H	0.975707	-0.135570	1.021256
O131	O	0.728547	-0.654352	0.536622
O132	O	1.228547	-0.154352	1.036622
H133	H	0.766135	-0.611101	0.576795
H134	H	1.266135	-0.111101	1.076795
O135	O	0.986624	-0.654518	0.794626
O136	O	1.486624	-0.154518	1.294626
H137	H	0.995103	-0.644152	0.730291
H138	H	1.495103	-0.144152	1.230291
O139	O	0.728475	-0.275158	0.224997
O140	O	1.228475	0.224842	0.724997
H141	H	0.712605	-0.199427	0.238485
H142	H	1.212605	0.300573	0.738485
O143	O	0.852307	-0.336716	0.275600
O144	O	1.352307	0.163284	0.775600
H145	H	0.809726	-0.293893	0.240418
H146	H	1.309726	0.206107	0.740418
H147	H	0.443976	-0.353057	0.289020
H148	H	0.943976	0.146943	0.789020
O149	O	0.986675	-0.654519	0.966208
O150	O	1.486675	-0.154519	1.466208
H151	H	0.995186	-0.644157	1.030542
H152	H	1.495186	-0.144157	1.530542
O153	O	1.247590	-0.336721	1.090009
O154	O	1.747590	0.163279	1.590009
H155	H	1.239126	-0.347095	1.154345
H156	H	1.739126	0.152905	1.654345
H157	H	0.567868	-0.638061	0.523269
H158	H	1.067868	-0.138061	1.023269
O159	O	1.298127	-0.275078	0.966183
O160	O	1.798127	0.224922	1.466183
H161	H	1.289670	-0.285464	1.030519
H162	H	1.789670	0.214536	1.530519
O163	O	0.852359	-0.592759	0.485976
O164	O	1.352359	-0.092759	0.985976
H165	H	0.916693	-0.582413	0.477461
H166	H	1.416693	-0.082413	0.977461
O167	O	1.298048	-0.275027	0.794602
O168	O	1.798048	0.224973	1.294602
H169	H	1.333238	-0.232182	0.837169
H170	H	1.833238	0.267818	1.337169
O171	O	1.247415	-0.336651	0.670778
O172	O	1.747415	0.163349	1.170778
H173	H	1.282602	-0.293801	0.713344
H174	H	1.782602	0.206199	1.213344
