data_functionalizedCrystal
_audit_creation_method	'MofGen! by Chris Wilmer'
_symmetry_space_group_name_H-M	'P1'
_symmetry_Int_Tables_number	1
_symmetry_cell_setting	triclinic
loop_
_symmetry_equiv_pos_as_xyz
  x,y,z
_cell_length_a	17.639617
_cell_length_b	12.594516
_cell_length_c	17.640968
_cell_angle_alpha	101.230308
_cell_angle_beta	109.666032
_cell_angle_gamma	101.197819
loop_
_atom_site_label
_atom_site_type_symbol
_atom_site_fract_x
_atom_site_fract_y
_atom_site_fract_z
Zn1	Zn	1.354366	0.140778	0.721237
Zn2	Zn	1.326429	-0.082343	0.583405
Zn3	Zn	1.188668	0.050580	0.555513
Zn4	Zn	1.216518	-0.082239	0.693288
O5	O	1.271495	0.006694	0.638361
O6	O	1.466003	0.148886	0.726324
O7	O	1.284808	-0.102502	0.464362
O8	O	1.210684	0.211507	0.577520
O9	O	1.445478	-0.015040	0.625059
O10	O	1.332422	0.277775	0.699278
O11	O	1.183595	-0.004844	0.443870
O12	O	1.077019	-0.004744	0.550419
O13	O	1.258151	-0.014864	0.812338
O14	O	1.097481	-0.102325	0.651641
O15	O	1.359427	0.148986	0.832872
O16	O	1.311813	-0.231291	0.597957
O17	O	1.231062	-0.231215	0.678687
C18	C	1.057343	-0.063312	0.594971
C19	C	0.965732	-0.093280	0.576428
C20	C	0.717912	0.234447	0.779432
C21	C	0.631826	0.206255	0.761992
C22	C	0.610444	0.035735	0.656393
C23	C	0.696531	0.063910	0.673827
C24	C	0.750258	0.163268	0.735347
C25	C	0.728877	-0.007269	0.629742
C26	C	0.814956	0.020906	0.647173
C27	C	0.868688	0.120261	0.708688
C28	C	0.836337	0.191443	0.752777
C29	C	0.675148	-0.106623	0.568218
C30	C	0.707494	-0.177802	0.524133
C31	C	0.793575	-0.149631	0.541568
C32	C	0.847307	-0.050276	0.603083
C33	C	0.825926	-0.220813	0.497478
C34	C	0.912004	-0.192638	0.514908
C35	C	0.933386	-0.022100	0.620513
C36	C	1.271454	-0.269864	0.638339
C37	C	1.271518	-0.388143	0.638372
C38	C	1.315514	-0.457359	0.594534
C39	C	1.350865	-0.496859	0.673841
C40	C	1.236280	-0.559393	0.559134
C41	C	1.306915	-0.426060	0.717726
C42	C	1.192285	-0.488615	0.602961
C43	C	1.227617	-0.528075	0.682314
C44	C	1.486484	0.076972	0.681920
C45	C	1.578099	0.106921	0.700483
C46	C	1.315012	0.077134	0.853348
C47	C	1.333556	0.107152	0.944963
C48	C	1.271563	0.284345	0.638405
C49	C	1.271591	0.402664	0.638424
C50	C	1.228195	-0.063380	0.424219
C51	C	1.209811	-0.093045	0.332637
C52	C	1.130933	-0.220663	1.192824
C53	C	1.148375	-0.192438	1.278913
C54	C	1.253825	-0.021835	1.300284
C55	C	1.236388	-0.050043	1.214194
C56	C	1.174942	-0.149459	1.160470
C57	C	1.280398	0.021160	1.181840
C58	C	1.262965	-0.007049	1.095758
C59	C	1.201524	-0.106462	1.042029
C60	C	1.157510	-0.177669	1.074388
C61	C	1.341848	0.120571	1.235566
C62	C	1.385857	0.191775	1.203212
C63	C	1.368421	0.163570	1.117128
C64	C	1.306979	0.064157	1.063399
C65	C	1.412435	0.234777	1.084769
C66	C	1.395003	0.206568	0.998687
C67	C	1.289547	0.035948	0.977317
H68	H	0.977135	0.058804	0.670612
F69	F	1.104675	-0.482511	0.563757
H70	H	0.782168	-0.301704	0.447383
H71	H	1.435889	0.272717	1.246966
F72	F	0.650305	-0.283540	0.458659
F73	F	1.360402	0.150590	1.327184
H74	H	0.938341	-0.250599	0.479010
H75	H	1.336696	-0.368668	0.784801
H76	H	1.206447	-0.616918	0.492101
F77	F	1.477836	0.340571	1.141957
F78	F	1.364163	-0.416720	0.546134
H79	H	1.239492	-0.044987	0.933568
F80	F	1.179041	-0.568398	0.730867
H81	H	0.566688	-0.045159	0.606301
F82	F	0.960300	0.150254	0.727233
F83	F	1.438494	-0.502915	0.713036
F84	F	1.182974	-0.136489	0.950413
H85	H	1.107454	-0.258604	1.030638
F86	F	0.583533	-0.136603	0.549664
H87	H	1.080877	-0.301598	1.149074
H88	H	1.112533	-0.250428	1.305251
F89	F	1.441844	0.282348	0.964252
F90	F	0.893524	0.297186	0.818261
F91	F	0.775099	0.340190	0.844915
F92	F	0.597404	0.282026	0.808915
F93	F	1.319221	0.083964	1.357469
