data_functionalizedCrystal
_audit_creation_method	'MofGen! by Chris Wilmer'
_symmetry_space_group_name_H-M	'P1'
_symmetry_Int_Tables_number	1
_symmetry_cell_setting	triclinic
loop_
_symmetry_equiv_pos_as_xyz
  x,y,z
_cell_length_a	6.817900
_cell_length_b	9.109307
_cell_length_c	12.908943
_cell_angle_alpha	100.614799
_cell_angle_beta	100.860631
_cell_angle_gamma	111.764999
loop_
_atom_site_label
_atom_site_type_symbol
_atom_site_fract_x
_atom_site_fract_y
_atom_site_fract_z
V1	V	-4.049339	-0.223199	-0.348877
O2	O	-3.981259	0.012817	-0.321266
O3	O	-4.053755	-0.444578	-0.366659
O4	O	-3.986580	-0.218849	-0.491833
O5	O	-4.048899	-0.214475	-0.195225
V6	V	-4.527983	-0.195078	-0.328049
O7	O	-4.321298	-0.284887	-0.394564
O8	O	-4.706221	-0.133390	-0.282361
O9	O	-4.300360	0.026301	-0.310267
O10	O	-4.713460	-0.431094	-0.355660
O11	O	-4.645820	-0.203802	-0.481700
O12	O	-4.367535	-0.199428	-0.185093
C13	C	-3.912069	-0.498574	-0.366359
C14	C	-3.996871	-0.679548	-0.381851
C15	C	-3.826379	-0.210632	-0.526029
C16	C	-3.856700	-0.208539	-0.643029
C17	C	-4.280781	-0.220762	-0.875081
C18	C	-4.309280	-0.218797	-0.985013
C19	C	-3.942194	-0.202632	-0.972825
C20	C	-3.913695	-0.204597	-0.862893
C21	C	-4.082998	-0.213665	-0.814026
C22	C	-4.054502	-0.215642	-0.704094
C23	C	-3.687412	-0.199465	-0.691905
C24	C	-3.715911	-0.197500	-0.801837
C25	C	-4.105391	0.080288	-0.310564
C26	C	-3.999827	0.261261	-0.295079
C27	C	-4.191080	-0.207651	-0.150891
C28	C	-4.139996	-0.209735	-0.033890
H29	H	-4.059192	-0.767335	-0.468020
O30	O	-3.925675	-0.634266	-0.192211
C31	C	-3.861094	-0.606980	0.001874
C32	C	-3.945183	-0.725494	-0.114565
H33	H	-3.876792	-0.680688	0.064684
H34	H	-3.962998	-0.532649	0.009016
H35	H	-3.681071	-0.519840	0.018126
H36	H	-4.125178	-0.812734	-0.130895
H37	H	-3.843120	-0.799707	-0.121649
O38	O	-4.219031	-0.224737	-0.656627
C39	C	-4.470408	-0.377877	-0.566650
C40	C	-4.284124	-0.367806	-0.620396
H41	H	-4.523060	-0.493521	-0.537321
H42	H	-4.616783	-0.382716	-0.629151
H43	H	-4.409173	-0.264764	-0.493613
H44	H	-4.345152	-0.480890	-0.693423
H45	H	-4.137788	-0.362886	-0.557825
O46	O	-3.495110	-0.192381	-0.632637
C47	C	-3.102067	-0.037620	-0.561309
C48	C	-3.319639	-0.045416	-0.628489
H49	H	-2.960148	0.081207	-0.557914
H50	H	-3.074039	-0.147565	-0.601822
H51	H	-3.110976	-0.040690	-0.474382
H52	H	-3.310888	-0.042296	-0.715425
H53	H	-3.347588	0.064520	-0.587888
H54	H	-4.418644	-0.228163	-0.835296
O55	O	-4.501597	-0.225999	-1.044339
C56	C	-4.894666	-0.380783	-1.115462
C57	C	-4.677013	-0.372851	-1.048272
H58	H	-5.036552	-0.499486	-1.118644
H59	H	-4.886131	-0.377935	-1.202465
H60	H	-4.922454	-0.270719	-1.074949
H61	H	-4.649091	-0.482892	-1.088690
H62	H	-4.685652	-0.375619	-0.961272
H63	H	-3.578074	-0.190112	-0.841639
O64	O	-3.777804	-0.193600	-1.020386
C65	C	-3.526295	-0.040328	-1.110254
C66	C	-3.712484	-0.050376	-1.056441
H67	H	-3.473395	0.075477	-1.139399
H68	H	-3.587442	-0.153299	-1.183387
H69	H	-3.380089	-0.035674	-1.047737
H70	H	-3.858756	-0.054978	-1.118875
H71	H	-3.651161	0.062593	-0.983288
