data_functionalizedCrystal
_audit_creation_method	'MofGen! by Chris Wilmer'
_symmetry_space_group_name_H-M	'P1'
_symmetry_Int_Tables_number	1
_symmetry_cell_setting	triclinic
loop_
_symmetry_equiv_pos_as_xyz
  x,y,z
_cell_length_a	12.759401
_cell_length_b	16.120484
_cell_length_c	12.759393
_cell_angle_alpha	87.135992
_cell_angle_beta	90.020938
_cell_angle_gamma	92.926992
loop_
_atom_site_label
_atom_site_type_symbol
_atom_site_fract_x
_atom_site_fract_y
_atom_site_fract_z
Zn1	Zn	1.584985	-0.331832	0.615183
Zn2	Zn	2.084985	0.168168	1.115183
Zn3	Zn	1.575933	-0.471268	0.448395
Zn4	Zn	2.075933	0.028732	0.948395
Zn5	Zn	1.409280	-0.331877	0.439521
Zn6	Zn	1.909280	0.168123	0.939521
Zn7	Zn	1.400336	-0.471209	0.624029
Zn8	Zn	1.900336	0.028791	1.124029
O9	O	1.492634	-0.401546	0.531782
O10	O	1.992634	0.098454	1.031782
O11	O	1.730804	-0.350334	0.593070
O12	O	2.230804	0.149666	1.093070
O13	O	1.553781	-0.452820	0.300200
O14	O	2.053781	0.047180	0.800200
O15	O	1.440119	-0.215205	0.455406
O16	O	1.940119	0.284795	0.955406
O17	O	1.724154	-0.452777	0.470532
O18	O	2.224154	0.047223	0.970532
O19	O	1.569208	-0.215173	0.584465
O20	O	2.069208	0.284827	1.084465
O21	O	1.431342	-0.350410	0.293680
O22	O	1.931342	0.149590	0.793680
O23	O	1.261073	-0.350354	0.463984
O24	O	1.761073	0.149646	0.963984
O25	O	1.424875	-0.452678	0.769874
O26	O	1.924875	0.047322	1.269874
O27	O	1.254502	-0.452721	0.599541
O28	O	1.754502	0.047279	1.099541
O29	O	1.560535	-0.350278	0.763375
O30	O	2.060535	0.149722	1.263375
O31	O	1.545108	-0.587925	0.479110
O32	O	2.045108	-0.087925	0.979110
O33	O	1.416098	-0.587883	0.608147
O34	O	1.916098	-0.087883	1.108147
C35	C	1.219667	-0.401536	0.531760
C36	C	1.719667	0.098464	1.031760
C37	C	1.102889	-0.401552	0.531777
C38	C	1.602889	0.098448	1.031777
C39	C	1.044628	-0.454936	0.602261
C40	C	1.544628	0.045064	1.102261
C41	C	0.934904	-0.454939	0.602282
C42	C	1.434904	0.045061	1.102282
C43	C	0.941712	-0.348172	0.461326
C44	C	1.441712	0.151828	0.961326
C45	C	1.051434	-0.348166	0.461311
C46	C	1.551434	0.151834	0.961311
C47	C	1.478679	-0.618154	0.545574
C48	C	1.978679	-0.118154	1.045574
C49	C	1.472805	-0.710820	0.551509
C50	C	1.972805	-0.210820	1.051509
C51	C	1.462088	-0.880481	0.562368
C52	C	1.962088	-0.380481	1.062368
C53	C	1.523367	-0.921772	0.501213
C54	C	2.023367	-0.421772	1.001213
C55	C	1.517404	-1.016177	0.507255
C56	C	2.017404	-0.516177	1.007255
C57	C	1.468050	-0.786067	0.556327
C58	C	1.968050	-0.286067	1.056327
C59	C	1.766666	-0.401557	0.531804
C60	C	2.266666	0.098443	1.031804
C61	C	1.883442	-0.401562	0.531814
C62	C	2.383442	0.098438	1.031814
C63	C	1.492717	-0.401466	0.805810
C64	C	1.992717	0.098534	1.305810
C65	C	1.492753	-0.401432	0.922585
C66	C	1.992753	0.098568	1.422585
C67	C	1.506671	-0.184093	0.517959
C68	C	2.006671	0.315907	1.017959
C69	C	1.512653	-0.091427	0.512068
C70	C	2.012653	0.408573	1.012068
C71	C	1.492614	-0.401566	0.258816
C72	C	1.992614	0.098434	0.758816
C73	C	1.492797	-0.401365	0.142027
C74	C	1.992797	0.098635	0.642027
C75	C	1.563397	-0.348104	0.974064
C76	C	2.063397	0.151896	1.474064
C77	C	1.563417	-0.348068	1.083786
C78	C	2.063417	0.151932	1.583786
C79	C	1.422146	-0.454696	1.090540
C80	C	1.922146	0.045304	1.590540
C81	C	1.422122	-0.454727	0.980820
C82	C	1.922122	0.045273	1.480820
H83	H	0.887472	-0.498408	0.659679
H84	H	1.387472	0.001592	1.159679
N85	N	0.889133	-0.293647	0.389357
N86	N	1.389133	0.206353	0.889357
N87	N	0.791167	-0.293660	0.389379
N88	N	1.291167	0.206340	0.889379
H89	H	0.754033	-0.255152	0.338548
H90	H	1.254033	0.244848	0.838548
N91	N	1.635581	-0.293608	1.136387
N92	N	2.135581	0.206392	1.636387
N93	N	1.635595	-0.293584	1.234350
N94	N	2.135595	0.206416	1.734350
H95	H	1.686563	-0.255119	1.271502
H96	H	2.186563	0.244881	1.771502
N97	N	1.110939	-0.293621	0.389309
N98	N	1.610939	0.206379	0.889309
N99	N	1.064987	-0.245962	0.326396
N100	N	1.564987	0.254038	0.826396
H101	H	1.107012	-0.207438	0.275549
H102	H	1.607012	0.292562	0.775549
H103	H	1.405150	-0.916029	0.619256
H104	H	1.905150	-0.416029	1.119256
N105	N	1.594793	-0.877194	0.429818
N106	N	2.094793	-0.377194	0.929818
N107	N	1.652402	-0.915962	0.372310
N108	N	2.152402	-0.415962	0.872310
H109	H	1.702842	-0.884477	0.321884
H110	H	2.202842	-0.384477	0.821884
N111	N	1.097172	-0.509473	0.674243
N112	N	1.597172	-0.009473	1.174243
N113	N	1.045135	-0.557133	0.737170
N114	N	1.545135	-0.057133	1.237170
H115	H	1.082240	-0.595651	0.788011
H116	H	1.582240	-0.095651	1.288011
N117	N	1.635548	-0.293662	0.914593
N118	N	2.135548	0.206338	1.414593
N119	N	1.698616	-0.246050	0.960575
N120	N	2.198616	0.253950	1.460575
H121	H	1.749574	-0.207596	0.918577
H122	H	2.249574	0.292404	1.418577
N123	N	1.350008	-0.509126	1.150044
N124	N	1.850008	-0.009126	1.650044
N125	N	1.350038	-0.509092	1.248007
N126	N	1.850038	-0.009092	1.748007
H127	H	1.299090	-0.547535	1.290032
H128	H	1.799090	-0.047535	1.790032
H129	H	1.364587	-0.498152	0.938905
H130	H	1.864587	0.001848	1.438905
