data_functionalizedCrystal
_audit_creation_method	'MofGen! by Chris Wilmer'
_symmetry_space_group_name_H-M	'P1'
_symmetry_Int_Tables_number	1
_symmetry_cell_setting	triclinic
loop_
_symmetry_equiv_pos_as_xyz
  x,y,z
_cell_length_a	14.044191
_cell_length_b	14.044190
_cell_length_c	11.804366
_cell_angle_alpha	102.922536
_cell_angle_beta	77.036070
_cell_angle_gamma	93.191777
loop_
_atom_site_label
_atom_site_type_symbol
_atom_site_fract_x
_atom_site_fract_y
_atom_site_fract_z
O1	O	1.259489	0.247811	0.098999
O2	O	0.982814	0.239501	0.099013
O3	O	1.116999	0.105316	0.098983
O4	O	1.125303	0.381997	0.099029
O5	O	1.152377	0.070077	-0.099081
O6	O	1.018191	0.204263	-0.099051
O7	O	1.294867	0.212573	-0.099065
Cu8	Cu	1.159759	0.205200	-0.117143
Cu9	Cu	1.117921	0.246874	0.117091
O10	O	1.160681	0.346758	-0.099035
C11	C	0.964880	0.218246	-0.000017
C12	C	0.858736	0.207399	-0.000013
C13	C	1.131052	0.052074	-0.000052
C14	C	1.120206	-0.054071	-0.000062
C15	C	0.613279	0.264499	-0.000015
C16	C	0.664405	0.187581	-0.000026
C17	C	0.772541	0.198610	-0.000019
C18	C	0.505134	0.253471	-0.000023
C19	C	1.177299	-0.299521	-0.000018
C20	C	1.100383	-0.248398	-0.000023
C21	C	1.111416	-0.140265	-0.000045
C22	C	1.166268	-0.407664	0.000003
C23	C	1.312800	0.233829	-0.000032
C24	C	1.418942	0.244677	-0.000028
C25	C	1.146628	0.400001	0.000003
C26	C	1.157472	0.506147	0.000021
N27	N	1.088494	0.276178	0.281838
N28	N	1.189193	0.175889	-0.281890
C29	C	1.259884	0.105530	0.655748
C30	C	1.282154	0.083368	0.531082
C31	C	1.233741	0.131569	0.468765
C32	C	1.163054	0.201935	0.531127
C33	C	1.140776	0.224093	0.655805
C34	C	1.114633	0.250132	0.468822
C35	C	1.043946	0.320498	0.531184
C36	C	1.021672	0.342654	0.655850
C37	C	1.070085	0.294453	0.718167
C38	C	1.136911	0.227974	0.344143
C39	C	1.017803	0.346537	0.344200
C40	C	0.995533	0.368699	0.468867
H41	H	0.626947	0.113461	0.000045
C42	C	1.064893	0.417842	0.896786
C43	C	1.045619	0.318817	0.855208
H44	H	1.049800	0.432880	0.981390
H45	H	1.025931	0.456607	0.868617
H46	H	1.132026	0.431192	0.868563
H47	H	0.978484	0.305469	0.883424
H48	H	1.084581	0.280041	0.883389
C49	C	1.413688	0.070681	0.694008
C50	C	1.313141	0.052543	0.724189
H51	H	1.446582	0.037957	0.736240
H52	H	1.425646	0.138934	0.714495
H53	H	1.437028	0.047435	0.610822
H54	H	1.289799	0.075795	0.807375
H55	H	1.301176	-0.015726	0.703711
H56	H	0.650720	0.338629	0.000001
H57	H	1.026249	-0.285841	-0.000012
H58	H	1.251429	-0.262080	-0.000035
C59	C	0.906180	0.457629	0.643382
C60	C	0.943968	0.419996	0.724401
H61	H	0.858213	0.505380	0.685703
H62	H	0.877247	0.406254	0.594738
H63	H	0.957453	0.486789	0.594771
H64	H	0.892695	0.390829	0.773006
H65	H	0.972900	0.471380	0.773065
C66	C	0.864026	0.381404	0.305827
C67	C	0.964581	0.399525	0.275713
H68	H	0.831174	0.414108	0.263533
H69	H	0.840649	0.404673	0.388991
H70	H	0.852063	0.313141	0.285360
H71	H	0.976545	0.467789	0.296188
H72	H	0.987967	0.376261	0.192530
C73	C	1.186170	0.060733	0.305700
C74	C	1.214609	0.150633	0.275603
H75	H	1.234145	0.012987	0.263391
H76	H	1.125262	0.041195	0.285252
H77	H	1.179832	0.067046	0.388871
H78	H	1.220940	0.144322	0.192434
H79	H	1.275535	0.170175	0.296043
C80	C	1.331433	-0.083869	0.492640
C81	C	1.359861	0.006035	0.462545
H82	H	1.379416	-0.131608	0.450334
H83	H	1.270529	-0.103416	0.472187
H84	H	1.325092	-0.077554	0.575811
H85	H	1.366195	-0.000277	0.379375
H86	H	1.420782	0.025586	0.482991
H87	H	1.251877	0.113521	0.367255
H88	H	0.937977	0.425993	0.519657
