data_functionalizedCrystal
_audit_creation_method	'MofGen! by Chris Wilmer'
_symmetry_space_group_name_H-M	'P1'
_symmetry_Int_Tables_number	1
_symmetry_cell_setting	triclinic
loop_
_symmetry_equiv_pos_as_xyz
  x,y,z
_cell_length_a	12.827893
_cell_length_b	18.050589
_cell_length_c	12.827893
_cell_angle_alpha	89.993168
_cell_angle_beta	90.003786
_cell_angle_gamma	89.965332
loop_
_atom_site_label
_atom_site_type_symbol
_atom_site_fract_x
_atom_site_fract_y
_atom_site_fract_z
Zn1	Zn	1.597370	0.295789	0.590851
Zn2	Zn	1.847370	0.545789	0.840851
Zn3	Zn	2.097370	0.795789	1.090851
Zn4	Zn	2.347370	1.045789	1.340851
Zn5	Zn	1.597252	0.419948	0.416113
Zn6	Zn	1.847252	0.669948	0.666113
Zn7	Zn	2.097252	0.919948	0.916113
Zn8	Zn	2.347252	1.169948	1.166113
Zn9	Zn	1.422658	0.295777	0.416125
Zn10	Zn	1.672658	0.545777	0.666125
Zn11	Zn	1.922658	0.795777	0.916125
Zn12	Zn	2.172658	1.045777	1.166125
Zn13	Zn	1.422537	0.419942	0.590813
Zn14	Zn	1.672537	0.669942	0.840813
Zn15	Zn	1.922537	0.919942	1.090813
Zn16	Zn	2.172537	1.169942	1.340813
O17	O	1.509954	0.357864	0.503476
O18	O	1.759954	0.607864	0.753476
O19	O	2.009954	0.857864	1.003476
O20	O	2.259954	1.107864	1.253476
O21	O	1.743590	0.312267	0.567683
O22	O	1.993590	0.562267	0.817683
O23	O	2.243590	0.812267	1.067683
O24	O	2.493590	1.062267	1.317683
O25	O	1.574093	0.403474	0.269879
O26	O	1.824093	0.653474	0.519879
O27	O	2.074093	0.903474	0.769879
O28	O	2.324093	1.153474	1.019879
O29	O	1.445934	0.191854	0.439324
O30	O	1.695934	0.441854	0.689324
O31	O	1.945934	0.691854	0.939324
O32	O	2.195934	0.941854	1.189324
O33	O	1.743504	0.403486	0.439304
O34	O	1.993504	0.653486	0.689304
O35	O	2.243504	0.903486	0.939304
O36	O	2.493504	1.153486	1.189304
O37	O	1.574294	0.191863	0.567695
O38	O	1.824294	0.441863	0.817695
O39	O	2.074294	0.691863	1.067695
O40	O	2.324294	0.941863	1.317695
O41	O	1.445820	0.312246	0.269887
O42	O	1.695820	0.562246	0.519887
O43	O	1.945820	0.812246	0.769887
O44	O	2.195820	1.062246	1.019887
O45	O	1.276406	0.312239	0.439287
O46	O	1.526406	0.562239	0.689287
O47	O	1.776406	0.812239	0.939287
O48	O	2.026406	1.062239	1.189287
O49	O	1.445728	0.403475	0.737054
O50	O	1.695728	0.653475	0.987054
O51	O	1.945728	0.903475	1.237054
O52	O	2.195728	1.153475	1.487054
O53	O	1.276317	0.403463	0.567629
O54	O	1.526317	0.653463	0.817629
O55	O	1.776317	0.903463	1.067629
O56	O	2.026317	1.153463	1.317629
O57	O	1.574176	0.312261	0.737082
O58	O	1.824176	0.562261	0.987082
O59	O	2.074176	0.812261	1.237082
O60	O	2.324176	1.062261	1.487082
O61	O	1.573976	0.523872	0.439266
O62	O	1.823976	0.773872	0.689266
O63	O	2.073976	1.023872	0.939266
O64	O	2.323976	1.273872	1.189266
O65	O	1.445614	0.523867	0.567617
O66	O	1.695614	0.773867	0.817617
O67	O	1.945614	1.023867	1.067617
O68	O	2.195614	1.273867	1.317617
C69	C	1.238444	0.357850	0.503456
C70	C	1.488444	0.607850	0.753456
C71	C	1.738444	0.857850	1.003456
C72	C	1.988444	1.107850	1.253456
C73	C	1.122291	0.357861	0.503472
C74	C	1.372291	0.607861	0.753472
C75	C	1.622291	0.857861	1.003472
C76	C	1.872291	1.107861	1.253472
C77	C	1.509797	0.550816	0.503459
C78	C	1.759797	0.800816	0.753459
C79	C	2.009797	1.050816	1.003459
C80	C	2.259797	1.300816	1.253459
C81	C	1.509826	0.633362	0.503487
C82	C	1.759826	0.883362	0.753487
C83	C	2.009826	1.133362	1.003487
C84	C	2.259826	1.383362	1.253487
C85	C	1.070490	0.403072	0.566882
C86	C	1.320490	0.653072	0.816882
C87	C	1.570490	0.903072	1.066882
C88	C	1.820490	1.153072	1.316882
C89	C	0.950440	0.403085	0.566900
C90	C	1.200440	0.653085	0.816900
C91	C	1.450440	0.903085	1.066900
C92	C	1.700440	1.153085	1.316900
C93	C	1.440060	0.832837	0.573261
C94	C	1.690060	1.082837	0.823261
C95	C	1.940060	1.332837	1.073261
C96	C	2.190060	1.582837	1.323261
C97	C	1.414601	0.882258	0.477904
C98	C	1.664601	1.132258	0.727904
C99	C	1.914601	1.382258	0.977904
C100	C	2.164601	1.632258	1.227904
C101	C	1.509905	0.784492	0.503501
C102	C	1.759905	1.034492	0.753501
C103	C	2.009905	1.284492	1.003501
C104	C	2.259905	1.534492	1.253501
C105	C	1.535391	0.882153	0.598870
C106	C	1.785391	1.132153	0.848870
C107	C	2.035391	1.382153	1.098870
C108	C	2.285391	1.632153	1.348870
C109	C	1.509979	0.930477	0.503524
C110	C	1.759979	1.180477	0.753524
C111	C	2.009979	1.430477	1.003524
C112	C	2.259979	1.680477	1.253524
C113	C	1.484396	0.832826	0.408094
C114	C	1.734396	1.082826	0.658094
C115	C	1.984396	1.332826	0.908094
C116	C	2.234396	1.582826	1.158094
C117	C	1.605231	0.832717	0.529124
C118	C	1.855231	1.082717	0.779124
C119	C	2.105231	1.332717	1.029124
C120	C	2.355231	1.582717	1.279124
C121	C	1.579808	0.882115	0.433702
C122	C	1.829808	1.132115	0.683702
C123	C	2.079808	1.382115	0.933702
C124	C	2.329808	1.632115	1.183702
C125	C	1.509859	0.700394	0.503490
C126	C	1.759859	0.950394	0.753490
C127	C	2.009859	1.200394	1.003490
C128	C	2.259859	1.450394	1.253490
C129	C	1.510024	1.014574	0.503524
C130	C	1.760024	1.264574	0.753524
C131	C	2.010024	1.514574	1.003524
C132	C	2.260024	1.764574	1.253524
C133	C	1.782524	0.357879	0.503496
C134	C	2.032524	0.607879	0.753496
C135	C	2.282524	0.857879	1.003496
C136	C	2.532524	1.107879	1.253496
C137	C	1.898678	0.357885	0.503505
C138	C	2.148678	0.607885	0.753505
C139	C	2.398678	0.857885	1.003505
C140	C	2.648678	1.107885	1.253505
C141	C	1.509952	0.357869	0.776046
C142	C	1.759952	0.607869	1.026046
C143	C	2.009952	0.857869	1.276046
C144	C	2.259952	1.107869	1.526046
C145	C	1.509951	0.357871	0.892199
C146	C	1.759951	0.607871	1.142199
C147	C	2.009951	0.857871	1.392199
C148	C	2.259951	1.107871	1.642199
C149	C	1.510100	1.164158	0.503516
C150	C	1.760100	1.414158	0.753516
C151	C	2.010100	1.664158	1.003516
C152	C	2.260100	1.914158	1.253516
C153	C	1.510060	1.081613	0.503537
C154	C	1.760060	1.331613	0.753537
C155	C	2.010060	1.581613	1.003537
C156	C	2.260060	1.831613	1.253537
C157	C	1.573504	0.312741	0.943997
C158	C	1.823504	0.562741	1.193997
C159	C	2.073504	0.812741	1.443997
C160	C	2.323504	1.062741	1.693997
C161	C	1.573504	0.312742	1.064048
C162	C	1.823504	0.562742	1.314048
C163	C	2.073504	0.812742	1.564048
C164	C	2.323504	1.062742	1.814048
C165	C	1.509949	0.357876	1.231966
C166	C	1.759949	0.607876	1.481966
C167	C	2.009949	0.857876	1.731966
C168	C	2.259949	1.107876	1.981966
C169	C	1.509950	0.357874	1.115813
C170	C	1.759950	0.607874	1.365813
C171	C	2.009950	0.857874	1.615813
C172	C	2.259950	1.107874	1.865813
H173	H	1.115018	0.441766	0.621160
H174	H	1.365018	0.691766	0.871160
H175	H	1.615018	0.941766	1.121160
H176	H	1.865018	1.191766	1.371160
Cl177	Cl	1.425943	0.417537	1.047050
Cl178	Cl	1.675943	0.667537	1.297050
Cl179	Cl	1.925943	0.917537	1.547050
Cl180	Cl	2.175943	1.167537	1.797050
Cl181	Cl	1.729611	0.799094	0.562623
Cl182	Cl	1.979611	1.049094	0.812623
Cl183	Cl	2.229611	1.299094	1.062623
Cl184	Cl	2.479611	1.549094	1.312623
Cl185	Cl	0.881668	0.462853	0.650715
Cl186	Cl	1.131668	0.712853	0.900715
Cl187	Cl	1.381668	0.962853	1.150715
Cl188	Cl	1.631668	1.212853	1.400715
H189	H	0.943218	0.319179	0.449211
H190	H	1.193218	0.569179	0.699211
H191	H	1.443218	0.819179	0.949211
H192	H	1.693218	1.069179	1.199211
H193	H	1.627918	0.274107	1.108593
H194	H	1.877918	0.524107	1.358593
H195	H	2.127918	0.774107	1.608593
H196	H	2.377918	1.024107	1.858593
H197	H	1.077763	0.319162	0.449202
H198	H	1.327763	0.569162	0.699202
H199	H	1.577763	0.819162	0.949202
H200	H	1.827763	1.069162	1.199202
H201	H	1.638906	0.903617	0.374650
H202	H	1.888906	1.153617	0.624650
H203	H	2.138906	1.403617	0.874650
H204	H	2.388906	1.653617	1.124650
H205	H	1.380917	0.811198	0.632171
H206	H	1.630917	1.061198	0.882171
H207	H	1.880917	1.311198	1.132171
H208	H	2.130917	1.561198	1.382171
H209	H	1.334022	0.904035	0.456253
H210	H	1.584022	1.154035	0.706253
H211	H	1.834022	1.404035	0.956253
H212	H	2.084022	1.654035	1.206253
H213	H	1.462775	0.811248	0.327429
H214	H	1.712775	1.061248	0.577429
H215	H	1.962775	1.311248	0.827429
H216	H	2.212775	1.561248	1.077429
H217	H	1.556919	0.903820	0.679513
H218	H	1.806919	1.153820	0.929513
H219	H	2.056919	1.403820	1.179513
H220	H	2.306919	1.653820	1.429513
Cl221	Cl	1.425935	0.417525	0.960941
Cl222	Cl	1.675935	0.667525	1.210941
Cl223	Cl	1.925935	0.917525	1.460941
Cl224	Cl	2.175935	1.167525	1.710941
H225	H	1.627910	0.274100	0.899467
H226	H	1.877910	0.524100	1.149467
H227	H	2.127910	0.774100	1.399467
H228	H	2.377910	1.024100	1.649467
