data_functionalizedCrystal
_audit_creation_method	'MofGen! by Chris Wilmer'
_symmetry_space_group_name_H-M	'P1'
_symmetry_Int_Tables_number	1
_symmetry_cell_setting	triclinic
loop_
_symmetry_equiv_pos_as_xyz
  x,y,z
_cell_length_a	14.971491
_cell_length_b	19.188930
_cell_length_c	17.666332
_cell_angle_alpha	89.990320
_cell_angle_beta	89.992325
_cell_angle_gamma	83.380508
loop_
_atom_site_label
_atom_site_type_symbol
_atom_site_fract_x
_atom_site_fract_y
_atom_site_fract_z
O1	O	1.186463	0.091003	-0.062990
O2	O	0.926006	0.101895	-0.062985
O3	O	1.063751	-0.005182	-0.062973
O4	O	1.048718	0.198081	-0.063002
O5	O	1.063735	-0.005185	0.062924
O6	O	0.925990	0.101893	0.062912
O7	O	1.186448	0.091001	0.062907
Cu8	Cu	1.056218	0.096446	0.074405
Cu9	Cu	1.056236	0.096450	-0.074483
O10	O	1.048703	0.198078	0.062895
C11	C	0.892676	0.101406	-0.000036
C12	C	0.793387	0.099945	-0.000033
C13	C	0.365723	0.093639	-0.068676
C14	C	0.459016	0.095010	-0.068674
C15	C	0.505650	0.095699	-0.000045
C16	C	0.458987	0.095009	0.068586
C17	C	0.365697	0.093633	0.068582
C18	C	0.653434	0.097879	0.068588
C19	C	0.746730	0.099257	0.068592
C20	C	0.746753	0.099257	-0.068668
C21	C	0.653463	0.097880	-0.068671
C22	C	0.606806	0.097192	-0.000040
C23	C	1.063256	-0.031196	-0.000022
C24	C	1.061795	-0.108705	-0.000016
C25	C	1.142619	-0.153368	-0.000013
C26	C	1.141246	-0.226196	-0.000025
C27	C	1.059044	-0.254358	-0.000025
C28	C	0.978210	-0.209686	-0.000031
C29	C	0.979585	-0.136859	-0.000027
N30	N	0.996206	-0.362567	0.042822
N31	N	0.994905	-0.431750	0.042819
C32	C	1.054896	-0.473780	-0.000040
N33	N	1.116251	-0.444016	-0.042886
N34	N	1.117554	-0.374827	-0.042880
C35	C	1.057544	-0.333326	-0.000030
C36	C	1.134237	-0.597412	-0.000052
C37	C	1.132861	-0.670242	-0.000069
C38	C	0.969822	-0.653730	-0.000067
C39	C	0.971201	-0.580902	-0.000057
C40	C	1.053411	-0.552748	-0.000046
C41	C	1.219777	0.091490	-0.000044
C42	C	1.319066	0.092951	-0.000051
C43	C	1.049197	0.224092	-0.000057
C44	C	1.050659	0.301601	-0.000069
N45	N	1.056211	0.096444	0.179124
N46	N	1.056249	0.096447	-0.179202
C47	C	1.117244	0.049046	0.781180
C48	C	1.117246	0.049047	0.701932
C49	C	1.056237	0.096443	0.662306
C50	C	0.995237	0.143853	0.701933
C51	C	0.995243	0.143855	0.781179
N52	N	0.977051	0.105235	0.537894
N53	N	0.977048	0.105230	0.462613
C54	C	1.056216	0.096442	0.423542
N55	N	1.135389	0.087646	0.462595
N56	N	1.135391	0.087649	0.537882
C57	C	1.056224	0.096447	0.576377
C58	C	1.117217	0.049040	0.297994
C59	C	1.117220	0.049047	0.218745
C60	C	0.995204	0.143849	0.218748
C61	C	0.995209	0.143846	0.297996
C62	C	1.056214	0.096438	0.337614
H63	H	0.497001	0.095566	-0.124555
H64	H	0.902892	-0.676659	-0.000070
O65	O	0.935863	0.189829	0.819634
C66	C	0.847368	0.178378	0.800270
H67	H	0.847150	0.122478	0.778493
H68	H	0.802452	0.186349	0.852391
H69	H	0.820943	0.217046	0.754270
O70	O	1.214113	-0.570089	-0.000188
C71	C	1.263379	-0.592904	-0.065387
H72	H	1.215307	-0.608086	-0.110958
H73	H	1.301256	-0.548748	-0.087273
H74	H	1.313411	-0.640326	-0.050654
H75	H	0.496964	0.095566	0.124465
H76	H	0.327709	0.093080	0.124464
O77	O	0.935905	0.189958	0.180382
C78	C	0.882049	0.231782	0.232349
H79	H	0.918719	0.232617	0.288832
H80	H	0.868184	0.287523	0.209444
H81	H	0.815696	0.209026	0.240791
O82	O	0.892605	-0.537613	-0.000016
C83	C	0.819755	-0.578083	-0.000037
H84	H	0.842669	-0.632422	0.023793
H85	H	0.763137	-0.551275	0.036518
H86	H	0.794550	-0.583276	-0.060436
O87	O	0.936094	0.189922	0.663361
C88	C	0.983821	0.233066	0.617516
H89	H	1.053917	0.205345	0.605637
H90	H	0.946441	0.244062	0.561794
H91	H	0.989700	0.284677	0.648043
O92	O	1.176355	0.002927	0.336523
C93	C	1.128623	-0.040195	0.382389
H94	H	1.058093	-0.041466	0.358513
H95	H	1.165333	-0.095644	0.383298
H96	H	1.123846	-0.018347	0.442444
O97	O	1.176508	0.002932	0.180375
C98	C	1.230365	-0.038897	0.232341
H99	H	1.193699	-0.039730	0.288835
H100	H	1.244222	-0.094638	0.209452
H101	H	1.296722	-0.016146	0.240756
H102	H	1.166917	0.010447	0.669669
H103	H	1.166921	0.010445	0.813435
H104	H	1.209561	-0.130450	-0.000007
O105	O	1.219844	-0.269492	0.000013
C106	C	1.292698	-0.229026	0.000001
H107	H	1.269780	-0.174695	0.023836
H108	H	1.349302	-0.255849	0.036556
H109	H	1.317924	-0.223810	-0.060396
H110	H	0.911280	-0.232620	-0.000032
O111	O	0.936035	0.189858	0.336602
C112	C	0.949105	0.179684	0.415043
H113	H	1.020318	0.153682	0.425860
H114	H	0.938945	0.232546	0.445153
H115	H	0.898622	0.144598	0.437546
O116	O	0.320570	0.092944	-0.135411
C117	C	0.381758	0.093862	-0.195981
H118	H	0.452043	0.072755	-0.175854
H119	H	0.360626	0.059595	-0.243975
H120	H	0.382082	0.149979	-0.217091
H121	H	0.913766	-0.100494	-0.000028
H122	H	0.784696	0.099822	0.124476
O123	O	1.211356	-0.713657	-0.000204
C124	C	1.215443	-0.756272	-0.065403
H125	H	1.169608	-0.729630	-0.110975
H126	H	1.287529	-0.764391	-0.087287
H127	H	1.192501	-0.809253	-0.050671
H128	H	0.784745	0.099818	-0.124550
O129	O	0.608304	0.097182	-0.135404
C130	C	0.669484	0.098101	-0.195979
H131	H	0.739773	0.076996	-0.175857
H132	H	0.648349	0.063830	-0.243969
H133	H	0.669802	0.154216	-0.217093
H134	H	0.615447	0.097327	0.124475
