data_functionalizedCrystal
_audit_creation_method	'MofGen! by Chris Wilmer'
_symmetry_space_group_name_H-M	'P1'
_symmetry_Int_Tables_number	1
_symmetry_cell_setting	triclinic
loop_
_symmetry_equiv_pos_as_xyz
  x,y,z
_cell_length_a	19.188930
_cell_length_b	19.188930
_cell_length_c	10.868271
_cell_angle_alpha	89.989749
_cell_angle_beta	89.981803
_cell_angle_gamma	83.144779
loop_
_atom_site_label
_atom_site_type_symbol
_atom_site_fract_x
_atom_site_fract_y
_atom_site_fract_z
O1	O	0.926145	0.087168	-0.102732
O2	O	0.722833	0.098902	-0.102649
O3	O	0.830356	-0.008620	-0.102669
O4	O	0.818622	0.194691	-0.102712
O5	O	0.830347	-0.008625	0.101976
O6	O	0.722825	0.098898	0.101996
O7	O	0.926136	0.087164	0.101913
Zn8	Zn	0.824479	0.093030	0.134446
Zn9	Zn	0.824490	0.093036	-0.135182
O10	O	0.818613	0.194687	0.101933
C11	C	0.696818	0.098520	-0.000316
C12	C	0.619313	0.097380	-0.000283
C13	C	0.829972	-0.034634	-0.000343
C14	C	0.828831	-0.112138	-0.000332
C15	C	0.574389	0.160470	-0.000316
C16	C	0.501566	0.159399	-0.000329
C17	C	0.473669	0.095233	-0.000335
C18	C	0.518603	0.032133	-0.000295
C19	C	0.591425	0.033207	-0.000269
N20	N	0.365692	0.046187	-0.070023
N21	N	0.296513	0.045172	-0.070050
C22	C	0.254260	0.091994	-0.000409
N23	N	0.283798	0.139882	0.069244
N24	N	0.352983	0.140899	0.069266
C25	C	0.394707	0.094062	-0.000362
C26	C	0.130372	0.153928	-0.000455
C27	C	0.057547	0.152853	-0.000460
C28	C	0.074586	0.025586	-0.000438
C29	C	0.147409	0.026662	-0.000420
C30	C	0.175298	0.090835	-0.000434
C31	C	0.891922	-0.157062	-0.000351
C32	C	0.890850	-0.229886	-0.000371
C33	C	0.826684	-0.257782	-0.000345
C34	C	0.763585	-0.212849	-0.000333
C35	C	0.764658	-0.140026	-0.000326
N36	N	0.777634	-0.365789	0.069319
N37	N	0.776618	-0.434967	0.069315
C38	C	0.823446	-0.477191	-0.000369
N39	N	0.871338	-0.447624	-0.070033
N40	N	0.872356	-0.378439	-0.070024
C41	C	0.825513	-0.336745	-0.000354
C42	C	0.885379	-0.601079	-0.000411
C43	C	0.884305	-0.673904	-0.000438
C44	C	0.757038	-0.656865	-0.000388
C45	C	0.758114	-0.584042	-0.000373
C46	C	0.822286	-0.556154	-0.000379
C47	C	0.952151	0.087546	-0.000423
C48	C	1.029656	0.088687	-0.000463
C49	C	0.818997	0.220700	-0.000396
C50	C	0.820138	0.298204	-0.000415
N51	N	0.824476	0.093026	0.318460
N52	N	0.824499	0.093034	-0.319196
C53	C	0.824487	0.093034	0.569466
C54	C	0.824478	0.093032	0.429789
H55	H	0.597091	0.212725	-0.000330
H56	H	0.935683	-0.710481	-0.000461
H57	H	0.704792	-0.679578	-0.000374
O58	O	0.690066	-0.535581	-0.000321
H59	H	0.645266	-0.567211	-0.000293
O60	O	0.694377	-0.242935	-0.000289
H61	H	0.690848	-0.275703	-0.083691
H62	H	0.464982	0.210776	-0.000353
O63	O	0.958900	-0.278354	-0.000375
H64	H	1.003702	-0.246727	-0.000368
H65	H	0.153080	0.206181	-0.000448
H66	H	0.944176	-0.134360	-0.000360
O67	O	0.696608	-0.091565	-0.000283
H68	H	0.651807	-0.123194	-0.000260
O69	O	0.195865	-0.041389	-0.000394
H70	H	0.251189	-0.029863	-0.000365
O71	O	0.488521	-0.037077	-0.000301
H72	H	0.430335	-0.027225	-0.000336
O73	O	0.639886	-0.034843	-0.000240
H74	H	0.608257	-0.079644	-0.000249
H75	H	0.937632	-0.578372	-0.000422
H76	H	0.020970	0.204232	-0.000480
H77	H	0.051874	-0.026659	-0.000519
