data_functionalizedCrystal
_audit_creation_method	'MofGen! by Chris Wilmer'
_symmetry_space_group_name_H-M	'P1'
_symmetry_Int_Tables_number	1
_symmetry_cell_setting	triclinic
loop_
_symmetry_equiv_pos_as_xyz
  x,y,z
_cell_length_a	23.532407
_cell_length_b	23.532407
_cell_length_c	22.010155
_cell_angle_alpha	90.000423
_cell_angle_beta	89.996931
_cell_angle_gamma	97.151322
loop_
_atom_site_label
_atom_site_type_symbol
_atom_site_fract_x
_atom_site_fract_y
_atom_site_fract_z
O1	O	0.755264	-0.069127	-0.050455
O2	O	0.589400	-0.079130	-0.050474
O3	O	0.677334	0.008803	-0.050453
O4	O	0.667330	-0.157060	-0.050476
O5	O	0.677318	0.008790	0.050597
O6	O	0.589384	-0.079143	0.050576
O7	O	0.755248	-0.069140	0.050595
Cu8	Cu	0.672315	-0.074143	0.059812
Cu9	Cu	0.672333	-0.074127	-0.059691
O10	O	0.667314	-0.157073	0.050574
C11	C	0.568176	-0.078882	0.000049
C12	C	0.504959	-0.078116	0.000042
C13	C	0.105856	-0.125350	0.000063
C14	C	0.046456	-0.124638	0.000067
O15	O	0.009711	-0.168424	0.000083
N16	N	0.023830	-0.072362	0.000073
C17	C	0.060607	-0.020794	0.000082
O18	O	0.035908	0.023737	0.000088
C19	C	0.120006	-0.021506	0.000082
C20	C	0.142629	-0.073785	0.000070
C21	C	0.128479	-0.177625	0.000051
C22	C	0.187876	-0.178336	0.000046
C23	C	0.224649	-0.126772	0.000053
C24	C	0.202025	-0.074497	0.000065
C25	C	0.156783	0.030062	0.000096
C26	C	0.216185	0.029345	0.000097
C27	C	0.238808	-0.022934	0.000084
C28	C	0.298194	-0.023643	0.000067
N29	N	0.320820	-0.075920	0.000061
C30	C	0.284048	-0.127484	0.000054
C31	C	-0.064135	-0.019302	0.000082
C32	C	-0.123533	-0.018589	0.000077
C33	C	-0.137680	-0.122434	0.000063
C34	C	-0.078281	-0.123146	0.000064
C35	C	-0.041509	-0.071578	0.000076
C36	C	0.408784	-0.128974	0.000043
C37	C	0.468186	-0.129680	0.000035
C38	C	0.482329	-0.025836	0.000052
C39	C	0.422932	-0.025129	0.000057
C40	C	0.386160	-0.076702	0.000054
O41	O	0.334974	0.020119	0.000054
O42	O	0.308755	-0.172007	0.000055
C43	C	0.677071	0.030013	0.000074
C44	C	0.676305	0.093230	0.000078
C45	C	0.776472	-0.069388	0.000071
C46	C	0.839689	-0.070154	0.000073
C47	C	0.667577	-0.178283	0.000046
C48	C	0.668343	-0.241500	0.000037
N49	N	0.672305	-0.074153	0.143865
C50	C	0.723539	0.492333	0.000050
C51	C	0.722827	0.551733	0.000046
O52	O	0.766613	0.588478	0.000028
N53	N	0.670551	0.574359	0.000040
C54	C	0.618983	0.537582	0.000033
O55	O	0.574452	0.562281	0.000027
C56	C	0.619695	0.478182	0.000033
C57	C	0.671974	0.455560	0.000045
C58	C	0.775814	0.469710	0.000061
C59	C	0.776525	0.410313	0.000067
C60	C	0.724961	0.373540	0.000062
C61	C	0.672685	0.396164	0.000051
C62	C	0.568127	0.441406	0.000022
C63	C	0.568844	0.382004	0.000022
C64	C	0.621123	0.359381	0.000034
C65	C	0.621832	0.299995	0.000052
N66	N	0.674109	0.277368	0.000057
C67	C	0.725673	0.314141	0.000062
C68	C	0.617491	0.662324	0.000031
C69	C	0.616778	0.721722	0.000035
C70	C	0.720623	0.735869	0.000047
C71	C	0.721335	0.676470	0.000047
C72	C	0.669767	0.639698	0.000037
C73	C	0.727163	0.189405	0.000075
C74	C	0.727869	0.130003	0.000083
C75	C	0.624025	0.115860	0.000069
C76	C	0.623318	0.175257	0.000064
C77	C	0.674891	0.212029	0.000065
O78	O	0.578070	0.263215	0.000067
O79	O	0.770196	0.289433	0.000060
N80	N	0.672347	-0.074112	-0.143744
C81	C	0.711273	-0.035196	0.563653
C82	C	0.711275	-0.035192	0.627261
O83	O	0.744384	-0.002076	0.660160
N84	N	0.672333	-0.074115	0.659072
C85	C	0.633382	-0.113041	0.627272
O86	O	0.600259	-0.146148	0.660170
C87	C	0.633377	-0.113042	0.563665
C88	C	0.672326	-0.074120	0.531858
C89	C	0.750217	0.003723	0.531846
C90	C	0.750215	0.003719	0.468243
C91	C	0.711268	-0.035205	0.436447
C92	C	0.672324	-0.074125	0.468255
C93	C	0.594424	-0.151965	0.531866
C94	C	0.594422	-0.151962	0.468256
C95	C	0.633370	-0.113040	0.436448
C96	C	0.633374	-0.113054	0.372856
N97	N	0.672317	-0.074130	0.341045
C98	C	0.711263	-0.035206	0.372841
C99	C	0.633395	-0.113036	0.760850
C100	C	0.633402	-0.113039	0.824455
C101	C	0.711294	-0.035188	0.824440
C102	C	0.711290	-0.035189	0.760833
C103	C	0.672337	-0.074113	0.729039
C104	C	0.711256	-0.035220	0.239269
C105	C	0.711252	-0.035229	0.175660
C106	C	0.633358	-0.113077	0.175681
C107	C	0.633364	-0.113070	0.239284
C108	C	0.672315	-0.074136	0.271077
O109	O	0.600282	-0.146151	0.339916
O110	O	0.744376	-0.002100	0.339935
H111	H	-0.167632	-0.164421	0.000060
C112	C	0.777345	0.776325	0.000048
H113	H	0.808585	0.754348	0.000057
H114	H	0.779227	0.799789	-0.035192
H115	H	0.779218	0.799791	0.035290
C116	C	0.567309	0.075403	0.000060
H117	H	0.575224	0.036789	0.000057
H118	H	0.545846	0.082227	0.035292
H119	H	0.545869	0.082229	-0.035190
C120	C	0.590565	-0.155857	0.859439
H121	H	0.596143	-0.150287	0.901876
H122	H	0.552593	-0.149866	0.849016
H123	H	0.596538	-0.193837	0.849014
C124	C	0.510618	0.466278	0.000004
H125	H	0.480016	0.435863	-0.000007
H126	H	0.508166	0.489157	0.035239
H127	H	0.508189	0.489151	-0.035242
H128	H	0.743006	-0.003493	0.850339
H129	H	-0.059867	-0.165717	0.000057
H130	H	0.512280	0.016146	0.000056
H131	H	-0.141947	0.023982	0.000078
C132	C	0.793070	0.046520	0.433260
H133	H	0.787503	0.040942	0.390822
H134	H	0.787118	0.084504	0.443679
H135	H	0.831037	0.040507	0.443692
C136	C	0.793066	0.046541	0.566811
H137	H	0.816258	0.069713	0.538750
H138	H	0.772726	0.070151	0.591630
H139	H	0.816661	0.026170	0.591617
C140	C	0.512117	0.341557	0.000013
H141	H	0.480883	0.363542	0.000011
H142	H	0.510241	0.318088	-0.035223
H143	H	0.510228	0.318095	0.035258
H144	H	-0.034198	0.022693	0.000086
H145	H	0.601676	-0.144737	0.734966
H146	H	0.580748	0.193677	0.000071
H147	H	0.763906	0.658056	0.000056
H148	H	0.770443	0.111587	0.000094
C149	C	0.559271	0.746601	0.000028
H150	H	0.528666	0.716188	0.000021
H151	H	0.556825	0.769481	0.035262
H152	H	0.556840	0.769473	-0.035219
C153	C	0.551576	-0.194780	0.433282
H154	H	0.557147	-0.189208	0.390844
H155	H	0.557542	-0.232758	0.443710
H156	H	0.513603	-0.188781	0.443711
H157	H	0.404512	0.017441	0.000058
H158	H	0.138375	0.072634	0.000106
C159	C	0.493071	-0.187189	0.000021
H160	H	0.533714	-0.180231	0.000014
H161	H	0.480428	-0.208412	0.035256
H162	H	0.480427	-0.208398	-0.035225
H163	H	0.742973	-0.003516	0.265148
H164	H	0.246123	0.071339	0.000107
H165	H	0.769159	0.219337	0.000073
H166	H	0.575496	0.632386	0.000028
H167	H	0.562708	-0.183658	0.557755
C168	C	0.590501	-0.155861	0.274274
H169	H	0.567297	-0.179034	0.246225
H170	H	0.610823	-0.179473	0.299105
H171	H	0.566919	-0.135461	0.299068
H172	H	0.819097	0.391900	0.000074
H173	H	0.817806	0.499645	0.000063
C174	C	0.754095	0.007589	0.140676
H175	H	0.777285	0.030775	0.168725
H176	H	0.777685	-0.012777	0.115861
H177	H	0.733740	0.031194	0.115865
H178	H	0.601650	-0.144771	0.149783
C179	C	0.368344	-0.185703	0.000032
H180	H	0.390333	-0.216934	0.000017
H181	H	0.344875	-0.187598	0.035269
H182	H	0.344883	-0.187578	-0.035213
C183	C	0.212756	-0.235843	0.000037
H184	H	0.253399	-0.228889	0.000032
H185	H	0.200109	-0.257063	0.035272
H186	H	0.200112	-0.257052	-0.035209
C187	C	0.088038	-0.234351	0.000038
H188	H	0.110027	-0.265581	0.000027
H189	H	0.064565	-0.236247	0.035274
H190	H	0.064579	-0.236227	-0.035208
C191	C	0.754128	0.007629	0.725851
H192	H	0.777320	0.030811	0.753902
H193	H	0.777717	-0.012734	0.701032
H194	H	0.733772	0.031237	0.701044
