data_functionalizedCrystal
_audit_creation_method	'MofGen! by Chris Wilmer'
_symmetry_space_group_name_H-M	'P1'
_symmetry_Int_Tables_number	1
_symmetry_cell_setting	triclinic
loop_
_symmetry_equiv_pos_as_xyz
  x,y,z
_cell_length_a	19.288840
_cell_length_b	19.188930
_cell_length_c	17.766277
_cell_angle_alpha	89.988508
_cell_angle_beta	89.983415
_cell_angle_gamma	83.135398
loop_
_atom_site_label
_atom_site_type_symbol
_atom_site_fract_x
_atom_site_fract_y
_atom_site_fract_z
O1	O	0.921371	0.087016	-0.062728
O2	O	0.719108	0.098784	-0.062703
O3	O	0.826076	-0.008757	-0.062702
O4	O	0.814403	0.194556	-0.062730
O5	O	0.826058	-0.008762	0.062487
O6	O	0.719090	0.098778	0.062485
O7	O	0.921352	0.087011	0.062460
Cu8	Cu	0.820219	0.092894	0.073903
Cu9	Cu	0.820241	0.092900	-0.074147
O10	O	0.814384	0.194551	0.062459
C11	C	0.693222	0.098405	-0.000106
C12	C	0.616118	0.097277	-0.000096
C13	C	0.579924	0.096739	-0.068338
C14	C	0.507477	0.095671	-0.068347
C15	C	0.471228	0.095128	-0.000110
C16	C	0.507430	0.095671	0.068141
C17	C	0.579875	0.096746	0.068148
C18	C	0.361890	0.052528	0.052165
C19	C	0.289447	0.051449	0.052155
C20	C	0.247784	0.091817	-0.000129
C21	C	0.278575	0.133255	-0.052415
C22	C	0.351020	0.134330	-0.052408
C23	C	0.392674	0.093963	-0.000110
C24	C	0.133036	0.090122	-0.068386
C25	C	0.060587	0.089058	-0.068392
C26	C	0.060542	0.089052	0.068098
C27	C	0.132988	0.090122	0.068102
C28	C	0.169231	0.090653	-0.000142
C29	C	0.825689	-0.034770	-0.000105
C30	C	0.824554	-0.112275	-0.000099
C31	C	0.887319	-0.157209	-0.000103
C32	C	0.886253	-0.230033	-0.000115
C33	C	0.822418	-0.257919	-0.000108
C34	C	0.759645	-0.212975	-0.000108
C35	C	0.760713	-0.140153	-0.000103
N36	N	0.773618	-0.365917	0.042503
N37	N	0.772608	-0.435096	0.042500
C38	C	0.819197	-0.477327	-0.000122
N39	N	0.866845	-0.447767	-0.042733
N40	N	0.867858	-0.378583	-0.042727
C41	C	0.821253	-0.336881	-0.000113
C42	C	0.880811	-0.601225	-0.000141
C43	C	0.879742	-0.674050	-0.000157
C44	C	0.753131	-0.656990	-0.000142
C45	C	0.754202	-0.584167	-0.000133
C46	C	0.818043	-0.556289	-0.000129
C47	C	0.947238	0.087389	-0.000139
C48	C	1.024343	0.088517	-0.000154
C49	C	0.814771	0.220565	-0.000139
C50	C	0.815906	0.298069	-0.000151
N51	N	0.820209	0.092889	0.178034
N52	N	0.820257	0.092900	-0.178277
C53	C	0.867589	0.045293	0.217421
C54	C	0.867593	0.045290	0.296223
C55	C	0.820223	0.092894	0.335634
C56	C	0.772834	0.140494	0.296237
C57	C	0.772826	0.140491	0.217437
C58	C	0.810929	0.156512	0.460464
C59	C	0.810941	0.156516	0.539263
C60	C	0.820242	0.092903	0.578681
C61	C	0.829545	0.029284	0.539290
C62	C	0.829538	0.029281	0.460489
C63	C	0.820226	0.092902	0.421080
C64	C	0.867629	0.045300	0.703514
C65	C	0.867629	0.045296	0.782317
C66	C	0.772872	0.140505	0.782330
C67	C	0.772870	0.140504	0.703528
C68	C	0.820252	0.092901	0.664125
H69	H	0.162458	0.090556	0.123673
H70	H	0.734300	0.179263	0.814418
O71	O	0.690795	-0.243051	-0.000099
H72	H	0.647327	-0.199567	-0.000100
H73	H	0.477911	0.095231	0.123700
H74	H	0.734291	0.179263	0.671457
H75	H	0.930855	-0.710636	-0.000165
H76	H	0.837111	-0.022520	0.428420
H77	H	0.609343	0.097185	0.123721
H78	H	0.906209	0.006534	0.814387
O79	O	0.384232	0.179028	-0.108788
H80	H	0.343096	0.206925	-0.145144
H81	H	0.609429	0.097171	-0.123907
O82	O	0.686505	-0.535695	-0.000121
H83	H	0.683961	-0.502118	0.050904
H84	H	0.837118	-0.022516	0.571382
O85	O	0.918722	-0.006047	0.661006
H86	H	0.951662	-0.039154	0.701637
O87	O	0.956173	-0.127139	-0.000119
H88	H	0.999640	-0.170624	-0.000135
H89	H	0.734242	0.179250	0.185367
O90	O	0.918701	-0.006045	0.338718
H91	H	0.952360	0.023268	0.374599
H92	H	0.478003	0.095233	-0.123919
H93	H	0.734263	0.179253	0.328330
O94	O	0.953953	-0.278511	-0.000106
H95	H	0.984534	-0.268617	-0.051124
H96	H	0.031028	0.088614	0.123658
H97	H	0.395806	0.019653	0.094744
O98	O	0.800883	0.225124	0.417947
H99	H	0.847251	0.229480	0.382013
H100	H	0.709600	-0.103566	-0.000100
O101	O	0.256239	0.006754	0.108542
H102	H	0.218614	0.040755	0.143823
H103	H	0.906169	0.006531	0.185341
H104	H	0.031119	0.088624	-0.123965
H105	H	0.244654	0.166129	-0.094987
H106	H	0.932794	-0.578526	-0.000140
H107	H	0.701156	-0.679694	-0.000140
O108	O	0.172133	0.090708	-0.141986
H109	H	0.134789	0.090166	-0.189443
O110	O	0.800922	0.225129	0.581748
H111	H	0.794444	0.269362	0.541102
