data_functionalizedCrystal
_audit_creation_method	'MofGen! by Chris Wilmer'
_symmetry_space_group_name_H-M	'P1'
_symmetry_Int_Tables_number	1
_symmetry_cell_setting	triclinic
loop_
_symmetry_equiv_pos_as_xyz
  x,y,z
_cell_length_a	16.120484
_cell_length_b	18.050591
_cell_length_c	16.120256
_cell_angle_alpha	87.117897
_cell_angle_beta	95.616173
_cell_angle_gamma	87.074737
loop_
_atom_site_label
_atom_site_type_symbol
_atom_site_fract_x
_atom_site_fract_y
_atom_site_fract_z
Zn1	Zn	-0.356761	-1.097121	-0.489377
Zn2	Zn	0.143239	-0.597121	0.010623
Zn3	Zn	-0.489447	-1.097028	-0.356686
Zn4	Zn	0.010553	-0.597028	0.143314
Zn5	Zn	-0.349693	-0.979562	-0.349630
Zn6	Zn	0.150307	-0.479562	0.150370
Zn7	Zn	-0.496493	-0.966265	-0.496419
Zn8	Zn	0.003507	-0.466265	0.003581
O9	O	-0.423098	-1.034994	-0.423028
O10	O	0.076902	-0.534994	0.076972
O11	O	-0.374372	-1.201033	-0.471780
O12	O	0.125628	-0.701033	0.028220
O13	O	-0.465002	-1.086972	-0.238787
O14	O	0.034998	-0.586972	0.261213
O15	O	-0.233665	-1.000760	-0.362268
O16	O	0.266335	-0.500760	0.137732
O17	O	-0.471855	-1.200964	-0.374294
O18	O	0.028145	-0.700964	0.125706
O19	O	-0.238858	-1.087131	-0.464939
O20	O	0.261142	-0.587131	0.035061
O21	O	-0.362325	-1.000670	-0.233603
O22	O	0.137675	-0.500670	0.266397
O23	O	-0.369157	-0.873874	-0.369097
O24	O	0.130843	-0.373874	0.130903
O25	O	-0.483864	-0.978097	-0.612448
O26	O	0.016136	-0.478097	-0.112448
O27	O	-0.477010	-0.864105	-0.476942
O28	O	0.022990	-0.364105	0.023058
O29	O	-0.381204	-1.074237	-0.607274
O30	O	0.118796	-0.574237	-0.107274
O31	O	-0.607347	-1.074078	-0.381122
O32	O	-0.107347	-0.574078	0.118878
O33	O	-0.612523	-0.978007	-0.483784
O34	O	-0.112523	-0.478007	0.016216
C35	C	-0.423082	-0.842043	-0.423018
C36	C	0.076918	-0.342043	0.076982
C37	C	-0.423096	-0.759496	-0.423035
C38	C	0.076904	-0.259496	0.076965
C39	C	-0.481863	-0.505377	-0.481608
C40	C	0.018137	-0.005377	0.018392
C41	C	-0.498335	-0.557398	-0.406348
C42	C	0.001665	-0.057398	0.093652
C43	C	-0.423128	-0.462374	-0.423032
C44	C	0.076872	0.037626	0.076968
C45	C	-0.406679	-0.557434	-0.498291
C46	C	0.093321	-0.057434	0.001709
C47	C	-0.423114	-0.608360	-0.423037
C48	C	0.076886	-0.108360	0.076963
C49	C	-0.439637	-0.513308	-0.347733
C50	C	0.060363	-0.013308	0.152267
C51	C	-0.347949	-0.513339	-0.439726
C52	C	0.152051	-0.013339	0.060274
C53	C	-0.364389	-0.565341	-0.364411
C54	C	0.135611	-0.065341	0.135589
C55	C	-0.423138	-0.378276	-0.423030
C56	C	0.076862	0.121724	0.076970
C57	C	-0.423104	-0.692457	-0.423031
C58	C	0.076896	-0.192457	0.076969
C59	C	-0.640264	-1.024609	-0.434001
C60	C	-0.140264	-0.524609	0.065999
C61	C	-0.733170	-1.020232	-0.438723
C62	C	-0.233170	-0.520232	0.061277
C63	C	-0.903270	-1.012246	-0.447362
C64	C	-0.403270	-0.512246	0.052638
C65	C	-0.942087	-1.057874	-0.398708
C66	C	-0.442087	-0.557874	0.101292
C67	C	-1.036737	-1.053431	-0.403515
C68	C	-0.536737	-0.553431	0.096485
C69	C	-0.808612	-1.016689	-0.442556
C70	C	-0.308612	-0.516689	0.057444
C71	C	-0.205086	-1.045439	-0.412031
C72	C	0.294914	-0.545439	0.087969
C73	C	-0.112182	-1.049890	-0.407344
C74	C	0.387818	-0.549890	0.092656
C75	C	-0.434108	-1.024694	-0.641036
C76	C	0.065892	-0.524694	-0.141036
C77	C	-0.438799	-1.020305	-0.733938
C78	C	0.061201	-0.520305	-0.233938
C79	C	-0.423121	-0.228698	-0.423036
C80	C	0.076879	0.271302	0.076964
C81	C	-0.423144	-0.311243	-0.423033
C82	C	0.076856	0.188757	0.076967
C83	C	-0.398611	-1.057882	-0.942861
C84	C	0.101389	-0.557882	-0.442861
C85	C	-0.447330	-1.012269	-0.904023
C86	C	0.052670	-0.512269	-0.404023
C87	C	-0.442582	-1.016742	-0.809379
C88	C	0.057418	-0.516742	-0.309379
C89	C	-0.403358	-1.053410	-1.037514
C90	C	0.096642	-0.553410	-0.537514
C91	C	-0.412072	-1.045299	-0.205865
C92	C	0.087928	-0.545299	0.294135
C93	C	-0.407145	-1.049843	-0.112952
C94	C	0.092855	-0.549843	0.387048
H95	H	-0.561906	-0.576839	-0.392224
H96	H	-0.061906	-0.076839	0.107776
N97	N	-0.389216	-0.581846	-0.578130
N98	N	0.110784	-0.081846	-0.078130
N99	N	-0.322198	-0.566900	-0.606460
N100	N	0.177802	-0.066900	-0.106460
H101	H	-0.309869	-0.584138	-0.662848
H102	H	0.190131	-0.084138	-0.162848
H103	H	-0.353339	-1.100290	-0.905033
H104	H	0.146661	-0.600290	-0.405033
N105	N	-0.457193	-0.489014	-0.267873
N106	N	0.042807	0.010986	0.232127
N107	N	-0.469664	-0.535522	-0.210972
N108	N	0.030336	-0.035522	0.289028
H109	H	-0.482066	-0.518364	-0.154572
H110	H	0.017934	-0.018364	0.345428
N111	N	-0.504126	-0.959058	-0.951471
N112	N	-0.004126	-0.459058	-0.451471
N113	N	-0.477118	-0.910881	-0.998702
N114	N	0.022882	-0.410881	-0.498702
H115	H	-0.517230	-0.873302	-1.032214
H116	H	-0.017230	-0.373302	-0.532214
N117	N	-0.894614	-1.111066	-0.341917
N118	N	-0.394614	-0.611066	0.158083
N119	N	-0.904483	-1.178887	-0.347988
N120	N	-0.404483	-0.678887	0.152012
H121	H	-0.870950	-1.216450	-0.307879
H122	H	-0.370950	-0.716450	0.192121
N123	N	-0.950759	-0.959062	-0.504140
N124	N	-0.450759	-0.459062	-0.004140
N125	N	-1.028694	-0.955487	-0.508008
N126	N	-0.528694	-0.455487	-0.008008
H127	H	-1.062243	-0.917925	-0.548106
H128	H	-0.562243	-0.417925	-0.048106
H129	H	-0.314710	-0.591363	-0.314823
H130	H	0.185290	-0.091363	0.185177
N131	N	-0.544226	-0.472570	-0.543673
N132	N	-0.044226	0.027430	-0.043673
N133	N	-0.619298	-0.485182	-0.539682
N134	N	-0.119298	0.014818	-0.039682
H135	H	-0.663344	-0.462011	-0.583512
H136	H	-0.163344	0.037989	-0.083512
H137	H	-0.284397	-0.493879	-0.453872
H138	H	0.215603	0.006121	0.046128
