data_functionalizedCrystal
_audit_creation_method	'MofGen! by Chris Wilmer'
_symmetry_space_group_name_H-M	'P1'
_symmetry_Int_Tables_number	1
_symmetry_cell_setting	triclinic
loop_
_symmetry_equiv_pos_as_xyz
  x,y,z
_cell_length_a	8.497374
_cell_length_b	19.077105
_cell_length_c	19.077068
_cell_angle_alpha	89.884684
_cell_angle_beta	92.284024
_cell_angle_gamma	92.300019
loop_
_atom_site_label
_atom_site_type_symbol
_atom_site_fract_x
_atom_site_fract_y
_atom_site_fract_z
Zn1	Zn	1.016648	1.062860	0.323110
Zn2	Zn	0.762970	1.058079	0.440586
Zn3	Zn	0.741875	0.945387	0.318369
Zn4	Zn	1.015701	0.940595	0.435851
O5	O	0.884299	1.001730	0.379479
O6	O	0.992222	1.160556	0.342659
O7	O	0.539410	1.043135	0.424372
O8	O	0.769893	0.964977	0.220667
O9	O	0.805846	1.157044	0.428968
O10	O	0.971767	1.051283	0.224150
O11	O	0.523911	0.960341	0.334579
O12	O	0.768974	0.846421	0.329988
O13	O	1.236588	0.956809	0.420898
O14	O	0.970152	0.842901	0.416301
O15	O	1.237285	1.046636	0.338067
O16	O	0.804927	1.038488	0.538289
O17	O	0.990607	0.952173	0.534810
C18	C	0.867172	0.819165	0.372117
C19	C	0.859884	0.741062	0.368984
C20	C	0.961050	0.702552	0.412519
C21	C	0.954209	0.629166	0.409566
C22	C	0.846193	0.594292	0.363082
C23	C	0.745023	0.632808	0.319542
C24	C	0.751873	0.706192	0.322492
C25	C	0.814499	0.375011	0.349430
C26	C	0.807654	0.301621	0.346485
C27	C	1.016843	0.297985	0.436509
C28	C	1.023677	0.371371	0.439457
C29	C	0.922512	0.409880	0.395915
N30	N	0.839195	0.519280	0.360064
N31	N	0.929519	0.484891	0.398930
C32	C	0.899989	0.994311	0.562047
C33	C	0.906761	0.991201	0.640152
C34	C	1.295778	1.001725	0.379480
C35	C	1.474423	1.001726	0.379487
C36	C	0.901493	1.185009	0.386870
C37	C	0.908820	1.263111	0.390020
C38	C	0.868583	1.009198	0.196199
C39	C	0.861886	1.012380	0.118097
C40	C	0.813355	1.034715	0.678636
C41	C	0.819734	1.031794	0.752025
C42	C	0.919510	0.985356	0.786928
C43	C	1.012926	0.941841	0.748439
C44	C	1.006555	0.944765	0.675052
C45	C	0.948930	0.971789	1.006221
C46	C	0.955291	0.968866	1.079613
C47	C	0.762100	1.058821	1.083193
C48	C	0.755730	1.061739	1.009804
C49	C	0.849152	1.018226	0.971322
N50	N	0.926029	0.982368	0.861943
N51	N	0.842641	1.021218	0.896309
H52	H	0.669500	0.737547	0.287037
C53	C	0.660508	1.106099	1.124849
C54	C	0.571740	1.147381	1.078574
C55	C	0.478120	1.190939	1.116921
H56	H	0.726095	1.135615	1.154678
H57	H	0.591602	1.078121	1.152417
H58	H	0.640637	1.175356	1.051018
H59	H	0.506122	1.117884	1.048744
H60	H	0.409215	1.162961	1.144489
H61	H	0.543720	1.220450	1.146748
H62	H	0.417870	1.218950	1.085529
H63	H	0.732099	1.072527	0.650222
C64	C	0.718133	1.079068	0.793681
C65	C	0.629351	1.120345	0.747406
C66	C	0.535720	1.163897	0.785754
H67	H	0.783713	1.108587	0.823509
H68	H	0.649237	1.051086	0.821250
H69	H	0.698240	1.148324	0.719849
H70	H	0.563741	1.090844	0.717577
H71	H	0.466824	1.135916	0.813322
H72	H	0.601313	1.193412	0.815580
H73	H	0.475460	1.191904	0.754362
C74	C	1.050072	0.924507	0.964350
C75	C	0.952787	0.881196	0.920446
C76	C	1.045903	0.837634	0.881853
H77	H	1.110425	0.896364	0.995563
H78	H	1.118861	0.952484	0.936727
H79	H	0.884025	0.853221	0.948067
H80	H	0.892433	0.909319	0.889220
H81	H	1.114693	0.865611	0.854231
H82	H	1.106253	0.809496	0.913072
H83	H	0.979910	0.808247	0.852056
C84	C	0.647191	1.112046	0.971873
C85	C	0.538593	1.073974	0.928208
C86	C	0.438561	1.120291	0.893264
H87	H	0.707783	1.143800	0.944383
H88	H	0.592383	1.137531	1.005285
H89	H	0.593396	1.048502	0.894801
H90	H	0.477964	1.042224	0.955681
H91	H	0.383753	1.145776	0.926675
H92	H	0.499167	1.152042	0.865777
H93	H	0.364857	1.094466	0.863638
H94	H	1.036570	0.931059	1.108030
C95	C	1.063776	0.587259	0.456872
C96	C	0.974204	0.543282	0.500134
C97	C	1.075084	0.504658	0.543716
H98	H	1.129118	0.618451	0.485048
H99	H	1.127611	0.559685	0.428908
H100	H	0.910396	0.570853	0.528095
H101	H	0.908865	0.512075	0.471977
H102	H	1.138919	0.477085	0.515752
H103	H	1.140422	0.535856	0.571887
H104	H	1.014325	0.474811	0.573070
H105	H	1.094174	0.904033	0.776864
H106	H	1.082618	0.909333	0.643719
H107	H	1.049004	0.730941	0.450374
H108	H	0.719703	0.273229	0.308624
H109	H	1.099208	0.266623	0.471957
C110	C	0.704480	0.416689	0.302125
C111	C	0.608395	0.370438	0.260800
C112	C	0.507011	0.408809	0.217217
H113	H	0.764811	0.446564	0.272638
H114	H	0.640529	0.444212	0.330085
H115	H	0.672339	0.342928	0.232843
H116	H	0.548031	0.340563	0.290268
H117	H	0.443060	0.436332	0.245177
H118	H	0.567354	0.438682	0.187735
H119	H	0.441795	0.377434	0.189177
C120	C	0.627565	0.594903	0.269186
C121	C	0.525756	0.551166	0.307207
C122	C	0.417518	0.516246	0.260843
H123	H	0.682542	0.567464	0.237447
H124	H	0.568202	0.628326	0.243689
H125	H	0.585111	0.517747	0.332692
H126	H	0.470742	0.578587	0.338943
H127	H	0.358156	0.549669	0.235346
H128	H	0.472509	0.488811	0.229107
H129	H	0.348419	0.486571	0.286634
H130	H	1.111631	0.399760	0.477312
