data_functionalizedCrystal
_audit_creation_method	'MofGen! by Chris Wilmer'
_symmetry_space_group_name_H-M	'P1'
_symmetry_Int_Tables_number	1
_symmetry_cell_setting	triclinic
loop_
_symmetry_equiv_pos_as_xyz
  x,y,z
_cell_length_a	15.297510
_cell_length_b	21.295420
_cell_length_c	15.296720
_cell_angle_alpha	99.661426
_cell_angle_beta	72.679116
_cell_angle_gamma	80.292968
loop_
_atom_site_label
_atom_site_type_symbol
_atom_site_fract_x
_atom_site_fract_y
_atom_site_fract_z
Zn1	Zn	0.461266	0.835350	-0.589863
Zn2	Zn	0.589889	0.835275	-0.461262
Zn3	Zn	0.434390	0.752118	-0.434378
Zn4	Zn	0.616725	0.708030	-0.616706
O5	O	0.525568	0.782693	-0.525552
O6	O	0.478345	0.923426	-0.572821
O7	O	0.546782	0.842663	-0.327571
O8	O	0.307818	0.781641	-0.432519
O9	O	0.572843	0.923370	-0.478338
O10	O	0.327564	0.842792	-0.546752
O11	O	0.432538	0.781568	-0.307820
O12	O	0.458561	0.658184	-0.458547
O13	O	0.618582	0.706500	-0.743270
O14	O	0.592522	0.625793	-0.592503
O15	O	0.504367	0.800042	-0.723548
O16	O	0.723585	0.799913	-0.504367
O17	O	0.743302	0.706427	-0.618571
C18	C	0.525538	0.619149	-0.525521
C19	C	0.525551	0.549178	-0.525534
C20	C	0.767190	0.748392	-0.567319
C21	C	0.870563	0.733771	-0.585218
C22	C	0.595420	0.032859	-0.595264
C23	C	0.595419	0.098603	-0.595254
C24	C	0.525594	0.148327	-0.525585
C25	C	0.455778	0.132303	-0.455906
C26	C	0.455787	0.066560	-0.455913
N27	N	0.442955	0.264093	-0.504501
N28	N	0.442950	0.326545	-0.504501
C29	C	0.525564	0.346408	-0.525561
N30	N	0.608188	0.301457	-0.546639
N31	N	0.608193	0.238999	-0.546644
C32	C	0.525577	0.219616	-0.525570
C33	C	0.595377	0.433712	-0.595221
C34	C	0.595376	0.499458	-0.595205
C35	C	0.455728	0.533158	-0.455860
C36	C	0.455737	0.467413	-0.455873
C37	C	0.525561	0.417693	-0.525558
C38	C	1.120794	0.887367	-0.397995
C39	C	1.023669	0.901104	-0.381173
C40	C	0.985388	0.859273	-0.432183
C41	C	1.044241	0.803700	-0.500017
C42	C	1.141374	0.789959	-0.516836
C43	C	1.005968	0.761865	-0.551024
C44	C	1.064821	0.706292	-0.618859
C45	C	1.161944	0.692554	-0.635675
C46	C	1.200226	0.734385	-0.584664
C47	C	0.908835	0.775606	-0.534206
C48	C	0.929415	0.678198	-0.653047
C49	C	1.026539	0.664461	-0.669869
C50	C	1.283006	0.817135	-0.483652
C51	C	1.179646	0.831794	-0.465823
C52	C	0.567466	0.748362	-0.768092
C53	C	0.585321	0.733732	-0.871448
C54	C	0.525598	0.946876	-0.525584
C55	C	0.525611	1.016841	-0.525598
C56	C	0.397794	0.887304	-1.121721
C57	C	0.381021	0.901053	-1.024614
C58	C	0.432094	0.859224	-0.986317
C59	C	0.499944	0.803643	-1.045139
C60	C	0.516725	0.789895	-1.142257
C61	C	0.551025	0.761815	-1.006853
C62	C	0.618875	0.706234	-1.065674
C63	C	0.635652	0.692488	-1.162783
C64	C	0.584579	0.734318	-1.201079
C65	C	0.534244	0.775563	-0.909735
C66	C	0.653175	0.678154	-0.930270
C67	C	0.669949	0.664405	-1.027378
C68	C	0.483765	0.816937	-0.283944
C69	C	0.465648	0.831727	-0.180543
H70	H	0.652280	-0.007620	-0.652004
H71	H	0.478999	0.820817	-0.861851
C72	C	0.878550	0.874395	-0.413693
N73	N	0.798077	0.885792	-0.399771
H74	H	0.975755	0.946350	-0.325941
H75	H	0.860925	0.820853	-0.478974
C76	C	1.162909	0.933370	-0.341882
N77	N	1.194631	0.968021	-0.299612
C78	C	0.710294	0.631350	-1.227485
N79	N	0.766513	0.585299	-1.276217
H80	H	1.209859	0.647297	-0.690899
C81	C	0.887310	0.632181	-0.709164
N82	N	0.855591	0.597523	-0.751427
C83	C	0.744581	0.603266	-1.092093
N84	N	0.800793	0.557216	-1.140838
C85	C	0.378965	0.187002	-0.379275
N86	N	0.321107	0.228201	-0.321553
C87	C	0.413632	0.874347	-0.879494
N88	N	0.399719	0.885737	-0.799029
C89	C	0.306379	0.962186	-0.959916
N90	N	0.250151	1.008233	-0.911184
H91	H	0.398937	0.053521	-0.399181
C92	C	0.378921	0.587851	-0.379221
N93	N	0.321069	0.629050	-0.321492
C94	C	0.378930	0.449793	-0.379243
N95	N	0.321075	0.436523	-0.321522
C96	C	0.672212	0.116228	-0.671901
N97	N	0.730051	0.129501	-0.729634
H98	H	0.356223	0.921358	-1.152913
H99	H	1.279312	0.723205	-0.598359
C100	C	0.672190	0.379019	-0.671869
N101	N	0.730047	0.337825	-0.729601
C102	C	1.091288	0.603329	-0.744478
N103	N	1.140058	0.557283	-0.800672
C104	C	0.603040	0.719203	-1.307906
N105	N	0.616948	0.707823	-1.388370
H106	H	0.652230	0.512496	-0.651934
C107	C	0.709358	0.632138	-0.888149
N108	N	0.751671	0.597481	-0.856416
