data_functionalizedCrystal
_audit_creation_method	'MofGen! by Chris Wilmer'
_symmetry_space_group_name_H-M	'P1'
_symmetry_Int_Tables_number	1
_symmetry_cell_setting	triclinic
loop_
_symmetry_equiv_pos_as_xyz
  x,y,z
_cell_length_a	10.489741
_cell_length_b	14.971482
_cell_length_c	13.448316
_cell_angle_alpha	90.004522
_cell_angle_beta	89.999908
_cell_angle_gamma	95.924109
loop_
_atom_site_label
_atom_site_type_symbol
_atom_site_fract_x
_atom_site_fract_y
_atom_site_fract_z
O1	O	-0.166195	1.187894	0.082671
O2	O	-0.186105	0.927606	0.082675
O3	O	0.009517	1.063673	0.082675
O4	O	-0.361816	1.051827	0.082671
O5	O	0.009519	1.063659	-0.082709
O6	O	-0.186103	0.927593	-0.082709
O7	O	-0.166193	1.187880	-0.082713
Cu8	Cu	-0.176148	1.057735	-0.097812
Cu9	Cu	-0.176150	1.057751	0.097774
O10	O	-0.361815	1.051813	-0.082713
C11	C	-0.185215	0.894270	-0.000016
C12	C	-0.182549	0.794957	-0.000015
C13	C	-0.181292	0.748298	-0.090166
C14	C	-0.178767	0.654985	-0.090167
C15	C	-0.177508	0.608332	-0.000016
C16	C	-0.178760	0.654998	0.090143
C17	C	-0.181276	0.748310	0.090143
C18	C	-0.173519	0.460507	0.090137
C19	C	-0.171006	0.367188	0.090137
C20	C	-0.171010	0.367181	-0.090174
C21	C	-0.173526	0.460493	-0.090174
C22	C	-0.174781	0.507153	-0.000015
C23	C	-0.409337	1.052715	-0.000022
C24	C	-0.550935	1.055392	-0.000023
C25	C	-0.618072	1.141967	-0.000017
C26	C	-0.710666	1.101063	-0.081558
C27	C	-0.710646	1.101056	0.081497
C28	C	-0.641664	1.014452	-0.081632
C29	C	-0.641634	1.014457	0.081497
C30	C	-0.734202	0.973490	-0.000065
C31	C	0.057039	1.062771	-0.000014
C32	C	0.198637	1.060094	-0.000006
C33	C	-0.167083	1.221216	-0.000019
C34	C	-0.169749	1.320529	-0.000015
N35	N	-0.176146	1.057730	-0.235376
C36	C	-0.253635	1.112473	-0.287414
C37	C	-0.253630	1.112485	-0.391517
C38	C	-0.176140	1.057747	-0.443581
C39	C	-0.098642	1.003001	-0.391535
C40	C	-0.098641	1.002996	-0.287434
C41	C	-0.098650	1.003015	-0.608516
C42	C	-0.098652	1.003020	-0.712624
C43	C	-0.253639	1.112504	-0.712599
C44	C	-0.253639	1.112499	-0.608497
C45	C	-0.176141	1.057752	-0.556459
N46	N	-0.176142	1.057763	0.235338
H47	H	-0.177723	0.617001	-0.163578
H48	H	-0.611017	0.977862	0.150439
H49	H	-0.035555	0.958446	-0.755011
H50	H	-0.316745	1.157078	-0.754973
H51	H	-0.035542	0.958436	-0.566149
H52	H	-0.035542	0.958437	-0.433934
Cl53	Cl	-0.811776	0.863491	-0.000121
H54	H	-0.182328	0.786275	-0.163579
H55	H	-0.035541	0.958418	-0.245066
Cl56	Cl	-0.351058	1.181290	-0.221973
Cl57	Cl	-0.175123	0.519140	-0.203509
H58	H	-0.741205	1.137709	0.150432
H59	H	-0.169988	0.329187	-0.163585
H60	H	-0.316728	1.157064	-0.433882
H61	H	-0.174542	0.498494	0.163554
H62	H	-0.177726	0.617007	0.163546
H63	H	-0.169981	0.329206	0.163547
H64	H	-0.316743	1.157067	-0.566110
H65	H	-0.567598	1.213149	-0.000099
Cl66	Cl	-0.182850	0.806969	0.203482
H67	H	-0.741250	1.137689	-0.150498
H68	H	-0.611255	0.977844	-0.150646
