data_functionalizedCrystal
_audit_creation_method	'MofGen! by Chris Wilmer'
_symmetry_space_group_name_H-M	'P1'
_symmetry_Int_Tables_number	1
_symmetry_cell_setting	triclinic
loop_
_symmetry_equiv_pos_as_xyz
  x,y,z
_cell_length_a	33.428889
_cell_length_b	33.428139
_cell_length_c	33.424847
_cell_angle_alpha	60.004234
_cell_angle_beta	60.008465
_cell_angle_gamma	59.994972
loop_
_atom_site_label
_atom_site_type_symbol
_atom_site_fract_x
_atom_site_fract_y
_atom_site_fract_z
O1	O	0.055565	-0.584504	0.488714
O2	O	0.555565	-0.084504	0.988714
O3	O	0.020982	-0.455083	0.393778
O4	O	0.520982	0.044917	0.893778
O5	O	0.102943	-0.536959	0.393689
O6	O	0.602943	-0.036959	0.893689
O7	O	-0.026396	-0.502628	0.488803
O8	O	0.473604	-0.002628	0.988803
O9	O	0.130140	-0.509767	0.420792
O10	O	0.630140	-0.009767	0.920792
O11	O	0.048179	-0.427891	0.420881
O12	O	0.548179	0.072109	0.920881
O13	O	0.082762	-0.557312	0.515817
O14	O	0.582762	-0.057312	1.015817
Cu15	Cu	0.067954	-0.490119	0.470823
Cu16	Cu	0.567954	0.009881	0.970823
Cu17	Cu	0.035790	-0.522276	0.438771
Cu18	Cu	0.535790	-0.022276	0.938771
O19	O	0.000801	-0.475436	0.515906
O20	O	0.500801	0.024564	1.015906
N21	N	0.090577	-0.467504	0.493370
N22	N	0.590577	0.032496	0.993370
N23	N	0.013171	-0.544895	0.416225
N24	N	0.513171	-0.044895	0.916225
C25	C	0.143377	-0.280390	0.546067
C26	C	0.643377	0.219610	1.046067
C27	C	0.143515	-0.414755	0.680369
C28	C	0.643515	0.085245	1.180369
C29	C	0.143392	-0.414735	0.546069
C30	C	0.643392	0.085265	1.046069
C31	C	0.277766	-0.414702	0.545966
C32	C	0.777766	0.085298	1.045966
C33	C	0.158177	-0.324719	0.560828
C34	C	0.658177	0.175281	1.060828
C35	C	0.158255	-0.399967	0.636038
C36	C	0.658255	0.100033	1.136038
C37	C	0.233434	-0.399936	0.560773
C38	C	0.733434	0.100064	1.060773
C39	C	0.158186	-0.399955	0.560829
C40	C	0.658186	0.100045	1.060829
C41	C	0.124540	-0.223964	0.527278
C42	C	0.624540	0.276036	1.027278
C43	C	0.124565	-0.433545	0.527281
C44	C	0.624565	0.066455	1.027281
C45	C	0.177014	-0.381145	0.579617
C46	C	0.677014	0.118855	1.079617
C47	C	0.359814	-0.400540	0.502735
C48	C	0.859814	0.099460	1.002735
C49	C	0.411105	-0.417624	0.485606
C50	C	0.911105	0.082376	0.985606
C51	C	0.411136	-0.500620	0.517255
C52	C	0.911136	-0.000620	1.017255
C53	C	0.359845	-0.483534	0.534385
C54	C	0.859845	0.016466	1.034385
C55	C	0.136887	-0.198305	0.476855
C56	C	0.636887	0.301695	0.976855
C57	C	0.119761	-0.147011	0.459777
C58	C	0.619761	0.352989	0.959777
C59	C	0.077945	-0.147038	0.543547
C60	C	0.577945	0.352962	1.043547
C61	C	0.095072	-0.198332	0.560625
C62	C	0.595072	0.301668	1.060625
C63	C	0.074134	-0.421169	0.539710
C64	C	0.574134	0.078831	1.039710
C65	C	0.057023	-0.438269	0.522625
C66	C	0.557023	0.061731	1.022625
C67	C	0.140770	-0.480120	0.480694
C68	C	0.640770	0.019880	0.980694
C69	C	0.157883	-0.463020	0.497773
C70	C	0.657883	0.036980	0.997773
C71	C	0.074339	-0.421208	0.762475
C72	C	0.574339	0.078792	1.262475
C73	C	0.057288	-0.438323	0.813768
C74	C	0.557288	0.061677	1.313768
C75	C	0.141075	-0.480183	0.813699
C76	C	0.641075	0.019817	1.313699
C77	C	0.158125	-0.463069	0.762404
C78	C	0.658125	0.036931	1.262404
C79	C	0.124756	-0.433580	0.736794
C80	C	0.624756	0.066420	1.236794
C81	C	0.334186	-0.433494	0.527123
C82	C	0.834186	0.066506	1.027123
C83	C	-0.173769	-0.597444	0.363037
C84	C	0.326231	-0.097444	0.863037
C85	C	-0.039302	-0.597595	0.228856
C86	C	0.460698	-0.097595	0.728856
C87	C	-0.039496	-0.597587	0.363300
C88	C	0.460504	-0.097587	0.863300
C89	C	-0.039512	-0.731889	0.363237
C90	C	0.460488	-0.231889	0.863237
C91	C	-0.129442	-0.612265	0.348329
C92	C	0.370558	-0.112265	0.848329
C93	C	-0.054138	-0.612351	0.273187
C94	C	0.445862	-0.112351	0.773187
C95	C	-0.054257	-0.687554	0.348440
C96	C	0.445743	-0.187554	0.848440
C97	C	-0.054247	-0.612346	0.348477
C98	C	0.445753	-0.112346	0.848477
C99	C	-0.230191	-0.578579	0.381758
C100	C	0.269809	-0.078579	0.881758
C101	C	-0.020722	-0.578803	0.382168
C102	C	0.479278	-0.078803	0.882168
C103	C	-0.073020	-0.631130	0.329609
C104	C	0.426980	-0.131130	0.829609
C105	C	-0.053713	-0.813916	0.406386
C106	C	0.446287	-0.313916	0.906386
C107	C	-0.036654	-0.865210	0.423504
C108	C	0.463346	-0.365210	0.923504
C109	C	0.046338	-0.865293	0.391984
C110	C	0.546338	-0.365293	0.891984
C111	C	0.029278	-0.813999	0.374865
C112	C	0.529278	-0.313999	0.874865
C113	C	-0.255900	-0.590938	0.432169
C114	C	0.244100	-0.090938	0.932169
C115	C	-0.307191	-0.573786	0.449185
C116	C	0.192809	-0.073786	0.949185
C117	C	-0.307060	-0.531922	0.365377
C118	C	0.192940	-0.031922	0.865377
C119	C	-0.255769	-0.549074	0.348360
C120	C	0.244231	-0.049074	0.848360
C121	C	-0.033081	-0.528377	0.369764
C122	C	0.466919	-0.028377	0.869764
C123	C	-0.016014	-0.511306	0.386922
C124	C	0.483986	-0.011306	0.886922
C125	C	0.025770	-0.595083	0.428877
C126	C	0.525770	-0.095083	0.928877
C127	C	0.008703	-0.612156	0.411725
C128	C	0.508703	-0.112156	0.911725
C129	C	-0.032755	-0.528393	0.146761
C130	C	0.467245	-0.028393	0.646761
C131	C	-0.015585	-0.511324	0.095468
C132	C	0.484415	-0.011324	0.595468
C133	C	0.026262	-0.595106	0.095516
C134	C	0.526262	-0.095106	0.595516
C135	C	0.009094	-0.612174	0.146811
C136	C	0.509094	-0.112174	0.646811
C137	C	-0.020417	-0.578816	0.172432
C138	C	0.479583	-0.078816	0.672432
C139	C	-0.020748	-0.788312	0.382068
C140	C	0.479252	-0.288312	0.882068
N141	N	0.436037	-0.467415	0.493101
N142	N	0.936037	0.032585	0.993101
O143	O	0.592642	-0.471896	0.376066
O144	O	1.092642	0.028104	0.876066
O145	O	0.592838	-0.567146	0.505347
O146	O	1.092838	-0.067146	1.005347
O147	O	0.592754	-0.566928	0.423360
O148	O	1.092754	-0.066928	0.923360
O149	O	0.592727	-0.472113	0.458053
O150	O	1.092727	0.027887	0.958053
O151	O	0.511269	-0.539835	0.450606
O152	O	1.011269	-0.039835	0.950606
O153	O	0.511353	-0.540052	0.532594
O154	O	1.011353	-0.040052	1.032594
O155	O	0.511157	-0.444802	0.403312
O156	O	1.011157	0.055198	0.903312
Cu157	Cu	0.503815	-0.489954	0.470441
Cu158	Cu	1.003815	0.010046	0.970441
Cu159	Cu	0.600180	-0.521995	0.438219
Cu160	Cu	1.100180	-0.021995	0.938219
O161	O	0.511242	-0.445020	0.485300
O162	O	1.011242	0.054980	0.985300
N163	N	0.667959	-0.544533	0.415554
N164	N	1.167959	-0.044533	0.915554
N165	N	0.090544	-0.122107	0.493359
N166	N	0.590544	0.377893	0.993359
O167	O	-0.026406	0.034587	0.488773
O168	O	0.473594	0.534587	0.988773
O169	O	0.102877	0.034627	0.393499
O170	O	0.602877	0.534627	0.893499
O171	O	0.020848	0.034591	0.393771
O172	O	0.520848	0.534591	0.893771
O173	O	0.055623	0.034623	0.488500
O174	O	0.555623	0.534623	0.988500
O175	O	0.048051	-0.046899	0.420925
O176	O	0.548051	0.453101	0.920925
O177	O	0.130080	-0.046864	0.420653
O178	O	0.630080	0.453136	0.920653
O179	O	0.000796	-0.046903	0.515927
O180	O	0.500796	0.453097	1.015927
Cu181	Cu	0.067922	-0.054324	0.470769
Cu182	Cu	0.567922	0.445676	0.970769
Cu183	Cu	0.035752	0.042048	0.438656
Cu184	Cu	0.535752	0.542048	0.938656
O185	O	0.082825	-0.046867	0.515655
O186	O	0.582825	0.453133	1.015655
N187	N	0.013123	0.109830	0.416068
N188	N	0.513123	0.609830	0.916068
N189	N	0.090892	-0.467554	0.838649
N190	N	0.590892	0.032446	1.338649
O191	O	0.086330	-0.584488	0.995334
O192	O	0.586330	-0.084488	1.495334
O193	O	-0.008902	-0.455160	0.995379
O194	O	0.491098	0.044840	1.495379
O195	O	-0.008679	-0.537172	0.995355
O196	O	0.491321	-0.037172	1.495355
O197	O	0.086107	-0.502475	0.995358
O198	O	0.586107	-0.002475	1.495358
O199	O	0.018452	-0.509990	0.913868
O200	O	0.518452	-0.009990	1.413868
O201	O	0.018230	-0.427978	0.913891
O202	O	0.518230	0.072022	1.413891
O203	O	0.113461	-0.557306	0.913847
O204	O	0.613461	-0.057306	1.413847
Cu205	Cu	0.068323	-0.490160	0.906429
Cu206	Cu	0.568323	0.009840	1.406429
Cu207	Cu	0.036237	-0.522306	1.002797
Cu208	Cu	0.536237	-0.022306	1.502797
O209	O	0.113239	-0.475293	0.913870
O210	O	0.613239	0.024707	1.413870
N211	N	0.013667	-0.544916	1.070577
N212	N	0.513667	-0.044916	1.570577
C213	C	0.031339	-0.425179	0.394250
C214	C	0.531339	0.074821	0.894250
C215	C	0.132837	-0.526572	0.394139
C216	C	0.632837	-0.026572	0.894139
C217	C	0.072405	-0.587216	0.515344
C218	C	0.572405	-0.087216	1.015344
C219	C	-0.029093	-0.485823	0.515455
C220	C	0.470907	0.014177	1.015455
C221	C	0.552119	-0.566716	0.535258
C222	C	1.052119	-0.066716	1.035258
C223	C	0.552016	-0.566447	0.433726
C224	C	1.052016	-0.066447	0.933726
C225	C	0.551873	-0.445232	0.373402
C226	C	1.051873	0.054768	0.873402
C227	C	0.551980	-0.445502	0.474933
C228	C	1.051980	0.054498	0.974933
C229	C	0.132731	-0.006013	0.393923
C230	C	0.632731	0.493987	0.893923
C231	C	0.031182	-0.006158	0.394293
C232	C	0.531182	0.493842	0.894293
C233	C	-0.029092	-0.006163	0.515469
C234	C	0.470908	0.493837	1.015469
C235	C	0.072491	-0.006119	0.515133
C236	C	0.572491	0.493881	1.015133
C237	C	-0.008451	-0.425276	0.954641
C238	C	0.491549	0.074724	1.454641
C239	C	-0.008170	-0.526833	0.954596
C240	C	0.491830	-0.026833	1.454596
C241	C	0.113010	-0.587190	0.954585
C242	C	0.613010	-0.087190	1.454585
C243	C	0.112735	-0.485627	0.954611
C244	C	0.612735	0.014373	1.454611
H245	H	0.016234	-0.428240	0.834672
H246	H	0.516234	0.071760	1.334672
C247	C	0.204619	-0.503054	0.340651
C248	C	0.704619	-0.003054	0.840651
C249	C	0.182982	-0.536442	0.353815
C250	C	0.682982	-0.036442	0.853815
H251	H	0.235576	-0.509147	0.315754
H252	H	0.735576	-0.009147	0.815754
H253	H	0.208908	-0.506742	0.368483
H254	H	0.708908	-0.006742	0.868483
H255	H	0.184051	-0.470629	0.328780
H256	H	0.684051	0.029371	0.828780
H257	H	0.203549	-0.568867	0.365690
H258	H	0.703549	-0.068867	0.865690
H259	H	0.178696	-0.532758	0.325978
H260	H	0.678696	-0.032758	0.825978
H261	H	0.079939	-0.006110	0.544893
H262	H	0.579939	0.493890	1.044893
C263	C	0.510181	-0.619849	0.457065
C264	C	1.010181	-0.119849	0.957065
C265	C	0.552031	-0.606660	0.423711
C266	C	1.052031	-0.106660	0.923711
H267	H	0.510192	-0.644677	0.450883
H268	H	1.010192	-0.144677	0.950883
H269	H	0.481746	-0.592002	0.453439
H270	H	0.981746	-0.092002	0.953439
H271	H	0.510227	-0.631821	0.489494
H272	H	1.010227	-0.131821	0.989494
H273	H	0.551983	-0.594685	0.391282
H274	H	1.051983	-0.094685	0.891282
H275	H	0.580474	-0.634512	0.427332
H276	H	1.080474	-0.134512	0.927332
C277	C	0.130183	-0.667640	0.538003
C278	C	0.630183	-0.167640	1.038003
C279	C	0.082376	-0.637405	0.555599
C280	C	0.582376	-0.137405	1.055599
H281	H	0.136336	-0.698626	0.562854
H282	H	0.636336	-0.198626	1.062854
H283	H	0.152801	-0.652925	0.529068
H284	H	0.652801	-0.152925	1.029068
H285	H	0.133832	-0.671881	0.510157
H286	H	0.633832	-0.171881	1.010157
H287	H	0.078728	-0.633162	0.583443
H288	H	0.578728	-0.133162	1.083443
H289	H	0.059752	-0.652124	0.564540
H290	H	0.559752	-0.152124	1.064540
H291	H	0.023949	-0.388000	0.364433
H292	H	0.523949	0.112000	0.864433
H293	H	-0.066220	-0.006175	0.545378
H294	H	0.433780	0.493825	1.045378
H295	H	-0.038348	-0.388133	0.954654
H296	H	0.461652	0.111867	1.454654
H297	H	0.142910	-0.624330	0.954565
H298	H	0.642910	-0.124330	1.454565
C299	C	-0.030693	-0.584651	0.954516
C300	C	0.469307	-0.084651	1.454516
C301	C	-0.048354	-0.536834	0.954547
C302	C	0.451646	-0.036834	1.454547
H303	H	-0.055501	-0.590823	0.954483
H304	H	0.444499	-0.090823	1.454483
H305	H	-0.021783	-0.607260	0.982936
H306	H	0.478217	-0.107260	1.482936
H307	H	-0.002821	-0.588294	0.926103
H308	H	0.497179	-0.088294	1.426103
H309	H	-0.076224	-0.533192	0.982962
H310	H	0.423776	-0.033192	1.482962
H311	H	-0.057270	-0.514219	0.926124
H312	H	0.442730	-0.014219	1.426124
H313	H	0.142514	-0.478200	0.954606
H314	H	0.642514	0.021800	1.454606
H315	H	-0.066242	-0.478508	0.545321
H316	H	0.433758	0.021492	1.045321
H317	H	0.552170	-0.596617	0.572390
H318	H	1.052170	-0.096617	1.072390
H319	H	0.047163	-0.397193	0.741627
H320	H	0.547163	0.102807	1.241627
H321	H	0.551811	-0.415327	0.336274
H322	H	1.051811	0.084673	0.836274
H323	H	0.551974	-0.415718	0.482355
H324	H	1.051974	0.084282	0.982355
H325	H	0.085016	-0.219221	0.601683
H326	H	0.585016	0.280779	1.101683
H327	H	0.168250	-0.504186	0.834549
H328	H	0.668250	-0.004186	1.334549
H329	H	0.047002	-0.397168	0.563734
H330	H	0.547002	0.102832	1.063734
C331	C	0.234798	-0.527685	0.746558
C332	C	0.734798	-0.027685	1.246558
C333	C	0.213548	-0.476670	0.734179
C334	C	0.713548	0.023330	1.234179
H335	H	0.269014	-0.536080	0.729136
H336	H	0.769014	-0.036080	1.229136
H337	H	0.220386	-0.539480	0.738162
H338	H	0.720386	-0.039480	1.238162
H339	H	0.229413	-0.542090	0.780773
H340	H	0.729413	-0.042090	1.280773
H341	H	0.218930	-0.462265	0.699964
H342	H	0.718930	0.037735	1.199964
H343	H	0.227965	-0.464870	0.742572
H344	H	0.727965	0.035130	1.242572
C345	C	-0.024044	-0.395200	0.565805
C346	C	0.475956	0.104800	1.065805
C347	C	0.001589	-0.424675	0.536290
C348	C	0.501589	0.075325	1.036290
H349	H	-0.058266	-0.386812	0.574244
H350	H	0.441734	0.113188	1.074244
H351	H	-0.015659	-0.366191	0.548404
H352	H	0.484341	0.133809	1.048404
H353	H	-0.015595	-0.412614	0.594789
H354	H	0.484405	0.087386	1.094789
H355	H	-0.006858	-0.407260	0.507305
H356	H	0.493142	0.092740	1.007305
H357	H	-0.006800	-0.453689	0.553691
H358	H	0.493200	0.046311	1.053691
H359	H	0.169783	-0.005775	0.363939
H360	H	0.669783	0.494225	0.863939
H361	H	0.167905	-0.504126	0.456671
H362	H	0.667905	-0.004126	0.956671
C363	C	0.009704	-0.048090	0.370826
C364	C	0.509704	0.451910	0.870826
C365	C	0.021145	-0.006183	0.354113
C366	C	0.521145	0.493817	0.854113
H367	H	0.003514	-0.048110	0.346018
H368	H	0.503514	0.451890	0.846018
H369	H	-0.018602	-0.048089	0.399341
H370	H	0.481398	0.451911	0.899341
H371	H	0.036445	-0.076494	0.378444
H372	H	0.536445	0.423506	0.878444
H373	H	-0.005598	0.022221	0.346497
H374	H	0.494402	0.522221	0.846497
H375	H	0.049454	-0.006179	0.325589
H376	H	0.549454	0.493821	0.825589
C377	C	0.234495	-0.459202	0.433092
C378	C	0.734495	0.040798	0.933092
C379	C	0.213317	-0.476614	0.484110
C380	C	0.713317	0.023386	0.984110
H381	H	0.268717	-0.467596	0.424657
H382	H	0.768717	0.032404	0.924657
H383	H	0.220064	-0.424598	0.421319
H384	H	0.720064	0.075402	0.921319
H385	H	0.229072	-0.473611	0.418701
H386	H	0.729072	0.026389	0.918701
H387	H	0.218737	-0.462203	0.498500
H388	H	0.718737	0.037797	0.998500
H389	H	0.227752	-0.511225	0.495888
H390	H	0.727752	-0.011225	0.995888
C391	C	0.344061	-0.543652	0.530068
C392	C	0.844061	-0.043652	1.030068
C393	C	0.331681	-0.519763	0.561190
C394	C	0.831681	-0.019763	1.061190
H395	H	0.326672	-0.566018	0.546615
H396	H	0.826672	-0.066018	1.046615
H397	H	0.378278	-0.560981	0.520908
H398	H	0.878278	-0.060981	1.020908
H399	H	0.335622	-0.520156	0.501579
H400	H	0.835622	-0.020156	1.001579
H401	H	0.340124	-0.543259	0.589677
H402	H	0.840124	-0.043259	1.089677
H403	H	0.297457	-0.502433	0.570357
H404	H	0.797457	-0.002433	1.070357
C405	C	0.426841	-0.346786	0.416794
C406	C	0.926841	0.153214	0.916794
C407	C	0.439280	-0.381401	0.458792
C408	C	0.939280	0.118599	0.958792
H409	H	0.444239	-0.324426	0.400238
H410	H	0.944239	0.175574	0.900238
H411	H	0.392627	-0.329449	0.425959
H412	H	0.892627	0.170551	0.925959
H413	H	0.435231	-0.363007	0.395698
H414	H	0.935231	0.136993	0.895698
H415	H	0.430887	-0.365180	0.479890
H416	H	0.930887	0.134820	0.979890
H417	H	0.473503	-0.398739	0.449628
H418	H	0.973503	0.101261	0.949628
C419	C	0.302087	-0.327811	0.467076
C420	C	0.802087	0.172189	0.967076
C421	C	0.331608	-0.345533	0.494753
C422	C	0.831608	0.154467	0.994753
H423	H	0.284678	-0.293852	0.462145
H424	H	0.784678	0.206148	0.962145
H425	H	0.279483	-0.344988	0.484053
H426	H	0.779483	0.155012	0.984053
H427	H	0.322081	-0.332567	0.436255
H428	H	0.822081	0.167433	0.936255
H429	H	0.311613	-0.340780	0.525575
H430	H	0.811613	0.159220	1.025575
H431	H	0.354214	-0.328350	0.477776
H432	H	0.854214	0.171650	0.977776
H433	H	0.053957	-0.126168	0.570702
H434	H	0.553957	0.373832	1.070702
C435	C	0.176490	-0.193122	0.392332
C436	C	0.676490	0.306878	0.892332
C437	C	0.169276	-0.226478	0.440198
C438	C	0.669276	0.273522	0.940198
H439	H	0.196483	-0.210518	0.369704
H440	H	0.696483	0.289482	0.869704
H441	H	0.192148	-0.173110	0.387392
H442	H	0.692148	0.326890	0.887392
H443	H	0.145729	-0.173123	0.387437
H444	H	0.645729	0.326877	0.887437
H445	H	0.200037	-0.246475	0.445095
H446	H	0.700037	0.253525	0.945095
H447	H	0.153619	-0.246499	0.445140
H448	H	0.653619	0.253501	0.945140
H449	H	0.432025	-0.541365	0.523165
H450	H	0.932025	-0.041365	1.023165
H451	H	0.129813	-0.126117	0.418717
H452	H	0.629813	0.373883	0.918717
H453	H	-0.025639	-0.470264	0.074572
H454	H	0.474361	0.029736	0.574572
H455	H	0.050281	-0.622271	0.074658
H456	H	0.550281	-0.122271	0.574658
C457	C	-0.039532	-0.462266	0.162576
C458	C	0.460468	0.037734	0.662576
C459	C	-0.065197	-0.491723	0.174921
C460	C	0.434803	0.008277	0.674921
H461	H	-0.059559	-0.439630	0.179963
H462	H	0.440441	0.060370	0.679963
H463	H	-0.031075	-0.444889	0.128358
H464	H	0.468925	0.055111	0.628358
H465	H	-0.010560	-0.482303	0.171043
H466	H	0.489440	0.017697	0.671043
H467	H	-0.094167	-0.471686	0.166451
H468	H	0.405833	0.028314	0.666451
H469	H	-0.073660	-0.509101	0.209146
H470	H	0.426340	-0.009101	0.709146
C471	C	0.005281	-0.688801	0.162577
C472	C	0.505281	-0.188801	0.662577
C473	C	0.022654	-0.667603	0.175028
C474	C	0.522654	-0.167603	0.675028
H475	H	0.013649	-0.723020	0.180000
H476	H	0.513649	-0.223020	0.680000
H477	H	0.019731	-0.683410	0.128367
H478	H	0.519731	-0.183410	0.628367
H479	H	-0.029321	-0.674355	0.170930
H480	H	0.470679	-0.174355	0.670930
H481	H	0.057256	-0.682048	0.166673
H482	H	0.557256	-0.182048	0.666673
H483	H	0.008206	-0.672999	0.209247
H484	H	0.508206	-0.172999	0.709247
C485	C	-0.072679	-0.443849	0.330026
C486	C	0.427321	0.056151	0.830026
C487	C	-0.065431	-0.491715	0.337282
C488	C	0.434569	0.008285	0.837282
H489	H	-0.092654	-0.421216	0.309974
H490	H	0.407346	0.078784	0.809974
H491	H	-0.041931	-0.438956	0.314413
H492	H	0.458069	0.061044	0.814413
H493	H	-0.088376	-0.438913	0.360769
H494	H	0.411624	0.061087	0.860769
H495	H	-0.049731	-0.496652	0.306539
H496	H	0.450269	0.003348	0.806539
H497	H	-0.096185	-0.496610	0.352893
H498	H	0.403815	0.003390	0.852893
H499	H	-0.026079	-0.470245	0.376824
H500	H	0.473921	0.029755	0.876824
H501	H	0.018765	-0.653217	0.421828
H502	H	0.518765	-0.153217	0.921828
C503	C	0.100881	-0.661277	0.435754
C504	C	0.600881	-0.161277	0.935754
C505	C	0.058120	-0.631749	0.461363
C506	C	0.558120	-0.131749	0.961363
H507	H	0.120850	-0.683913	0.455811
H508	H	0.620850	-0.183913	0.955811
H509	H	0.118314	-0.641291	0.406776
H510	H	0.618314	-0.141291	0.906776
H511	H	0.092479	-0.678658	0.427314
H512	H	0.592479	-0.178658	0.927314
H513	H	0.066522	-0.614365	0.469799
H514	H	0.566522	-0.114365	0.969799
H515	H	0.040684	-0.651738	0.490349
H516	H	0.540684	-0.151738	0.990349
C517	C	0.113026	-0.819241	0.345437
C518	C	0.613026	-0.319241	0.845437
C519	C	0.065516	-0.785858	0.348137
C520	C	0.565516	-0.285858	0.848137
H521	H	0.135397	-0.801867	0.328939
H522	H	0.635397	-0.301867	0.828939
H523	H	0.121622	-0.839248	0.327952
H524	H	0.621622	-0.339248	0.827952
H525	H	0.114280	-0.839244	0.377591
H526	H	0.614280	-0.339244	0.877591
H527	H	0.064261	-0.765858	0.315982
H528	H	0.564261	-0.265858	0.815982
H529	H	0.056917	-0.765842	0.365622
H530	H	0.556917	-0.265842	0.865622
H531	H	-0.094449	-0.793002	0.412253
H532	H	0.405551	-0.293002	0.912253
C533	C	0.108263	-0.923017	0.429534
C534	C	0.608263	-0.423017	0.929534
C535	C	0.101327	-0.893529	0.384069
C536	C	0.601327	-0.393529	0.884069
H537	H	0.142212	-0.940448	0.424646
H538	H	0.642212	-0.440448	0.924646
H539	H	0.091074	-0.945605	0.446462
H540	H	0.591074	-0.445605	0.946462
H541	H	0.096214	-0.902996	0.448324
H542	H	0.596214	-0.402996	0.948324
H543	H	0.113373	-0.913551	0.365281
H544	H	0.613373	-0.413551	0.865281
H545	H	0.118523	-0.870939	0.367134
H546	H	0.618523	-0.370939	0.867134
H547	H	-0.235077	-0.614964	0.459366
H548	H	0.264923	-0.114964	0.959366
C549	C	-0.096735	-0.880944	0.419061
C550	C	0.403265	-0.380944	0.919061
C551	C	-0.072889	-0.893358	0.450236
C552	C	0.427111	-0.393358	0.950236
H553	H	-0.119106	-0.898321	0.435569
H554	H	0.380894	-0.398321	0.935569
H555	H	-0.073223	-0.889374	0.390579
H556	H	0.426777	-0.389374	0.890579
H557	H	-0.114055	-0.846719	0.409900
H558	H	0.385945	-0.346719	0.909900
H559	H	-0.055566	-0.927584	0.459395
H560	H	0.444434	-0.427584	0.959395
H561	H	-0.096405	-0.884931	0.478727
H562	H	0.403595	-0.384931	0.978727
C563	C	-0.302171	-0.616904	0.530319
C564	C	0.197829	-0.116904	1.030319
C565	C	-0.335455	-0.587377	0.504600
C566	C	0.164545	-0.087377	1.004600
H567	H	-0.319620	-0.625298	0.564530
H568	H	0.180380	-0.125298	1.064530
H569	H	-0.282162	-0.599529	0.521957
H570	H	0.217838	-0.099529	1.021957
H571	H	-0.282164	-0.645913	0.521917
H572	H	0.217836	-0.145913	1.021917
H573	H	-0.355460	-0.558366	0.512999
H574	H	0.144540	-0.058366	1.012999
H575	H	-0.355472	-0.604752	0.512965
H576	H	0.144528	-0.104752	1.012965
H577	H	-0.327887	-0.507903	0.338181
H578	H	0.172113	-0.007903	0.838181
C579	C	-0.260796	-0.505969	0.267230
C580	C	0.239204	-0.005969	0.767230
C581	C	-0.227511	-0.535490	0.292947
C582	C	0.272489	-0.035490	0.792947
H583	H	-0.243349	-0.497584	0.233019
H584	H	0.256651	0.002416	0.733019
H585	H	-0.280799	-0.476959	0.275623
H586	H	0.219201	0.023041	0.775623
H587	H	-0.280809	-0.523348	0.275602
H588	H	0.219191	-0.023348	0.775602
H589	H	-0.207500	-0.518109	0.284578
H590	H	0.292500	-0.018109	0.784578
H591	H	-0.207500	-0.564504	0.284550
H592	H	0.292500	-0.064504	0.784550
