data_functionalizedCrystal
_audit_creation_method	'MofGen! by Chris Wilmer'
_symmetry_space_group_name_H-M	'P1'
_symmetry_Int_Tables_number	1
_symmetry_cell_setting	triclinic
loop_
_symmetry_equiv_pos_as_xyz
  x,y,z
_cell_length_a	35.282862
_cell_length_b	35.277630
_cell_length_c	35.277682
_cell_angle_alpha	59.997874
_cell_angle_beta	90.007379
_cell_angle_gamma	60.014884
loop_
_atom_site_label
_atom_site_type_symbol
_atom_site_fract_x
_atom_site_fract_y
_atom_site_fract_z
O1	O	-0.322992	-0.271409	0.011271
O2	O	-0.267886	-0.193770	-0.011228
O3	O	-0.267883	-0.271392	0.066395
O4	O	-0.322995	-0.193787	-0.066351
O5	O	-0.204856	-0.334419	0.066394
O6	O	-0.204858	-0.256797	-0.011228
O7	O	-0.259965	-0.334436	0.011271
Zn8	Zn	-0.222404	-0.305624	0.000022
Zn9	Zn	-0.305446	-0.222582	0.000022
O10	O	-0.259967	-0.256814	-0.066351
C11	C	-0.163433	-0.071367	-0.023519
C12	C	-0.186817	-0.024593	-0.020298
C13	C	-0.117826	-0.094057	-0.023838
C14	C	-0.163435	-0.140007	-0.023524
C15	C	-0.186821	-0.166622	-0.020308
C16	C	-0.117828	-0.162592	-0.023843
C17	C	-0.094811	-0.139990	-0.023519
C18	C	-0.044823	-0.166587	-0.020298
C19	C	-0.186346	-0.094074	-0.023843
C20	C	-0.004438	-0.188075	-0.017694
C21	C	-0.205709	0.013195	-0.017695
C22	C	-0.205714	-0.188126	-0.017709
C23	C	0.046227	-0.215033	-0.014429
C24	C	-0.229409	0.060603	-0.014430
C25	C	-0.229416	-0.215102	-0.014450
C26	C	-0.431891	-0.466029	0.034178
C27	C	-0.477498	-0.443446	0.034500
C28	C	-0.431890	-0.534674	0.034181
C29	C	-0.477497	-0.511986	0.034503
C30	C	-0.500513	-0.466052	0.034181
C31	C	-0.408980	-0.511964	0.034500
C32	C	-0.320738	-0.411648	0.021744
C33	C	-0.298988	-0.386521	0.018228
C34	C	-0.322436	-0.339556	0.016463
C35	C	-0.298858	-0.312304	0.012643
C36	C	-0.367636	-0.317722	0.018218
C37	C	-0.389381	-0.342854	0.021740
C38	C	-0.365930	-0.389818	0.023503
C39	C	-0.665995	-0.342487	0.021756
C40	C	-0.712857	-0.317230	0.018243
C41	C	-0.736368	-0.338926	0.016479
C42	C	-0.787180	-0.311541	0.012664
C43	C	-0.713009	-0.385887	0.018234
C44	C	-0.666146	-0.411148	0.021755
C45	C	-0.642642	-0.389440	0.023513
C46	C	-0.320735	-0.687746	0.021755
C47	C	-0.298986	-0.731099	0.018236
C48	C	-0.322434	-0.752859	0.016474
C49	C	-0.298855	-0.799864	0.012656
C50	C	-0.367631	-0.731262	0.018227
C51	C	-0.389379	-0.687909	0.021744
C52	C	-0.365925	-0.666157	0.023512
C53	C	-0.389514	-0.417063	0.027317
C54	C	-0.408311	-0.438781	0.030360
C55	C	-0.408310	-0.581679	0.030365
C56	C	-0.389512	-0.619148	0.027325
C57	C	-0.551325	-0.438663	0.030366
C58	C	-0.591828	-0.416832	0.027326
C59	C	-0.431897	-0.061990	-0.438512
C60	C	-0.477504	-0.016062	-0.461431
C61	C	-0.431897	-0.061989	-0.369869
C62	C	-0.477504	-0.016061	-0.392893
C63	C	-0.500520	0.006634	-0.438513
C64	C	-0.408985	-0.084580	-0.392891
C65	C	-0.320740	-0.185574	-0.480424
C66	C	-0.298988	-0.210840	-0.502029
C67	C	-0.322437	-0.189155	-0.547237
C68	C	-0.298857	-0.216553	-0.570661
C69	C	-0.367637	-0.142201	-0.570839
C70	C	-0.389383	-0.116935	-0.549237
C71	C	-0.365932	-0.138624	-0.504027
C72	C	-0.666003	0.159689	-0.549704
C73	C	-0.712866	0.203039	-0.571463
C74	C	-0.736377	0.224784	-0.548010
C75	C	-0.787190	0.271781	-0.571594
C76	C	-0.713019	0.203180	-0.502796
C77	C	-0.666156	0.159838	-0.481041
C78	C	-0.642651	0.138093	-0.504500
C79	C	-0.320742	-0.185572	-0.204335
C80	C	-0.298993	-0.210841	-0.157455
C81	C	-0.322442	-0.189156	-0.133940
C82	C	-0.298863	-0.216554	-0.083110
C83	C	-0.367640	-0.142206	-0.157305
C84	C	-0.389387	-0.116941	-0.204182
C85	C	-0.365932	-0.138626	-0.227695
C86	C	-0.389518	-0.111226	-0.480605
C87	C	-0.408316	-0.089387	-0.461934
C88	C	-0.408317	-0.089386	-0.319041
C89	C	-0.389519	-0.111225	-0.278525
C90	C	-0.551333	0.053630	-0.462102
C91	C	-0.591836	0.091093	-0.480906
O92	O	0.196064	-0.334315	0.011291
O93	O	0.063358	-0.256731	-0.011208
O94	O	0.140952	-0.334333	0.066415
O95	O	0.118470	-0.256712	-0.066331
O96	O	0.140954	-0.271290	0.066419
O97	O	0.063360	-0.193687	-0.011203
O98	O	0.196065	-0.271272	0.011296
Zn99	Zn	0.129713	-0.222470	0.000047
Zn100	Zn	0.129711	-0.305532	0.000041
O101	O	0.118472	-0.193669	-0.066327
O102	O	-0.259958	0.184752	0.011294
O103	O	-0.204850	0.074523	-0.011204
O104	O	-0.204852	0.074516	0.066418
O105	O	-0.259956	0.184759	-0.066328
O106	O	-0.267881	0.074500	0.066413
O107	O	-0.267879	0.074507	-0.011209
O108	O	-0.322987	0.184736	0.011289
Zn109	Zn	-0.305440	0.129619	0.000039
Zn110	Zn	-0.222397	0.129640	0.000045
O111	O	-0.322985	0.184743	-0.066333
O112	O	-0.936651	0.397377	-0.602582
O113	O	-0.803947	0.287166	-0.547454
O114	O	-0.881541	0.287141	-0.547452
O115	O	-0.859057	0.397402	-0.602584
O116	O	-0.881540	0.287140	-0.610498
O117	O	-0.803945	0.287165	-0.610500
O118	O	-0.936650	0.397376	-0.665628
Zn119	Zn	-0.870297	0.342270	-0.648074
Zn120	Zn	-0.870299	0.342272	-0.565008
O121	O	-0.859055	0.397401	-0.665630
O122	O	-0.267883	-0.271392	-0.665316
O123	O	-0.322991	-0.193790	-0.610192
O124	O	-0.322990	-0.271411	-0.610189
O125	O	-0.267884	-0.193772	-0.665319
O126	O	-0.259962	-0.334439	-0.547142
O127	O	-0.259963	-0.256818	-0.547145
O128	O	-0.204854	-0.334421	-0.602269
Zn129	Zn	-0.222402	-0.305627	-0.564697
Zn130	Zn	-0.305444	-0.222584	-0.647764
O131	O	-0.204855	-0.256800	-0.602272
C132	C	-0.094813	-0.456770	0.293256
C133	C	-0.044826	-0.503538	0.316647
C134	C	-0.117829	-0.434075	0.316174
C135	C	-0.163436	-0.388147	0.224612
C136	C	-0.186821	-0.361543	0.174609
C137	C	-0.186347	-0.365556	0.247634
C138	C	-0.163436	-0.388147	0.293255
C139	C	-0.186820	-0.361543	0.316646
C140	C	-0.117829	-0.434074	0.247635
C141	C	-0.205712	-0.340049	0.335543
C142	C	-0.004441	-0.541321	0.335545
C143	C	-0.205713	-0.340049	0.134212
C144	C	-0.229413	-0.313085	0.359250
C145	C	0.046224	-0.588722	0.359254
C146	C	-0.229414	-0.313084	0.083532
C147	C	0.153249	-0.388083	0.293279
C148	C	0.150031	-0.361476	0.316673
C149	C	0.153567	-0.434023	0.316196
C150	C	0.153250	-0.388078	0.224634
C151	C	0.150034	-0.361466	0.174632
C152	C	0.153569	-0.434018	0.247655
C153	C	0.153247	-0.456723	0.293276
C154	C	0.150026	-0.503506	0.316665
C155	C	0.153571	-0.365483	0.247659
C156	C	0.147424	-0.541301	0.335561
C157	C	0.147430	-0.339979	0.335572
C158	C	0.147435	-0.339965	0.134235
C159	C	0.144160	-0.588718	0.359267
C160	C	0.144168	-0.313012	0.359282
C161	C	0.144174	-0.312992	0.083555
C162	C	-0.163434	-0.140053	0.293267
C163	C	-0.186820	-0.166671	0.316654
C164	C	-0.117827	-0.162642	0.316187
C165	C	-0.163433	-0.071402	0.224628
C166	C	-0.186818	-0.024619	0.174627
C167	C	-0.117826	-0.094095	0.247653
C168	C	-0.094810	-0.140036	0.293272
C169	C	-0.044822	-0.166636	0.316665
C170	C	-0.186346	-0.094112	0.247648
C171	C	-0.004437	-0.188127	0.335563
C172	C	-0.205713	-0.188177	0.335549
C173	C	-0.205710	0.013177	0.134231
C174	C	0.046228	-0.215088	0.359273
C175	C	-0.229415	-0.215157	0.359253
C176	C	-0.229411	0.060593	0.083553
C177	C	0.095599	0.006517	-0.438489
C178	C	0.095278	-0.016183	-0.461409
C179	C	0.095595	-0.062127	-0.369847
C180	C	0.095274	-0.084723	-0.392871
C181	C	0.095597	-0.062123	-0.438492
C182	C	0.095276	-0.016187	-0.392868
C183	C	0.108028	0.159622	-0.480399
C184	C	0.111543	0.202986	-0.502003
C185	C	0.113308	0.224740	-0.547210
C186	C	0.117127	0.271752	-0.570634
C187	C	0.111554	0.203130	-0.570814
C188	C	0.108034	0.159774	-0.549212
C189	C	0.106271	0.138020	-0.504002
C190	C	0.108022	-0.116455	-0.549685
C191	C	0.111535	-0.141571	-0.571444
C192	C	0.113298	-0.188541	-0.547992
C193	C	0.117113	-0.215782	-0.571578
C194	C	0.111543	-0.210392	-0.502779
C195	C	0.108022	-0.185272	-0.481023
C196	C	0.106265	-0.138301	-0.504481
C197	C	0.108013	-0.116476	-0.204312
C198	C	0.111530	-0.141600	-0.157432
C199	C	0.113292	-0.188571	-0.133918
C200	C	0.117107	-0.215816	-0.083088
C201	C	0.111540	-0.210417	-0.157283
C202	C	0.108025	-0.185293	-0.204161
C203	C	0.106258	-0.138318	-0.227673
C204	C	0.102457	0.091004	-0.480580
C205	C	0.099416	0.053529	-0.461911
C206	C	0.099408	-0.089368	-0.319019
C207	C	0.102447	-0.111081	-0.278503
C208	C	0.099412	-0.089360	-0.462081
C209	C	0.102452	-0.111069	-0.480886
O210	O	0.118441	-0.256741	0.452885
O211	O	0.140942	-0.334356	0.397762
O212	O	0.063341	-0.256756	0.397752
O213	O	0.196042	-0.334341	0.452895
O214	O	0.063348	-0.193711	0.334708
O215	O	0.140949	-0.271310	0.334718
O216	O	0.118449	-0.193695	0.389842
Zn217	Zn	0.129700	-0.222493	0.352270
Zn218	Zn	0.129690	-0.305559	0.435333
O219	O	0.196050	-0.271295	0.389852
C220	C	-0.500215	0.534008	-0.438484
C221	C	-0.477199	0.556615	-0.461399
C222	C	-0.431592	0.465375	-0.369840
C223	C	-0.408680	0.488086	-0.392860
C224	C	-0.431591	0.534026	-0.438478
C225	C	-0.477199	0.488068	-0.392865
C226	C	-0.665700	0.588313	-0.480407
C227	C	-0.712564	0.613422	-0.502014
C228	C	-0.736072	0.660392	-0.547220
C229	C	-0.786887	0.687626	-0.570647
C230	C	-0.712713	0.682249	-0.570819
C231	C	-0.665852	0.657136	-0.549214
C232	C	-0.642345	0.610166	-0.504006
C233	C	-0.389685	0.657664	-0.549654
C234	C	-0.368085	0.682944	-0.571408
C235	C	-0.322892	0.661265	-0.547952
C236	C	-0.299471	0.688673	-0.571532
C237	C	-0.299298	0.614298	-0.502740
C238	C	-0.320894	0.589015	-0.480990
C239	C	-0.366092	0.610706	-0.504452
C240	C	-0.389688	0.312260	-0.204314
C241	C	-0.368091	0.268900	-0.157436
C242	C	-0.322897	0.247157	-0.133918
C243	C	-0.299478	0.200145	-0.083089
C244	C	-0.299303	0.268778	-0.157278
C245	C	-0.320902	0.312137	-0.204154
C246	C	-0.366095	0.333873	-0.227670
C247	C	-0.591532	0.582941	-0.480581
C248	C	-0.551028	0.561238	-0.461909
C249	C	-0.408175	0.418363	-0.319013
C250	C	-0.389510	0.380888	-0.278499
C251	C	-0.408174	0.561439	-0.462062
C252	C	-0.389508	0.583289	-0.480862
H253	H	-0.099350	-0.075049	-0.024355
C254	C	-0.080082	-0.200726	0.394874
C255	C	-0.092879	-0.212545	0.366787
H256	H	-0.064683	-0.231533	0.426111
H257	H	-0.059841	-0.190448	0.384460
H258	H	-0.107048	-0.172187	0.393105
H259	H	-0.065913	-0.241081	0.368553
H260	H	-0.113121	-0.222830	0.377204
H261	H	-0.223819	-0.075081	-0.024363
H262	H	-0.099344	-0.453061	0.229148
C263	C	-0.602713	-0.356117	0.065314
C264	C	-0.640148	-0.318643	0.023701
H265	H	-0.586752	-0.341401	0.066513
H266	H	-0.613887	-0.364668	0.090793
H267	H	-0.582106	-0.387694	0.066853
H268	H	-0.660757	-0.287068	0.022163
H269	H	-0.628974	-0.310085	-0.001785
C270	C	-0.252273	-0.098124	0.252544
C271	C	-0.236933	-0.068470	0.222692
H272	H	-0.283503	-0.082290	0.237137
H273	H	-0.233227	-0.133865	0.261219
H274	H	-0.250500	-0.098319	0.279517
H275	H	-0.238704	-0.068277	0.195721
H276	H	-0.255985	-0.032719	0.214011
H277	H	0.094757	-0.121690	-0.374387
H278	H	0.154075	-0.453019	0.353678
H279	H	0.106598	-0.203083	-0.223182
H280	H	-0.426188	-0.078712	-0.223203
H281	H	0.094763	0.002821	-0.498893
H282	H	-0.099349	-0.453072	0.353658
C283	C	-0.122727	-0.227633	-0.024748
C284	C	-0.092881	-0.212489	-0.024540
H285	H	-0.107325	-0.258435	-0.025180
H286	H	-0.131407	-0.235649	0.002319
H287	H	-0.149687	-0.199088	-0.051531
H288	H	-0.065922	-0.241033	0.002245
H289	H	-0.084195	-0.204476	-0.051610
H290	H	0.154092	-0.453019	0.229170
C291	C	-0.661630	0.546941	-0.400555
C292	C	-0.639864	0.536681	-0.430718
H293	H	-0.645680	0.515065	-0.369880
H294	H	-0.661089	0.573938	-0.401272
H295	H	-0.692882	0.558770	-0.410052
H296	H	-0.608613	0.524856	-0.421223
H297	H	-0.640400	0.509674	-0.429999
H298	H	0.094797	0.002789	-0.374372
H299	H	-0.495974	-0.530992	0.035017
H300	H	-0.495975	-0.406482	0.035013
C301	C	-0.343050	-0.507958	0.035418
C302	C	-0.358390	-0.537608	0.035208
H303	H	-0.311817	-0.523794	0.035862
H304	H	-0.362092	-0.472216	0.008345
H305	H	-0.344830	-0.507764	0.062196
H306	H	-0.356613	-0.537798	0.008429
H307	H	-0.339342	-0.573359	0.062284
C308	C	-0.775663	0.626777	-0.471846
C309	C	-0.738240	0.589403	-0.476074
H310	H	-0.791516	0.611949	-0.455833
H311	H	-0.764492	0.635386	-0.454975
H312	H	-0.796365	0.658340	-0.501864
H313	H	-0.717536	0.557841	-0.446056
H314	H	-0.749411	0.580787	-0.492945
C315	C	0.143638	-0.073305	-0.550509
C316	C	0.106082	-0.064822	-0.575471
H317	H	0.142441	-0.041430	-0.566429
H318	H	0.142089	-0.082721	-0.520475
H319	H	0.171856	-0.101513	-0.547702
H320	H	0.077864	-0.036617	-0.578275
H321	H	0.107627	-0.055399	-0.605514
C322	C	0.154472	-0.300442	0.252561
C323	C	0.154267	-0.315577	0.222706
H324	H	0.154903	-0.269634	0.237156
H325	H	0.127411	-0.292438	0.261242
H326	H	0.181245	-0.328986	0.279531
H327	H	0.127492	-0.287033	0.195737
H328	H	0.181330	-0.323577	0.214019
C329	C	-0.504442	0.648581	-0.514575
C330	C	-0.502133	0.606522	-0.511997
H331	H	-0.519829	0.679390	-0.545811
H332	H	-0.521137	0.656582	-0.495521
H333	H	-0.473922	0.638297	-0.504149
H334	H	-0.532653	0.616805	-0.522420
H335	H	-0.485438	0.598521	-0.531058
C336	C	-0.235176	-0.280046	-0.085663
C337	C	-0.249312	-0.262448	-0.131774
H338	H	-0.204505	-0.311906	-0.069809
H339	H	-0.235850	-0.253098	-0.085068
H340	H	-0.255584	-0.287077	-0.070837
H341	H	-0.228906	-0.255413	-0.146600
H342	H	-0.248634	-0.289402	-0.132371
H343	H	0.112968	-0.123816	-0.138408
C344	C	-0.122727	-0.023238	0.177719
C345	C	-0.092880	-0.068435	0.222708
H346	H	-0.107327	-0.007397	0.162324
H347	H	-0.131403	-0.033609	0.161018
H348	H	-0.149688	0.001946	0.179306
H349	H	-0.065920	-0.093622	0.221121
H350	H	-0.084197	-0.058066	0.239413
H351	H	0.106577	-0.078228	-0.223453
C352	C	0.108362	0.163841	-0.414555
C353	C	0.106084	0.135716	-0.430707
H354	H	0.107160	0.149082	-0.383879
H355	H	0.136581	0.161022	-0.414539
H356	H	0.082884	0.200492	-0.434288
H357	H	0.131564	0.099065	-0.410975
H358	H	0.077862	0.138530	-0.430719
H359	H	0.112972	0.220575	-0.482781
H360	H	0.112989	0.220848	-0.607622
C361	C	0.108403	0.164268	-0.619395
C362	C	0.106109	0.136021	-0.575154
H363	H	0.107219	0.149600	-0.635408
H364	H	0.082927	0.200909	-0.636262
H365	H	0.136624	0.161444	-0.616516
H366	H	0.077886	0.138849	-0.578033
H367	H	0.131587	0.099371	-0.558283
H368	H	0.112965	-0.123778	-0.608256
H369	H	-0.262186	-0.748678	0.016805
H370	H	0.112972	-0.248633	-0.483685
H371	H	-0.731873	-0.278994	0.016812
C372	C	0.108386	-0.255821	-0.415333
C373	C	0.106095	-0.209289	-0.431328
H374	H	0.107200	-0.270650	-0.384651
H375	H	0.082909	-0.247209	-0.435115
H376	H	0.136606	-0.281165	-0.415378
H377	H	0.077873	-0.183943	-0.431286
H378	H	0.131574	-0.217899	-0.411540
H379	H	-0.301637	-0.670033	0.023189
C380	C	0.116913	-0.279479	-0.085364
C381	C	0.113465	-0.262041	-0.131442
H382	H	0.118096	-0.311344	-0.069414
H383	H	0.144338	-0.286448	-0.070593
H384	H	0.090640	-0.252471	-0.084835
H385	H	0.139740	-0.289048	-0.131970
H386	H	0.086038	-0.255074	-0.146216
H387	H	-0.387307	0.251304	-0.138417
C388	C	-0.342756	0.417252	-0.322917
C389	C	-0.358094	0.462450	-0.367907
H390	H	-0.311527	0.401427	-0.307516
H391	H	-0.361805	0.427617	-0.306222
H392	H	-0.344526	0.392056	-0.324505
H393	H	-0.356327	0.487649	-0.366320
H394	H	-0.339039	0.452087	-0.384606
H395	H	-0.495684	0.469071	-0.374382
H396	H	-0.732161	0.220891	-0.483702
H397	H	-0.426487	0.329956	-0.223458
H398	H	-0.731880	0.220626	-0.608275
C399	C	-0.239516	-0.273597	0.220376
C400	C	-0.236931	-0.315662	0.222690
H401	H	-0.270742	-0.242795	0.204977
H402	H	-0.229099	-0.283880	0.250900
H403	H	-0.220464	-0.265584	0.203674
H404	H	-0.255981	-0.323678	0.239395
H405	H	-0.247354	-0.305377	0.192161
H406	H	-0.731857	0.720491	-0.607626
H407	H	-0.646836	0.674933	-0.568432
H408	H	-0.647140	0.142253	-0.444231
C409	C	-0.455506	0.728054	-0.619720
C410	C	-0.439361	0.681499	-0.575445
H411	H	-0.486173	0.742764	-0.635641
H412	H	-0.455521	0.753465	-0.616903
H413	H	-0.435778	0.719502	-0.636646
H414	H	-0.459087	0.690051	-0.558518
H415	H	-0.439350	0.656082	-0.578260
H416	H	-0.301639	-0.449889	0.023181
H417	H	-0.387299	0.721183	-0.608218
H418	H	-0.262497	0.596642	-0.483644
C419	C	-0.250733	0.523701	-0.415298
C420	C	-0.294961	0.537395	-0.431296
H421	H	-0.234726	0.491836	-0.384617
H422	H	-0.233871	0.518007	-0.435080
H423	H	-0.253608	0.551973	-0.415339
H424	H	-0.292086	0.509126	-0.431258
H425	H	-0.311826	0.543087	-0.411509
C426	C	-0.250736	0.307656	-0.199294
C427	C	-0.294966	0.335898	-0.229832
H428	H	-0.234724	0.322323	-0.215148
H429	H	-0.253608	0.310482	-0.173897
H430	H	-0.233879	0.271010	-0.188131
H431	H	-0.311825	0.372543	-0.240992
H432	H	-0.292097	0.333076	-0.255237
H433	H	-0.262189	-0.404298	0.016794
H434	H	-0.426183	-0.078705	-0.568458
C435	C	-0.235644	0.202254	-0.085353
C436	C	-0.249623	0.244879	-0.131430
H437	H	-0.204974	0.187501	-0.069398
H438	H	-0.256100	0.214909	-0.070587
H439	H	-0.236371	0.175441	-0.084826
H440	H	-0.248900	0.271694	-0.131957
H441	H	-0.229162	0.232225	-0.146200
C442	C	-0.397551	-0.224515	-0.025338
C443	C	-0.393410	-0.266100	0.016277
H444	H	-0.413467	-0.192644	-0.026538
H445	H	-0.367525	-0.233922	-0.026884
H446	H	-0.414478	-0.218771	-0.050817
H447	H	-0.376481	-0.271847	0.041757
H448	H	-0.423442	-0.256692	0.017827
H449	H	-0.426181	-0.325075	0.023170
H450	H	-0.732150	-0.403556	0.016804
H451	H	-0.647131	-0.449383	0.023185
C452	C	-0.455045	-0.692429	0.021390
C453	C	-0.439057	-0.664174	0.023676
H454	H	-0.485713	-0.677778	0.022586
H455	H	-0.455006	-0.689595	-0.006837
H456	H	-0.435261	-0.729077	0.046877
H457	H	-0.458839	-0.627527	-0.001812
H458	H	-0.439099	-0.667004	0.051907
H459	H	-0.386725	-0.748980	0.016789
H460	H	-0.495981	0.002931	-0.374407
H461	H	-0.495977	0.002936	-0.498918
C462	C	-0.254380	-0.211240	-0.229388
C463	C	-0.294964	-0.209401	-0.230187
H464	H	-0.238468	-0.225949	-0.245349
H465	H	-0.262184	-0.176012	-0.244149
H466	H	-0.234962	-0.233014	-0.198124
H467	H	-0.314384	-0.187623	-0.261451
H468	H	-0.287161	-0.244634	-0.215428
C469	C	-0.343059	-0.149601	-0.397790
C470	C	-0.358399	-0.134468	-0.367937
H471	H	-0.311830	-0.180396	-0.382385
H472	H	-0.362107	-0.157622	-0.406469
H473	H	-0.344832	-0.121047	-0.424761
H474	H	-0.356630	-0.163020	-0.340967
H475	H	-0.339346	-0.126449	-0.359252
H476	H	-0.301641	-0.203238	-0.443614
H477	H	-0.262188	-0.249069	-0.482808
H478	H	-0.646867	0.141990	-0.568809
C479	C	-0.364780	-0.150461	-0.634506
C480	C	-0.393411	-0.118369	-0.620528
H481	H	-0.380696	-0.135748	-0.665182
H482	H	-0.337251	-0.151709	-0.633785
H483	H	-0.356983	-0.185690	-0.614034
H484	H	-0.401205	-0.083141	-0.640998
H485	H	-0.420948	-0.117115	-0.621252
H486	H	-0.386733	-0.124550	-0.138156
