data_functionalizedCrystal
_audit_creation_method	'MofGen! by Chris Wilmer'
_symmetry_space_group_name_H-M	'P1'
_symmetry_Int_Tables_number	1
_symmetry_cell_setting	triclinic
loop_
_symmetry_equiv_pos_as_xyz
  x,y,z
_cell_length_a	13.339070
_cell_length_b	9.065218
_cell_length_c	7.540329
_cell_angle_alpha	90.003038
_cell_angle_beta	89.998761
_cell_angle_gamma	79.677410
loop_
_atom_site_label
_atom_site_type_symbol
_atom_site_fract_x
_atom_site_fract_y
_atom_site_fract_z
O1	O	0.148888	-2.018453	-0.147480
O2	O	0.161101	-1.593930	-0.147482
O3	O	0.007285	-1.757470	-0.147476
O4	O	0.302705	-1.854913	-0.147487
O5	O	0.007283	-1.757455	0.147489
O6	O	0.161099	-1.593915	0.147483
O7	O	0.148886	-2.018438	0.147485
Cu8	Cu	0.154992	-1.806176	0.174416
Cu9	Cu	0.154995	-1.806193	-0.174414
O10	O	0.302702	-1.854898	0.147479
C11	C	0.159926	-1.538478	-0.000000
C12	C	0.156417	-1.373267	-0.000001
C13	C	-0.030556	-1.741002	0.000004
C14	C	-0.143308	-1.691939	-0.000004
C15	C	0.150061	-2.073890	-0.000002
C16	C	0.153570	-2.239101	-0.000012
C17	C	-0.504605	-2.073430	-0.000001
C18	C	-0.398670	-2.119533	0.000016
C19	C	-0.334824	-2.012638	0.000010
C20	C	-0.376924	-1.859634	-0.000011
C21	C	-0.482870	-1.813527	-0.000014
C22	C	-0.313089	-1.752734	-0.000003
C23	C	-0.355188	-1.599730	-0.000024
C24	C	-0.461124	-1.553631	-0.000028
C25	C	-0.524969	-1.660525	-0.000022
C26	C	-0.207143	-1.798841	0.000000
C27	C	-0.185408	-1.538938	-0.000012
C28	C	-0.291343	-1.492836	-0.000029
C29	C	0.340544	-1.871366	-0.000005
C30	C	0.453295	-1.920429	-0.000010
N31	N	0.154990	-1.806174	0.419765
N32	N	0.154989	-1.806202	-0.419763
H33	H	-0.172877	-1.923418	0.000018
H34	H	-0.133424	-1.451895	-0.000008
F35	F	-0.637720	-1.611466	-0.000208
F36	F	-0.572559	-2.187177	0.000032
F37	F	-0.222079	-2.061708	0.000023
H38	H	-0.364400	-2.244108	0.000036
F39	F	-0.505926	-1.390790	-0.000028
H40	H	-0.325636	-1.368256	-0.000046
