data_functionalizedCrystal
_audit_creation_method	'MofGen! by Chris Wilmer'
_symmetry_space_group_name_H-M	'P1'
_symmetry_Int_Tables_number	1
_symmetry_cell_setting	triclinic
loop_
_symmetry_equiv_pos_as_xyz
  x,y,z
_cell_length_a	17.640112
_cell_length_b	17.640280
_cell_length_c	17.640968
_cell_angle_alpha	65.682561
_cell_angle_beta	92.139080
_cell_angle_gamma	92.184069
loop_
_atom_site_label
_atom_site_type_symbol
_atom_site_fract_x
_atom_site_fract_y
_atom_site_fract_z
Zn1	Zn	1.251359	-0.023073	-0.189698
Zn2	Zn	1.751359	0.476927	0.310302
Zn3	Zn	1.251298	-0.188752	-0.024069
Zn4	Zn	1.751298	0.311248	0.475931
Zn5	Zn	1.106797	-0.075311	-0.076159
Zn6	Zn	1.606797	0.424689	0.423841
Zn7	Zn	1.148399	-0.178182	-0.179117
Zn8	Zn	1.648399	0.321818	0.320883
O9	O	1.189463	-0.116329	-0.117261
O10	O	1.689463	0.383671	0.382739
O11	O	1.354914	-0.027613	-0.150355
O12	O	1.854914	0.472387	0.349645
O13	O	1.214694	-0.199989	0.081425
O14	O	1.714694	0.300011	0.581425
O15	O	1.108588	0.044008	-0.117448
O16	O	1.608588	0.544008	0.382552
O17	O	1.354870	-0.149337	-0.028669
O18	O	1.854870	0.350663	0.471331
O19	O	1.214797	0.082386	-0.200865
O20	O	1.714797	0.582386	0.299135
O21	O	1.108529	-0.116644	0.043155
O22	O	1.608529	0.383356	0.543155
O23	O	1.008752	-0.106394	-0.107188
O24	O	1.508752	0.393606	0.392812
O25	O	1.179493	-0.131321	-0.292925
O26	O	1.679493	0.368679	0.207075
O27	O	1.039317	-0.181973	-0.182831
O28	O	1.539317	0.318027	0.317169
O29	O	1.255137	-0.017364	-0.300699
O30	O	1.755137	0.482636	0.199301
O31	O	1.255033	-0.299739	-0.018409
O32	O	1.755033	0.200261	0.481591
O33	O	1.179434	-0.291973	-0.132322
O34	O	1.679434	0.208027	0.367678
C35	C	0.997182	-0.148705	-0.149514
C36	C	1.497182	0.351295	0.350486
C37	C	0.914929	-0.162571	-0.163327
C38	C	1.414929	0.337429	0.336673
C39	C	0.564743	-0.010979	-0.012337
C40	C	1.064743	0.489021	0.487663
C41	C	0.487458	-0.024022	-0.025323
C42	C	0.987458	0.475978	0.474677
C43	C	0.519334	-0.102905	-0.103880
C44	C	1.019334	0.397095	0.396120
C45	C	0.596623	-0.089865	-0.090904
C46	C	1.096623	0.410135	0.409096
C47	C	0.619321	-0.043903	-0.045131
C48	C	1.119321	0.456097	0.454869
C49	C	0.651201	-0.122789	-0.123697
C50	C	1.151201	0.377211	0.376303
C51	C	0.728483	-0.109754	-0.110718
C52	C	1.228483	0.390246	0.389282
C53	C	0.751188	-0.063796	-0.064946
C54	C	1.251188	0.436204	0.435054
C55	C	0.696603	-0.030868	-0.032152
C56	C	1.196603	0.469132	0.467848
C57	C	0.628502	-0.168756	-0.169465
C58	C	1.128502	0.331244	0.330535
C59	C	0.683080	-0.201680	-0.202259
C60	C	1.183080	0.298320	0.297741
C61	C	0.760364	-0.188640	-0.189285
C62	C	1.260364	0.311360	0.310715
C63	C	0.783068	-0.142682	-0.143512
C64	C	1.283068	0.357318	0.356488
C65	C	0.814949	-0.221568	-0.222079
C66	C	1.314949	0.278432	0.277921
C67	C	0.892231	-0.208534	-0.209100
C68	C	1.392231	0.291466	0.290900
C69	C	0.860351	-0.129647	-0.130533
C70	C	1.360351	0.370353	0.369467
C71	C	1.221764	-0.324990	-0.068579
C72	C	1.721764	0.175010	0.431421
C73	C	1.235655	-0.414238	-0.047768
C74	C	1.735655	0.085762	0.452232
C75	C	1.084287	-0.687787	-0.275600
C76	C	1.584287	-0.187787	0.224400
C77	C	1.097337	-0.771655	-0.256019
C78	C	1.597337	-0.271655	0.243981
C79	C	1.176134	-0.779643	-0.137496
C80	C	1.676134	-0.279643	0.362504
C81	C	1.163094	-0.695773	-0.157069
C82	C	1.663094	-0.195773	0.342931
C83	C	1.117169	-0.649852	-0.226122
C84	C	1.617169	-0.149852	0.273878
C85	C	1.195976	-0.657837	-0.107591
C86	C	1.695976	-0.157837	0.392409
C87	C	1.182933	-0.573976	-0.127160
C88	C	1.682933	-0.073976	0.372840
C89	C	1.137009	-0.528050	-0.196208
C90	C	1.637009	-0.028050	0.303792
C91	C	1.104127	-0.565990	-0.245691
C92	C	1.604127	-0.065990	0.254309
C93	C	1.241896	-0.703761	-0.038535
C94	C	1.741896	-0.203761	0.461465
C95	C	1.274778	-0.665825	0.010944
C96	C	1.774778	-0.165825	0.510944
C97	C	1.261740	-0.581961	-0.008629
C98	C	1.761740	-0.081961	0.491371
C99	C	1.215815	-0.536035	-0.077677
C100	C	1.715815	-0.036035	0.422323
C101	C	1.294622	-0.544020	0.040854
C102	C	1.794622	-0.044020	0.540854
C103	C	1.281579	-0.460159	0.021285
C104	C	1.781579	0.039841	0.521285
C105	C	1.202773	-0.452173	-0.097246
C106	C	1.702773	0.047827	0.402754
C107	C	1.382495	-0.083827	-0.084882
C108	C	1.882495	0.416173	0.415118
C109	C	1.464754	-0.069977	-0.071084
C110	C	1.964754	0.430023	0.428916
C111	C	1.221962	-0.067336	-0.326772
C112	C	1.721962	0.432664	0.173228
C113	C	1.235811	-0.046458	-0.416053
C114	C	1.735811	0.453542	0.083947
C115	C	1.157059	0.093153	-0.166147
C116	C	1.657059	0.593153	0.333853
C117	C	1.143250	0.182422	-0.186980
C118	C	1.643250	0.682422	0.313020
C119	C	1.084469	-0.274453	-0.689444
C120	C	1.584469	0.225547	-0.189444
C121	C	1.097496	-0.254822	-0.773337
C122	C	1.597496	0.245178	-0.273337
C123	C	1.176258	-0.136168	-0.781421
C124	C	1.676258	0.363832	-0.281421
C125	C	1.163234	-0.155787	-0.697528
C126	C	1.663234	0.344213	-0.197528
C127	C	1.117340	-0.224930	-0.651546
C128	C	1.617340	0.275070	-0.151546
C129	C	1.196105	-0.106264	-0.659630
C130	C	1.696105	0.393736	-0.159630
C131	C	1.183085	-0.125884	-0.575743
C132	C	1.683085	0.374116	-0.075743
C133	C	1.137195	-0.195026	-0.529754
C134	C	1.637195	0.304974	-0.029754
C135	C	1.104320	-0.244550	-0.567659
C136	C	1.604320	0.255450	-0.067659
C137	C	1.242004	-0.037124	-0.705612
C138	C	1.742004	0.462876	-0.205612
C139	C	1.274874	0.012398	-0.667713
C140	C	1.774874	0.512398	-0.167713
C141	C	1.261851	-0.007218	-0.583827
C142	C	1.761851	0.492782	-0.083827
C143	C	1.215960	-0.076360	-0.537838
C144	C	1.715960	0.423640	-0.037838
C145	C	1.294725	0.042306	-0.545922
C146	C	1.794725	0.542306	-0.045922
C147	C	1.281706	0.022686	-0.462035
C148	C	1.781706	0.522686	0.037965
C149	C	1.202940	-0.095980	-0.453951
C150	C	1.702940	0.404020	0.046049
C151	C	1.157124	-0.165067	0.091429
C152	C	1.657124	0.334933	0.591429
C153	C	1.143383	-0.185695	0.180681
C154	C	1.643383	0.314305	0.680681
H155	H	0.583224	0.026463	0.024921
H156	H	1.083224	0.526463	0.524921
H157	H	0.796456	-0.258998	-0.259340
H158	H	1.296456	0.241002	0.240660
Cl159	Cl	0.725143	0.026921	0.025386
Cl160	Cl	1.225143	0.526921	0.525386
Cl161	Cl	0.531345	-0.185155	-0.185769
Cl162	Cl	1.031345	0.314845	0.314231
H163	H	1.070726	-0.295154	-0.804190
H164	H	1.570726	0.204846	-0.304190
Cl165	Cl	1.352347	-0.601761	0.127664
Cl166	Cl	1.852347	-0.101761	0.627664
Cl167	Cl	1.322909	-0.412467	0.083493
Cl168	Cl	1.822909	0.087533	0.583493
Cl169	Cl	1.323032	0.084940	-0.414387
Cl170	Cl	1.823032	0.584940	0.085613
H171	H	1.165548	-0.152268	-0.416517
H172	H	1.665548	0.347732	0.083483
Cl173	Cl	1.046615	-0.331470	-0.509849
Cl174	Cl	1.546615	0.168530	-0.009849
Cl175	Cl	1.026561	-0.630049	-0.362417
Cl176	Cl	1.526561	-0.130049	0.137583
H177	H	0.500842	-0.140330	-0.141145
H178	H	1.000842	0.359670	0.358855
Cl179	Cl	1.352428	0.129218	-0.603734
Cl180	Cl	1.852428	0.629218	-0.103734
Cl181	Cl	1.258374	-0.012462	-0.811070
Cl182	Cl	1.758374	0.487538	-0.311070
H183	H	1.066737	-0.528597	-0.301926
H184	H	1.566737	-0.028597	0.198074
Cl185	Cl	0.888891	-0.071858	-0.072996
Cl186	Cl	1.388891	0.428142	0.427004
H187	H	1.126598	-0.211002	-0.461447
H188	H	1.626598	0.288998	0.038553
H189	H	0.814117	-0.053186	-0.054377
H190	H	1.314117	0.446814	0.445623
Cl191	Cl	1.233954	-0.049249	-0.839233
Cl192	Cl	1.733954	0.450751	-0.339233
Cl193	Cl	1.332511	-0.723561	0.097747
Cl194	Cl	1.832511	-0.223561	0.597747
Cl195	Cl	0.418845	0.017367	0.015916
Cl196	Cl	0.918845	0.517367	0.515916
Cl197	Cl	1.258323	-0.809177	-0.013958
Cl198	Cl	1.758323	-0.309177	0.486042
Cl199	Cl	1.026764	-0.361372	-0.631634
Cl200	Cl	1.526764	0.138628	-0.131634
Cl201	Cl	1.332570	0.099316	-0.725526
Cl202	Cl	1.832570	0.599316	-0.225526
H203	H	0.664588	-0.239106	-0.239524
H204	H	1.164588	0.260894	0.260476
H205	H	0.936671	-0.235342	-0.235805
H206	H	1.436671	0.264658	0.264195
H207	H	1.165383	-0.414780	-0.153481
H208	H	1.665383	0.085220	0.346519
H209	H	1.070568	-0.802535	-0.296324
H210	H	1.570568	-0.302535	0.203676
Cl211	Cl	1.120810	-0.422550	-0.220968
Cl212	Cl	1.620810	0.077450	0.279032
H213	H	1.213523	-0.817044	-0.081271
H214	H	1.713523	-0.317044	0.418729
