data_functionalizedCrystal
_audit_creation_method	'MofGen! by Chris Wilmer'
_symmetry_space_group_name_H-M	'P1'
_symmetry_Int_Tables_number	1
_symmetry_cell_setting	triclinic
loop_
_symmetry_equiv_pos_as_xyz
  x,y,z
_cell_length_a	18.101395
_cell_length_b	12.759401
_cell_length_c	12.759393
_cell_angle_alpha	90.020086
_cell_angle_beta	89.968265
_cell_angle_gamma	89.970687
loop_
_atom_site_label
_atom_site_type_symbol
_atom_site_fract_x
_atom_site_fract_y
_atom_site_fract_z
Zn1	Zn	-0.294834	-1.606142	-0.593996
Zn2	Zn	-0.418692	-1.605984	-0.418310
Zn3	Zn	-0.294865	-1.430442	-0.418332
Zn4	Zn	-0.418634	-1.430382	-0.593949
O5	O	-0.356756	-1.518237	-0.506147
O6	O	-0.311275	-1.753142	-0.570701
O7	O	-0.402303	-1.582657	-0.271292
O8	O	-0.191228	-1.453840	-0.441663
O9	O	-0.402273	-1.753026	-0.441626
O10	O	-0.191205	-1.582926	-0.570723
O11	O	-0.311328	-1.453687	-0.271308
O12	O	-0.311272	-1.283413	-0.441618
O13	O	-0.402175	-1.453738	-0.740976
O14	O	-0.402205	-1.283369	-0.570642
O15	O	-0.311219	-1.582868	-0.741011
O16	O	-0.522317	-1.582599	-0.441580
O17	O	-0.522275	-1.453585	-0.570621
C18	C	-0.356736	-1.245270	-0.506128
C19	C	-0.356745	-1.128493	-0.506144
C20	C	-0.309447	-1.073692	-0.573457
C21	C	-0.309451	-0.963968	-0.573462
C22	C	-0.404059	-0.963856	-0.438840
C23	C	-0.404050	-1.073578	-0.438830
C24	C	-0.549167	-1.518097	-0.506116
C25	C	-0.631481	-1.518133	-0.506138
C26	C	-0.930572	-1.518363	-0.506194
C27	C	-0.899251	-1.437379	-0.587585
C28	C	-0.813633	-1.436995	-0.587330
C29	C	-0.782189	-1.518249	-0.506167
C30	C	-0.813346	-1.488267	-0.395442
C31	C	-0.898991	-1.487745	-0.395929
C32	C	-0.898916	-1.629506	-0.534555
C33	C	-0.813265	-1.628853	-0.536983
C34	C	-0.698330	-1.518186	-0.506145
C35	C	-1.014431	-1.518424	-0.506209
C36	C	-0.163594	-1.518407	-0.506201
C37	C	-0.081280	-1.518479	-0.506224
C38	C	-0.356687	-1.518314	-0.780180
C39	C	-0.356658	-1.518346	-0.896957
C40	C	-0.356770	-0.792271	-0.506163
C41	C	-0.356759	-0.909047	-0.506159
C42	C	-0.403974	-1.585529	-1.061546
C43	C	-0.404009	-1.585503	-0.951822
C44	C	-0.309274	-1.451203	-0.951822
C45	C	-0.309244	-1.451224	-1.061544
C46	C	-0.356771	-1.518222	-0.233179
C47	C	-0.356592	-1.518393	-0.116403
H48	H	-0.442567	-1.118198	-0.384010
H49	H	-0.270925	-1.118401	-0.628265
C50	C	-0.257134	-1.377358	-1.121896
H51	H	-0.263907	-1.386979	-1.195099
H52	H	-0.207377	-1.392755	-1.103940
H53	H	-0.267988	-1.306755	-1.103893
H54	H	-0.792898	-1.651462	-0.618471
H55	H	-0.270724	-1.396518	-0.907142
H56	H	-0.920836	-1.355499	-0.569036
H57	H	-0.792980	-1.545396	-0.333146
H58	H	-0.919794	-1.455952	-0.669953
H59	H	-0.442574	-0.919130	-0.384036
C60	C	-0.926204	-1.710993	-0.454405
H61	H	-0.956749	-1.677505	-0.403910
H62	H	-0.884975	-1.741961	-0.420325
H63	H	-0.953718	-1.763767	-0.489513
C64	C	-0.926993	-1.563961	-0.311214
H65	H	-0.979476	-1.564164	-0.310943
H66	H	-0.909401	-1.542181	-0.244549
H67	H	-0.909382	-1.632565	-0.325900
C68	C	-0.785167	-1.462298	-0.698248
H69	H	-0.825946	-1.472904	-0.743870
H70	H	-0.755865	-1.524043	-0.696110
H71	H	-0.756141	-1.405529	-0.723206
C72	C	-0.784470	-1.379669	-0.362407
H73	H	-0.753436	-1.352455	-0.415936
H74	H	-0.757140	-1.385950	-0.299183
H75	H	-0.825028	-1.333592	-0.351745
C76	C	-0.456127	-1.659350	-0.891478
H77	H	-0.449372	-1.649712	-0.818274
H78	H	-0.445290	-1.729955	-0.909471
H79	H	-0.505880	-1.643927	-0.909452
H80	H	-0.919034	-1.406500	-0.371904
H81	H	-0.442529	-1.640221	-1.106209
H82	H	-0.793209	-1.354613	-0.568545
C83	C	-0.257427	-0.903691	-0.647511
H84	H	-0.229258	-0.952115	-0.687602
H85	H	-0.225125	-0.860890	-0.607412
H86	H	-0.285805	-0.860894	-0.693222
H87	H	-0.920461	-1.656840	-0.613919
H88	H	-0.791857	-1.692382	-0.482023
