data_functionalizedCrystal
_audit_creation_method	'MofGen! by Chris Wilmer'
_symmetry_space_group_name_H-M	'P1'
_symmetry_Int_Tables_number	1
_symmetry_cell_setting	triclinic
loop_
_symmetry_equiv_pos_as_xyz
  x,y,z
_cell_length_a	11.026607
_cell_length_b	11.792241
_cell_length_c	10.065875
_cell_angle_alpha	98.849501
_cell_angle_beta	79.302338
_cell_angle_gamma	96.389716
loop_
_atom_site_label
_atom_site_type_symbol
_atom_site_fract_x
_atom_site_fract_y
_atom_site_fract_z
O1	O	1.630965	0.462836	-0.113504
O2	O	1.277303	0.408644	-0.113505
O3	O	1.462715	0.272275	-0.113495
O4	O	1.445553	0.599205	-0.113514
O5	O	1.427360	0.298412	0.113492
O6	O	1.241948	0.434781	0.113482
O7	O	1.595611	0.488973	0.113483
Zn8	Zn	1.413166	0.466027	0.149522
Zn9	Zn	1.459747	0.431590	-0.149543
O10	O	1.410198	0.625342	0.113473
C11	C	1.214349	0.411715	-0.000011
C12	C	1.079439	0.381912	-0.000011
C13	C	1.006175	0.464202	-0.000017
C14	C	0.866738	0.433401	-0.000017
C15	C	1.443960	0.242838	-0.000002
C16	C	1.440732	0.116183	-0.000003
C17	C	1.434802	-0.115710	-0.000026
C18	C	1.438097	0.013332	-0.000013
C19	C	1.658565	0.485901	-0.000014
C20	C	1.793477	0.515703	-0.000023
C21	C	1.428954	0.654778	-0.000023
C22	C	1.432183	0.781432	-0.000031
N23	N	1.381384	0.489530	0.353626
N24	N	1.491539	0.408079	-0.353647
C25	C	1.448682	0.439759	0.421408
C26	C	1.424231	0.457858	0.578574
H27	H	0.826244	0.340138	-0.000046
O28	O	1.054583	0.575411	-0.000260
C29	C	1.200243	0.710081	-0.117809
C30	C	1.145513	0.584097	-0.117722
H31	H	1.273789	0.717141	-0.212752
H32	H	1.123460	0.767297	-0.117901
H33	H	1.244058	0.739063	-0.022770
H34	H	1.101709	0.555009	-0.212746
H35	H	1.222344	0.526956	-0.117560
H36	H	1.524395	0.383742	0.363088
H37	H	1.348504	0.513868	0.636891
O38	O	1.581597	0.340943	0.576784
C39	C	1.630491	0.172001	0.415811
C40	C	1.528477	0.248085	0.494395
H41	H	1.587578	0.096896	0.349203
H42	H	1.702230	0.225334	0.348662
H43	H	1.677187	0.137407	0.491481
H44	H	1.481685	0.282696	0.418824
H45	H	1.456819	0.194702	0.561566
O46	O	1.290976	0.556203	0.423343
C47	C	1.100178	0.565312	0.584812
C48	C	1.202500	0.489682	0.505972
H49	H	1.028605	0.511554	0.651615
H50	H	1.142765	0.640358	0.651792
H51	H	1.053369	0.600003	0.509309
H52	H	1.249346	0.454909	0.581376
H53	H	1.159842	0.414698	0.438972
H54	H	0.833974	0.608964	-0.000019
H55	H	1.038938	0.288655	-0.000041
