data_functionalizedCrystal
_audit_creation_method	'MofGen! by Chris Wilmer'
_symmetry_space_group_name_H-M	'P1'
_symmetry_Int_Tables_number	1
_symmetry_cell_setting	triclinic
loop_
_symmetry_equiv_pos_as_xyz
  x,y,z
_cell_length_a	14.395555
_cell_length_b	23.196402
_cell_length_c	14.395555
_cell_angle_alpha	59.998724
_cell_angle_beta	90.000325
_cell_angle_gamma	60.000171
loop_
_atom_site_label
_atom_site_type_symbol
_atom_site_fract_x
_atom_site_fract_y
_atom_site_fract_z
Zr1	Zr	0.894941	0.630978	-0.121818
O2	O	0.746615	0.751253	-0.270150
O3	O	0.940407	0.510709	-0.076352
O4	O	0.940411	0.630982	-0.270148
O5	O	0.746612	0.630974	0.076521
O6	O	1.093285	0.630978	-0.270139
O7	O	0.746611	0.630980	-0.076354
O8	O	1.093278	0.415832	0.076525
O9	O	0.746619	0.846120	-0.270143
O10	O	1.073891	0.560172	-0.056949
O11	O	0.959804	0.560170	0.057134
O12	O	0.959808	0.701776	-0.171034
O13	O	0.845721	0.701775	-0.056951
Zr14	Zr	1.138760	0.630961	0.122014
Zr15	Zr	1.138758	0.630971	-0.121805
Zr16	Zr	0.894943	0.630968	0.122001
Zr17	Zr	0.894948	0.782280	-0.121808
Zr18	Zr	1.138753	0.479659	0.122003
O19	O	1.093293	0.751229	0.076548
O20	O	1.093291	0.751243	-0.270131
O21	O	0.746618	0.751239	0.076529
O22	O	1.287086	0.510686	0.270345
O23	O	1.287083	0.510700	-0.076334
O24	O	0.940410	0.510695	0.270327
O25	O	1.287089	0.630965	-0.076326
O26	O	1.093289	0.630956	0.270343
O27	O	0.940415	0.630961	0.270335
O28	O	1.287090	0.630959	0.076550
O29	O	0.940421	0.846115	-0.270133
O30	O	1.093280	0.415824	0.270328
O31	O	1.287082	0.415818	0.270338
O32	O	1.287080	0.415826	0.076535
O33	O	0.746621	0.846112	-0.076340
O34	O	0.940422	0.846107	-0.076329
O35	O	1.073893	0.560162	0.171230
O36	O	1.187980	0.560164	0.057147
O37	O	1.073897	0.701768	-0.056939
O38	O	0.959810	0.701767	0.057144
C39	C	1.016842	0.441713	0.000085
C40	C	1.016839	0.377481	0.000080
C41	C	1.076384	0.347312	-0.059474
C42	C	1.076395	0.286950	-0.059465
C43	C	1.016839	0.256773	0.000083
C44	C	0.957292	0.286947	0.059651
C45	C	0.957292	0.347301	0.059649
C46	C	0.917086	0.194747	-0.008421
C47	C	0.917083	0.134397	-0.008428
C48	C	1.016840	0.070618	0.000095
C49	C	1.116600	0.067203	0.008601
C50	C	1.116600	0.127557	0.008599
C51	C	1.016833	0.191329	0.000092
C52	C	1.076402	-0.025003	-0.059453
C53	C	1.076416	-0.085368	-0.059435
C54	C	0.957302	-0.085365	0.059673
C55	C	0.957299	-0.025006	0.059663
C56	C	1.016847	0.005174	0.000094
C57	C	0.711873	0.630978	0.000082
C58	C	0.608367	0.630981	0.000076
C59	C	0.485575	0.708190	-0.062119
C60	C	0.454737	0.669596	-0.107198
C61	C	0.454781	0.669572	0.045147
C62	C	0.578893	0.592386	-0.045067
C63	C	0.578933	0.592373	0.107339
C64	C	0.548169	0.553723	0.062286
C65	C	1.321828	0.630961	0.000114
C66	C	1.425334	0.630958	0.000119
C67	C	1.016848	0.630981	-0.304883
C68	C	1.016847	0.630986	-0.408390
C69	C	1.016859	0.820226	0.000111
C70	C	1.016862	0.884457	0.000115
C71	C	0.954645	0.708180	-0.593082
C72	C	0.909547	0.669605	-0.500057
C73	C	1.061893	0.669581	-0.500056
C74	C	0.971693	0.592377	-0.499752
C75	C	1.124098	0.592364	-0.499766
C76	C	1.079028	0.553732	-0.406723
C77	C	1.016853	0.630957	0.305078
C78	C	1.016853	0.630953	0.408585
C79	C	1.321819	0.441704	0.000101
C80	C	1.425323	0.377470	0.000102
C81	C	1.016844	0.441701	0.305065
C82	C	1.016842	0.377465	0.408568
C83	C	1.321822	0.441692	0.305081
C84	C	1.425326	0.377453	0.408590
C85	C	0.711879	0.820246	-0.304886
C86	C	0.608375	0.884485	-0.408394
C87	C	0.711881	0.820234	0.000095
C88	C	0.608378	0.884469	0.000094
C89	C	1.016857	0.820238	-0.304869
C90	C	1.016859	0.884474	-0.408372
C91	C	1.414376	0.347308	-0.059464
C92	C	1.511619	0.286961	-0.059486
C93	C	1.619809	0.256773	0.000066
C94	C	1.630753	0.286940	0.059634
C95	C	1.533511	0.347290	0.059648
C96	C	1.076394	0.347295	0.516741
C97	C	1.076388	0.286947	0.614002
C98	C	1.016836	0.256766	0.603088
C99	C	0.957276	0.286942	0.494904
C100	C	0.957276	0.347293	0.397645
C101	C	1.533495	0.347287	0.397648
C102	C	1.630758	0.286936	0.494896
C103	C	1.619849	0.256749	0.603085
C104	C	1.511668	0.286921	0.614024
C105	C	1.414408	0.347275	0.516777
C106	C	0.500205	0.914659	-0.397453
C107	C	0.402943	0.975029	-0.494701
C108	C	0.413852	1.005219	-0.602889
C109	C	0.522033	0.975043	-0.613828
C110	C	0.619293	0.914678	-0.516582
C111	C	0.619325	0.914636	0.059650
C112	C	0.522081	0.975000	0.059645
C113	C	0.413892	1.005191	0.000089
C114	C	0.402947	0.975021	-0.059474
C115	C	0.500190	0.914662	-0.059475
C116	C	1.076423	0.914636	-0.397422
C117	C	1.076447	0.974984	-0.494665
C118	C	1.016900	1.005174	-0.602857
C119	C	0.957334	0.975006	-0.613805
C120	C	0.957317	0.914654	-0.516564
H121	H	1.197836	0.015267	0.015555
H122	H	0.908808	0.890103	-0.525496
H123	H	1.016922	1.054316	-0.682028
H124	H	1.214778	0.559750	-0.500717
H125	H	0.334720	1.054339	0.000099
H126	H	0.901977	0.773459	-0.672866
H127	H	0.314847	0.999612	-0.107962
H128	H	0.908852	0.999595	-0.701908
H129	H	0.491301	0.890081	-0.309369
H130	H	1.124874	0.371881	-0.107976
H131	H	1.326335	0.371829	0.525702
H132	H	0.491261	0.890102	-0.107970
H133	H	1.698980	0.207631	0.000046
H134	H	0.908785	0.371849	0.309569
H135	H	1.124951	0.999541	-0.485728
H136	H	0.531015	0.999554	0.108153
H137	H	0.530902	0.999632	-0.701927
H138	H	1.542400	0.371857	0.309564
H139	H	0.908807	-0.000439	0.108155
H140	H	1.502686	0.262407	-0.107993
H141	H	1.542440	0.371840	0.108161
H142	H	0.460134	0.773477	-0.114795
H143	H	0.334647	1.054371	-0.682064
H144	H	0.818848	0.702247	-0.499148
H145	H	1.124885	0.262382	-0.107963
H146	H	1.197829	0.124772	0.015529
H147	H	1.124890	0.371862	0.525649
H148	H	1.718854	0.262351	0.108119
H149	H	1.124913	0.890065	-0.309335
H150	H	0.933483	0.559771	-0.500558
H151	H	1.124894	-0.000431	-0.107953
H152	H	1.718835	0.262376	0.485969
H153	H	1.131621	0.488399	-0.327070
H154	H	1.124912	-0.109937	-0.107927
H155	H	0.908790	0.262359	0.486034
H156	H	1.124893	0.262385	0.702081
H157	H	0.314867	0.999588	-0.485771
H158	H	1.699054	0.207605	0.682260
H159	H	0.401220	0.702230	-0.197892
H160	H	1.502802	0.262334	0.702124
H161	H	0.401277	0.702216	0.083248
H162	H	0.835852	0.137187	-0.015360
H163	H	0.908811	-0.109935	0.108159
H164	H	0.835840	0.246686	-0.015385
H165	H	1.016844	0.207624	0.682292
H166	H	1.326292	0.371888	-0.107973
H167	H	0.707367	0.890111	-0.525504
H168	H	0.908802	0.262372	0.108137
H169	H	0.908800	0.371865	0.108146
H170	H	0.707409	0.890060	0.108154
H171	H	0.632250	0.559780	-0.083271
H172	H	0.573824	0.488382	0.114888
H173	H	0.632447	0.559767	0.198013
H174	H	1.099986	0.702234	-0.499172
