data_functionalizedCrystal
_audit_creation_method	'MofGen! by Chris Wilmer'
_symmetry_space_group_name_H-M	'P1'
_symmetry_Int_Tables_number	1
_symmetry_cell_setting	triclinic
loop_
_symmetry_equiv_pos_as_xyz
  x,y,z
_cell_length_a	12.811438
_cell_length_b	12.837942
_cell_length_c	16.053802
_cell_angle_alpha	92.838962
_cell_angle_beta	92.832066
_cell_angle_gamma	89.413151
loop_
_atom_site_label
_atom_site_type_symbol
_atom_site_fract_x
_atom_site_fract_y
_atom_site_fract_z
O1	O	1.404507	0.142016	0.036930
O2	O	1.101764	0.155765	0.014002
O3	O	1.246422	-0.002073	0.024963
O4	O	1.259849	0.299854	0.025969
O5	O	1.238456	0.006578	0.163218
O6	O	1.093798	0.164416	0.152258
O7	O	1.396541	0.150667	0.175185
Zn8	Zn	1.243905	0.158915	0.185673
Zn9	Zn	1.254400	0.147516	0.003515
O10	O	1.251883	0.308505	0.164225
C11	C	1.058762	0.159054	0.080175
C12	C	0.942497	0.155952	0.071370
C13	C	0.782965	0.146865	-0.016393
C14	C	0.892207	0.149778	-0.008127
C15	C	0.883537	0.159211	0.142607
C16	C	0.774295	0.156298	0.134341
C17	C	0.724013	0.150126	0.054838
C18	C	0.614769	0.147221	0.046573
C19	C	0.606101	0.156646	0.197307
C20	C	0.715343	0.159559	0.205573
C21	C	1.237904	-0.036409	0.093747
C22	C	1.224377	-0.151609	0.092721
C23	C	1.386997	-0.391091	0.105019
C24	C	1.374293	-0.499333	0.104055
C25	C	1.186263	-0.476336	0.089824
C26	C	1.198968	-0.368095	0.090788
C27	C	1.299338	-0.325476	0.098387
C28	C	1.312042	-0.217233	0.099356
C29	C	1.124014	-0.194238	0.085119
C30	C	1.111309	-0.302480	0.084155
C31	C	1.439543	0.147378	0.109011
C32	C	1.555809	0.150479	0.117810
C33	C	1.260401	0.342841	0.095439
C34	C	1.273929	0.458041	0.096460
N35	N	1.236749	0.166694	0.309991
N36	N	1.261563	0.139729	-0.120802
C37	C	1.298329	0.099558	0.358350
C38	C	1.293335	0.105010	0.445379
C39	C	1.226765	0.177603	0.484046
C40	C	1.165178	0.244742	0.435680
C41	C	1.170168	0.239285	0.348653
C42	C	1.204966	0.201411	0.743804
C43	C	1.199983	0.206865	0.830838
C44	C	1.328139	0.067131	0.840531
C45	C	1.333127	0.061685	0.753502
C46	C	1.271536	0.128820	0.705143
N47	N	1.221661	0.183179	0.573003
N48	N	1.276636	0.123238	0.616187
H49	H	0.573831	0.142201	-0.018162
H50	H	1.468722	-0.356390	0.111214
H51	H	0.742024	0.141852	-0.081128
F52	F	1.139421	0.272863	0.692344
H53	H	0.940202	0.147123	-0.066132
F54	F	1.094324	0.321997	0.476833
H55	H	1.445674	-0.552753	0.109454
H56	H	1.352542	0.040450	0.326874
H57	H	1.120022	0.293953	0.309278
H58	H	0.924496	0.164223	0.207335
H59	H	1.378282	0.012472	0.879912
H60	H	0.756298	0.164579	0.270302
F61	F	1.129128	0.284136	0.871985
H62	H	1.393768	-0.182535	0.105547
F63	F	0.543352	0.160123	0.273122
H64	H	1.387333	0.002574	0.722021
F65	F	1.079452	-0.521713	0.081717
H66	H	1.029590	-0.337195	0.077965
F67	F	1.358873	0.033555	0.496847
H68	H	1.052635	-0.140802	0.079725
