data_functionalizedCrystal
_audit_creation_method	'MofGen! by Chris Wilmer'
_symmetry_space_group_name_H-M	'P1'
_symmetry_Int_Tables_number	1
_symmetry_cell_setting	triclinic
loop_
_symmetry_equiv_pos_as_xyz
  x,y,z
_cell_length_a	19.188930
_cell_length_b	19.188930
_cell_length_c	7.681481
_cell_angle_alpha	84.272277
_cell_angle_beta	95.690192
_cell_angle_gamma	83.144779
loop_
_atom_site_label
_atom_site_type_symbol
_atom_site_fract_x
_atom_site_fract_y
_atom_site_fract_z
O1	O	0.919497	0.093824	-0.147013
O2	O	0.716191	0.105553	-0.146895
O3	O	0.823712	-0.001968	-0.146923
O4	O	0.811975	0.201346	-0.146985
O5	O	0.836946	-0.015232	0.145932
O6	O	0.729425	0.092289	0.145960
O7	O	0.932731	0.080561	0.145842
Zn8	Zn	0.833179	0.084319	0.192398
Zn9	Zn	0.815742	0.101795	-0.193451
O10	O	0.825209	0.188082	0.145870
C11	C	0.696797	0.098541	-0.000452
C12	C	0.619295	0.097398	-0.000405
C13	C	0.574369	0.160491	-0.000452
C14	C	0.501544	0.159420	-0.000471
C15	C	0.473647	0.095254	-0.000479
C16	C	0.518584	0.032153	-0.000422
C17	C	0.591408	0.033224	-0.000385
N18	N	0.361161	0.050724	-0.100206
N19	N	0.291980	0.049710	-0.100244
C20	C	0.254234	0.092021	-0.000585
N21	N	0.288279	0.135395	0.099092
N22	N	0.357465	0.136411	0.099122
C23	C	0.394683	0.094085	-0.000517
C24	C	0.130343	0.153957	-0.000650
C25	C	0.057517	0.152883	-0.000659
C26	C	0.074558	0.025615	-0.000627
C27	C	0.147382	0.026690	-0.000601
C28	C	0.175270	0.090863	-0.000621
C29	C	0.829950	-0.034611	-0.000490
C30	C	0.828810	-0.112117	-0.000474
C31	C	0.891899	-0.157039	-0.000503
C32	C	0.890826	-0.229862	-0.000530
C33	C	0.826662	-0.257760	-0.000494
C34	C	0.763563	-0.212827	-0.000476
C35	C	0.764637	-0.140005	-0.000466
N36	N	0.782120	-0.370280	0.099198
N37	N	0.781104	-0.439459	0.099192
C38	C	0.823422	-0.477167	-0.000528
N39	N	0.866806	-0.443086	-0.100221
N40	N	0.867824	-0.373902	-0.100207
C41	C	0.825490	-0.336722	-0.000506
C42	C	0.885353	-0.601053	-0.000589
C43	C	0.884276	-0.673876	-0.000627
C44	C	0.757013	-0.656840	-0.000555
C45	C	0.758090	-0.584018	-0.000534
C46	C	0.822262	-0.556129	-0.000543
C47	C	0.952124	0.087573	-0.000605
C48	C	1.029626	0.088717	-0.000663
C49	C	0.818972	0.220725	-0.000567
C50	C	0.820111	0.298231	-0.000594
N51	N	0.845084	0.072392	0.455729
N52	N	0.803843	0.113717	-0.456782
H53	H	0.020939	0.204263	-0.000687
C54	C	0.901289	0.016127	0.555659
C55	C	0.937564	-0.020204	0.435632
C56	C	0.989348	-0.072033	0.527623
H57	H	0.879529	-0.016133	0.627621
H58	H	0.933579	0.037880	0.627501
H59	H	0.905279	-0.041956	0.363821
H60	H	0.959339	0.012037	0.363667
H61	H	1.021638	-0.050280	0.599464
H62	H	0.967582	-0.104288	0.599582
H63	H	1.013972	-0.096686	0.446199
H64	H	0.051840	-0.026625	-0.000742
C65	C	0.160496	0.223694	-0.000562
C66	C	0.105563	0.278719	-0.000542
C67	C	0.133312	0.342969	-0.000436
H68	H	0.183941	0.231484	-0.102649
H69	H	0.193132	0.222167	0.101614
H70	H	0.072939	0.280247	-0.102707
H71	H	0.082113	0.270953	0.101538
H72	H	0.165948	0.341441	0.101740
H73	H	0.156757	0.350751	-0.102525
H74	H	0.096046	0.380310	-0.000406
C75	C	0.954957	-0.570655	-0.000898
C76	C	0.952471	-0.522493	-0.151533
C77	C	1.016572	-0.494472	-0.151868
H78	H	0.992435	-0.607764	-0.001024
H79	H	0.962640	-0.547195	0.101180
H80	H	0.944795	-0.545953	-0.253585
H81	H	0.915005	-0.485373	-0.151439
H82	H	1.024256	-0.471011	-0.049790
H83	H	1.054046	-0.531585	-0.151990
H84	H	1.014892	-0.461786	-0.254063
H85	H	0.597070	0.212746	-0.000472
H86	H	0.627987	-0.018155	-0.000348
H87	H	0.761744	0.155897	0.468032
C88	C	0.687308	-0.687063	-0.000883
C89	C	0.642381	-0.657386	-0.151549
C90	C	0.578165	-0.685220	-0.151930
H91	H	0.665865	-0.676276	0.101138
H92	H	0.695668	-0.736866	-0.000992
H93	H	0.634020	-0.607595	-0.151423
H94	H	0.663802	-0.668171	-0.253594
H95	H	0.586525	-0.735022	-0.152040
H96	H	0.556728	-0.674431	-0.049903
H97	H	0.547676	-0.665093	-0.254162
H98	H	0.495864	-0.020091	-0.000452
H99	H	0.464959	0.210799	-0.000504
H100	H	0.944153	-0.134337	-0.000516
H101	H	0.935653	-0.710451	-0.000660
H102	H	0.942203	-0.266445	-0.000560
C103	C	0.196043	-0.041883	-0.000661
C104	C	0.156027	-0.098306	-0.000717
C105	C	0.200828	-0.161488	-0.000790
H106	H	0.229419	-0.048835	0.101449
H107	H	0.220196	-0.039520	-0.102814
H108	H	0.131885	-0.100670	0.101425
H109	H	0.122653	-0.091378	-0.102820
H110	H	0.224981	-0.159125	-0.102942
H111	H	0.234201	-0.168432	0.101323
H112	H	0.173683	-0.199778	-0.000844
H113	H	0.706716	-0.547441	-0.000501
H114	H	0.711320	-0.235546	-0.000451
H115	H	0.713261	-0.103428	-0.000442
