data_functionalizedCrystal
_audit_creation_method	'MofGen! by Chris Wilmer'
_symmetry_space_group_name_H-M	'P1'
_symmetry_Int_Tables_number	1
_symmetry_cell_setting	triclinic
loop_
_symmetry_equiv_pos_as_xyz
  x,y,z
_cell_length_a	15.538191
_cell_length_b	14.519709
_cell_length_c	14.750779
_cell_angle_alpha	77.332886
_cell_angle_beta	97.572172
_cell_angle_gamma	65.476119
loop_
_atom_site_label
_atom_site_type_symbol
_atom_site_fract_x
_atom_site_fract_y
_atom_site_fract_z
O1	O	1.229003	-0.272518	-0.079831
O2	O	0.954923	-0.166092	-0.079833
O3	O	1.099232	-0.355991	-0.079824
O4	O	1.084694	-0.082619	-0.079841
O5	O	1.140026	-0.409668	0.079829
O6	O	0.995717	-0.219769	0.079820
O7	O	1.269797	-0.326196	0.079821
Zn8	Zn	1.139234	-0.281505	0.105169
Zn9	Zn	1.085486	-0.210782	-0.105181
O10	O	1.125488	-0.136297	0.079812
C11	C	0.940243	-0.181796	-0.000007
C12	C	0.835725	-0.148628	-0.000007
C13	C	0.547381	-0.478139	-0.000001
C14	C	0.449167	-0.446949	-0.000004
C15	C	0.427017	-0.271514	-0.000015
C16	C	0.525232	-0.302691	-0.000007
C17	C	0.585407	-0.406004	-0.000002
C18	C	0.563258	-0.230557	-0.000008
C19	C	0.661464	-0.261730	-0.000005
C20	C	0.721643	-0.365037	-0.000003
C21	C	0.683612	-0.437177	0.000001
C22	C	0.503080	-0.127242	-0.000020
C23	C	0.541106	-0.055108	-0.000021
C24	C	0.639315	-0.086282	-0.000012
C25	C	0.699494	-0.189590	-0.000009
C26	C	0.677346	-0.014142	-0.000015
C27	C	0.775551	-0.045315	-0.000013
C28	C	0.797700	-0.220763	-0.000006
C29	C	1.118952	-0.416961	0.000003
C30	C	1.116922	-0.518660	0.000004
C31	C	1.109444	-0.891034	-0.000021
C32	C	1.111521	-0.787427	-0.000014
C33	C	1.113183	-0.704851	-0.000008
C34	C	1.115260	-0.601236	-0.000003
C35	C	1.284476	-0.310491	-0.000007
C36	C	1.388993	-0.343656	-0.000013
C37	C	1.105768	-0.075325	-0.000017
C38	C	1.107796	0.026375	-0.000024
N39	N	1.175923	-0.329774	0.248727
N40	N	1.048805	-0.162523	-0.248739
C41	C	0.946338	-0.027755	0.600530
C42	C	0.972054	-0.061575	0.701031
C43	C	1.099866	-0.229693	0.701002
C44	C	1.074158	-0.195889	0.600499
C45	C	0.997394	-0.094918	0.550271
C46	C	1.125213	-0.263052	0.550240
C47	C	1.099510	-0.229248	0.449746
C48	C	1.022751	-0.128281	0.399511
C49	C	0.971690	-0.061114	0.449777
C50	C	1.201982	-0.364019	0.600470
C51	C	1.253037	-0.431183	0.550211
C52	C	1.227330	-0.397382	0.449715
C53	C	1.150571	-0.296415	0.399480
C54	C	1.278390	-0.464549	0.399449
C55	C	1.252687	-0.430745	0.298955
C56	C	1.124867	-0.262611	0.298986
H57	H	0.492098	0.029011	-0.000029
O58	O	1.352887	-0.562705	0.448144
C59	C	1.331139	-0.640578	0.423619
H60	H	1.276194	-0.603801	0.350662
H61	H	1.400944	-0.708464	0.420171
H62	H	1.298695	-0.672440	0.480192
O63	O	0.412064	-0.516882	-0.000039
C64	C	0.312489	-0.467228	-0.000015
H65	H	0.281834	-0.377417	-0.030246
H66	H	0.270395	-0.495822	-0.046363
H67	H	0.304717	-0.488292	0.076579
O68	O	0.619009	0.086268	-0.000070
C69	C	0.673638	0.143245	-0.000045
H70	H	0.739173	0.105466	-0.030258
H71	H	0.625677	0.229187	-0.046406
H72	H	0.700236	0.141157	0.076548
O73	O	0.871659	0.070246	0.551690
C74	C	0.798652	0.059831	0.493556
H75	H	0.804697	-0.022520	0.523845
H76	H	0.723595	0.122816	0.492431
H77	H	0.808629	0.070775	0.417388
O78	O	0.856082	-0.321077	-0.000169
C79	C	0.817688	-0.339041	-0.082838
H80	H	0.769437	-0.259716	-0.140634
H81	H	0.880206	-0.389994	-0.110591
H82	H	0.772375	-0.381941	-0.064139
O83	O	0.817053	-0.395483	-0.000041
C84	C	0.862013	-0.502144	-0.000010
H85	H	0.803966	-0.523688	-0.030236
H86	H	0.916546	-0.512749	-0.046358
H87	H	0.901886	-0.556243	0.076585
H88	H	1.062352	-0.180395	0.258089
H89	H	0.732612	-0.521307	0.000011
H90	H	0.378009	-0.187395	-0.000023
H91	H	0.423115	-0.101863	-0.000025
O92	O	0.922317	0.003784	0.749705
C93	C	0.849068	0.100157	0.683818
H94	H	0.829628	0.086819	0.612181
H95	H	0.781337	0.129564	0.712868
H96	H	0.877008	0.162017	0.673127
H97	H	0.806514	0.013421	-0.000004
O98	O	0.997952	-0.095502	0.301891
C99	C	1.078742	-0.095301	0.268290
H100	H	1.148989	-0.152205	0.326184
H101	H	1.080741	-0.121877	0.201051
H102	H	1.071827	-0.011661	0.250463
H103	H	0.909175	0.021102	0.408880
O104	O	1.174378	-0.327757	0.749946
C105	C	1.186136	-0.343183	0.849423
H106	H	1.114863	-0.288339	0.863168
H107	H	1.206259	-0.429331	0.887615
H108	H	1.246792	-0.324353	0.877925
O109	O	1.226805	-0.396887	0.698091
C110	C	1.146000	-0.397044	0.731688
H111	H	1.094341	-0.403501	0.673784
H112	H	1.172499	-0.467629	0.798915
H113	H	1.105820	-0.320130	0.749535
O114	O	1.327549	-0.529247	0.599155
C115	C	1.339307	-0.544673	0.698632
H116	H	1.268034	-0.489829	0.712377
H117	H	1.359430	-0.630821	0.736824
H118	H	1.399964	-0.525843	0.727134
O119	O	1.302144	-0.495883	0.249986
C120	C	1.236814	-0.516375	0.191835
H121	H	1.159340	-0.450044	0.176836
H122	H	1.258003	-0.520208	0.121142
H123	H	1.240271	-0.595440	0.230501
H124	H	0.596381	-0.562268	0.000009
