data_functionalizedCrystal
_audit_creation_method	'MofGen! by Chris Wilmer'
_symmetry_space_group_name_H-M	'P1'
_symmetry_Int_Tables_number	1
_symmetry_cell_setting	triclinic
loop_
_symmetry_equiv_pos_as_xyz
  x,y,z
_cell_length_a	29.839131
_cell_length_b	16.959455
_cell_length_c	16.959447
_cell_angle_alpha	89.976354
_cell_angle_beta	90.033915
_cell_angle_gamma	89.963588
loop_
_atom_site_label
_atom_site_type_symbol
_atom_site_fract_x
_atom_site_fract_y
_atom_site_fract_z
Zn1	Zn	-0.178904	-1.208267	0.447086
Zn2	Zn	-0.254038	-1.208140	0.314899
Zn3	Zn	-0.178916	-1.076095	0.314901
Zn4	Zn	-0.254002	-1.076010	0.447016
O5	O	-0.216465	-1.142128	0.380975
O6	O	-0.188881	-1.318861	0.429579
O7	O	-0.244093	-1.190606	0.204288
O8	O	-0.116047	-1.093716	0.332466
O9	O	-0.244081	-1.318767	0.332461
O10	O	-0.116039	-1.190822	0.429581
O11	O	-0.188901	-1.093593	0.204290
O12	O	-0.188866	-0.965473	0.332399
O13	O	-0.244020	-1.093572	0.557636
O14	O	-0.244031	-0.965411	0.429462
O15	O	-0.188846	-1.190740	0.557687
O16	O	-0.316900	-1.190524	0.332394
O17	O	-0.316874	-1.093449	0.429460
C18	C	-0.216446	-0.936762	0.380924
C19	C	-0.216449	-0.848905	0.380920
C20	C	-0.245166	-0.477370	0.330343
C21	C	-0.187775	-0.477489	0.431628
C22	C	-0.187769	-0.560034	0.431614
C23	C	-0.216463	-0.601252	0.380964
C24	C	-0.245162	-0.559924	0.330328
C25	C	-0.159073	-0.601369	0.482254
C26	C	-0.159067	-0.683920	0.482242
C27	C	-0.187758	-0.725139	0.431588
C28	C	-0.216459	-0.683806	0.380949
C29	C	-0.245152	-0.725023	0.330299
C30	C	-0.273850	-0.683692	0.279657
C31	C	-0.273854	-0.601143	0.279674
C32	C	-0.187755	-0.807687	0.431570
C33	C	-0.245148	-0.807577	0.330285
C34	C	-0.333188	-1.141985	0.380936
C35	C	-0.383122	-1.141996	0.380946
C36	C	-0.692766	-1.192767	0.330507
C37	C	-0.880440	-1.192864	0.330538
O38	O	-0.904705	-1.235918	0.287623
N39	N	-0.903907	-1.142292	0.381035
C40	C	-0.880453	-1.091695	0.431532
O41	O	-0.904720	-1.048688	0.474489
C42	C	-0.692781	-1.091602	0.431505
C43	C	-0.669316	-1.142172	0.380998
C44	C	-0.669301	-1.243333	0.280006
C45	C	-0.622386	-1.243305	0.279995
C46	C	-0.598936	-1.192711	0.330487
C47	C	-0.622401	-1.142144	0.380988
C48	C	-0.669328	-1.041010	0.482005
C49	C	-0.622407	-1.040993	0.481995
C50	C	-0.598942	-1.091563	0.431489
C51	C	-0.552035	-1.091522	0.431469
N52	N	-0.528567	-1.142094	0.380972
C53	C	-0.552018	-1.192689	0.330481
C54	C	-0.978984	-1.091746	0.431541
C55	C	-1.025902	-1.091768	0.431547
C56	C	-1.025885	-1.192939	0.330554
C57	C	-0.978966	-1.192912	0.330545
C58	C	-0.955516	-1.142319	0.381044
C59	C	-0.453492	-1.192626	0.330463
C60	C	-0.406572	-1.192591	0.330455
C61	C	-0.406593	-1.091424	0.431450
C62	C	-0.453509	-1.091455	0.431456
C63	C	-0.476957	-1.142063	0.380959
O64	O	-0.527740	-1.048497	0.474368
O65	O	-0.527743	-1.235702	0.287542
C66	C	-0.739682	-1.192795	0.330517
C67	C	-0.763147	-1.142228	0.381019
C68	C	-0.739697	-1.091634	0.431510
C69	C	-0.810065	-1.142250	0.381025
C70	C	-0.833515	-1.192845	0.330533
C71	C	-0.810048	-1.243417	0.280036
C72	C	-0.763132	-1.243389	0.280026
C73	C	-0.763164	-1.041061	0.482007
C74	C	-0.810080	-1.041093	0.482013
C75	C	-0.833530	-1.091687	0.431521
C76	C	-0.099287	-1.142293	0.381032
C77	C	-0.049352	-1.142363	0.381056
C78	C	-0.216428	-1.142161	0.587144
C79	C	-0.216412	-1.142175	0.675000
C80	C	-0.216479	-0.348296	0.381013
C81	C	-0.216472	-0.436153	0.380993
C82	C	-0.216470	-1.142141	0.175609
C83	C	-0.216359	-1.142280	0.087753
C84	C	-0.245091	-1.091678	1.046452
C85	C	-0.187638	-1.192860	1.046500
C86	C	-0.187648	-1.192839	0.963954
C87	C	-0.216380	-1.142238	0.922653
C88	C	-0.245102	-1.091657	0.963898
C89	C	-0.158929	-1.243424	0.922703
C90	C	-0.158938	-1.243406	0.840152
C91	C	-0.187668	-1.192800	0.798850
C92	C	-0.216391	-1.142217	0.840100
C93	C	-0.245123	-1.091615	0.798799
C94	C	-0.273844	-1.041028	0.840047
C95	C	-0.273832	-1.041051	0.922596
C96	C	-0.187680	-1.192776	0.716301
C97	C	-0.245134	-1.091595	0.716245
H98	H	-0.387469	-1.233771	0.289324
H99	H	-0.135551	-1.284597	0.806575
N100	N	-0.478773	-1.247203	0.275988
H101	H	-0.498270	-1.215114	0.239326
H102	H	-0.498182	-1.283823	0.308195
N103	N	-0.127944	-1.298003	0.967246
H104	H	-0.132294	-1.290336	1.025799
H105	H	-0.095859	-1.285745	0.952834
N106	N	-1.051206	-1.037222	0.486021
H107	H	-1.084488	-1.044908	0.478369
H108	H	-1.043038	-0.980775	0.473658
H109	H	-0.297240	-0.999832	0.806409
H110	H	-0.164297	-1.233966	0.682721
H111	H	-0.744074	-0.999862	0.523124
N112	N	-0.304799	-0.728147	0.225027
H113	H	-0.325639	-0.762393	0.257079
H114	H	-0.286481	-0.762350	0.188466
N115	N	-0.276117	-1.037003	0.671701
H116	H	-0.294306	-1.004960	0.710359
H117	H	-0.296919	-1.069131	0.637440
H118	H	-0.297217	-0.999868	0.956188
H119	H	-0.268474	-1.050489	1.080040
N120	N	-0.276114	-0.432791	0.275721
H121	H	-0.296957	-0.398537	0.307778
H122	H	-0.294260	-0.471477	0.243643
H123	H	-0.164248	-1.234062	1.080133
H124	H	-0.268513	-0.841130	0.289036
H125	H	-0.297218	-0.567483	0.238443
H126	H	-0.135699	-0.717565	0.523478
N127	N	-0.835345	-1.297981	0.225570
H128	H	-0.868627	-1.290318	0.233244
H129	H	-0.827112	-1.354423	0.237928
H130	H	-0.959864	-1.234091	0.289419
N131	N	-0.128130	-0.556912	0.536883
H132	H	-0.096021	-0.571303	0.524714
H133	H	-0.135188	-0.571320	0.593311
H134	H	-0.603283	-1.284486	0.238871
H135	H	-0.164416	-0.443924	0.472870
H136	H	-0.164391	-0.841336	0.472805
H137	H	-0.387493	-1.050228	0.472557
H138	H	-1.044986	-1.234135	0.289442
H139	H	-0.688390	-1.284538	0.238889
H140	H	-0.959894	-1.050545	0.472665
H141	H	-0.603317	-0.999794	0.523120
N142	N	-0.694629	-0.986462	0.536476
H143	H	-0.672648	-0.954414	0.568458
H144	H	-0.714064	-1.018619	0.573096
H145	H	-0.472615	-1.050279	0.472585
H146	H	-0.744030	-1.284568	0.238899
H147	H	-0.829181	-0.999905	0.523140
