data_functionalizedCrystal
_audit_creation_method	'MofGen! by Chris Wilmer'
_symmetry_space_group_name_H-M	'P1'
_symmetry_Int_Tables_number	1
_symmetry_cell_setting	triclinic
loop_
_symmetry_equiv_pos_as_xyz
  x,y,z
_cell_length_a	16.625546
_cell_length_b	16.625548
_cell_length_c	16.625539
_cell_angle_alpha	90.018832
_cell_angle_beta	89.971468
_cell_angle_gamma	89.977673
loop_
_atom_site_label
_atom_site_type_symbol
_atom_site_fract_x
_atom_site_fract_y
_atom_site_fract_z
Zn1	Zn	-0.321018	-1.232653	-0.455936
Zn2	Zn	0.012315	-0.899319	-0.122603
Zn3	Zn	0.345649	-0.565986	0.210731
Zn4	Zn	-0.455857	-1.232564	-0.321098
Zn5	Zn	-0.122523	-0.899231	0.012235
Zn6	Zn	0.210810	-0.565897	0.345569
Zn7	Zn	-0.321042	-1.097823	-0.321112
Zn8	Zn	0.012292	-0.764489	0.012221
Zn9	Zn	0.345625	-0.431156	0.345554
Zn10	Zn	-0.455812	-1.097785	-0.455884
Zn11	Zn	-0.122479	-0.764451	-0.122550
Zn12	Zn	0.210855	-0.431118	0.210783
O13	O	-0.388432	-1.165206	-0.388507
O14	O	-0.055099	-0.831873	-0.055174
O15	O	0.278235	-0.498539	0.278159
O16	O	-0.338914	-1.345473	-0.438065
O17	O	-0.005580	-1.012140	-0.104732
O18	O	0.327753	-0.678806	0.228601
O19	O	-0.438002	-1.214669	-0.208268
O20	O	-0.104668	-0.881336	0.125066
O21	O	0.228665	-0.548002	0.458399
O22	O	-0.208206	-1.115761	-0.339024
O23	O	0.125127	-0.782428	-0.005691
O24	O	0.458461	-0.449094	0.327642
O25	O	-0.437979	-1.345408	-0.339001
O26	O	-0.104646	-1.012075	-0.005667
O27	O	0.228688	-0.678741	0.327666
O28	O	-0.208189	-1.214820	-0.438079
O29	O	0.125145	-0.881487	-0.104746
O30	O	0.458478	-0.548153	0.228588
O31	O	-0.338954	-1.115675	-0.208278
O32	O	-0.005620	-0.782342	0.125055
O33	O	0.327713	-0.449008	0.458389
O34	O	-0.338910	-0.984985	-0.338974
O35	O	-0.005577	-0.651652	-0.005641
O36	O	0.327756	-0.318319	0.327693
O37	O	-0.437903	-1.115696	-0.568723
O38	O	-0.104569	-0.782363	-0.235390
O39	O	0.228764	-0.449030	0.097944
O40	O	-0.437926	-0.984957	-0.437990
O41	O	-0.104592	-0.651624	-0.104657
O42	O	0.228741	-0.318291	0.228676
O43	O	-0.338870	-1.214783	-0.568761
O44	O	-0.005537	-0.881450	-0.235428
O45	O	0.327796	-0.548117	0.097905
O46	O	-0.568683	-1.214632	-0.338950
O47	O	-0.235350	-0.881299	-0.005617
O48	O	0.097983	-0.547966	0.327717
O49	O	-0.568650	-1.115611	-0.437977
O50	O	-0.235317	-0.782277	-0.104643
O51	O	0.098016	-0.448944	0.228690
C52	C	-0.388416	-0.955715	-0.388478
C53	C	-0.055083	-0.622382	-0.055145
C54	C	0.278251	-0.289048	0.278188
C55	C	-0.388429	-0.866094	-0.388485
C56	C	-0.055095	-0.532761	-0.055152
C57	C	0.278238	-0.199427	0.278182
C58	C	-0.388427	-0.537918	-0.388509
C59	C	-0.055094	-0.204585	-0.055176
C60	C	0.278240	0.128748	0.278157
C61	C	-0.388425	-0.629227	-0.388500
C62	C	-0.055092	-0.295893	-0.055167
C63	C	0.278241	0.037440	0.278167
C64	C	-0.388428	-0.702003	-0.388497
C65	C	-0.055095	-0.368670	-0.055163
C66	C	0.278238	-0.035337	0.278170
C67	C	-0.388426	-0.793318	-0.388489
C68	C	-0.055092	-0.459984	-0.055155
C69	C	0.278241	-0.126651	0.278178
C70	C	-0.597923	-1.165130	-0.388474
C71	C	-0.264590	-0.831796	-0.055140
C72	C	0.068744	-0.498463	0.278193
C73	C	-0.687544	-1.165171	-0.388486
C74	C	-0.354211	-0.831837	-0.055153
C75	C	-0.020877	-0.498504	0.278180
C76	C	-1.015720	-1.165311	-0.388570
C77	C	-0.682386	-0.831978	-0.055237
C78	C	-0.349053	-0.498645	0.278096
C79	C	-0.924411	-1.165270	-0.388549
C80	C	-0.591078	-0.831936	-0.055216
C81	C	-0.257745	-0.498603	0.278118
C82	C	-0.851635	-1.165240	-0.388528
C83	C	-0.518301	-0.831907	-0.055194
C84	C	-0.184968	-0.498574	0.278139
C85	C	-0.760321	-1.165200	-0.388508
C86	C	-0.426987	-0.831867	-0.055174
C87	C	-0.093654	-0.498533	0.278159
C88	C	-0.178123	-1.165305	-0.388559
C89	C	0.155210	-0.831971	-0.055226
C90	C	0.488543	-0.498638	0.278108
C91	C	-0.088502	-1.165347	-0.388581
C92	C	0.244831	-0.832013	-0.055248
C93	C	0.578165	-0.498680	0.278086
C94	C	-0.388379	-1.165245	-0.598816
C95	C	-0.055046	-0.831912	-0.265483
C96	C	0.278288	-0.498579	0.067850
C97	C	-0.388356	-1.165262	-0.688438
C98	C	-0.055023	-0.831929	-0.355104
C99	C	0.278310	-0.498596	-0.021771
C100	C	-0.388443	-0.375515	-0.388529
C101	C	-0.055110	-0.042181	-0.055196
C102	C	0.278223	0.291152	0.278137
C103	C	-0.388435	-0.465136	-0.388519
C104	C	-0.055101	-0.131803	-0.055185
C105	C	0.278232	0.201531	0.278148
C106	C	-0.388338	-1.165275	-0.761220
C107	C	-0.055005	-0.831942	-0.427887
C108	C	0.278328	-0.498609	-0.094553
C109	C	-0.388308	-1.165294	-0.852529
C110	C	-0.054975	-0.831961	-0.519195
C111	C	0.278358	-0.498628	-0.185862
C112	C	-0.388280	-1.165313	-0.925305
C113	C	-0.054947	-0.831980	-0.591972
C114	C	0.278387	-0.498647	-0.258638
C115	C	-0.388251	-1.165333	-1.016620
C116	C	-0.054917	-0.832000	-0.683286
C117	C	0.278416	-0.498667	-0.349953
C118	C	-0.388427	-1.165213	-0.179017
C119	C	-0.055094	-0.831880	0.154317
C120	C	0.278240	-0.498546	0.487650
C121	C	-0.388222	-1.165352	-0.089396
C122	C	-0.054889	-0.832019	0.243937
C123	C	0.278444	-0.498686	0.577271
