data_functionalizedCrystal
_audit_creation_method	'MofGen! by Chris Wilmer'
_symmetry_space_group_name_H-M	'P1'
_symmetry_Int_Tables_number	1
_symmetry_cell_setting	triclinic
loop_
_symmetry_equiv_pos_as_xyz
  x,y,z
_cell_length_a	21.295420
_cell_length_b	21.295418
_cell_length_c	21.295411
_cell_angle_alpha	89.972970
_cell_angle_beta	89.983421
_cell_angle_gamma	90.025651
loop_
_atom_site_label
_atom_site_type_symbol
_atom_site_fract_x
_atom_site_fract_y
_atom_site_fract_z
Zn1	Zn	0.962319	-0.250666	-0.355921
Zn2	Zn	1.462319	0.249334	0.144079
Zn3	Zn	0.962242	-0.355931	-0.250650
Zn4	Zn	1.462242	0.144069	0.249350
Zn5	Zn	0.857057	-0.250677	-0.250666
Zn6	Zn	1.357057	0.249323	0.249334
Zn7	Zn	0.857017	-0.355898	-0.355881
Zn8	Zn	1.357017	0.144102	0.144119
O9	O	0.909658	-0.303293	-0.303279
O10	O	1.409658	0.196707	0.196721
O11	O	1.050398	-0.264639	-0.341966
O12	O	1.550398	0.235361	0.158034
O13	O	0.948273	-0.341987	-0.162562
O14	O	1.448273	0.158013	0.337438
O15	O	0.871069	-0.162586	-0.264652
O16	O	1.371069	0.337414	0.235348
O17	O	1.050341	-0.341977	-0.264624
O18	O	1.550341	0.158023	0.235376
O19	O	0.948404	-0.162578	-0.341982
O20	O	1.448404	0.337422	0.158018
O21	O	0.870994	-0.264657	-0.162574
O22	O	1.370994	0.235343	0.337426
O23	O	0.768962	-0.264625	-0.264613
O24	O	1.268962	0.235375	0.235387
O25	O	0.871001	-0.341921	-0.443976
O26	O	1.371001	0.158079	0.056024
O27	O	0.768933	-0.341931	-0.341914
O28	O	1.268933	0.158069	0.158086
O29	O	0.948366	-0.264608	-0.444005
O30	O	1.448366	0.235392	0.055995
O31	O	0.948234	-0.444016	-0.264585
O32	O	1.448234	0.055984	0.235415
O33	O	0.870926	-0.443992	-0.341898
O34	O	1.370926	0.056008	0.158102
C35	C	0.746107	-0.303276	-0.303261
C36	C	1.246107	0.196724	0.196739
C37	C	0.676139	-0.303284	-0.303268
C38	C	1.176139	0.196716	0.196732
C39	C	0.176682	-0.343620	-0.343491
C40	C	0.676682	0.156380	0.156509
C41	C	0.242425	-0.343621	-0.343484
C42	C	0.742425	0.156379	0.156516
C43	C	0.275299	-0.303307	-0.303299
C44	C	0.775299	0.196693	0.196701
C45	C	0.242426	-0.263002	-0.263106
C46	C	0.742426	0.236998	0.236894
C47	C	0.176685	-0.263008	-0.263109
C48	C	0.676685	0.236992	0.236891
N49	N	0.378538	-0.248191	-0.298565
N50	N	0.878538	0.251809	0.201435
N51	N	0.440989	-0.248187	-0.298565
N52	N	0.940989	0.251813	0.201435
C53	C	0.473374	-0.303290	-0.303286
C54	C	0.973374	0.196710	0.196714
N55	N	0.440948	-0.358397	-0.308018
N56	N	0.940948	0.141603	0.191982
N57	N	0.378491	-0.358400	-0.308021
N58	N	0.878491	0.141600	0.191979
C59	C	0.346585	-0.303297	-0.303291
C60	C	0.846585	0.196703	0.196709
C61	C	0.577525	-0.343596	-0.343466
C62	C	1.077525	0.156404	0.156534
C63	C	0.643269	-0.343597	-0.343455
C64	C	1.143269	0.156403	0.156545
C65	C	0.643269	-0.262973	-0.263080
C66	C	1.143269	0.237027	0.236920
C67	C	0.577526	-0.262977	-0.263088
C68	C	1.077526	0.237023	0.236912
C69	C	0.544658	-0.303288	-0.303284
C70	C	1.044658	0.196712	0.196716
C71	C	0.909585	-0.466845	-0.303249
C72	C	1.409585	0.033155	0.196751
C73	C	0.909611	-0.536813	-0.303257
C74	C	1.409611	-0.036813	0.196743
C75	C	0.950064	-1.036262	-0.263124
C76	C	1.450064	-0.536262	0.236876
C77	C	0.950040	-0.970520	-0.263109
C78	C	1.450040	-0.470520	0.236891
C79	C	0.909747	-0.937652	-0.303323
C80	C	1.409747	-0.437652	0.196677
C81	C	0.869464	-0.970533	-0.343544
C82	C	1.369464	-0.470533	0.156456
C83	C	0.869484	-1.036274	-0.343554
C84	C	1.369484	-0.536274	0.156446
N85	N	0.904850	-0.834402	-0.358406
N86	N	1.404850	-0.334402	0.141594
N87	N	0.904834	-0.771951	-0.358396
N88	N	1.404834	-0.271951	0.141604
C89	C	0.909681	-0.739578	-0.303297
C90	C	1.409681	-0.239578	0.196703
N91	N	0.914557	-0.772015	-0.248208
N92	N	1.414557	-0.272015	0.251792
N93	N	0.914577	-0.834472	-0.248219
N94	N	1.414577	-0.334472	0.251781
C95	C	0.909720	-0.866367	-0.303318
C96	C	1.409720	-0.366367	0.196682
C97	C	0.949933	-0.635420	-0.263059
C98	C	1.449933	-0.135420	0.236941
C99	C	0.949905	-0.569676	-0.263043
C100	C	1.449905	-0.069676	0.236957
C101	C	0.869332	-0.569690	-0.343484
C102	C	1.369332	-0.069690	0.156516
C103	C	0.869357	-0.635432	-0.343495
C104	C	1.369357	-0.135432	0.156505
C105	C	0.909661	-0.668293	-0.303283
C106	C	1.409661	-0.168293	0.196717
C107	C	1.073849	-0.303311	-0.303298
C108	C	1.573849	0.196689	0.196702
C109	C	1.143817	-0.303318	-0.303306
C110	C	1.643817	0.196682	0.196694
C111	C	0.909687	-0.303260	-0.467470
C112	C	1.409687	0.196740	0.032530
C113	C	0.909700	-0.303245	-0.537438
C114	C	1.409700	0.196755	-0.037438
C115	C	0.909749	-0.139103	-0.303323
C116	C	1.409749	0.360897	0.196677
C117	C	0.909788	-0.069135	-0.303342
C118	C	1.409788	0.430865	0.196658
C119	C	0.950009	-0.343381	-1.036890
C120	C	1.450009	0.156619	-0.536890
C121	C	0.949998	-0.343401	-0.971148
C122	C	1.449998	0.156599	-0.471148
C123	C	0.909759	-0.303147	-0.938277
C124	C	1.409759	0.196853	-0.438277
C125	C	0.869518	-0.262882	-0.971155
C126	C	1.369518	0.237118	-0.471155
C127	C	0.869526	-0.262867	-1.036896
C128	C	1.369526	0.237133	-0.536896
N129	N	0.904948	-0.248068	-0.835071
N130	N	1.404948	0.251932	-0.335071
N131	N	0.904944	-0.248083	-0.772619
N132	N	1.404944	0.251917	-0.272619
C133	C	0.909732	-0.303190	-0.740203
C134	C	1.409732	0.196810	-0.240203
N135	N	0.914536	-0.358281	-0.772597
N136	N	1.414536	0.141719	-0.272597
N137	N	0.914543	-0.358265	-0.835054
N138	N	1.414543	0.141735	-0.335054
C139	C	0.909746	-0.303159	-0.866992
C140	C	1.409746	0.196841	-0.366992
C141	C	0.949955	-0.343477	-0.636047
C142	C	1.449955	0.156523	-0.136047
C143	C	0.949939	-0.343498	-0.570304
C144	C	1.449939	0.156502	-0.070304
C145	C	0.869463	-0.262974	-0.570312
C146	C	1.369463	0.237026	-0.070312
C147	C	0.869475	-0.262959	-0.636055
C148	C	1.369475	0.237041	-0.136055
C149	C	0.909725	-0.303209	-0.668918
C150	C	1.409725	0.196791	-0.168918
C151	C	0.909666	-0.303281	-0.139728
C152	C	1.409666	0.196719	0.360272
C153	C	0.909775	-0.303118	-0.069760
C154	C	1.409775	0.196882	0.430240
H155	H	0.670035	-0.230151	-0.230358
H156	H	1.170035	0.269849	0.269642
Cl157	Cl	1.000596	-0.676734	-0.212505
Cl158	Cl	1.500596	-0.176734	0.287495
H159	H	0.149925	-0.376447	-0.376220
H160	H	0.649925	0.123553	0.123780
Cl161	Cl	0.818808	-0.929214	-0.394098
Cl162	Cl	1.318808	-0.429214	0.105902
H163	H	0.982699	-0.376291	-0.543542
H164	H	1.482699	0.123709	-0.043542
H165	H	0.982727	-0.376253	-0.662806
H166	H	1.482727	0.123747	-0.162806
H167	H	0.269189	-0.376440	-0.376210
H168	H	0.769189	0.123560	0.123790
Cl169	Cl	0.283753	-0.212325	-0.212585
Cl170	Cl	0.783753	0.287675	0.287415
H171	H	0.550767	-0.230157	-0.230367
H172	H	1.050767	0.269843	0.269633
Cl173	Cl	0.135366	-0.212336	-0.212588
Cl174	Cl	0.635366	0.287664	0.287412
Cl175	Cl	0.818884	-0.212349	-0.677379
Cl176	Cl	1.318884	0.287651	-0.177379
Cl177	Cl	0.536202	-0.394274	-0.393994
Cl178	Cl	1.036202	0.105726	0.106006
Cl179	Cl	0.684586	-0.394272	-0.393974
Cl180	Cl	1.184586	0.105728	0.106026
H181	H	0.836698	-0.230200	-0.543550
H182	H	1.336698	0.269800	-0.043550
Cl183	Cl	1.000729	-1.077570	-0.212570
Cl184	Cl	1.500729	-0.577570	0.287430
H185	H	0.982838	-0.943750	-0.230357
H186	H	1.482838	-0.443750	0.269643
Cl187	Cl	1.000542	-0.528350	-0.212478
Cl188	Cl	1.500542	-0.028350	0.287522
Cl189	Cl	0.818850	-1.077601	-0.394120
Cl190	Cl	1.318850	-0.577601	0.105880
H191	H	0.836522	-0.542930	-0.376225
H192	H	1.336522	-0.042930	0.123775
H193	H	0.836562	-0.662197	-0.376246
H194	H	1.336562	-0.162197	0.123754
H195	H	0.982782	-0.376158	-1.063644
H196	H	1.482782	0.123842	-0.563644
Cl197	Cl	1.000581	-0.394021	-0.929817
Cl198	Cl	1.500581	0.105979	-0.429817
H199	H	0.836754	-0.230108	-0.944388
H200	H	1.336754	0.269892	-0.444388
Cl201	Cl	0.818938	-0.212251	-1.078221
Cl202	Cl	1.318938	0.287749	-0.578221
