data_functionalizedCrystal
_audit_creation_method	'MofGen! by Chris Wilmer'
_symmetry_space_group_name_H-M	'P1'
_symmetry_Int_Tables_number	1
_symmetry_cell_setting	triclinic
loop_
_symmetry_equiv_pos_as_xyz
  x,y,z
_cell_length_a	17.038272
_cell_length_b	15.500215
_cell_length_c	8.559649
_cell_angle_alpha	93.497506
_cell_angle_beta	80.445110
_cell_angle_gamma	92.981713
loop_
_atom_site_label
_atom_site_type_symbol
_atom_site_fract_x
_atom_site_fract_y
_atom_site_fract_z
O1	O	1.019563	0.071831	0.351168
O2	O	0.792260	0.071857	0.345705
O3	O	0.925937	0.071841	0.118556
O4	O	0.885886	0.071847	0.578316
O5	O	0.920284	-0.072048	0.104530
O6	O	0.786608	-0.072032	0.331679
O7	O	1.013910	-0.072057	0.337142
Cu8	Cu	0.899743	-0.085183	0.333130
Cu9	Cu	0.906428	0.084982	0.349717
O10	O	0.880233	-0.072041	0.564290
C11	C	0.760604	-0.000084	0.333722
C12	C	0.674700	-0.000074	0.318893
C13	C	0.616428	-0.000073	0.455046
C14	C	0.535712	-0.000085	0.441101
C15	C	0.513270	-0.000092	0.291003
C16	C	0.571549	-0.000096	0.154841
C17	C	0.652263	-0.000090	0.168786
C18	C	0.270463	-0.000116	0.241737
C19	C	0.189743	-0.000119	0.227802
C20	C	0.153911	-0.000110	0.514064
C21	C	0.234628	-0.000099	0.527996
C22	C	0.292900	-0.000107	0.391833
C23	C	0.430767	-0.000102	0.276747
C24	C	0.375402	-0.000104	0.406091
N25	N	0.895047	-0.204867	0.321463
C26	C	0.934528	-0.250145	0.419629
C27	C	0.930987	-0.340717	0.410797
C28	C	0.887960	-0.386011	0.303806
C29	C	0.848478	-0.340728	0.205628
C30	C	0.852024	-0.250157	0.214453
C31	C	0.875194	-0.659478	0.272020
C32	C	0.871650	-0.750056	0.263205
C33	C	0.954160	-0.750039	0.468374
C34	C	0.957698	-0.659466	0.477196
C35	C	0.918220	-0.614190	0.379013
C36	C	0.884338	-0.478591	0.294779
C37	C	0.921847	-0.521612	0.388033
C38	C	1.045567	-0.000114	0.349125
C39	C	1.131471	-0.000118	0.363954
C40	C	0.926146	-0.000102	0.052426
C41	C	0.935181	-0.000098	-0.123726
N42	N	0.911131	0.204667	0.361372
C43	C	0.880025	-0.000096	0.630421
C44	C	0.870990	-0.000094	0.806573
H45	H	0.317899	-0.000124	0.130862
C46	C	0.996910	-0.799150	0.575221
C47	C	0.966777	-0.777132	0.734147
C48	C	1.006137	-0.822364	0.832618
H49	H	1.052323	-0.784338	0.554697
H50	H	0.988623	-0.859586	0.554752
H51	H	0.975071	-0.716710	0.754608
H52	H	0.911368	-0.791946	0.754720
H53	H	0.997849	-0.882800	0.812149
H54	H	1.061548	-0.807549	0.812081
H55	H	0.985692	-0.807437	0.940460
H56	H	0.809122	-0.000090	-0.118340
C57	C	0.547028	-0.000061	-0.007981
C58	C	0.463871	-0.000041	0.008945
C59	C	0.441257	0.000006	-0.141012
H60	H	0.565575	-0.050225	-0.069526
H61	H	0.569542	0.050136	-0.059633
H62	H	0.441367	-0.050232	0.060574
H63	H	0.445305	0.050120	0.070463
H64	H	0.463771	0.050202	-0.192665
H65	H	0.459809	-0.050159	-0.202545
H66	H	0.384834	0.000028	-0.129547
H67	H	0.171476	-0.000124	0.105568
H68	H	0.813449	-0.377614	0.118505
H69	H	0.843048	-0.622626	0.192071
C70	C	0.981317	-0.201129	0.535843
C71	C	1.015153	-0.260171	0.619891
C72	C	1.058272	-0.215052	0.726944
H73	H	0.946618	-0.165794	0.608016
H74	H	1.022328	-0.165815	0.479266
H75	H	0.974147	-0.295470	0.676466
H76	H	1.049864	-0.295508	0.547761
H77	H	1.099283	-0.179738	0.670367
H78	H	1.023568	-0.179719	0.799106
H79	H	1.081241	-0.255105	0.783973
C80	C	0.715416	-0.000042	0.020778
C81	C	0.678490	-0.000025	-0.113656
C82	C	0.736641	0.000028	-0.250031
H83	H	0.745715	-0.050204	0.015154
H84	H	0.749606	0.050157	0.025073
H85	H	0.644314	-0.050219	-0.117951
H86	H	0.648196	0.050133	-0.108085
H87	H	0.770831	0.050228	-0.245736
H88	H	0.766937	-0.050134	-0.255639
H89	H	0.711596	0.000048	-0.341259
H90	H	0.963138	-0.377578	0.490733
C91	C	1.017750	-0.000154	-0.223572
C92	C	1.075154	-0.000176	-0.123972
C93	C	1.151223	-0.000238	-0.215894
H94	H	1.026089	0.050005	-0.283666
H95	H	1.022076	-0.050355	-0.293383
H96	H	1.070831	0.050020	-0.054189
H97	H	1.066841	-0.050332	-0.063878
H98	H	1.155549	-0.050440	-0.285705
H99	H	1.159554	0.049922	-0.275984
H100	H	1.190181	-0.000261	-0.148330
H101	H	0.634692	-0.000067	0.577271
H102	H	0.393677	-0.000103	0.528299
H103	H	0.252894	-0.000083	0.650222
H104	H	0.412484	-0.000132	0.154534
C105	C	0.968633	-0.472596	0.504243
C106	C	1.002467	-0.531628	0.588314
C107	C	1.045577	-0.486497	0.695371
H108	H	0.933929	-0.437260	0.576401
H109	H	1.009644	-0.437282	0.447666
H110	H	0.961461	-0.566926	0.644889
H111	H	1.037184	-0.566965	0.516199
H112	H	1.086588	-0.451184	0.638794
H113	H	1.010867	-0.451163	0.767518
H114	H	1.068545	-0.526543	0.752416
H115	H	0.849305	-0.515480	0.207666
C116	C	0.472370	0.000060	0.588812
C117	C	0.427871	0.074074	0.596351
C118	C	0.369508	0.074233	0.732396
H119	H	0.497196	0.000117	0.680318
H120	H	0.438127	-0.050093	0.584459
H121	H	0.462109	0.124214	0.600716
H122	H	0.403028	0.074033	0.504876
H123	H	0.335265	0.024080	0.728044
H124	H	0.394341	0.074287	0.823892
H125	H	0.339304	0.124446	0.737522
C126	C	0.824926	-0.799075	0.146869
C127	C	0.791130	-0.740037	0.062746
C128	C	0.748092	-0.785161	-0.044441
H129	H	0.783898	-0.834409	0.203302
H130	H	0.859694	-0.834391	0.074766
H131	H	0.756365	-0.704737	0.134839
H132	H	0.832140	-0.704702	0.006282
H133	H	0.782860	-0.820477	-0.116544
H134	H	0.707068	-0.820493	0.012004
H135	H	0.725162	-0.745111	-0.101541
H136	H	0.106459	-0.000105	0.624919
H137	H	0.992738	-0.622594	0.564316
C138	C	0.809070	-0.201152	0.107797
C139	C	0.770611	-0.260201	0.012239
C140	C	0.731027	-0.215091	-0.086026
H141	H	0.846537	-0.165817	0.042514
H142	H	0.770824	-0.165838	0.171255
H143	H	0.808853	-0.295500	-0.051214
H144	H	0.733131	-0.295537	0.077480
H145	H	0.692782	-0.179777	-0.022568
H146	H	0.768500	-0.179758	-0.151298
H147	H	0.704923	-0.255149	-0.150863
