data_functionalizedCrystal
_audit_creation_method	'MofGen! by Chris Wilmer'
_symmetry_space_group_name_H-M	'P1'
_symmetry_Int_Tables_number	1
_symmetry_cell_setting	triclinic
loop_
_symmetry_equiv_pos_as_xyz
  x,y,z
_cell_length_a	10.968094
_cell_length_b	15.944545
_cell_length_c	10.065875
_cell_angle_alpha	98.787614
_cell_angle_beta	86.881123
_cell_angle_gamma	95.883315
loop_
_atom_site_label
_atom_site_type_symbol
_atom_site_fract_x
_atom_site_fract_y
_atom_site_fract_z
O1	O	-1.612875	0.146450	0.265787
O2	O	-1.262836	0.148854	0.183467
O3	O	-1.447415	0.025677	0.226892
O4	O	-1.428295	0.269626	0.222362
O5	O	-1.412219	0.049264	0.445600
O6	O	-1.227639	0.172440	0.402176
O7	O	-1.577678	0.170036	0.484495
Zn8	Zn	-1.397070	0.174983	0.478060
Zn9	Zn	-1.443444	0.143907	0.189902
O10	O	-1.393098	0.293213	0.441071
C11	C	-1.429024	0.006152	0.336060
C12	C	-1.426647	-0.087168	0.335505
C13	C	-1.200445	0.158691	0.282288
C14	C	-1.066976	0.152853	0.250900
C15	C	-1.640070	0.160199	0.385672
C16	C	-1.773540	0.166036	0.417050
C17	C	-1.305138	-0.361606	0.306902
C18	C	-1.381076	-0.320817	0.212844
C19	C	-1.418179	-0.423081	0.333475
C20	C	-1.346405	-0.297589	0.428481
C21	C	-1.422333	-0.258035	0.334473
C22	C	-1.494101	-0.383531	0.239321
C23	C	-1.459398	-0.360296	0.455050
C24	C	-1.535423	-0.319540	0.360985
C25	C	-1.415782	-0.518160	0.332898
C26	C	-1.424740	-0.162960	0.335043
C27	C	-0.851286	0.156424	0.317756
C28	C	-0.989230	0.162466	0.350209
C29	C	-1.411490	0.312738	0.331899
C30	C	-1.413868	0.406057	0.332445
N31	N	-1.365430	0.196192	0.674722
N32	N	-1.475093	0.122692	-0.006757
C33	C	-1.432427	0.151280	0.758263
C34	C	-1.408086	0.167610	0.909703
H35	H	-1.207805	-0.380316	0.283903
H36	H	-0.809102	0.178734	0.526086
C37	C	-1.534244	0.082987	0.703425
N38	N	-1.610928	0.031543	0.662121
C39	C	-1.578383	-0.433725	0.131171
N40	N	-1.641857	-0.471533	0.049710
H41	H	-1.024786	0.175165	0.459253
C42	C	-0.803251	0.139262	0.170449
N43	N	-0.767074	0.126335	0.059495
C44	C	-1.336403	-0.297025	0.074517
N45	N	-1.302748	-0.279107	-0.029669
C46	C	-1.504007	-0.384114	0.593371
N47	N	-1.537595	-0.402055	0.697563
C48	C	-1.306240	0.235889	0.964529
N49	N	-1.229531	0.287315	1.005826
C50	C	-1.576940	0.054413	0.938420
N51	N	-1.653654	0.002989	0.897127
C52	C	-1.018949	0.135693	0.103585
N53	N	-0.982774	0.122770	-0.007371
C54	C	-1.667052	-0.294501	0.391860
N55	N	-1.766196	-0.275642	0.415109
C56	C	-1.262068	-0.247267	0.536470
N57	N	-1.198538	-0.209368	0.617801
H58	H	-1.290046	0.246728	0.715313
