data_functionalizedCrystal
_audit_creation_method	'MofGen! by Chris Wilmer'
_symmetry_space_group_name_H-M	'P1'
_symmetry_Int_Tables_number	1
_symmetry_cell_setting	triclinic
loop_
_symmetry_equiv_pos_as_xyz
  x,y,z
_cell_length_a	16.992694
_cell_length_b	14.044220
_cell_length_c	15.455313
_cell_angle_alpha	92.908275
_cell_angle_beta	87.142206
_cell_angle_gamma	91.928550
loop_
_atom_site_label
_atom_site_type_symbol
_atom_site_fract_x
_atom_site_fract_y
_atom_site_fract_z
O1	O	1.057683	0.198159	-0.072025
O2	O	1.557683	0.698159	0.427975
O3	O	0.829244	0.195941	-0.072050
O4	O	1.329244	0.695941	0.427950
O5	O	0.940034	0.058806	-0.072029
O6	O	1.440034	0.558806	0.427971
O7	O	0.946893	0.335294	-0.072046
O8	O	1.446893	0.835294	0.427954
O9	O	0.933696	0.066614	0.072232
O10	O	1.433696	0.566614	0.572232
O11	O	0.822906	0.203749	0.072211
O12	O	1.322906	0.703749	0.572211
O13	O	1.051345	0.205967	0.072236
O14	O	1.551345	0.705967	0.572236
Cu15	Cu	0.936547	0.205571	0.085396
Cu16	Cu	1.436547	0.705571	0.585396
Cu17	Cu	0.944042	0.196337	-0.085210
Cu18	Cu	1.444042	0.696337	0.414790
O19	O	0.940555	0.343102	0.072215
O20	O	1.440555	0.843102	0.572215
C21	C	0.796663	0.196993	0.000077
C22	C	1.296663	0.696993	0.500077
C23	C	0.709024	0.188484	0.000068
C24	C	1.209024	0.688484	0.500068
C25	C	0.664526	0.270581	0.000063
C26	C	1.164526	0.770581	0.500063
C27	C	0.582179	0.262581	0.000076
C28	C	1.082179	0.762581	0.500076
C29	C	0.544332	0.172483	0.000086
C30	C	1.044332	0.672483	0.500086
C31	C	0.588836	0.090381	0.000093
C32	C	1.088836	0.590381	0.500093
C33	C	0.671181	0.098382	0.000087
C34	C	1.171181	0.598382	0.500087
C35	C	0.298414	0.139322	0.000112
C36	C	0.798414	0.639322	0.500112
C37	C	0.216063	0.131327	0.000115
C38	C	0.716063	0.631327	0.500115
C39	C	0.209411	0.303528	0.000100
C40	C	0.709411	0.803528	0.500100
C41	C	0.291759	0.311521	0.000088
C42	C	0.791759	0.811521	0.500088
C43	C	0.336255	0.229419	0.000099
C44	C	0.836255	0.729419	0.500099
N45	N	0.460161	0.164304	0.000096
N46	N	0.960161	0.664304	0.500096
N47	N	0.420425	0.237599	0.000096
N48	N	0.920425	0.737599	0.500096
C49	C	0.933863	0.027168	0.000101
C50	C	1.433863	0.527168	0.500101
C51	C	0.924909	-0.078736	0.000101
C52	C	1.424909	0.421264	0.500101
C53	C	0.908540	-0.272638	0.000087
C54	C	1.408540	0.227362	0.500087
C55	C	0.972046	-0.325460	0.000092
C56	C	1.472046	0.174540	0.500092
C57	C	0.962938	-0.433354	0.000084
C58	C	1.462938	0.066646	0.500084
C59	C	0.917647	-0.164734	0.000095
C60	C	1.417647	0.335266	0.500095
C61	C	1.083926	0.204915	0.000107
C62	C	1.583926	0.704915	0.500107
C63	C	1.171565	0.213424	0.000111
C64	C	1.671565	0.713424	0.500111
C65	C	0.946726	0.374740	0.000083
C66	C	1.446726	0.874740	0.500083
C67	C	0.955680	0.480644	0.000077
C68	C	1.455680	0.980644	0.500077
N69	N	0.931281	0.212065	0.205390
N70	N	1.431281	0.712065	0.705390
N71	N	0.949314	0.189836	-0.205204
N72	N	1.449314	0.689836	0.294796
C73	C	0.978368	0.153829	0.250793
C74	C	1.478368	0.653829	0.750793
C75	C	0.974393	0.158750	0.341600
C76	C	1.474393	0.658750	0.841600
C77	C	0.923335	0.221911	0.387003
C78	C	1.423335	0.721911	0.887003
C79	C	0.876243	0.280149	0.341594
C80	C	1.376243	0.780149	0.841594
C81	C	0.880214	0.275223	0.250788
C82	C	1.380214	0.775223	0.750788
C83	C	0.906193	0.243148	0.658581
C84	C	1.406193	0.743148	1.158581
C85	C	0.902227	0.248072	0.749393
C86	C	1.402227	0.748072	1.249393
C87	C	1.000377	0.126671	0.749394
C88	C	1.500377	0.626671	1.249394
C89	C	1.004347	0.121754	0.658586
C90	C	1.504347	0.621754	1.158586
C91	C	0.957251	0.179989	0.613185
C92	C	1.457251	0.679989	1.113185
N93	N	0.919273	0.226945	0.479822
N94	N	1.419273	0.726945	0.979822
N95	N	0.961310	0.174950	0.520367
N96	N	1.461310	0.674950	1.020367
H97	H	0.545952	0.329433	0.000072
H98	H	1.045952	0.829433	0.500072
H99	H	1.045922	0.070323	0.621622
H100	H	1.545922	0.570323	1.121622
O101	O	0.835464	-0.315197	0.000042
O102	O	1.335464	0.184803	0.500042
C103	C	0.778200	-0.244838	0.000066
C104	C	1.278200	0.255162	0.500066
H105	H	0.806121	-0.177066	-0.027242
H106	H	1.306121	0.322934	0.472758
H107	H	0.727968	-0.271813	-0.041819
H108	H	1.227968	0.228187	0.458181
H109	H	0.754204	-0.228742	0.069275
H110	H	1.254204	0.271258	0.569275
H111	H	0.185251	0.057956	0.000123
H112	H	0.685251	0.557956	0.500123
H113	H	1.019948	0.102401	0.213833
H114	H	1.519948	0.602401	0.713833
O115	O	1.045106	-0.282850	0.000227
O116	O	1.545106	0.217150	0.500227
C117	C	1.082992	-0.306637	0.074960
C118	C	1.582992	0.193363	0.574960
H119	H	1.055685	-0.375906	0.099855
H120	H	1.555685	0.124094	0.599855
H121	H	1.148427	-0.316236	0.058173
H122	H	1.648427	0.183764	0.558173
H123	H	1.075502	-0.247004	0.127281
H124	H	1.575502	0.252996	0.627281
H125	H	0.867847	0.290567	0.621622
H126	H	1.367847	0.790567	1.121622
O127	O	0.341601	0.059532	-0.000037
O128	O	0.841601	0.559532	0.499963
C129	C	0.326757	0.001146	-0.074736
C130	C	0.826757	0.501146	0.425264
H131	H	0.304467	0.046501	-0.126960
H132	H	0.804467	0.546501	0.373040
H133	H	0.383514	-0.034015	-0.099813
H134	H	0.883514	0.465985	0.400187
H135	H	0.280288	-0.056261	-0.057839
H136	H	0.780288	0.443739	0.442161
H137	H	1.012735	0.111329	0.378567
H138	H	1.512735	0.611329	0.878567
O139	O	0.328648	0.398966	0.000011
O140	O	0.828648	0.898966	0.500011
C141	C	0.410870	0.388423	0.000009
C142	C	0.910870	0.888423	0.500009
H143	H	0.426163	0.314027	-0.027267
H144	H	0.926163	0.814027	0.472733
H145	H	0.441866	0.444155	-0.041916
H146	H	0.941866	0.944155	0.458084
H147	H	0.431068	0.398561	0.069207
H148	H	0.931068	0.898561	0.569207
O149	O	1.046075	0.069959	0.793404
O150	O	1.546075	0.569959	1.293404
C151	C	1.027615	-0.026555	0.771246
C152	C	1.527615	0.473445	1.271246
H153	H	1.000124	-0.032330	0.705317
H154	H	1.500124	0.467670	1.205317
H155	H	1.083718	-0.069131	0.768141
H156	H	1.583718	0.430869	1.268141
H157	H	0.984076	-0.056247	0.822360
H158	H	1.484076	0.443753	1.322360
H159	H	0.860647	0.299509	0.786355
H160	H	1.360647	0.799509	1.286355
O161	O	0.552198	0.002788	0.000139
O162	O	1.052198	0.502788	0.500139
C163	C	0.609136	-0.067958	0.000119
C164	C	1.109136	0.432042	0.500119
H165	H	0.665661	-0.035536	0.027429
H166	H	1.165661	0.464464	0.527429
H167	H	0.585836	-0.128222	0.042003
H168	H	1.085836	0.371778	0.542003
H169	H	0.621951	-0.097323	-0.069090
H170	H	1.121951	0.402677	0.430910
O171	O	0.166067	0.383183	0.000134
O172	O	0.666067	0.883183	0.500134
C173	C	0.085272	0.356806	0.000120
C174	C	0.585272	0.856806	0.500120
H175	H	0.075688	0.283197	0.027436
H176	H	0.575688	0.783197	0.527436
H177	H	0.050019	0.411020	0.042003
H178	H	0.550019	0.911020	0.542003
H179	H	0.064776	0.354873	-0.069088
H180	H	0.564776	0.854873	0.430912
O181	O	0.826712	0.341482	0.385829
O182	O	1.326712	0.841482	0.885829
C183	C	0.833290	0.333329	0.475713
C184	C	1.333290	0.833329	0.975713
H185	H	0.892929	0.303178	0.488112
H186	H	1.392929	0.803178	0.988112
H187	H	0.828056	0.406698	0.510211
H188	H	1.328056	0.906698	1.010211
H189	H	0.784205	0.283522	0.501498
H190	H	1.284205	0.783522	1.001498
O191	O	0.714500	0.018696	-0.000028
O192	O	1.214500	0.518696	0.499972
C193	C	0.765590	0.014114	-0.074755
C194	C	1.265590	0.514114	0.425245
H195	H	0.776125	0.088718	-0.099671
H196	H	1.276125	0.588718	0.400329
H197	H	0.824168	-0.015787	-0.057951
H198	H	1.324168	0.484213	0.442049
H199	H	0.737790	-0.034292	-0.127067
H200	H	1.237790	0.465708	0.372933
O201	O	0.834561	0.331935	0.206719
O202	O	1.334561	0.831935	0.706719
C203	C	0.852984	0.428451	0.228905
C204	C	1.352984	0.928451	0.728905
H205	H	0.915037	0.435099	0.253857
H206	H	1.415037	0.935099	0.753857
H207	H	0.849870	0.472342	0.169180
H208	H	1.349870	0.972342	0.669180
H209	H	0.808943	0.455960	0.281615
H210	H	1.308943	0.955960	0.781615
O211	O	0.701160	0.358178	0.000091
O212	O	1.201160	0.858178	0.500091
C213	C	0.644223	0.428920	0.000069
C214	C	1.144223	0.928920	0.500069
H215	H	0.585305	0.399453	0.027387
H216	H	1.085305	0.899453	0.527387
H217	H	0.663852	0.493716	0.041946
H218	H	1.163852	0.993716	0.541946
H219	H	0.637471	0.450796	-0.069141
H220	H	1.137471	0.950796	0.430859
