data_functionalizedCrystal
_audit_creation_method	'MofGen! by Chris Wilmer'
_symmetry_space_group_name_H-M	'P1'
_symmetry_Int_Tables_number	1
_symmetry_cell_setting	triclinic
loop_
_symmetry_equiv_pos_as_xyz
  x,y,z
_cell_length_a	15.995350
_cell_length_b	15.995350
_cell_length_c	15.072220
_cell_angle_alpha	90.001101
_cell_angle_beta	89.991149
_cell_angle_gamma	83.492375
loop_
_atom_site_label
_atom_site_type_symbol
_atom_site_fract_x
_atom_site_fract_y
_atom_site_fract_z
O1	O	1.110996	0.107921	-0.073703
O2	O	0.867221	0.121249	-0.073721
O3	O	0.995772	-0.007303	-0.073710
O4	O	0.982444	0.236472	-0.073713
O5	O	0.995740	-0.007296	0.073855
O6	O	0.867189	0.121256	0.073844
O7	O	1.110964	0.107928	0.073862
Zn8	Zn	0.989071	0.114593	0.097283
Zn9	Zn	0.989113	0.114584	-0.097141
O10	O	0.982413	0.236480	0.073852
C11	C	0.836010	0.120701	0.000060
C12	C	0.743060	0.119049	0.000053
C13	C	0.405312	0.113117	0.000071
C14	C	0.452746	0.021565	0.000401
C15	C	0.549436	0.023217	0.000063
C16	C	0.572873	0.116060	0.000063
C17	C	0.531804	0.161212	-0.084201
C18	C	0.435168	0.158912	-0.084266
C19	C	0.434793	0.160812	0.083543
C20	C	0.531738	0.160790	0.084651
C21	C	0.667570	0.117727	0.000055
C22	C	0.310614	0.111452	0.000073
C23	C	0.995205	-0.038494	0.000070
C24	C	0.993553	-0.131444	0.000065
C25	C	0.987621	-0.469192	0.000068
C26	C	0.896069	-0.421758	-0.000270
C27	C	0.897721	-0.325068	0.000063
C28	C	0.990564	-0.301631	0.000066
C29	C	1.035702	-0.342705	0.084335
C30	C	1.033402	-0.439341	0.084405
C31	C	1.035330	-0.439707	-0.083404
C32	C	1.035308	-0.342761	-0.084518
C33	C	0.992231	-0.206934	0.000068
C34	C	0.985956	-0.563890	0.000072
C35	C	1.142175	0.108476	0.000080
C36	C	1.235125	0.110127	0.000081
C37	C	0.982980	0.267671	0.000069
C38	C	0.984631	0.360621	0.000069
N39	N	0.989049	0.114599	0.229971
N40	N	0.989142	0.114571	-0.229830
C41	C	0.989112	0.114580	0.589173
C42	C	0.920095	0.183135	0.551560
C43	C	0.920254	0.183385	0.448735
C44	C	0.989080	0.114590	0.410969
C45	C	1.076445	0.133671	0.448266
C46	C	1.076058	0.134159	0.551124
C47	C	0.971542	0.026741	0.551272
C48	C	0.969537	0.027327	0.448409
C49	C	0.989067	0.114593	0.310255
C50	C	0.989130	0.114579	0.689886
H51	H	0.414244	0.130885	0.147414
H52	H	0.545929	0.229421	-0.087335
Br53	Br	0.811499	0.164485	0.592797
Br54	Br	0.938544	0.291174	0.594606
Br55	Br	1.149389	-0.319166	0.089567
H56	H	0.433165	-0.014865	-0.059694
Br57	Br	0.985455	-0.473933	-0.189860
H58	H	0.862238	-0.296649	-0.060344
Br59	Br	1.055428	-0.058290	0.591809
H60	H	0.559041	0.127829	0.146989
H61	H	0.434211	-0.015027	0.060830
Br62	Br	0.557338	0.273639	0.093135
Br63	Br	0.595862	-0.036083	-0.100965
H64	H	0.931473	0.248570	0.424121
Br65	Br	0.978494	-0.469844	0.189390
Br66	Br	0.811999	0.164495	0.406702
H67	H	1.129019	0.086195	0.576003
H68	H	0.859490	-0.440293	-0.060701
Br69	Br	1.047886	-0.061689	0.405580
H70	H	0.416873	0.125979	-0.147255
Br71	Br	0.838134	-0.278611	0.100906
Br72	Br	1.145428	-0.493094	0.090793
H73	H	1.092297	0.197002	0.422498
Br74	Br	1.101863	0.240930	0.591101
Br75	Br	0.983408	-0.295400	0.188855
Br76	Br	0.381415	0.270939	-0.090639
H77	H	1.129029	0.085068	0.423801
H78	H	0.909219	0.008392	0.577258
Br79	Br	0.862421	0.003187	0.407783
Br80	Br	0.596803	-0.035940	0.100740
Br81	Br	0.381858	0.273317	0.084494
Br82	Br	0.579114	0.108935	-0.188727
H83	H	0.859626	-0.441349	0.059819
H84	H	1.002306	-0.315516	-0.146857
H85	H	1.103014	-0.327400	-0.089603
Br86	Br	1.147835	-0.492642	-0.084346
