data_functionalizedCrystal
_audit_creation_method	'MofGen! by Chris Wilmer'
_symmetry_space_group_name_H-M	'P1'
_symmetry_Int_Tables_number	1
_symmetry_cell_setting	triclinic
loop_
_symmetry_equiv_pos_as_xyz
  x,y,z
_cell_length_a	14.044220
_cell_length_b	10.654550
_cell_length_c	9.730223
_cell_angle_alpha	90.004253
_cell_angle_beta	90.001660
_cell_angle_gamma	91.163096
loop_
_atom_site_label
_atom_site_type_symbol
_atom_site_fract_x
_atom_site_fract_y
_atom_site_fract_z
O1	O	1.259697	-0.302986	-0.114143
O2	O	1.759697	0.197014	0.385857
O3	O	0.983656	-0.292052	-0.114178
O4	O	1.483656	0.207948	0.385822
O5	O	1.128023	-0.115418	-0.114151
O6	O	1.628023	0.384582	0.385849
O7	O	1.115330	-0.479621	-0.114170
O8	O	1.615330	0.020379	0.385830
O9	O	1.128014	-0.115411	0.114429
O10	O	1.628014	0.384589	0.614429
O11	O	0.983646	-0.292046	0.114402
O12	O	1.483646	0.207954	0.614402
O13	O	1.259688	-0.302980	0.114437
O14	O	1.759688	0.197020	0.614437
Zn15	Zn	1.121665	-0.297512	0.150711
Zn16	Zn	1.621665	0.202488	0.650711
Zn17	Zn	1.121678	-0.297520	-0.150453
Zn18	Zn	1.621678	0.202480	0.349547
O19	O	1.115320	-0.479614	0.114410
O20	O	1.615320	0.020386	0.614410
C21	C	0.948305	-0.287263	0.000108
C22	C	1.448305	0.212737	0.500108
C23	C	0.842986	-0.272988	0.000095
C24	C	1.342986	0.227012	0.500095
C25	C	1.127086	-0.068523	0.000138
C26	C	1.627086	0.431477	0.500138
C27	C	1.124298	0.071201	0.000136
C28	C	1.624298	0.571201	0.500136
N29	N	1.121664	-0.297506	0.356248
N30	N	1.621664	0.202494	0.856248
C31	C	0.650153	-0.246889	0.000123
C32	C	1.150153	0.253111	0.500123
C33	C	0.593185	-0.348137	0.000124
C34	C	1.093185	0.151863	0.500124
C35	C	0.485886	-0.333615	0.000140
C36	C	0.985886	0.166385	0.500140
C37	C	0.757462	-0.261409	0.000107
C38	C	1.257462	0.238591	0.500107
C39	C	1.295038	-0.307769	0.000148
C40	C	1.795038	0.192231	0.500148
C41	C	1.400358	-0.322044	0.000152
C42	C	1.900358	0.177956	0.500152
C43	C	1.116257	-0.526509	0.000118
C44	C	1.616257	-0.026509	0.500118
C45	C	1.119045	-0.666233	0.000111
C46	C	1.619045	-0.166233	0.500111
C47	C	1.209299	0.142144	0.000146
C48	C	1.709299	0.642144	0.500146
C49	C	1.206673	0.273429	0.000129
C50	C	1.706673	0.773429	0.500129
C51	C	1.034038	0.262814	0.000097
C52	C	1.534038	0.762814	0.500097
C53	C	1.036665	0.131532	0.000104
C54	C	1.536665	0.631532	0.500104
N55	N	1.121687	-0.297517	-0.355989
N56	N	1.621687	0.202483	0.144011
C57	C	1.185612	-0.219331	0.428186
C58	C	1.685612	0.280669	0.928186
C59	C	1.185621	-0.219332	0.572069
C60	C	1.685621	0.280668	1.072069
C61	C	1.057732	-0.375696	0.572063
C62	C	1.557732	0.124304	1.072063
C63	C	1.057719	-0.375687	0.428183
C64	C	1.557719	0.124313	0.928183
H65	H	0.624998	-0.445725	0.000112
H66	H	1.124998	0.054275	0.500112
H67	H	0.618342	-0.149310	0.000136
H68	H	1.118342	0.350690	0.500136
F69	F	1.253666	-0.136121	0.351632
F70	F	1.753666	0.363879	0.851632
F71	F	1.302566	0.077940	0.000178
F72	F	1.802566	0.577940	0.500178
F73	F	1.253681	-0.136125	0.648625
F74	F	1.753681	0.363875	1.148625
H75	H	1.005671	-0.439350	0.630647
H76	H	1.505671	0.060650	1.130647
H77	H	1.275890	0.331186	0.000134
H78	H	1.775890	0.831186	0.500134
H79	H	0.962690	0.311952	0.000074
H80	H	1.462690	0.811952	0.500074
H81	H	0.967442	0.073767	0.000092
H82	H	1.467442	0.573767	0.500092
H83	H	1.005640	-0.439347	0.369607
H84	H	1.505640	0.060653	0.869607
