data_functionalizedCrystal
_audit_creation_method	'MofGen! by Chris Wilmer'
_symmetry_space_group_name_H-M	'P1'
_symmetry_Int_Tables_number	1
_symmetry_cell_setting	triclinic
loop_
_symmetry_equiv_pos_as_xyz
  x,y,z
_cell_length_a	25.639242
_cell_length_b	12.759394
_cell_length_c	12.759387
_cell_angle_alpha	89.975844
_cell_angle_beta	89.968335
_cell_angle_gamma	89.998550
loop_
_atom_site_label
_atom_site_type_symbol
_atom_site_fract_x
_atom_site_fract_y
_atom_site_fract_z
Zn1	Zn	0.799404	-0.418336	-0.594366
Zn2	Zn	0.799367	-0.594053	-0.418707
Zn3	Zn	0.711966	-0.418375	-0.418669
Zn4	Zn	0.711980	-0.593960	-0.594312
O5	O	0.755679	-0.506181	-0.506514
O6	O	0.872564	-0.441668	-0.571103
O7	O	0.787752	-0.570804	-0.271681
O8	O	0.723574	-0.271349	-0.441982
O9	O	0.872537	-0.570767	-0.442047
O10	O	0.787814	-0.271320	-0.571066
O11	O	0.723538	-0.441734	-0.271653
O12	O	0.638802	-0.441644	-0.441930
O13	O	0.723598	-0.570608	-0.741340
O14	O	0.638813	-0.570646	-0.570974
O15	O	0.787828	-0.441578	-0.741380
O16	O	0.787766	-0.741062	-0.441995
O17	O	0.723562	-0.740994	-0.571011
C18	C	0.619836	-0.506140	-0.506442
C19	C	0.561722	-0.506147	-0.506437
C20	C	0.755697	-0.232148	-0.506526
C21	C	0.755704	-0.115371	-0.506532
C22	C	0.755676	-0.779149	-0.506524
C23	C	0.755722	-0.895925	-0.506564
C24	C	0.201374	-0.573465	-0.573643
C25	C	0.146769	-0.573471	-0.573660
O26	O	0.118545	-0.630655	-0.630741
N27	N	0.119440	-0.506210	-0.506582
C28	C	0.146718	-0.438931	-0.439491
O29	O	0.118458	-0.381720	-0.382438
C30	C	0.201321	-0.438920	-0.439481
C31	C	0.228648	-0.506193	-0.506555
C32	C	0.228700	-0.640731	-0.640713
C33	C	0.283301	-0.640726	-0.640695
C34	C	0.310575	-0.573454	-0.573607
C35	C	0.283248	-0.506187	-0.506537
C36	C	0.228598	-0.371636	-0.372396
C37	C	0.283205	-0.371630	-0.372391
C38	C	0.310531	-0.438903	-0.439466
C39	C	0.365123	-0.438910	-0.439430
N40	N	0.392452	-0.506171	-0.506508
C41	C	0.365178	-0.573443	-0.573596
C42	C	0.032047	-0.438958	-0.439520
C43	C	-0.022555	-0.438973	-0.439524
C44	C	-0.022500	-0.573512	-0.573694
C45	C	0.032103	-0.573501	-0.573684
C46	C	0.059376	-0.506219	-0.506597
C47	C	0.479843	-0.573427	-0.573552
C48	C	0.534448	-0.573419	-0.573525
C49	C	0.534388	-0.438877	-0.439359
C50	C	0.479788	-0.438888	-0.439382
C51	C	0.452516	-0.506167	-0.506487
O52	O	0.393382	-0.381752	-0.382382
O53	O	0.393444	-0.630634	-0.630649
C54	C	0.892052	-0.506223	-0.506586
C55	C	0.950166	-0.506242	-0.506616
C56	C	0.755718	-0.506078	-0.780547
C57	C	0.755735	-0.506034	-0.897324
C58	C	0.688815	-0.115381	-0.372107
C59	C	0.655377	-0.060525	-0.304898
C60	C	0.655386	0.049196	-0.304907
C61	C	0.688836	0.104065	-0.372136
C62	C	0.722274	0.049209	-0.439345
C63	C	0.722263	-0.060515	-0.439326
C64	C	0.789160	0.049219	-0.573773
C65	C	0.789154	-0.060503	-0.573760
C66	C	0.822610	0.104087	-0.641001
C67	C	0.856052	0.049231	-0.708207
C68	C	0.856042	-0.060497	-0.708194
C69	C	0.822592	-0.115359	-0.640969
C70	C	0.822623	-0.371684	-0.897385
C71	C	0.856074	-0.304493	-0.952277
C72	C	0.856086	-0.304455	-1.061998
C73	C	0.822643	-0.371613	-1.116831
C74	C	0.789192	-0.438803	-1.061940
C75	C	0.789184	-0.438837	-0.952216
C76	C	0.722303	-0.573147	-1.061878
C77	C	0.722292	-0.573192	-0.952157
C78	C	0.688860	-0.640304	-1.116711
C79	C	0.655411	-0.707502	-1.061820
C80	C	0.655400	-0.707538	-0.952091
C81	C	0.688841	-0.640383	-0.897265
C82	C	0.755670	-0.506208	-0.233546
C83	C	0.755754	-0.505956	-0.116770
H84	H	0.556695	-0.628205	-0.628146
H85	H	0.628156	0.093860	-0.250184
C86	C	0.688843	0.224755	-0.372150
H87	H	0.664139	0.249567	-0.322494
H88	H	0.679813	0.249600	-0.439946
H89	H	0.722585	0.249558	-0.354000
H90	H	0.822613	0.193428	-0.641009
H91	H	0.628154	-0.762242	-0.907405
H92	H	0.054349	-0.628279	-0.628304
C93	C	0.688828	-0.640421	-0.776575
H94	H	0.664119	-0.690058	-0.751733
H95	H	0.679794	-0.572625	-0.751757
H96	H	0.722565	-0.658623	-0.751776
H97	H	0.556605	-0.384109	-0.384734
C98	C	0.449852	-0.647400	-0.647398
H99	H	0.473954	-0.687451	-0.687339
H100	H	0.428575	-0.607242	-0.693240
H101	H	0.428532	-0.693152	-0.607172
C102	C	0.618627	-0.781365	-1.122130
H103	H	0.598702	-0.821387	-1.073727
H104	H	0.638626	-0.827132	-1.164951
H105	H	0.595852	-0.741139	-1.164912
C106	C	0.892826	-0.120830	-0.782122
H107	H	0.912749	-0.072435	-0.822152
H108	H	0.872829	-0.163615	-0.827879
H109	H	0.915603	-0.163648	-0.741937
C110	C	0.892882	-0.230550	-1.122381
H111	H	0.912800	-0.190563	-1.074015
H112	H	0.872892	-0.184752	-1.165179
H113	H	0.915664	-0.270750	-1.165192
C114	C	0.892835	0.109581	-0.782165
H115	H	0.912746	0.061200	-0.822198
H116	H	0.915615	0.152377	-0.742014
H117	H	0.872830	0.152390	-0.827934
C118	C	0.313353	-0.714714	-0.714490
H119	H	0.289283	-0.754765	-0.754451
H120	H	0.334645	-0.760448	-0.674237
H121	H	0.334664	-0.674565	-0.760333
C122	C	0.198707	-0.714738	-0.714515
H123	H	0.222810	-0.754796	-0.754447
H124	H	0.177417	-0.674619	-0.760368
H125	H	0.177399	-0.760482	-0.674253
C126	C	0.822576	-0.236049	-0.640967
H127	H	0.847281	-0.260864	-0.690620
H128	H	0.788833	-0.260837	-0.659106
H129	H	0.831611	-0.260904	-0.573171
H130	H	-0.044716	-0.628285	-0.628325
H131	H	0.822652	-0.371566	-1.206172
C132	C	0.688806	-0.236072	-0.372089
H133	H	0.664095	-0.260892	-0.322431
H134	H	0.722542	-0.260912	-0.353946
H135	H	0.679763	-0.260869	-0.439880
C136	C	0.688874	-0.640265	-1.237402
H137	H	0.713590	-0.590639	-1.262242
H138	H	0.655140	-0.622072	-1.262206
H139	H	0.697913	-0.708066	-1.262216
H140	H	-0.044800	-0.384203	-0.384894
H141	H	0.883301	-0.249813	-0.907620
C142	C	0.062043	-0.364954	-0.365707
H143	H	0.037942	-0.324909	-0.325758
H144	H	0.083355	-0.319215	-0.405955
H145	H	0.083329	-0.405092	-0.319854
H146	H	0.305408	-0.316833	-0.317766
C147	C	0.198550	-0.297626	-0.298621
H148	H	0.222622	-0.257557	-0.258681
H149	H	0.177234	-0.337747	-0.252774
H150	H	0.177265	-0.251894	-0.338900
H151	H	0.457537	-0.384112	-0.384762
H152	H	0.822621	-0.371718	-0.808044
C153	C	0.618587	-0.120881	-0.230948
H154	H	0.623372	-0.194084	-0.240557
H155	H	0.583460	-0.102881	-0.246294
H156	H	0.626240	-0.102921	-0.160363
