data_functionalizedCrystal
_audit_creation_method	'MofGen! by Chris Wilmer'
_symmetry_space_group_name_H-M	'P1'
_symmetry_Int_Tables_number	1
_symmetry_cell_setting	triclinic
loop_
_symmetry_equiv_pos_as_xyz
  x,y,z
_cell_length_a	27.440280
_cell_length_b	27.440280
_cell_length_c	27.440280
_cell_angle_alpha	90.008003
_cell_angle_beta	59.999523
_cell_angle_gamma	60.007024
loop_
_atom_site_label
_atom_site_type_symbol
_atom_site_fract_x
_atom_site_fract_y
_atom_site_fract_z
Zr1	Zr	0.533349	0.469578	-0.063938
O2	O	0.635015	0.391773	-0.141766
O3	O	0.431683	0.493420	-0.040073
O4	O	0.533337	0.493433	-0.141744
O5	O	0.533371	0.391761	0.040099
O6	O	0.533328	0.573636	-0.141734
O7	O	0.533361	0.391760	-0.040094
O8	O	0.351488	0.573612	0.040138
O9	O	0.715211	0.391785	-0.141773
O10	O	0.473493	0.563454	-0.029895
O11	O	0.473507	0.503601	0.029945
O12	O	0.593191	0.503617	-0.089760
O13	O	0.593205	0.443763	-0.029920
Zr14	Zr	0.533349	0.597494	0.063978
Zr15	Zr	0.533334	0.597493	-0.063922
Zr16	Zr	0.533364	0.469580	0.063962
Zr17	Zr	0.661252	0.469597	-0.063949
Zr18	Zr	0.405446	0.597476	0.063989
O19	O	0.635015	0.573653	0.040113
O20	O	0.634994	0.573651	-0.141743
O21	O	0.635036	0.391776	0.040090
O22	O	0.431683	0.675300	0.141806
O23	O	0.431662	0.675297	-0.040050
O24	O	0.431705	0.493422	0.141783
O25	O	0.533328	0.675312	-0.040059
O26	O	0.533361	0.573640	0.141785
O27	O	0.533371	0.493437	0.141775
O28	O	0.533337	0.675313	0.040134
O29	O	0.715199	0.493459	-0.141760
O30	O	0.351500	0.573613	0.141801
O31	O	0.351488	0.675288	0.141813
O32	O	0.351476	0.675286	0.040150
O33	O	0.715223	0.391786	-0.040110
O34	O	0.715211	0.493461	-0.040098
O35	O	0.473507	0.563456	0.089800
O36	O	0.473493	0.623310	0.029960
O37	O	0.593191	0.563472	-0.029905
O38	O	0.593205	0.503618	0.029935
C39	C	0.373362	0.533513	0.000034
C40	C	0.319064	0.533505	0.000039
C41	C	0.040181	0.577721	0.044211
C42	C	0.091203	0.577715	0.044214
O43	O	0.080026	0.615296	0.081782
N44	N	0.160894	0.533531	0.000027
C45	C	0.179563	0.489352	-0.044168
O46	O	0.243525	0.451769	-0.081753
C47	C	0.128541	0.489360	-0.044173
C48	C	0.058850	0.533544	0.000020
C49	C	-0.029507	0.621902	0.088400
C50	C	-0.080525	0.621906	0.088398
C51	C	-0.061856	0.577730	0.044208
C52	C	0.007832	0.533549	0.000019
C53	C	0.147211	0.445185	-0.088370
C54	C	0.096182	0.445197	-0.088371
C55	C	0.026491	0.489381	-0.044178
C56	C	-0.024517	0.489377	-0.044174
N57	N	-0.094208	0.533562	0.000012
C58	C	-0.112877	0.577739	0.044203
C59	C	0.286708	0.489338	-0.044157
C60	C	0.337729	0.489327	-0.044151
C61	C	0.249365	0.577691	0.044231
C62	C	0.198344	0.577699	0.044227
C63	C	0.217017	0.533523	0.000030
C64	C	-0.220016	0.577745	0.044196
C65	C	-0.271035	0.577744	0.044192
C66	C	-0.182667	0.489382	-0.044191
C67	C	-0.131652	0.489380	-0.044185
C68	C	-0.150332	0.533567	0.000011
O69	O	-0.013392	0.451818	-0.081725
O70	O	-0.176840	0.615320	0.081777
C71	C	0.533368	0.373535	-0.000000
C72	C	0.533374	0.319232	-0.000007
C73	C	0.470857	0.013769	0.031286
C74	C	0.470853	-0.037249	0.031291
O75	O	0.417715	-0.037073	0.057885
N76	N	0.533333	-0.094001	0.000041
C77	C	0.595822	-0.099733	-0.031211
O78	O	0.648966	-0.152689	-0.057790
C79	C	0.595825	-0.048715	-0.031212
C80	C	0.533340	0.008036	0.000034
C81	C	0.408377	0.070518	0.062530
C82	C	0.408381	0.121532	0.062524
C83	C	0.470865	0.115799	0.031273
C84	C	0.533344	0.059051	0.000028
C85	C	0.658313	-0.054448	-0.062461
C86	C	0.658310	-0.003424	-0.062459
C87	C	0.595826	0.053327	-0.031212
C88	C	0.595832	0.104332	-0.031229
N89	N	0.533351	0.161083	0.000020
C90	C	0.470868	0.166817	0.031272
C91	C	0.595811	-0.206872	-0.031205
C92	C	0.595808	-0.257889	-0.031207
C93	C	0.470839	-0.195401	0.031296
C94	C	0.470842	-0.144384	0.031294
C95	C	0.533330	-0.150120	0.000045
C96	C	0.470881	0.273949	0.031255
C97	C	0.470891	0.324966	0.031244
C98	C	0.595860	0.262474	-0.031256
C99	C	0.595850	0.211462	-0.031247
C100	C	0.533356	0.217203	0.000013
O101	O	0.648943	0.104202	-0.057808
O102	O	0.417732	0.219775	0.057853
C103	C	0.693336	0.533560	0.000006
C104	C	0.747634	0.533568	0.000001
C105	C	0.533330	0.533534	-0.159962
C106	C	0.533324	0.533533	-0.214259
C107	C	0.533330	0.693537	0.000040
C108	C	0.533324	0.747840	0.000047
C109	C	0.595842	0.502307	-0.582242
C110	C	0.595846	0.502309	-0.633265
O111	O	0.648984	0.475763	-0.686229
N112	N	0.533365	0.533542	-0.627533
C113	C	0.470877	0.564781	-0.570774
O114	O	0.417732	0.591348	-0.570584
C115	C	0.470873	0.564782	-0.519753
C116	C	0.533358	0.533542	-0.525490
C117	C	0.658322	0.471069	-0.587976
C118	C	0.658317	0.471067	-0.536957
C119	C	0.595834	0.502302	-0.480204
C120	C	0.533354	0.533539	-0.474471
C121	C	0.408386	0.596024	-0.462996
C122	C	0.408388	0.596024	-0.411974
C123	C	0.470873	0.564783	-0.417710
C124	C	0.470866	0.564772	-0.366699
N125	N	0.533347	0.533538	-0.372431
C126	C	0.595831	0.502303	-0.429184
C127	C	0.470888	0.564777	-0.677924
C128	C	0.470890	0.564772	-0.728944
C129	C	0.595860	0.502300	-0.791431
C130	C	0.595857	0.502302	-0.740410
C131	C	0.533368	0.533543	-0.683656
C132	C	0.595817	0.502300	-0.322038
C133	C	0.595808	0.502298	-0.271012
C134	C	0.470839	0.564772	-0.208529
C135	C	0.470848	0.564772	-0.259551
C136	C	0.533343	0.533534	-0.316307
O137	O	0.417756	0.591306	-0.313716
O138	O	0.648966	0.475747	-0.429363
C139	C	0.533368	0.533539	0.160002
C140	C	0.533374	0.533539	0.214299
C141	C	0.373343	0.693514	0.000054
C142	C	0.319039	0.747809	0.000066
C143	C	0.373381	0.533515	0.160016
C144	C	0.319089	0.533508	0.214318
C145	C	0.373362	0.693516	0.160037
C146	C	0.319064	0.747812	0.214345
C147	C	0.693336	0.373556	-0.159996
C148	C	0.747634	0.319260	-0.214305
C149	C	0.693355	0.373559	-0.000014
C150	C	0.747660	0.319264	-0.000026
C151	C	0.693318	0.533557	-0.159976
C152	C	0.747609	0.533565	-0.214278
C153	C	0.293537	0.742063	-0.031178
C154	C	0.242519	0.793074	-0.031179
C155	C	0.217001	0.849831	0.000067
C156	C	0.242508	0.855576	0.031312
C157	C	0.293528	0.804565	0.031309
C158	C	0.293593	0.564749	0.271067
C159	C	0.242587	0.564740	0.322094
C160	C	0.217075	0.533493	0.316370
C161	C	0.242576	0.502249	0.259614
C162	C	0.293584	0.502255	0.208589
C163	C	0.293558	0.804558	0.208612
C164	C	0.242546	0.855580	0.259636
C165	C	0.217038	0.849854	0.316391
C166	C	0.242549	0.793102	0.322122
C167	C	0.293564	0.742082	0.271099
C168	C	0.773147	0.262514	-0.208572
C169	C	0.824175	0.211493	-0.259596
C170	C	0.849685	0.217219	-0.316351
C171	C	0.824171	0.273971	-0.322082
C172	C	0.773147	0.324991	-0.271059
C173	C	0.773167	0.325010	0.031213
C174	C	0.824199	0.273999	0.031200
C175	C	0.849719	0.217242	-0.000048
C176	C	0.824210	0.211497	-0.031291
C177	C	0.773182	0.262507	-0.031281
C178	C	0.773106	0.564817	-0.208535
C179	C	0.824112	0.564835	-0.259551
C180	C	0.849624	0.533597	-0.316311
C181	C	0.824123	0.502344	-0.322053
C182	C	0.773114	0.502330	-0.271037
H183	H	0.234171	0.613662	0.080214
O184	O	0.851644	0.468669	-0.383281
H185	H	0.808818	0.486726	-0.388470
H186	H	0.221773	0.788449	0.368338
O187	O	-0.049649	0.669552	0.136066
H188	H	-0.080628	0.667370	0.180608
H189	H	0.314285	0.809252	0.056755
H190	H	0.844940	0.165288	-0.254918
O191	O	0.215014	0.786869	-0.064880
H192	H	0.158735	0.808618	-0.033338
H193	H	0.141601	0.613678	0.080212
O194	O	0.162009	0.904888	0.371419
H195	H	0.115523	0.904849	0.398361
H196	H	0.844960	0.278688	0.056643
O197	O	0.745640	0.256326	-0.147363
H198	H	0.705868	0.301333	-0.112840
H199	H	0.221723	0.901794	0.056751
H200	H	0.646737	0.476866	-0.837650
O201	O	0.851610	0.598546	-0.253351
H202	H	0.874865	0.580485	-0.228589
O203	O	0.745651	0.386194	-0.277250
H204	H	0.705895	0.420716	-0.232240
H205	H	0.175541	0.533493	0.357923
O206	O	0.904748	0.162233	-0.000041
H207	H	0.951246	0.135291	-0.046562
H208	H	0.891231	0.175670	-0.357892
H209	H	0.844948	0.278626	-0.368298
H210	H	0.891159	0.533614	-0.357847
H211	H	0.314324	0.695878	0.275775
O212	O	0.215077	0.598451	0.383305
H213	H	0.241378	0.620189	0.378707
O214	O	0.321071	0.810745	0.147403
H215	H	0.278242	0.835524	0.142220
O216	O	0.403497	0.598479	-0.722756
H217	H	0.360051	0.620206	-0.674717
O218	O	0.663249	0.468611	-0.746596
H219	H	0.706695	0.446895	-0.794635
O220	O	0.222370	0.397528	-0.136039
H221	H	0.254723	0.404932	-0.128620
O222	O	0.745657	0.386223	0.064908
H223	H	0.771982	0.381639	0.086616
O224	O	0.321101	0.598454	0.277254
H225	H	0.360850	0.593220	0.232243
H226	H	0.844996	0.165279	-0.056732
O227	O	0.745625	0.468611	-0.277234
H228	H	0.771945	0.446889	-0.325275
O229	O	0.412894	0.441672	-0.091815
H230	H	0.417297	0.410960	-0.122545
H231	H	0.419966	0.590201	-0.162313
O232	O	0.745665	0.256307	-0.064969
H233	H	0.771983	0.208269	-0.086691
H234	H	-0.235235	0.613726	0.080185
O235	O	-0.346205	0.625408	0.091852
H236	H	-0.350610	0.656130	0.122574
O237	O	-0.155690	0.669574	0.136052
H238	H	-0.160089	0.700293	0.166770
O239	O	0.306852	0.441681	-0.091822
H240	H	0.363884	0.410956	-0.122540
O241	O	0.403456	0.598459	-0.253368
H242	H	0.400466	0.632992	-0.275110
H243	H	0.752341	0.590255	-0.162323
O244	O	0.725720	0.437374	-0.649187
H245	H	0.769158	0.415653	-0.644591
H246	H	0.709195	-0.100649	-0.087905
H247	H	0.357504	0.621465	-0.458313
O248	O	0.116322	0.397546	-0.136038
H249	H	0.173355	0.366822	-0.166761
H250	H	0.646732	0.257816	-0.056702
H251	H	0.646690	-0.304094	-0.056659
H252	H	-0.167477	0.453413	-0.080168
O253	O	-0.056482	0.441725	-0.091847
H254	H	-0.052075	0.411010	-0.122577
O255	O	0.403494	0.386178	0.064948
H256	H	0.360047	0.381589	0.086684
O257	O	0.403478	0.280144	0.064963
H258	H	0.360039	0.328179	0.086680
O259	O	0.663204	0.468600	-0.277199
H260	H	0.693162	0.486663	-0.301961
O261	O	0.340987	0.182740	0.096230
H262	H	0.297544	0.178146	0.117963
O263	O	0.340976	0.076712	0.096233
H264	H	0.311011	0.101497	0.144250
O265	O	0.403449	-0.083175	0.065000
H266	H	0.360004	-0.087766	0.086731
H267	H	0.646707	0.476864	-0.368245
O268	O	0.403440	-0.189218	0.065007
H269	H	0.400455	-0.210960	0.099540
O270	O	0.663212	-0.213061	-0.064922
H271	H	0.706653	-0.261096	-0.086655
H272	H	0.709197	-0.008102	-0.087899
O273	O	0.663242	0.150248	-0.064949
H274	H	0.706691	0.154835	-0.086679
H275	H	0.709199	0.445630	-0.541636
H276	H	0.419999	0.590214	-0.631713
O277	O	0.215027	0.916793	0.253462
H278	H	0.191766	0.921986	0.228704
O279	O	0.340999	0.629721	-0.350752
H280	H	0.311030	0.611669	-0.345553
O281	O	0.321062	0.680849	-0.064888
H282	H	0.294758	0.685433	-0.086618
H283	H	0.175456	0.891362	0.000065
H284	H	0.314336	0.476817	0.162383
O285	O	0.215038	0.468568	0.253444
H286	H	0.175274	0.473828	0.298462
