data_functionalizedCrystal
_audit_creation_method	'MofGen! by Chris Wilmer'
_symmetry_space_group_name_H-M	'P1'
_symmetry_Int_Tables_number	1
_symmetry_cell_setting	triclinic
loop_
_symmetry_equiv_pos_as_xyz
  x,y,z
_cell_length_a	18.050591
_cell_length_b	18.050589
_cell_length_c	12.759387
_cell_angle_alpha	90.039686
_cell_angle_beta	90.030728
_cell_angle_gamma	90.018336
loop_
_atom_site_label
_atom_site_type_symbol
_atom_site_fract_x
_atom_site_fract_y
_atom_site_fract_z
Zn1	Zn	-1.135368	0.295750	-0.594227
Zn2	Zn	-1.135269	0.419959	-0.418520
Zn3	Zn	-1.011170	0.295773	-0.418532
Zn4	Zn	-1.011143	0.419889	-0.594127
O5	O	-1.073237	0.357843	-0.506351
O6	O	-1.239280	0.312247	-0.570955
O7	O	-1.118777	0.403525	-0.271500
O8	O	-1.027698	0.191846	-0.441885
O9	O	-1.239207	0.403502	-0.441864
O10	O	-1.118946	0.191829	-0.570967
O11	O	-1.027602	0.312286	-0.271509
O12	O	-0.907242	0.312218	-0.441789
O13	O	-1.027651	0.403383	-0.741162
O14	O	-0.907222	0.403405	-0.570798
O15	O	-1.118920	0.312179	-0.741235
O16	O	-1.118750	0.523874	-0.441768
O17	O	-1.027555	0.523823	-0.570786
C18	C	-0.880285	0.357807	-0.506285
C19	C	-0.797739	0.357809	-0.506281
C20	C	-0.548903	0.308157	-0.436274
C21	C	-0.598344	0.290064	-0.532162
C22	C	-0.500619	0.357831	-0.506345
C23	C	-0.598260	0.375878	-0.410431
C24	C	-0.646604	0.357818	-0.506309
C25	C	-0.548972	0.339704	-0.602284
C26	C	-0.548885	0.425548	-0.480489
C27	C	-0.598303	0.407482	-0.576443
C28	C	-0.416521	0.357837	-0.506365
C29	C	-0.730701	0.357813	-0.506300
C30	C	-1.073159	0.550795	-0.506288
C31	C	-1.073193	0.633341	-0.506296
C32	C	-1.073294	0.357770	-0.780385
C33	C	-1.073317	0.357739	-0.897162
C34	C	-0.266943	0.357867	-0.506401
C35	C	-0.349489	0.357843	-0.506374
C36	C	-1.122895	0.882167	-0.436226
C37	C	-1.055139	0.832831	-0.410413
C38	C	-1.073264	0.930461	-0.506346
C39	C	-1.140981	0.832716	-0.532084
C40	C	-1.073233	0.784476	-0.506319
C41	C	-1.005472	0.882212	-0.480484
C42	C	-1.091360	0.882101	-0.602199
C43	C	-1.023557	0.832787	-0.576423
C44	C	-1.073283	1.014559	-0.506359
C45	C	-1.073206	0.700380	-0.506306
C46	C	-1.073317	1.164137	-0.506412
C47	C	-1.073302	1.081592	-0.506372
C48	C	-1.168361	0.262775	-0.897257
C49	C	-1.215894	0.215281	-0.952166
C50	C	-1.215912	0.215254	-1.061888
C51	C	-1.168391	0.262724	-1.116703
C52	C	-1.120858	0.310217	-1.061795
C53	C	-1.120847	0.310241	-0.952071
C54	C	-1.025812	0.405177	-1.061699
C55	C	-1.025797	0.405209	-0.951977
C56	C	-0.978291	0.452647	-1.116515
C57	C	-0.930761	0.500145	-1.061606
C58	C	-0.930746	0.500171	-0.951878
C59	C	-0.978264	0.452702	-0.897069
C60	C	-1.073224	0.357862	-0.233384
C61	C	-1.073344	0.357684	-0.116608
H62	H	-0.527411	0.324368	-0.683406
H63	H	-0.892070	0.538787	-1.106246
C64	C	-0.627414	0.464231	-0.656564
N65	N	-0.649338	0.506975	-0.716913
C66	C	-0.519506	0.502897	-0.450913
N67	N	-0.497376	0.561155	-0.428624
C68	C	-0.519594	0.251371	-0.356346
N69	N	-0.497517	0.208599	-0.296150
C70	C	-0.627696	0.212693	-0.561694
N71	N	-0.649801	0.154415	-0.583930
H72	H	-0.981524	0.811243	-0.635709
C73	C	-0.878454	0.552417	-0.891487
N74	N	-0.839068	0.591771	-0.846005
C75	C	-1.034444	0.803577	-0.300892
N76	N	-1.018864	0.781542	-0.218399
H77	H	-1.164828	0.903849	-0.376894
H78	H	-1.106704	0.903762	-0.683249
H79	H	-0.948175	0.903861	-0.458611
H80	H	-1.254612	0.176576	-1.106594
H81	H	-0.619913	0.391146	-0.329333
H82	H	-1.198262	0.810975	-0.553865
C83	C	-1.168351	0.262805	-0.776560
N84	N	-1.168344	0.262826	-0.685650
C85	C	-1.268163	0.163066	-0.891861
N86	N	-1.307532	0.123737	-0.846442
C87	C	-1.168414	0.262692	-1.237400
N88	N	-1.168433	0.262671	-1.328311
H89	H	-0.978306	0.452619	-1.205856
H90	H	-0.978259	0.452722	-0.807728
