data_functionalizedCrystal
_audit_creation_method	'MofGen! by Chris Wilmer'
_symmetry_space_group_name_H-M	'P1'
_symmetry_Int_Tables_number	1
_symmetry_cell_setting	triclinic
loop_
_symmetry_equiv_pos_as_xyz
  x,y,z
_cell_length_a	10.654545
_cell_length_b	19.288865
_cell_length_c	9.730223
_cell_angle_alpha	89.988545
_cell_angle_beta	89.996188
_cell_angle_gamma	83.809663
loop_
_atom_site_label
_atom_site_type_symbol
_atom_site_fract_x
_atom_site_fract_y
_atom_site_fract_z
O1	O	1.665756	0.097541	-0.114294
O2	O	1.300078	0.106839	-0.114301
O3	O	1.493483	0.001129	-0.114270
O4	O	1.472350	0.203251	-0.114325
O5	O	1.493468	0.001123	0.114310
O6	O	1.300062	0.106833	0.114279
O7	O	1.665741	0.097535	0.114286
Zn8	Zn	1.482899	0.102183	0.150574
Zn9	Zn	1.482919	0.102191	-0.150590
O10	O	1.472335	0.203245	0.114255
C11	C	1.253287	0.106154	-0.000012
C12	C	1.113887	0.104113	-0.000014
C13	C	1.048394	0.103149	0.124586
C14	C	0.917416	0.101220	0.124587
C15	C	0.917434	0.101223	-0.124623
C16	C	1.048411	0.103147	-0.124623
C17	C	1.492796	-0.024755	0.000024
C18	C	1.490754	-0.101872	0.000036
C19	C	1.604236	-0.145826	0.000045
C20	C	1.602318	-0.218286	0.000023
C21	C	1.486913	-0.246788	0.000020
C22	C	1.373416	-0.202824	0.000003
C23	C	1.375337	-0.130366	0.000011
C24	C	1.396185	-0.355671	0.080085
C25	C	1.394269	-0.428128	0.080085
C26	C	1.480983	-0.470272	-0.000011
C27	C	1.569635	-0.439952	-0.080090
C28	C	1.571556	-0.367494	-0.080082
C29	C	1.484817	-0.325356	0.000010
C30	C	1.592393	-0.592796	-0.000027
C31	C	1.590471	-0.665257	-0.000058
C32	C	1.361565	-0.649793	-0.000064
C33	C	1.363491	-0.577334	-0.000047
C34	C	1.478908	-0.548840	-0.000023
C35	C	1.712532	0.098220	-0.000006
C36	C	1.851932	0.100261	-0.000014
C37	C	1.473023	0.229129	-0.000042
C38	C	1.475064	0.306246	-0.000063
N39	N	1.482895	0.102177	0.356111
N40	N	1.482934	0.102192	-0.356126
C41	C	1.407007	0.059671	0.571984
C42	C	1.406990	0.059661	0.428101
C43	C	1.558830	0.144699	0.428011
C44	C	1.558852	0.144704	0.571891
H45	H	0.864107	0.100436	-0.226076
C46	C	1.120416	0.104204	0.261660
N47	N	1.174659	0.104996	0.364908
C48	C	1.120457	0.104203	-0.261699
N49	N	1.174724	0.104996	-0.364941
H50	H	1.682885	-0.701044	-0.000058
H51	H	0.864098	0.100436	0.226049
H52	H	1.698218	-0.122632	0.000060
C53	C	1.234617	-0.681142	-0.000072
N54	N	1.138996	-0.704756	-0.000082
C55	C	1.296751	-0.461473	0.168173
N56	N	1.223295	-0.486586	0.234521
C57	C	1.727162	-0.266645	0.000042
N58	N	1.821194	-0.303066	0.000060
C59	C	1.300790	-0.309319	0.168209
N60	N	1.228943	-0.274408	0.234584
H61	H	1.643737	-0.342811	-0.145287
C62	C	1.323460	0.012888	0.349029
N63	N	1.260541	-0.022344	0.289472
C64	C	1.665025	-0.486306	-0.168209
N65	N	1.736870	-0.521223	-0.234577
H66	H	1.686373	-0.569595	-0.000014
H67	H	1.345190	0.025054	0.630588
H68	H	1.271082	-0.541546	-0.000047
C69	C	1.642336	0.191460	0.348816
N70	N	1.705235	0.226682	0.289168
C71	C	1.246469	-0.234178	0.000010
N72	N	1.150849	-0.257793	0.000014
H73	H	1.282924	-0.094578	0.000004
H74	H	1.620688	0.179330	0.630425
