data_functionalizedCrystal
_audit_creation_method	'MofGen! by Chris Wilmer'
_symmetry_space_group_name_H-M	'P1'
_symmetry_Int_Tables_number	1
_symmetry_cell_setting	triclinic
loop_
_symmetry_equiv_pos_as_xyz
  x,y,z
_cell_length_a	16.959455
_cell_length_b	16.959454
_cell_length_c	16.959447
_cell_angle_alpha	89.981934
_cell_angle_beta	90.018890
_cell_angle_gamma	89.997445
loop_
_atom_site_label
_atom_site_type_symbol
_atom_site_fract_x
_atom_site_fract_y
_atom_site_fract_z
Zn1	Zn	-1.208497	-0.314723	-0.446986
Zn2	Zn	-0.875164	0.018610	-0.113653
Zn3	Zn	-0.541830	0.351944	0.219681
Zn4	Zn	-1.208450	-0.446907	-0.314827
Zn5	Zn	-0.875116	-0.113574	0.018506
Zn6	Zn	-0.541783	0.219760	0.351839
Zn7	Zn	-1.076318	-0.314743	-0.314820
Zn8	Zn	-0.742985	0.018590	0.018513
Zn9	Zn	-0.409652	0.351923	0.351846
Zn10	Zn	-1.076327	-0.446860	-0.446963
Zn11	Zn	-0.742994	-0.113527	-0.113629
Zn12	Zn	-0.409661	0.219807	0.219704
O13	O	-1.142398	-0.380808	-0.380899
O14	O	-0.809065	-0.047475	-0.047566
O15	O	-0.475731	0.285858	0.285768
O16	O	-1.319102	-0.332269	-0.429468
O17	O	-0.985768	0.001065	-0.096134
O18	O	-0.652435	0.334398	0.237199
O19	O	-1.190898	-0.429404	-0.204216
O20	O	-0.857565	-0.096070	0.129118
O21	O	-0.524232	0.237263	0.462451
O22	O	-1.093868	-0.204130	-0.332359
O23	O	-0.760535	0.129204	0.000974
O24	O	-0.427201	0.462537	0.334308
O25	O	-1.319067	-0.429384	-0.332371
O26	O	-0.985733	-0.096050	0.000962
O27	O	-0.652400	0.237283	0.334295
O28	O	-1.190979	-0.204115	-0.429461
O29	O	-0.857646	0.129219	-0.096127
O30	O	-0.524313	0.462552	0.237206
O31	O	-1.093822	-0.332303	-0.204210
O32	O	-0.760489	0.001030	0.129123
O33	O	-0.427155	0.334363	0.462456
O34	O	-0.965709	-0.332258	-0.332336
O35	O	-0.632375	0.001076	0.000997
O36	O	-0.299042	0.334409	0.334330
O37	O	-1.093884	-0.429304	-0.557577
O38	O	-0.760550	-0.095970	-0.224243
O39	O	-0.427217	0.237363	0.109090
O40	O	-0.965715	-0.429323	-0.429421
O41	O	-0.632382	-0.095990	-0.096088
O42	O	-0.299049	0.237343	0.237246
O43	O	-1.190988	-0.332223	-0.557594
O44	O	-0.857655	0.001110	-0.224260
O45	O	-0.524322	0.334444	0.109073
O46	O	-1.190907	-0.557512	-0.332349
O47	O	-0.857574	-0.224178	0.000985
O48	O	-0.524241	0.109155	0.334318
O49	O	-1.093838	-0.557477	-0.429428
O50	O	-0.760504	-0.224144	-0.096095
O51	O	-0.427171	0.109189	0.237239
C52	C	-0.937032	-0.380788	-0.380876
C53	C	-0.603699	-0.047455	-0.047543
C54	C	-0.270365	0.285878	0.285791
C55	C	-0.849175	-0.380799	-0.380885
C56	C	-0.515842	-0.047465	-0.047551
C57	C	-0.182509	0.285868	0.285782
C58	C	-0.807881	-0.431289	-0.330259
C59	C	-0.474548	-0.097956	0.003075
C60	C	-0.141215	0.235377	0.336408
C61	C	-0.807916	-0.330313	-0.431516
C62	C	-0.474582	0.003020	-0.098182
C63	C	-0.141249	0.336354	0.235151
C64	C	-0.725370	-0.330318	-0.431524
C65	C	-0.392037	0.003015	-0.098190
C66	C	-0.058703	0.336349	0.235143
C67	C	-0.684076	-0.380809	-0.380898
C68	C	-0.350743	-0.047475	-0.047564
C69	C	-0.017409	0.285858	0.285769
C70	C	-0.725328	-0.431294	-0.330263
C71	C	-0.391994	-0.097961	0.003070
C72	C	-0.058661	0.235372	0.336403
C73	C	-0.684112	-0.279828	-0.482151
C74	C	-0.350779	0.053506	-0.148818
C75	C	-0.017445	0.386839	0.184515
C76	C	-0.601561	-0.279830	-0.482161
C77	C	-0.268228	0.053503	-0.148827
C78	C	0.065106	0.386837	0.184506
C79	C	-0.560265	-0.330325	-0.431538
C80	C	-0.226932	0.003008	-0.098205
C81	C	0.106401	0.336341	0.235129
C82	C	-0.601522	-0.380814	-0.380902
C83	C	-0.268189	-0.047480	-0.047569
C84	C	0.065144	0.285853	0.285764
C85	C	-0.560228	-0.431304	-0.330276
C86	C	-0.226895	-0.097971	0.003057
C87	C	0.106438	0.235362	0.336391
C88	C	-0.601484	-0.481797	-0.279644
C89	C	-0.268150	-0.148464	0.053690
C90	C	0.065183	0.184869	0.387023
C91	C	-0.684032	-0.481790	-0.279640
C92	C	-0.350699	-0.148457	0.053693
C93	C	-0.017365	0.184877	0.387026
C94	C	-0.477717	-0.330333	-0.431541
C95	C	-0.144384	0.003000	-0.098208
C96	C	0.188950	0.336334	0.235125
C97	C	-0.477675	-0.431309	-0.330281
C98	C	-0.144341	-0.097976	0.003052
C99	C	0.188992	0.235357	0.336386
C100	C	-1.142390	-0.586175	-0.380904
C101	C	-0.809056	-0.252841	-0.047571
C102	C	-0.475723	0.080492	0.285763
C103	C	-1.142458	-0.674031	-0.380932
C104	C	-0.809125	-0.340698	-0.047599
C105	C	-0.475792	-0.007365	0.285734
C106	C	-1.142442	-0.380756	-0.587067
C107	C	-0.809109	-0.047422	-0.253734
C108	C	-0.475776	0.285911	0.079599
C109	C	-1.142461	-0.380733	-0.674924
C110	C	-0.809128	-0.047400	-0.341591
C111	C	-0.475795	0.285933	-0.008257
C112	C	-0.348566	-0.380826	-0.380918
C113	C	-0.015233	-0.047492	-0.047585
C114	C	0.318100	0.285841	0.285748
C115	C	-0.436423	-0.380824	-0.380915
C116	C	-0.103090	-0.047490	-0.047582
C117	C	0.230244	0.285843	0.285752
C118	C	-1.142428	-0.174640	-0.380912
C119	C	-0.809095	0.158693	-0.047578
C120	C	-0.475761	0.492026	0.285755
C121	C	-1.142441	-0.086784	-0.380917
C122	C	-0.809107	0.246550	-0.047583
C123	C	-0.475774	0.579883	0.285750
C124	C	-1.192996	0.284680	-0.330386
C125	C	-0.859663	0.618014	0.002948
C126	C	-0.526330	0.951347	0.336281
C127	C	-1.091917	0.284704	-0.431475
C128	C	-0.758584	0.618037	-0.098142
C129	C	-0.425250	0.951370	0.235192
C130	C	-1.091914	0.202158	-0.431474
C131	C	-0.758580	0.535491	-0.098140
C132	C	-0.425247	0.868824	0.235193
C133	C	-1.142451	0.160869	-0.380927
C134	C	-0.809118	0.494203	-0.047594
C135	C	-0.475785	0.827536	0.285740
C136	C	-1.192993	0.202127	-0.330381
C137	C	-0.859659	0.535460	0.002952
C138	C	-0.526326	0.868794	0.336286
C139	C	-1.041367	0.160894	-0.482013
C140	C	-0.708034	0.494227	-0.148680
C141	C	-0.374701	0.827561	0.184654
C142	C	-1.041361	0.078343	-0.482013
C143	C	-0.708028	0.411677	-0.148680
C144	C	-0.374695	0.745010	0.184654
C145	C	-1.091904	0.037053	-0.431470
C146	C	-0.758570	0.370387	-0.098136
C147	C	-0.425237	0.703720	0.235197
C148	C	-1.142448	0.078316	-0.380922
C149	C	-0.809115	0.411649	-0.047589
C150	C	-0.475781	0.744983	0.285744
C151	C	-1.192986	0.037027	-0.330376
C152	C	-0.859652	0.370361	0.002958
C153	C	-0.526319	0.703694	0.336291
C154	C	-1.243534	0.078289	-0.279832
C155	C	-0.910201	0.411622	0.053502
C156	C	-0.576868	0.744955	0.386835
C157	C	-1.243535	0.160837	-0.279838
C158	C	-0.910202	0.494170	0.053496
C159	C	-0.576869	0.827504	0.386829
C160	C	-1.091903	-0.045495	-0.431464
C161	C	-0.758570	0.287838	-0.098130
C162	C	-0.425236	0.621171	0.235203
C163	C	-1.192982	-0.045526	-0.330371
C164	C	-0.859649	0.287807	0.002962
C165	C	-0.526316	0.621141	0.336296
C166	C	-1.091913	-0.431269	-0.716191
C167	C	-0.758580	-0.097936	-0.382857
C168	C	-0.425247	0.235398	-0.049524
C169	C	-1.193022	-0.330172	-0.716211
C170	C	-0.859689	0.003162	-0.382878
C171	C	-0.526356	0.336495	-0.049544
C172	C	-1.193039	-0.330146	-0.798757
C173	C	-0.859706	0.003188	-0.465424
C174	C	-0.526372	0.336521	-0.132090
C175	C	-1.142491	-0.380681	-0.840024
C176	C	-0.809158	-0.047348	-0.506690
C177	C	-0.475824	0.285985	-0.173357
C178	C	-1.091926	-0.431243	-0.798744
C179	C	-0.758593	-0.097910	-0.465411
C180	C	-0.425260	0.235424	-0.132078
C181	C	-1.243597	-0.279579	-0.840042
C182	C	-0.910263	0.053754	-0.506709
C183	C	-0.576930	0.387087	-0.173376
C184	C	-1.243614	-0.279551	-0.922593
C185	C	-0.910281	0.053782	-0.589260
C186	C	-0.576948	0.387116	-0.255927
C187	C	-1.193070	-0.330091	-0.963861
C188	C	-0.859737	0.003242	-0.630528
C189	C	-0.526403	0.336576	-0.297195
C190	C	-1.142504	-0.380655	-0.922577
C191	C	-0.809171	-0.047322	-0.589244
C192	C	-0.475837	0.286011	-0.255910
C193	C	-1.091956	-0.431191	-0.963844
C194	C	-0.758623	-0.097858	-0.630510
C195	C	-0.425289	0.235476	-0.297177
C196	C	-1.041394	-0.481760	-0.922561
C197	C	-0.708060	-0.148427	-0.589228
C198	C	-0.374727	0.184907	-0.255894
C199	C	-1.041382	-0.481783	-0.840012
C200	C	-0.708049	-0.148450	-0.506679
C201	C	-0.374715	0.184883	-0.173346
C202	C	-1.193082	-0.330068	-1.046410
C203	C	-0.859748	0.003266	-0.713077
C204	C	-0.526415	0.336599	-0.379743
C205	C	-1.091969	-0.431165	-1.046397
C206	C	-0.758636	-0.097832	-0.713064
C207	C	-0.425303	0.235502	-0.379731
C208	C	-1.142399	-0.380804	-0.175533
C209	C	-0.809066	-0.047470	0.157800
C210	C	-0.475733	0.285863	0.491134
C211	C	-1.142534	-0.380603	-0.087677
C212	C	-0.809200	-0.047270	0.245657
C213	C	-0.475867	0.286063	0.578990
H214	H	-0.841542	-0.289202	-0.472730
H215	H	-0.508209	0.044131	-0.139396
H216	H	-0.174876	0.377465	0.193937
H217	H	-1.050809	-0.472321	-1.079991
H218	H	-0.717476	-0.138987	-0.746658
H219	H	-0.384142	0.194346	-0.413324
H220	H	-1.234140	-0.079137	-0.289213
H221	H	-0.900807	0.254196	0.044121
H222	H	-0.567474	0.587529	0.377454
H223	H	-0.444131	-0.289217	-0.472760
H224	H	-0.110797	0.044117	-0.139426
H225	H	0.222536	0.377450	0.193907
H226	H	-1.284787	-0.238376	-0.956199
H227	H	-0.951453	0.094958	-0.622866
H228	H	-0.618120	0.428291	-0.289532
H229	H	-1.000233	-0.522902	-0.956171
H230	H	-0.666900	-0.189568	-0.622838
H231	H	-0.333566	0.143765	-0.289504
H232	H	-1.234155	0.318277	-0.289236
H233	H	-0.900821	0.651611	0.044098
H234	H	-0.567488	0.984944	0.377431
H235	H	-1.284679	0.044661	-0.238673
H236	H	-0.951346	0.377994	0.094660
H237	H	-0.618012	0.711327	0.427993
H238	H	-1.000216	-0.522953	-0.806393
H239	H	-0.666883	-0.189620	-0.473059
H240	H	-0.333549	0.143714	-0.139726
H241	H	-1.050749	-0.472443	-0.682575
H242	H	-0.717415	-0.139110	-0.349241
H243	H	-0.384082	0.194224	-0.015908
H244	H	-0.841475	-0.472402	-0.289037
H245	H	-0.508142	-0.139068	0.044296
H246	H	-0.174808	0.194265	0.377629
H247	H	-1.050750	-0.079086	-0.472619
H248	H	-0.717417	0.254247	-0.139285
H249	H	-0.384083	0.587580	0.194048
H250	H	-0.717740	-0.238718	-0.523366
H251	H	-0.384406	0.094616	-0.190032
H252	H	-0.051073	0.427949	0.143301
H253	H	-0.567978	-0.238717	-0.523390
H254	H	-0.234644	0.094617	-0.190056
H255	H	0.098689	0.427950	0.143277
H256	H	-1.234173	-0.289024	-0.682607
H257	H	-0.900839	0.044309	-0.349273
H258	H	-0.567506	0.377642	-0.015940
H259	H	-1.000217	0.194514	-0.523163
H260	H	-0.666883	0.527847	-0.189829
H261	H	-0.333550	0.861180	0.143504
H262	H	-1.284689	0.194437	-0.238686
H263	H	-0.951356	0.527770	0.094647
H264	H	-0.618023	0.861103	0.427981
H265	H	-1.234243	-0.288889	-1.080019
H266	H	-0.900909	0.044444	-0.746685
H267	H	-0.567576	0.377777	-0.413352
H268	H	-0.444059	-0.472429	-0.289058
H269	H	-0.110726	-0.139096	0.044276
H270	H	0.222608	0.194238	0.377609
H271	H	-1.284747	-0.238433	-0.806437
H272	H	-0.951414	0.094900	-0.473104
H273	H	-0.618081	0.428233	-0.139770
H274	H	-1.000201	0.044755	-0.523168
H275	H	-0.666868	0.378089	-0.189835
H276	H	-0.333534	0.711422	0.143498
H277	H	-0.567851	-0.522904	-0.238421
H278	H	-0.234518	-0.189571	0.094912
H279	H	0.098815	0.143763	0.428246
H280	H	-1.050766	0.318323	-0.472625
H281	H	-0.717433	0.651657	-0.139291
H282	H	-0.384100	0.984990	0.194042
H283	H	-0.717630	-0.522897	-0.238417
H284	H	-0.384296	-0.189563	0.094917
H285	H	-0.050963	0.143770	0.428250
