data_functionalizedCrystal
_audit_creation_method	'MofGen! by Chris Wilmer'
_symmetry_space_group_name_H-M	'P1'
_symmetry_Int_Tables_number	1
_symmetry_cell_setting	triclinic
loop_
_symmetry_equiv_pos_as_xyz
  x,y,z
_cell_length_a	19.288867
_cell_length_b	15.625429
_cell_length_c	18.366186
_cell_angle_alpha	71.916618
_cell_angle_beta	89.992441
_cell_angle_gamma	83.712539
loop_
_atom_site_label
_atom_site_type_symbol
_atom_site_fract_x
_atom_site_fract_y
_atom_site_fract_z
O1	O	0.921733	0.112472	-0.090216
O2	O	0.719524	0.127641	-0.094228
O3	O	0.826028	-0.011203	-0.057565
O4	O	0.815229	0.251317	-0.126878
O5	O	0.826010	-0.011210	0.063536
O6	O	0.719506	0.127635	0.026874
O7	O	0.921715	0.112465	0.030885
Zn8	Zn	0.820607	0.120049	0.048107
Zn9	Zn	0.820631	0.120058	-0.111449
O10	O	0.815210	0.251310	-0.005777
C11	C	0.693637	0.127150	-0.033549
C12	C	0.616528	0.125684	-0.033164
C13	C	0.060937	0.115127	-0.096380
C14	C	0.133389	0.116499	-0.096745
C15	C	0.169610	0.117186	-0.030915
C16	C	0.133375	0.116477	0.035291
C17	C	0.060925	0.115096	0.035656
C18	C	0.279116	0.172173	0.005140
C19	C	0.351564	0.173560	0.004770
C20	C	0.393070	0.121442	-0.032039
C21	C	0.362118	0.067949	-0.068493
C22	C	0.289668	0.066567	-0.068127
C23	C	0.248170	0.118683	-0.031304
C24	C	0.507858	0.123632	-0.098635
C25	C	0.580312	0.124999	-0.098995
C26	C	0.580296	0.124985	0.033040
C27	C	0.507844	0.123610	0.033401
C28	C	0.471629	0.122937	-0.032439
C29	C	0.825529	-0.044792	0.011851
C30	C	0.824061	-0.144867	0.038269
C31	C	0.819263	-0.473983	-0.204880
C32	C	0.817880	-0.568018	-0.180034
C33	C	0.817861	-0.568011	-0.048018
C34	C	0.819247	-0.473975	-0.072853
C35	C	0.819947	-0.426968	-0.151285
C36	C	0.819931	-0.426960	-0.019257
C37	C	0.821313	-0.332932	-0.044091
C38	C	0.822011	-0.285918	-0.122520
C39	C	0.821329	-0.332939	-0.176118
C40	C	0.819225	-0.473968	0.059174
C41	C	0.819909	-0.426954	0.112769
C42	C	0.821297	-0.332924	0.087936
C43	C	0.821995	-0.285910	0.009508
C44	C	0.821979	-0.285903	0.141535
C45	C	0.823361	-0.191874	0.116701
C46	C	0.823377	-0.191881	-0.015326
C47	C	0.947602	0.112957	-0.029795
C48	C	1.024710	0.114423	-0.030184
C49	C	0.815709	0.284899	-0.075195
C50	C	0.817177	0.384974	-0.101618
N51	N	0.820596	0.120042	0.157000
N52	N	0.820648	0.120057	-0.220340
C53	C	0.867772	0.058592	0.211326
C54	C	0.867776	0.058588	0.287555
C55	C	0.820611	0.120050	0.309451
C56	C	0.773427	0.181505	0.255114
C57	C	0.773419	0.181501	0.178888
C58	C	0.811592	0.202193	0.408522
C59	C	0.811604	0.202198	0.484746
C60	C	0.820631	0.120061	0.544555
C61	C	0.829661	0.037916	0.528132
C62	C	0.829653	0.037912	0.451907
C63	C	0.820614	0.120060	0.392102
C64	C	0.867814	0.058601	0.681539
C65	C	0.867814	0.058596	0.757770
C66	C	0.773468	0.181520	0.725324
C67	C	0.773465	0.181518	0.649097
C68	C	0.820642	0.120059	0.627209
H69	H	0.395911	0.025512	-0.098469
Br70	Br	0.222795	0.242897	0.055112
Br71	Br	0.629447	0.125898	0.122387
Br72	Br	0.011757	0.114142	0.125500
Br73	Br	0.931837	-0.024815	0.831507
Br74	Br	0.931837	-0.024809	0.651832
H75	H	0.823953	-0.153607	-0.079193
Br76	Br	0.816945	-0.631821	-0.252779
H77	H	0.478370	0.123082	-0.152245
Br78	Br	0.629480	0.125940	-0.188837
H79	H	0.837003	-0.028973	0.438539
H80	H	0.823129	-0.209352	-0.142738
Br81	Br	0.458674	0.122667	0.123240
H82	H	0.817288	-0.606297	0.015842
H83	H	0.376757	0.217139	0.034432
H84	H	0.735063	0.231560	0.743152
H85	H	0.818092	-0.550531	0.079391
H86	H	0.821905	-0.294665	-0.239985
H87	H	0.162871	0.117034	0.088890
Br88	Br	0.818951	-0.490755	0.219209
Br89	Br	0.931805	-0.024817	0.361296
Br90	Br	0.931793	-0.024816	0.181620
H91	H	0.804256	0.269085	0.498111
Br92	Br	0.247663	-0.006029	-0.117596
H93	H	0.735053	0.231560	0.604860
Br94	Br	0.821011	-0.349705	0.247973
H95	H	0.819839	-0.435708	-0.268747
Br96	Br	0.824291	-0.128062	0.189438
H97	H	0.837011	-0.028967	0.576829
Br98	Br	0.799409	0.313676	0.327358
Br99	Br	0.709412	0.264912	0.284827
H100	H	0.031455	0.114576	-0.149992
Br101	Br	0.182565	0.117454	-0.186589
H102	H	0.735002	0.231542	0.134653
