data_functionalizedCrystal
_audit_creation_method	'MofGen! by Chris Wilmer'
_symmetry_space_group_name_H-M	'P1'
_symmetry_Int_Tables_number	1
_symmetry_cell_setting	triclinic
loop_
_symmetry_equiv_pos_as_xyz
  x,y,z
_cell_length_a	16.625546
_cell_length_b	18.215407
_cell_length_c	18.215399
_cell_angle_alpha	90.020595
_cell_angle_beta	89.970824
_cell_angle_gamma	89.977611
loop_
_atom_site_label
_atom_site_type_symbol
_atom_site_fract_x
_atom_site_fract_y
_atom_site_fract_z
Zn1	Zn	-0.321012	-1.125084	-0.416125
Zn2	Zn	0.012322	-0.791751	-0.082791
Zn3	Zn	0.345655	-0.458418	0.250542
Zn4	Zn	-0.455852	-1.124998	-0.293056
Zn5	Zn	-0.122519	-0.791665	0.040278
Zn6	Zn	0.210815	-0.458331	0.373611
Zn7	Zn	-0.321037	-1.002017	-0.293070
Zn8	Zn	0.012297	-0.668684	0.040263
Zn9	Zn	0.345630	-0.335350	0.373596
Zn10	Zn	-0.455806	-1.001988	-0.416079
Zn11	Zn	-0.122472	-0.668655	-0.082746
Zn12	Zn	0.210861	-0.335321	0.250588
O13	O	-0.388426	-1.063522	-0.354582
O14	O	-0.055093	-0.730188	-0.021249
O15	O	0.278240	-0.396855	0.312084
O16	O	-0.338907	-1.228057	-0.399812
O17	O	-0.005574	-0.894724	-0.066479
O18	O	0.327759	-0.561390	0.266854
O19	O	-0.437998	-1.108660	-0.190073
O20	O	-0.104665	-0.775327	0.143260
O21	O	0.228669	-0.441993	0.476593
O22	O	-0.208201	-1.018390	-0.309419
O23	O	0.125132	-0.685057	0.023914
O24	O	0.458466	-0.351724	0.357248
O25	O	-0.437974	-1.227994	-0.309394
O26	O	-0.104640	-0.894660	0.023939
O27	O	0.228693	-0.561327	0.357273
O28	O	-0.208183	-1.108807	-0.399826
O29	O	0.125151	-0.775474	-0.066493
O30	O	0.458484	-0.442141	0.266840
O31	O	-0.338950	-1.018307	-0.190084
O32	O	-0.005617	-0.684973	0.143249
O33	O	0.327717	-0.351640	0.476583
O34	O	-0.338905	-0.899029	-0.309375
O35	O	-0.005572	-0.565695	0.023959
O36	O	0.327761	-0.232362	0.357292
O37	O	-0.437895	-1.018341	-0.519069
O38	O	-0.104562	-0.685008	-0.185736
O39	O	0.228772	-0.351674	0.147597
O40	O	-0.437920	-0.899008	-0.399749
O41	O	-0.104586	-0.565674	-0.066415
O42	O	0.228747	-0.232341	0.266918
O43	O	-0.338862	-1.108779	-0.519103
O44	O	-0.005529	-0.775446	-0.185769
O45	O	0.327804	-0.442113	0.147564
O46	O	-0.568678	-1.108632	-0.309350
O47	O	-0.235345	-0.775299	0.023984
O48	O	0.097989	-0.441965	0.357317
O49	O	-0.568644	-1.018257	-0.399734
O50	O	-0.235311	-0.684924	-0.066401
O51	O	0.098022	-0.351591	0.266932
C52	C	-0.388411	-0.872315	-0.354559
C53	C	-0.055077	-0.538982	-0.021225
C54	C	0.278256	-0.205649	0.312108
C55	C	-0.388423	-0.790517	-0.354566
C56	C	-0.055090	-0.457183	-0.021233
C57	C	0.278243	-0.123850	0.312101
C58	C	-0.440059	-0.602331	-0.401562
C59	C	-0.106726	-0.268998	-0.068229
C60	C	0.226607	0.064336	0.265105
C61	C	-0.440061	-0.525472	-0.401570
C62	C	-0.106728	-0.192139	-0.068237
C63	C	0.226606	0.141195	0.265096
C64	C	-0.336798	-0.525465	-0.307605
C65	C	-0.003465	-0.192131	0.025728
C66	C	0.329868	0.141202	0.359061
C67	C	-0.336793	-0.602322	-0.307601
C68	C	-0.003460	-0.268989	0.025732
C69	C	0.329874	0.064345	0.359065
C70	C	-0.388428	-0.640753	-0.354579
C71	C	-0.055095	-0.307420	-0.021245
C72	C	0.278239	0.025914	0.312088
C73	C	-0.388435	-0.487037	-0.354591
C74	C	-0.055102	-0.153704	-0.021257
C75	C	0.278232	0.179630	0.312076
C76	C	-0.388437	-0.403703	-0.354599
C77	C	-0.055103	-0.070370	-0.021266
C78	C	0.278230	0.262963	0.312067
C79	C	-0.388426	-0.724092	-0.354571
C80	C	-0.055092	-0.390759	-0.021238
C81	C	0.278241	-0.057425	0.312095
C82	C	-0.597917	-1.063452	-0.354552
C83	C	-0.264584	-0.730119	-0.021218
C84	C	0.068749	-0.396785	0.312115
C85	C	-0.687538	-1.063490	-0.354563
C86	C	-0.354205	-0.730156	-0.021230
C87	C	-0.020872	-0.396823	0.312104
C88	C	-1.015714	-1.063618	-0.354640
C89	C	-0.682381	-0.730285	-0.021306
C90	C	-0.349047	-0.396951	0.312027
C91	C	-0.924406	-1.063580	-0.354620
C92	C	-0.591072	-0.730247	-0.021287
C93	C	-0.257739	-0.396913	0.312046
C94	C	-0.851629	-1.063553	-0.354601
C95	C	-0.518296	-0.730220	-0.021268
C96	C	-0.184962	-0.396887	0.312066
C97	C	-0.760315	-1.063516	-0.354582
C98	C	-0.426982	-0.730183	-0.021249
C99	C	-0.093648	-0.396850	0.312084
C100	C	-0.178118	-1.063612	-0.354629
C101	C	0.155216	-0.730278	-0.021296
C102	C	0.488549	-0.396945	0.312037
C103	C	-0.088496	-1.063650	-0.354649
C104	C	0.244837	-0.730317	-0.021316
C105	C	0.578170	-0.396983	0.312017
C106	C	-0.388371	-1.063567	-0.546535
C107	C	-0.055038	-0.730233	-0.213202
C108	C	0.278296	-0.396900	0.120131
C109	C	-0.388347	-1.063586	-0.628334
C110	C	-0.055014	-0.730252	-0.295001
C111	C	0.278319	-0.396919	0.038332
C112	C	-0.388440	-0.255475	-0.354603
C113	C	-0.055107	0.077859	-0.021270
C114	C	0.278226	0.411192	0.312063
C115	C	-0.388440	-0.337274	-0.354604
C116	C	-0.055106	-0.003940	-0.021270
C117	C	0.278227	0.329393	0.312063
C118	C	-0.336733	-1.110694	-0.816547
C119	C	-0.003399	-0.777361	-0.483214
C120	C	0.329934	-0.444027	-0.149880
C121	C	-0.336709	-1.110703	-0.893406
C122	C	-0.003376	-0.777369	-0.560072
C123	C	0.329958	-0.444036	-0.226739
C124	C	-0.439837	-1.016530	-0.893360
C125	C	-0.106504	-0.683196	-0.560026
C126	C	0.226830	-0.349863	-0.226693
C127	C	-0.439856	-1.016518	-0.816502
C128	C	-0.106523	-0.683184	-0.483169
C129	C	0.226811	-0.349851	-0.149836
C130	C	-0.388305	-1.063604	-0.778098
C131	C	-0.054972	-0.730271	-0.444765
C132	C	0.278362	-0.396937	-0.111431
C133	C	-0.388263	-1.063625	-0.931814
C134	C	-0.054929	-0.730291	-0.598481
C135	C	0.278404	-0.396958	-0.265147
C136	C	-0.388237	-1.063634	-1.015148
C137	C	-0.054904	-0.730301	-0.681814
C138	C	0.278429	-0.396967	-0.348481
C139	C	-0.388329	-1.063594	-0.694759
C140	C	-0.054995	-0.730261	-0.361426
C141	C	0.278338	-0.396927	-0.028092
C142	C	-0.388424	-1.063519	-0.163376
C143	C	-0.055090	-0.730186	0.169957
C144	C	0.278243	-0.396853	0.503291
C145	C	-0.388220	-1.063643	-0.081578
C146	C	-0.054887	-0.730310	0.251756
C147	C	0.278446	-0.396976	0.585089
H148	H	-0.294760	-0.494165	-0.269357
H149	H	0.038573	-0.160831	0.063976
H150	H	0.371907	0.172502	0.397310
H151	H	-0.482103	-0.494192	-0.439830
H152	H	-0.148770	-0.160859	-0.106497
H153	H	0.184563	0.172475	0.226837
H154	H	-0.294713	-1.149047	-0.924708
H155	H	0.038621	-0.815713	-0.591374
H156	H	0.371954	-0.482380	-0.258041
C157	C	-0.496545	-0.964746	-0.935607
C158	C	-0.163212	-0.631412	-0.602273
C159	C	0.170121	-0.298079	-0.268940
H160	H	-0.489155	-0.971502	-0.986887
H161	H	-0.155822	-0.638168	-0.653554
H162	H	0.177512	-0.304835	-0.320220
H163	H	-0.484749	-0.915301	-0.923006
H164	H	-0.151416	-0.581967	-0.589672
H165	H	0.181917	-0.248634	-0.256339
H166	H	-0.550726	-0.975500	-0.922997
H167	H	-0.217393	-0.642166	-0.589663
H168	H	0.115940	-0.308833	-0.256330
H169	H	-0.294744	-0.633606	-0.269342
H170	H	0.038590	-0.300273	0.063992
H171	H	0.371923	0.033060	0.397325
H172	H	-0.294754	-1.149033	-0.785280
H173	H	0.038579	-0.815699	-0.451947
H174	H	0.371912	-0.482366	-0.118614
C175	C	-0.496593	-0.964721	-0.774205
C176	C	-0.163260	-0.631388	-0.440872
C177	C	0.170073	-0.298054	-0.107539
H178	H	-0.527302	-0.936688	-0.808084
H179	H	-0.193968	-0.603355	-0.474751
H180	H	0.139365	-0.270022	-0.141417
H181	H	-0.465758	-0.932663	-0.744222
H182	H	-0.132425	-0.599330	-0.410889
H183	H	0.200908	-0.265997	-0.077556
H184	H	-0.531734	-0.992863	-0.744222
H185	H	-0.198401	-0.659530	-0.410889
H186	H	0.134933	-0.326197	-0.077556
H187	H	-0.482102	-0.633619	-0.439816
H188	H	-0.148769	-0.300286	-0.106483
H189	H	0.184565	0.033047	0.226851
