data_functionalizedCrystal
_audit_creation_method	'MofGen! by Chris Wilmer'
_symmetry_space_group_name_H-M	'P1'
_symmetry_Int_Tables_number	1
_symmetry_cell_setting	triclinic
loop_
_symmetry_equiv_pos_as_xyz
  x,y,z
_cell_length_a	12.759401
_cell_length_b	21.295417
_cell_length_c	12.759387
_cell_angle_alpha	89.930275
_cell_angle_beta	89.960267
_cell_angle_gamma	90.030668
loop_
_atom_site_label
_atom_site_type_symbol
_atom_site_fract_x
_atom_site_fract_y
_atom_site_fract_z
Zn1	Zn	1.606360	-0.250380	-0.593927
Zn2	Zn	1.606141	-0.355720	-0.418223
Zn3	Zn	1.430597	-0.250469	-0.418266
Zn4	Zn	1.430602	-0.355615	-0.593865
O5	O	1.518425	-0.303046	-0.506070
O6	O	1.753352	-0.264360	-0.570627
O7	O	1.582761	-0.341839	-0.271207
O8	O	1.454002	-0.162367	-0.441611
O9	O	1.753191	-0.341753	-0.441539
O10	O	1.583134	-0.162302	-0.570668
O11	O	1.453789	-0.264512	-0.271239
O12	O	1.283577	-0.264410	-0.441551
O13	O	1.454011	-0.341574	-0.740894
O14	O	1.283581	-0.341661	-0.570563
O15	O	1.583140	-0.264258	-0.740940
O16	O	1.582766	-0.443795	-0.441479
O17	O	1.453798	-0.443718	-0.570522
C18	C	1.245458	-0.303034	-0.506056
C19	C	1.128681	-0.303044	-0.506075
C20	C	1.073849	-0.343333	-0.573140
C21	C	0.964125	-0.343341	-0.573151
C22	C	0.964075	-0.262770	-0.439023
C23	C	1.073797	-0.262759	-0.439018
C24	C	1.128732	-0.383619	-0.640197
C25	C	1.073900	-0.423911	-0.707267
C26	C	0.964176	-0.423919	-0.707278
C27	C	0.909284	-0.383635	-0.640220
C28	C	1.518287	-0.466597	-0.506012
C29	C	1.518325	-0.536566	-0.506022
C30	C	1.585538	-0.569451	-0.438898
C31	C	1.585587	-0.635194	-0.438922
C32	C	1.518404	-0.668048	-0.506058
C33	C	1.451187	-0.635154	-0.573195
C34	C	1.451147	-0.569413	-0.573177
N35	N	1.426500	-0.771311	-0.514063
N36	N	1.426541	-0.833762	-0.514074
C37	C	1.518522	-0.866123	-0.506119
N38	N	1.610463	-0.833672	-0.498131
N39	N	1.610421	-0.771215	-0.498115
C40	C	1.518441	-0.739333	-0.506086
C41	C	1.585794	-0.970294	-0.439017
C42	C	1.585845	-1.036038	-0.439048
C43	C	1.451436	-1.035997	-0.573316
C44	C	1.451394	-0.970254	-0.573290
C45	C	1.518572	-0.937407	-0.506135
C46	C	1.792458	-0.303058	-0.506085
C47	C	1.909235	-0.303063	-0.506091
C48	C	1.518600	-0.302895	-0.780104
C49	C	1.518675	-0.302830	-0.896881
C50	C	1.518592	-0.138855	-0.506151
C51	C	1.518663	-0.068887	-0.506186
C52	C	1.518311	-0.303151	-0.233102
C53	C	1.518440	-0.303038	-0.116326
C54	C	1.451874	-0.343426	0.048569
C55	C	1.451759	-0.343532	-0.061155
C56	C	1.585249	-0.262440	-0.061768
C57	C	1.585368	-0.262338	0.047954
C58	C	1.385181	-0.383918	0.103734
C59	C	1.318373	-0.424516	0.049183
C60	C	1.318258	-0.424622	-0.060540
C61	C	1.384950	-0.384129	-0.115713
H62	H	0.919374	-0.229972	-0.384426
H63	H	1.639762	-0.229281	0.092370
H64	H	1.396488	-0.661908	-0.627860
H65	H	1.385266	-0.383836	0.193077
H66	H	1.118600	-0.456706	-0.761870
H67	H	1.118443	-0.229948	-0.384415
H68	H	1.396413	-0.542637	-0.627839
H69	H	1.640240	-0.542709	-0.384219
H70	H	1.264081	-0.457488	0.094112
H71	H	1.640324	-0.661975	-0.384262
H72	H	0.919534	-0.456723	-0.761897
H73	H	1.396739	-1.062746	-0.627984
H74	H	1.263867	-0.457683	-0.104953
H75	H	1.640585	-1.062812	-0.384389
H76	H	1.218075	-0.383618	-0.640193
H77	H	1.396658	-0.943477	-0.627944
H78	H	1.384857	-0.384222	-0.205058
H79	H	0.819940	-0.383639	-0.640243
H80	H	1.639545	-0.229472	-0.106698
H81	H	1.640498	-0.943548	-0.384338
