data_functionalizedCrystal
_audit_creation_method	'MofGen! by Chris Wilmer'
_symmetry_space_group_name_H-M	'P1'
_symmetry_Int_Tables_number	1
_symmetry_cell_setting	triclinic
loop_
_symmetry_equiv_pos_as_xyz
  x,y,z
_cell_length_a	11.026607
_cell_length_b	11.026607
_cell_length_c	10.065875
_cell_angle_alpha	79.268236
_cell_angle_beta	79.303208
_cell_angle_gamma	71.413983
loop_
_atom_site_label
_atom_site_type_symbol
_atom_site_fract_x
_atom_site_fract_y
_atom_site_fract_z
O1	O	1.741282	-0.518969	-0.113460
O2	O	1.374703	-0.458205	-0.113469
O3	O	1.527611	-0.305298	-0.113460
O4	O	1.588375	-0.671877	-0.113469
O5	O	1.498486	-0.334605	0.113527
O6	O	1.345579	-0.487512	0.113518
O7	O	1.712158	-0.548277	0.113527
Zn8	Zn	1.524244	-0.522547	0.149562
Zn9	Zn	1.562617	-0.483934	-0.149504
O10	O	1.559251	-0.701184	0.113518
C11	C	1.312482	-0.461648	0.000024
C12	C	1.170468	-0.428231	0.000020
C13	C	1.501839	-0.272291	0.000031
C14	C	1.468423	-0.130277	0.000026
N15	N	1.498065	-0.548901	0.353666
C16	C	1.774380	-0.544833	0.000031
C17	C	1.916395	-0.578249	0.000026
C18	C	1.970044	-0.485979	0.000026
C19	C	2.116823	-0.520514	0.000020
C20	C	1.585023	-0.734190	0.000024
C21	C	1.618440	-0.876203	0.000020
C22	C	1.560692	-0.076627	0.000026
C23	C	1.526157	0.070152	0.000020
N24	N	1.588804	-0.457572	-0.353608
C25	C	1.553499	-0.493094	0.421448
C26	C	1.533362	-0.513388	0.578614
H27	H	1.907307	-0.381420	0.000051
H28	H	1.363861	-0.067542	0.000014
Br29	Br	1.734979	-0.181173	0.000016
H30	H	2.107752	-0.323650	-0.000065
H31	H	1.723023	0.061082	-0.000080
H32	H	1.615860	-0.430284	0.363127
Br33	Br	1.351868	0.174698	-0.000004
Br34	Br	1.394100	-0.653569	0.450862
Br35	Br	2.221365	-0.694807	0.000029
H36	H	1.470986	-0.576190	0.636931
Br37	Br	1.693126	-0.353251	0.549206
H38	H	1.979127	-0.682812	0.000029
