data_functionalizedCrystal
_audit_creation_method	'MofGen! by Chris Wilmer'
_symmetry_space_group_name_H-M	'P1'
_symmetry_Int_Tables_number	1
_symmetry_cell_setting	triclinic
loop_
_symmetry_equiv_pos_as_xyz
  x,y,z
_cell_length_a	29.839134
_cell_length_b	29.839131
_cell_length_c	12.827885
_cell_angle_alpha	90.036821
_cell_angle_beta	90.033318
_cell_angle_gamma	90.034165
loop_
_atom_site_label
_atom_site_type_symbol
_atom_site_fract_x
_atom_site_fract_y
_atom_site_fract_z
Zn1	Zn	0.686760	-0.178918	0.591189
Zn2	Zn	1.186760	0.321082	1.091189
Zn3	Zn	0.686680	-0.254056	0.416428
Zn4	Zn	1.186680	0.245944	0.916428
Zn5	Zn	0.611631	-0.178931	0.416420
Zn6	Zn	1.111631	0.321069	0.916420
Zn7	Zn	0.611590	-0.254013	0.591085
Zn8	Zn	1.111590	0.245987	1.091085
O9	O	0.649165	-0.216479	0.503780
O10	O	1.149165	0.283521	1.003780
O11	O	0.749616	-0.188898	0.568053
O12	O	1.249616	0.311102	1.068053
O13	O	0.676708	-0.244113	0.270191
O14	O	1.176708	0.255887	0.770191
O15	O	0.621647	-0.116062	0.439644
O16	O	1.121647	0.383938	0.939644
O17	O	0.749558	-0.244101	0.439657
O18	O	1.249558	0.255899	0.939657
O19	O	0.676844	-0.116053	0.568046
O20	O	1.176844	0.383947	1.068046
O21	O	0.621570	-0.188919	0.270185
O22	O	1.121570	0.311081	0.770185
O23	O	0.548758	-0.188878	0.439543
O24	O	1.048758	0.311122	0.939543
O25	O	0.621578	-0.244028	0.737335
O26	O	1.121578	0.255972	1.237335
O27	O	0.548728	-0.244040	0.567868
O28	O	1.048728	0.255960	1.067868
O29	O	0.676805	-0.188857	0.737411
O30	O	1.176805	0.311143	1.237411
O31	O	0.676669	-0.316917	0.439556
O32	O	1.176669	0.183083	0.939556
O33	O	0.621501	-0.316885	0.567876
O34	O	1.121501	0.183115	1.067876
C35	C	0.532442	-0.216456	0.503694
C36	C	1.032442	0.283544	1.003694
C37	C	0.482508	-0.216457	0.503682
C38	C	0.982508	0.283543	1.003682
C39	C	0.125924	-0.187714	0.437098
C40	C	0.625924	0.312286	0.937098
C41	C	0.313597	-0.187701	0.437034
C42	C	0.813597	0.312299	0.937034
O43	O	0.337864	-0.163225	0.380325
O44	O	0.837864	0.336775	0.880325
N45	N	0.337063	-0.216464	0.503734
N46	N	0.837063	0.283536	1.003734
C47	C	0.313608	-0.245230	0.570460
C48	C	0.813608	0.254770	1.070460
O49	O	0.337873	-0.269691	0.627199
O50	O	0.837873	0.230309	1.127199
C51	C	0.125936	-0.245240	0.570528
C52	C	0.625936	0.254760	1.070528
C53	C	0.102472	-0.216479	0.503816
C54	C	0.602472	0.283521	1.003816
C55	C	0.102460	-0.158954	0.370392
C56	C	0.602460	0.341046	0.870392
C57	C	0.055545	-0.158960	0.370404
C58	C	0.555545	0.341040	0.870404
C59	C	0.032093	-0.187724	0.437123
C60	C	0.532093	0.312276	0.937123
C61	C	0.055557	-0.216484	0.503828
C62	C	0.555557	0.283516	1.003828
C63	C	0.102481	-0.274004	0.637258
C64	C	0.602481	0.225996	1.137258
C65	C	0.055560	-0.274003	0.637271
C66	C	0.555560	0.225997	1.137271
C67	C	0.032097	-0.245241	0.570559
C68	C	0.532097	0.254759	1.070559
C69	C	-0.014811	-0.245254	0.570559
C70	C	0.485189	0.254746	1.070559
N71	N	-0.038277	-0.216491	0.503859
N72	N	0.461723	0.283509	1.003859
C73	C	-0.014825	-0.187726	0.437141
C74	C	0.485175	0.312274	0.937141
C75	C	0.412138	-0.245223	0.570418
C76	C	0.912138	0.254777	1.070418
C77	C	0.459056	-0.245222	0.570400
C78	C	0.959056	0.254778	1.070400
C79	C	0.459042	-0.187692	0.436975
C80	C	0.959042	0.312308	0.936975
C81	C	0.412123	-0.187696	0.436989
C82	C	0.912123	0.312304	0.936989
C83	C	0.388672	-0.216461	0.503718
C84	C	0.888672	0.283539	1.003718
C85	C	-0.113351	-0.187739	0.437171
C86	C	0.386649	0.312261	0.937171
C87	C	-0.160270	-0.187749	0.437187
C88	C	0.339730	0.312251	0.937187
C89	C	-0.160252	-0.245276	0.570615
C90	C	0.339748	0.254724	1.070615
C91	C	-0.113337	-0.245269	0.570596
C92	C	0.386663	0.254731	1.070596
C93	C	-0.089887	-0.216497	0.503871
C94	C	0.410113	0.283503	1.003871
O95	O	-0.039107	-0.269714	0.627247
O96	O	0.460893	0.230286	1.127247
O97	O	-0.039098	-0.163262	0.380427
O98	O	0.460902	0.336738	0.880427
C99	C	0.172839	-0.187709	0.437085
C100	C	0.672839	0.312291	0.937085
C101	C	0.196303	-0.216468	0.503791
C102	C	0.696303	0.283532	1.003791
C103	C	0.172851	-0.245233	0.570509
C104	C	0.672851	0.254767	1.070509
C105	C	0.243221	-0.216466	0.503773
C106	C	0.743221	0.283534	1.003773
C107	C	0.266673	-0.187702	0.437055
C108	C	0.766673	0.312298	0.937055
C109	C	0.243207	-0.158939	0.370354
C110	C	0.743207	0.341061	0.870354
C111	C	0.196291	-0.158944	0.370367
C112	C	0.696291	0.341056	0.870367
C113	C	0.196317	-0.273996	0.637209
C114	C	0.696317	0.226004	1.137209
C115	C	0.243233	-0.273989	0.637190
C116	C	0.743233	0.226011	1.137190
C117	C	0.266684	-0.245224	0.570472
C118	C	0.766684	0.254776	1.070472
C119	C	0.649084	-0.333202	0.503729
C120	C	1.149084	0.166798	1.003729
C121	C	0.649090	-0.383136	0.503741
C122	C	1.149090	0.116864	1.003741
C123	C	0.677943	-0.692784	0.437062
C124	C	1.177943	-0.192784	0.937062
C125	C	0.677999	-0.880457	0.437103
C126	C	1.177999	-0.380457	0.937103
O127	O	0.702466	-0.904725	0.380369
O128	O	1.202466	-0.404725	0.880369
N129	N	0.649258	-0.903921	0.503859
N130	N	1.149258	-0.403921	1.003859
C131	C	0.620504	-0.880465	0.570615
C132	C	1.120504	-0.380465	1.070615
O133	O	0.596063	-0.904730	0.627405
O134	O	1.096063	-0.404730	1.127405
C135	C	0.620451	-0.692793	0.570579
C136	C	1.120451	-0.192793	1.070579
C137	C	0.649190	-0.669331	0.503811
C138	C	1.149190	-0.169331	1.003811
C139	C	0.706681	-0.669321	0.370300
C140	C	1.206681	-0.169321	0.870300
C141	C	0.706665	-0.622406	0.370286
C142	C	1.206665	-0.122406	0.870286
C143	C	0.677912	-0.598953	0.437035
C144	C	1.177912	-0.098953	0.937035
C145	C	0.649174	-0.622415	0.503797
C146	C	1.149174	-0.122415	1.003797
C147	C	0.591699	-0.669338	0.637340
C148	C	1.091699	-0.169338	1.137340
C149	C	0.591689	-0.622417	0.637327
C150	C	1.091689	-0.122417	1.137327
C151	C	0.620429	-0.598954	0.570558
C152	C	1.120429	-0.098954	1.070558
C153	C	0.620405	-0.552047	0.570533
C154	C	1.120405	-0.052047	1.070533
N155	N	0.649146	-0.528582	0.503776
N156	N	1.149146	-0.028582	1.003776
C157	C	0.677899	-0.552035	0.437027
C158	C	1.177899	-0.052035	0.937027
C159	C	0.620533	-0.978996	0.570628
C160	C	1.120533	-0.478996	1.070628
C161	C	0.620545	-1.025914	0.570636
C162	C	1.120545	-0.525914	1.070636
C163	C	0.678041	-1.025902	0.437124
C164	C	1.178041	-0.525902	0.937124
C165	C	0.678026	-0.978983	0.437112
C166	C	1.178026	-0.478983	0.937112
C167	C	0.649274	-0.955531	0.503871
C168	C	1.149274	-0.455531	1.003871
C169	C	0.677863	-0.453509	0.437003
C170	C	1.177863	0.046491	0.937003
C171	C	0.677843	-0.406589	0.436992
C172	C	1.177843	0.093411	0.936992
C173	C	0.620350	-0.406605	0.570508
C174	C	1.120350	0.093395	1.070508
C175	C	0.620367	-0.453521	0.570515
C176	C	1.120367	0.046479	1.070515
C177	C	0.649128	-0.476971	0.503759
C178	C	1.149128	0.023029	1.003759
O179	O	0.595954	-0.527750	0.627244
O180	O	1.095954	-0.027750	1.127244
O181	O	0.702343	-0.527762	0.380263
O182	O	1.202343	-0.027762	0.880263
C183	C	0.677959	-0.739699	0.437075
C184	C	1.177959	-0.239699	0.937075
C185	C	0.649222	-0.763161	0.503838
C186	C	1.149222	-0.263161	1.003838
C187	C	0.620469	-0.739708	0.570587
C188	C	1.120469	-0.239708	1.070587
C189	C	0.649235	-0.810079	0.503846
C190	C	1.149235	-0.310079	1.003846
C191	C	0.677988	-0.833532	0.437097
C192	C	1.177988	-0.333532	0.937097
C193	C	0.706728	-0.810067	0.370340
C194	C	1.206728	-0.310067	0.870340
C195	C	0.706712	-0.763152	0.370327
C196	C	1.206712	-0.263152	0.870327
C197	C	0.591728	-0.763173	0.637343
C198	C	1.091728	-0.263173	1.137343
C199	C	0.591746	-0.810089	0.637351
C200	C	1.091746	-0.310089	1.137351
C201	C	0.620499	-0.833542	0.570602
C202	C	1.120499	-0.333542	1.070602
C203	C	0.766343	-0.216503	0.503868
C204	C	1.266343	0.283497	1.003868
C205	C	0.816278	-0.216513	0.503905
C206	C	1.316278	0.283487	1.003905
C207	C	0.649196	-0.216436	0.776351
C208	C	1.149196	0.283564	1.276351
C209	C	0.649209	-0.216418	0.892504
C210	C	1.149209	0.283582	1.392504
C211	C	0.649259	-0.099301	0.503855
C212	C	1.149259	0.400699	1.003855
C213	C	0.649299	-0.049367	0.503887
C214	C	1.149299	0.450633	1.003887
C215	C	0.649160	-0.216490	0.232270
C216	C	1.149160	0.283510	0.732270
C217	C	0.649234	-0.216382	0.116118
C218	C	1.149234	0.283618	0.616118
C219	C	0.676540	-0.189112	0.944327
C220	C	1.176540	0.310888	1.444327
C221	C	0.676554	-0.189092	1.064377
C222	C	1.176554	0.310908	1.564377
H223	H	0.121577	-0.297425	0.691582
H224	H	0.621577	0.202575	1.191582
H225	H	0.625836	-0.239762	1.071559
H226	H	1.125836	0.260238	1.571559
Br227	Br	0.581534	-1.057750	0.661239
Br228	Br	1.081534	-0.557750	1.161239
Br229	Br	0.715511	-0.150156	0.870152
Br230	Br	1.215511	0.349844	1.370152
H231	H	0.177227	-0.297420	0.691541
H232	H	0.677227	0.202580	1.191541
H233	H	-0.179372	-0.164327	0.382859
H234	H	0.320628	0.335673	0.882859
H235	H	0.701246	-0.387488	0.382618
H236	H	1.201246	0.112512	0.882618
Br237	Br	0.275070	-0.313029	0.727730
Br238	Br	0.775070	0.186971	1.227730
H239	H	0.699954	-0.165716	1.108943
H240	H	1.199954	0.334284	1.608943
H241	H	0.625817	-0.239778	0.937014
H242	H	1.125817	0.260222	1.437014
Br243	Br	0.552738	-0.841925	0.727971
Br244	Br	1.052738	-0.341925	1.227971
Br245	Br	-0.081534	-0.148692	0.346615
Br246	Br	0.418466	0.351308	0.846615
H247	H	0.730115	-0.744052	0.315958
H248	H	1.230115	-0.244052	0.815958
H249	H	0.597118	-0.959904	0.624993
H250	H	1.097118	-0.459904	1.124993
H251	H	0.568294	-0.688433	0.691705
H252	H	1.068294	-0.188433	1.191705
Br253	Br	0.023709	-0.119919	0.279872
Br254	Br	0.523709	0.380081	0.779872
H255	H	0.701428	-0.959883	0.382744
H256	H	1.201428	-0.459883	0.882744
H257	H	0.393049	-0.268648	0.624759
H258	H	0.893049	0.231352	1.124759
H259	H	0.568276	-0.603324	0.691694
H260	H	1.068276	-0.103324	1.191694
H261	H	0.701453	-1.045005	0.382775
H262	H	1.201453	-0.545005	0.882775
H263	H	0.568314	-0.744082	0.691700
H264	H	1.068314	-0.244082	1.191700
H265	H	0.730068	-0.603305	0.315921
H266	H	1.230068	-0.103305	0.815921
H267	H	0.121550	-0.135528	0.316062
H268	H	0.621550	0.364472	0.816062
Br269	Br	0.380285	-0.148662	0.346448
Br270	Br	0.880285	0.351338	0.846448
Br271	Br	0.023737	-0.313040	0.727842
Br272	Br	0.523737	0.186960	1.227842
Br273	Br	0.490879	-0.148655	0.346428
Br274	Br	0.990879	0.351345	0.846428
Br275	Br	0.581331	-0.374767	0.661095
Br276	Br	1.081331	0.125233	1.161095
Br277	Br	0.490894	-0.284265	0.660923
Br278	Br	0.990894	0.215735	1.160923
Br279	Br	-0.081492	-0.284309	0.661120
Br280	Br	0.418508	0.215691	1.161120
H281	H	-0.179355	-0.268697	0.624931
H282	H	0.320645	0.231303	1.124931
Br283	Br	0.275044	-0.119903	0.279804
Br284	Br	0.775044	0.380097	0.779804
Br285	Br	0.716896	-0.485328	0.346405
Br286	Br	1.216896	0.014672	0.846405
Br287	Br	0.164455	-0.119908	0.279825
Br288	Br	0.664455	0.380092	0.779825
H289	H	0.730097	-0.688411	0.315944
H290	H	1.230097	-0.188411	0.815944
H291	H	0.730139	-0.829171	0.315988
H292	H	1.230139	-0.329171	0.815988
Br293	Br	0.581353	-0.485364	0.661104
Br294	Br	1.081353	0.014636	1.161104
