data_functionalizedCrystal
_audit_creation_method	'MofGen! by Chris Wilmer'
_symmetry_space_group_name_H-M	'P1'
_symmetry_Int_Tables_number	1
_symmetry_cell_setting	triclinic
loop_
_symmetry_equiv_pos_as_xyz
  x,y,z
_cell_length_a	21.395362
_cell_length_b	18.215405
_cell_length_c	21.395356
_cell_angle_alpha	89.973989
_cell_angle_beta	89.957023
_cell_angle_gamma	90.038610
loop_
_atom_site_label
_atom_site_type_symbol
_atom_site_fract_x
_atom_site_fract_y
_atom_site_fract_z
Zn1	Zn	0.957888	-0.292691	-0.354593
Zn2	Zn	0.957807	-0.415759	-0.249818
Zn3	Zn	0.853105	-0.292745	-0.249794
Zn4	Zn	0.853087	-0.415754	-0.354523
O5	O	0.905472	-0.354237	-0.302182
O6	O	1.045555	-0.308995	-0.340734
O7	O	0.943892	-0.399465	-0.162137
O8	O	0.867046	-0.189753	-0.263715
O9	O	1.045496	-0.399413	-0.263756
O10	O	0.944030	-0.189714	-0.340710
O11	O	0.866967	-0.309087	-0.162119
O12	O	0.765425	-0.309083	-0.263647
O13	O	0.867016	-0.399405	-0.442210
O14	O	0.765411	-0.399458	-0.340591
O15	O	0.944013	-0.308991	-0.442262
O16	O	0.943874	-0.518743	-0.263689
O17	O	0.866937	-0.518739	-0.340615
C18	C	0.742684	-0.354276	-0.302110
C19	C	0.673043	-0.354311	-0.302093
C20	C	0.905412	-0.545444	-0.302161
C21	C	0.905443	-0.627242	-0.302172
C22	C	0.640339	-0.401431	-0.342098
C23	C	0.574904	-0.401413	-0.342126
C24	C	0.542175	-0.354282	-0.302138
C25	C	0.574886	-0.307153	-0.262130
C26	C	0.640320	-0.307167	-0.262108
C27	C	0.438450	-0.348364	-0.245733
C28	C	0.373017	-0.348355	-0.245754
C29	C	0.340354	-0.354234	-0.302207
C30	C	0.373132	-0.360138	-0.358641
C31	C	0.438566	-0.360152	-0.358619
C32	C	0.471222	-0.354261	-0.302158
C33	C	0.236698	-0.401338	-0.342245
C34	C	0.171261	-0.401314	-0.342274
C35	C	0.171245	-0.307058	-0.262273
C36	C	0.236680	-0.307077	-0.262250
C37	C	0.269403	-0.354221	-0.302235
C38	C	0.945548	-0.815355	-0.342318
C39	C	0.945571	-0.892213	-0.342330
C40	C	0.865473	-0.892368	-0.262085
C41	C	0.865448	-0.815510	-0.262077
C42	C	0.905489	-0.777006	-0.302193
C43	C	0.905537	-0.930722	-0.302212
C44	C	0.905561	-1.014056	-0.302225
C45	C	0.905464	-0.693667	-0.302181
C46	C	1.068895	-0.354199	-0.302256
C47	C	1.138536	-0.354182	-0.302287
C48	C	0.905521	-0.354192	-0.465606
C49	C	0.905542	-0.354172	-0.535247
C50	C	0.905549	-0.162284	-0.302218
C51	C	0.905582	-0.080485	-0.302233
C52	C	0.865498	-0.307107	-0.567941
C53	C	0.865496	-0.307094	-0.633376
C54	C	0.905549	-0.354137	-0.666115
C55	C	0.945596	-0.401211	-0.633413
C56	C	0.945592	-0.401229	-0.567979
C57	C	0.962002	-0.359905	-0.769821
C58	C	0.962006	-0.359882	-0.835254
C59	C	0.905559	-0.354088	-0.867936
C60	C	0.849106	-0.348300	-0.835177
C61	C	0.849103	-0.348318	-0.769743
C62	C	0.905557	-0.354124	-0.737068
C63	C	0.865510	-0.307005	-0.971583
C64	C	0.865507	-0.306997	-1.037019
C65	C	0.945612	-0.401111	-1.037055
C66	C	0.945609	-0.401123	-0.971620
C67	C	0.905559	-0.354066	-0.938887
C68	C	0.905459	-0.354230	-0.139395
C69	C	0.905559	-0.354042	-0.069754
H70	H	0.548271	-0.439784	-0.374705
C71	C	0.474622	-0.366642	-0.420688
H72	H	0.518269	-0.365814	-0.412586
H73	H	0.463959	-0.326649	-0.447110
H74	H	0.463889	-0.411479	-0.440656
C75	C	0.989639	-0.934394	-0.386465
H76	H	1.013484	-0.900452	-0.410349
H77	H	0.965669	-0.964387	-0.413738
H78	H	1.016963	-0.964358	-0.362530
C79	C	0.337214	-0.366598	-0.420745
H80	H	0.366106	-0.370118	-0.454349
H81	H	0.311729	-0.324421	-0.426323
H82	H	0.311653	-0.409252	-0.419879
H83	H	0.832874	-0.923728	-0.229424
C84	C	0.821457	-0.255222	-1.072983
H85	H	0.797610	-0.227196	-1.044115
H86	H	0.794144	-0.283369	-1.098484
H87	H	0.845446	-0.223145	-1.098532
H88	H	0.832824	-0.784285	-0.229402
H89	H	0.978225	-0.439413	-1.063711
C90	C	1.024098	-0.366274	-0.733876
H91	H	1.057719	-0.369706	-0.762756
H92	H	1.023270	-0.408938	-0.708339
H93	H	1.029616	-0.324096	-0.708365
C94	C	0.135250	-0.255206	-0.218295
H95	H	0.091596	-0.261945	-0.224037
H96	H	0.146025	-0.205779	-0.227541
H97	H	0.145916	-0.265911	-0.176173
C98	C	1.024099	-0.366249	-0.871285
H99	H	1.016018	-0.365400	-0.914936
H100	H	1.044111	-0.411052	-0.860568
H101	H	1.050473	-0.326211	-0.860587
C102	C	0.989666	-0.452886	-0.935655
H103	H	1.013524	-0.480898	-0.964523
H104	H	0.965687	-0.484964	-0.910104
H105	H	1.016977	-0.424727	-0.910156
H106	H	0.803142	-0.343577	-0.861786
C107	C	0.538887	-0.255310	-0.218145
H108	H	0.495232	-0.262055	-0.223883
H109	H	0.549656	-0.205880	-0.227386
H110	H	0.549558	-0.266021	-0.176025
H111	H	0.803137	-0.343607	-0.743074
H112	H	0.978151	-0.784006	-0.374983
H113	H	0.978203	-0.439554	-0.541360
H114	H	0.978207	-0.439515	-0.660074
C115	C	0.821442	-0.255350	-0.531939
H116	H	0.797590	-0.227322	-0.560786
H117	H	0.845422	-0.223288	-0.506435
H118	H	0.794125	-0.283517	-0.506390
H119	H	0.832889	-0.268764	-0.660001
C120	C	0.676296	-0.255336	-0.218098
H121	H	0.647434	-0.227265	-0.194283
H122	H	0.701874	-0.223316	-0.242103
H123	H	0.701768	-0.283458	-0.190743
C124	C	0.272698	-0.453182	-0.386233
H125	H	0.316353	-0.446448	-0.380485
H126	H	0.262030	-0.442471	-0.428350
H127	H	0.261927	-0.502615	-0.376992
H128	H	0.666978	-0.439818	-0.374658
C129	C	0.821443	-0.255263	-0.935574
H130	H	0.797584	-0.227241	-0.964420
H131	H	0.845414	-0.223194	-0.910068
H132	H	0.794133	-0.283443	-0.910028
C133	C	0.135284	-0.453146	-0.386282
H134	H	0.091627	-0.446381	-0.380576
H135	H	0.145959	-0.502581	-0.377032
H136	H	0.146064	-0.442442	-0.428395
C137	C	0.272656	-0.255254	-0.218236
H138	H	0.243793	-0.227185	-0.194420
H139	H	0.298234	-0.223230	-0.242240
H140	H	0.298128	-0.283377	-0.190884
H141	H	0.465039	-0.343574	-0.199758
C142	C	0.336965	-0.341914	-0.183678
H143	H	0.293317	-0.342772	-0.191774
H144	H	0.347682	-0.297094	-0.163682
H145	H	0.347648	-0.381929	-0.157283
