data_functionalizedCrystal
_audit_creation_method	'MofGen! by Chris Wilmer'
_symmetry_space_group_name_H-M	'P1'
_symmetry_Int_Tables_number	1
_symmetry_cell_setting	triclinic
loop_
_symmetry_equiv_pos_as_xyz
  x,y,z
_cell_length_a	14.853567
_cell_length_b	14.044220
_cell_length_c	13.330367
_cell_angle_alpha	89.994700
_cell_angle_beta	89.995418
_cell_angle_gamma	88.411904
loop_
_atom_site_label
_atom_site_type_symbol
_atom_site_fract_x
_atom_site_fract_y
_atom_site_fract_z
O1	O	1.206175	0.123767	-0.083357
O2	O	1.706175	0.623767	0.416643
O3	O	0.944883	0.138510	-0.083374
O4	O	1.444883	0.638510	0.416626
O5	O	1.071607	-0.006851	-0.083356
O6	O	1.571607	0.493149	0.416644
O7	O	1.079451	0.269128	-0.083375
O8	O	1.579451	0.769128	0.416625
O9	O	1.071587	-0.006854	0.083491
O10	O	1.571587	0.493146	0.583491
O11	O	0.944863	0.138507	0.083473
O12	O	1.444863	0.638507	0.583473
O13	O	1.206154	0.123764	0.083490
O14	O	1.706154	0.623764	0.583490
Cu15	Cu	1.075507	0.131135	0.098716
Cu16	Cu	1.575507	0.631135	0.598716
Cu17	Cu	1.075531	0.131139	-0.098600
Cu18	Cu	1.575531	0.631139	0.401400
O19	O	1.079431	0.269125	0.083472
O20	O	1.579431	0.769125	0.583472
C21	C	0.911231	0.137841	0.000047
C22	C	1.411231	0.637841	0.500047
C23	C	0.810989	0.135839	0.000041
C24	C	1.310989	0.635839	0.500041
C25	C	0.390944	0.041029	0.000070
C26	C	0.890944	0.541029	0.500070
C27	C	0.383345	0.213721	0.000057
C28	C	0.883345	0.713721	0.500057
C29	C	0.477528	0.215604	0.000054
C30	C	0.977528	0.715604	0.500054
C31	C	0.528423	0.130197	0.000057
C32	C	1.028423	0.630197	0.500057
C33	C	0.485135	0.042908	0.000064
C34	C	0.985135	0.542908	0.500064
C35	C	0.520822	0.302891	0.000037
C36	C	1.020822	0.802891	0.500037
C37	C	0.615011	0.304777	0.000032
C38	C	1.115011	0.804777	0.500032
C39	C	0.665908	0.219369	0.000043
C40	C	1.165908	0.719369	0.500043
C41	C	0.622615	0.132077	0.000051
C42	C	1.122615	0.632077	0.500051
C43	C	0.673510	0.046670	0.000054
C44	C	1.173510	0.546670	0.500054
C45	C	0.630218	-0.040623	0.000069
C46	C	1.130218	0.459377	0.500069
C47	C	0.536032	-0.042499	0.000074
C48	C	1.036032	0.457501	0.500074
C49	C	0.760094	0.221246	0.000038
C50	C	1.260094	0.721246	0.500038
C51	C	0.767702	0.048550	0.000048
C52	C	1.267702	0.548550	0.500048
C53	C	1.068163	-0.042172	0.000068
C54	C	1.568163	0.457828	0.500068
C55	C	1.057921	-0.147411	0.000069
C56	C	1.557921	0.352589	0.500069
C57	C	1.039197	-0.340097	0.000053
C58	C	1.539197	0.159903	0.500053
C59	C	1.111836	-0.397635	0.000055
C60	C	1.611836	0.102365	0.500055
C61	C	1.101418	-0.504852	0.000046
C62	C	1.601418	-0.004852	0.500046
C63	C	1.049614	-0.232870	0.000062
C64	C	1.549614	0.267130	0.500062
C65	C	1.239806	0.124433	0.000067
C66	C	1.739806	0.624433	0.500067
C67	C	1.340048	0.126435	0.000067
C68	C	1.840048	0.626435	0.500067
C69	C	1.082874	0.304446	0.000046
C70	C	1.582874	0.804446	0.500046
C71	C	1.093116	0.409685	0.000039
C72	C	1.593116	0.909685	0.500039
N73	N	1.075496	0.131132	0.237498
N74	N	1.575496	0.631132	0.737498
N75	N	1.075548	0.131135	-0.237381
N76	N	1.575548	0.631135	0.262619
C77	C	1.019413	0.195480	0.710112
C78	C	1.519413	0.695480	1.210112
C79	C	1.131672	0.066791	0.710097
C80	C	1.631672	0.566791	1.210097
C81	C	1.131662	0.066788	0.605078
C82	C	1.631662	0.566788	1.105078
C83	C	1.075527	0.131133	0.552572
C84	C	1.575527	0.631133	1.052572
C85	C	1.019403	0.195481	0.605084
C86	C	1.519403	0.695481	1.105084
C87	C	1.187792	0.002448	0.552558
C88	C	1.687792	0.502448	1.052558
C89	C	1.187785	0.002443	0.447534
C90	C	1.687785	0.502443	0.947534
C91	C	1.131644	0.066784	0.395025
C92	C	1.631644	0.566784	0.895025
C93	C	1.075517	0.131134	0.447544
C94	C	1.575517	0.631134	0.947544
C95	C	1.019382	0.195479	0.395038
C96	C	1.519382	0.695479	0.895038
C97	C	0.963249	0.259825	0.447555
C98	C	1.463249	0.759825	0.947555
C99	C	0.963262	0.259822	0.552576
C100	C	1.463262	0.759822	1.052576
C101	C	1.131631	0.066787	0.290004
C102	C	1.631631	0.566787	0.790004
C103	C	1.019372	0.195480	0.290010
C104	C	1.519372	0.695480	0.790010
H105	H	0.500776	-0.113569	0.000110
H106	H	1.000776	0.386431	0.500110
H107	H	0.795338	0.292318	0.000027
H108	H	1.295338	0.792318	0.500027
H109	H	0.969191	-0.371358	0.000046
H110	H	1.469191	0.128642	0.500046
H111	H	1.181849	-0.366371	-0.000008
H112	H	1.681849	0.133629	0.499992
H113	H	0.671670	-0.110161	0.000065
H114	H	1.171670	0.389839	0.500065
N115	N	0.962018	0.261208	0.236395
N116	N	1.462018	0.761208	0.736395
N117	N	0.911907	0.318647	0.283299
N118	N	1.411907	0.818647	0.783299
H119	H	0.871399	0.365069	0.245436
H120	H	1.371399	0.865069	0.745436
N121	N	0.346715	-0.048127	0.000094
N122	N	0.846715	0.451873	0.500094
N123	N	0.262620	-0.049800	0.000108
N124	N	0.762620	0.450200	0.500108
H125	H	0.231381	-0.112767	0.000126
H126	H	0.731381	0.387233	0.500126
N127	N	0.962087	0.261216	0.763747
N128	N	1.462087	0.761216	1.263747
N129	N	0.970362	0.348843	0.752010
N130	N	1.470362	0.848843	1.252010
H131	H	0.929875	0.395271	0.789889
H132	H	1.429875	0.895271	1.289889
H133	H	0.809134	-0.021000	0.000054
H134	H	1.309134	0.479000	0.500054
H135	H	0.650251	0.375856	0.000020
H136	H	1.150251	0.875856	0.500020
H137	H	0.917548	0.312219	0.404792
H138	H	1.417548	0.812219	0.904792
N139	N	1.189026	0.001096	0.763742
N140	N	1.689026	0.501096	1.263742
N141	N	1.189041	0.001119	0.857511
N142	N	1.689041	0.501119	1.357511
H143	H	1.229555	-0.045276	0.895403
H144	H	1.729555	0.454724	1.395403
N145	N	1.188878	0.000975	0.236376
N146	N	1.688878	0.500975	0.736376
N147	N	1.238935	-0.056527	0.283268
N148	N	1.738935	0.443473	0.783268
H149	H	1.279332	-0.103047	0.245394
H150	H	1.779332	0.396953	0.745394
H151	H	0.479377	0.372424	0.000024
H152	H	0.979377	0.872424	0.500024
H153	H	0.917562	0.312211	0.595342
H154	H	1.417562	0.812211	1.095342
H155	H	1.233500	-0.049936	0.595312
H156	H	1.733500	0.450064	1.095312
N157	N	1.245142	-0.063285	0.393928
N158	N	1.745142	0.436715	0.893928
N159	N	1.236895	-0.150914	0.405678
N160	N	1.736895	0.349086	0.905678
H161	H	1.277413	-0.197333	0.367826
H162	H	1.777413	0.302667	0.867826
N163	N	0.331347	0.300948	0.000032
N164	N	0.831347	0.800948	0.500032
N165	N	0.247253	0.299257	0.000024
N166	N	0.747253	0.799257	0.500024
H167	H	0.210525	0.360864	0.000004
H168	H	0.710525	0.860864	0.500004
