data_functionalizedCrystal
_audit_creation_method	'MofGen! by Chris Wilmer'
_symmetry_space_group_name_H-M	'P1'
_symmetry_Int_Tables_number	1
_symmetry_cell_setting	triclinic
loop_
_symmetry_equiv_pos_as_xyz
  x,y,z
_cell_length_a	19.077399
_cell_length_b	19.076808
_cell_length_c	19.077271
_cell_angle_alpha	90.107018
_cell_angle_beta	85.510522
_cell_angle_gamma	94.711600
loop_
_atom_site_label
_atom_site_type_symbol
_atom_site_fract_x
_atom_site_fract_y
_atom_site_fract_z
Zn1	Zn	1.051878	-0.251954	0.345652
Zn2	Zn	1.385211	0.081379	0.678986
Zn3	Zn	1.718544	0.414713	1.012319
Zn4	Zn	1.052199	-0.364703	0.223411
Zn5	Zn	1.385532	-0.031370	0.556744
Zn6	Zn	1.718866	0.301964	0.890077
Zn7	Zn	0.938754	-0.251942	0.232506
Zn8	Zn	1.272087	0.081391	0.565840
Zn9	Zn	1.605421	0.414724	0.899173
Zn10	Zn	0.929224	-0.374547	0.345599
Zn11	Zn	1.262558	-0.041214	0.678933
Zn12	Zn	1.595891	0.292120	1.012266
O13	O	0.993014	-0.310787	0.286792
O14	O	1.326347	0.022547	0.620125
O15	O	1.659680	0.355880	0.953459
O16	O	1.150728	-0.262796	0.325652
O17	O	1.484061	0.070538	0.658986
O18	O	1.817395	0.403871	0.992319
O19	O	1.041273	-0.345621	0.126129
O20	O	1.374606	-0.012287	0.459462
O21	O	1.707940	0.321046	0.792796
O22	O	0.957614	-0.153448	0.251344
O23	O	1.290947	0.179886	0.584677
O24	O	1.624280	0.513219	0.918011
O25	O	1.150964	-0.345632	0.235842
O26	O	1.484298	-0.012298	0.569175
O27	O	1.817631	0.321035	0.902509
O28	O	1.040725	-0.153456	0.334472
O29	O	1.374058	0.179877	0.667805
O30	O	1.707392	0.513211	1.001138
O31	O	0.957925	-0.262776	0.132811
O32	O	1.291259	0.070558	0.466145
O33	O	1.624592	0.403891	0.799478
O34	O	0.838682	-0.272321	0.251293
O35	O	1.172015	0.061012	0.584626
O36	O	1.505349	0.394346	0.917959
O37	O	0.941372	-0.362409	0.444095
O38	O	1.274705	-0.029076	0.777428
O39	O	1.608039	0.304257	1.110761
O40	O	0.831681	-0.362398	0.334382
O41	O	1.165014	-0.029065	0.667715
O42	O	1.498347	0.304269	1.001048
O43	O	1.031485	-0.272341	0.444134
O44	O	1.364818	0.060993	0.777467
O45	O	1.698151	0.394326	1.110800
O46	O	1.032033	-0.464505	0.235791
O47	O	1.365366	-0.131172	0.569124
O48	O	1.698699	0.202161	0.902457
O49	O	0.941684	-0.471738	0.325562
O50	O	1.275017	-0.138404	0.658895
O51	O	1.608350	0.194929	0.992229
C52	C	0.809561	-0.318427	0.293819
C53	C	1.142895	0.014906	0.627152
C54	C	1.476228	0.348240	0.960485
C55	C	0.731078	-0.321713	0.296841
C56	C	1.064412	0.011620	0.630174
C57	C	1.397745	0.344953	0.963508
C58	C	0.697831	-0.276294	0.255077
C59	C	1.031164	0.057039	0.588411
C60	C	1.364497	0.390373	0.921744
C61	C	0.624087	-0.279388	0.257916
C62	C	0.957421	0.053945	0.591250
C63	C	1.290754	0.387279	0.924583
C64	C	0.583593	-0.327898	0.302523
C65	C	0.916926	0.005435	0.635857
C66	C	1.250259	0.338769	0.969190
C67	C	0.616845	-0.373322	0.344289
C68	C	0.950179	-0.039989	0.677622
C69	C	1.283512	0.293345	1.010955
C70	C	0.690587	-0.370231	0.341445
C71	C	1.023921	-0.036898	0.674779
C72	C	1.357254	0.296436	1.008112
C73	C	0.362659	-0.342182	0.315654
C74	C	0.695992	-0.008848	0.648988
C75	C	1.029325	0.324485	0.982321
C76	C	0.288912	-0.345268	0.318496
C77	C	0.622245	-0.011934	0.651829
C78	C	0.955578	0.321399	0.985163
C79	C	0.296159	-0.251334	0.232123
C80	C	0.629492	0.081999	0.565456
C81	C	0.962826	0.415333	0.898789
C82	C	0.369902	-0.248244	0.229286
C83	C	0.703235	0.085089	0.562620
C84	C	1.036569	0.418422	0.895953
C85	C	0.403148	-0.293671	0.271049
C86	C	0.736481	0.039662	0.604382
C87	C	1.069815	0.372996	0.937715
N88	N	0.508215	-0.331060	0.305428
N89	N	0.841548	0.002273	0.638761
N90	N	1.174882	0.335607	0.972095
N91	N	0.478524	-0.290512	0.268140
N92	N	0.811858	0.042822	0.601473
N93	N	1.145191	0.376155	0.934807
C94	C	0.985877	-0.493660	0.279698
C95	C	1.319211	-0.160327	0.613032
C96	C	1.652544	0.173006	0.946365
C97	C	0.982888	-0.571893	0.276684
C98	C	1.316222	-0.238559	0.610018
C99	C	1.649555	0.094774	0.943351
C100	C	1.024720	-0.608593	0.318587
C101	C	1.358053	-0.275260	0.651920
C102	C	1.691387	0.058073	0.985253
C103	C	1.021908	-0.682101	0.315756
C104	C	1.355242	-0.348768	0.649089
C105	C	1.688575	-0.015434	0.982423
C106	C	0.977268	-0.718907	0.271020
C107	C	1.310601	-0.385573	0.604353
C108	C	1.643935	-0.052240	0.937686
C109	C	0.935431	-0.682201	0.229116
C110	C	1.268765	-0.348868	0.562449
C111	C	1.602098	-0.015534	0.895783
C112	C	0.938240	-0.608695	0.231950
C113	C	1.271573	-0.275362	0.565284
C114	C	1.604906	0.057972	0.898617
C115	C	0.964229	-0.938753	0.257900
C116	C	1.297562	-0.605419	0.591234
C117	C	1.630896	-0.272086	0.924567
C118	C	0.961425	-1.012264	0.255067
C119	C	1.294759	-0.678931	0.588401
C120	C	1.628092	-0.345597	0.921734
C121	C	1.047902	-1.012159	0.341709
C122	C	1.381235	-0.678826	0.675042
C123	C	1.714568	-0.345492	1.008376
C124	C	1.050709	-0.938651	0.344536
C125	C	1.384043	-0.605318	0.677870
C126	C	1.717376	-0.271984	1.011203
C127	C	1.008870	-0.901952	0.302636
C128	C	1.342203	-0.568619	0.635969
C129	C	1.675537	-0.235285	0.969302
N130	N	0.974395	-0.794043	0.268124
N131	N	1.307728	-0.460710	0.601457
N132	N	1.641061	-0.127377	0.934790
N133	N	1.011740	-0.826817	0.305536
N134	N	1.345074	-0.493484	0.638869
N135	N	1.678407	-0.160150	0.972202
C136	C	1.177182	-0.303117	0.279738
C137	C	1.510516	0.030216	0.613072
C138	C	1.843849	0.363550	0.946405
C139	C	1.255664	-0.299849	0.276732
C140	C	1.588997	0.033485	0.610066
C141	C	1.922331	0.366818	0.943399
C142	C	0.985329	-0.318474	0.470365
C143	C	1.318663	0.014859	0.803698
C144	C	1.651996	0.348192	1.137032
C145	C	0.982055	-0.321750	0.548593
C146	C	1.315388	0.011583	0.881926
C147	C	1.648722	0.344916	1.215260
C148	C	1.000196	-0.127199	0.293928
C149	C	1.333530	0.206135	0.627262
C150	C	1.666863	0.539468	0.960595
C151	C	1.003257	-0.048964	0.296969
C152	C	1.336591	0.284369	0.630303
C153	C	1.669924	0.617702	0.963636
C154	C	1.027431	-0.276398	0.585366
C155	C	1.360764	0.056936	0.918699
C156	C	1.694098	0.390269	1.252033
C157	C	1.024346	-0.279474	0.658870
C158	C	1.357679	0.053860	0.992203
C159	C	1.691012	0.387193	1.325536
C160	C	0.975887	-0.327906	0.695599
C161	C	1.309221	0.005427	1.028932
C162	C	1.642554	0.338761	1.362266
C163	C	0.930506	-0.373261	0.658821
C164	C	1.263840	-0.039927	0.992154
C165	C	1.597173	0.293406	1.325488
C166	C	0.933589	-0.370181	0.585319
C167	C	1.266922	-0.036848	0.918652
C168	C	1.600255	0.296486	1.251985
C169	C	0.961634	-0.342142	0.915425
C170	C	1.294968	-0.008809	1.248758
C171	C	1.628301	0.324524	1.582092
C172	C	0.958557	-0.345220	0.988932
C173	C	1.291890	-0.011887	1.322265
C174	C	1.625224	0.321447	1.655599
C175	C	1.052396	-0.251432	0.988976
C176	C	1.385729	0.081902	1.322309
C177	C	1.719062	0.415235	1.655643
C178	C	1.055477	-0.248359	0.915472
C179	C	1.388810	0.084974	1.248805
C180	C	1.722143	0.418307	1.582139
C181	C	1.010093	-0.293711	0.878701
C182	C	1.343427	0.039622	1.212034
C183	C	1.676760	0.372955	1.545367
N184	N	0.972734	-0.331053	0.770731
N185	N	1.306067	0.002280	1.104065
N186	N	1.639401	0.335614	1.437398
N187	N	1.013244	-0.290561	0.803570
N188	N	1.346577	0.042773	1.136903
N189	N	1.679910	0.376106	1.470236
C190	C	1.000661	-0.303144	1.103933
C191	C	1.333995	0.030189	1.437266
C192	C	1.667328	0.363522	1.770600
C193	C	1.003933	-0.299868	1.025705
C194	C	1.337266	0.033466	1.359038
C195	C	1.670600	0.366799	1.692372
H196	H	0.255942	-0.384770	0.354825
H197	H	0.589276	-0.051437	0.688158
H198	H	0.922609	0.281897	1.021492
Cl199	Cl	0.582294	-0.222283	0.205415
Cl200	Cl	0.915627	0.111050	0.538748
Cl201	Cl	1.248960	0.444384	0.872081
Cl202	Cl	0.869584	-0.434145	0.704995
Cl203	Cl	1.202918	-0.100812	1.038328
Cl204	Cl	1.536251	0.232521	1.371662
H205	H	0.402868	-0.208747	0.192957
H206	H	0.736202	0.124586	0.526291
H207	H	1.069535	0.457920	0.859624
Cl208	Cl	0.404444	-0.399288	0.368158
Cl209	Cl	0.737777	-0.065954	0.701492
Cl210	Cl	1.071111	0.267379	1.034825
H211	H	0.904175	-0.578814	0.197830
H212	H	1.237508	-0.245481	0.531164
H213	H	1.570842	0.087853	0.864497
Cl214	Cl	1.081423	-0.222486	0.705093
Cl215	Cl	1.414756	0.110847	1.038426
Cl216	Cl	1.748090	0.444181	1.371760
Cl217	Cl	1.074490	-0.728237	0.368445
Cl218	Cl	1.407823	-0.394903	0.701779
Cl219	Cl	1.741157	-0.061570	1.035112
H220	H	0.730797	-0.236787	0.218759
H221	H	1.064130	0.096547	0.552092
H222	H	1.397463	0.429880	0.885426
H223	H	0.919094	-0.384661	1.018835
H224	H	1.252427	-0.051328	1.352168
H225	H	1.585761	0.282005	1.685502
Cl226	Cl	0.565937	-0.434317	0.400356
Cl227	Cl	0.899271	-0.100983	0.733689
Cl228	Cl	1.232604	0.232350	1.067022
H229	H	0.269082	-0.214351	0.198121
H230	H	0.602415	0.118982	0.531455
H231	H	0.935749	0.452316	0.864788
Cl232	Cl	0.876540	-0.427196	0.539090
Cl233	Cl	1.209873	-0.093863	0.872423
Cl234	Cl	1.543207	0.239471	1.205756
H235	H	0.924690	-0.379081	0.885494
H236	H	1.258023	-0.045748	1.218827
H237	H	1.591357	0.287586	1.552160
H238	H	1.089343	-0.214508	1.018923
H239	H	1.422677	0.118825	1.352257
H240	H	1.756010	0.452159	1.685590
Cl241	Cl	1.088357	-0.215511	0.539199
Cl242	Cl	1.421690	0.117822	0.872532
Cl243	Cl	1.755024	0.451155	1.205866
H244	H	0.717656	-0.407216	0.375454
H245	H	1.050989	-0.073883	0.708787
H246	H	1.384323	0.259450	1.042120
H247	H	1.061074	-0.578631	0.355013
H248	H	1.394408	-0.245297	0.688346
H249	H	1.727741	0.088036	1.021679
H250	H	1.087059	-0.908685	0.380965
H251	H	1.420392	-0.575352	0.714298
H252	H	1.753726	-0.242019	1.047631
Cl253	Cl	1.100493	-1.058299	0.394384
Cl254	Cl	1.433826	-0.724966	0.727717
Cl255	Cl	1.767160	-0.391632	1.061051
Cl256	Cl	1.116399	-0.187470	0.869304
Cl257	Cl	1.449732	0.145863	1.202637
Cl258	Cl	1.783066	0.479196	1.535970
Cl259	Cl	0.905304	-1.058533	0.198820
Cl260	Cl	1.238638	-0.725199	0.532153
Cl261	Cl	1.571971	-0.391866	0.865487
H262	H	0.930163	-0.908878	0.223782
H263	H	1.263496	-0.575545	0.557115
H264	H	1.596830	-0.242211	0.890448
H265	H	0.899081	-0.712174	0.192693
H266	H	1.232415	-0.378841	0.526027
H267	H	1.565748	-0.045508	0.859360
