data_functionalizedCrystal
_audit_creation_method	'MofGen! by Chris Wilmer'
_symmetry_space_group_name_H-M	'P1'
_symmetry_Int_Tables_number	1
_symmetry_cell_setting	triclinic
loop_
_symmetry_equiv_pos_as_xyz
  x,y,z
_cell_length_a	25.639242
_cell_length_b	21.295417
_cell_length_c	21.295412
_cell_angle_alpha	90.027661
_cell_angle_beta	90.026311
_cell_angle_gamma	90.022517
loop_
_atom_site_label
_atom_site_type_symbol
_atom_site_fract_x
_atom_site_fract_y
_atom_site_fract_z
Zn1	Zn	-0.799280	0.250711	-0.356092
Zn2	Zn	-0.465947	0.584045	-0.022759
Zn3	Zn	-0.132613	0.917378	0.310574
Zn4	Zn	-0.799215	0.355981	-0.250824
Zn5	Zn	-0.465882	0.689314	0.082509
Zn6	Zn	-0.132549	1.022647	0.415842
Zn7	Zn	-0.711852	0.250719	-0.250819
Zn8	Zn	-0.378518	0.584053	0.082514
Zn9	Zn	-0.045185	0.917386	0.415847
Zn10	Zn	-0.711818	0.355937	-0.356038
Zn11	Zn	-0.378485	0.689270	-0.022705
Zn12	Zn	-0.045151	1.022603	0.310629
O13	O	-0.755541	0.303337	-0.303444
O14	O	-0.422208	0.636670	0.029890
O15	O	-0.088875	0.970004	0.363223
O16	O	-0.872437	0.264690	-0.342153
O17	O	-0.539103	0.598024	-0.008820
O18	O	-0.205770	0.931357	0.324513
O19	O	-0.787614	0.342039	-0.162734
O20	O	-0.454280	0.675373	0.170599
O21	O	-0.120947	1.008706	0.503932
O22	O	-0.723490	0.162629	-0.264805
O23	O	-0.390157	0.495962	0.068528
O24	O	-0.056824	0.829296	0.401862
O25	O	-0.872389	0.342031	-0.264813
O26	O	-0.539056	0.675365	0.068520
O27	O	-0.205723	1.008698	0.401853
O28	O	-0.787724	0.162623	-0.342149
O29	O	-0.454390	0.495956	-0.008815
O30	O	-0.121057	0.829290	0.324518
O31	O	-0.723428	0.264704	-0.162731
O32	O	-0.390094	0.598038	0.170603
O33	O	-0.056761	0.931371	0.503936
O34	O	-0.638682	0.264662	-0.264752
O35	O	-0.305349	0.597995	0.068581
O36	O	0.027985	0.931329	0.401915
O37	O	-0.723433	0.341957	-0.444135
O38	O	-0.390100	0.675290	-0.110801
O39	O	-0.056766	1.008623	0.222532
O40	O	-0.638657	0.341965	-0.342056
O41	O	-0.305324	0.675298	-0.008722
O42	O	0.028009	1.008631	0.324611
O43	O	-0.787691	0.264648	-0.444175
O44	O	-0.454358	0.597981	-0.110841
O45	O	-0.121024	0.931315	0.222492
O46	O	-0.787581	0.444064	-0.264760
O47	O	-0.454247	0.777398	0.068573
O48	O	-0.120914	1.110731	0.401906
O49	O	-0.723370	0.444032	-0.342060
O50	O	-0.390037	0.777365	-0.008727
O51	O	-0.056704	1.110699	0.324606
C52	C	-0.619699	0.303310	-0.303398
C53	C	-0.286365	0.636643	0.029936
C54	C	0.046968	0.969976	0.363269
C55	C	-0.561585	0.303313	-0.303393
C56	C	-0.228251	0.636647	0.029940
C57	C	0.105082	0.969980	0.363274
C58	C	-0.310395	0.263016	-0.263245
C59	C	0.022938	0.596349	0.070088
C60	C	0.356271	0.929683	0.403421
C61	C	-0.365000	0.263011	-0.263239
C62	C	-0.031666	0.596344	0.070094
C63	C	0.301667	0.929677	0.403427
O64	O	-0.393240	0.228713	-0.229077
O65	O	-0.059907	0.562046	0.104256
O66	O	0.273427	0.895379	0.437589
N67	N	-0.392311	0.303320	-0.303419
N68	N	-0.058977	0.636654	0.029915
N69	N	0.274356	0.969987	0.363248
C70	C	-0.365015	0.343634	-0.343611
C71	C	-0.031681	0.676967	-0.010278
C72	C	0.301652	1.010300	0.323055
O73	O	-0.393259	0.377919	-0.377787
O74	O	-0.059926	0.711252	-0.044454
O75	O	0.273408	1.044586	0.288880
C76	C	-0.310411	0.343635	-0.343620
C77	C	0.022922	0.676969	-0.010287
C78	C	0.356255	1.010302	0.323047
C79	C	-0.283103	0.303328	-0.303433
C80	C	0.050230	0.636661	0.029900
C81	C	0.383563	0.969994	0.363233
C82	C	-0.283087	0.222711	-0.223062
C83	C	0.050246	0.556044	0.110271
C84	C	0.383580	0.889378	0.443604
C85	C	-0.228486	0.222718	-0.223068
C86	C	0.104847	0.556051	0.110266
C87	C	0.438180	0.889384	0.443599
C88	C	-0.201194	0.263029	-0.263256
C89	C	0.132139	0.596362	0.070077
C90	C	0.465472	0.929696	0.403411
C91	C	-0.228503	0.303334	-0.303439
C92	C	0.104831	0.636667	0.029895
C93	C	0.438164	0.970001	0.363228
C94	C	-0.283116	0.383945	-0.383815
C95	C	0.050217	0.717278	-0.050482
C96	C	0.383550	1.050612	0.282851
C97	C	-0.228509	0.383943	-0.383821
C98	C	0.104824	0.717277	-0.050488
C99	C	0.438157	1.050610	0.282846
C100	C	-0.201201	0.343635	-0.343634
C101	C	0.132132	0.676969	-0.010301
C102	C	0.465466	1.010302	0.323032
C103	C	-0.146610	0.343652	-0.343632
C104	C	0.186723	0.676986	-0.010299
C105	C	0.520057	1.010319	0.323034
N106	N	-0.119299	0.303343	-0.303453
N107	N	0.214035	0.636676	0.029880
N108	N	0.547368	0.970009	0.363214
C109	C	-0.146591	0.263031	-0.263265
C110	C	0.186742	0.596364	0.070069
C111	C	0.520076	0.929698	0.403402
C112	C	-0.479685	0.343626	-0.343591
C113	C	-0.146352	0.676959	-0.010257
C114	C	0.186981	1.010292	0.323076
C115	C	-0.534288	0.343627	-0.343579
C116	C	-0.200954	0.676961	-0.010246
C117	C	0.132379	1.010294	0.323088
C118	C	-0.534269	0.263003	-0.263208
C119	C	-0.200936	0.596337	0.070126
C120	C	0.132398	0.929670	0.403459
C121	C	-0.479666	0.263005	-0.263216
C122	C	-0.146332	0.596339	0.070117
C123	C	0.187001	0.929672	0.403450
C124	C	-0.452374	0.303316	-0.303411
C125	C	-0.119041	0.636649	0.029922
C126	C	0.214292	0.969983	0.363256
C127	C	-0.031926	0.263048	-0.263279
C128	C	0.301407	0.596382	0.070055
C129	C	0.634741	0.929715	0.403388
C130	C	0.022679	0.263060	-0.263286
C131	C	0.356013	0.596393	0.070048
C132	C	0.689346	0.929727	0.403381
C133	C	0.022656	0.343681	-0.343659
C134	C	0.355989	0.677015	-0.010326
C135	C	0.689323	1.010348	0.323007
C136	C	-0.031945	0.343672	-0.343650
C137	C	0.301389	0.677005	-0.010317
C138	C	0.634722	1.010339	0.323017
C139	C	-0.059234	0.303350	-0.303458
C140	C	0.274099	0.636684	0.029876
C141	C	0.607432	0.970017	0.363209
O142	O	-0.118335	0.377931	-0.377779
O143	O	0.214998	0.711264	-0.044445
O144	O	0.548332	1.044598	0.288888
O145	O	-0.118340	0.228745	-0.229101
O146	O	0.214993	0.562079	0.104233
O147	O	0.548327	0.895412	0.437566
C148	C	-0.755479	0.466889	-0.303419
C149	C	-0.422146	0.800222	0.029915
C150	C	-0.088812	1.133555	0.363248
C151	C	-0.755500	0.536857	-0.303429
C152	C	-0.422167	0.870190	0.029904
C153	C	-0.088834	1.203523	0.363237
C154	C	0.108086	0.303364	-0.303481
C155	C	0.441419	0.636697	0.029852
C156	C	0.774752	0.970030	0.363186
C157	C	0.049972	0.303372	-0.303474
C158	C	0.383305	0.636705	0.029859
C159	C	0.716638	0.970038	0.363193
C160	C	-0.789096	1.036311	-0.263318
C161	C	-0.455763	1.369644	0.070015
C162	C	-0.122430	1.702977	0.403348
C163	C	-0.789077	0.970568	-0.263301
C164	C	-0.455744	1.303901	0.070032
C165	C	-0.122410	1.637235	0.403365
C166	C	-0.755611	0.937696	-0.303508
C167	C	-0.422277	1.271029	0.029825
C168	C	-0.088944	1.604363	0.363159
C169	C	-0.722152	0.970572	-0.343723
C170	C	-0.388819	1.303906	-0.010390
C171	C	-0.055485	1.637239	0.322944
C172	C	-0.722169	1.036313	-0.343734
C173	C	-0.388835	1.369647	-0.010401
C174	C	-0.055502	1.702980	0.322932
N175	N	-0.751544	0.834444	-0.358587
N176	N	-0.418211	1.167777	-0.025253
N177	N	-0.084878	1.501110	0.308080
N178	N	-0.751531	0.771992	-0.358574
N179	N	-0.418198	1.105325	-0.025241
N180	N	-0.084865	1.438659	0.308092
C181	C	-0.755558	0.739621	-0.303475
C182	C	-0.422224	1.072955	0.029858
C183	C	-0.088891	1.406288	0.363191
N184	N	-0.759607	0.772061	-0.248388
N185	N	-0.426274	1.105395	0.084945
N186	N	-0.092941	1.438728	0.418279
N187	N	-0.759623	0.834519	-0.248401
N188	N	-0.426289	1.167852	0.084932
N189	N	-0.092956	1.501185	0.418265
C190	C	-0.755589	0.866411	-0.303500
C191	C	-0.422255	1.199744	0.029833
C192	C	-0.088922	1.533077	0.363167
C193	C	-0.788990	0.635468	-0.263241
C194	C	-0.455657	0.968801	0.070092
C195	C	-0.122324	1.302134	0.403426
C196	C	-0.788967	0.569724	-0.263223
C197	C	-0.455634	0.903057	0.070110
C198	C	-0.122301	1.236391	0.403444
C199	C	-0.722045	0.569730	-0.343650
C200	C	-0.388712	0.903063	-0.010317
C201	C	-0.055379	1.236396	0.323016
C202	C	-0.722066	0.635472	-0.343663
C203	C	-0.388732	0.968805	-0.010329
C204	C	-0.055399	1.302139	0.323004
C205	C	-0.755541	0.668337	-0.303459
C206	C	-0.422208	1.001671	0.029874
C207	C	-0.088874	1.335004	0.363208
C208	C	-0.755565	0.303296	-0.467634
C209	C	-0.422232	0.636630	-0.134301
C210	C	-0.088899	0.969963	0.199033
C211	C	-0.755576	0.303279	-0.537602
C212	C	-0.422242	0.636612	-0.204269
C213	C	-0.088909	0.969946	0.129065
C214	C	-0.755616	1.139147	-0.303490
C215	C	-0.422283	1.472480	0.029843
C216	C	-0.088950	1.805813	0.363176
C217	C	-0.755644	1.069179	-0.303531
C218	C	-0.422311	1.402512	0.029803
C219	C	-0.088977	1.735845	0.363136
C220	C	-0.789084	0.262925	-1.037082
C221	C	-0.455751	0.596258	-0.703749
C222	C	-0.122418	0.929591	-0.370415
C223	C	-0.789080	0.262940	-0.971340
C224	C	-0.455747	0.596273	-0.638006
C225	C	-0.122414	0.929607	-0.304673
C226	C	-0.755621	0.303196	-0.938442
C227	C	-0.422288	0.636529	-0.605108
C228	C	-0.088954	0.969863	-0.271775
C229	C	-0.722173	0.343451	-0.971292
C230	C	-0.388839	0.676784	-0.637958
C231	C	-0.055506	1.010118	-0.304625
C232	C	-0.722181	0.343439	-1.037033
C233	C	-0.388848	0.676773	-0.703700
C234	C	-0.055515	1.010106	-0.370366
N235	N	-0.709839	0.308035	-0.835204
N236	N	-0.376505	0.641368	-0.501870
N237	N	-0.043172	0.974701	-0.168537
N238	N	-0.709832	0.308042	-0.772752
N239	N	-0.376498	0.641376	-0.439419
N240	N	-0.043165	0.974709	-0.106086
C241	C	-0.755594	0.303235	-0.740367
C242	C	-0.422260	0.636569	-0.407034
C243	C	-0.088927	0.969902	-0.073700
N244	N	-0.801363	0.298408	-0.772792
N245	N	-0.468030	0.631741	-0.439459
N246	N	-0.134697	0.965075	-0.106125
N247	N	-0.801370	0.298397	-0.835249
N248	N	-0.468036	0.631731	-0.501916
N249	N	-0.134703	0.965064	-0.168583
C250	C	-0.755608	0.303214	-0.867156
C251	C	-0.422275	0.636547	-0.533823
C252	C	-0.088941	0.969880	-0.200490
C253	C	-0.789038	0.263002	-0.636239
C254	C	-0.455705	0.596336	-0.302906
C255	C	-0.122371	0.929669	0.030428
C256	C	-0.789035	0.263022	-0.570495
C257	C	-0.455701	0.596355	-0.237162
C258	C	-0.122368	0.929689	0.096171
C259	C	-0.722122	0.343530	-0.570449
C260	C	-0.388789	0.676863	-0.237115
C261	C	-0.055456	1.010196	0.096218
C262	C	-0.722130	0.343513	-0.636191
C263	C	-0.388797	0.676847	-0.302858
C264	C	-0.055464	1.010180	0.030475
C265	C	-0.755587	0.303246	-0.669083
C266	C	-0.422254	0.636580	-0.335749
C267	C	-0.088921	0.969913	-0.002416
C268	C	-0.755547	0.303332	-0.139892
C269	C	-0.422214	0.636665	0.193441
C270	C	-0.088881	0.969999	0.526775
C271	C	-0.755638	0.303172	-0.069924
C272	C	-0.422305	0.636505	0.263409
C273	C	-0.088972	0.969839	0.596742
H274	H	-0.206257	0.189895	-0.190344
H275	H	0.127076	0.523228	0.142990
H276	H	0.460410	0.856561	0.476323
H277	H	0.044911	0.230236	-0.230559
H278	H	0.378245	0.563569	0.102774
H279	H	0.711578	0.896902	0.436107
H280	H	-0.305303	0.189881	-0.190336
H281	H	0.028031	0.523214	0.142997
H282	H	0.361364	0.856548	0.476330
Cl283	Cl	-0.066276	0.394352	-0.394164
Cl284	Cl	0.267057	0.727685	-0.060831
Cl285	Cl	0.600391	1.061018	0.272502
H286	H	0.044887	0.376504	-0.376377
H287	H	0.378220	0.709838	-0.043044
H288	H	0.711554	1.043171	0.290289
Cl289	Cl	-0.831069	0.676787	-0.212696
Cl290	Cl	-0.497736	1.010120	0.120637
Cl291	Cl	-0.164403	1.343454	0.453970
H292	H	-0.816319	0.943802	-0.230555
H293	H	-0.482985	1.277135	0.102779
H294	H	-0.149652	1.610469	0.436112
Cl295	Cl	-0.680080	0.394112	-0.677481
Cl296	Cl	-0.346747	0.727445	-0.344148
Cl297	Cl	-0.013414	1.060778	-0.010814
Cl298	Cl	-0.831088	0.212424	-0.529207
Cl299	Cl	-0.497755	0.545758	-0.195874
Cl300	Cl	-0.164422	0.879091	0.137459
Cl301	Cl	-0.831178	1.077623	-0.212774
Cl302	Cl	-0.497844	1.410957	0.120559
Cl303	Cl	-0.164511	1.744290	0.453892
H304	H	-0.816280	0.230214	-0.663021
H305	H	-0.482947	0.563547	-0.329687
H306	H	-0.149614	0.896881	0.003646
H307	H	-0.694881	0.376309	-0.543664
H308	H	-0.361548	0.709643	-0.210331
H309	H	-0.028214	1.042976	0.123003
Cl310	Cl	-0.445341	0.212330	-0.212696
Cl311	Cl	-0.112008	0.545663	0.120638
Cl312	Cl	0.221326	0.878996	0.453971
Cl313	Cl	-0.831026	0.528403	-0.212665
Cl314	Cl	-0.497692	0.861737	0.120668
Cl315	Cl	-0.164359	1.195070	0.454001
H316	H	-0.054139	0.230211	-0.230553
H317	H	0.279195	0.563545	0.102780
H318	H	0.612528	0.896878	0.436113
H319	H	-0.556500	0.230178	-0.230485
H320	H	-0.223167	0.563512	0.102848
H321	H	0.110167	0.896845	0.436181
Cl322	Cl	-0.680112	1.077636	-0.394293
Cl323	Cl	-0.346779	1.410969	-0.060960
Cl324	Cl	-0.013446	1.744302	0.272373
Cl325	Cl	-0.680014	0.676794	-0.394225
Cl326	Cl	-0.346681	1.010128	-0.060892
Cl327	Cl	-0.013348	1.343461	0.272442
Cl328	Cl	-0.568611	0.394311	-0.394093
Cl329	Cl	-0.235278	0.727645	-0.060759
Cl330	Cl	0.098055	1.060978	0.272574
Cl331	Cl	-0.445382	0.394313	-0.394121
Cl332	Cl	-0.112049	0.727646	-0.060788
Cl333	Cl	0.221285	1.060979	0.272546
Cl334	Cl	-0.680079	0.929249	-0.394267
Cl335	Cl	-0.346746	1.262582	-0.060934
Cl336	Cl	-0.013412	1.595915	0.272400
H337	H	-0.305342	0.416768	-0.416539
H338	H	0.027992	0.750102	-0.083206
H339	H	0.361325	1.083435	0.250127
Cl340	Cl	-0.194204	0.434622	-0.434356
Cl341	Cl	0.139129	0.767955	-0.101023
Cl342	Cl	0.472463	1.101288	0.232311
H343	H	-0.694794	0.542966	-0.376385
H344	H	-0.361461	0.876299	-0.043051
H345	H	-0.028128	1.209632	0.290282
H346	H	-0.816330	0.230139	-1.063858
H347	H	-0.482997	0.563472	-0.730525
H348	H	-0.149663	0.896806	-0.397191
H349	H	-0.816316	0.230163	-0.944594
H350	H	-0.482983	0.563497	-0.611261
H351	H	-0.149649	0.896830	-0.277928
H352	H	-0.694931	0.376229	-0.944502
H353	H	-0.361597	0.709562	-0.611169
H354	H	-0.028264	1.042895	-0.277835
Cl355	Cl	-0.680131	0.394040	-1.078323
Cl356	Cl	-0.346798	0.727373	-0.744989
Cl357	Cl	-0.013465	1.060707	-0.411656
