data_functionalizedCrystal
_audit_creation_method	'MofGen! by Chris Wilmer'
_symmetry_space_group_name_H-M	'P1'
_symmetry_Int_Tables_number	1
_symmetry_cell_setting	triclinic
loop_
_symmetry_equiv_pos_as_xyz
  x,y,z
_cell_length_a	11.026607
_cell_length_b	14.750779
_cell_length_c	11.026607
_cell_angle_alpha	105.479780
_cell_angle_beta	108.586017
_cell_angle_gamma	74.519710
loop_
_atom_site_label
_atom_site_type_symbol
_atom_site_fract_x
_atom_site_fract_y
_atom_site_fract_z
O1	O	1.705111	0.079823	0.555228
O2	O	1.338531	0.079825	0.494465
O3	O	1.491440	0.079821	0.341555
O4	O	1.552202	0.079827	0.708137
O5	O	1.534667	-0.079831	0.298336
O6	O	1.381758	-0.079827	0.451245
O7	O	1.748338	-0.079828	0.512008
Zn8	Zn	1.571911	-0.105176	0.474765
Zn9	Zn	1.514958	0.105172	0.531708
O10	O	1.595429	-0.079824	0.664918
C11	C	1.312485	-0.000001	0.461645
C12	C	1.170471	-0.000000	0.428228
N13	N	1.610790	-0.248732	0.435903
C14	C	1.116821	0.000002	0.520499
C15	C	0.970042	0.000003	0.485963
C16	C	1.367494	-0.600544	0.679039
C17	C	1.394748	-0.701044	0.651818
C18	C	1.530199	-0.701010	0.516489
C19	C	1.502951	-0.600508	0.543693
C20	C	1.421599	-0.550283	0.624971
C21	C	1.557056	-0.550247	0.489625
C22	C	1.529815	-0.449754	0.516833
C23	C	1.448469	-0.399522	0.598110
C24	C	1.394358	-0.449790	0.652179
C25	C	1.638415	-0.600474	0.408355
C26	C	1.692520	-0.550213	0.354286
C27	C	1.665272	-0.449718	0.381487
C28	C	1.583926	-0.399486	0.462764
C29	C	1.719383	-0.399451	0.327418
C30	C	1.692142	-0.298957	0.354626
C31	C	1.556685	-0.298993	0.489972
C32	C	1.774384	-0.000001	0.544828
C33	C	1.916396	0.000005	0.578247
C34	C	1.501844	-0.000004	0.272286
C35	C	1.468426	-0.000000	0.130273
N36	N	1.476088	0.248729	0.570562
C37	C	1.560695	0.000001	0.076624
C38	C	1.526158	0.000004	-0.070153
C39	C	1.585025	0.000003	0.734187
C40	C	1.618441	0.000005	0.876202
H41	H	0.907307	0.000026	0.381400
H42	H	1.665260	-0.000006	0.139356
O43	O	1.419071	-0.291132	0.627448
H44	H	1.511533	-0.264609	0.675850
H45	H	1.328101	-0.408895	0.718352
H46	H	1.107731	0.000023	0.323672
O47	O	1.387641	-0.000001	-0.153230
H48	H	1.382253	-0.000008	-0.255480
O49	O	1.199906	-0.000005	0.659008
H50	H	1.161627	0.065062	0.724729
H51	H	1.490429	-0.258098	0.556145
O52	O	1.279747	-0.546358	0.766702
H53	H	1.246699	-0.598189	0.799736
O54	O	1.336378	-0.755249	0.710140
H55	H	1.415961	-0.801018	0.771440
O56	O	1.617937	-0.755182	0.428823
H57	H	1.627785	-0.833506	0.418979
H58	H	0.979125	0.000001	0.682816
H59	H	1.660596	-0.682302	0.386211
O60	O	1.780257	-0.604385	0.266621
H61	H	1.790105	-0.682709	0.256777
H62	H	1.785631	-0.440357	0.261251
H63	H	1.722992	0.000077	-0.061051
O64	O	1.750483	-0.244736	0.296305
H65	H	1.811615	-0.296543	0.235205
O66	O	1.329915	-0.000006	0.047193
H67	H	1.324527	-0.000012	-0.055058
