data_functionalizedCrystal
_audit_creation_method	'MofGen! by Chris Wilmer'
_symmetry_space_group_name_H-M	'P1'
_symmetry_Int_Tables_number	1
_symmetry_cell_setting	triclinic
loop_
_symmetry_equiv_pos_as_xyz
  x,y,z
_cell_length_a	23.532407
_cell_length_b	23.532355
_cell_length_c	15.455446
_cell_angle_alpha	87.346862
_cell_angle_beta	92.661642
_cell_angle_gamma	82.838088
loop_
_atom_site_label
_atom_site_type_symbol
_atom_site_fract_x
_atom_site_fract_y
_atom_site_fract_z
O1	O	0.071495	0.752778	0.072021
O2	O	0.081530	0.586910	0.072050
O3	O	-0.006421	0.674846	0.072019
O4	O	0.159445	0.664842	0.072052
O5	O	-0.011432	0.679847	-0.072242
O6	O	0.076518	0.591910	-0.072211
O7	O	0.066483	0.757779	-0.072240
Cu8	Cu	0.071043	0.675301	-0.085397
Cu9	Cu	0.076970	0.669388	0.085208
O10	O	0.154434	0.669842	-0.072209
C11	C	0.078773	0.568193	-0.000077
C12	C	0.078020	0.504974	-0.000067
C13	C	-0.030143	0.677092	-0.000114
C14	C	-0.093360	0.676326	-0.000120
C15	C	0.070549	0.115688	-0.078741
C16	C	0.069831	0.056288	-0.078744
O17	O	0.067117	0.027888	-0.145621
N18	N	0.072207	0.023854	-0.000108
C19	C	0.075295	0.050823	0.078537
O20	O	0.077249	0.017781	0.145423
C21	C	0.076008	0.110222	0.078540
C22	C	0.073638	0.142652	-0.000102
C23	C	0.068178	0.148118	-0.157376
C24	C	0.068896	0.207513	-0.157372
C25	C	0.071986	0.234478	-0.078733
C26	C	0.074357	0.202047	-0.000098
C27	C	0.079092	0.137190	0.157184
C28	C	0.079805	0.196593	0.157179
C29	C	0.077435	0.229024	0.078538
C30	C	0.078165	0.288407	0.078545
N31	N	0.075789	0.320841	-0.000091
C32	C	0.072699	0.293877	-0.078730
C33	C	0.073795	-0.073918	0.078526
C34	C	0.073086	-0.133317	0.078524
C35	C	0.067621	-0.127847	-0.078757
C36	C	0.068335	-0.068448	-0.078755
C37	C	0.071419	-0.041484	-0.000111
C38	C	0.074209	0.418610	-0.078716
C39	C	0.074930	0.478010	-0.078705
C40	C	0.080392	0.472535	0.078575
C41	C	0.079674	0.413140	0.078565
C42	C	0.076580	0.386180	-0.000088
O43	O	0.080875	0.316847	0.145387
O44	O	0.070738	0.326926	-0.145605
C45	C	-0.492470	0.723560	-0.000081
C46	C	-0.551870	0.722848	-0.000074
O47	O	-0.588622	0.766634	-0.000050
N48	N	-0.574486	0.670570	-0.000066
C49	C	-0.537699	0.619000	-0.000055
O50	O	-0.562390	0.574468	-0.000047
C51	C	-0.478300	0.619712	-0.000056
C52	C	-0.455688	0.671994	-0.000073
C53	C	-0.469857	0.775837	-0.000097
C54	C	-0.410462	0.776549	-0.000106
C55	C	-0.373679	0.724983	-0.000098
C56	C	-0.396292	0.672705	-0.000081
C57	C	-0.441513	0.568143	-0.000039
C58	C	-0.382111	0.568859	-0.000039
C59	C	-0.359499	0.621141	-0.000056
C60	C	-0.300113	0.621851	-0.000082
N61	N	-0.277497	0.674129	-0.000090
C62	C	-0.314280	0.725695	-0.000098
C63	C	-0.662441	0.617509	-0.000053
C64	C	-0.721839	0.616796	-0.000058
C65	C	-0.736006	0.720644	-0.000076
C66	C	-0.676607	0.721356	-0.000076
C67	C	-0.639825	0.669787	-0.000061
C68	C	-0.189544	0.727185	-0.000116
C69	C	-0.130143	0.727892	-0.000128
C70	C	-0.115980	0.624044	-0.000106
C71	C	-0.175377	0.623337	-0.000099
C72	C	-0.212158	0.674912	-0.000101
O73	O	-0.263327	0.578088	-0.000103
O74	O	-0.289580	0.770219	-0.000095
C75	C	0.178156	0.667597	-0.000074
C76	C	0.241373	0.668362	-0.000062
C77	C	0.069240	0.776495	-0.000111
C78	C	0.069994	0.839714	-0.000115
N79	N	0.066875	0.679465	-0.205392
C80	C	0.043784	0.702594	-0.749394
C81	C	0.046944	0.699432	-0.658587
C82	C	0.087451	0.658902	-0.613185
C83	C	0.124805	0.621535	-0.658595
C84	C	0.121648	0.624700	-0.749401
C85	C	0.101071	0.645263	-0.341607
C86	C	0.104225	0.642100	-0.250795
C87	C	0.026363	0.719998	-0.250794
C88	C	0.023207	0.723157	-0.341601
C89	C	0.060563	0.685792	-0.387003
N90	N	0.090681	0.655668	-0.520366
N91	N	0.057336	0.689029	-0.479821
N92	N	0.081134	0.665229	0.205202
H93	H	0.073002	0.504412	-0.142748
C94	C	0.082288	0.377465	0.165074
N95	N	0.084252	0.350599	0.230234
C96	C	0.077196	-0.044265	0.165046
N97	N	0.079757	-0.021932	0.230214
H98	H	0.010796	0.735595	-0.786355
C99	C	0.065722	-0.032779	-0.165266
N100	N	0.063751	-0.005916	-0.230429
H101	H	-0.086021	0.582061	-0.000103
H102	H	-0.632495	0.575512	-0.000048
C103	C	-0.341653	0.512127	-0.000025
N104	N	-0.311182	0.469396	-0.000018
C105	C	0.005853	0.740534	-0.608647
N106	N	-0.025100	0.771494	-0.571033
H107	H	-0.009777	0.756159	-0.378565
H108	H	-0.219485	0.769182	-0.000115
C109	C	-0.200251	0.565825	-0.000086
N110	N	-0.218982	0.522506	-0.000066
C111	C	-0.746706	0.559283	-0.000050
N112	N	-0.765433	0.515961	-0.000038
C113	C	-0.014728	0.761094	-0.200844
N114	N	-0.045680	0.792048	-0.163222
H115	H	0.137212	0.609093	-0.213833
C116	C	0.142159	0.604154	-0.391538
N117	N	0.173107	0.573188	-0.429148
C118	C	0.169364	0.576951	-0.608650
N119	N	0.202925	0.543368	-0.571032
C120	C	-0.510311	0.832569	-0.000115
N121	N	-0.540777	0.875304	-0.000138
C122	C	0.070812	0.388961	-0.165238
N123	N	0.068258	0.366630	-0.230407
H124	H	-0.111736	0.770468	-0.000145
H125	H	0.065105	-0.149812	-0.142790
H126	H	0.152063	0.594274	-0.786367
H127	H	-0.392057	0.819121	-0.000116
C128	C	-0.776479	0.777368	-0.000075
N129	N	-0.806964	0.820089	-0.000074
H130	H	0.066963	0.233914	-0.221410
H131	H	0.082317	0.218544	0.221223
H132	H	0.075025	-0.159718	0.142562
C133	C	0.064787	0.118466	-0.243892
N134	N	0.062240	0.096135	-0.309062
H135	H	0.081022	0.110795	0.221222
C136	C	-0.651740	0.778869	-0.000088
N137	N	-0.633012	0.822190	-0.000093
C138	C	-0.466373	0.510628	-0.000014
N139	N	-0.485095	0.467304	0.000008
C140	C	0.083786	0.502208	0.165074
N141	N	0.086338	0.524561	0.230225
