data_functionalizedCrystal
_audit_creation_method	'MofGen! by Chris Wilmer'
_symmetry_space_group_name_H-M	'P1'
_symmetry_Int_Tables_number	1
_symmetry_cell_setting	triclinic
loop_
_symmetry_equiv_pos_as_xyz
  x,y,z
_cell_length_a	14.971486
_cell_length_b	10.489741
_cell_length_c	13.448316
_cell_angle_alpha	89.993703
_cell_angle_beta	89.998199
_cell_angle_gamma	84.076651
loop_
_atom_site_label
_atom_site_type_symbol
_atom_site_fract_x
_atom_site_fract_y
_atom_site_fract_z
O1	O	1.187893	0.166222	-0.082577
O2	O	0.927607	0.186128	-0.082604
O3	O	1.063673	-0.009491	-0.082584
O4	O	1.051827	0.361841	-0.082597
O5	O	1.063655	-0.009503	0.082800
O6	O	0.927589	0.186116	0.082780
O7	O	1.187876	0.166210	0.082807
Cu8	Cu	1.057731	0.176162	0.097894
Cu9	Cu	1.057752	0.176176	-0.097691
O10	O	1.051810	0.361829	0.082787
C11	C	0.894268	0.185232	0.000085
C12	C	0.794956	0.182564	0.000074
C13	C	0.738385	0.297485	0.000072
C14	C	0.645071	0.294971	0.000087
C15	C	0.608330	0.177534	0.000097
C16	C	0.664909	0.062604	0.000103
C17	C	0.758221	0.065120	0.000095
C18	C	0.470416	0.057369	0.000117
C19	C	0.377098	0.054853	0.000123
C20	C	0.357267	0.287220	0.000108
C21	C	0.450579	0.289736	0.000101
C22	C	0.507151	0.174805	0.000104
C23	C	1.062769	-0.057019	0.000107
C24	C	1.060093	-0.198617	0.000105
C25	C	0.973518	-0.265755	0.000089
C26	C	1.014406	-0.358357	0.081636
C27	C	1.014444	-0.358320	-0.081419
C28	C	1.101017	-0.289354	0.081720
C29	C	1.101043	-0.289307	-0.081409
C30	C	1.141994	-0.381882	0.000158
C31	C	1.221215	0.167106	0.000116
C32	C	1.320527	0.169774	0.000120
C33	C	1.052713	0.409357	0.000094
C34	C	1.055390	0.550955	0.000089
N35	N	1.057723	0.176151	0.235459
N36	N	1.057766	0.176177	-0.235255
C37	C	1.117992	0.089567	0.287508
C38	C	1.117998	0.089566	0.391611
C39	C	1.057738	0.176156	0.443663
C40	C	0.997462	0.262745	0.391607
C41	C	0.997453	0.262739	0.287505
C42	C	0.997487	0.262753	0.608587
C43	C	0.997497	0.262761	0.712695
C44	C	1.118032	0.089580	0.712693
C45	C	1.118023	0.089574	0.608591
C46	C	1.057748	0.176165	0.556542
H47	H	0.516476	-0.036219	0.000121
C48	C	1.150494	-0.247919	-0.174535
H49	H	1.119656	-0.271257	-0.232424
H50	H	1.210006	-0.289281	-0.175117
H51	H	1.152308	-0.157667	-0.173530
C52	C	0.582846	0.421384	0.000081
H53	H	0.618092	0.491684	0.000061
H54	H	0.546036	0.425236	0.057757
H55	H	0.546030	0.425232	-0.057596
H56	H	0.948402	0.333261	0.566212
C57	C	0.624501	-0.066576	0.000113
H58	H	0.671560	-0.134659	0.000122
H59	H	0.588511	-0.072385	-0.057557
H60	H	0.588514	-0.072391	0.057796
C61	C	0.931149	0.357957	0.448856
H62	H	0.895240	0.409504	0.402945
H63	H	0.963639	0.411149	0.489470
H64	H	0.893635	0.311941	0.489461
C65	C	0.931161	0.357986	0.230251
H66	H	0.895279	0.409566	0.276159
H67	H	0.893632	0.312013	0.189652
H68	H	0.963678	0.411161	0.189631
H69	H	0.804281	-0.028461	0.000097
H70	H	0.977809	-0.388855	-0.150368
H71	H	0.311201	0.380801	0.000110
H72	H	0.768291	0.393115	0.000063
H73	H	1.167067	0.019060	0.245134
H74	H	0.902336	-0.215280	0.000164
C75	C	1.184302	-0.005665	0.448861
H76	H	1.220199	-0.057222	0.402951
H77	H	1.151801	-0.058845	0.489485
H78	H	1.221830	0.040328	0.489456
C79	C	0.964918	-0.399698	0.174759
H80	H	1.004419	-0.456851	0.213155
H81	H	0.914382	-0.441466	0.155154
H82	H	0.945431	-0.326271	0.213428
C83	C	0.336684	-0.074323	0.000140
H84	H	0.383739	-0.142411	0.000155
H85	H	0.300694	-0.080134	-0.057530
H86	H	0.300696	-0.080125	0.057823
H87	H	0.480489	0.385363	0.000083
H88	H	1.167109	0.019075	0.755077
C89	C	1.150443	-0.248291	0.174964
H90	H	1.151813	-0.157948	0.174419
H91	H	1.210112	-0.289097	0.175210
H92	H	1.119877	-0.272475	0.232793
C93	C	0.931156	0.357927	0.769951
H94	H	0.895232	0.409462	0.724045
H95	H	0.963618	0.411137	0.810581
H96	H	0.893659	0.311863	0.810541
H97	H	1.167095	0.019072	0.566211
C98	C	1.238234	-0.449778	0.000228
H99	H	1.268831	-0.426183	0.058208
H100	H	1.269226	-0.425093	-0.057144
H101	H	1.236014	-0.539958	-0.000315
