data_functionalizedCrystal
_audit_creation_method	'MofGen! by Chris Wilmer'
_symmetry_space_group_name_H-M	'P1'
_symmetry_Int_Tables_number	1
_symmetry_cell_setting	triclinic
loop_
_symmetry_equiv_pos_as_xyz
  x,y,z
_cell_length_a	23.532355
_cell_length_b	23.532407
_cell_length_c	15.186229
_cell_angle_alpha	89.991614
_cell_angle_beta	90.002469
_cell_angle_gamma	82.838088
loop_
_atom_site_label
_atom_site_type_symbol
_atom_site_fract_x
_atom_site_fract_y
_atom_site_fract_z
O1	O	0.755278	0.068993	-0.073118
O2	O	0.589410	0.079027	-0.073147
O3	O	0.677346	-0.008922	-0.073115
O4	O	0.667342	0.156943	-0.073149
O5	O	0.677340	-0.008923	0.073342
O6	O	0.589404	0.079026	0.073310
O7	O	0.755272	0.068992	0.073340
Zn8	Zn	0.672337	0.074009	0.096578
Zn9	Zn	0.672345	0.074011	-0.096386
O10	O	0.667336	0.156942	0.073308
C11	C	0.568191	0.078776	0.000078
C12	C	0.504972	0.078022	0.000068
C13	C	0.112955	0.073283	0.079939
C14	C	0.053556	0.072566	0.079943
O15	O	0.022834	0.072175	0.147838
N16	N	0.023850	0.072211	0.000109
C17	C	0.053548	0.072567	-0.079733
O18	O	0.022828	0.072199	-0.147637
C19	C	0.112947	0.073281	-0.079735
C20	C	0.142649	0.073641	0.000103
C21	C	0.142657	0.073643	0.159772
C22	C	0.202052	0.074362	0.159768
C23	C	0.231745	0.074720	0.079932
C24	C	0.202044	0.074360	0.000099
C25	C	0.142645	0.073633	-0.159577
C26	C	0.202048	0.074346	-0.159573
C27	C	0.231749	0.074707	-0.079734
C28	C	0.291133	0.075437	-0.079741
N29	N	0.320838	0.075792	0.000093
C30	C	0.291144	0.075434	0.079929
C31	C	-0.071193	0.071068	-0.079721
C32	C	-0.130591	0.070359	-0.079720
C33	C	-0.130580	0.070356	0.079957
C34	C	-0.071181	0.071070	0.079954
C35	C	-0.041488	0.071423	0.000112
C36	C	0.415878	0.076943	0.079915
C37	C	0.475279	0.077664	0.079904
C38	C	0.475262	0.077663	-0.079772
C39	C	0.415867	0.076945	-0.079761
C40	C	0.386177	0.076583	0.000089
O41	O	0.321892	0.075826	-0.147601
O42	O	0.321873	0.075795	0.147822
C43	C	0.677088	-0.030139	0.000116
C44	C	0.676322	-0.093356	0.000122
C45	C	0.723557	-0.492468	0.000082
C46	C	0.722845	-0.551868	0.000075
O47	O	0.766632	-0.588620	0.000051
N48	N	0.670568	-0.574484	0.000067
C49	C	0.618998	-0.537697	0.000056
O50	O	0.574467	-0.562388	0.000047
C51	C	0.619710	-0.478298	0.000057
C52	C	0.671991	-0.455685	0.000074
C53	C	0.775834	-0.469854	0.000099
C54	C	0.776545	-0.410458	0.000107
C55	C	0.724979	-0.373676	0.000099
C56	C	0.672703	-0.396289	0.000083
C57	C	0.568141	-0.441512	0.000040
C58	C	0.568858	-0.382110	0.000039
C59	C	0.621139	-0.359497	0.000057
C60	C	0.621848	-0.300110	0.000083
N61	N	0.674126	-0.277494	0.000092
C62	C	0.725691	-0.314277	0.000100
C63	C	0.617507	-0.662439	0.000053
C64	C	0.616794	-0.721837	0.000059
C65	C	0.720642	-0.736004	0.000077
C66	C	0.721354	-0.676605	0.000077
C67	C	0.669784	-0.639823	0.000062
C68	C	0.727181	-0.189540	0.000118
C69	C	0.727888	-0.130138	0.000130
C70	C	0.624041	-0.115977	0.000108
C71	C	0.623334	-0.175373	0.000100
C72	C	0.674909	-0.212154	0.000103
O73	O	0.578084	-0.263323	0.000104
O74	O	0.770216	-0.289577	0.000097
C75	C	0.776492	0.069244	0.000113
C76	C	0.839710	0.069998	0.000117
C77	C	0.667594	0.178158	0.000075
C78	C	0.668360	0.241375	0.000063
N79	N	0.672336	0.074008	0.228271
N80	N	0.672351	0.074008	-0.228078
C81	C	0.711287	0.035076	0.454008
C82	C	0.711289	0.035075	0.546197
C83	C	0.633395	0.112941	0.546178
C84	C	0.633391	0.112939	0.453990
C85	C	0.672340	0.074007	0.407907
C86	C	0.672346	0.074008	0.592285
C87	C	0.672348	0.074007	0.692241
C88	C	0.672338	0.074008	0.307945
H89	H	0.226221	0.074634	-0.224591
C90	C	0.832562	-0.510310	0.000114
C91	C	0.846371	-0.553088	-0.075930
C92	C	0.903103	-0.593539	-0.075906
C93	C	0.946026	-0.591213	0.000162
C94	C	0.932218	-0.548433	0.076211
C95	C	0.875485	-0.507981	0.076187
H96	H	0.814596	-0.554812	-0.132244
H97	H	0.913325	-0.625208	-0.132203
H98	H	0.988022	-0.621157	0.000180
H99	H	0.963992	-0.546709	0.132526
H100	H	0.865264	-0.476313	0.132484
C101	C	0.590557	0.155768	0.596870
C102	C	0.590589	0.155806	0.698273
C103	C	0.547751	0.198637	0.748962
C104	C	0.504880	0.241429	0.698247
C105	C	0.504846	0.241393	0.596838
C106	C	0.547685	0.198562	0.546150
H107	H	0.622326	0.124127	0.735820
H108	H	0.547776	0.198663	0.824032
H109	H	0.473169	0.273135	0.735770
H110	H	0.473109	0.273072	0.559291
H111	H	0.547659	0.198536	0.471080
H112	H	0.118472	0.073339	-0.224590
C113	C	-0.163259	0.069969	-0.167544
C114	C	-0.197340	0.020015	-0.189497
C115	C	-0.230005	0.019621	-0.277325
C116	C	-0.228589	0.069180	-0.343200
C117	C	-0.194507	0.119138	-0.321248
C118	C	-0.161842	0.119532	-0.233420
H119	H	-0.198390	-0.016675	-0.140731
H120	H	-0.255235	-0.017361	-0.293575
H121	H	-0.252769	0.068889	-0.408215
H122	H	-0.193457	0.155828	-0.370014
H123	H	-0.136612	0.156514	-0.217171
C124	C	0.507948	0.078054	0.167733
C125	C	0.493027	0.127411	0.233595
C126	C	0.525694	0.127798	0.321422
C127	C	0.573281	0.078828	0.343387
C128	C	0.588205	0.029467	0.277525
C129	C	0.555538	0.029080	0.189697
H130	H	0.457798	0.163665	0.217336
H131	H	0.514646	0.164338	0.370178
H132	H	0.597463	0.079115	0.408402
H133	H	0.623434	-0.006786	0.293783
H134	H	0.566586	-0.007460	0.140942
C135	C	0.383224	0.076550	0.167749
C136	C	0.384648	0.126113	0.233592
C137	C	0.351993	0.125725	0.321425
C138	C	0.317914	0.075773	0.343415
C139	C	0.316489	0.026206	0.277571
C140	C	0.349144	0.026594	0.189738
H141	H	0.409876	0.163094	0.217315
H142	H	0.353048	0.162419	0.370167
H143	H	0.293741	0.075486	0.408435
H144	H	0.291261	-0.010775	0.293848
H145	H	0.348089	-0.010099	0.140996
H146	H	0.575510	-0.632494	0.000049
C147	C	-0.038513	0.071462	0.167778
C148	C	0.009071	0.022491	0.189754
C149	C	0.041736	0.022881	0.277582
C150	C	0.026817	0.072244	0.343435
C151	C	-0.020770	0.121219	0.321461
C152	C	-0.053434	0.120828	0.233632
H153	H	0.020118	-0.014054	0.141004
H154	H	0.076962	-0.013373	0.293849
H155	H	0.050997	0.072533	0.408451
H156	H	-0.031816	0.157763	0.370210
H157	H	-0.088661	0.157083	0.217366
H158	H	0.226230	0.074652	0.224781
C159	C	0.754126	-0.007751	0.403316
C160	C	0.732117	-0.051190	0.339951
C161	C	0.774955	-0.094021	0.289263
C162	C	0.839802	-0.093412	0.301939
C163	C	0.861815	-0.049972	0.365306
C164	C	0.818976	-0.007141	0.415995
H165	H	0.684110	-0.051642	0.330565
H166	H	0.758660	-0.126178	0.242354
H167	H	0.871514	-0.125118	0.264416
H168	H	0.909821	-0.049520	0.374692
H169	H	0.835271	0.025016	0.462904
C170	C	0.785400	-0.105266	0.000145
C171	C	0.828137	-0.119293	0.076200
C172	C	0.885648	-0.094423	0.076212
C173	C	0.900422	-0.055526	0.000168
C174	C	0.857684	-0.041497	-0.075893
C175	C	0.800174	-0.066367	-0.075904
H176	H	0.817201	-0.148088	0.132497
H177	H	0.917285	-0.104808	0.132517
H178	H	0.942995	-0.037116	0.000177
H179	H	0.868620	-0.012701	-0.132189
H180	H	0.768537	-0.055981	-0.132210
H181	H	0.118487	0.073350	0.224787
H182	H	0.743002	0.003373	0.583730
H183	H	-0.154767	0.070064	0.144964
H184	H	0.525569	-0.459912	0.000020
C185	C	0.383189	0.076550	-0.167581
C186	C	0.398112	0.027186	-0.233429
C187	C	0.365439	0.026783	-0.321248
C188	C	0.317844	0.075744	-0.343220
C189	C	0.302919	0.125112	-0.277370
C190	C	0.335592	0.125515	-0.189550
H191	H	0.433346	-0.009062	-0.217165
H192	H	0.376487	-0.009763	-0.369994
H193	H	0.293657	0.075446	-0.408229
H194	H	0.267684	0.161360	-0.293633
H195	H	0.324543	0.162061	-0.140804
C196	C	0.559284	-0.746706	0.000053
C197	C	0.544506	-0.785599	0.076099
C198	C	0.486993	-0.810465	0.076088
C199	C	0.444258	-0.796438	0.000031
C200	C	0.459035	-0.757542	-0.076021
C201	C	0.516548	-0.732677	-0.076010
H202	H	0.576141	-0.795985	0.132406
H203	H	0.476054	-0.839258	0.132387
H204	H	0.401683	-0.814845	0.000022
H205	H	0.427399	-0.747157	-0.132328
H206	H	0.527486	-0.703884	-0.132309
H207	H	0.601674	0.144641	0.416453
C208	C	0.783913	-0.229993	0.000127
C209	C	0.797704	-0.272785	0.076179
C210	C	0.854435	-0.313239	0.076194
C211	C	0.897375	-0.310900	0.000158
C212	C	0.883585	-0.268106	-0.075899
C213	C	0.826854	-0.227653	-0.075915
H214	H	0.765916	-0.274518	0.132470
H215	H	0.864642	-0.344917	0.132497
H216	H	0.939371	-0.340846	0.000170
H217	H	0.915373	-0.266373	-0.132190
H218	H	0.816647	-0.195974	-0.132218
C219	C	-0.038535	0.071467	-0.167555
C220	C	-0.039961	0.021912	-0.233412
C221	C	-0.007307	0.022310	-0.321245
C222	C	0.026774	0.072263	-0.343220
C223	C	0.028201	0.121822	-0.277361
C224	C	-0.004453	0.121424	-0.189528
H225	H	-0.065191	-0.015070	-0.217146
H226	H	-0.008364	-0.014377	-0.369998
H227	H	0.050946	0.072557	-0.408239
H228	H	0.053431	0.158803	-0.293627
H229	H	-0.003396	0.158111	-0.140775
H230	H	0.499449	0.077957	-0.144772
C231	C	0.777366	-0.776471	0.000078
C232	C	0.791152	-0.819268	0.076125
C233	C	0.847873	-0.859736	0.076128
C234	C	0.890809	-0.857408	0.000083
C235	C	0.877024	-0.814610	-0.075970
C236	C	0.820303	-0.774141	-0.075973
H237	H	0.759368	-0.820993	0.132424
H238	H	0.858077	-0.891418	0.132427
H239	H	0.932797	-0.887365	0.000084
H240	H	0.908809	-0.812885	-0.132269
H241	H	0.810099	-0.742459	-0.132272
H242	H	0.819117	-0.392053	0.000118
H243	H	0.526863	-0.352164	0.000026
C244	C	0.565828	-0.200255	0.000086
C245	C	0.523083	-0.186262	0.076127
C246	C	0.465577	-0.211141	0.076101
C247	C	0.450816	-0.250014	0.000034
C248	C	0.493562	-0.264010	-0.076013
C249	C	0.551068	-0.239130	-0.075987
H250	H	0.534008	-0.157484	0.132441
H251	H	0.433933	-0.200780	0.132396
H252	H	0.408247	-0.268431	0.000014
H253	H	0.482637	-0.292787	-0.132327
H254	H	0.582712	-0.249491	-0.132282
H255	H	0.763925	-0.658198	0.000091
H256	H	0.582057	-0.086018	0.000104
