data_functionalizedCrystal
_audit_creation_method	'MofGen! by Chris Wilmer'
_symmetry_space_group_name_H-M	'P1'
_symmetry_Int_Tables_number	1
_symmetry_cell_setting	triclinic
loop_
_symmetry_equiv_pos_as_xyz
  x,y,z
_cell_length_a	19.188930
_cell_length_b	14.853567
_cell_length_c	13.330367
_cell_angle_alpha	90.004582
_cell_angle_beta	89.990231
_cell_angle_gamma	96.610144
loop_
_atom_site_label
_atom_site_type_symbol
_atom_site_fract_x
_atom_site_fract_y
_atom_site_fract_z
O1	O	0.091155	-1.195862	-0.083366
O2	O	0.591155	-0.695862	0.416634
O3	O	0.102014	-0.933342	-0.083385
O4	O	0.602014	-0.433342	0.416615
O5	O	-0.005046	-1.072178	-0.083355
O6	O	0.494954	-0.572178	0.416645
O7	O	0.198215	-1.057026	-0.083395
O8	O	0.698215	-0.557026	0.416605
O9	O	-0.005048	-1.072158	0.083492
O10	O	0.494952	-0.572158	0.583492
O11	O	0.102011	-0.933322	0.083462
O12	O	0.602011	-0.433322	0.583462
O13	O	0.091153	-1.195842	0.083481
O14	O	0.591153	-0.695842	0.583481
Cu15	Cu	0.096582	-1.064580	0.098706
Cu16	Cu	0.596582	-0.564580	0.598706
Cu17	Cu	0.096585	-1.064604	-0.098610
Cu18	Cu	0.596585	-0.564604	0.401390
O19	O	0.198212	-1.057006	0.083452
O20	O	0.698212	-0.557006	0.583452
C21	C	0.101521	-0.899746	0.000037
C22	C	0.601521	-0.399746	0.500037
C23	C	0.100046	-0.799671	0.000031
C24	C	0.600046	-0.299671	0.500031
C25	C	-0.031060	-1.071677	0.000071
C26	C	0.468940	-0.571677	0.500071
C27	C	-0.108569	-1.070204	0.000080
C28	C	0.391431	-0.570204	0.500080
N29	N	0.096579	-1.064570	0.237488
N30	N	0.596579	-0.564570	0.737488
C31	C	-0.153221	-1.151668	0.000090
C32	C	0.346779	-0.651668	0.500090
C33	C	-0.226050	-1.150285	0.000074
C34	C	0.273950	-0.650285	0.500074
C35	C	-0.254223	-1.067432	0.000068
C36	C	0.245777	-0.567432	0.500068
C37	C	-0.209561	-0.985957	0.000051
C38	C	0.290439	-0.485957	0.500051
C39	C	-0.136734	-0.987343	0.000057
C40	C	0.363266	-0.487343	0.500057
N41	N	-0.362440	-1.004094	0.056844
N42	N	0.137560	-0.504094	0.556844
N43	N	-0.431623	-1.002783	0.056841
N44	N	0.068377	-0.502783	0.556841
C45	C	-0.473645	-1.063251	0.000047
C46	C	0.026355	-0.563251	0.500047
N47	N	-0.443873	-1.125093	-0.056730
N48	N	0.056127	-0.625093	0.443270
N49	N	-0.374684	-1.126407	-0.056722
N50	N	0.125316	-0.626407	0.443278
C51	C	-0.333190	-1.065920	0.000060
C52	C	0.166810	-0.565920	0.500060
C53	C	-0.597267	-1.143220	0.000039
C54	C	-0.097267	-0.643220	0.500039
C55	C	-0.670096	-1.141833	0.000016
C56	C	-0.170096	-0.641833	0.500016
C57	C	-0.653606	-0.977503	0.000003
C58	C	-0.153606	-0.477503	0.500003
C59	C	-0.580778	-0.978893	0.000016
C60	C	-0.080778	-0.478893	0.500016
C61	C	-0.552613	-1.061754	0.000038
C62	C	-0.052613	-0.561754	0.500038
C63	C	0.224226	-1.057507	0.000023
C64	C	0.724226	-0.557507	0.500023
C65	C	0.301736	-1.058980	0.000008
C66	C	0.801736	-0.558980	0.500008
C67	C	0.091646	-1.229438	0.000057
C68	C	0.591646	-0.729438	0.500057
C69	C	0.093120	-1.329513	0.000057
C70	C	0.593120	-0.829513	0.500057
C71	C	0.030218	-0.387525	0.000067
C72	C	0.530218	0.112475	0.500067
C73	C	0.157407	-0.365537	0.000041
C74	C	0.657407	0.134463	0.500041
C75	C	0.158794	-0.459563	0.000037
C76	C	0.658794	0.040437	0.500037
C77	C	0.095891	-0.517574	0.000047
C78	C	0.595891	-0.017574	0.500047
C79	C	0.031602	-0.481560	0.000060
C80	C	0.531602	0.018440	0.500060
C81	C	0.223081	-0.495585	0.000014
C82	C	0.723081	0.004415	0.500014
C83	C	0.224470	-0.589616	0.000009
C84	C	0.724470	-0.089616	0.500009
C85	C	0.161567	-0.647629	0.000026
C86	C	0.661567	-0.147629	0.500026
C87	C	0.097276	-0.611610	0.000041
C88	C	0.597276	-0.111610	0.500041
C89	C	0.034373	-0.669621	0.000050
C90	C	0.534373	-0.169621	0.500050
C91	C	-0.029919	-0.633603	0.000072
C92	C	0.470081	-0.133603	0.500072
C93	C	-0.031301	-0.539574	0.000077
C94	C	0.468699	-0.039574	0.500077
C95	C	0.162949	-0.741659	0.000021
C96	C	0.662949	-0.241659	0.500021
C97	C	0.035757	-0.763656	0.000044
C98	C	0.535757	-0.263656	0.500044
N99	N	0.096582	-1.064621	-0.237391
N100	N	0.596582	-0.564621	0.262609
C101	C	0.143972	-1.003125	0.710098
C102	C	0.643972	-0.503125	1.210098
C103	C	0.049192	-1.126107	0.710092
C104	C	0.549192	-0.626107	1.210092
C105	C	0.049190	-1.126097	0.605073
C106	C	0.549190	-0.626097	1.105073
C107	C	0.096580	-1.064601	0.552562
C108	C	0.596580	-0.564601	1.052562
C109	C	0.143973	-1.003115	0.605070
C110	C	0.643973	-0.503115	1.105070
C111	C	0.001803	-1.187588	0.552558
C112	C	0.501803	-0.687588	1.052558
C113	C	0.001799	-1.187581	0.447533
C114	C	0.501799	-0.687581	0.947533
C115	C	0.049187	-1.126080	0.395020
C116	C	0.549187	-0.626080	0.895020
C117	C	0.096581	-1.064590	0.447534
C118	C	0.596581	-0.564590	0.947534
C119	C	0.143971	-1.003094	0.395023
C120	C	0.643971	-0.503094	0.895023
C121	C	0.191363	-0.941600	0.447535
C122	C	0.691363	-0.441600	0.947535
C123	C	0.191361	-0.941613	0.552557
C124	C	0.691361	-0.441613	1.052557
C125	C	0.049189	-1.126066	0.289999
C126	C	0.549189	-0.626066	0.789999
C127	C	0.143972	-1.003084	0.289995
C128	C	0.643972	-0.503084	0.789995
H129	H	-0.130295	-1.219140	0.000105
H130	H	0.369705	-0.719140	0.500105
C131	C	-0.684584	-0.886364	-0.000008
C132	C	-0.184584	-0.386364	0.499992
H133	H	-0.647556	-0.838044	-0.000017
H134	H	-0.147556	-0.338044	0.499983
H135	H	-0.712662	-0.882398	0.058170
H136	H	-0.212662	-0.382398	0.558170
H137	H	-0.712639	-0.882418	-0.058204
H138	H	-0.212639	-0.382418	0.441796
H139	H	0.274293	-0.448345	-0.000005
H140	H	0.774293	0.051655	0.499995
C141	C	0.243491	-0.873986	0.610320
C142	C	0.743491	-0.373986	1.110320
H143	H	0.236708	-0.882809	0.680388
H144	H	0.736708	-0.382809	1.180388
H145	H	0.235827	-0.813847	0.593131
H146	H	0.735827	-0.313847	1.093131
H147	H	0.290104	-0.883597	0.593092
H148	H	0.790104	-0.383597	1.093092
C149	C	0.196100	-0.935489	0.767854
C150	C	0.696100	-0.435489	1.267854
H151	H	0.189318	-0.944302	0.837923
H152	H	0.689318	-0.444302	1.337923
H153	H	0.188434	-0.875354	0.750653
H154	H	0.688434	-0.375354	1.250653
H155	H	0.242715	-0.945099	0.750629
H156	H	0.742715	-0.445099	1.250629
C157	C	-0.033435	-0.827466	0.000056
C158	C	0.466565	-0.327466	0.500056
H159	H	-0.023405	-0.888626	0.000053
H160	H	0.476595	-0.388626	0.500053
H161	H	-0.059794	-0.816572	-0.058118
H162	H	0.440206	-0.316572	0.441882
H163	H	-0.059789	-0.816574	0.058256
H164	H	0.440211	-0.316574	0.558256
H165	H	-0.544421	-0.912556	0.000013
H166	H	-0.044421	-0.412556	0.500013
C167	C	-0.099108	-0.697421	0.000083
C168	C	0.400892	-0.197421	0.500083
H169	H	-0.089070	-0.758578	0.000079
H170	H	0.410930	-0.258578	0.500079
H171	H	-0.125468	-0.686532	-0.058090
H172	H	0.374532	-0.186532	0.441910
H173	H	-0.125463	-0.686536	0.058284
H174	H	0.374537	-0.186536	0.558284
H175	H	-0.262413	-1.216625	0.000079
H176	H	0.237587	-0.716625	0.500079
H177	H	-0.083644	-0.510239	0.000119
H178	H	0.416356	-0.010239	0.500119
H179	H	0.276821	-0.618933	-0.000009
H180	H	0.776821	-0.118933	0.499991
C181	C	-0.002933	-1.193747	0.767851
C182	C	0.497067	-0.693747	1.267851
H183	H	0.003852	-1.184944	0.837919
H184	H	0.503852	-0.684944	1.337919
H185	H	0.004732	-1.253881	0.750623
H186	H	0.504732	-0.753881	1.250623
H187	H	-0.049547	-1.184133	0.750656
H188	H	0.450453	-0.684133	1.250656
H189	H	-0.022127	-0.358195	0.000088
H190	H	0.477873	0.141805	0.500088
H191	H	-0.232504	-0.918498	0.000044
H192	H	0.267496	-0.418498	0.500044
H193	H	-0.100377	-0.921003	0.000049
H194	H	0.399623	-0.421003	0.500049
C195	C	0.226594	-0.301728	0.000032
C196	C	0.726594	0.198272	0.500032
H197	H	0.216562	-0.240569	0.000043
H198	H	0.716562	0.259431	0.500043
H199	H	0.252956	-0.312621	-0.058154
H200	H	0.752956	0.187379	0.441846
H201	H	0.252946	-0.312618	0.058220
H202	H	0.752946	0.187382	0.558220
C203	C	-0.566282	-1.234362	0.000052
C204	C	-0.066282	-0.734362	0.500052
H205	H	-0.603309	-1.282682	0.000041
H206	H	-0.103309	-0.782682	0.500041
H207	H	-0.538226	-1.238312	0.058239
H208	H	-0.038226	-0.738312	0.558239
H209	H	-0.538205	-1.238323	-0.058134
H210	H	-0.038205	-0.738323	0.441866
C211	C	-0.002932	-1.193700	0.232235
C212	C	0.497068	-0.693700	0.732235
H213	H	0.003857	-1.184890	0.162167
H214	H	0.503857	-0.684890	0.662167
H215	H	-0.049545	-1.184106	0.249463
H216	H	0.450455	-0.684106	0.749463
H217	H	0.004746	-1.253838	0.249430
H218	H	0.504746	-0.753838	0.749430
H219	H	-0.036778	-1.237661	0.595316
H220	H	0.463222	-0.737661	1.095316
H221	H	0.215294	-0.770981	0.000005
H222	H	0.715294	-0.270981	0.500005
C223	C	0.196104	-0.935438	0.232241
C224	C	0.696104	-0.435438	0.732241
H225	H	0.224329	-0.898825	0.278558
H226	H	0.724329	-0.398825	0.778558
H227	H	0.170937	-0.898011	0.191280
H228	H	0.670937	-0.398011	0.691280
H229	H	0.225220	-0.967754	0.191264
H230	H	0.725220	-0.467754	0.691264
C231	C	-0.050334	-1.255213	0.389779
C232	C	0.449666	-0.755213	0.889779
H233	H	-0.078561	-1.291833	0.436096
H234	H	0.421439	-0.791833	0.936096
H235	H	-0.025169	-1.292634	0.348789
H236	H	0.474831	-0.792634	0.848789
H237	H	-0.079447	-1.222886	0.348832
H238	H	0.420553	-0.722886	0.848832
H239	H	-0.706452	-1.208174	0.000019
H240	H	-0.206452	-0.708174	0.500019
C241	C	0.243493	-0.873959	0.389771
C242	C	0.743493	-0.373959	0.889771
H243	H	0.271721	-0.837340	0.436080
H244	H	0.771721	-0.337340	0.936080
H245	H	0.218323	-0.836536	0.348808
H246	H	0.718323	-0.336536	0.848808
H247	H	0.272605	-0.906280	0.348795
H248	H	0.772605	-0.406280	0.848795
