data_functionalizedCrystal
_audit_creation_method	'MofGen! by Chris Wilmer'
_symmetry_space_group_name_H-M	'P1'
_symmetry_Int_Tables_number	1
_symmetry_cell_setting	triclinic
loop_
_symmetry_equiv_pos_as_xyz
  x,y,z
_cell_length_a	14.971482
_cell_length_b	15.995292
_cell_length_c	13.448316
_cell_angle_alpha	89.996588
_cell_angle_beta	89.993798
_cell_angle_gamma	83.540612
loop_
_atom_site_label
_atom_site_type_symbol
_atom_site_fract_x
_atom_site_fract_y
_atom_site_fract_z
O1	O	1.186800	0.109105	-0.082672
O2	O	1.686800	0.609105	0.417328
O3	O	0.926382	0.122175	-0.082676
O4	O	1.426382	0.622175	0.417324
O5	O	1.063737	-0.006244	-0.082675
O6	O	1.563737	0.493756	0.417325
O7	O	1.049445	0.237524	-0.082672
O8	O	1.549445	0.737524	0.417328
O9	O	1.063720	-0.006252	0.082709
O10	O	1.563720	0.493748	0.582709
O11	O	0.926365	0.122167	0.082708
O12	O	1.426365	0.622167	0.582708
O13	O	1.186783	0.109097	0.082712
O14	O	1.686783	0.609097	0.582712
Cu15	Cu	1.056572	0.115631	0.097811
Cu16	Cu	1.556572	0.615631	0.597811
Cu17	Cu	1.056593	0.115641	-0.097775
Cu18	Cu	1.556593	0.615641	0.402225
O19	O	1.049428	0.237516	0.082711
O20	O	1.549428	0.737516	0.582711
C21	C	0.893049	0.121587	0.000016
C22	C	1.393049	0.621587	0.500016
C23	C	0.793755	0.119837	0.000014
C24	C	1.293755	0.619837	0.500014
C25	C	0.747102	0.119009	0.090166
C26	C	1.247102	0.619009	0.590166
C27	C	0.653805	0.117351	0.090167
C28	C	1.153805	0.617351	0.590167
C29	C	0.607163	0.116528	0.000015
C30	C	1.107163	0.616528	0.500015
C31	C	0.653823	0.117354	-0.090144
C32	C	1.153823	0.617354	0.409856
C33	C	0.747118	0.119006	-0.090144
C34	C	1.247118	0.619006	0.409856
C35	C	0.459366	0.113913	-0.090138
C36	C	0.959366	0.613913	0.409862
C37	C	0.366064	0.112263	-0.090138
C38	C	0.866064	0.612263	0.409862
C39	C	0.366053	0.112259	0.090173
C40	C	0.866053	0.612259	0.590173
C41	C	0.459348	0.113910	0.090173
C42	C	0.959348	0.613910	0.590173
C43	C	0.506001	0.114738	0.000014
C44	C	1.006001	0.614738	0.500014
C45	C	1.063147	-0.037444	0.000014
C46	C	1.563147	0.462556	0.500014
C47	C	1.061403	-0.130399	0.000007
C48	C	1.561403	0.369601	0.500007
C49	C	1.054992	-0.468144	0.000016
C50	C	1.554992	0.031856	0.500016
C51	C	1.154131	-0.444733	0.000387
C52	C	1.654131	0.055267	0.500387
C53	C	1.156016	-0.348056	0.000010
C54	C	1.656016	0.151944	0.500010
C55	C	1.058173	-0.300585	0.000012
C56	C	1.558173	0.199415	0.500012
C57	C	1.008618	-0.329730	-0.094428
C58	C	1.508618	0.170270	0.405572
C59	C	1.007425	-0.426522	-0.094504
C60	C	1.507425	0.073478	0.405496
C61	C	1.005381	-0.426390	0.093569
C62	C	1.505381	0.073610	0.593569
C63	C	1.009054	-0.329894	0.094813
C64	C	1.509054	0.170106	0.594813
C65	C	1.059966	-0.205887	0.000006
C66	C	1.559966	0.294113	0.500006
C67	C	1.053197	-0.562841	0.000015
C68	C	1.553197	-0.062841	0.500015
C69	C	1.220116	0.109685	0.000019
C70	C	1.720116	0.609685	0.500019
C71	C	1.319411	0.111435	0.000014
C72	C	1.819411	0.611435	0.500014
C73	C	1.050018	0.268716	0.000020
C74	C	1.550018	0.768716	0.500020
C75	C	1.051762	0.361671	0.000021
C76	C	1.551762	0.861671	0.500021
N77	N	1.056565	0.115624	0.235375
N78	N	1.556565	0.615624	0.735375
N79	N	1.056608	0.115641	-0.235339
N80	N	1.556608	0.615641	0.264661
C81	C	1.117404	0.058784	0.287416
C82	C	1.617404	0.558784	0.787416
C83	C	1.117410	0.058783	0.391519
C84	C	1.617410	0.558783	0.891519
C85	C	1.056579	0.115627	0.443580
C86	C	1.556579	0.615627	0.943580
C87	C	0.995733	0.172471	0.391532
C88	C	1.495733	0.672471	0.891532
C89	C	0.995724	0.172467	0.287431
C90	C	1.495724	0.672467	0.787431
C91	C	0.995758	0.172476	0.608512
C92	C	1.495758	0.672476	1.108512
C93	C	0.995768	0.172482	0.712620
C94	C	1.495768	0.672482	1.212620
C95	C	1.117444	0.058792	0.712600
C96	C	1.617444	0.558792	1.212600
C97	C	1.117435	0.058788	0.608499
C98	C	1.617435	0.558788	1.108499
C99	C	1.056589	0.115633	0.556458
C100	C	1.556589	0.615633	1.056458
H101	H	0.328090	0.111594	-0.163547
H102	H	0.828090	0.611594	0.336453
H103	H	1.045138	-0.311296	0.164679
H104	H	1.545138	0.188704	0.664679
H105	H	0.497348	0.114588	-0.163555
H106	H	0.997348	0.614588	0.336445
H107	H	0.615840	0.116678	-0.163547
H108	H	1.115840	0.616678	0.336453
H109	H	1.194826	-0.328996	0.067707
H110	H	1.694826	0.171004	0.567707
H111	H	1.192139	-0.473710	-0.066959
H112	H	1.692139	0.026290	0.433041
H113	H	0.946233	0.218770	0.755003
H114	H	1.446233	0.718770	1.255003
H115	H	0.946199	0.218752	0.433926
H116	H	1.446199	0.718752	0.933926
H117	H	0.615827	0.116662	0.163577
H118	H	1.115827	0.616662	0.663577
H119	H	0.328063	0.111585	0.163584
H120	H	0.828063	0.611585	0.663584
H121	H	0.785102	0.119682	-0.163555
H122	H	1.285102	0.619682	0.336445
H123	H	1.192337	-0.472696	0.068114
H124	H	1.692337	0.027304	0.568114
H125	H	0.946181	0.218751	0.245060
H126	H	1.446181	0.718751	0.745060
H127	H	1.036594	-0.454451	0.165154
H128	H	1.536594	0.045549	0.665154
H129	H	0.934735	-0.441144	-0.098781
H130	H	1.434735	0.058856	0.401219
H131	H	1.166949	0.012498	0.433890
H132	H	1.666949	0.512498	0.933890
H133	H	1.195069	-0.329609	-0.067805
H134	H	1.695069	0.170391	0.432195
H135	H	0.785070	0.119686	0.163578
H136	H	1.285070	0.619686	0.663578
H137	H	1.166972	0.012506	0.566111
H138	H	1.666972	0.512506	1.066111
H139	H	1.041759	-0.453301	-0.165100
H140	H	1.541759	0.046699	0.334900
H141	H	0.936619	-0.297933	-0.097938
H142	H	1.436619	0.202067	0.402062
H143	H	0.937639	-0.296995	0.100518
H144	H	1.437639	0.203005	0.600518
H145	H	1.043045	-0.309632	-0.164711
H146	H	1.543045	0.190368	0.335289
H147	H	1.166986	0.012508	0.754978
H148	H	1.666986	0.512508	1.254978
H149	H	0.497321	0.114586	0.163583
H150	H	0.997321	0.614586	0.663583
H151	H	0.932407	-0.440453	0.094206
H152	H	1.432407	0.059547	0.594206
H153	H	1.166943	0.012498	0.245035
H154	H	1.666943	0.512498	0.745035
H155	H	0.946208	0.218763	0.566144
H156	H	1.446208	0.718763	1.066144
