data_functionalizedCrystal
_audit_creation_method	'MofGen! by Chris Wilmer'
_symmetry_space_group_name_H-M	'P1'
_symmetry_Int_Tables_number	1
_symmetry_cell_setting	triclinic
loop_
_symmetry_equiv_pos_as_xyz
  x,y,z
_cell_length_a	12.827893
_cell_length_b	12.594516
_cell_length_c	12.827885
_cell_angle_alpha	90.028923
_cell_angle_beta	90.019272
_cell_angle_gamma	90.018333
loop_
_atom_site_label
_atom_site_type_symbol
_atom_site_fract_x
_atom_site_fract_y
_atom_site_fract_z
Zn1	Zn	1.597649	-0.423686	0.590855
Zn2	Zn	1.597535	-0.601702	0.416118
Zn3	Zn	1.422891	-0.423738	0.416129
Zn4	Zn	1.422868	-0.601623	0.590818
O5	O	1.510236	-0.512687	0.503480
O6	O	1.743870	-0.447311	0.567687
O7	O	1.574330	-0.578150	0.269883
O8	O	1.446130	-0.274786	0.439326
O9	O	1.743786	-0.578099	0.439308
O10	O	1.574525	-0.274747	0.567697
O11	O	1.446020	-0.447401	0.269891
O12	O	1.276652	-0.447324	0.439290
O13	O	1.446091	-0.577965	0.737059
O14	O	1.276635	-0.578016	0.567634
O15	O	1.574502	-0.447235	0.737086
O16	O	1.574307	-0.750637	0.439272
O17	O	1.445980	-0.750580	0.567624
C18	C	1.238726	-0.512668	0.503460
C19	C	1.122573	-0.512685	0.503476
C20	C	1.070829	-0.448082	0.567101
C21	C	0.950779	-0.448098	0.567119
C22	C	1.510157	-0.789228	0.503465
C23	C	1.510219	-0.907534	0.503494
C24	C	1.440479	-1.047558	0.573269
C25	C	1.535748	-0.976645	0.598905
C26	C	1.414959	-0.976875	0.477905
C27	C	1.605710	-1.047407	0.529218
C28	C	1.484856	-1.047642	0.408174
C29	C	1.580192	-0.976762	0.433774
C30	C	1.782806	-0.512708	0.503500
C31	C	1.898959	-0.512717	0.503509
C32	C	1.510307	-0.512585	0.776050
C33	C	1.510337	-0.512542	0.892203
C34	C	1.510343	-0.235067	0.503517
C35	C	1.510389	-0.116761	0.503533
C36	C	1.510225	-0.512712	0.231970
C37	C	1.510397	-0.512456	0.115817
C38	C	1.573886	-0.447840	0.944002
C39	C	1.573919	-0.447793	1.064052
H40	H	1.381503	-1.078640	0.632304
C41	C	1.660044	-0.935010	0.354091
H42	H	1.625216	-0.893561	0.302963
H43	H	1.710386	-0.892455	0.388843
H44	H	1.693784	-0.993259	0.321297
C45	C	1.647425	-0.372958	1.124216
H46	H	1.687278	-0.332401	1.076165
H47	H	1.607444	-0.326603	1.166801
H48	H	1.692919	-0.413709	1.166788
H49	H	1.077995	-0.568004	0.449016
H50	H	1.557279	-0.945463	0.679531
C51	C	0.890679	-0.373379	0.640714
H52	H	0.938764	-0.332843	0.680625
H53	H	0.848084	-0.327000	0.600788
H54	H	0.848120	-0.414205	0.686151
H55	H	1.455992	-0.567857	1.071279
H56	H	0.943450	-0.568034	0.449041
C57	C	1.714668	-1.089081	0.558609
H58	H	1.714055	-1.164511	0.558478
H59	H	1.764305	-1.064274	0.509369
H60	H	1.732854	-1.064182	0.626129
C61	C	1.455733	-1.089813	0.299292
H62	H	1.387932	-1.065711	0.281199
H63	H	1.504640	-1.064522	0.249562
H64	H	1.456632	-1.165234	0.299952
C65	C	1.306042	-0.934979	0.448663
H66	H	1.256522	-0.959222	0.498302
H67	H	1.306947	-0.859562	0.448250
H68	H	1.287456	-0.960319	0.381410
C69	C	1.436865	-0.587331	0.952345
H70	H	1.396986	-0.627926	0.904280
H71	H	1.476870	-0.633653	0.994924
H72	H	1.391394	-0.546548	0.994922
C73	C	1.131039	-0.373346	0.640673
H74	H	1.203828	-0.383145	0.631014
H75	H	1.113209	-0.301799	0.625521
H76	H	1.113235	-0.389004	0.710883
H77	H	1.628265	-0.392477	0.899471
