data_functionalizedCrystal
_audit_creation_method	'MofGen! by Chris Wilmer'
_symmetry_space_group_name_H-M	'P1'
_symmetry_Int_Tables_number	1
_symmetry_cell_setting	triclinic
loop_
_symmetry_equiv_pos_as_xyz
  x,y,z
_cell_length_a	21.295418
_cell_length_b	21.295416
_cell_length_c	21.295411
_cell_angle_alpha	90.019171
_cell_angle_beta	89.956262
_cell_angle_gamma	89.953856
loop_
_atom_site_label
_atom_site_type_symbol
_atom_site_fract_x
_atom_site_fract_y
_atom_site_fract_z
Zn1	Zn	0.962357	0.250415	-0.356244
Zn2	Zn	0.962259	0.355667	-0.250974
Zn3	Zn	0.857080	0.250445	-0.250954
Zn4	Zn	0.857049	0.355680	-0.356171
O5	O	0.909686	0.303052	-0.303586
O6	O	1.050433	0.264360	-0.342319
O7	O	0.948279	0.341716	-0.162882
O8	O	0.871098	0.162351	-0.264944
O9	O	1.050362	0.341688	-0.264978
O10	O	0.948445	0.162330	-0.342300
O11	O	0.871004	0.264410	-0.162867
O12	O	0.768986	0.264422	-0.264872
O13	O	0.871047	0.341709	-0.444270
O14	O	0.768964	0.341738	-0.342174
O15	O	0.948415	0.264372	-0.444324
O16	O	0.948250	0.443758	-0.264906
O17	O	0.870952	0.443767	-0.342194
C18	C	0.746135	0.303085	-0.303513
C19	C	0.676166	0.303114	-0.303497
C20	C	0.909604	0.466603	-0.303558
C21	C	0.909627	0.536571	-0.303567
C22	C	0.909739	0.303038	-0.467776
C23	C	0.909761	0.303033	-0.537744
C24	C	0.643305	0.343426	-0.343689
C25	C	0.577562	0.343410	-0.343717
C26	C	0.544684	0.303090	-0.303543
C27	C	0.577554	0.262770	-0.263349
C28	C	0.643295	0.262783	-0.263326
N29	N	0.441408	0.298163	-0.248485
N30	N	0.378957	0.298155	-0.248508
C31	C	0.346609	0.303050	-0.303609
N32	N	0.379073	0.307965	-0.358688
N33	N	0.441530	0.307976	-0.358664
C34	C	0.473399	0.303072	-0.303563
C35	C	0.242462	0.343346	-0.343835
C36	C	0.176718	0.343326	-0.343864
C37	C	0.176711	0.262690	-0.263490
C38	C	0.242454	0.262707	-0.263467
C39	C	0.275325	0.303038	-0.303638
C40	C	1.073877	0.303019	-0.303659
C41	C	1.143845	0.303005	-0.303690
C42	C	0.949911	0.569412	-0.263366
C43	C	0.949941	0.635155	-0.263383
C44	C	0.909675	0.668054	-0.303595
C45	C	0.869388	0.635205	-0.343803
C46	C	0.869363	0.569464	-0.343790
N47	N	0.854608	0.771336	-0.308374
N48	N	0.854633	0.833787	-0.308383
C49	C	0.909746	0.866129	-0.303639
N50	N	0.964835	0.833659	-0.298874
N51	N	0.964809	0.771202	-0.298861
C52	C	0.909697	0.739339	-0.303614
C53	C	0.950066	0.970255	-0.263455
C54	C	0.950097	1.035999	-0.263476
C55	C	0.869538	1.036048	-0.343893
C56	C	0.869513	0.970305	-0.343875
C57	C	0.909776	0.937413	-0.303652
C58	C	0.909787	1.138861	-0.303639
C59	C	0.909831	1.068893	-0.303689
C60	C	0.950045	0.262761	-0.570640
C61	C	0.950044	0.262734	-0.636383
C62	C	0.909766	0.302989	-0.669227
C63	C	0.869474	0.343263	-0.636323
C64	C	0.869471	0.343285	-0.570582
N65	N	0.904909	0.358058	-0.772443
N66	N	0.904915	0.358036	-0.834895
C67	C	0.909770	0.302926	-0.867302
N68	N	0.914630	0.247837	-0.834898
N69	N	0.914627	0.247860	-0.772441
C70	C	0.909764	0.302970	-0.740512
C71	C	0.950055	0.262621	-0.971483
C72	C	0.950050	0.262593	-1.037227
C73	C	0.869483	0.343128	-1.037166
C74	C	0.869485	0.343151	-0.971424
C75	C	0.909774	0.302898	-0.938586
C76	C	0.909670	0.303019	-0.140034
C77	C	0.909770	0.302848	-0.070067
H78	H	0.670065	0.376266	-0.376400
H79	H	0.836707	0.943564	-0.376607
H80	H	0.982851	0.229984	-0.543908
F81	F	0.277449	0.386267	-0.386591
F82	F	0.826610	0.385966	-1.072117
H83	H	0.836604	0.661996	-0.376545
F84	F	0.542581	0.386317	-0.386496
F85	F	0.542562	0.219856	-0.220595
H86	H	0.982858	0.229842	-0.944745
F87	F	0.992911	0.219860	-0.671400
F88	F	0.992935	0.219735	-1.072237
F89	F	0.678270	0.219875	-0.220548
H90	H	0.836677	0.376038	-0.663069
H91	H	0.982905	1.062737	-0.230741
H92	H	0.836755	1.062833	-0.376636
H93	H	0.982748	0.661899	-0.230647
H94	H	0.836685	0.375948	-0.944640
F95	F	0.826593	0.386149	-0.535571
F96	F	0.141745	0.386231	-0.386647
H97	H	0.149942	0.229857	-0.230783
H98	H	0.269210	0.229884	-0.230736
F99	F	0.826485	0.534511	-0.386579
F100	F	0.992770	0.534410	-0.220565
H101	H	0.982853	0.943473	-0.230705
