data_functionalizedCrystal
_audit_creation_method	'MofGen! by Chris Wilmer'
_symmetry_space_group_name_H-M	'P1'
_symmetry_Int_Tables_number	1
_symmetry_cell_setting	triclinic
loop_
_symmetry_equiv_pos_as_xyz
  x,y,z
_cell_length_a	17.699083
_cell_length_b	10.489741
_cell_length_c	16.176319
_cell_angle_alpha	89.993511
_cell_angle_beta	89.998611
_cell_angle_gamma	83.911094
loop_
_atom_site_label
_atom_site_type_symbol
_atom_site_fract_x
_atom_site_fract_y
_atom_site_fract_z
O1	O	1.005134	0.161296	-0.068630
O2	O	0.784893	0.182281	-0.068657
O3	O	0.900025	-0.013903	-0.068638
O4	O	0.890002	0.357479	-0.068649
O5	O	0.900009	-0.013915	0.068855
O6	O	0.784877	0.182268	0.068836
O7	O	1.005118	0.161283	0.068863
Cu8	Cu	0.894996	0.171775	0.081404
Cu9	Cu	0.895015	0.171789	-0.081198
O10	O	0.889986	0.357467	0.068844
C11	C	0.756683	0.181523	0.000086
C12	C	0.672650	0.179267	0.000076
C13	C	0.624782	0.294422	0.000073
C14	C	0.545825	0.292295	0.000083
C15	C	0.514737	0.175011	0.000091
C16	C	0.562611	0.059847	0.000097
C17	C	0.641567	0.061975	0.000092
C18	C	0.244192	0.051260	0.000118
C19	C	0.165230	0.049140	0.000120
C20	C	0.148450	0.281580	0.000109
C21	C	0.227406	0.283709	0.000104
C22	C	0.275273	0.168545	0.000114
C23	C	0.360887	0.170853	0.000104
C24	C	0.429124	0.172702	0.000096
C25	C	0.899260	-0.061427	0.000108
C26	C	0.896995	-0.203014	0.000106
C27	C	0.823740	-0.269793	0.000091
C28	C	0.858337	-0.362565	0.067887
C29	C	0.858370	-0.362527	-0.067671
C30	C	0.931622	-0.293921	0.067958
C31	C	0.931645	-0.293874	-0.067661
C32	C	0.966296	-0.386619	0.000151
C33	C	1.033328	0.162042	0.000118
C34	C	1.117361	0.164297	0.000123
C35	C	0.890751	0.404991	0.000096
C36	C	0.893016	0.546578	0.000093
N37	N	0.894988	0.171764	0.195769
N38	N	0.895029	0.171790	-0.195563
C39	C	0.945984	0.084929	0.239042
C40	C	0.945988	0.084928	0.325589
C41	C	0.894999	0.171768	0.368862
C42	C	0.843997	0.258607	0.325583
C43	C	0.843990	0.258601	0.239037
C44	C	0.844023	0.258631	0.674611
C45	C	0.844036	0.258632	0.761163
C46	C	0.946021	0.084957	0.761162
C47	C	0.946014	0.084951	0.674617
C48	C	0.895010	0.171785	0.631346
C49	C	0.895006	0.171784	0.537502
C50	C	0.895006	0.171776	0.462704
H51	H	0.109467	0.375352	0.000105
N52	N	0.693194	-0.062233	0.000100
H53	H	0.683124	-0.113414	-0.050865
H54	H	0.747909	-0.042986	0.000131
N55	N	1.001012	-0.008706	0.627944
H56	H	1.033319	-0.063719	0.668490
H57	H	0.971729	-0.065033	0.592045
H58	H	0.802477	0.329310	0.360821
N59	N	1.000985	-0.008728	0.192372
H60	H	1.033290	-0.063738	0.232921
H61	H	0.971704	-0.065058	0.156472
H62	H	0.987549	0.014248	0.796403
H63	H	1.026580	-0.437163	0.000196
H64	H	0.802511	0.329350	0.796394
H65	H	0.537293	-0.035648	0.000115
H66	H	0.987512	0.014220	0.360821
H67	H	0.962622	-0.263399	-0.124973
H68	H	0.802463	0.329309	0.203806
H69	H	0.827334	-0.393005	0.125195
N70	N	0.658310	0.420923	0.000054
H71	H	0.616002	0.493550	0.000055
H72	H	0.690707	0.426869	0.051021
N73	N	0.494196	0.416498	0.000173
H74	H	0.525871	0.491119	0.000193
H75	H	0.461026	0.420777	-0.050763
H76	H	0.252713	0.379213	0.000094
N77	N	0.131697	-0.077364	0.000130
H78	H	0.174000	-0.149998	0.000138
H79	H	0.099301	-0.083301	0.051101
N80	N	0.817310	-0.402807	-0.143589
H81	H	0.763464	-0.359866	-0.143531
H82	H	0.844500	-0.376600	-0.194748
N83	N	0.789011	0.352276	0.627946
H84	H	0.756713	0.407287	0.668495
H85	H	0.818279	0.408605	0.592023
N86	N	0.743963	-0.202530	0.000164
H87	H	0.715999	-0.228524	-0.050515
H88	H	0.716449	-0.227342	0.051452
H89	H	0.283156	-0.042514	0.000127
H90	H	0.962584	-0.263669	0.125338
