data_functionalizedCrystal
_audit_creation_method	'MofGen! by Chris Wilmer'
_symmetry_space_group_name_H-M	'P1'
_symmetry_Int_Tables_number	1
_symmetry_cell_setting	triclinic
loop_
_symmetry_equiv_pos_as_xyz
  x,y,z
_cell_length_a	11.804365
_cell_length_b	12.837943
_cell_length_c	12.811415
_cell_angle_alpha	90.588083
_cell_angle_beta	96.606777
_cell_angle_gamma	103.120467
loop_
_atom_site_label
_atom_site_type_symbol
_atom_site_fract_x
_atom_site_fract_y
_atom_site_fract_z
O1	O	-0.125858	-1.403144	0.248695
O2	O	-0.124438	-1.100981	0.235484
O3	O	-0.109060	-1.256267	0.093160
O4	O	-0.141236	-1.247858	0.391018
O5	O	0.084952	-1.215385	0.130587
O6	O	0.069573	-1.060099	0.272910
O7	O	0.068154	-1.362262	0.286121
Cu8	Cu	0.086579	-1.207448	0.282933
Cu9	Cu	-0.142863	-1.255795	0.238672
O10	O	0.052775	-1.206976	0.428445
C11	C	-0.026951	-1.041799	0.249735
C12	C	-0.025517	-0.926361	0.236425
N13	N	0.247955	-1.173450	0.314064
N14	N	-0.304239	-1.289801	0.207534
C15	C	0.641495	-1.371441	0.132757
C16	C	0.519379	-1.397159	0.109202
C17	C	0.451517	-1.341234	0.160415
C18	C	0.505783	-1.259587	0.235188
C19	C	0.627911	-1.233872	0.258751
C20	C	0.437933	-1.203664	0.286410
C21	C	0.492200	-1.122017	0.361183
C22	C	0.614316	-1.096306	0.384742
C23	C	0.682177	-1.152232	0.333528
C24	C	0.315805	-1.229379	0.262846
C25	C	0.302221	-1.091810	0.388841
C26	C	0.424338	-1.066092	0.412396
C27	C	-0.007909	-1.234102	0.073484
C28	C	0.004440	-1.228952	-0.040907
C29	C	-0.029335	-1.421445	0.271870
C30	C	-0.030778	-1.536885	0.285178
C31	C	-0.042784	-0.689745	0.396424
C32	C	-0.041436	-0.581280	0.383924
C33	C	-0.021464	-0.600962	0.198927
C34	C	-0.022812	-0.709427	0.211427
C35	C	-0.033474	-0.753814	0.310179
C36	C	-0.034831	-0.862283	0.322676
C37	C	-0.014851	-0.881962	0.137682
C38	C	-0.013502	-0.773497	0.125181
C39	C	-0.183890	-1.263829	-0.296656
C40	C	-0.172292	-1.258991	-0.404137
C41	C	0.039232	-1.214430	-0.363352
C42	C	0.027635	-1.219268	-0.255871
C43	C	-0.083930	-1.243970	-0.222528
C44	C	-0.095527	-1.248815	-0.115045
C45	C	0.115996	-1.204247	-0.074261
C46	C	0.127594	-1.199409	-0.181743
C47	C	-0.048378	-1.229142	0.448121
C48	C	-0.060735	-1.234294	0.562510
H49	H	0.271632	-1.295856	0.201966
H50	H	-0.051467	-0.725886	0.476831
H51	H	0.781615	-1.131290	0.352703
Cl52	Cl	0.492571	-0.963453	0.506395
H53	H	-0.253690	-1.275159	-0.464491
H54	H	0.246969	-1.046272	0.430546
Cl55	Cl	-0.000096	-0.717684	0.001044
H56	H	0.197391	-1.188080	-0.013893
H57	H	-0.007278	-0.934141	0.067453
Cl58	Cl	-0.048238	-0.918084	0.446819
H59	H	-0.186369	-1.268932	-0.087899
H60	H	0.352084	-1.362177	0.141233
Cl61	Cl	0.267839	-1.168348	-0.223671
Cl62	Cl	-0.053136	-0.500737	0.492353
H63	H	-0.012687	-0.564782	0.118546
Cl64	Cl	-0.324138	-1.294898	-0.254735
H65	H	0.130063	-1.194310	-0.390520
H66	H	0.475199	-1.463636	0.048324
Cl67	Cl	0.726806	-1.441748	0.068391
H68	H	0.658498	-1.029833	0.445634
