data_functionalizedCrystal
_audit_creation_method	'MofGen! by Chris Wilmer'
_symmetry_space_group_name_H-M	'P1'
_symmetry_Int_Tables_number	1
_symmetry_cell_setting	triclinic
loop_
_symmetry_equiv_pos_as_xyz
  x,y,z
_cell_length_a	9.730223
_cell_length_b	10.654534
_cell_length_c	11.792241
_cell_angle_alpha	95.664090
_cell_angle_beta	89.996031
_cell_angle_gamma	90.003385
loop_
_atom_site_label
_atom_site_type_symbol
_atom_site_fract_x
_atom_site_fract_y
_atom_site_fract_z
O1	O	-0.114316	-1.667399	0.159333
O2	O	-0.114314	-1.301875	0.174540
O3	O	-0.114305	-1.493507	0.001786
O4	O	-0.114325	-1.475767	0.332087
O5	O	0.114274	-1.493497	0.001783
O6	O	0.114266	-1.301865	0.174537
O7	O	0.114263	-1.667389	0.159330
Zn8	Zn	0.150557	-1.484625	0.166933
Zn9	Zn	-0.150607	-1.484638	0.166937
O10	O	0.114255	-1.475757	0.332084
C11	C	-0.000023	-1.255075	0.173426
C12	C	-0.000022	-1.115640	0.170096
N13	N	0.356093	-1.484625	0.166929
N14	N	-0.356143	-1.484648	0.166931
C15	C	-0.000016	-1.492388	-0.040509
C16	C	-0.000017	-1.489052	-0.166530
C17	C	0.571915	-1.569515	0.090463
C18	C	0.428032	-1.569507	0.090464
C19	C	0.428045	-1.399754	0.243406
C20	C	0.571925	-1.399769	0.243409
C21	C	0.124580	-1.050134	0.168527
C22	C	0.124583	-0.919123	0.165380
C23	C	-0.124628	-0.919134	0.165376
C24	C	-0.124629	-1.050144	0.168515
C25	C	-0.000024	-0.714188	0.160453
C26	C	-0.000017	-0.853619	0.163810
C27	C	-0.000040	-1.482919	-0.397256
C28	C	-0.000028	-1.486327	-0.268864
C29	C	-0.000037	-1.476876	0.374379
C30	C	-0.000045	-1.480211	0.500400
H31	H	0.369461	-1.638615	0.028198
C32	C	0.261641	-1.122186	0.170256
C33	C	0.295905	-1.198648	0.270802
C34	C	0.432970	-1.270697	0.272528
C35	C	0.535772	-1.266285	0.173707
C36	C	0.501511	-1.189820	0.073153
C37	C	0.364445	-1.117770	0.071428
H38	H	0.219803	-1.201917	0.343962
H39	H	0.458332	-1.327302	0.346965
H40	H	0.637235	-1.319620	0.174984
H41	H	0.577613	-1.186550	-0.000007
H42	H	0.339084	-1.061165	-0.003009
H43	H	0.630478	-1.638630	0.028191
C44	C	0.261648	-0.847067	0.163659
C45	C	0.295910	-0.743395	0.259884
C46	C	0.432982	-0.671341	0.258161
C47	C	0.535792	-0.702960	0.160213
C48	C	0.501534	-0.806637	0.063981
C49	C	0.364461	-0.878690	0.065704
H50	H	0.219801	-0.719985	0.332398
H51	H	0.458342	-0.594593	0.329399
H52	H	0.637261	-0.649621	0.158937
H53	H	0.577642	-0.830047	-0.008533
H54	H	0.339101	-0.955439	-0.005534
H55	H	-0.226079	-0.865791	0.164090
H56	H	-0.226101	-1.103481	0.169789
C57	C	0.348920	-1.306380	0.327521
C58	C	0.190657	-1.306350	0.327520
C59	C	0.111537	-1.212970	0.411635
C60	C	0.190679	-1.119620	0.495750
C61	C	0.348951	-1.119647	0.495754
C62	C	0.428071	-1.213027	0.411639
H63	H	0.132063	-1.375456	0.265251
H64	H	-0.005627	-1.212950	0.411632
H65	H	0.132110	-1.050495	0.558017
H66	H	0.407545	-1.050541	0.558024
H67	H	0.545235	-1.213047	0.411642
C68	C	0.651074	-1.306409	0.327529
C69	C	0.631333	-1.163385	0.324431
C70	C	0.710483	-1.070034	0.408549
C71	C	0.809374	-1.119707	0.495765
C72	C	0.829119	-1.262738	0.498867
C73	C	0.749969	-1.356089	0.414748
H74	H	0.558123	-1.126607	0.259865
H75	H	0.695865	-0.964152	0.406253
H76	H	0.867965	-1.050602	0.558035
H77	H	0.902329	-1.299515	0.563432
H78	H	0.764587	-1.461970	0.417045
