data_functionalizedCrystal
_audit_creation_method	'MofGen! by Chris Wilmer'
_symmetry_space_group_name_H-M	'P1'
_symmetry_Int_Tables_number	1
_symmetry_cell_setting	triclinic
loop_
_symmetry_equiv_pos_as_xyz
  x,y,z
_cell_length_a	17.699083
_cell_length_b	17.699083
_cell_length_c	7.540329
_cell_angle_alpha	90.003072
_cell_angle_beta	89.995522
_cell_angle_gamma	83.283015
loop_
_atom_site_label
_atom_site_type_symbol
_atom_site_fract_x
_atom_site_fract_y
_atom_site_fract_z
O1	O	0.095710	1.004074	-0.147237
O2	O	0.429043	1.337408	0.186096
O3	O	0.762377	1.670741	0.519429
O4	O	0.108163	0.783696	-0.147296
O5	O	0.441496	1.117029	0.186037
O6	O	0.774829	1.450363	0.519371
O7	O	-0.008253	0.900111	-0.147249
O8	O	0.325080	1.233445	0.186084
O9	O	0.658414	1.566778	0.519417
O10	O	0.212126	0.887659	-0.147284
O11	O	0.545459	1.220992	0.186049
O12	O	0.878792	1.554325	0.519383
O13	O	-0.008254	0.900104	0.147716
O14	O	0.325079	1.233438	0.481049
O15	O	0.658412	1.566771	0.814382
O16	O	0.108161	0.783689	0.147669
O17	O	0.441495	1.117022	0.481003
O18	O	0.774828	1.450356	0.814336
O19	O	0.095709	1.004067	0.147728
O20	O	0.429042	1.337401	0.481061
O21	O	0.762375	1.670734	0.814394
Cu22	Cu	0.101935	0.893878	0.174631
Cu23	Cu	0.435268	1.227211	0.507964
Cu24	Cu	0.768601	1.560544	0.841298
Cu25	Cu	0.101936	0.893886	-0.174199
Cu26	Cu	0.435270	1.227219	0.159134
Cu27	Cu	0.768603	1.560552	0.492467
O28	O	0.212124	0.887652	0.147681
O29	O	0.545457	1.220985	0.481015
O30	O	0.878791	1.554319	0.814348
C31	C	0.107716	0.755495	0.000179
C32	C	0.441049	1.088829	0.333513
C33	C	0.774382	1.422162	0.666846
C34	C	0.106377	0.671477	0.000157
C35	C	0.439710	1.004811	0.333491
C36	C	0.773044	1.338144	0.666824
C37	C	-0.036451	0.899662	0.000233
C38	C	0.296883	1.232995	0.333567
C39	C	0.630216	1.566328	0.666900
C40	C	-0.120469	0.898323	0.000234
C41	C	0.212865	1.231656	0.333567
C42	C	0.546198	1.564990	0.666900
C43	C	-0.169090	0.966656	0.000254
C44	C	0.164244	1.299990	0.333588
C45	C	0.497577	1.633323	0.666921
C46	C	-0.248033	0.965394	0.000238
C47	C	0.085300	1.298727	0.333572
C48	C	0.418634	1.632061	0.666905
C49	C	-0.278354	0.895798	0.000214
C50	C	0.054980	1.229131	0.333548
C51	C	0.388313	1.562464	0.666881
C52	C	-0.229727	0.827459	0.000188
C53	C	0.103607	1.160792	0.333522
C54	C	0.436940	1.494126	0.666855
C55	C	-0.150785	0.828722	0.000192
C56	C	0.182549	1.162055	0.333525
C57	C	0.515882	1.495389	0.666858
C58	C	-0.548090	0.822364	0.000173
C59	C	-0.214756	1.155697	0.333506
C60	C	0.118577	1.489030	0.666839
C61	C	-0.627038	0.821106	0.000175
C62	C	-0.293704	1.154439	0.333508
C63	C	0.039629	1.487773	0.666841
C64	C	-0.645338	0.959036	0.000219
C65	C	-0.312004	1.292369	0.333553
C66	C	0.021329	1.625703	0.666886
C67	C	-0.566396	0.960299	0.000223
C68	C	-0.233063	1.293632	0.333556
C69	C	0.100271	1.626966	0.666889
C70	C	-0.517776	0.891961	0.000187
C71	C	-0.184442	1.225294	0.333521
C72	C	0.148891	1.558627	0.666854
C73	C	-0.432177	0.893330	0.000201
C74	C	-0.098843	1.226664	0.333535
C75	C	0.234490	1.559997	0.666868
C76	C	-0.363951	0.894427	0.000213
C77	C	-0.030618	1.227761	0.333546
C78	C	0.302715	1.561094	0.666880
C79	C	0.174710	0.622856	0.000147
C80	C	0.508044	0.956190	0.333481
C81	C	0.841377	1.289523	0.666814
C82	C	0.173448	0.543913	0.000170
C83	C	0.506782	0.877246	0.333504
C84	C	0.840115	1.210580	0.666837
C85	C	0.103852	0.513592	0.000191
C86	C	0.437185	0.846926	0.333524
C87	C	0.770518	1.180259	0.666858
C88	C	0.035513	0.562219	0.000207
C89	C	0.368846	0.895553	0.333540
C90	C	0.702180	1.228886	0.666873
C91	C	0.036776	0.641161	0.000196
C92	C	0.370110	0.974495	0.333529
C93	C	0.703443	1.307828	0.666863
C94	C	0.030418	0.243856	0.000251
C95	C	0.363751	0.577190	0.333585
C96	C	0.697085	0.910523	0.666918
C97	C	0.029160	0.164908	0.000256
C98	C	0.362493	0.498242	0.333590
C99	C	0.695827	0.831575	0.666923
C100	C	0.167090	0.146608	0.000226
C101	C	0.500423	0.479942	0.333559
C102	C	0.833757	0.813275	0.666892
C103	C	0.168353	0.225550	0.000215
C104	C	0.501686	0.558883	0.333548
C105	C	0.835020	0.892217	0.666882
C106	C	0.100015	0.274170	0.000240
C107	C	0.433348	0.607504	0.333573
C108	C	0.766681	0.940837	0.666907
C109	C	0.101384	0.359769	0.000218
C110	C	0.434718	0.693103	0.333551
C111	C	0.768051	1.026436	0.666885
C112	C	0.102481	0.427995	0.000200
C113	C	0.435815	0.761328	0.333533
C114	C	0.769148	1.094661	0.666867
C115	C	0.240322	0.888102	0.000195
C116	C	0.573655	1.221435	0.333528
C117	C	0.906989	1.554768	0.666861
C118	C	0.324340	0.889440	0.000183
C119	C	0.657673	1.222773	0.333516
C120	C	0.991007	1.556107	0.666849
C121	C	0.096156	1.032268	0.000249
C122	C	0.429489	1.365601	0.333582
C123	C	0.762822	1.698934	0.666915
C124	C	0.097494	1.116286	0.000259
C125	C	0.430828	1.449619	0.333592
C126	C	0.764161	1.782953	0.666926
N127	N	0.101933	0.893877	0.419980
N128	N	0.435267	1.227211	0.753313
N129	N	0.768600	1.560544	1.086646
N130	N	0.101932	0.893892	-0.419548
N131	N	0.435265	1.227225	-0.086214
N132	N	0.768599	1.560559	0.247119
H133	H	-0.144409	1.023330	0.000285
H134	H	0.188924	1.356663	0.333618
H135	H	0.522258	1.689997	0.666951
Br136	Br	-0.058941	0.521071	0.000252
Br137	Br	0.274393	0.854404	0.333586
Br138	Br	0.607726	1.187738	0.666919
H139	H	-0.287618	1.021038	0.000259
H140	H	0.045716	1.354372	0.333592
H141	H	0.379049	1.687705	0.666926
Br142	Br	0.269168	0.663998	0.000101
Br143	Br	0.602501	0.997331	0.333434
Br144	Br	0.935835	1.330664	0.666768
Br145	Br	-0.270875	0.733005	0.000126
Br146	Br	0.062458	1.066339	0.333459
Br147	Br	0.395792	1.399672	0.666793
H148	H	-0.111198	0.773078	0.000175
H149	H	0.222136	1.106411	0.333508
H150	H	0.555469	1.439745	0.666841
Br151	Br	-0.525250	1.054754	0.000254
Br152	Br	-0.191917	1.388088	0.333587
Br153	Br	0.141416	1.721421	0.666921
H154	H	-0.684934	1.014680	0.000239
H155	H	-0.351601	1.348013	0.333572
H156	H	-0.018268	1.681347	0.666906
Br157	Br	-0.482115	0.729619	0.000113
Br158	Br	-0.148781	1.062952	0.333447
Br159	Br	0.184552	1.396285	0.666780
H160	H	-0.651721	0.764429	0.000159
H161	H	-0.318388	1.097762	0.333492
H162	H	0.014946	1.431096	0.666825
Br163	Br	0.266191	0.477929	0.000151
Br164	Br	0.599524	0.811263	0.333484
Br165	Br	0.932857	1.144596	0.666817
H166	H	0.225025	0.250232	0.000190
H167	H	0.558359	0.583566	0.333524
H168	H	0.891692	0.916899	0.666857
H169	H	0.222734	0.107012	0.000215
H170	H	0.556067	0.440345	0.333548
H171	H	0.889401	0.773678	0.666881
Br172	Br	-0.065299	0.123759	0.000279
Br173	Br	0.268035	0.457093	0.333613
Br174	Br	0.601368	0.790426	0.666946
H175	H	-0.018868	0.680748	0.000203
H176	H	0.314465	1.014082	0.333537
H177	H	0.647799	1.347415	0.666870
Br178	Br	-0.062327	0.309831	0.000289
Br179	Br	0.271006	0.643165	0.333623
Br180	Br	0.604340	0.976498	0.666956
