data_functionalizedCrystal
_audit_creation_method	'MofGen! by Chris Wilmer'
_symmetry_space_group_name_H-M	'P1'
_symmetry_Int_Tables_number	1
_symmetry_cell_setting	triclinic
loop_
_symmetry_equiv_pos_as_xyz
  x,y,z
_cell_length_a	17.077404
_cell_length_b	19.805405
_cell_length_c	17.077396
_cell_angle_alpha	89.970202
_cell_angle_beta	89.983895
_cell_angle_gamma	90.024696
loop_
_atom_site_label
_atom_site_type_symbol
_atom_site_fract_x
_atom_site_fract_y
_atom_site_fract_z
Zn1	Zn	1.200016	-0.269494	-0.443816
Zn2	Zn	1.700016	0.230506	0.056184
Zn3	Zn	1.199920	-0.382689	-0.312549
Zn4	Zn	1.699920	0.117311	0.187451
Zn5	Zn	1.068753	-0.269515	-0.312567
Zn6	Zn	1.568753	0.230485	0.187433
Zn7	Zn	1.068707	-0.382643	-0.443775
Zn8	Zn	1.568707	0.117357	0.056225
O9	O	1.134349	-0.326085	-0.378177
O10	O	1.634349	0.173915	0.121823
O11	O	1.309850	-0.284520	-0.426413
O12	O	1.809850	0.215480	0.073587
O13	O	1.182499	-0.367704	-0.202704
O14	O	1.682499	0.132296	0.297296
O15	O	1.086225	-0.174796	-0.330002
O16	O	1.586225	0.325204	0.169998
O17	O	1.309779	-0.367684	-0.329972
O18	O	1.809779	0.132316	0.170028
O19	O	1.182664	-0.174780	-0.426430
O20	O	1.682664	0.325220	0.073570
O21	O	1.086132	-0.284556	-0.202717
O22	O	1.586132	0.215444	0.297283
O23	O	0.958900	-0.284511	-0.329962
O24	O	1.458900	0.215489	0.170038
O25	O	1.086147	-0.367605	-0.553628
O26	O	1.586147	0.132395	-0.053628
O27	O	0.958866	-0.367625	-0.426360
O28	O	1.458866	0.132375	0.073640
O29	O	1.182619	-0.284476	-0.553658
O30	O	1.682619	0.215524	-0.053658
O31	O	1.182454	-0.477399	-0.329932
O32	O	1.682454	0.022601	0.170068
O33	O	1.086053	-0.477365	-0.426343
O34	O	1.586053	0.022635	0.073657
C35	C	0.930401	-0.326066	-0.378159
C36	C	1.430401	0.173934	0.121841
C37	C	0.843151	-0.326074	-0.378170
C38	C	1.343151	0.173926	0.121830
C39	C	0.802199	-0.282848	-0.428464
C40	C	1.302199	0.217152	0.071536
C41	C	0.720218	-0.282852	-0.428468
C42	C	1.220218	0.217148	0.071532
C43	C	0.679192	-0.326087	-0.378181
C44	C	1.179192	0.173913	0.121819
C45	C	0.720150	-0.369315	-0.327882
C46	C	1.220150	0.130685	0.172118
C47	C	0.802129	-0.369307	-0.327875
C48	C	1.302129	0.130693	0.172125
C49	C	0.549280	-0.369330	-0.327901
C50	C	1.049280	0.130670	0.172099
C51	C	0.467296	-0.369340	-0.327909
C52	C	0.967296	0.130660	0.172091
C53	C	0.467369	-0.282876	-0.428494
C54	C	0.967369	0.217124	0.071506
C55	C	0.549348	-0.282868	-0.428487
C56	C	1.049348	0.217132	0.071513
C57	C	0.590301	-0.326097	-0.378189
C58	C	1.090301	0.173903	0.121811
C59	C	1.134260	-0.501941	-0.378148
C60	C	1.634260	-0.001941	0.121852
C61	C	1.134293	-0.577173	-0.378163
C62	C	1.634293	-0.077173	0.121837
C63	C	1.184479	-0.612451	-0.428412
C64	C	1.684479	-0.112451	0.071588
C65	C	1.184507	-0.683140	-0.428427
C66	C	1.684507	-0.183140	0.071573
C67	C	1.134353	-0.718549	-0.378187
C68	C	1.634353	-0.218549	0.121813
C69	C	1.084162	-0.683266	-0.327935
C70	C	1.584162	-0.183266	0.172065
C71	C	1.084130	-0.612579	-0.327925
C72	C	1.584130	-0.112579	0.172075
C73	C	1.084288	-0.968339	-0.327976
C74	C	1.584288	-0.468339	0.172024
C75	C	1.084325	-1.039031	-0.327988
C76	C	1.584325	-0.539031	0.172012
C77	C	1.184665	-1.038900	-0.428477
C78	C	1.684665	-0.538900	0.071523
C79	C	1.184633	-0.968213	-0.428467
C80	C	1.684633	-0.468213	0.071533
C81	C	1.134439	-0.932936	-0.378218
C82	C	1.634439	-0.432936	0.121782
C83	C	1.134408	-0.856288	-0.378204
C84	C	1.634408	-0.356288	0.121796
C85	C	1.134388	-0.795196	-0.378197
C86	C	1.634388	-0.295196	0.121803
C87	C	1.339093	-0.326105	-0.378195
C88	C	1.839093	0.173895	0.121805
C89	C	1.426343	-0.326113	-0.378203
C90	C	1.926343	0.173887	0.121797
C91	C	1.134388	-0.326033	-0.582921
C92	C	1.634388	0.173967	-0.082921
C93	C	1.134405	-0.326010	-0.670171
C94	C	1.634405	0.173990	-0.170171
C95	C	1.134460	-0.149543	-0.378223
C96	C	1.634460	0.350457	0.121777
C97	C	1.134508	-0.074311	-0.378242
C98	C	1.634508	0.425689	0.121758
C99	C	1.084242	-0.282710	-0.711167
C100	C	1.584242	0.217290	-0.211167
C101	C	1.084255	-0.282695	-0.793148
C102	C	1.584255	0.217305	-0.293148
C103	C	1.134435	-0.325977	-0.834131
C104	C	1.634435	0.174023	-0.334131
C105	C	1.184601	-0.369282	-0.793128
C106	C	1.684601	0.130718	-0.293128
C107	C	1.184584	-0.369300	-0.711149
C108	C	1.684584	0.130700	-0.211149
C109	C	1.184635	-0.369240	-0.963999
C110	C	1.684635	0.130760	-0.463999
C111	C	1.184653	-0.369221	-1.045983
C112	C	1.684653	0.130779	-0.545983
C113	C	1.084306	-0.282634	-1.045997
C114	C	1.584306	0.217366	-0.545997
C115	C	1.084289	-0.282652	-0.964018
C116	C	1.584289	0.217348	-0.464018
C117	C	1.134456	-0.325957	-0.923022
C118	C	1.634456	0.174043	-0.423022
C119	C	1.134355	-0.326089	-0.174229
C120	C	1.634355	0.173911	0.325771
C121	C	1.134490	-0.325920	-0.086980
C122	C	1.634490	0.174080	0.413020
H123	H	0.686879	-0.247654	-0.469423
H124	H	1.186879	0.252346	0.030577
H125	H	1.043322	-0.712102	-0.287033
H126	H	1.543322	-0.212102	0.212967
F127	F	1.238025	-0.415333	-0.920369
F128	F	1.738025	0.084667	-0.420369
H129	H	1.043384	-0.247461	-0.677805
H130	H	1.543384	0.252539	-0.177805
F131	F	1.030941	-1.076715	-0.274514
F132	F	1.530941	-0.576715	0.225486
F133	F	1.030861	-0.930804	-0.274502
F134	F	1.530861	-0.430804	0.225498
F135	F	1.238002	-0.415351	-0.836747
F136	F	1.738002	0.084649	-0.336747
F137	F	1.030715	-0.575034	-0.274444
F138	F	1.530715	-0.075034	0.225556
H139	H	0.582750	-0.247666	-0.469440
H140	H	1.082750	0.252334	0.030560
F141	F	0.592863	-0.415343	-0.274371
F142	F	1.092863	0.084657	0.225629
F143	F	1.030835	-0.236633	-0.836776
F144	F	1.530835	0.263367	-0.336776
H145	H	1.225533	-1.067631	-0.469395
H146	H	1.725533	-0.567631	0.030605
F147	F	1.030886	-0.236582	-0.920403
F148	F	1.530886	0.263418	-0.420403
H149	H	0.434022	-0.247676	-0.469447
H150	H	0.934022	0.252324	0.030553
H151	H	1.043460	-0.247373	-1.079380
H152	H	1.543460	0.252627	-0.579380
F153	F	0.423634	-0.415368	-0.274403
F154	F	0.923634	0.084632	0.225597
H155	H	1.225438	-0.404555	-0.677771
H156	H	1.725438	0.095445	-0.177771
H157	H	1.225515	-0.404465	-1.079349
H158	H	1.725515	0.095535	-0.579349
H159	H	0.686740	-0.404514	-0.286934
H160	H	1.186740	0.095486	0.213066
F161	F	0.845855	-0.236834	-0.481991
F162	F	1.345855	0.263166	0.018009
F163	F	0.845713	-0.415315	-0.274346
F164	F	1.345713	0.084685	0.225654
H165	H	1.225323	-0.583626	-0.469320
H166	H	1.725323	-0.083626	0.030680
H167	H	1.225380	-0.711860	-0.469339
H168	H	1.725380	-0.211860	0.030661
F169	F	1.238016	-0.930532	-0.481936
F170	F	1.738016	-0.430532	0.018064
