data_functionalizedCrystal
_audit_creation_method	'MofGen! by Chris Wilmer'
_symmetry_space_group_name_H-M	'P1'
_symmetry_Int_Tables_number	1
_symmetry_cell_setting	triclinic
loop_
_symmetry_equiv_pos_as_xyz
  x,y,z
_cell_length_a	14.560438
_cell_length_b	17.052862
_cell_length_c	14.560438
_cell_angle_alpha	90.000708
_cell_angle_beta	60.000095
_cell_angle_gamma	50.256857
loop_
_atom_site_label
_atom_site_type_symbol
_atom_site_fract_x
_atom_site_fract_y
_atom_site_fract_z
Zr1	Zr	0.682301	0.914350	0.040966
O2	O	0.927465	0.762771	-0.132461
O3	O	0.474271	0.960825	0.094135
O4	O	0.665891	0.960808	-0.097476
O5	O	0.735841	0.762792	0.210291
O6	O	0.610706	1.117013	-0.069884
O7	O	0.735845	0.762788	0.059150
O8	O	0.267933	1.117044	0.272873
O9	O	1.078613	0.762761	-0.132466
O10	O	0.504900	1.097211	0.137397
O11	O	0.546081	0.980639	0.229601
O12	O	0.771688	0.980619	0.004004
O13	O	0.812869	0.864048	0.096207
Zr14	Zr	0.594281	1.163486	0.326025
Zr15	Zr	0.594288	1.163479	0.084972
Zr16	Zr	0.682295	0.914356	0.282019
Zr17	Zr	0.923366	0.914335	0.040959
Zr18	Zr	0.353216	1.163501	0.326033
O19	O	0.802311	1.117010	0.272857
O20	O	0.802320	1.117001	-0.069890
O21	O	0.927456	0.762780	0.210286
O22	O	0.349118	1.315065	0.499453
O23	O	0.349127	1.315056	0.156706
O24	O	0.474262	0.960834	0.436881
O25	O	0.540742	1.315043	0.156700
O26	O	0.610692	1.117028	0.464468
O27	O	0.665877	0.960822	0.436876
O28	O	0.540738	1.315047	0.307842
O29	O	1.008654	0.960786	-0.097486
O30	O	0.267928	1.117049	0.464478
O31	O	0.197969	1.315074	0.499457
O32	O	0.197974	1.315069	0.307852
O33	O	1.078608	0.762766	0.059140
O34	O	1.008649	0.960791	0.094119
O35	O	0.504894	1.097217	0.362988
O36	O	0.463713	1.213788	0.270784
O37	O	0.730501	1.097196	0.137391
O38	O	0.771683	0.980625	0.229594
C39	C	0.336756	1.038937	0.183505
C40	C	0.234417	1.038943	0.183508
C41	C	-0.023468	1.124969	0.281960
C42	C	0.072658	1.124997	0.281971
C43	C	0.300052	0.952862	0.085022
C44	C	0.203925	0.952840	0.085009
C45	C	0.748383	0.727294	0.128451
C46	C	0.785747	0.621532	0.109769
C47	C	0.334014	0.566851	0.335630
C48	C	0.298903	0.666222	0.353178
C49	C	0.420611	0.655055	0.292328
C50	C	0.577436	0.544506	0.213925
C51	C	0.612550	0.445125	0.196368
C52	C	0.699147	0.533330	0.153066
C53	C	0.855972	0.422781	0.074664
C54	C	0.891079	0.323411	0.057111
C55	C	0.769371	0.334578	0.117961
C56	C	0.664033	0.632710	0.170623
C57	C	0.942569	0.510985	0.031362
C58	C	0.977679	0.411614	0.013814
C59	C	0.939827	1.038899	0.183487
C60	C	1.042165	1.038892	0.183484
C61	C	0.638299	1.038910	-0.118025
C62	C	0.638302	1.038907	-0.220359
C63	C	0.528199	1.350541	0.238541
C64	C	0.490835	1.456303	0.257223
C65	C	0.777560	0.978049	-0.338065
C66	C	0.777549	0.978062	-0.434211
C67	C	0.499011	1.099794	-0.294931
C68	C	0.499021	1.099787	-0.198786
C69	C	0.638283	1.038926	0.485017
C70	C	0.638281	1.038928	0.587350
C71	C	0.226664	1.350560	0.238550
C72	C	0.086961	1.456329	0.257235
C73	C	0.336748	1.038945	0.485026
C74	C	0.234407	1.038954	0.587362
C75	C	0.226656	1.350568	0.540071
C76	C	0.086951	1.456339	0.661089
C77	C	1.049927	0.727267	-0.173079
C78	C	1.189632	0.621496	-0.294097
C79	C	1.049919	0.727275	0.128442
C80	C	1.189621	0.621507	0.109757
C81	C	0.939835	1.038891	-0.118034
C82	C	1.042176	1.038882	-0.220371
C83	C	0.042855	1.445147	0.196373
C84	C	-0.088394	1.544518	0.213905
C85	C	-0.175541	1.655070	0.292306
C86	C	-0.131424	1.666250	0.353170
C87	C	-0.000170	1.566880	0.335630
C88	C	-0.000156	1.566870	0.669793
C89	C	-0.131414	1.666263	0.783495
C90	C	-0.175569	1.655122	0.888491
C91	C	-0.088449	1.544580	0.879783
C92	C	0.042813	1.445190	0.766083
C93	C	1.276750	0.510965	-0.302801
C94	C	1.408038	0.411573	-0.416503
C95	C	1.452198	0.422713	-0.521500
C96	C	1.365072	0.533256	-0.512792
C97	C	1.233793	0.632646	-0.399091
C98	C	1.233738	0.632689	0.170609
C99	C	1.365013	0.533318	0.153050
C100	C	1.452163	0.422765	0.074645
C101	C	1.408042	0.411585	0.013786
C102	C	1.276775	0.510956	0.031339
C103	C	0.164826	1.099809	0.705066
C104	C	0.068679	1.099804	0.801216
C105	C	0.111699	0.978087	0.661943
C106	C	0.207853	0.978086	0.565795
H107	H	0.536344	0.722712	0.234467
H108	H	0.890971	0.928477	-0.355636
C109	C	0.082467	0.911153	0.638231
H110	H	0.015221	0.919879	0.712353
H111	H	0.179779	0.831091	0.584135
H112	H	0.034330	0.941217	0.603592
C113	C	0.930735	0.911112	-0.563685
H114	H	1.013683	0.874849	-0.562758
H115	H	0.917084	0.963632	-0.594365
H116	H	0.955964	0.853528	-0.613810
H117	H	0.035723	1.576001	0.385201
H118	H	0.264514	0.928524	0.469947
C119	C	0.807989	0.225271	0.098654
H120	H	0.713042	0.247759	0.146122
H121	H	0.867367	0.180311	0.122232
H122	H	0.867362	0.180315	0.015692
H123	H	0.019203	1.195090	0.362160
C124	C	-0.227305	1.787860	0.439416
H125	H	-0.311799	1.845431	0.441148
H126	H	-0.161381	1.796597	0.411900
H127	H	-0.267923	1.796587	0.518428
H128	H	1.018776	0.233400	-0.006740
H129	H	-0.124420	1.535526	0.965287
H130	H	0.385614	1.149359	-0.277382
H131	H	0.113807	1.355138	0.132518
C132	C	0.048393	1.579148	0.554314
H133	H	-0.022287	1.659217	0.575799
H134	H	0.045430	1.542920	0.507954
H135	H	0.151985	1.542901	0.507956
C136	C	-0.227236	1.787844	0.793051
H137	H	-0.182148	1.780235	0.714232
H138	H	-0.226065	1.829150	0.835390
H139	H	-0.332614	1.829146	0.835411
C140	C	-0.319953	1.764455	1.013556
H141	H	-0.333777	1.741998	1.074848
H142	H	-0.410855	1.809419	1.021499
H143	H	-0.304285	1.809393	1.021480
H144	H	0.113724	1.355194	0.759012
H145	H	1.105367	0.321593	-0.050023
H146	H	0.257381	0.882744	0.004810
C147	C	1.503902	0.289978	-0.072446
H148	H	1.458843	0.297538	-0.106185
H149	H	1.502726	0.248697	-0.028903
H150	H	1.609279	0.248679	-0.135462
C151	C	-0.201397	1.219628	0.390273
H152	H	-0.226715	1.270901	0.448918
H153	H	-0.229869	1.184274	0.425156
H154	H	-0.257379	1.262128	0.363565
C155	C	1.076453	0.498690	-0.035376
H156	H	1.033081	0.573706	-0.013621
H157	H	1.139621	0.457379	-0.120166
H158	H	1.139235	0.457418	-0.013431
H159	H	1.401044	0.542313	-0.598294
H160	H	0.392014	0.735971	0.306621
H161	H	1.559096	0.341774	-0.614075
H162	H	1.240808	0.501872	-0.217321
H163	H	1.240864	0.501835	-0.018213
C164	C	1.137959	0.754224	-0.389532
H165	H	1.183061	0.746613	-0.468352
H166	H	1.139102	0.795544	-0.347176
H167	H	1.032590	0.795513	-0.347190
H168	H	0.186448	1.149367	0.722633
H169	H	0.431764	0.882800	0.004848
H170	H	1.400913	0.542443	0.202617
H171	H	1.162789	0.722697	0.234460
C172	C	1.503843	0.289991	-0.426060
H173	H	1.458716	0.297600	-0.347240
H174	H	1.609215	0.248681	-0.468400
H175	H	1.502673	0.248693	-0.468419
H176	H	0.171216	0.756225	0.417000
H177	H	0.385612	1.149351	-0.102937
H178	H	0.234937	0.575928	0.385161
H179	H	-0.124294	1.535392	0.164339
H180	H	-0.282413	1.735974	0.306578
H181	H	1.559045	0.341861	0.060364
H182	H	0.012031	1.149357	0.897053
