data_functionalizedCrystal
_audit_creation_method	'MofGen! by Chris Wilmer'
_symmetry_space_group_name_H-M	'P1'
_symmetry_Int_Tables_number	1
_symmetry_cell_setting	triclinic
loop_
_symmetry_equiv_pos_as_xyz
  x,y,z
_cell_length_a	23.532355
_cell_length_b	9.130313
_cell_length_c	10.654550
_cell_angle_alpha	90.006312
_cell_angle_beta	83.656214
_cell_angle_gamma	89.998772
loop_
_atom_site_label
_atom_site_type_symbol
_atom_site_fract_x
_atom_site_fract_y
_atom_site_fract_z
O1	O	0.756270	0.121600	0.152131
O2	O	0.590546	0.121646	0.174256
O3	O	0.677218	0.121613	-0.019668
O4	O	0.669598	0.121633	0.346055
O5	O	0.677211	-0.121986	-0.019680
O6	O	0.590539	-0.121952	0.174244
O7	O	0.756262	-0.121999	0.152119
Cu8	Cu	0.673400	-0.144218	0.163180
Cu9	Cu	0.673409	0.143866	0.163194
O10	O	0.669590	-0.121965	0.346043
C11	C	0.569322	-0.000147	0.173697
C12	C	0.506093	-0.000130	0.172034
N13	N	0.673398	-0.346841	0.163169
C14	C	0.638574	-0.576881	0.087427
C15	C	0.638567	-0.423545	0.087410
C16	C	0.708243	-0.423482	0.238941
C17	C	0.708253	-0.576816	0.238950
C18	C	0.114007	-0.132977	0.161580
C19	C	0.054597	-0.132983	0.159998
O20	O	0.023870	-0.245911	0.159132
N21	N	0.024888	-0.000198	0.159220
C22	C	0.054592	0.132602	0.160012
O23	O	0.023866	0.245546	0.159204
C24	C	0.114001	0.132606	0.161585
C25	C	0.143707	-0.000188	0.162375
C26	C	0.143713	-0.265760	0.162369
C27	C	0.203118	-0.265754	0.163953
C28	C	0.232818	-0.132965	0.164748
C29	C	0.203112	-0.000181	0.163959
C30	C	0.143704	0.265404	0.162367
C31	C	0.203118	0.265397	0.163939
C32	C	0.232823	0.132603	0.164730
C33	C	0.292217	0.132614	0.166339
N34	N	0.321927	-0.000171	0.167116
C35	C	0.292227	-0.132960	0.166321
C36	C	-0.070171	0.132583	0.156706
C37	C	-0.129580	0.132580	0.155143
C38	C	-0.129570	-0.133005	0.155127
C39	C	-0.070161	-0.133001	0.156699
C40	C	-0.040462	-0.000202	0.157484
C41	C	0.416983	-0.132937	0.169649
C42	C	0.476393	-0.132919	0.171239
C43	C	0.476379	0.132665	0.171248
C44	C	0.416973	0.132648	0.169665
C45	C	0.387277	-0.000165	0.168862
O46	O	0.322983	0.245484	0.167201
O47	O	0.322961	-0.245885	0.167113
C48	C	0.777486	-0.000202	0.152678
C49	C	0.840716	-0.000210	0.154341
C50	C	0.676655	-0.000186	-0.066454
C51	C	0.674981	-0.000183	-0.205844
N52	N	0.673415	0.346488	0.163195
C53	C	0.726012	-0.000197	-0.286967
C54	C	0.724436	-0.000178	-0.417937
C55	C	0.620793	-0.000139	-0.386648
C56	C	0.622370	-0.000146	-0.255680
C57	C	0.670154	-0.000164	0.392829
C58	C	0.671828	-0.000157	0.532218
H59	H	0.610208	-0.639323	0.025741
C60	C	0.600237	-0.339258	0.004062
N61	N	0.571365	-0.275775	-0.058718
H62	H	0.580811	-0.000131	-0.189626
C63	C	0.746562	-0.339102	0.322267
N64	N	0.775425	-0.275549	0.385030
H65	H	0.765991	-0.000186	-0.483984
C66	C	0.235783	0.411490	0.164806
N67	N	0.260385	0.521527	0.165464
C68	C	0.384295	0.278727	0.168810
N69	N	0.359687	0.388757	0.168155
C70	C	0.746574	-0.661114	0.322325
N71	N	0.775434	-0.724608	0.385125
H72	H	0.768852	-0.000223	-0.246395
C73	C	-0.162250	-0.279077	0.154239
N74	N	-0.186867	-0.389092	0.153568
H75	H	0.577958	-0.000112	-0.427241
C76	C	0.509067	-0.279009	0.172102
N77	N	0.533674	-0.389041	0.172748
H78	H	0.392811	-0.241086	0.169006
C79	C	0.111052	-0.411852	0.161512
N80	N	0.086455	-0.521899	0.160881
C81	C	-0.037489	-0.279083	0.157557
N82	N	-0.012884	-0.389119	0.158197
H83	H	-0.153762	0.240714	0.154519
C84	C	-0.037508	0.278682	0.157585
N85	N	-0.012910	0.388723	0.158245
H86	H	0.227300	-0.373889	0.164589
C87	C	0.509060	0.278727	0.172114
N88	N	0.533678	0.388741	0.172755
H89	H	0.119528	0.373539	0.161722
