data_functionalizedCrystal
_audit_creation_method	'MofGen! by Chris Wilmer'
_symmetry_space_group_name_H-M	'P1'
_symmetry_Int_Tables_number	1
_symmetry_cell_setting	triclinic
loop_
_symmetry_equiv_pos_as_xyz
  x,y,z
_cell_length_a	12.759401
_cell_length_b	19.077068
_cell_length_c	12.759393
_cell_angle_alpha	92.260983
_cell_angle_beta	89.982620
_cell_angle_gamma	92.327081
loop_
_atom_site_label
_atom_site_type_symbol
_atom_site_fract_x
_atom_site_fract_y
_atom_site_fract_z
Zn1	Zn	1.589350	-0.280154	-0.610733
Zn2	Zn	1.582149	-0.397870	-0.442092
Zn3	Zn	1.413653	-0.280191	-0.435075
Zn4	Zn	1.406545	-0.397816	-0.617730
O5	O	1.497924	-0.339008	-0.526407
O6	O	1.735415	-0.295777	-0.588371
O7	O	1.559758	-0.382298	-0.294142
O8	O	1.442948	-0.181696	-0.452511
O9	O	1.730124	-0.382262	-0.464471
O10	O	1.572031	-0.181668	-0.581567
O11	O	1.435965	-0.295840	-0.288987
O12	O	1.265689	-0.295787	-0.459296
O13	O	1.430833	-0.382169	-0.763821
O14	O	1.260467	-0.382205	-0.593492
O15	O	1.565139	-0.295724	-0.758680
O16	O	1.552866	-0.496353	-0.471256
O17	O	1.423851	-0.496313	-0.600296
C18	C	1.224957	-0.338995	-0.526392
C19	C	1.108180	-0.339006	-0.526412
C20	C	1.050622	-0.384076	-0.596181
C21	C	0.940897	-0.384085	-0.596193
C22	C	0.946299	-0.293952	-0.456658
C23	C	1.056021	-0.293940	-0.456652
C24	C	1.047503	-0.436116	-0.676738
C25	C	0.937778	-0.436125	-0.676750
C26	C	1.486834	-0.521871	-0.537320
C27	C	1.482186	-0.600101	-0.542023
C28	C	1.547226	-0.636851	-0.477104
C29	C	1.542860	-0.710356	-0.481534
C30	C	1.473449	-0.747109	-0.550879
C31	C	1.408407	-0.710354	-0.615805
C32	C	1.412778	-0.636850	-0.611380
C33	C	1.453171	-0.966942	-0.571318
C34	C	1.448802	-1.040451	-0.575736
C35	C	1.583258	-1.040447	-0.441466
C36	C	1.587619	-0.966942	-0.437042
C37	C	1.522580	-0.930193	-0.501972
N38	N	1.468983	-0.822243	-0.555406
N39	N	1.527053	-0.855061	-0.497449
C40	C	1.771956	-0.339021	-0.526423
C41	C	1.888733	-0.339027	-0.526430
C42	C	1.497996	-0.338936	-0.800437
C43	C	1.498027	-0.338906	-0.917212
C44	C	1.509086	-0.155431	-0.515476
C45	C	1.513842	-0.077201	-0.510817
C46	C	1.433597	-0.293879	-0.969395
C47	C	1.433630	-0.293858	-1.079118
C48	C	1.562533	-0.383893	-1.084465
C49	C	1.562493	-0.383917	-0.974744
C50	C	1.359180	-0.241895	-0.966308
C51	C	1.359213	-0.241874	-1.076031
C52	C	1.497915	-0.339028	-0.253441
C53	C	1.498100	-0.338861	-0.136655
H54	H	1.078396	-0.487868	-0.650548
F55	F	1.343556	-0.597739	-0.680478
H56	H	1.102882	-0.257235	-0.399845
F57	F	1.256650	-0.267387	-1.122037
F58	F	1.383949	-0.927841	-0.640422
F59	F	1.087613	-0.417117	-0.782004
F60	F	0.890779	-0.245992	-0.382419
H61	H	1.384318	-0.187356	-1.102569
H62	H	1.614943	-0.420592	-0.932262
H63	H	0.904952	-0.416668	-0.752938
F64	F	1.631137	-0.431795	-1.145704
F65	F	1.251651	-0.260976	-0.928523
F66	F	1.334539	-0.749472	-0.689613
F67	F	1.621098	-0.597741	-0.403291
F68	F	1.612088	-0.749464	-0.412441
F69	F	0.894533	-0.507349	-0.652314
F70	F	1.401379	-0.174230	-0.917795
H71	H	1.644139	-0.937019	-0.380577
H72	H	1.636210	-1.070376	-0.388605
H73	H	1.392291	-1.070374	-0.632223
