data_functionalizedCrystal
_audit_creation_method	'MofGen! by Chris Wilmer'
_symmetry_space_group_name_H-M	'P1'
_symmetry_Int_Tables_number	1
_symmetry_cell_setting	triclinic
loop_
_symmetry_equiv_pos_as_xyz
  x,y,z
_cell_length_a	31.640172
_cell_length_b	31.640172
_cell_length_c	14.560432
_cell_angle_alpha	60.002189
_cell_angle_beta	60.007848
_cell_angle_gamma	60.008355
loop_
_atom_site_label
_atom_site_type_symbol
_atom_site_fract_x
_atom_site_fract_y
_atom_site_fract_z
Zr1	Zr	0.407148	0.055457	0.884869
O2	O	0.427842	0.122938	0.738228
O3	O	0.339665	0.034771	0.929804
O4	O	0.339677	0.122939	0.929802
O5	O	0.497369	-0.034779	0.738253
O6	O	0.339678	0.122939	1.080940
O7	O	0.427830	0.034770	0.738230
O8	O	0.339657	-0.034777	1.080944
O9	O	0.497391	0.122937	0.738249
O10	O	0.384752	0.025948	1.061783
O11	O	0.436647	-0.025956	0.949007
O12	O	0.436661	0.077851	0.949005
O13	O	0.488556	0.025947	0.836229
Zr14	Zr	0.518057	-0.055466	1.125952
Zr15	Zr	0.407151	0.055457	1.125916
Zr16	Zr	0.518054	-0.055466	0.884905
Zr17	Zr	0.518070	0.055456	0.884902
Zr18	Zr	0.407135	-0.055464	1.125919
O19	O	0.585540	-0.034780	1.081017
O20	O	0.427846	0.122938	1.080966
O21	O	0.585537	-0.034780	0.738279
O22	O	0.497363	-0.122946	1.272593
O23	O	0.339668	0.034771	1.272542
O24	O	0.497359	-0.122947	0.929855
O25	O	0.427836	0.034770	1.272568
O26	O	0.585528	-0.122948	1.081019
O27	O	0.585527	-0.122948	0.929882
O28	O	0.497375	-0.034779	1.272591
O29	O	0.497393	0.122937	0.929849
O30	O	0.427812	-0.122946	1.080972
O31	O	0.427814	-0.122946	1.272572
O32	O	0.339659	-0.034777	1.272544
O33	O	0.585546	0.034768	0.738277
O34	O	0.585548	0.034768	0.929878
O35	O	0.488544	-0.077859	1.061816
O36	O	0.436649	-0.025955	1.174592
O37	O	0.488558	0.025947	1.061814
O38	O	0.540453	-0.025957	0.949038
C39	C	0.323857	-0.000003	1.005369
C40	C	0.276768	-0.000002	1.005355
C41	C	0.462583	-0.138750	1.005414
C42	C	0.462577	-0.185839	1.005415
C43	C	-0.042356	0.027084	1.064301
C44	C	-0.219351	0.027084	1.064324
O45	O	-0.265275	0.050107	1.114430
N46	N	-0.214393	-0.000008	1.005455
C47	C	-0.165181	-0.027105	0.946582
O48	O	-0.165025	-0.050153	0.896520
C49	C	0.011813	-0.027108	0.946566
C50	C	0.006851	-0.000009	1.005430
C51	C	-0.047316	0.054180	1.123161
C52	C	-0.003070	0.054182	1.123149
C53	C	0.046137	0.027088	1.064278
C54	C	0.051097	-0.000007	1.005418
C55	C	0.061024	-0.054207	0.887700
C56	C	0.105273	-0.054206	0.887704
C57	C	0.100310	-0.027108	0.946568
C58	C	0.144550	-0.027099	0.946536
N59	N	0.139592	-0.000006	1.005405
C60	C	0.090385	0.027087	1.064276
C61	C	-0.258108	-0.027101	0.946593
C62	C	-0.302356	-0.027100	0.946595
C63	C	-0.356523	0.027088	1.064339
C64	C	-0.312274	0.027090	1.064329
C65	C	-0.263066	-0.000009	1.005462
C66	C	0.183308	0.027090	1.064247
C67	C	0.227561	0.027091	1.064226
C68	C	0.281724	-0.027099	0.946488
C69	C	0.237475	-0.027099	0.946503
C70	C	0.188266	-0.000003	1.005391
O71	O	0.190489	-0.050114	0.896466
O72	O	0.090240	0.050122	1.114351
C73	C	-0.086602	0.027082	1.064312
C74	C	-0.081642	-0.000014	1.005452
C75	C	-0.032436	-0.027107	0.946581
C76	C	-0.125891	-0.000012	1.005455
C77	C	-0.175097	0.027081	1.064326
C78	C	-0.180056	0.054173	1.123195
C79	C	-0.135809	0.054176	1.123183
C80	C	-0.027477	-0.054199	0.887712
C81	C	-0.071726	-0.054199	0.887727
C82	C	-0.120933	-0.027105	0.946599
C83	C	0.489703	-0.504967	1.064285
C84	C	0.489713	-0.681963	1.064285
O85	O	0.512771	-0.727891	1.114324
N86	N	0.462623	-0.677000	1.005402
C87	C	0.435531	-0.627783	0.946509
O88	O	0.412493	-0.627623	0.896416
C89	C	0.435523	-0.450789	0.946504
C90	C	0.462611	-0.455756	1.005400
C91	C	0.516789	-0.509932	1.123176
C92	C	0.516784	-0.465686	1.123180
C93	C	0.489692	-0.416474	1.064295
C94	C	0.462606	-0.411510	1.005404
C95	C	0.408434	-0.401574	0.887605
C96	C	0.408436	-0.357325	0.887606
C97	C	0.435524	-0.362292	0.946502
C98	C	0.435509	-0.318052	0.946523
N99	N	0.462600	-0.323015	1.005406
C100	C	0.489691	-0.372226	1.064292
C101	C	0.435536	-0.720710	0.946517
C102	C	0.435537	-0.764958	0.946520
C103	C	0.489720	-0.819135	1.064295
C104	C	0.489716	-0.774885	1.064298
C105	C	0.462626	-0.725673	1.005400
C106	C	0.489678	-0.279303	1.064298
C107	C	0.489668	-0.235051	1.064301
C108	C	0.435487	-0.180878	0.946522
C109	C	0.435494	-0.225127	0.946523
C110	C	0.462593	-0.274341	1.005413
O111	O	0.412468	-0.272109	0.896500
O112	O	0.512735	-0.372375	1.114357
C113	C	0.489708	-0.549214	1.064281
C114	C	0.462622	-0.544249	1.005391
C115	C	0.435530	-0.495038	0.946505
C116	C	0.462623	-0.588497	1.005393
C117	C	0.489714	-0.637709	1.064279
C118	C	0.516805	-0.642672	1.123162
C119	C	0.516799	-0.598425	1.123167
C120	C	0.408440	-0.490075	0.887622
C121	C	0.408447	-0.534323	0.887623
C122	C	0.435538	-0.583535	0.946509
C123	C	0.601348	-0.000006	1.005452
C124	C	0.648437	-0.000006	1.005466
C125	C	0.462599	-0.000005	0.703897
C126	C	0.462598	-0.000005	0.601567
C127	C	0.462622	0.138742	1.005407
C128	C	0.462628	0.185831	1.005406
C129	C	0.408399	-0.054186	0.719291
C130	C	0.381299	-0.081275	0.730076
C131	C	0.381301	-0.081273	0.633924
C132	C	0.408406	-0.054182	0.526977
C133	C	0.435506	-0.027094	0.516192
C134	C	0.435500	-0.027097	0.612353
C135	C	0.489707	0.027084	0.398469
C136	C	0.489703	0.027087	0.494620
C137	C	0.516812	0.054176	0.291523
C138	C	0.543910	0.081268	0.280736
C139	C	0.543907	0.081266	0.376897
C140	C	0.516803	0.054175	0.483835
C141	C	0.462606	-0.000004	1.306924
C142	C	0.462607	-0.000004	1.409255
C143	C	0.323876	0.138743	1.005366
C144	C	0.276793	0.185833	1.005350
C145	C	0.323860	-0.000002	1.306882
C146	C	0.276772	-0.000002	1.409199
C147	C	0.462587	-0.138750	1.306927
C148	C	0.462581	-0.185839	1.409259
C149	C	0.462618	0.138741	0.703894
C150	C	0.462624	0.185830	0.601562
C151	C	0.601345	-0.000006	0.703939
C152	C	0.648433	-0.000007	0.601622
C153	C	0.601329	-0.138752	1.005456
C154	C	0.648412	-0.185841	1.005471
C155	C	0.281779	0.235044	0.946474
C156	C	0.237544	0.279294	0.946465
C157	C	0.188324	0.274331	1.005325
C158	C	0.183340	0.225115	1.064208
C159	C	0.227574	0.180866	1.064224
C160	C	0.227565	0.027096	1.398363
C161	C	0.183316	0.027107	1.494491
C162	C	0.188276	0.000017	1.601455
C163	C	0.237489	-0.027082	1.612289
C164	C	0.281736	-0.027090	1.516161
C165	C	0.435490	-0.180859	1.516193
C166	C	0.435487	-0.225100	1.612354
C167	C	0.462572	-0.274320	1.601579
C168	C	0.489667	-0.279299	1.494634
C169	C	0.489673	-0.235058	1.398475
C170	C	0.489720	0.180850	0.494628
C171	C	0.489737	0.225091	0.398467
C172	C	0.462654	0.274311	0.409242
C173	C	0.435557	0.279290	0.516188
C174	C	0.435543	0.235050	0.612346
C175	C	0.697640	-0.027100	0.612458
C176	C	0.741889	-0.027099	0.516330
C177	C	0.736929	-0.000007	0.409367
C178	C	0.687716	0.027090	0.398533
C179	C	0.643469	0.027091	0.494660
C180	C	0.697623	-0.180863	0.946599
C181	C	0.741866	-0.225104	0.946590
C182	C	0.736897	-0.274324	1.005461
C183	C	0.687681	-0.279301	1.064335
C184	C	0.643439	-0.235060	1.064336
H185	H	0.223515	0.049160	1.112159
H186	H	0.152310	0.310366	1.005304
H187	H	0.772962	-0.000012	0.331103
H188	H	0.143259	0.221083	1.112132
C189	C	0.589342	0.056889	0.482732
H190	H	0.563696	0.053015	0.555295
H191	H	0.585470	0.043505	0.442772
H192	H	0.585466	0.092535	0.442779
H193	H	0.152243	0.000027	1.679718
C194	C	0.222101	0.056899	1.280713
H195	H	0.255498	0.053014	1.225004
H196	H	0.203725	0.092543	1.272275
H197	H	0.203713	0.043519	1.272276
C198	C	0.519540	0.219606	0.280842
H199	H	0.535658	0.183955	0.288206
H200	H	0.545187	0.235730	0.240886
H201	H	0.496154	0.235741	0.240876
C202	C	0.462565	-0.322981	1.707356
H203	H	0.482579	-0.353011	1.685632
H204	H	0.428047	-0.322981	1.750846
H205	H	0.477075	-0.322976	1.750843
C206	C	0.682222	-0.333444	1.129107
H207	H	0.715622	-0.359075	1.120682
H208	H	0.663838	-0.337340	1.100052
H209	H	0.663846	-0.337324	1.206568
H210	H	0.241520	-0.049138	1.699391
H211	H	0.781936	-0.221041	0.898648
H212	H	0.701679	-0.140789	0.898657
C213	C	0.682266	0.056884	0.280870
H214	H	0.715669	0.052994	0.225181
H215	H	0.663888	0.092531	0.272407
H216	H	0.663887	0.043497	0.272425
H217	H	0.321802	-0.049159	1.525000
C218	C	0.242932	-0.056931	0.881811
H219	H	0.278577	-0.073077	0.846771
H220	H	0.226796	-0.033572	0.826092
H221	H	0.226798	-0.082571	0.932696
H222	H	0.359232	-0.103333	0.817161
H223	H	0.538853	-0.550000	1.171127
C224	C	0.408393	-0.054182	0.825055
H225	H	0.428411	-0.034166	0.803315
H226	H	0.422887	-0.088700	0.868570
H227	H	0.373873	-0.039667	0.868523
C228	C	0.405715	0.240531	0.729970
H229	H	0.409580	0.207137	0.785705
H230	H	0.370079	0.258919	0.738341
H231	H	0.419088	0.258916	0.738435
C232	C	0.785567	-0.322984	1.005505
H233	H	0.815585	-0.312965	0.962032
H234	H	0.785589	-0.343019	0.973997
H235	H	0.785556	-0.342983	1.080535
C236	C	0.405764	0.333434	0.528026
H237	H	0.409650	0.359064	0.455437
H238	H	0.419136	0.337325	0.567980
H239	H	0.370116	0.337318	0.567949
C240	C	0.129189	0.056911	1.482554
H241	H	0.132576	0.073034	1.405081
H242	H	0.110802	0.082556	1.517590
H243	H	0.110801	0.033522	1.517611
H244	H	0.321796	-0.049156	0.898552
H245	H	0.781955	-0.049166	0.525173
H246	H	0.511719	-0.319380	1.485877
C247	C	0.519483	-0.333432	1.129081
H248	H	0.535608	-0.330044	1.164158
H249	H	0.545125	-0.351821	1.078278
H250	H	0.496096	-0.351821	1.184798
H251	H	0.603371	-0.239122	1.112283
H252	H	0.462669	0.310331	0.330935
H253	H	0.413433	-0.140786	1.524988
C254	C	0.519468	-0.240543	1.280854
H255	H	0.535591	-0.276193	1.288219
H256	H	0.545111	-0.224412	1.240884
H257	H	0.496078	-0.224415	1.240901
C258	C	0.703107	-0.056904	0.730105
H259	H	0.738753	-0.073034	0.722775
H260	H	0.686974	-0.082545	0.770056
H261	H	0.686975	-0.033516	0.770057
C262	C	0.405676	-0.219614	1.729979
H263	H	0.389540	-0.183964	1.722616
H264	H	0.429054	-0.235740	1.769953
H265	H	0.380034	-0.235748	1.769927
H266	H	-0.316319	0.049155	1.112262
C267	C	0.519520	0.126714	0.482753
H268	H	0.535663	0.130092	0.405288
H269	H	0.496137	0.108323	0.517796
H270	H	0.545155	0.108332	0.517827
C271	C	0.546607	-0.696808	1.187933
H272	H	0.562739	-0.693433	1.223015
H273	H	0.572243	-0.715190	1.137114
H274	H	0.523219	-0.715197	1.243644
C275	C	0.516813	0.054179	0.185757
H276	H	0.496787	0.034171	0.207495
H277	H	0.551328	0.039671	0.142273
H278	H	0.502312	0.088702	0.142259
H279	H	0.143244	0.049153	1.112200
H280	H	0.413428	-0.140803	0.898582
C281	C	0.378642	-0.396100	0.822808
H282	H	0.362516	-0.360451	0.787730
H283	H	0.353001	-0.412233	0.873602
H284	H	0.402034	-0.412231	0.767091
H285	H	-0.007115	0.076246	1.171085
H286	H	-0.139855	0.076241	1.171116
H287	H	-0.396596	0.049150	1.112272
C288	C	-0.296895	-0.056901	0.881835
H289	H	-0.330294	-0.053020	0.890254
H290	H	-0.278514	-0.092545	0.910913
H291	H	-0.278514	-0.043518	0.804373
C292	C	-0.101440	0.083989	1.187917
H293	H	-0.098048	0.100126	1.222959
H294	H	-0.119835	0.060611	1.243641
H295	H	-0.119823	0.109632	1.137087
H296	H	-0.218042	-0.049170	0.898654
H297	H	0.065075	-0.076274	0.839769
H298	H	-0.220128	0.076236	1.171126
C299	C	0.159401	-0.084011	0.822941
H300	H	0.185046	-0.080134	0.831367
H301	H	0.163275	-0.070633	0.745488
H302	H	0.163277	-0.119658	0.852032
C303	C	-0.066260	-0.084012	0.822979
H304	H	-0.030615	-0.100151	0.787930
H305	H	-0.082395	-0.060635	0.767263
H306	H	-0.082393	-0.109654	0.873821
H307	H	0.511781	-0.859211	1.112238
C308	C	0.243033	0.333426	0.881680
H309	H	0.209642	0.359071	0.890104
H310	H	0.261414	0.337301	0.804228
H311	H	0.261424	0.337302	0.910759
C312	C	0.026646	-0.084000	0.822941
H313	H	0.023256	-0.100129	0.787880
H314	H	0.045040	-0.109640	0.873745
H315	H	0.045029	-0.060608	0.767213
H316	H	0.511727	-0.239101	1.112265
H317	H	0.565979	0.103321	0.193658
C318	C	0.408415	-0.054186	0.421210
H319	H	0.428441	-0.034176	0.355975
H320	H	0.373902	-0.039681	0.421176
H321	H	0.422921	-0.088709	0.421218
H322	H	0.538842	-0.469737	1.171138
H323	H	0.223507	0.140798	1.112164
H324	H	0.511775	-0.778935	1.112253
C325	C	0.351492	-0.111069	0.645783
H326	H	0.335347	-0.127202	0.723243
H327	H	0.374873	-0.136707	0.610728
H328	H	0.325857	-0.087676	0.610707
H329	H	0.413471	-0.760907	0.898578
H330	H	0.413475	-0.680641	0.898553
H331	H	0.413420	-0.221081	0.898602
C332	C	0.378636	-0.303192	0.822821
H333	H	0.382515	-0.277547	0.831245
H334	H	0.342995	-0.299316	0.851879
H335	H	0.392024	-0.299313	0.745360
C336	C	0.378649	-0.528853	0.822830
H337	H	0.362520	-0.493205	0.787754
H338	H	0.353012	-0.544990	0.873626
H339	H	0.402043	-0.544983	0.767112
C340	C	0.335915	0.240512	0.881737
H341	H	0.332541	0.276161	0.846690
H342	H	0.354304	0.224383	0.826020
H343	H	0.354294	0.224376	0.932580
C344	C	0.546601	-0.603895	1.187942
H345	H	0.562739	-0.639543	1.222997
H346	H	0.523220	-0.587765	1.243656
H347	H	0.572243	-0.587760	1.137122
H348	H	0.386379	-0.450008	0.839667
H349	H	0.565982	0.103317	0.368103
H350	H	0.516797	0.054172	0.562135
