data_functionalizedCrystal
_audit_creation_method	'MofGen! by Chris Wilmer'
_symmetry_space_group_name_H-M	'P1'
_symmetry_Int_Tables_number	1
_symmetry_cell_setting	triclinic
loop_
_symmetry_equiv_pos_as_xyz
  x,y,z
_cell_length_a	11.792241
_cell_length_b	10.654559
_cell_length_c	9.730223
_cell_angle_alpha	90.001240
_cell_angle_beta	90.003985
_cell_angle_gamma	84.341050
loop_
_atom_site_label
_atom_site_type_symbol
_atom_site_fract_x
_atom_site_fract_y
_atom_site_fract_z
O1	O	1.507305	0.172129	-0.114148
O2	O	1.177005	0.189870	-0.114179
O3	O	1.349744	-0.001761	-0.114163
O4	O	1.334566	0.363759	-0.114164
O5	O	1.349742	-0.001756	0.114417
O6	O	1.177003	0.189874	0.114401
O7	O	1.507303	0.172134	0.114432
Zn8	Zn	1.342153	0.181005	0.150708
Zn9	Zn	1.342156	0.180999	-0.150455
O10	O	1.334564	0.363764	0.114416
C11	C	1.348626	-0.048553	0.000124
C12	C	1.345286	-0.187986	0.000115
C13	C	1.134711	0.188758	0.000107
C14	C	1.008689	0.185422	0.000095
C15	C	1.240440	-0.239229	0.000102
C16	C	1.237308	-0.370243	0.000112
C17	C	1.443877	-0.398759	0.000143
C18	C	1.447008	-0.267748	0.000143
C19	C	1.138718	-0.159467	0.000074
C20	C	1.033864	-0.210710	0.000059
C21	C	1.030732	-0.341723	0.000069
C22	C	1.132454	-0.421494	0.000094
C23	C	0.777963	0.179289	0.000134
C24	C	0.906356	0.182697	0.000112
C25	C	1.549598	0.173246	0.000143
C26	C	1.675619	0.176581	0.000146
C27	C	1.335682	0.410556	0.000126
C28	C	1.339023	0.549990	0.000126
N29	N	1.342159	0.181009	0.356245
N30	N	1.342158	0.180985	-0.355992
C31	C	1.418668	0.096184	0.428178
C32	C	1.418665	0.096168	0.572061
C33	C	1.265641	0.265814	0.572065
C34	C	1.265640	0.265822	0.428184
C35	C	1.495188	0.011370	0.356239
C36	C	1.571703	-0.073461	0.428172
C37	C	1.571700	-0.073476	0.572055
C38	C	1.495182	0.011339	0.644004
H39	H	1.141257	-0.052788	0.000063
H40	H	1.203338	0.334893	0.369616
H41	H	1.495199	0.011377	0.239082
F42	F	1.129115	-0.560931	0.000122
H43	H	1.203344	0.334869	0.630655
F44	F	0.925611	-0.125811	0.000047
H45	H	1.526694	-0.463718	0.000161
H46	H	1.532382	-0.226026	0.000156
H47	H	1.633996	-0.142522	0.369583
F48	F	0.919140	-0.396255	0.000068
H49	H	1.495178	0.011311	0.761164
H50	H	1.633994	-0.142557	0.630622
