data_functionalizedCrystal
_audit_creation_method	'MofGen! by Chris Wilmer'
_symmetry_space_group_name_H-M	'P1'
_symmetry_Int_Tables_number	1
_symmetry_cell_setting	triclinic
loop_
_symmetry_equiv_pos_as_xyz
  x,y,z
_cell_length_a	10.654550
_cell_length_b	15.995292
_cell_length_c	9.730223
_cell_angle_alpha	89.998793
_cell_angle_beta	89.999957
_cell_angle_gamma	83.976773
loop_
_atom_site_label
_atom_site_type_symbol
_atom_site_fract_x
_atom_site_fract_y
_atom_site_fract_z
O1	O	1.666266	0.117605	-0.114177
O2	O	1.300638	0.128810	-0.114201
O3	O	1.493484	0.001375	-0.114190
O4	O	1.473419	0.245040	-0.114187
O5	O	1.493472	0.001371	0.114390
O6	O	1.300625	0.128807	0.114379
O7	O	1.666254	0.117602	0.114403
Zn8	Zn	1.483437	0.123204	0.150683
Zn9	Zn	1.483454	0.123208	-0.150481
O10	O	1.473407	0.245037	0.114393
C11	C	1.253844	0.127986	0.000086
C12	C	1.114434	0.125524	0.000076
C13	C	1.492662	-0.029827	0.000096
C14	C	1.490213	-0.122794	0.000086
C15	C	1.033945	0.200556	0.000081
C16	C	0.902955	0.198238	0.000105
C17	C	0.932957	0.045850	0.000113
C18	C	1.063944	0.048169	0.000099
C19	C	1.481212	-0.460585	0.000098
C20	C	1.620404	-0.436464	0.000618
C21	C	1.623050	-0.339773	0.000098
C22	C	1.485679	-0.293003	0.000093
C23	C	1.416096	-0.322506	-0.130438
C24	C	1.414421	-0.419306	-0.130543
C25	C	1.411564	-0.419184	0.129395
C26	C	1.416722	-0.322662	0.131116
C27	C	1.488195	-0.198292	0.000085
C28	C	1.478692	-0.555295	0.000096
C29	C	1.713047	0.118426	0.000114
C30	C	1.852457	0.120888	0.000114
C31	C	1.474229	0.276239	0.000103
C32	C	1.476678	0.369206	0.000105
N33	N	1.483435	0.123200	0.356220
N34	N	1.483466	0.123205	-0.356017
C35	C	1.568857	0.066796	0.428150
C36	C	1.568869	0.066796	0.572033
C37	C	1.398035	0.179612	0.572042
C38	C	1.398018	0.179607	0.428162
H39	H	1.075049	0.263543	0.000072
H40	H	0.891831	-0.017130	0.000141
H41	H	1.673762	-0.465171	-0.092460
H42	H	0.837425	0.259337	0.000112
H43	H	1.677877	-0.321049	-0.093628
C44	C	1.662809	0.004740	0.349019
N45	N	1.733573	-0.042006	0.289421
H46	H	1.315010	-0.291225	-0.135295
H47	H	1.129482	-0.012935	0.000099
C48	C	1.696672	-0.313644	0.126504
N49	N	1.752131	-0.293968	0.221714
C50	C	1.304100	0.241698	0.349033
N51	N	1.233383	0.288476	0.289434
C52	C	1.662830	0.004740	0.651150
N53	N	1.733601	-0.042006	0.710741
C54	C	1.304078	0.241655	0.651192
N55	N	1.233307	0.288387	0.710806
H56	H	1.674050	-0.464151	0.094227
H57	H	1.462621	-0.445841	-0.228113
H58	H	1.312365	-0.434449	-0.136460
H59	H	1.464426	-0.302164	-0.227574
C60	C	1.470469	-0.457014	0.263055
N61	N	1.514852	-0.485507	0.363721
H62	H	1.467389	-0.303803	0.227681
C63	C	1.281260	-0.278912	0.141759
N64	N	1.179224	-0.245961	0.149764
H65	H	1.309109	-0.433770	0.130271
