data_functionalizedCrystal
_audit_creation_method	'MofGen! by Chris Wilmer'
_symmetry_space_group_name_H-M	'P1'
_symmetry_Int_Tables_number	1
_symmetry_cell_setting	triclinic
loop_
_symmetry_equiv_pos_as_xyz
  x,y,z
_cell_length_a	19.288864
_cell_length_b	26.809956
_cell_length_c	19.288857
_cell_angle_alpha	89.997823
_cell_angle_beta	83.134677
_cell_angle_gamma	90.022644
loop_
_atom_site_label
_atom_site_type_symbol
_atom_site_fract_x
_atom_site_fract_y
_atom_site_fract_z
O1	O	0.921351	0.041642	0.086638
O2	O	0.719090	0.041608	0.098327
O3	O	0.826068	0.041620	-0.008648
O4	O	0.814374	0.041630	0.193613
O5	O	0.826048	-0.041339	-0.008632
O6	O	0.719070	-0.041351	0.098343
O7	O	0.921331	-0.041317	0.086654
Zn8	Zn	0.820198	-0.054506	0.092501
Zn9	Zn	0.820224	0.054797	0.092480
O10	O	0.814354	-0.041329	0.193630
C11	C	0.693204	0.000124	0.097959
C12	C	0.616100	0.000111	0.096830
N13	N	0.820184	-0.129102	0.092516
C14	C	0.571402	0.000122	0.159598
C15	C	0.498955	0.000127	0.158537
C16	C	0.471210	0.000132	0.094705
C17	C	0.515917	0.000118	0.031929
C18	C	0.588363	0.000108	0.032991
C19	C	0.362956	0.029210	0.044520
C20	C	0.290512	0.029224	0.043460
C21	C	0.247764	0.000162	0.091425
C22	C	0.277468	-0.028907	0.140462
C23	C	0.349914	-0.028918	0.141525
C24	C	0.392656	0.000143	0.093546
C25	C	0.124510	0.000178	0.153048
C26	C	0.052062	0.000180	0.151984
C27	C	0.069026	0.000176	0.025374
C28	C	0.141472	0.000169	0.026439
C29	C	0.169210	0.000172	0.090278
C30	C	0.867588	-0.473723	0.045123
C31	C	0.867604	-0.682600	0.045112
O32	O	0.907880	-0.709600	0.004822
N33	N	0.820228	-0.708729	0.092465
C34	C	0.772841	-0.682635	0.139820
O35	O	0.732540	-0.709652	0.180091
C36	C	0.772822	-0.473758	0.139827
C37	C	0.820206	-0.447632	0.092476
C38	C	0.914967	-0.447597	-0.002224
C39	C	0.914965	-0.395380	-0.002219
C40	C	0.867584	-0.369290	0.045134
C41	C	0.820204	-0.395416	0.092482
C42	C	0.725432	-0.447665	0.187178
C43	C	0.725431	-0.395443	0.187174
C44	C	0.772815	-0.369317	0.139824
C45	C	0.772820	-0.317109	0.139840
N46	N	0.820196	-0.290981	0.092488
C47	C	0.867578	-0.317071	0.045135
C48	C	0.772855	-0.792298	0.139814
C49	C	0.772861	-0.844517	0.139813
C50	C	0.867623	-0.844479	0.045105
C51	C	0.867621	-0.792259	0.045109
C52	C	0.820232	-0.766170	0.092462
C53	C	0.867571	-0.207413	0.045151
C54	C	0.867566	-0.155192	0.045163
C55	C	0.772802	-0.155235	0.139868
C56	C	0.772808	-0.207451	0.139859
C57	C	0.820195	-0.233539	0.092495
O58	O	0.732560	-0.290078	0.180105
O59	O	0.907863	-0.290045	0.004860
C60	C	0.867590	-0.525939	0.045117
C61	C	0.820210	-0.552065	0.092465
C62	C	0.772828	-0.525975	0.139818
C63	C	0.820216	-0.604284	0.092464
C64	C	0.867597	-0.630374	0.045111
C65	C	0.914974	-0.604246	-0.002241
C66	C	0.914972	-0.552029	-0.002235
C67	C	0.725452	-0.552103	0.187170
C68	C	0.725458	-0.604319	0.187161
C69	C	0.772840	-0.630410	0.139808
C70	C	0.947218	0.000168	0.087022
C71	C	1.024321	0.000184	0.088151
C72	C	0.825683	0.000140	-0.034517
C73	C	0.824556	0.000138	-0.111620
N74	N	0.820243	0.129393	0.092460
C75	C	0.824041	0.045359	-0.147840
C76	C	0.822972	0.045363	-0.220286
C77	C	0.822432	0.000143	-0.256512
C78	C	0.822943	-0.045084	-0.220283
C79	C	0.824005	-0.045087	-0.147837
C80	C	0.861426	-0.034492	-0.376736
C81	C	0.860368	-0.034488	-0.449181
C82	C	0.819155	0.000148	-0.479957
C83	C	0.779008	0.034788	-0.438281
C84	C	0.780069	0.034785	-0.365836
C85	C	0.821281	0.000140	-0.335067
C86	C	0.817480	0.045376	-0.594731
C87	C	0.816407	0.045377	-0.667178
C88	C	0.816385	-0.045071	-0.667174
C89	C	0.817451	-0.045071	-0.594728
C90	C	0.818002	0.000153	-0.558511
C91	C	0.814739	0.000152	0.219498
C92	C	0.815866	0.000157	0.296602
H93	H	0.593981	0.000126	0.211581
Cl94	Cl	0.913261	-0.078027	-0.338057
H95	H	0.745448	0.062992	-0.463337
H96	H	0.747379	0.062990	-0.331906
H97	H	0.906157	-0.228648	0.006582
Cl98	Cl	0.974532	-0.362542	-0.061752
H99	H	0.953556	-0.625497	-0.040796
H100	H	0.624757	0.000099	-0.018124
Cl101	Cl	0.974542	-0.519192	-0.061766
H102	H	0.462555	0.000135	0.209652
Cl103	Cl	0.818166	0.102228	-0.549197
H104	H	0.734265	-0.771060	0.178376
H105	H	0.266332	0.052896	0.003534
H106	H	0.906154	-0.133922	0.006604
Cl107	Cl	0.974541	-0.480387	-0.061761
Cl108	Cl	0.927190	-0.759421	-0.014421
H109	H	0.906205	-0.865730	0.006549
H110	H	0.822549	0.082188	-0.249781
H111	H	0.817876	-0.081895	-0.565238
Cl112	Cl	0.416689	0.065749	-0.015786
H113	H	0.815984	0.082203	-0.696666
H114	H	0.374096	-0.052588	0.181450
Cl115	Cl	0.481038	0.000121	-0.048318
Cl116	Cl	0.713239	-0.122427	0.199396
Cl117	Cl	0.713299	-0.877355	0.199351
H118	H	0.686874	-0.625588	0.225725
H119	H	0.822502	-0.081903	-0.249782
H120	H	0.177867	0.000163	-0.024674
Cl121	Cl	0.159384	0.000177	0.233300
H122	H	0.824421	-0.081912	-0.118347
H123	H	0.242664	-0.052573	0.179520
H124	H	0.815940	-0.081890	-0.696668
Cl125	Cl	0.665859	-0.480499	0.246705
Cl126	Cl	0.910841	-0.078033	-0.501567
Cl127	Cl	0.665882	-0.519310	0.246705
Cl128	Cl	-0.004132	0.000192	0.230901
H129	H	0.046436	0.000211	-0.026600
Cl130	Cl	0.665850	-0.362648	0.246706
Cl131	Cl	0.824728	0.102213	-0.102313
Cl132	Cl	0.713245	-0.240294	0.199395
