data_functionalizedCrystal
_audit_creation_method	'MofGen! by Chris Wilmer'
_symmetry_space_group_name_H-M	'P1'
_symmetry_Int_Tables_number	1
_symmetry_cell_setting	triclinic
loop_
_symmetry_equiv_pos_as_xyz
  x,y,z
_cell_length_a	12.594517
_cell_length_b	18.050589
_cell_length_c	12.594510
_cell_angle_alpha	89.966182
_cell_angle_beta	89.978880
_cell_angle_gamma	90.028021
loop_
_atom_site_label
_atom_site_type_symbol
_atom_site_fract_x
_atom_site_fract_y
_atom_site_fract_z
Zn1	Zn	1.627175	-0.295596	-0.601864
Zn2	Zn	1.627029	-0.419813	-0.423887
Zn3	Zn	1.449179	-0.295641	-0.423893
Zn4	Zn	1.449123	-0.419748	-0.601817
O5	O	1.538126	-0.357700	-0.512865
O6	O	1.776101	-0.312082	-0.578272
O7	O	1.603399	-0.403388	-0.274942
O8	O	1.472876	-0.191711	-0.447523
O9	O	1.775994	-0.403344	-0.447513
O10	O	1.603648	-0.191678	-0.578278
O11	O	1.472734	-0.312159	-0.274946
O12	O	1.300226	-0.312096	-0.447478
O13	O	1.472780	-0.403233	-0.750769
O14	O	1.300185	-0.403277	-0.578198
O15	O	1.603594	-0.312019	-0.750804
O16	O	1.603344	-0.523729	-0.447468
O17	O	1.472638	-0.523682	-0.578192
C18	C	1.261585	-0.357685	-0.512834
C19	C	1.143280	-0.357696	-0.512846
C20	C	1.074018	-0.308035	-0.441883
C21	C	1.003187	-0.375779	-0.415704
C22	C	1.003313	-0.289985	-0.539043
C23	C	1.074007	-0.425476	-0.486616
C24	C	1.074139	-0.339636	-0.610001
C25	C	1.003339	-0.407427	-0.583858
C26	C	1.537998	-0.550652	-0.512848
C27	C	1.538040	-0.633198	-0.512876
C28	C	1.467032	-0.832649	-0.583939
C29	C	1.441084	-0.882102	-0.486814
C30	C	1.538145	-0.784328	-0.512890
C31	C	1.564145	-0.881957	-0.610026
C32	C	1.538244	-0.930313	-0.512911
C33	C	1.512146	-0.832693	-0.415713
C34	C	1.635252	-0.832544	-0.538991
C35	C	1.609341	-0.881974	-0.441799
C36	C	1.538085	-0.700230	-0.512878
C37	C	1.538304	-1.014410	-0.512912
C38	C	1.815747	-0.357715	-0.512897
C39	C	1.934053	-0.357722	-0.512911
C40	C	1.538197	-0.357614	-0.790486
C41	C	1.538227	-0.357577	-0.908792
C42	C	1.538284	-0.163994	-0.512906
C43	C	1.538352	-0.081448	-0.512924
C44	C	1.609398	-0.307963	-0.978064
C45	C	1.512327	-0.289784	-1.048854
C46	C	1.635354	-0.375704	-1.048800
C47	C	1.441104	-0.339364	-0.978024
C48	C	1.564197	-0.425315	-0.977964
C49	C	1.467059	-0.407163	-1.048723
C50	C	1.538118	-0.357732	-0.236324
C51	C	1.538294	-0.357559	-0.118019
H52	H	0.972203	-0.232720	-0.561137
Cl53	Cl	1.374074	-0.471922	-1.096346
H54	H	1.406806	-0.810991	-0.643938
H55	H	1.586169	-0.482591	-0.946804
H56	H	1.105052	-0.266080	-0.381797
Cl57	Cl	1.314290	-0.315589	-0.930233
Cl58	Cl	1.121744	-0.513927	-0.452300
Cl59	Cl	0.955069	-0.399389	-0.288898
H60	H	0.972500	-0.449483	-0.643897
Cl61	Cl	1.122291	-0.315998	-0.736775
Cl62	Cl	1.761940	-0.798910	-0.573116
H63	H	1.359010	-0.903886	-0.464757
Cl64	Cl	1.478109	-0.799425	-0.288861
H65	H	1.669521	-0.903496	-0.381655
Cl66	Cl	1.762126	-0.399389	-1.096799
Cl67	Cl	1.598036	-0.915372	-0.736838
H68	H	1.669478	-0.265980	-0.947035
H69	H	1.490384	-0.232492	-1.079994
