data_functionalizedCrystal
_audit_creation_method	'MofGen! by Chris Wilmer'
_symmetry_space_group_name_H-M	'P1'
_symmetry_Int_Tables_number	1
_symmetry_cell_setting	triclinic
loop_
_symmetry_equiv_pos_as_xyz
  x,y,z
_cell_length_a	14.519709
_cell_length_b	23.532407
_cell_length_c	12.996460
_cell_angle_alpha	89.989202
_cell_angle_beta	90.000034
_cell_angle_gamma	83.264412
loop_
_atom_site_label
_atom_site_type_symbol
_atom_site_fract_x
_atom_site_fract_y
_atom_site_fract_z
O1	O	1.222985	0.074654	-0.085444
O2	O	0.954405	0.083445	-0.085477
O3	O	1.096794	-0.003845	-0.085440
O4	O	1.080596	0.161945	-0.085480
O5	O	1.096779	-0.003850	0.085693
O6	O	0.954390	0.083441	0.085657
O7	O	1.222971	0.074649	0.085690
Cu8	Cu	1.088679	0.079044	0.101299
Cu9	Cu	1.088696	0.079050	-0.101086
O10	O	1.080581	0.161940	0.085654
C11	C	0.920042	0.083033	0.000086
C12	C	0.817676	0.081805	0.000075
C13	C	0.442833	0.077286	0.000123
C14	C	0.547126	0.078541	0.000109
C15	C	0.630251	0.079545	0.000098
C16	C	0.734551	0.080801	0.000086
C17	C	1.096374	-0.025066	0.000129
C18	C	1.095134	-0.088288	0.000137
C19	C	1.171619	-0.487046	0.000090
C20	C	1.170467	-0.546452	0.000082
O21	O	1.241369	-0.582876	0.000052
N22	N	1.085816	-0.569460	0.000072
C23	C	1.002312	-0.533059	0.000060
O24	O	0.930205	-0.558084	0.000050
C25	C	1.003465	-0.473655	0.000061
C26	C	1.088121	-0.450650	0.000081
C27	C	1.256268	-0.464041	0.000109
C28	C	1.257420	-0.404640	0.000119
C29	C	1.173922	-0.368244	0.000110
C30	C	1.089273	-0.391249	0.000091
C31	C	0.919962	-0.437255	0.000041
C32	C	0.921123	-0.377847	0.000041
C33	C	1.005779	-0.354843	0.000061
C34	C	1.006927	-0.295451	0.000091
N35	N	1.091578	-0.272443	0.000101
C36	C	1.175075	-0.308839	0.000110
C37	C	0.999897	-0.657813	0.000057
C38	C	0.998743	-0.717216	0.000064
C39	C	1.166898	-0.730604	0.000084
C40	C	1.168051	-0.671200	0.000084
C41	C	1.084548	-0.634804	0.000067
C42	C	1.177487	-0.184092	0.000132
C43	C	1.178632	-0.124685	0.000146
C44	C	1.010477	-0.111301	0.000121
C45	C	1.009332	-0.170703	0.000112
C46	C	1.092845	-0.207098	0.000114
O47	O	0.936062	-0.258992	0.000117
O48	O	1.247171	-0.283806	0.000106
C49	C	1.257333	0.075061	0.000125
C50	C	1.359700	0.076289	0.000130
C51	C	1.081001	0.183160	0.000082
C52	C	1.082241	0.246383	0.000067
N53	N	1.088673	0.079040	0.243647
N54	N	1.088709	0.079050	-0.243433
C55	C	1.088695	0.079051	0.663461
C56	C	1.088686	0.079050	0.546656
C57	C	1.088685	0.079046	0.453557
C58	C	1.088675	0.079044	0.336745
H59	H	1.245491	-0.213718	0.000129
O60	O	0.929397	-0.075916	-0.000073
C61	C	0.833170	-0.001033	-0.088725
C62	C	0.925017	-0.041085	-0.088635
H63	H	0.829607	0.027146	-0.160309
H64	H	0.772425	-0.027645	-0.088808
H65	H	0.829512	0.027080	-0.017074
H66	H	0.928765	-0.069206	-0.160274
H67	H	0.985719	-0.014439	-0.088499
H68	H	0.853122	-0.348216	0.000025
O69	O	0.837702	-0.459563	-0.000167
C70	C	0.693617	-0.466229	-0.088841
C71	C	0.786760	-0.440941	-0.088742
H72	H	0.652396	-0.451174	-0.160435
H73	H	0.707059	-0.514942	-0.088910
H74	H	0.652411	-0.451261	-0.017200
H75	H	0.828014	-0.455866	-0.160371
H76	H	0.773253	-0.392231	-0.088619
H77	H	1.247572	-0.105958	0.000165
H78	H	1.326355	-0.385915	0.000131
H79	H	0.940399	-0.189434	0.000124
O80	O	1.337469	-0.499310	0.000167
C81	C	1.504375	-0.506300	0.000145
C82	C	1.412476	-0.466298	0.000092
H83	H	1.565042	-0.479626	0.000062
H84	H	1.508101	-0.534441	0.071784
H85	H	1.508011	-0.534454	-0.071455
H86	H	1.408779	-0.438109	0.071643
H87	H	1.408789	-0.438197	-0.071595
H88	H	1.236985	-0.652474	0.000100
H89	H	0.929808	-0.735940	0.000065
O90	O	1.247987	-0.765988	-0.000102
C91	C	1.344237	-0.840845	-0.088740
C92	C	1.252388	-0.800796	-0.088669
H93	H	1.347817	-0.869006	-0.160328
H94	H	1.404980	-0.814231	-0.088799
H95	H	1.347885	-0.868977	-0.017093
H96	H	1.248650	-0.772657	-0.160304
H97	H	1.191689	-0.827445	-0.088557
O98	O	0.918691	-0.622541	0.000100
C99	C	0.751785	-0.615543	0.000025
C100	C	0.843680	-0.655549	0.000003
H101	H	0.691114	-0.642214	-0.000075
H102	H	0.748047	-0.587416	0.071663
H103	H	0.748168	-0.587377	-0.071576
H104	H	0.847358	-0.683751	0.071555
H105	H	0.847379	-0.683637	-0.071682
