data_functionalizedCrystal
_audit_creation_method	'MofGen! by Chris Wilmer'
_symmetry_space_group_name_H-M	'P1'
_symmetry_Int_Tables_number	1
_symmetry_cell_setting	triclinic
loop_
_symmetry_equiv_pos_as_xyz
  x,y,z
_cell_length_a	14.853569
_cell_length_b	14.853559
_cell_length_c	16.776229
_cell_angle_alpha	89.995543
_cell_angle_beta	89.994835
_cell_angle_gamma	83.633509
loop_
_atom_site_label
_atom_site_type_symbol
_atom_site_fract_x
_atom_site_fract_y
_atom_site_fract_z
O1	O	1.196364	0.117713	-0.066248
O2	O	0.933904	0.131733	-0.066257
O3	O	1.072148	-0.006507	-0.066251
O4	O	1.058119	0.255954	-0.066253
O5	O	1.072130	-0.006515	0.066325
O6	O	0.933885	0.131725	0.066320
O7	O	1.196345	0.117705	0.066329
Zn8	Zn	1.065112	0.124714	0.087374
Zn9	Zn	1.065137	0.124725	-0.087302
O10	O	1.058101	0.255945	0.066323
C11	C	0.900306	0.131094	0.000030
C12	C	0.800222	0.129189	0.000027
C13	C	0.763848	0.046178	0.000024
C14	C	0.742554	0.210411	0.000032
C15	C	0.648520	0.208625	0.000033
C16	C	0.612146	0.125614	0.000031
C17	C	0.669806	0.044389	0.000028
C18	C	0.590853	0.289848	0.000044
C19	C	0.496812	0.288065	0.000046
C20	C	0.460437	0.205053	0.000038
C21	C	0.518103	0.123825	0.000034
C22	C	0.481729	0.040813	0.000032
C23	C	0.539394	-0.040416	0.000022
C24	C	0.633430	-0.038623	0.000020
C25	C	0.366401	0.203260	0.000040
C26	C	0.387687	0.039024	0.000035
C27	C	1.071505	-0.040100	0.000036
C28	C	1.069604	-0.140184	0.000031
C29	C	1.061550	-0.563354	-0.072237
C30	C	1.061530	-0.563358	0.072303
C31	C	1.063324	-0.469325	0.072304
C32	C	1.064229	-0.422302	0.000033
C33	C	1.063341	-0.469312	-0.072238
C34	C	1.064202	-0.422307	0.144574
C35	C	1.065995	-0.328268	0.144578
C36	C	1.066907	-0.281244	0.072306
C37	C	1.066020	-0.328260	0.000032
C38	C	1.066925	-0.281236	-0.072239
C39	C	1.066045	-0.328252	-0.144514
C40	C	1.064253	-0.422288	-0.144510
C41	C	1.068699	-0.187207	0.072302
C42	C	1.068716	-0.187194	-0.072241
C43	C	1.229943	0.118345	0.000040
C44	C	1.330027	0.120249	0.000038
C45	C	1.058744	0.289538	0.000035
C46	C	1.060645	0.389622	0.000034
N47	N	1.065102	0.124705	0.206585
N48	N	1.065154	0.124726	-0.206513
C49	C	1.126336	0.063518	0.248304
C50	C	1.126341	0.063517	0.331757
C51	C	1.065116	0.124709	0.373488
C52	C	1.003876	0.185899	0.331762
C53	C	1.003867	0.185895	0.248312
C54	C	1.003909	0.185917	0.668309
C55	C	1.003924	0.185918	0.751766
C56	C	1.126382	0.063539	0.751754
C57	C	1.126373	0.063535	0.668304
C58	C	1.065131	0.124722	0.626586
C59	C	1.065125	0.124721	0.536097
C60	C	1.065125	0.124715	0.463975
H61	H	0.810803	-0.019956	0.000013
O62	O	1.192356	-0.002504	0.203302
H63	H	1.182064	0.007768	0.138263
H64	H	0.954004	0.235719	0.214344
H65	H	0.449869	0.354207	0.000052
O66	O	1.192433	-0.002468	0.796749
H67	H	1.182150	0.007803	0.861788
O68	O	0.695622	-0.126229	0.000014
H69	H	0.682666	-0.165957	0.054046
H70	H	1.176201	0.013693	0.365724
O71	O	0.937900	0.251934	0.796781
H72	H	0.895312	0.294482	0.753753
H73	H	1.069458	-0.148915	-0.131093
H74	H	0.772176	0.277995	0.000039
H75	H	1.066775	-0.289952	-0.203357
H76	H	0.358079	-0.028574	0.000029
H77	H	1.176231	0.013710	0.634329
O78	O	0.500152	-0.129945	0.000023
H79	H	0.523299	-0.168983	0.054059
O80	O	1.060587	-0.614056	-0.150188
H81	H	1.122334	-0.603969	-0.184842
H82	H	0.954044	0.235739	0.634349
H83	H	1.063535	-0.460576	-0.203353
H84	H	0.319454	0.269396	0.000055
O85	O	1.060571	-0.614071	0.150251
H86	H	1.059187	-0.687361	0.138110
H87	H	1.063460	-0.460599	0.203413
H88	H	0.620476	0.357431	0.000051
H89	H	0.954021	0.235720	0.365745
O90	O	1.066964	-0.277568	0.222529
H91	H	1.005224	-0.287660	0.257191
O92	O	1.069654	-0.136495	0.150244
H93	H	1.068726	-0.184992	0.200498
