data_functionalizedCrystal
_audit_creation_method	'MofGen! by Chris Wilmer'
_symmetry_space_group_name_H-M	'P1'
_symmetry_Int_Tables_number	1
_symmetry_cell_setting	triclinic
loop_
_symmetry_equiv_pos_as_xyz
  x,y,z
_cell_length_a	12.970454
_cell_length_b	23.096457
_cell_length_c	12.970454
_cell_angle_alpha	59.999995
_cell_angle_beta	89.998490
_cell_angle_gamma	60.003623
loop_
_atom_site_label
_atom_site_type_symbol
_atom_site_fract_x
_atom_site_fract_y
_atom_site_fract_z
Zr1	Zr	0.993329	0.633711	-0.135291
O2	O	0.828726	0.754492	-0.299903
O3	O	1.043773	0.512929	-0.084834
O4	O	1.043794	0.633711	-0.299917
O5	O	0.828706	0.633710	0.084848
O6	O	1.213461	0.633712	-0.299922
O7	O	0.828705	0.633710	-0.084819
O8	O	1.213424	0.417654	0.084823
O9	O	0.828743	0.849767	-0.299897
O10	O	1.191926	0.562609	-0.063312
O11	O	1.065306	0.562608	0.063313
O12	O	1.065330	0.704814	-0.189920
O13	O	0.938711	0.704813	-0.063295
Zr14	Zr	1.263929	0.633711	0.135301
Zr15	Zr	1.263927	0.633711	-0.135299
Zr16	Zr	0.993330	0.633710	0.135309
Zr17	Zr	0.993356	0.785663	-0.135281
Zr18	Zr	1.263901	0.481759	0.135291
O19	O	1.213484	0.754492	0.084844
O20	O	1.213482	0.754494	-0.299914
O21	O	0.828728	0.754491	0.084856
O22	O	1.428531	0.512929	0.299913
O23	O	1.428530	0.512930	-0.084845
O24	O	1.043775	0.512928	0.299925
O25	O	1.428551	0.633712	-0.084838
O26	O	1.213463	0.633710	0.299927
O27	O	1.043797	0.633710	0.299932
O28	O	1.428552	0.633711	0.084830
O29	O	1.043833	0.849768	-0.299903
O30	O	1.213425	0.417654	0.299913
O31	O	1.428514	0.417654	0.299907
O32	O	1.428513	0.417655	0.084816
O33	O	0.828744	0.849767	-0.084806
O34	O	1.043834	0.849767	-0.084812
O35	O	1.191927	0.562608	0.189930
O36	O	1.318547	0.562609	0.063305
O37	O	1.191951	0.704814	-0.063303
O38	O	1.065331	0.704813	0.063322
C39	C	1.128595	0.443642	-0.000007
C40	C	1.128583	0.379134	-0.000011
C41	C	1.222055	0.296349	0.093449
C42	C	1.222064	0.235727	0.093461
C43	C	1.128610	0.257896	-0.000007
C44	C	1.035121	0.340695	-0.093475
C45	C	1.035108	0.401314	-0.093477
N46	N	1.100334	0.201786	-0.110847
N47	N	1.100355	0.144197	-0.110841
C48	C	1.128643	0.075257	-0.000004
N49	N	1.156935	0.066073	0.110831
N50	N	1.156920	0.123666	0.110824
C51	C	1.128614	0.192170	-0.000014
C52	C	1.222130	-0.073265	0.093476
C53	C	1.222130	-0.133886	0.093489
C54	C	1.035192	-0.028915	-0.093457
C55	C	1.035187	0.031703	-0.093460
C56	C	1.128663	0.009523	0.000006
C57	C	0.790151	0.633710	0.000016
C58	C	0.675275	0.633709	0.000019
C59	C	1.467106	0.633712	-0.000005
C60	C	1.581982	0.633712	-0.000009
C61	C	1.128627	0.633712	-0.338474
C62	C	1.128627	0.633712	-0.453351
C63	C	1.128663	0.823780	0.000017
C64	C	1.128674	0.888287	0.000021
C65	C	1.128630	0.633710	0.338484
C66	C	1.128631	0.633709	0.453361
C67	C	1.467072	0.443643	-0.000017
C68	C	1.581937	0.379135	-0.000025
C69	C	1.128596	0.443641	0.338472
C70	C	1.128585	0.379133	0.453345
C71	C	1.467074	0.443642	0.338462
C72	C	1.581939	0.379134	0.453331
C73	C	0.790184	0.823780	-0.338452
C74	C	0.675318	0.888287	-0.453321
C75	C	0.790185	0.823779	0.000028
C76	C	0.675320	0.888286	0.000035
C77	C	1.128661	0.823781	-0.338462
C78	C	1.128672	0.888289	-0.453335
C79	C	1.569784	0.348842	-0.066132
C80	C	1.677701	0.288239	-0.066165
C81	C	1.797770	0.257926	-0.000082
C82	C	1.809921	0.288225	0.066028
C83	C	1.702005	0.348831	0.066052
C84	C	1.194675	0.348839	0.573395
C85	C	1.194660	0.288236	0.681340
C86	C	1.128561	0.257922	0.669233
C87	C	1.062464	0.288222	0.549171
C88	C	1.062472	0.348829	0.441228
C89	C	1.701986	0.348841	0.441178
C90	C	1.809925	0.288238	0.549100
C91	C	1.797813	0.257924	0.669173
C92	C	1.677753	0.288223	0.681323
C93	C	1.569817	0.348830	0.573403
C94	C	0.555271	0.918588	-0.441168
C95	C	0.447333	0.979210	-0.549089
C96	C	0.459444	1.009527	-0.669163
C97	C	0.579504	0.979224	-0.681313
C98	C	0.687440	0.918607	-0.573393
C99	C	0.687473	0.918586	0.066132
C100	C	0.579556	0.979206	0.066134
C101	C	0.459487	1.009521	0.000047
C102	C	0.447337	0.979218	-0.066058
C103	C	0.555253	0.918604	-0.066067
C104	C	1.194783	0.918582	-0.441187
C105	C	1.194818	0.979187	-0.549112
C106	C	1.128734	1.009500	-0.669183
C107	C	1.062621	0.979200	-0.681328
C108	C	1.062594	0.918593	-0.573404
H109	H	0.958986	0.468725	-0.169582
F110	F	1.937689	0.255999	0.536141
F111	F	1.937718	0.255954	0.136358
H112	H	0.959029	0.358741	-0.169576
H113	H	0.371625	1.058877	0.000065
H114	H	1.008817	1.003891	-0.779104
F115	F	0.542352	0.886332	-0.313387
H116	H	0.785230	0.893908	0.119956
F117	F	1.265016	0.255997	0.809107
H118	H	1.885632	0.208576	-0.000110
F119	F	1.442007	0.381094	-0.136476
H120	H	1.128565	0.208573	0.757137
H121	H	0.545340	0.893936	-0.119887
H122	H	1.711918	0.373489	0.119893
H123	H	0.959078	0.099113	-0.169571
F124	F	1.321533	0.272738	0.192931
H125	H	1.298237	-0.091326	0.169587
H126	H	0.959099	-0.010864	-0.169559
H127	H	1.298182	0.168311	0.169571
F128	F	0.319540	1.011488	-0.136385
H129	H	1.248597	0.893911	-0.343429
H130	H	1.008753	0.893934	-0.583313
H131	H	1.667783	0.263576	-0.119999
F132	F	1.442056	0.381060	0.586357
H133	H	1.248653	1.003850	-0.539199
H134	H	1.008658	0.373486	0.343483
F135	F	1.128771	1.074006	-0.784035
F136	F	0.319568	1.011448	-0.536131
H137	H	0.371546	1.058885	-0.757028
H138	H	1.008648	0.263532	0.539332
F139	F	1.321614	-0.221999	0.192975
H140	H	1.248500	0.373513	0.583277
F141	F	1.714905	0.381095	0.313397
H142	H	1.885711	0.208574	0.757038
F143	F	1.664882	0.255953	0.809125
F144	F	0.592375	1.011495	-0.809114
F145	F	0.815201	0.886360	-0.586347
H146	H	0.589474	1.003868	0.119969
