data_functionalizedCrystal
_audit_creation_method	'MofGen! by Chris Wilmer'
_symmetry_space_group_name_H-M	'P1'
_symmetry_Int_Tables_number	1
_symmetry_cell_setting	triclinic
loop_
_symmetry_equiv_pos_as_xyz
  x,y,z
_cell_length_a	6.817900
_cell_length_b	15.301126
_cell_length_c	19.453114
_cell_angle_alpha	95.677656
_cell_angle_beta	101.709288
_cell_angle_gamma	104.177575
loop_
_atom_site_label
_atom_site_type_symbol
_atom_site_fract_x
_atom_site_fract_y
_atom_site_fract_z
V1	V	-4.010329	-0.125699	-0.219214
O2	O	-3.994600	0.005074	-0.214821
O3	O	-3.965377	-0.248310	-0.217926
O4	O	-3.953201	-0.124189	-0.314724
O5	O	-4.006860	-0.119906	-0.117353
V6	V	-4.494641	-0.110007	-0.207005
O7	O	-4.269856	-0.160120	-0.245996
O8	O	-4.685310	-0.075585	-0.180223
O9	O	-4.316386	0.012605	-0.208293
O10	O	-4.627766	-0.240779	-0.211398
O11	O	-4.615506	-0.115799	-0.308866
O12	O	-4.328561	-0.111516	-0.111495
C13	C	-3.811499	-0.278187	-0.214522
C14	C	-3.855974	-0.378426	-0.214106
C15	C	-3.795967	-0.119857	-0.337997
C16	C	-3.830565	-0.119434	-0.416079
C17	C	-4.058785	-0.430126	-0.217422
C18	C	-4.100564	-0.524312	-0.217035
C19	C	-3.939527	-0.566795	-0.213327
C20	C	-3.736701	-0.515088	-0.210013
C21	C	-3.694927	-0.420905	-0.210405
C22	C	-3.823783	-0.711395	-0.209194
C23	C	-3.865558	-0.805585	-0.208800
C24	C	-4.229420	-0.814802	-0.215823
C25	C	-4.187646	-0.720619	-0.216215
C26	C	-3.984821	-0.668919	-0.212900
C27	C	-4.028729	-0.123761	-0.456344
C28	C	-4.061238	-0.123364	-0.529710
C29	C	-3.895581	-0.118657	-0.562811
C30	C	-3.697387	-0.114324	-0.522536
C31	C	-3.664879	-0.114713	-0.449170
N32	N	-3.837177	-0.166278	-0.681681
N33	N	-3.868072	-0.165911	-0.751376
C34	C	-3.993515	-0.117485	-0.783857
N35	N	-4.086932	-0.069452	-0.744012
N36	N	-4.056042	-0.069823	-0.674311
C37	C	-3.930810	-0.118235	-0.642363
C38	C	-4.226941	-0.121381	-0.903673
C39	C	-4.259440	-0.120978	-0.977040
C40	C	-3.895588	-0.111947	-0.969866
C41	C	-3.863089	-0.112341	-0.896500
C42	C	-4.028776	-0.117062	-0.863408
C43	C	-4.133606	0.042477	-0.211695
C44	C	-4.068369	0.142715	-0.212116
C45	C	-4.149138	-0.115851	-0.088218
C46	C	-4.093778	-0.116269	-0.010136
H47	H	-4.265710	-0.566403	-0.219736
N48	N	-4.448213	-0.870551	-0.219432
H49	H	-4.497269	-0.918759	-0.263197
H50	H	-4.543701	-0.829267	-0.221817
N51	N	-3.691879	-0.851413	-0.204786
H52	H	-3.724744	-0.899242	-0.248217
H53	H	-3.677584	-0.881271	-0.160674
H54	H	-4.318778	-0.686032	-0.219231
N55	N	-3.476176	-0.365145	-0.206832
H56	H	-3.380261	-0.370571	-0.161470
H57	H	-3.474330	-0.299061	-0.207677
N58	N	-4.207420	-0.128836	-0.420653
H59	H	-4.156764	-0.128425	-0.368065
H60	H	-4.320817	-0.186929	-0.441957
N61	N	-3.605027	-0.655631	-0.205623
H62	H	-3.509346	-0.696832	-0.203212
H63	H	-3.556131	-0.607407	-0.161872
N64	N	-3.563006	-0.560906	-0.206007
H65	H	-3.428185	-0.513859	-0.203966
H66	H	-3.596050	-0.608730	-0.249449
N67	N	-3.716889	-0.106911	-1.005544
H68	H	-3.603389	-0.048829	-0.984296
H69	H	-3.767681	-0.107370	-1.058130
N70	N	-3.649353	-0.107675	-0.853066
H71	H	-3.549337	-0.104632	-0.885165
H72	H	-3.656208	-0.163827	-0.829383
H73	H	-4.420809	-0.124495	-1.009822
H74	H	-4.222615	-0.126893	-0.562500
N75	N	-3.518706	-0.109242	-0.558232
H76	H	-3.569369	-0.109655	-0.610819
H77	H	-3.461849	-0.163524	-0.550755
H78	H	-3.503504	-0.111182	-0.416386
N79	N	-4.405637	-0.126454	-0.867982
H80	H	-4.371977	-0.070631	-0.830787
H81	H	-4.428474	-0.183038	-0.844661
N82	N	-4.232477	-0.384308	-0.221420
H83	H	-4.367299	-0.431356	-0.223464
H84	H	-4.246706	-0.354379	-0.265496
