data_functionalizedCrystal
_audit_creation_method	'MofGen! by Chris Wilmer'
_symmetry_space_group_name_H-M	'P1'
_symmetry_Int_Tables_number	1
_symmetry_cell_setting	triclinic
loop_
_symmetry_equiv_pos_as_xyz
  x,y,z
_cell_length_a	10.685661
_cell_length_b	13.031981
_cell_length_c	10.686551
_cell_angle_alpha	79.021812
_cell_angle_beta	80.927378
_cell_angle_gamma	92.281056
loop_
_atom_site_label
_atom_site_type_symbol
_atom_site_fract_x
_atom_site_fract_y
_atom_site_fract_z
Zn1	Zn	1.914695	-0.487873	-0.785080
Zn2	Zn	1.867173	-0.675140	-0.541693
Zn3	Zn	1.686123	-0.487921	-0.556597
Zn4	Zn	1.675454	-0.650149	-0.741809
O5	O	1.785861	-0.575271	-0.656295
O6	O	2.084285	-0.523153	-0.764666
O7	O	1.827733	-0.660784	-0.364300
O8	O	1.740796	-0.341649	-0.611252
O9	O	2.049371	-0.660738	-0.585850
O10	O	1.908728	-0.341614	-0.779118
O11	O	1.694716	-0.523234	-0.375250
O12	O	1.508814	-0.499002	-0.569294
O13	O	1.722613	-0.618145	-0.926919
O14	O	1.500975	-0.618191	-0.705369
O15	O	1.898383	-0.498921	-0.958710
O16	O	1.817388	-0.818090	-0.543892
O17	O	1.676533	-0.799730	-0.690917
C18	C	1.459287	-0.555890	-0.634254
C19	C	1.319576	-0.547623	-0.624851
C20	C	1.740682	-0.846835	-0.611122
C21	C	1.721473	-0.963016	-0.591848
C22	C	1.795956	-1.014705	-0.666384
C23	C	1.776104	-1.134784	-0.646465
C24	C	2.113711	-0.594728	-0.678422
C25	C	2.253420	-0.603019	-0.687852
C26	C	1.814609	-0.555740	-0.990624
C27	C	1.826860	-0.547417	-1.133095
C28	C	1.831253	-0.302646	-0.701674
C29	C	1.850596	-0.186470	-0.721012
C30	C	1.757310	-0.594655	-0.323284
C31	C	1.745352	-0.602698	-0.180879
H32	H	1.874416	-0.970062	-0.744950
H33	H	1.666201	-0.656397	-1.112794
C34	C	1.933804	-0.474871	-1.225071
C35	C	1.946329	-0.466364	-1.372291
C36	C	2.053271	-0.393819	-1.464267
C37	C	2.147689	-0.329782	-1.409022
C38	C	2.135168	-0.338287	-1.261794
C39	C	2.028226	-0.410831	-1.169819
H40	H	1.876432	-0.513770	-1.413194
H41	H	2.062539	-0.387524	-1.573255
H42	H	2.226854	-0.276080	-1.477108
H43	H	2.205065	-0.290881	-1.220892
H44	H	2.018957	-0.417127	-1.060831
H45	H	1.303667	-0.656764	-0.748992
C46	C	1.670094	-1.195081	-0.540325
C47	C	1.703669	-1.279264	-0.431055
C48	C	1.597662	-1.339561	-0.324917
C49	C	1.458081	-1.315676	-0.328051
C50	C	1.424499	-1.231489	-0.437325
C51	C	1.530506	-1.171192	-0.543462
H52	H	1.807002	-1.296949	-0.428732
H53	H	1.622522	-1.401882	-0.244025
H54	H	1.379608	-1.360312	-0.249481
H55	H	1.321167	-1.213805	-0.439648
H56	H	1.505646	-1.108871	-0.624355
C57	C	1.956604	-1.126178	-0.827158
C58	C	2.096186	-1.150066	-0.824030
C59	C	2.202190	-1.089775	-0.930175
C60	C	2.168613	-1.005596	-1.039449
C61	C	2.029025	-0.981704	-1.042581
C62	C	1.923021	-1.041995	-0.936435
H63	H	2.121048	-1.212384	-0.743135
H64	H	2.305523	-1.107462	-0.927856
H65	H	2.247084	-0.960965	-1.118024
H66	H	2.004164	-0.919386	-1.123475
H67	H	1.819688	-1.024308	-0.938754
C68	C	1.615469	-1.023317	-0.485713
C69	C	1.649044	-1.107500	-0.376443
C70	C	1.543037	-1.167798	-0.270306
C71	C	1.403456	-1.143913	-0.273439
C72	C	1.369874	-1.059726	-0.382713
C73	C	1.475881	-0.999428	-0.488851
H74	H	1.752377	-1.125185	-0.374120
H75	H	1.567897	-1.230119	-0.189413
H76	H	1.324983	-1.188549	-0.194870
H77	H	1.266542	-1.042041	-0.385036
H78	H	1.451021	-0.937107	-0.569743
H79	H	1.269325	-0.493864	-0.563720
