data_functionalizedCrystal
_audit_creation_method	'MofGen! by Chris Wilmer'
_symmetry_space_group_name_H-M	'P1'
_symmetry_Int_Tables_number	1
_symmetry_cell_setting	triclinic
loop_
_symmetry_equiv_pos_as_xyz
  x,y,z
_cell_length_a	9.065215
_cell_length_b	9.130313
_cell_length_c	9.065215
_cell_angle_alpha	89.999667
_cell_angle_beta	85.014731
_cell_angle_gamma	90.000479
loop_
_atom_site_label
_atom_site_type_symbol
_atom_site_fract_x
_atom_site_fract_y
_atom_site_fract_z
O1	O	-1.960393	0.121772	-0.216331
O2	O	-1.531108	0.121780	-0.234082
O3	O	-1.754626	0.121770	-0.010564
O4	O	-1.736875	0.121782	-0.439849
O5	O	-1.754623	-0.121829	-0.010570
O6	O	-1.531105	-0.121819	-0.234088
O7	O	-1.960390	-0.121827	-0.216337
Cu8	Cu	-1.745747	-0.144065	-0.225213
Cu9	Cu	-1.745751	0.144018	-0.225206
O10	O	-1.736872	-0.121816	-0.439855
C11	C	-1.476120	-0.000019	-0.232380
C12	C	-1.312277	-0.000016	-0.227282
N13	N	-1.745756	-0.346688	-0.225217
C14	C	-1.844756	-0.423345	-0.126278
C15	C	-1.844752	-0.576681	-0.126260
C16	C	-1.646743	-0.576692	-0.324134
C17	C	-1.646741	-0.423358	-0.324144
C18	C	-1.943770	-0.346675	-0.027351
C19	C	-2.042779	-0.423332	0.071595
C20	C	-2.042775	-0.576669	0.071613
C21	C	-1.943762	-0.653349	-0.027316
C22	C	-1.015378	-0.000024	-0.218039
C23	C	-1.179221	-0.000015	-0.223137
C24	C	-1.752919	-0.000028	0.044420
C25	C	-1.747821	-0.000024	0.208263
N26	N	-1.745754	0.346641	-0.225190
C27	C	-1.738578	-0.000015	-0.494839
C28	C	-1.743676	-0.000010	-0.658682
H29	H	-1.943785	-0.221821	-0.027360
F30	F	-1.943753	-0.816545	-0.027277
H31	H	-2.123384	-0.360891	0.152148
F32	F	-2.148135	-0.658250	0.176929
F33	F	-1.541369	-0.341773	-0.429445
F34	F	-1.541377	-0.658304	-0.429417
