data_functionalizedCrystal
_audit_creation_method	'MofGen! by Chris Wilmer'
_symmetry_space_group_name_H-M	'P1'
_symmetry_Int_Tables_number	1
_symmetry_cell_setting	triclinic
loop_
_symmetry_equiv_pos_as_xyz
  x,y,z
_cell_length_a	16.992694
_cell_length_b	11.792241
_cell_length_c	16.053802
_cell_angle_alpha	92.583059
_cell_angle_beta	87.249047
_cell_angle_gamma	87.430819
loop_
_atom_site_label
_atom_site_type_symbol
_atom_site_fract_x
_atom_site_fract_y
_atom_site_fract_z
O1	O	1.044699	0.236280	-0.069325
O2	O	0.816403	0.233637	-0.069350
O3	O	0.936091	0.070242	-0.069331
O4	O	0.925011	0.399675	-0.069344
O5	O	0.929503	0.079196	0.069527
O6	O	0.809815	0.242591	0.069508
O7	O	1.038111	0.245234	0.069533
Zn8	Zn	0.922917	0.245334	0.091567
Zn9	Zn	0.931597	0.233537	-0.091384
O10	O	0.918423	0.408630	0.069514
C11	C	0.783882	0.234716	0.000076
C12	C	0.696796	0.224578	0.000067
C13	C	0.646971	0.322395	0.000064
C14	C	0.565143	0.312864	0.000076
C15	C	0.533142	0.205513	0.000085
C16	C	0.582973	0.107688	0.000091
C17	C	0.664799	0.117221	0.000085
C18	C	0.289375	0.166002	0.000109
C19	C	0.207543	0.156476	0.000112
C20	C	0.189719	0.361652	0.000099
C21	C	0.271548	0.371176	0.000088
C22	C	0.321371	0.273351	0.000098
N23	N	0.449501	0.195767	0.000094
N24	N	0.405010	0.283098	0.000095
C25	C	0.932101	0.032371	0.000098
C26	C	0.930018	-0.093813	0.000097
C27	C	0.926188	-0.324840	0.000082
C28	C	0.928316	-0.196280	0.000090
C29	C	1.070632	0.244155	0.000105
C30	C	1.157719	0.254293	0.000109
C31	C	0.922413	0.446500	0.000084
C32	C	0.924497	0.572684	0.000079
N33	N	0.916999	0.253386	0.216427
N34	N	0.937521	0.225477	-0.216243
C35	C	0.967945	0.183889	0.260129
C36	C	0.963812	0.189532	0.347535
C37	C	0.908737	0.264679	0.391237
C38	C	0.857785	0.334179	0.347529
C39	C	0.861915	0.328529	0.260125
C40	C	0.890699	0.289327	0.652644
C41	C	0.886575	0.294974	0.740055
C42	C	0.992602	0.150325	0.740054
C43	C	0.996729	0.144687	0.652648
C44	C	0.945775	0.214182	0.608948
N45	N	0.904513	0.270452	0.480580
N46	N	0.949996	0.208403	0.519606
H47	H	1.012796	0.122701	0.224552
H48	H	0.705366	0.037567	0.000087
C49	C	0.805874	0.404979	0.212050
C50	C	0.745320	0.487682	0.260118
C51	C	0.689275	0.564131	0.212045
C52	C	0.693784	0.557877	0.115903
C53	C	0.754341	0.475171	0.067830
C54	C	0.810386	0.398722	0.115903
H55	H	0.741980	0.492315	0.331293
H56	H	0.644446	0.625356	0.247633
H57	H	0.652296	0.614469	0.080317
H58	H	0.757681	0.470538	-0.003345
H59	H	0.855215	0.337498	0.080315
H60	H	0.673020	0.409812	0.000056
H61	H	0.297597	0.458591	0.000071
H62	H	1.005296	0.132942	0.383116
H63	H	1.034085	0.093744	0.775643
C64	C	0.344171	0.058393	0.000113
C65	C	0.399460	0.041369	0.072219
C66	C	0.454258	-0.066247	0.072223
C67	C	0.453767	-0.156839	0.000122
C68	C	0.398476	-0.139818	-0.071990
C69	C	0.343678	-0.032202	-0.071994
H70	H	0.399825	0.108433	0.125598
H71	H	0.495188	-0.078847	0.125605
H72	H	0.494332	-0.236503	0.000125
H73	H	0.398111	-0.206882	-0.125369
H74	H	0.302748	-0.019602	-0.125376
H75	H	0.181491	0.069053	0.000119
C76	C	0.510340	0.420469	0.000073
C77	C	0.517646	0.501757	-0.072040
C78	C	0.462843	0.609369	-0.072040
C79	C	0.400735	0.635694	0.000073
C80	C	0.393427	0.554404	0.072191
C81	C	0.448229	0.446791	0.072191
H82	H	0.563624	0.482271	-0.125427
H83	H	0.468254	0.669545	-0.125427
H84	H	0.360168	0.715355	0.000073
H85	H	0.347449	0.573889	0.125578
H86	H	0.442819	0.386615	0.125578
C87	C	0.134912	0.469254	0.000097
C88	C	0.079614	0.486269	-0.072002
C89	C	0.024806	0.593876	-0.072000
C90	C	0.025296	0.684468	0.000101
C91	C	0.080596	0.667455	0.072207
C92	C	0.135404	0.559849	0.072204
H93	H	0.079250	0.419204	-0.125381
H94	H	-0.016130	0.606469	-0.125378
H95	H	-0.015276	0.764125	0.000103
H96	H	0.080960	0.734520	0.125585
H97	H	0.176340	0.547256	0.125582
H98	H	0.556910	0.020281	0.000110
C99	C	1.057308	0.062021	0.604572
C100	C	1.113352	-0.014434	0.652635
C101	C	1.173933	-0.097096	0.604556
C102	C	1.178470	-0.103302	0.508415
C103	C	1.122425	-0.026844	0.460346
C104	C	1.061844	0.055818	0.508425
H105	H	1.109995	-0.009842	0.723810
H106	H	1.215421	-0.153695	0.640140
H107	H	1.223316	-0.164493	0.472824
H108	H	1.125782	-0.031436	0.389172
H109	H	1.020356	0.112417	0.472841
H110	H	0.841724	0.356172	0.775633
H111	H	0.849212	0.345915	0.617070
H112	H	0.812938	0.395361	0.383117
