data_functionalizedCrystal
_audit_creation_method	'MofGen! by Chris Wilmer'
_symmetry_space_group_name_H-M	'P1'
_symmetry_Int_Tables_number	1
_symmetry_cell_setting	triclinic
loop_
_symmetry_equiv_pos_as_xyz
  x,y,z
_cell_length_a	14.908783
_cell_length_b	17.637651
_cell_length_c	14.908662
_cell_angle_alpha	82.652360
_cell_angle_beta	83.203450
_cell_angle_gamma	103.762219
loop_
_atom_site_label
_atom_site_type_symbol
_atom_site_fract_x
_atom_site_fract_y
_atom_site_fract_z
Zn1	Zn	1.346502	-0.273292	-0.524783
Zn2	Zn	1.307073	-0.398304	-0.342771
Zn3	Zn	1.186394	-0.273311	-0.364682
Zn4	Zn	1.160985	-0.412664	-0.481822
O5	O	1.250238	-0.339393	-0.428515
O6	O	1.469416	-0.283857	-0.509447
O7	O	1.285197	-0.375721	-0.220481
O8	O	1.234768	-0.162671	-0.413069
O9	O	1.440447	-0.375703	-0.375724
O10	O	1.352399	-0.162657	-0.530694
O11	O	1.196534	-0.283890	-0.236580
O12	O	1.054879	-0.297814	-0.371412
O13	O	1.191462	-0.400178	-0.612717
O14	O	1.036211	-0.400196	-0.457475
O15	O	1.327761	-0.297782	-0.644280
O16	O	1.260558	-0.510846	-0.334067
O17	O	1.153228	-0.521396	-0.436228
C18	C	1.012318	-0.350566	-0.412160
C19	C	0.910532	-0.355366	-0.405180
C20	C	0.749401	-0.268895	-0.531451
C21	C	0.653764	-0.273402	-0.524896
C22	C	0.623620	-0.368884	-0.385513
C23	C	0.719257	-0.364377	-0.392067
C24	C	0.782144	-0.314381	-0.465040
C25	C	0.877782	-0.309878	-0.471597
C26	C	0.847637	-0.405356	-0.332211
C27	C	0.752000	-0.409863	-0.325656
C28	C	1.199883	-0.544808	-0.378129
C29	C	1.178426	-0.632683	-0.356610
C30	C	1.413853	-0.921387	-0.592318
C31	C	1.393661	-1.003960	-0.572079
C32	C	1.271244	-1.004072	-0.449491
C33	C	1.291429	-0.921498	-0.469717
C34	C	1.362733	-0.880162	-0.541131
C35	C	1.240310	-0.880273	-0.418530
C36	C	1.260490	-0.797706	-0.438757
C37	C	1.331789	-0.756364	-0.510170
C38	C	1.382914	-0.797595	-0.561358
C39	C	1.169001	-0.921611	-0.347120
C40	C	1.117882	-0.880386	-0.295934
C41	C	1.138066	-0.797817	-0.316156
C42	C	1.209365	-0.756475	-0.387569
C43	C	1.086942	-0.756586	-0.264968
C44	C	1.107122	-0.674019	-0.285195
C45	C	1.229546	-0.673908	-0.407796
C46	C	1.489087	-0.328176	-0.444933
C47	C	1.590870	-0.323396	-0.451930
C48	C	1.261175	-0.350580	-0.661868
C49	C	1.265836	-0.355347	-0.761310
C50	C	1.300816	-0.133175	-0.479118
C51	C	1.322369	-0.045298	-0.500682
C52	C	1.318557	-0.409872	-0.893090
C53	C	1.314184	-0.405397	-0.799655
C54	C	1.221856	-0.309770	-0.816405
C55	C	1.226230	-0.314246	-0.909840
C56	C	1.274583	-0.364297	-0.948179
C57	C	1.278962	-0.368768	-1.041617
C58	C	1.186629	-0.273146	-1.058363
C59	C	1.182256	-0.268671	-0.964929
C60	C	1.239411	-0.328190	-0.196086
C61	C	1.234982	-0.323192	-0.096712
H62	H	1.348219	-0.689133	-0.526637
H63	H	1.182480	-0.269028	-0.785171
H64	H	1.349996	-0.442505	-0.754806
H65	H	1.318337	-0.409520	-1.072831
H66	H	1.357936	-0.450620	-0.924308
H67	H	0.928985	-0.269170	-0.531016
H68	H	1.059824	-0.914053	-0.237790
O69	O	1.130115	-0.214684	-0.923571
H70	H	1.055757	-0.232475	-0.933225
O71	O	1.139195	-0.223984	-1.117779
H72	H	1.150355	-0.235505	-1.189192
O73	O	0.684166	-0.463785	-0.246957
H74	H	0.702557	-0.445900	-0.181371
O75	O	0.817235	-0.214972	-0.610150
H76	H	0.798839	-0.232851	-0.675737
O77	O	0.618442	-0.224345	-0.596525
H78	H	0.678241	-0.188829	-0.648369
H79	H	1.435281	-1.037523	-0.613779
H80	H	0.572403	-0.409579	-0.326095
H81	H	0.874305	-0.442401	-0.278140
O82	O	1.306459	-0.629311	-0.484816
H83	H	1.290119	-0.649245	-0.550062
H84	H	1.440984	-0.763937	-0.619505
O85	O	1.490762	-0.876791	-0.669341
H86	H	1.522922	-0.919327	-0.701542
O87	O	1.194353	-1.048655	-0.372455
H88	H	1.188914	-1.112995	-0.366980
O89	O	1.147246	-1.010665	-0.325296
H90	H	1.126539	-1.036540	-0.386155
O91	O	1.010044	-0.801171	-0.187938
H92	H	1.004605	-0.865511	-0.182468
O93	O	1.051997	-0.629545	-0.229985
H94	H	0.999033	-0.672158	-0.176921
