data_functionalizedCrystal
_audit_creation_method	'MofGen! by Chris Wilmer'
_symmetry_space_group_name_H-M	'P1'
_symmetry_Int_Tables_number	1
_symmetry_cell_setting	triclinic
loop_
_symmetry_equiv_pos_as_xyz
  x,y,z
_cell_length_a	15.944551
_cell_length_b	15.944551
_cell_length_c	11.892095
_cell_angle_alpha	93.888509
_cell_angle_beta	86.105155
_cell_angle_gamma	83.498738
loop_
_atom_site_label
_atom_site_type_symbol
_atom_site_fract_x
_atom_site_fract_y
_atom_site_fract_z
O1	O	1.119888	0.102969	-0.093887
O2	O	0.875340	0.116324	-0.093916
O3	O	1.004291	-0.012628	-0.093890
O4	O	0.990936	0.231921	-0.093912
O5	O	0.993540	-0.001893	0.094115
O6	O	0.864588	0.127059	0.094090
O7	O	1.109136	0.113704	0.094118
Zn8	Zn	0.985155	0.122086	0.123954
Zn9	Zn	0.999321	0.107942	-0.123751
O10	O	0.980185	0.242656	0.094093
C11	C	0.838670	0.121137	0.000084
C12	C	0.745425	0.119474	0.000073
C13	C	0.530566	0.035571	0.000102
C14	C	0.474848	0.069240	-0.092598
C15	C	0.574698	0.116467	0.000087
C16	C	0.464270	0.079843	0.092761
C17	C	0.409784	0.113557	0.000105
C18	C	0.520212	0.150154	-0.092690
C19	C	0.509635	0.160751	0.092752
C20	C	0.453936	0.194478	0.000029
C21	C	0.669701	0.118141	0.000075
C22	C	0.314783	0.111889	0.000108
C23	C	0.998361	-0.038554	0.000112
C24	C	0.996699	-0.131800	0.000113
C25	C	0.912796	-0.346658	0.000088
C26	C	0.946457	-0.402382	0.092790
C27	C	0.993692	-0.302527	0.000104
C28	C	0.957076	-0.412950	-0.092568
C29	C	0.990782	-0.467440	0.000090
C30	C	1.027371	-0.357018	0.092883
C31	C	1.037984	-0.367584	-0.092559
C32	C	1.071702	-0.423289	0.000166
C33	C	0.995366	-0.207524	0.000113
C34	C	0.989114	-0.562441	0.000089
C35	C	1.145806	0.108891	0.000117
C36	C	1.239052	0.110554	0.000120
C37	C	0.986115	0.268582	0.000088
C38	C	0.987778	0.361828	0.000080
N39	N	0.975493	0.131738	0.293006
N40	N	1.008989	0.098283	-0.292804
C41	C	1.076220	0.031069	0.529674
C42	C	1.069472	0.037822	0.648014
C43	C	0.955248	0.151993	0.648030
C44	C	0.961995	0.145240	0.529689
C45	C	1.022484	0.084777	0.470515
C46	C	1.029235	0.078028	0.352173
C47	C	0.915007	0.192195	0.352191
C48	C	0.908259	0.198948	0.470531
H49	H	0.525285	0.199414	0.171121
C50	C	0.916889	-0.446130	-0.198444
N51	N	0.886614	-0.471117	-0.278186
C52	C	0.453727	0.016970	-0.198461
N53	N	0.437820	-0.022406	-0.278192
C54	C	1.128584	-0.021264	0.713084
N55	N	1.173107	-0.065772	0.762095
H56	H	0.544686	0.179865	-0.171146
H57	H	0.420780	0.261681	-0.000029
C58	C	1.090223	-0.346430	-0.198433
N59	N	1.129564	-0.330495	-0.278187
C60	C	0.894177	-0.423507	0.198654
N61	N	0.854796	-0.439417	0.278387
C62	C	1.142760	-0.035437	0.464580
N63	N	1.192880	-0.085531	0.415552
C64	C	1.067492	-0.323962	0.198881
N65	N	1.097706	-0.299061	0.278720
C66	C	1.095771	0.011516	0.287083
N67	N	1.145885	-0.038586	0.238061
H68	H	0.859008	0.248174	0.518724
H69	H	0.871254	0.235930	0.304010
H70	H	0.905994	0.201215	0.696225
C71	C	0.431081	0.039646	0.198635
N72	N	0.406087	0.009363	0.278374
H73	H	0.845643	-0.313346	0.000172
C74	C	1.162488	-0.468089	0.000250
N75	N	1.230866	-0.501834	0.000320
H76	H	0.563905	-0.031573	-0.000006
