data_functionalizedCrystal
_audit_creation_method	'MofGen! by Chris Wilmer'
_symmetry_space_group_name_H-M	'P1'
_symmetry_Int_Tables_number	1
_symmetry_cell_setting	triclinic
loop_
_symmetry_equiv_pos_as_xyz
  x,y,z
_cell_length_a	17.699083
_cell_length_b	13.339070
_cell_length_c	16.176319
_cell_angle_alpha	89.996815
_cell_angle_beta	89.998611
_cell_angle_gamma	99.456154
loop_
_atom_site_label
_atom_site_type_symbol
_atom_site_fract_x
_atom_site_fract_y
_atom_site_fract_z
O1	O	1.031106	0.127864	-0.068625
O2	O	1.531106	0.627864	0.431375
O3	O	0.814244	0.144499	-0.068651
O4	O	1.314244	0.644499	0.431349
O5	O	0.897786	-0.011021	-0.068639
O6	O	1.397786	0.488979	0.431361
O7	O	0.947564	0.283384	-0.068637
O8	O	1.447564	0.783384	0.431363
O9	O	0.897768	-0.011031	0.068855
O10	O	1.397768	0.488969	0.568855
O11	O	0.814226	0.144489	0.068842
O12	O	1.314226	0.644489	0.568842
O13	O	1.031088	0.127854	0.068868
O14	O	1.531088	0.627854	0.568868
Cu15	Cu	0.922655	0.136171	0.081409
Cu16	Cu	1.422655	0.636171	0.581409
Cu17	Cu	0.922677	0.136182	-0.081192
Cu18	Cu	1.422677	0.636182	0.418808
O19	O	0.947546	0.283374	0.068856
O20	O	1.447546	0.783374	0.568856
C21	C	0.785912	0.143898	0.000092
C22	C	1.285912	0.643898	0.500092
C23	C	0.701516	0.142110	0.000082
C24	C	1.201516	0.642110	0.500082
C25	C	0.672191	0.233397	0.000082
C26	C	1.172191	0.733397	0.500082
C27	C	0.592891	0.231710	0.000093
C28	C	1.092891	0.731710	0.500093
C29	C	0.542918	0.138736	0.000097
C30	C	1.042918	0.638736	0.500097
C31	C	0.572248	0.047442	0.000099
C32	C	1.072248	0.547442	0.500099
C33	C	0.651546	0.049129	0.000094
C34	C	1.151546	0.549129	0.500094
C35	C	0.252446	0.040635	0.000119
C36	C	0.752446	0.540635	0.500119
C37	C	0.173143	0.038955	0.000122
C38	C	0.673143	0.538955	0.500122
C39	C	0.193791	0.223216	0.000118
C40	C	0.693791	0.723216	0.500118
C41	C	0.273089	0.224904	0.000113
C42	C	0.773089	0.724904	0.500113
C43	C	0.302412	0.133610	0.000120
C44	C	0.802412	0.633610	0.500120
C45	C	0.388398	0.135440	0.000110
C46	C	0.888398	0.635440	0.500110
C47	C	0.456933	0.136906	0.000101
C48	C	0.956933	0.636906	0.500101
C49	C	0.889369	-0.048694	0.000106
C50	C	1.389369	0.451306	0.500106
C51	C	0.864305	-0.160935	0.000100
C52	C	1.364305	0.339065	0.500100
C53	C	1.059185	-0.526207	0.000124
C54	C	1.559185	-0.026207	0.500124
C55	C	1.082736	-0.420752	0.000134
C56	C	1.582736	0.079248	0.500134
C57	C	1.028130	-0.355792	0.000125
C58	C	1.528130	0.144208	0.500125
C59	C	0.949970	-0.396298	0.000106
C60	C	1.449970	0.103702	0.500106
C61	C	0.926417	-0.501763	0.000102
C62	C	1.426417	-0.001763	0.500102
C63	C	0.895362	-0.331349	0.000104
C64	C	1.395362	0.168651	0.500104
C65	C	0.817202	-0.371855	0.000085
C66	C	1.317202	0.128145	0.500085
C67	C	0.793652	-0.477310	0.000080
C68	C	1.293652	0.022690	0.500080
C69	C	0.848258	-0.542269	0.000089
C70	C	1.348258	-0.042269	0.500089
C71	C	0.918915	-0.225884	0.000108
C72	C	1.418915	0.274116	0.500108
C73	C	0.786147	-0.201441	0.000086
C74	C	1.286147	0.298559	0.500086
C75	C	0.762596	-0.306895	0.000076
C76	C	1.262596	0.193105	0.500076
C77	C	1.059420	0.128455	0.000123
C78	C	1.559420	0.628455	0.500123
C79	C	1.143816	0.130243	0.000128
C80	C	1.643816	0.630243	0.500128
C81	C	0.955963	0.321047	0.000110
C82	C	1.455963	0.821047	0.500110
C83	C	0.981027	0.433288	0.000110
C84	C	1.481027	0.933288	0.500110
N85	N	0.922646	0.136162	0.195775
N86	N	1.422646	0.636162	0.695775
N87	N	0.922691	0.136183	-0.195557
N88	N	1.422691	0.636183	0.304443
C89	C	0.959660	0.067326	0.239044
C90	C	1.459660	0.567326	0.739044
C91	C	0.959663	0.067324	0.325592
C92	C	1.459663	0.567324	0.825592
C93	C	0.922657	0.136165	0.368867
C94	C	1.422657	0.636165	0.868867
C95	C	0.885638	0.205005	0.325591
C96	C	1.385638	0.705005	0.825591
C97	C	0.885631	0.205000	0.239046
C98	C	1.385631	0.705000	0.739046
C99	C	0.885668	0.205024	0.674620
C100	C	1.385668	0.705024	1.174620
C101	C	0.885681	0.205025	0.761171
C102	C	1.385681	0.705025	1.261171
C103	C	0.959701	0.067348	0.761165
C104	C	1.459701	0.567348	1.261165
C105	C	0.959693	0.067343	0.674620
C106	C	1.459693	0.567343	1.174620
C107	C	0.922671	0.136179	0.631352
C108	C	1.422671	0.636179	1.131352
C109	C	0.922667	0.136178	0.537507
C110	C	1.422667	0.636178	1.037507
C111	C	0.922666	0.136172	0.462710
C112	C	1.422666	0.636172	0.962710
H113	H	0.675420	-0.025206	0.000093
H114	H	1.175420	0.474794	0.500093
C115	C	0.844920	0.280733	0.191450
C116	C	1.344920	0.780733	0.691450
N117	N	0.814256	0.337779	0.155601
N118	N	1.314256	0.837779	0.655601
C119	C	0.707674	-0.521863	0.000067
C120	C	1.207674	-0.021863	0.500067
N121	N	0.642914	-0.555418	0.000057
N122	N	1.142914	-0.055418	0.500057
C123	C	0.560638	0.332134	0.000108
C124	C	1.060638	0.832134	0.500108
N125	N	0.536346	0.407777	0.000126
N126	N	1.036346	0.907777	0.500126
H127	H	0.989843	0.011295	0.796404
H128	H	1.489843	0.511295	1.296404
H129	H	0.712875	0.309107	0.000078
H130	H	1.212875	0.809107	0.500078
H131	H	0.989830	0.011290	0.639387
H132	H	1.489830	0.511290	1.139387
H133	H	0.313775	0.300613	0.000106
H134	H	0.813775	0.800613	0.500106
H135	H	0.855526	0.261074	0.639397
H136	H	1.355526	0.761074	1.139397
C137	C	0.844963	0.280752	0.808773
C138	C	1.344963	0.780752	1.308773
N139	N	0.814295	0.337786	0.844626
N140	N	1.314295	0.837786	1.344626
H141	H	0.982554	-0.192915	0.000124
H142	H	1.482554	0.307085	0.500124
C143	C	0.676621	-0.351466	0.000066
C144	C	1.176621	0.148534	0.500066
N145	N	0.611864	-0.385038	0.000063
N146	N	1.111864	0.114962	0.500063
H147	H	1.047310	-0.269927	0.000134
H148	H	1.547310	0.230073	0.500134
H149	H	0.855503	0.261053	0.360832
H150	H	1.355503	0.761053	0.860832
H151	H	0.169907	0.297552	0.000118
H152	H	0.669907	0.797552	0.500118
C153	C	1.168710	-0.376203	0.000154
C154	C	1.668710	0.123797	0.500154
N155	N	1.233469	-0.342649	0.000168
N156	N	1.733469	0.157351	0.500168
H157	H	0.132455	-0.036760	0.000126
H158	H	0.632455	0.463240	0.500126
H159	H	0.829087	-0.628140	0.000077
H160	H	1.329087	-0.128140	0.500077
H161	H	1.103637	-0.579105	0.000138
H162	H	1.603637	-0.079105	0.500138
H163	H	0.741682	-0.148550	0.000083
H164	H	1.241682	0.351450	0.500083
C165	C	1.000369	-0.008407	0.191449
C166	C	1.500369	0.491593	0.691449
N167	N	1.031030	-0.065454	0.155603
N168	N	1.531030	0.434546	0.655603
H169	H	0.276310	-0.033702	0.000125
H170	H	0.776310	0.466298	0.500125
H171	H	0.531553	-0.028259	0.000114
H172	H	1.031553	0.471741	0.500114
H173	H	0.989802	0.011272	0.360821
H174	H	1.489802	0.511272	0.860821
