data_functionalizedCrystal
_audit_creation_method	'MofGen! by Chris Wilmer'
_symmetry_space_group_name_H-M	'P1'
_symmetry_Int_Tables_number	1
_symmetry_cell_setting	triclinic
loop_
_symmetry_equiv_pos_as_xyz
  x,y,z
_cell_length_a	17.077404
_cell_length_b	19.077068
_cell_length_c	17.077396
_cell_angle_alpha	87.732878
_cell_angle_beta	90.019501
_cell_angle_gamma	92.327269
loop_
_atom_site_label
_atom_site_type_symbol
_atom_site_fract_x
_atom_site_fract_y
_atom_site_fract_z
Zn1	Zn	1.187475	-0.280197	0.456376
Zn2	Zn	1.182097	-0.397901	0.330375
Zn3	Zn	1.056205	-0.280222	0.325125
Zn4	Zn	1.050892	-0.397859	0.461596
O5	O	1.119167	-0.339045	0.393368
O6	O	1.296608	-0.295818	0.439674
O7	O	1.165371	-0.382318	0.219833
O8	O	1.078093	-0.181727	0.338154
O9	O	1.292657	-0.382294	0.347101
O10	O	1.174536	-0.181709	0.434583
O11	O	1.072878	-0.295860	0.215976
O12	O	0.945654	-0.295819	0.343216
O13	O	1.069036	-0.382223	0.570750
O14	O	0.941750	-0.382247	0.443481
O15	O	1.169383	-0.295777	0.566914
O16	O	1.160218	-0.496386	0.352163
O17	O	1.063822	-0.496356	0.448571
C18	C	0.915220	-0.339032	0.393346
C19	C	0.827970	-0.339043	0.393356
C20	C	0.784964	-0.384114	0.445486
C21	C	0.702984	-0.384116	0.445499
C22	C	0.664010	-0.339050	0.393376
C23	C	0.707021	-0.293974	0.341243
C24	C	0.789000	-0.293969	0.341235
C25	C	0.536151	-0.293988	0.341263
C26	C	0.454166	-0.293993	0.341270
C27	C	0.450134	-0.384134	0.445526
C28	C	0.532113	-0.384130	0.445518
C29	C	0.575119	-0.339055	0.393384
C30	C	1.110881	-0.521909	0.401521
C31	C	1.107408	-0.600139	0.405035
C32	C	1.156004	-0.636884	0.356533
C33	C	1.152742	-0.710389	0.359843
C34	C	1.100880	-0.747148	0.411651
C35	C	1.052283	-0.710398	0.460158
C36	C	1.055549	-0.636894	0.456852
C37	C	1.085729	-0.966982	0.426921
C38	C	1.082465	-1.040491	0.430222
C39	C	1.182926	-1.040478	0.329907
C40	C	1.186184	-0.966973	0.326602
C41	C	1.137590	-0.930229	0.375112
N42	N	1.097543	-0.822282	0.415033
N43	N	1.140931	-0.855096	0.371733
C44	C	1.323911	-0.339058	0.393391
C45	C	1.411160	-0.339064	0.393400
C46	C	1.119217	-0.338993	0.598110
C47	C	1.119238	-0.338971	0.685359
C48	C	1.127507	-0.155467	0.385201
C49	C	1.131061	-0.077237	0.381720
C50	C	1.119165	-0.339046	0.189420
C51	C	1.119305	-0.338869	0.102163
C52	C	1.171491	-0.293955	0.724353
C53	C	1.171501	-0.293931	0.806332
C54	C	1.119262	-0.338928	0.849316
C55	C	1.067004	-0.383946	0.810317
C56	C	1.066990	-0.383965	0.728339
C57	C	1.067038	-0.383904	0.981185
C58	C	1.067052	-0.383885	1.063169
C59	C	1.171549	-0.293870	1.059179
C60	C	1.171535	-0.293889	0.977201
C61	C	1.119277	-0.338908	0.938207
H62	H	0.675282	-0.257277	0.298808
N63	N	0.574143	-0.432737	0.501739
H64	H	0.609466	-0.404173	0.536889
H65	H	0.606623	-0.465306	0.471172
N66	N	1.033309	-0.927357	0.479230
H67	H	1.066541	-0.896815	0.514269
H68	H	0.999966	-0.961845	0.512496
N69	N	1.227916	-0.245314	1.101231
H70	H	1.219997	-0.252126	1.159686
H71	H	1.217985	-0.195050	1.084661
N72	N	0.403755	-0.432754	0.501757
H73	H	0.345908	-0.425918	0.493857
H74	H	0.418605	-0.421866	0.557352
N75	N	0.826994	-0.432722	0.501707
H76	H	0.885454	-0.425883	0.493792
H77	H	0.810382	-0.482974	0.491638
N78	N	1.235347	-1.080103	0.277594
H79	H	1.223754	-1.067354	0.220924
H80	H	1.225391	-1.132234	0.287611
N81	N	1.010626	-0.432511	0.686276
H82	H	0.977533	-0.461013	0.725944
H83	H	1.041086	-0.465095	0.653713
N84	N	1.010652	-0.432463	0.856686
H85	H	1.041071	-0.465074	0.892159
H86	H	0.977551	-0.460936	0.819498
N87	N	1.010711	-0.432416	1.109533
H88	H	0.977600	-0.460935	1.072393
H89	H	0.975698	-0.403752	1.142268
N90	N	1.211948	-0.597242	0.300658
H91	H	1.206645	-0.545101	0.305921
H92	H	1.199194	-0.610135	0.245164
H93	H	1.192313	-0.740304	0.320346
N94	N	0.412142	-0.245398	0.285030
H95	H	0.376837	-0.273976	0.249876
H96	H	0.451887	-0.216863	0.252060
H97	H	1.228414	-0.937045	0.284416
H98	H	1.040242	-1.070418	0.472424
H99	H	1.010059	-0.740332	0.502345
H100	H	1.015978	-0.606976	0.496348
H101	H	1.214032	-0.257315	0.689361
N102	N	1.227844	-0.245365	0.848391
H103	H	1.260934	-0.216862	0.808721
H104	H	1.262878	-0.273996	0.883695
N105	N	0.582538	-0.245369	0.285037
H106	H	0.545410	-0.216821	0.252017
H107	H	0.615241	-0.273976	0.249931
H108	H	1.214077	-0.257253	0.942205
H109	H	0.667972	-0.420818	0.487948
N110	N	0.835389	-0.245353	0.285014
H111	H	0.798262	-0.216804	0.251996
H112	H	0.868095	-0.273954	0.249906
H113	H	1.024472	-0.420552	0.949438
