data_functionalizedCrystal
_audit_creation_method	'MofGen! by Chris Wilmer'
_symmetry_space_group_name_H-M	'P1'
_symmetry_Int_Tables_number	1
_symmetry_cell_setting	triclinic
loop_
_symmetry_equiv_pos_as_xyz
  x,y,z
_cell_length_a	11.026644
_cell_length_b	27.732048
_cell_length_c	9.482900
_cell_angle_alpha	99.251554
_cell_angle_beta	101.364536
_cell_angle_gamma	84.386599
loop_
_atom_site_label
_atom_site_type_symbol
_atom_site_fract_x
_atom_site_fract_y
_atom_site_fract_z
O1	O	-1.625404	0.196151	-0.120984
O2	O	-1.272530	0.173143	-0.120972
O3	O	-1.459922	0.115238	-0.120951
O4	O	-1.438012	0.254056	-0.121005
O5	O	-1.421857	0.127060	0.120837
O6	O	-1.234465	0.184966	0.120816
O7	O	-1.587339	0.207973	0.120804
Cu8	Cu	-1.407427	0.197549	0.142887
Cu9	Cu	-1.452443	0.183568	-0.143055
O10	O	-1.399947	0.265879	0.120783
C11	C	-1.208366	0.174810	-0.000077
C12	C	-1.073889	0.162156	-0.000071
C13	C	-0.860440	0.184023	-0.000081
C14	C	-0.999429	0.197102	-0.000085
C15	C	-1.440429	0.103101	-0.000053
C16	C	-1.439042	0.049322	-0.000041
C17	C	-1.541070	-0.280317	-0.000119
C18	C	-1.535933	-0.482440	-0.000139
O19	O	-1.629230	-0.505304	-0.000205
N20	N	-1.424814	-0.511562	-0.000134
C21	C	-1.314973	-0.490152	-0.000133
O22	O	-1.220345	-0.519561	-0.000145
C23	C	-1.320114	-0.288030	-0.000124
C24	C	-1.431237	-0.258909	-0.000114
C25	C	-1.652185	-0.251196	-0.000110
C26	C	-1.653467	-0.200668	-0.000097
C27	C	-1.543634	-0.179260	-0.000093
C28	C	-1.432519	-0.208381	-0.000101
C29	C	-1.210276	-0.266621	-0.000134
C30	C	-1.211571	-0.216087	-0.000135
C31	C	-1.322695	-0.186966	-0.000125
C32	C	-1.323968	-0.136446	-0.000083
N33	N	-1.435087	-0.107323	-0.000088
C34	C	-1.544920	-0.128730	-0.000093
C35	C	-1.312282	-0.596268	-0.000136
C36	C	-1.310996	-0.646799	-0.000135
C37	C	-1.531957	-0.639083	-0.000143
C38	C	-1.533240	-0.588551	-0.000133
C39	C	-1.423401	-0.567146	-0.000140
C40	C	-1.547603	-0.022618	-0.000064
C41	C	-1.548875	0.027915	-0.000045
C42	C	-1.327916	0.020194	-0.000045
C43	C	-1.326643	-0.030333	-0.000056
C44	C	-1.436497	-0.051738	-0.000071
O45	O	-1.230723	-0.113549	-0.000033
O46	O	-1.639540	-0.099315	-0.000114
C47	C	-1.539788	-0.330845	-0.000131
C48	C	-1.428674	-0.359965	-0.000140
C49	C	-1.318841	-0.338558	-0.000135
C50	C	-1.427388	-0.410496	-0.000140
C51	C	-1.537221	-0.431903	-0.000144
C52	C	-1.648340	-0.402780	-0.000149
C53	C	-1.649622	-0.352252	-0.000136
C54	C	-1.207722	-0.367681	-0.000130
C55	C	-1.206449	-0.418208	-0.000141
C56	C	-1.316282	-0.439616	-0.000146
C57	C	-0.651503	0.206308	-0.000091
C58	C	-0.785979	0.218963	-0.000095
C59	C	-1.419441	0.278016	-0.000119
C60	C	-1.420829	0.331794	-0.000140
N61	N	-1.375774	0.207383	0.344004
N62	N	-1.484105	0.173731	-0.344172
C63	C	-1.443098	0.186465	0.416211
C64	C	-1.416771	0.194652	0.583625
H65	H	-1.038570	0.236701	-0.000092
O66	O	-1.324673	0.223186	0.657878
C67	C	-1.236420	0.195177	0.745924
H68	H	-1.281589	0.162662	0.768575
H69	H	-1.200255	0.218883	0.853018
H70	H	-1.156053	0.181336	0.687378
O71	O	-1.100902	-0.346965	-0.000052
C72	C	-1.002569	-0.383511	-0.000088
H73	H	-1.026856	-0.416165	0.045669
H74	H	-0.914619	-0.368187	0.070126
H75	H	-0.986717	-0.395735	-0.116083
O76	O	-0.813558	0.136804	-0.000125
C77	C	-0.685218	0.134259	-0.000084
H78	H	-0.662165	0.167118	-0.045874
H79	H	-0.657897	0.099050	-0.070267
H80	H	-0.631812	0.134550	0.115917
O81	O	-1.027192	0.114908	-0.000314
C82	C	-0.974685	0.099391	-0.125517
H83	H	-1.017961	0.122919	-0.213049
H84	H	-0.993252	0.059421	-0.167541
H85	H	-0.870386	0.103286	-0.097205
O86	O	-1.638753	-0.659801	-0.000093
C87	C	-1.737126	-0.623270	-0.000146
H88	H	-1.698467	-0.586143	0.045643
H89	H	-1.802978	-0.631751	0.070032
H90	H	-1.789481	-0.622378	-0.116150
H91	H	-0.825125	0.258560	-0.000102
H92	H	-1.520224	0.162493	0.354092
O93	O	-1.656944	0.056128	-0.000106
C94	C	-1.753601	0.026395	-0.000082
H95	H	-1.727498	-0.012990	-0.045864
H96	H	-1.842292	0.040262	-0.070281
H97	H	-1.769174	0.027869	0.115913
O98	O	-1.654204	-0.043452	0.000122
C99	C	-1.640376	-0.066323	0.125360
H100	H	-1.537692	-0.075210	0.167102
H101	H	-1.690682	-0.101596	0.097194
H102	H	-1.681570	-0.040660	0.213053
H103	H	-1.743956	-0.176962	-0.000095
H104	H	-1.741631	-0.268620	-0.000120
O105	O	-1.205625	-0.575412	0.000060
C106	C	-1.180020	-0.540306	0.125303
H107	H	-1.269560	-0.527343	0.167045
H108	H	-1.138585	-0.507784	0.097142
H109	H	-1.111210	-0.557402	0.212993
O110	O	-1.102436	-0.294961	-0.000352
C111	C	-1.114788	-0.330525	-0.125606
H112	H	-1.217087	-0.336794	-0.167337
H113	H	-1.062669	-0.366312	-0.097465
H114	H	-1.074597	-0.317228	-0.213298
H115	H	-1.561236	0.149758	0.593713
O116	O	-1.641140	-0.560225	-0.000330
C117	C	-1.668232	-0.536895	-0.125578
H118	H	-1.579078	-0.534709	-0.167324
H119	H	-1.711471	-0.498355	-0.097421
H120	H	-1.736054	-0.558753	-0.213263
H121	H	-1.220505	-0.670504	-0.000118
H122	H	-1.298639	0.231350	0.406125
O123	O	-1.098600	-0.446553	-0.000346
C124	C	-1.110956	-0.482116	-0.125603
H125	H	-1.213257	-0.488380	-0.167342
H126	H	-1.058849	-0.517906	-0.097463
H127	H	-1.070753	-0.468820	-0.213288
H128	H	-1.236151	-0.054043	-0.000024
O129	O	-1.104749	-0.195370	-0.000077
C130	C	-1.006411	-0.231915	-0.000126
H131	H	-1.030681	-0.264567	0.045646
H132	H	-0.918457	-0.216587	0.070067
H133	H	-0.990577	-0.244140	-0.116128
O134	O	-1.221351	0.041070	-0.000107
C135	C	-1.246320	0.091915	-0.000065
H136	H	-1.348653	0.099890	-0.045830
H137	H	-1.187318	0.105232	-0.070268
H138	H	-1.223181	0.111738	0.115934
O139	O	-1.757641	-0.324001	-0.000395
C140	C	-1.844253	-0.340133	-0.125606
H141	H	-1.793028	-0.360550	-0.213128
H142	H	-1.901842	-0.307209	-0.167640
H143	H	-1.907923	-0.365682	-0.097300
H144	H	-1.737769	-0.420219	-0.000147
