data_functionalizedCrystal
_audit_creation_method	'MofGen! by Chris Wilmer'
_symmetry_space_group_name_H-M	'P1'
_symmetry_Int_Tables_number	1
_symmetry_cell_setting	triclinic
loop_
_symmetry_equiv_pos_as_xyz
  x,y,z
_cell_length_a	15.298114
_cell_length_b	15.299816
_cell_length_c	12.827885
_cell_angle_alpha	80.348783
_cell_angle_beta	80.330183
_cell_angle_gamma	69.256891
loop_
_atom_site_label
_atom_site_type_symbol
_atom_site_fract_x
_atom_site_fract_y
_atom_site_fract_z
Zn1	Zn	1.485560	-0.615774	0.416069
Zn2	Zn	1.985560	-0.115774	0.916069
Zn3	Zn	1.512348	-0.771246	0.267142
Zn4	Zn	2.012348	-0.271246	0.767142
Zn5	Zn	1.330070	-0.588944	0.267184
Zn6	Zn	1.830070	-0.088944	0.767184
Zn7	Zn	1.356921	-0.744315	0.467650
Zn8	Zn	1.856921	-0.244315	0.967650
O9	O	1.421225	-0.680070	0.354511
O10	O	1.921225	-0.180070	0.854511
O11	O	1.619233	-0.658897	0.374709
O12	O	2.119233	-0.158897	0.874709
O13	O	1.488143	-0.747105	0.120925
O14	O	1.988143	-0.247105	0.620925
O15	O	1.328248	-0.462415	0.265365
O16	O	1.828248	0.037585	0.765365
O17	O	1.638914	-0.773121	0.265293
O18	O	2.138914	-0.273121	0.765293
O19	O	1.442485	-0.482127	0.374750
O20	O	1.942485	0.017873	0.874750
O21	O	1.354224	-0.613168	0.120956
O22	O	1.854224	-0.113168	0.620956
O23	O	1.203513	-0.587055	0.315381
O24	O	1.703513	-0.087055	0.815381
O25	O	1.374012	-0.727222	0.607031
O26	O	1.874012	-0.227222	1.107031
O27	O	1.223240	-0.701205	0.462663
O28	O	1.723240	-0.201205	0.962663
O29	O	1.468522	-0.632784	0.569134
O30	O	1.968522	-0.132784	1.069134
O31	O	1.514179	-0.897761	0.315309
O32	O	2.014179	-0.397761	0.815309
O33	O	1.399987	-0.877976	0.462622
O34	O	1.899987	-0.377976	0.962622
C35	C	1.179638	-0.638297	0.394625
C36	C	1.679638	-0.138297	0.894625
C37	C	1.076290	-0.620449	0.411814
C38	C	1.576290	-0.120449	0.911814
C39	C	1.462929	-0.921603	0.394576
C40	C	1.962929	-0.421603	0.894576
C41	C	1.480855	-1.024947	0.411737
C42	C	1.980855	-0.524947	0.911737
C43	C	0.825888	-0.807641	0.231917
C44	C	1.325888	-0.307641	0.731917
C45	C	0.922989	-0.824409	0.215759
C46	C	1.422989	-0.324409	0.715759
C47	C	0.961319	-0.773421	0.264771
C48	C	1.461319	-0.273421	0.764771
C49	C	0.902539	-0.705660	0.329944
C50	C	1.402539	-0.205660	0.829944
C51	C	0.805428	-0.688885	0.346097
C52	C	1.305428	-0.188885	0.846097
C53	C	0.940859	-0.654665	0.378952
C54	C	1.440859	-0.154665	0.878952
C55	C	0.882078	-0.586905	0.444125
C56	C	1.382078	-0.086905	0.944125
C57	C	0.784977	-0.570134	0.460275
C58	C	1.284977	-0.070134	0.960275
C59	C	0.746647	-0.621122	0.411263
C60	C	1.246647	-0.121122	0.911263
C61	C	1.037969	-0.671440	0.362799
C62	C	1.537969	-0.171440	0.862799
C63	C	1.017509	-0.552685	0.476979
C64	C	1.517509	-0.052685	0.976979
C65	C	0.920408	-0.535917	0.493137
C66	C	1.420408	-0.035917	0.993137
C67	C	1.293713	-1.275543	0.232115
C68	C	1.793713	-0.775543	0.732115
C69	C	1.276866	-1.178446	0.215995
C70	C	1.776866	-0.678446	0.715995
C71	C	1.327862	-1.140066	0.264928
C72	C	1.827862	-0.640066	0.764928
C73	C	1.395708	-1.198794	0.329986
C74	C	1.895708	-0.698794	0.829986
C75	C	1.412552	-1.295900	0.346114
C76	C	1.912552	-0.795900	0.846114
C77	C	1.446700	-1.160423	0.378928
C78	C	1.946700	-0.660423	0.878928
C79	C	1.514546	-1.219151	0.443986
C80	C	2.014546	-0.719151	0.943986
C81	C	1.531387	-1.316247	0.460110
C82	C	2.031387	-0.816247	0.960110
C83	C	1.480391	-1.354627	0.411176
C84	C	1.980391	-0.854627	0.911176
C85	C	1.429857	-1.063317	0.362800
C86	C	1.929857	-0.563317	0.862800
C87	C	1.548695	-1.083674	0.476799
C88	C	2.048695	-0.583674	0.976799
C89	C	1.565542	-1.180771	0.492919
C90	C	2.065542	-0.680771	0.992919
C91	C	1.663755	-0.722006	0.314242
C92	C	2.163755	-0.222006	0.814242
C93	C	1.767108	-0.739877	0.297082
C94	C	2.267108	-0.239877	0.797082
C95	C	1.421274	-0.679991	0.627056
C96	C	1.921274	-0.179991	1.127056
C97	C	1.421294	-0.679958	0.743199
C98	C	1.921294	-0.179958	1.243199
C99	C	1.379383	-0.437597	0.314309
C100	C	1.879383	0.062403	0.814309
C101	C	1.361553	-0.334270	0.297177
C102	C	1.861553	0.165730	0.797177
C103	C	1.421218	-0.680090	0.083007
C104	C	1.921218	-0.180090	0.583007
C105	C	1.421333	-0.679892	-0.033208
C106	C	1.921333	-0.179892	0.466792
C107	C	1.487584	-0.746176	0.914996
C108	C	1.987584	-0.246176	1.414996
C109	C	1.487564	-0.746212	0.794957
C110	C	1.987564	-0.246212	1.294957
H111	H	1.085819	-0.726611	0.309735
H112	H	1.585819	-0.226611	0.809735
Br113	Br	1.326758	-0.585353	0.892595
Br114	Br	1.826758	-0.085353	1.392595
H115	H	1.544315	-0.802901	0.959522
H116	H	2.044315	-0.302901	1.459522
H117	H	1.040383	-0.787077	0.251611
H118	H	1.540383	-0.287077	0.751611
H119	H	0.794669	-0.849142	0.192010
H120	H	1.294669	-0.349142	0.692010
H121	H	0.970841	-0.879578	0.162693
H122	H	1.470841	-0.379578	0.662693
Br123	Br	0.614865	-0.598384	0.433211
Br124	Br	1.114865	-0.098384	0.933211
Br125	Br	0.705203	-0.478162	0.548709
Br126	Br	1.205203	0.021838	1.048709
H127	H	0.872536	-0.480745	0.546201
H128	H	1.372536	0.019255	1.046201
H129	H	1.544287	-0.802957	0.750413
H130	H	2.044287	-0.302957	1.250413
H131	H	1.252195	-1.306801	0.192285
H132	H	1.752195	-0.806801	0.692285
H133	H	1.374616	-1.015509	0.309830
H134	H	1.874616	-0.515509	0.809830
Br135	Br	1.069518	-0.483474	0.543491
Br136	Br	1.569518	0.016526	1.043491
Br137	Br	1.304634	-1.008227	0.243519
Br138	Br	1.804634	-0.508227	0.743519
Br139	Br	1.657617	-1.260483	0.581208
Br140	Br	2.157617	-0.760483	1.081208
H141	H	1.221626	-1.130633	0.163027
H142	H	1.721626	-0.630633	0.663027
H143	H	1.590219	-1.052426	0.516648
H144	H	2.090219	-0.552426	1.016648
H145	H	1.494108	-1.433691	0.424294
H146	H	1.994108	-0.933691	0.924294
H147	H	1.364575	-0.623204	0.787733
H148	H	1.864575	-0.123204	1.287733
Br149	Br	1.623442	-1.395944	0.548431
Br150	Br	2.123442	-0.895944	1.048431
