data_functionalizedCrystal
_audit_creation_method	'MofGen! by Chris Wilmer'
_symmetry_space_group_name_H-M	'P1'
_symmetry_Int_Tables_number	1
_symmetry_cell_setting	triclinic
loop_
_symmetry_equiv_pos_as_xyz
  x,y,z
_cell_length_a	15.944551
_cell_length_b	16.098538
_cell_length_c	15.944493
_cell_angle_alpha	87.271722
_cell_angle_beta	83.486891
_cell_angle_gamma	92.734390
loop_
_atom_site_label
_atom_site_type_symbol
_atom_site_fract_x
_atom_site_fract_y
_atom_site_fract_z
O1	O	1.118258	0.069158	0.104587
O2	O	1.451591	0.402492	0.437920
O3	O	1.784925	0.735825	0.771253
O4	O	0.873707	0.069178	0.117942
O5	O	1.207040	0.402511	0.451275
O6	O	1.540373	0.735844	0.784609
O7	O	1.002686	0.069175	-0.011014
O8	O	1.336019	0.402508	0.322319
O9	O	1.669353	0.735841	0.655653
O10	O	0.989278	0.069162	0.233543
O11	O	1.322612	0.402495	0.566876
O12	O	1.655945	0.735828	0.900210
O13	O	0.995152	-0.069338	-0.003511
O14	O	1.328485	0.263995	0.329823
O15	O	1.661818	0.597328	0.663156
O16	O	0.866172	-0.069335	0.125446
O17	O	1.199505	0.263998	0.458779
O18	O	1.532839	0.597332	0.792112
O19	O	1.110724	-0.069354	0.112090
O20	O	1.444057	0.263979	0.445423
O21	O	1.777390	0.597312	0.778757
Zn22	Zn	0.987252	-0.091336	0.119959
Zn23	Zn	1.320585	0.241997	0.453292
Zn24	Zn	1.653918	0.575330	0.786626
Zn25	Zn	0.997178	0.091160	0.110073
Zn26	Zn	1.330512	0.424493	0.443406
Zn27	Zn	1.663845	0.757827	0.776740
O28	O	0.981744	-0.069351	0.241046
O29	O	1.315077	0.263982	0.574380
O30	O	1.648411	0.597316	0.907713
C31	C	0.838646	-0.000076	0.121139
C32	C	1.171979	0.333257	0.454473
C33	C	1.505312	0.666591	0.787806
C34	C	0.745400	-0.000068	0.119476
C35	C	1.078734	0.333265	0.452810
C36	C	1.412067	0.666599	0.786143
N37	N	0.980483	-0.215885	0.126706
N38	N	1.313816	0.117448	0.460039
N39	N	1.647150	0.450781	0.793372
C40	C	0.530560	-0.000080	0.035570
C41	C	0.863894	0.333254	0.368904
C42	C	1.197227	0.666587	0.702237
C43	C	0.473247	0.068212	0.070834
C44	C	0.806580	0.401546	0.404168
C45	C	1.139914	0.734879	0.737501
C46	C	0.574675	-0.000078	0.116470
C47	C	0.908008	0.333256	0.449803
C48	C	1.241341	0.666589	0.783136
C49	C	0.465841	-0.068350	0.078251
C50	C	0.799174	0.264983	0.411585
C51	C	1.132508	0.598316	0.744918
C52	C	0.409762	-0.000091	0.113559
C53	C	0.743095	0.333243	0.446893
C54	C	1.076428	0.666576	0.780226
C55	C	0.518592	0.068271	0.151753
C56	C	0.851926	0.401604	0.485086
C57	C	1.185259	0.734938	0.818419
C58	C	0.511189	-0.068353	0.159162
C59	C	0.844523	0.264980	0.492495
C60	C	1.177856	0.598313	0.825828
C61	C	0.453894	-0.000044	0.194484
C62	C	0.787228	0.333289	0.527817
C63	C	1.120561	0.666622	0.861150
C64	C	0.669677	-0.000069	0.118144
C65	C	1.003010	0.333264	0.451477
C66	C	1.336344	0.666597	0.784810
C67	C	0.314761	-0.000093	0.111891
C68	C	0.648094	0.333240	0.445225
C69	C	0.981428	0.666574	0.778558
C70	C	1.035247	-0.259472	0.071991
C71	C	1.368580	0.073861	0.405324
C72	C	1.701914	0.407195	0.738658
C73	C	1.030520	-0.346661	0.076718
C74	C	1.363853	-0.013327	0.410052
C75	C	1.697187	0.320006	0.743385
C76	C	0.971032	-0.390262	0.136165
C77	C	1.304365	-0.056928	0.469499
C78	C	1.637699	0.276405	0.802832
C79	C	0.916262	-0.346669	0.190882
C80	C	1.249595	-0.013336	0.524216
C81	C	1.582929	0.319998	0.857549
C82	C	0.920986	-0.259482	0.186150
C83	C	1.254319	0.073852	0.519484
C84	C	1.587652	0.407185	0.852817
C85	C	0.953908	-0.653511	0.153305
C86	C	1.287241	-0.320178	0.486638
C87	C	1.620574	0.013156	0.819972
C88	C	0.949190	-0.740705	0.158035
C89	C	1.282523	-0.407371	0.491368
C90	C	1.615856	-0.074038	0.824701
C91	C	1.063447	-0.740690	0.043869
C92	C	1.396780	-0.407357	0.377202
C93	C	1.730114	-0.074024	0.710536
C94	C	1.068169	-0.653501	0.039145
C95	C	1.401502	-0.320168	0.372479
C96	C	1.734836	0.013165	0.705812
C97	C	1.013396	-0.609916	0.093860
C98	C	1.346729	-0.276583	0.427193
C99	C	1.680063	0.056750	0.760526
C100	C	0.966200	-0.479383	0.141001
C101	C	1.299534	-0.146049	0.474334
C102	C	1.632867	0.187284	0.807667
C103	C	1.018224	-0.520797	0.089020
C104	C	1.351558	-0.187464	0.422353
C105	C	1.684891	0.145870	0.755686
C106	C	1.145785	-0.000099	0.108893
C107	C	1.479118	0.333235	0.442226
C108	C	1.812451	0.666568	0.775560
C109	C	1.239030	-0.000101	0.110555
C110	C	1.572363	0.333232	0.443889
C111	C	1.905697	0.666565	0.777222
C112	C	0.998371	-0.000078	-0.038557
C113	C	1.331705	0.333255	0.294776
C114	C	1.665038	0.666588	0.628109
C115	C	0.996729	-0.000068	-0.131807
C116	C	1.330062	0.333266	0.201527
C117	C	1.663396	0.666599	0.534860
N118	N	1.003954	0.215709	0.103320
N119	N	1.337287	0.549042	0.436653
N120	N	1.670621	0.882376	0.769987
C121	C	1.072648	-0.000089	-0.367565
C122	C	1.405981	0.333244	-0.034232
C123	C	1.739315	0.666577	0.299101
C124	C	1.035422	0.068207	-0.421833
C125	C	1.368755	0.401541	-0.088500
C126	C	1.702089	0.734874	0.244834
C127	C	0.993684	-0.000077	-0.302527
C128	C	1.327018	0.333256	0.030806
C129	C	1.660351	0.666589	0.364140
C130	C	1.027975	-0.068355	-0.414411
C131	C	1.361309	0.264978	-0.081078
C132	C	1.694642	0.598311	0.252255
C133	C	0.990749	-0.000091	-0.467436
C134	C	1.324082	0.333243	-0.134103
C135	C	1.657416	0.666576	0.199231
C136	C	0.956483	0.068276	-0.355570
C137	C	1.289816	0.401609	-0.022236
C138	C	1.623149	0.734942	0.311097
C139	C	0.949044	-0.068348	-0.348141
C140	C	1.282377	0.264985	-0.014808
C141	C	1.615711	0.598318	0.318525
C142	C	0.911761	-0.000035	-0.402377
C143	C	1.245094	0.333298	-0.069044
C144	C	1.578428	0.666632	0.264290
C145	C	0.995378	-0.000069	-0.207528
C146	C	1.328711	0.333264	0.125806
C147	C	1.662044	0.666598	0.459139
C148	C	0.989050	-0.000093	-0.562433
C149	C	1.322383	0.333240	-0.229100
C150	C	1.655717	0.666574	0.104234
C151	C	0.986059	-0.000096	0.268589
C152	C	1.319392	0.333237	0.601923
C153	C	1.652726	0.666570	0.935256
C154	C	0.987702	-0.000102	0.361838
C155	C	1.321035	0.333232	0.695172
C156	C	1.654368	0.666565	1.028505
H157	H	0.563912	0.000008	-0.031574
H158	H	0.897245	0.333342	0.301759
H159	H	1.230579	0.666675	0.635092
Br160	Br	0.906174	0.164618	-0.312761
Br161	Br	1.239507	0.497951	0.020572
Br162	Br	1.572841	0.831284	0.353906
Br163	Br	1.115991	-0.200309	-0.008685
Br164	Br	1.449324	0.133025	0.324648
Br165	Br	1.782658	0.466358	0.657981
H166	H	0.456285	0.125952	0.033489
H167	H	0.789618	0.459285	0.366823
H168	H	1.122951	0.792619	0.700156
H169	H	0.528173	-0.126096	0.196478
H170	H	0.861506	0.207238	0.529812
H171	H	1.194839	0.540571	0.863145
H172	H	0.909311	-0.618031	0.197857
H173	H	1.242644	-0.284698	0.531190
H174	H	1.575977	0.048636	0.864524
Br175	Br	0.888293	-0.164583	-0.294634
Br176	Br	1.221626	0.168751	0.038700
Br177	Br	1.554959	0.502084	0.372033
Br178	Br	1.096235	0.164437	-0.475293
Br179	Br	1.429568	0.497770	-0.141959
Br180	Br	1.762902	0.831104	0.191374
Br181	Br	1.078347	-0.164586	-0.457419
Br182	Br	1.411681	0.168748	-0.124086
Br183	Br	1.745014	0.502081	0.209247
Br184	Br	0.557128	0.164606	0.203524
Br185	Br	0.890461	0.497940	0.536857
Br186	Br	1.223794	0.831273	0.870191
H187	H	0.843693	0.000008	-0.417845
H188	H	1.177026	0.333341	-0.084512
H189	H	1.510359	0.666675	0.248821
Br190	Br	0.398603	0.000008	0.306498
Br191	Br	0.731937	0.333341	0.639832
Br192	Br	1.065270	0.666675	0.973165
H193	H	0.442622	-0.126084	0.047147
H194	H	0.775955	0.207250	0.380480
H195	H	1.109288	0.540583	0.713813
Br196	Br	1.104840	-0.405817	0.002459
Br197	Br	1.438174	-0.072483	0.335792
Br198	Br	1.771507	0.260850	0.669125
H199	H	1.116609	-0.618003	-0.009261
H200	H	1.449942	-0.284670	0.324073
H201	H	1.783275	0.048663	0.657406
Br202	Br	0.868452	-0.799872	0.238724
Br203	Br	1.201786	-0.466539	0.572057
Br204	Br	1.535119	-0.133205	0.905390
Br205	Br	1.137776	-0.799844	-0.030384
Br206	Br	1.471110	-0.466511	0.302949
Br207	Br	1.804443	-0.133177	0.636283
Br208	Br	0.846654	-0.200329	0.260404
Br209	Br	1.179987	0.133005	0.593738
Br210	Br	1.513321	0.466338	0.927071
Br211	Br	0.835520	-0.405838	0.271556
Br212	Br	1.168854	-0.072505	0.604890
Br213	Br	1.502187	0.260828	0.938223
Br214	Br	0.885467	-0.538558	0.221678
Br215	Br	1.218800	-0.205225	0.555011
Br216	Br	1.552134	0.128108	0.888345
H217	H	1.066656	-0.485295	0.040615
H218	H	1.399990	-0.151961	0.373948
H219	H	1.733323	0.181372	0.707282
H220	H	1.140669	-0.000026	-0.351940
H221	H	1.474003	0.333307	-0.018607
H222	H	1.807336	0.666641	0.314726
