data_functionalizedCrystal
_audit_creation_method	'MofGen! by Chris Wilmer'
_symmetry_space_group_name_H-M	'P1'
_symmetry_Int_Tables_number	1
_symmetry_cell_setting	triclinic
loop_
_symmetry_equiv_pos_as_xyz
  x,y,z
_cell_length_a	10.654550
_cell_length_b	14.044220
_cell_length_c	9.730223
_cell_angle_alpha	89.997406
_cell_angle_beta	89.996251
_cell_angle_gamma	88.836890
loop_
_atom_site_label
_atom_site_type_symbol
_atom_site_fract_x
_atom_site_fract_y
_atom_site_fract_z
O1	O	1.681222	0.133227	-0.114408
O2	O	1.317019	0.145921	-0.114387
O3	O	1.493654	0.001554	-0.114384
O4	O	1.504587	0.277595	-0.114411
O5	O	1.493652	0.001557	0.114196
O6	O	1.317017	0.145925	0.114193
O7	O	1.681220	0.133231	0.114172
Zn8	Zn	1.499118	0.139578	0.150474
Zn9	Zn	1.499121	0.139574	-0.150689
O10	O	1.504585	0.277598	0.114169
C11	C	1.270127	0.144991	-0.000094
C12	C	1.130403	0.142202	-0.000085
C13	C	1.059459	0.227203	-0.000114
C14	C	0.928175	0.224578	-0.000137
C15	C	0.938790	0.051942	-0.000109
C16	C	1.070072	0.054569	-0.000076
C17	C	1.053329	0.326873	-0.000136
C18	C	0.922045	0.324247	-0.000159
C19	C	1.488867	-0.033790	-0.000093
C20	C	1.474592	-0.139110	-0.000090
C21	C	1.448493	-0.331943	-0.000108
C22	C	1.549741	-0.388911	-0.000119
C23	C	1.535219	-0.496210	-0.000129
C24	C	1.463013	-0.224634	-0.000098
C25	C	1.728113	0.134161	-0.000124
C26	C	1.867836	0.136950	-0.000142
C27	C	1.509372	0.312942	-0.000125
C28	C	1.523648	0.418262	-0.000137
N29	N	1.499126	0.139581	0.356011
N30	N	1.499123	0.139563	-0.356226
C31	C	1.577364	0.075677	0.427938
C32	C	1.577359	0.075666	0.571821
C33	C	1.420876	0.203470	0.571837
C34	C	1.420875	0.203477	0.427956
C35	C	1.667713	0.001893	0.427931
C36	C	1.667708	0.001881	0.571814
H37	H	1.092175	0.358608	-0.098826
H38	H	1.647328	-0.357098	-0.000217
O39	O	0.876613	0.368907	-0.114336
C40	C	0.755816	0.354949	-0.322461
C41	C	0.807160	0.304266	-0.193203
H42	H	0.699675	0.302704	-0.386275
H43	H	0.692424	0.417510	-0.290677
H44	H	0.837426	0.382147	-0.386171
H45	H	0.725630	0.277008	-0.129436
H46	H	0.870588	0.241751	-0.225082
H47	H	0.889652	-0.019406	-0.000123
O48	O	1.092795	0.373363	0.114085
C49	C	1.032797	0.455541	0.322076
C50	C	0.987932	0.402897	0.192800
H51	H	0.948038	0.479452	0.385738
H52	H	1.095257	0.405745	0.385978
H53	H	1.088321	0.520465	0.290161
H54	H	0.932355	0.337975	0.224592
H55	H	0.925536	0.452758	0.128930
O56	O	1.779235	0.029342	0.374483
C57	C	1.956922	-0.013526	0.232578
C58	C	1.830646	-0.044746	0.293007
H59	H	1.998538	-0.073416	0.166716
H60	H	1.941357	0.052730	0.166560
H61	H	2.024403	0.003205	0.319817
H62	H	1.763102	-0.061528	0.205857
H63	H	1.846309	-0.110971	0.359062
H64	H	1.127830	-0.014647	-0.000033
O65	O	1.344686	0.265441	0.641668
C66	C	1.132384	0.319516	0.685641
C67	C	1.218524	0.249264	0.606501
H68	H	1.030366	0.306475	0.657216
H69	H	1.145710	0.308532	0.800849
H70	H	1.157324	0.395604	0.657376
H71	H	1.193637	0.173149	0.634651
H72	H	1.205184	0.260331	0.491313
O73	O	1.623109	-0.080400	0.624836
C74	C	1.539149	-0.234954	0.577083
C75	C	1.589636	-0.141825	0.516849
H76	H	1.512047	-0.284633	0.489805
H77	H	1.614838	-0.270912	0.642954
H78	H	1.453094	-0.218226	0.643098
H79	H	1.675671	-0.158470	0.450772
H80	H	1.513869	-0.105893	0.451056
O81	O	0.871118	0.360010	0.117647
C82	C	0.743276	0.329747	0.316599
C83	C	0.800894	0.289132	0.183233
H84	H	0.686465	0.272468	0.369649
H85	H	0.821453	0.353626	0.387949
H86	H	0.679180	0.393248	0.290875
H87	H	0.864977	0.225603	0.208828
H88	H	0.722653	0.265317	0.111921
H89	H	1.350913	-0.363754	-0.000106
H90	H	1.357156	0.255504	0.369394
O91	O	1.633226	-0.085004	0.381180
C92	C	1.484703	-0.173439	0.247987
C93	C	1.523644	-0.074975	0.300806
H94	H	1.396088	-0.165367	0.183018
H95	H	1.563575	-0.205817	0.182801
H96	H	1.465576	-0.222044	0.339135
H97	H	1.542754	-0.026298	0.209741
H98	H	1.444750	-0.042674	0.366034
O99	O	1.784850	0.021317	0.618173
C100	C	1.998328	0.056611	0.558084
C101	C	1.865725	0.034636	0.505397
H102	H	2.063759	0.067366	0.466932
H103	H	1.994496	0.124120	0.623133
H104	H	2.034917	-0.005460	0.623211
H105	H	1.829058	0.096648	0.440214
H106	H	1.869636	-0.032906	0.440423
