data_functionalizedCrystal
_audit_creation_method	'MofGen! by Chris Wilmer'
_symmetry_space_group_name_H-M	'P1'
_symmetry_Int_Tables_number	1
_symmetry_cell_setting	triclinic
loop_
_symmetry_equiv_pos_as_xyz
  x,y,z
_cell_length_a	16.120444
_cell_length_b	21.295420
_cell_length_c	16.120256
_cell_angle_alpha	92.878456
_cell_angle_beta	95.616860
_cell_angle_gamma	92.922386
loop_
_atom_site_label
_atom_site_type_symbol
_atom_site_fract_x
_atom_site_fract_y
_atom_site_fract_z
Zn1	Zn	-0.356856	0.929939	-0.489469
Zn2	Zn	-0.489542	0.929858	-0.356780
Zn3	Zn	-0.349778	0.830293	-0.349713
Zn4	Zn	-0.496577	0.819020	-0.496503
O5	O	-0.423188	0.877277	-0.423116
O6	O	-0.374475	1.018016	-0.471881
O7	O	-0.465096	0.921334	-0.238880
O8	O	-0.233751	0.848263	-0.362351
O9	O	-0.471959	1.017957	-0.374396
O10	O	-0.238951	0.921472	-0.465029
O11	O	-0.362412	0.848184	-0.233688
O12	O	-0.369233	0.740709	-0.369171
O13	O	-0.483949	0.829050	-0.612532
O14	O	-0.477085	0.732427	-0.477017
O15	O	-0.381296	0.910541	-0.607365
O16	O	-0.607441	0.910403	-0.381216
O17	O	-0.612609	0.828971	-0.483870
C18	C	-0.423155	0.713728	-0.423091
C19	C	-0.423162	0.643759	-0.423101
C20	C	-0.372559	0.144321	-0.473983
C21	C	-0.372553	0.210064	-0.473983
C22	C	-0.423214	0.242916	-0.423137
C23	C	-0.473902	0.210020	-0.372304
C24	C	-0.473913	0.144278	-0.372312
N25	N	-0.425801	0.348802	-0.350270
N26	N	-0.425786	0.411254	-0.350264
C27	C	-0.423186	0.440993	-0.423111
N28	N	-0.420585	0.405921	-0.495965
N29	N	-0.420596	0.343463	-0.495969
C30	C	-0.423209	0.314202	-0.423123
C31	C	-0.372499	0.545167	-0.473945
C32	C	-0.372499	0.610911	-0.473946
C33	C	-0.473843	0.610866	-0.372260
C34	C	-0.473848	0.545123	-0.372266
C35	C	-0.423172	0.512278	-0.423107
C36	C	-0.640354	0.868471	-0.434091
C37	C	-0.733259	0.864761	-0.438814
C38	C	-0.942171	0.896674	-0.398795
C39	C	-0.903354	0.857997	-0.447446
C40	C	-0.808705	0.861761	-0.442642
C41	C	-1.036829	0.892910	-0.403598
C42	C	-0.205175	0.886134	-0.412117
C43	C	-0.112271	0.889908	-0.407429
C44	C	-0.434197	0.868547	-0.641123
C45	C	-0.438888	0.864827	-0.734025
C46	C	-0.423222	1.041465	-0.423142
C47	C	-0.423236	1.111432	-0.423153
C48	C	-0.398702	0.896678	-0.942951
C49	C	-0.447418	0.858014	-0.904110
C50	C	-0.442671	0.861806	-0.809466
C51	C	-0.403449	0.892888	-1.037603
C52	C	-0.412162	0.886012	-0.205954
C53	C	-0.407235	0.889864	-0.113041
H54	H	-0.331298	0.117582	-0.515385
H55	H	-0.492686	0.822063	-0.941937
N56	N	-0.338749	0.944302	-0.892851
H57	H	-0.306898	0.969581	-0.931956
H58	H	-0.298279	0.921677	-0.854658
N59	N	-0.317893	0.245547	-0.528809
H60	H	-0.285794	0.214764	-0.561018
H61	H	-0.277446	0.275744	-0.492880
H62	H	-0.515153	0.236772	-0.330908
N63	N	-0.953493	0.810385	-0.507387
H64	H	-0.937751	0.766529	-0.493591
H65	H	-0.941322	0.818372	-0.566344
H66	H	-0.331234	0.637687	-0.515344
N67	N	-0.528494	0.509649	-0.317427
H68	H	-0.520814	0.463017	-0.325146
H69	H	-0.588860	0.518210	-0.333355
H70	H	-0.515182	0.117500	-0.330919
N71	N	-0.892042	0.944278	-0.338846
H72	H	-0.830555	0.940250	-0.343871
H73	H	-0.904267	0.936311	-0.279899
H74	H	-0.331235	0.518423	-0.515342
H75	H	-0.515099	0.637614	-0.330867
