data_functionalizedCrystal
_audit_creation_method	'MofGen! by Chris Wilmer'
_symmetry_space_group_name_H-M	'P1'
_symmetry_Int_Tables_number	1
_symmetry_cell_setting	triclinic
loop_
_symmetry_equiv_pos_as_xyz
  x,y,z
_cell_length_a	10.654545
_cell_length_b	12.811415
_cell_length_c	9.730223
_cell_angle_alpha	84.564740
_cell_angle_beta	89.997167
_cell_angle_gamma	84.262263
loop_
_atom_site_label
_atom_site_type_symbol
_atom_site_fract_x
_atom_site_fract_y
_atom_site_fract_z
O1	O	1.667077	0.147404	-0.132645
O2	O	1.301525	0.161455	-0.134402
O3	O	1.493497	0.001703	-0.114482
O4	O	1.475104	0.307155	-0.152565
O5	O	1.493485	0.001699	0.114098
O6	O	1.301512	0.161450	0.094179
O7	O	1.667064	0.147399	0.095935
Zn8	Zn	1.484286	0.154424	0.131349
Zn9	Zn	1.484303	0.154430	-0.169815
O10	O	1.475092	0.307151	0.076016
C11	C	1.254726	0.160422	-0.019984
C12	C	1.115298	0.157338	-0.019601
C13	C	1.049794	0.155884	0.105180
C14	C	0.918790	0.152969	0.105543
C15	C	0.918804	0.152967	-0.143667
C16	C	1.049807	0.155874	-0.144028
C17	C	1.492460	-0.037411	0.004681
C18	C	1.489373	-0.153951	0.019202
C19	C	1.483564	-0.372927	-0.202739
C20	C	1.480664	-0.482428	-0.189102
C21	C	1.480664	-0.482453	0.060112
C22	C	1.483564	-0.372953	0.046475
C23	C	1.485016	-0.318194	-0.084955
C24	C	1.487925	-0.208693	-0.098590
C25	C	1.487916	-0.208719	0.150622
C26	C	1.485016	-0.318220	0.164259
C27	C	1.713863	0.148432	-0.018486
C28	C	1.853291	0.151516	-0.018877
C29	C	1.476129	0.346265	-0.043151
C30	C	1.479216	0.462805	-0.057681
N31	N	1.484284	0.154420	0.336886
N32	N	1.484314	0.154426	-0.375351
C33	C	1.569319	0.083712	0.417629
C34	C	1.569331	0.083712	0.561512
C35	C	1.399271	0.225137	0.543896
C36	C	1.399253	0.225131	0.400016
H37	H	1.103113	0.157076	0.206496
F38	F	1.308782	0.300393	0.611092
H39	H	1.489103	-0.164144	0.246531
F40	F	0.849082	0.151423	0.238352
H41	H	1.638554	0.026133	0.366232
H42	H	1.638572	0.026134	0.627249
F43	F	0.849096	0.151388	-0.276081
H44	H	1.103142	0.157055	-0.245646
F45	F	1.485126	-0.314648	-0.342613
H46	H	1.489111	-0.164110	-0.205607
F47	F	1.308739	0.300387	0.314077
H48	H	1.479477	-0.526987	-0.285014
H49	H	1.479471	-0.527056	0.167116
H50	H	1.483829	-0.362819	0.271265
