data_functionalizedCrystal
_audit_creation_method	'MofGen! by Chris Wilmer'
_symmetry_space_group_name_H-M	'P1'
_symmetry_Int_Tables_number	1
_symmetry_cell_setting	triclinic
loop_
_symmetry_equiv_pos_as_xyz
  x,y,z
_cell_length_a	12.837943
_cell_length_b	15.995350
_cell_length_c	11.892095
_cell_angle_alpha	93.891441
_cell_angle_beta	85.689438
_cell_angle_gamma	89.160657
loop_
_atom_site_label
_atom_site_type_symbol
_atom_site_fract_x
_atom_site_fract_y
_atom_site_fract_z
O1	O	1.382080	0.212847	-0.093972
O2	O	1.080275	0.202094	-0.093979
O3	O	1.239427	0.086241	-0.093975
O4	O	1.222927	0.328700	-0.093977
O5	O	1.226157	0.095884	0.094032
O6	O	1.067005	0.211737	0.094028
O7	O	1.368810	0.222490	0.094035
Zn8	Zn	1.215800	0.218644	0.123881
Zn9	Zn	1.233284	0.205939	-0.123826
O10	O	1.209657	0.338343	0.094030
C11	C	1.035019	0.203283	0.000023
C12	C	0.919942	0.192449	0.000020
C13	C	1.232110	0.059813	0.000027
C14	C	1.230066	-0.033301	0.000020
C15	C	0.678983	0.322688	0.000035
C16	C	0.570857	0.312513	0.000033
C17	C	0.595563	0.161925	0.000023
C18	C	0.703688	0.172100	0.000025
C19	C	0.745394	0.252484	0.000029
C20	C	0.853523	0.262658	0.000023
C21	C	0.878225	0.112072	0.000020
C22	C	0.770100	0.101896	0.000018
C23	C	1.222721	-0.371634	0.000024
C24	C	1.109405	-0.333265	-0.000400
C25	C	1.111421	-0.236390	0.000023
C26	C	1.226364	-0.203783	0.000021
C27	C	1.274693	-0.234893	0.107382
C28	C	1.271839	-0.331752	0.107472
C29	C	1.289271	-0.342889	-0.106327
C30	C	1.289344	-0.246018	-0.107746
C31	C	1.228429	-0.108921	0.000024
C32	C	1.220659	-0.466496	0.000029
C33	C	1.414066	0.221301	0.000030
C34	C	1.529143	0.232134	0.000025
C35	C	1.216974	0.364770	0.000026
C36	C	1.219020	0.457884	0.000025
N37	N	1.203876	0.227315	0.292935
N38	N	1.245217	0.197262	-0.292880
C39	C	1.328193	0.136877	0.529587
C40	C	1.319865	0.142945	0.647928
C41	C	1.178889	0.245514	0.647962
C42	C	1.187216	0.239446	0.529621
C43	C	1.261872	0.185127	0.470437
C44	C	1.270204	0.179064	0.352093
C45	C	1.129223	0.281628	0.352129
C46	C	1.120896	0.287696	0.470471
H47	H	0.887477	0.328111	0.000028
H48	H	0.932310	0.054906	0.000008
H49	H	1.373869	0.103654	0.696085
H50	H	0.712940	0.388139	0.000037
C51	C	0.724967	0.014569	-0.000169
C52	C	0.765565	-0.033339	-0.096888
C53	C	0.724026	-0.113794	-0.097096
H54	H	0.651067	0.018441	-0.000226
H55	H	0.743169	-0.011390	0.065354
H56	H	0.747356	-0.007387	-0.162394
H57	H	0.839460	-0.037235	-0.096850
H58	H	0.742228	-0.139752	-0.031573
H59	H	0.650127	-0.109913	-0.097150
H60	H	0.751573	-0.146311	-0.162712
C61	C	1.057325	0.334168	0.287972
C62	C	1.072135	0.419270	0.316746
C63	C	1.005937	0.467697	0.257658
H64	H	0.986736	0.320629	0.307331
H65	H	1.072979	0.322837	0.209003
H66	H	1.056474	0.430596	0.395697
H67	H	1.142711	0.432834	0.297384
H68	H	1.021591	0.456366	0.178689
H69	H	0.935351	0.454152	0.277021
H70	H	1.015983	0.525444	0.277164
H71	H	1.330995	0.134837	0.303907
C72	C	1.400699	-0.376565	-0.107370
C73	C	1.400108	-0.464242	-0.111465
C74	C	1.502731	-0.495298	-0.112434
H75	H	1.430860	-0.355687	-0.040792
H76	H	1.440552	-0.359043	-0.171845
H77	H	1.360271	-0.481756	-0.046996
H78	H	1.369967	-0.485142	-0.178039
H79	H	1.542583	-0.477776	-0.176909
H80	H	1.532884	-0.474415	-0.045855
H81	H	1.502344	-0.554790	-0.115223
H82	H	1.061738	-0.208101	0.077113
C83	C	1.059973	-0.208587	-0.102622
C84	C	1.026797	-0.279064	-0.165589
C85	C	0.979378	-0.253488	-0.260144
H86	H	1.108775	-0.179006	-0.148172
H87	H	1.001491	-0.173020	-0.078494
H88	H	1.085272	-0.314616	-0.189718
H89	H	0.977983	-0.308653	-0.120072
H90	H	0.920896	-0.217922	-0.236016
H91	H	1.028187	-0.223907	-0.305684
H92	H	0.956854	-0.301301	-0.302873
H93	H	0.516788	0.369680	0.000041
H94	H	1.358857	-0.213825	0.111373
C95	C	1.097776	0.304347	0.712383
C96	C	1.029566	0.258128	0.780350
C97	C	0.954840	0.312297	0.839725
H98	H	1.059352	0.332242	0.660345
H99	H	1.131785	0.344544	0.758613
H100	H	0.995559	0.217946	0.734124
H101	H	1.067959	0.230235	0.832408
H102	H	0.988848	0.352494	0.885955
H103	H	0.916424	0.340189	0.787679
H104	H	0.908556	0.280946	0.885855
H105	H	0.561579	0.096485	0.000112
H106	H	1.060110	0.331919	0.518672
C107	C	1.382264	-0.365737	0.113935
C108	C	1.380534	-0.453233	0.114044
C109	C	1.482235	-0.484565	0.119993
H110	H	1.409534	-0.343220	0.181381
H111	H	1.425157	-0.350164	0.050431
H112	H	1.337657	-0.468798	0.177542
H113	H	1.353284	-0.475771	0.046604
H114	H	1.525127	-0.468992	0.056490
H115	H	1.509496	-0.462043	0.187440
H116	H	1.481076	-0.543934	0.120058
C117	C	1.409279	0.077830	0.465527
C118	C	1.465568	0.036861	0.542659
C119	C	1.540265	-0.017548	0.483690
H120	H	1.455773	0.108957	0.419348
H121	H	1.375266	0.037572	0.419394
H122	H	1.499580	0.077113	0.588772
H123	H	1.419103	0.005717	0.588840
H124	H	1.506252	-0.057806	0.437557
H125	H	1.586751	0.013586	0.437513
H126	H	1.578459	-0.045358	0.536015
H127	H	1.058900	-0.352531	0.076159
C128	C	1.215390	-0.195888	0.214013
C129	C	1.172814	-0.259382	0.277597
C130	C	1.118183	-0.223486	0.375836
H131	H	1.160788	-0.160368	0.194037
H132	H	1.261826	-0.163997	0.257510
H133	H	1.126381	-0.291259	0.234109
H134	H	1.227393	-0.294907	0.297602
H135	H	1.164619	-0.191595	0.419333
H136	H	1.063586	-0.187966	0.355850
H137	H	1.089297	-0.266561	0.418995
C138	C	1.247330	-0.379823	-0.214708
C139	C	1.160909	-0.429117	-0.187968
C140	C	1.122225	-0.463144	-0.287772
H141	H	1.300197	-0.413514	-0.256706
H142	H	1.226825	-0.335771	-0.258544
H143	H	1.181416	-0.473163	-0.144151
H144	H	1.108020	-0.395445	-0.145985
H145	H	1.101720	-0.419092	-0.331608
H146	H	1.175099	-0.496831	-0.329763
H147	H	1.063578	-0.496587	-0.269643
C148	C	1.242482	-0.219227	-0.213619
C149	C	1.246941	-0.131969	-0.216269
C150	C	1.203791	-0.107253	-0.313786
H151	H	1.171760	-0.235944	-0.213039
H152	H	1.280925	-0.244926	-0.278557
H153	H	1.208496	-0.106279	-0.151348
H154	H	1.317651	-0.115230	-0.216867
H155	H	1.242235	-0.132953	-0.378724
H156	H	1.133072	-0.123975	-0.313197
H157	H	1.206819	-0.048048	-0.315602
C158	C	1.401700	-0.216999	-0.116167
C159	C	1.417151	-0.160209	-0.024335
C160	C	1.520648	-0.133469	-0.032036
H161	H	1.415429	-0.190413	-0.184625
H162	H	1.447698	-0.263975	-0.115207
H163	H	1.371168	-0.113241	-0.025306
H164	H	1.403444	-0.186776	0.044136
H165	H	1.566646	-0.180444	-0.031076
H166	H	1.534368	-0.106887	-0.100498
H167	H	1.531148	-0.094940	0.030275
H168	H	1.069536	-0.359360	-0.077391
H169	H	1.225408	-0.349189	0.187727
