data_functionalizedCrystal
_audit_creation_method	'MofGen! by Chris Wilmer'
_symmetry_space_group_name_H-M	'P1'
_symmetry_Int_Tables_number	1
_symmetry_cell_setting	triclinic
loop_
_symmetry_equiv_pos_as_xyz
  x,y,z
_cell_length_a	19.805407
_cell_length_b	12.759394
_cell_length_c	12.759387
_cell_angle_alpha	89.968340
_cell_angle_beta	89.976158
_cell_angle_gamma	90.014837
loop_
_atom_site_label
_atom_site_type_symbol
_atom_site_fract_x
_atom_site_fract_y
_atom_site_fract_z
Zn1	Zn	1.034819	-0.418211	-0.594092
Zn2	Zn	1.034748	-0.593928	-0.418410
Zn3	Zn	0.921625	-0.418264	-0.418419
Zn4	Zn	0.921620	-0.593849	-0.594039
O5	O	0.978203	-0.506063	-0.506240
O6	O	1.129526	-0.441532	-0.570806
O7	O	1.019714	-0.570681	-0.271390
O8	O	0.936672	-0.271236	-0.441748
O9	O	1.129474	-0.570630	-0.441733
O10	O	1.019835	-0.271197	-0.570815
O11	O	0.936603	-0.441621	-0.271397
O12	O	0.826908	-0.441544	-0.441697
O13	O	0.936663	-0.570495	-0.741067
O14	O	0.826904	-0.570546	-0.570724
O15	O	1.019830	-0.441455	-0.741106
O16	O	1.019709	-0.740939	-0.441682
O17	O	0.936595	-0.740880	-0.570715
C18	C	0.802347	-0.506043	-0.506206
C19	C	0.727115	-0.506059	-0.506216
C20	C	0.691786	-0.573332	-0.573292
C21	C	0.621098	-0.573334	-0.573307
C22	C	0.585739	-0.506068	-0.506240
C23	C	0.621073	-0.438788	-0.439161
C24	C	0.691760	-0.438782	-0.439153
C25	C	0.335999	-0.438811	-0.439196
C26	C	0.265307	-0.438825	-0.439208
C27	C	0.265337	-0.573363	-0.573350
C28	C	0.336025	-0.573357	-0.573342
C29	C	0.371352	-0.506074	-0.506267
C30	C	0.448000	-0.506071	-0.506254
C31	C	0.509092	-0.506075	-0.506248
C32	C	0.978162	-0.779030	-0.506215
C33	C	0.978207	-0.895807	-0.506239
C34	C	1.064819	-0.895814	-0.371977
C35	C	1.108143	-0.950679	-0.304858
C36	C	1.108183	-1.060400	-0.304886
C37	C	1.064895	-1.115260	-0.372043
C38	C	1.021571	-1.060396	-0.439162
C39	C	1.021535	-0.950672	-0.439124
C40	C	0.934963	-1.060388	-0.573428
C41	C	0.934919	-0.950667	-0.573396
C42	C	0.891676	-1.115248	-0.640585
C43	C	0.848348	-1.060383	-0.707700
C44	C	0.848309	-0.950655	-0.707667
C45	C	0.891595	-0.895802	-0.640514
C46	C	1.154745	-0.506084	-0.506275
C47	C	1.229977	-0.506093	-0.506290
C48	C	0.978254	-0.505960	-0.780274
C49	C	0.978276	-0.505916	-0.897050
C50	C	0.978262	-0.232029	-0.506289
C51	C	0.978287	-0.115253	-0.506309
C52	C	1.064883	-0.371555	-0.897111
C53	C	1.108196	-0.304359	-0.952002
C54	C	1.108213	-0.304321	-1.061724
C55	C	1.064910	-0.371484	-1.116557
C56	C	1.021597	-0.438680	-1.061666
C57	C	1.021586	-0.438713	-0.951942
C58	C	0.934987	-0.573034	-1.061605
C59	C	0.934973	-0.573079	-0.951884
C60	C	0.891684	-0.640196	-1.116438
C61	C	0.848373	-0.707399	-1.061547
C62	C	0.848359	-0.707436	-0.951819
C63	C	0.891660	-0.640275	-0.896992
C64	C	0.978191	-0.506090	-0.233273
C65	C	0.978300	-0.505838	-0.116496
H66	H	0.720570	-0.628111	-0.627903
H67	H	0.364810	-0.628135	-0.627951
O68	O	0.806212	-0.772565	-0.898459
C69	C	0.714832	-0.786737	-0.774507
C70	C	0.762511	-0.712854	-0.834881
H71	H	0.679498	-0.738492	-0.723074
H72	H	0.683841	-0.834706	-0.832507
H73	H	0.745898	-0.841726	-0.723188
H74	H	0.731498	-0.657802	-0.886202
H75	H	0.793504	-0.664959	-0.776825
O76	O	0.230933	-0.373630	-0.373936
C77	C	0.151060	-0.359351	-0.232151
C78	C	0.189956	-0.433292	-0.305992
H79	H	0.117911	-0.407557	-0.177215
H80	H	0.188426	-0.311284	-0.184135
H81	H	0.118013	-0.304455	-0.280499
H82	H	0.223005	-0.488251	-0.257725
H83	H	0.152554	-0.481284	-0.354012
H84	H	0.592337	-0.628114	-0.627926
H85	H	1.143464	-1.105071	-0.250238
O86	O	0.891590	-1.221831	-0.640616
C87	C	0.826770	-1.379390	-0.613542
C88	C	0.826773	-1.258686	-0.613487
H89	H	0.774374	-1.409224	-0.591589
H90	H	0.840760	-1.409145	-0.694935
H91	H	0.865195	-1.409161	-0.554067
H92	H	0.788347	-1.228825	-0.672911
H93	H	0.812813	-1.229002	-0.532057
O94	O	0.726051	-0.373552	-0.373840
C95	C	0.747602	-0.322303	-0.195216
C96	C	0.708738	-0.396261	-0.269060
H97	H	0.733608	-0.340623	-0.110487
H98	H	0.804205	-0.333858	-0.206641
H99	H	0.733730	-0.237616	-0.213865
H100	H	0.722553	-0.480977	-0.250456
H101	H	0.652144	-0.384616	-0.257622
O102	O	0.806398	-1.113788	-0.772981
C103	C	0.797307	-1.237509	-0.914896
C104	C	0.844891	-1.177108	-0.841015
H105	H	0.828410	-1.288701	-0.969935
H106	H	0.761962	-1.289042	-0.866687
H107	H	0.766315	-1.179434	-0.962811
H108	H	0.875927	-1.235107	-0.793085
H109	H	0.880192	-1.125560	-0.889285
H110	H	1.064782	-0.806473	-0.371933
O111	O	1.150241	-0.239225	-0.898575
C112	C	1.188585	-0.179700	-0.729569
C113	C	1.140947	-0.253533	-0.789939
H114	H	1.181077	-0.191227	-0.641726
H115	H	1.243173	-0.198167	-0.751082
H116	H	1.176738	-0.094982	-0.751217
H117	H	1.152733	-0.338275	-0.768323
H118	H	1.086373	-0.234976	-0.768420
O119	O	1.150349	-0.239014	-1.114888
C120	C	1.236225	-0.105703	-1.103382
C121	C	1.188553	-0.179626	-1.043043
H122	H	1.267114	-0.057654	-1.045322
H123	H	1.271654	-0.153884	-1.154722
H124	H	1.205158	-0.050793	-1.154783
H125	H	1.219565	-0.234552	-0.991585
H126	H	1.153122	-0.131381	-0.991769
O127	O	1.150126	-0.897226	-0.239657
C128	C	1.188481	-0.728197	-0.180142
C129	C	1.140889	-0.788595	-0.254014
H130	H	1.181040	-0.640359	-0.191740
H131	H	1.176624	-0.749779	-0.095394
H132	H	1.243054	-0.749750	-0.198657
H133	H	1.086301	-0.767075	-0.235594
H134	H	1.152805	-0.767008	-0.338740
O135	O	1.065064	-1.221843	-0.372082
C136	C	1.130000	-1.379184	-0.399275
C137	C	1.129907	-1.258480	-0.399245
H138	H	1.182416	-1.408842	-0.421256
H139	H	1.116037	-1.409123	-0.317902
H140	H	1.091594	-1.408947	-0.458767
H141	H	1.168313	-1.228627	-0.339805
H142	H	1.143840	-1.228612	-0.480656
O143	O	0.891702	-0.640354	-1.223021
C144	C	0.909123	-0.741022	-1.380456
C145	C	0.909112	-0.740989	-1.259751
H146	H	0.923211	-0.822371	-1.410189
H147	H	0.856716	-0.719264	-1.410294
H148	H	0.947500	-0.681420	-1.410245
H149	H	0.870768	-0.800592	-1.229873
H150	H	0.961543	-0.762701	-1.229985
O151	O	0.806347	-0.772780	-1.114694
C152	C	0.773476	-0.951473	-1.148283
C153	C	0.821102	-0.877546	-1.088006
H154	H	0.785398	-1.036193	-1.126744
H155	H	0.718889	-0.933107	-1.126671
H156	H	0.780912	-0.939842	-1.236126
H157	H	0.813725	-0.889135	-1.000148
H158	H	0.875671	-0.895930	-1.109704
H159	H	0.236566	-0.628144	-0.627970
H160	H	0.891655	-0.640302	-0.807651
H161	H	0.891564	-0.806461	-0.640475
H162	H	1.064880	-0.371590	-0.807770
H163	H	0.364754	-0.384033	-0.384572
H164	H	0.813032	-0.905990	-0.762328
H165	H	1.064922	-0.371438	-1.205898
H166	H	0.592278	-0.384014	-0.384559
