data_functionalizedCrystal
_audit_creation_method	'MofGen! by Chris Wilmer'
_symmetry_space_group_name_H-M	'P1'
_symmetry_Int_Tables_number	1
_symmetry_cell_setting	triclinic
loop_
_symmetry_equiv_pos_as_xyz
  x,y,z
_cell_length_a	19.288859
_cell_length_b	16.109304
_cell_length_c	17.766277
_cell_angle_alpha	89.996447
_cell_angle_beta	89.989768
_cell_angle_gamma	83.298182
loop_
_atom_site_label
_atom_site_type_symbol
_atom_site_fract_x
_atom_site_fract_y
_atom_site_fract_z
O1	O	0.921604	0.103691	-0.062604
O2	O	1.421604	0.603691	0.437396
O3	O	0.719376	0.117688	-0.062602
O4	O	1.219376	0.617688	0.437398
O5	O	0.826045	-0.010360	-0.062604
O6	O	1.326045	0.489640	0.437396
O7	O	0.814936	0.231740	-0.062603
O8	O	1.314936	0.731740	0.437397
O9	O	0.826026	-0.010367	0.062585
O10	O	1.326026	0.489633	0.562585
O11	O	0.719358	0.117681	0.062586
O12	O	1.219358	0.617681	0.562586
O13	O	0.921585	0.103685	0.062584
O14	O	1.421585	0.603685	0.562584
Cu15	Cu	0.820470	0.110683	0.074016
Cu16	Cu	1.320470	0.610683	0.574016
Cu17	Cu	0.820492	0.110690	-0.074034
Cu18	Cu	1.320492	0.610690	0.425966
O19	O	0.814917	0.231733	0.062586
O20	O	1.314917	0.731733	0.562586
C21	C	0.693489	0.117235	-0.000008
C22	C	1.193489	0.617235	0.499992
C23	C	0.616382	0.115886	-0.000007
C24	C	1.116382	0.615886	0.499993
C25	C	0.052500	0.181891	-0.000008
C26	C	0.552500	0.681891	0.499992
C27	C	0.124949	0.183166	-0.000012
C28	C	0.624949	0.683166	0.499988
C29	C	0.169476	0.108033	-0.000011
C30	C	0.669476	0.608033	0.499989
C31	C	0.141548	0.031619	-0.000025
C32	C	0.641548	0.531619	0.499975
C33	C	0.069100	0.030346	-0.000028
C34	C	0.569100	0.530346	0.499972
C35	C	0.290606	0.051997	0.043851
C36	C	0.790606	0.551997	0.543851
C37	C	0.363052	0.053273	0.043859
C38	C	0.863052	0.553273	0.543859
C39	C	0.392931	0.111956	-0.000003
C40	C	0.892931	0.611956	0.499997
C41	C	0.350353	0.169377	-0.043864
C42	C	0.850353	0.669377	0.456136
C43	C	0.277905	0.168104	-0.043867
C44	C	0.777905	0.668104	0.456133
C45	C	0.248035	0.109405	-0.000007
C46	C	0.748035	0.609405	0.499993
C47	C	0.499409	0.189747	0.000002
C48	C	0.999409	0.689747	0.500002
C49	C	0.571861	0.191019	-0.000007
C50	C	1.071861	0.691019	0.499993
C51	C	0.588458	0.039471	-0.000012
C52	C	1.088458	0.539471	0.499988
C53	C	0.516008	0.038201	-0.000011
C54	C	1.016008	0.538201	0.499989
C55	C	0.471488	0.113342	-0.000001
C56	C	0.971488	0.613342	0.499999
C57	C	0.825585	-0.041337	-0.000011
C58	C	1.325585	0.458663	0.499989
C59	C	0.824235	-0.133627	-0.000016
C60	C	1.324235	0.366373	0.499984
C61	C	0.821126	-0.345951	-0.068254
C62	C	1.321126	0.154049	0.431746
C63	C	0.819851	-0.432666	-0.068253
C64	C	1.319851	0.067334	0.431747
C65	C	0.819834	-0.432670	0.068234
C66	C	1.319834	0.067330	0.568234
C67	C	0.821104	-0.345955	0.068233
C68	C	1.321104	0.154045	0.568233
C69	C	0.821753	-0.302598	-0.000013
C70	C	1.321753	0.197402	0.499987
C71	C	0.819208	-0.476029	-0.000011
C72	C	1.319208	0.023971	0.499989
C73	C	0.817826	-0.570050	-0.000010
C74	C	1.317826	-0.070050	0.499990
C75	C	0.823135	-0.208571	-0.000015
C76	C	1.323135	0.291429	0.499985
C77	C	0.947472	0.104138	-0.000012
C78	C	1.447472	0.604138	0.499988
C79	C	1.024579	0.105487	-0.000018
C80	C	1.524579	0.605487	0.499982
C81	C	0.815377	0.262710	-0.000008
C82	C	1.315377	0.762710	0.499992
C83	C	0.816727	0.355000	-0.000008
C84	C	1.316727	0.855000	0.499992
N85	N	0.820459	0.110677	0.178146
N86	N	1.320459	0.610677	0.678146
N87	N	0.820508	0.110689	-0.178164
N88	N	1.320508	0.610689	0.321836
C89	C	0.867707	0.054005	0.217532
C90	C	1.367707	0.554005	0.717532
C91	C	0.867711	0.054001	0.296334
C92	C	1.367711	0.554001	0.796334
C93	C	0.820474	0.110683	0.335747
C94	C	1.320474	0.610683	0.835747
C95	C	0.773217	0.167360	0.296351
C96	C	1.273217	0.667360	0.796351
C97	C	0.773210	0.167356	0.217551
C98	C	1.273210	0.667356	0.717551
C99	C	0.811357	0.186437	0.460585
C100	C	1.311357	0.686437	0.960585
C101	C	0.811369	0.186441	0.539384
C102	C	1.311369	0.686441	1.039384
C103	C	0.820493	0.110693	0.578793
C104	C	1.320493	0.610693	1.078793
C105	C	0.829619	0.034938	0.539394
C106	C	1.329619	0.534938	1.039394
C107	C	0.829612	0.034934	0.460594
C108	C	1.329612	0.534934	0.960594
C109	C	0.820476	0.110693	0.421193
C110	C	1.320476	0.610693	0.921193
C111	C	0.867747	0.054012	0.703625
C112	C	1.367747	0.554012	1.203625
C113	C	0.867747	0.054007	0.782429
C114	C	1.367747	0.554007	1.282429
C115	C	0.773256	0.167373	0.782444
C116	C	1.273256	0.667373	1.282444
C117	C	0.773253	0.167371	0.703642
C118	C	1.273253	0.667371	1.203642
C119	C	0.820503	0.110691	0.664238
C120	C	1.320503	0.610691	1.164238
H121	H	0.397714	0.006522	0.079577
H122	H	0.897714	0.506522	0.579577
C123	C	0.819188	-0.480354	-0.143323
C124	C	1.319188	0.019646	0.356677
N125	N	0.818698	-0.516274	-0.199869
N126	N	1.318698	-0.016274	0.300131
C127	C	0.821833	-0.298260	-0.143326
C128	C	1.321833	0.201740	0.356674
N129	N	0.822362	-0.262340	-0.199874
N130	N	1.322362	0.237660	0.300126
C131	C	0.821793	-0.298265	0.143306
C132	C	1.321793	0.201735	0.643306
N133	N	0.822311	-0.262344	0.199850
N134	N	1.322311	0.237656	0.699850
C135	C	0.839641	-0.048395	0.417257
C136	C	1.339641	0.451605	0.917257
N137	N	0.847191	-0.111161	0.384616
N138	N	1.347191	0.388839	0.884616
H139	H	0.624711	-0.021704	-0.000017
H140	H	1.124711	0.478296	0.499983
C141	C	0.721253	0.229707	0.339707
C142	C	1.221253	0.729707	0.839707
N143	N	0.682109	0.276666	0.372362
N144	N	1.182109	0.776666	0.872362
H145	H	0.147687	0.245385	0.000004
H146	H	0.647687	0.745385	0.500004
C147	C	0.839654	-0.048392	0.582738
C148	C	1.339654	0.451608	1.082738
N149	N	0.847213	-0.111154	0.615388
N150	N	1.347213	0.388846	1.115388
H151	H	0.819307	-0.467983	0.123798
H152	H	1.319307	0.032017	0.623798
H153	H	0.906179	0.007851	0.185452
H154	H	1.406179	0.507851	0.685452
H155	H	0.906188	0.007850	0.328408
H156	H	1.406188	0.507850	0.828408
H157	H	0.906219	0.007858	0.671541
H158	H	1.406219	0.507858	1.171541
C159	C	0.919714	-0.008354	0.825753
C160	C	1.419714	0.491646	1.325753
N161	N	0.958854	-0.055329	0.858386
N162	N	1.458854	0.444671	1.358386
C163	C	0.721294	0.229726	0.825793
C164	C	1.221294	0.729726	1.325793
N165	N	0.682155	0.276691	0.858448
N166	N	1.182155	0.776691	1.358448
H167	H	0.734782	0.213522	0.671572
H168	H	1.234782	0.713522	1.171572
C169	C	0.383215	0.233931	-0.092119
C170	C	0.883215	0.733931	0.407881
N171	N	0.407969	0.282552	-0.128463
N172	N	0.907969	0.782552	0.371537
C173	C	0.801323	0.269773	0.582716
C174	C	1.301323	0.769773	1.082716
N175	N	0.793752	0.332541	0.615351
N176	N	1.293752	0.832541	1.115351
H177	H	0.803915	0.248124	0.428505
H178	H	1.303915	0.748124	0.928505
H179	H	0.734734	0.213506	0.185482
H180	H	1.234734	0.713506	0.685482
H181	H	0.594591	0.253239	-0.000005
H182	H	1.094591	0.753239	0.499995
H183	H	0.016255	0.243076	-0.000003
H184	H	0.516255	0.743076	0.499997
H185	H	0.463159	0.250931	0.000009
H186	H	0.963159	0.750931	0.500009
C187	C	0.485295	-0.045850	-0.000006
C188	C	0.985295	0.454150	0.499994
N189	N	0.462162	-0.109162	-0.000001
N190	N	0.962162	0.390838	0.499999
C191	C	0.231073	0.231257	-0.092121
C192	C	0.731073	0.731257	0.407879
N193	N	0.195799	0.278822	-0.128470
N194	N	0.695799	0.778822	0.371530
H195	H	0.177806	-0.029554	-0.000026
H196	H	0.677806	0.470446	0.499974
C197	C	0.038387	-0.053707	-0.000030
C198	C	0.538387	0.446293	0.499970
N199	N	0.015253	-0.117018	-0.000027
N200	N	0.515253	0.382982	0.499973
C201	C	0.257747	-0.012565	0.092104
C202	C	0.757747	0.487435	0.592104
N203	N	0.232999	-0.061192	0.128446
N204	N	0.732999	0.438808	0.628446
