data_functionalizedCrystal
_audit_creation_method	'MofGen! by Chris Wilmer'
_symmetry_space_group_name_H-M	'P1'
_symmetry_Int_Tables_number	1
_symmetry_cell_setting	triclinic
loop_
_symmetry_equiv_pos_as_xyz
  x,y,z
_cell_length_a	10.489711
_cell_length_b	22.610064
_cell_length_c	10.489741
_cell_angle_alpha	90.004402
_cell_angle_beta	95.466909
_cell_angle_gamma	90.009845
loop_
_atom_site_label
_atom_site_type_symbol
_atom_site_fract_x
_atom_site_fract_y
_atom_site_fract_z
O1	O	1.694084	0.049206	-0.179770
O2	O	2.194084	0.549206	0.320230
O3	O	1.322884	0.049202	-0.196702
O4	O	1.822884	0.549202	0.303298
O5	O	1.516931	0.049200	-0.002637
O6	O	2.016931	0.549200	0.497363
O7	O	1.500038	0.049207	-0.373835
O8	O	2.000038	0.549207	0.126165
O9	O	1.516896	-0.049169	-0.002666
O10	O	2.016896	0.450831	0.497334
O11	O	1.322850	-0.049167	-0.196731
O12	O	1.822850	0.450833	0.303269
O13	O	1.694050	-0.049164	-0.179798
O14	O	2.194050	0.450836	0.320202
Zn15	Zn	1.508444	-0.064784	-0.188269
Zn16	Zn	2.008444	0.435216	0.311731
Zn17	Zn	1.508490	0.064822	-0.188232
Zn18	Zn	2.008490	0.564822	0.311768
O19	O	1.500003	-0.049162	-0.373863
O20	O	2.000003	0.450838	0.126137
C21	C	1.275334	0.000017	-0.195446
C22	C	1.775334	0.500017	0.304554
C23	C	1.133703	0.000016	-0.191644
C24	C	1.633703	0.500016	0.308356
C25	C	0.951317	0.000025	-0.308348
C26	C	1.451317	0.500025	0.191652
C27	C	1.043479	0.048524	-0.250039
C28	C	1.543479	0.548524	0.249961
C29	C	1.043418	-0.048461	-0.250035
C30	C	1.543418	0.451539	0.249965
C31	C	0.973528	0.048567	-0.126496
C32	C	1.473528	0.548567	0.373504
C33	C	0.973458	-0.048461	-0.126510
C34	C	1.473458	0.451539	0.373490
C35	C	1.065593	0.000050	-0.068111
C36	C	1.565593	0.500050	0.431889
N37	N	1.508423	-0.153236	-0.188294
N38	N	2.008423	0.346764	0.311706
C39	C	1.594418	-0.561878	-0.102313
C40	C	2.094418	-0.061878	0.397687
C41	C	1.594424	-0.623798	-0.102304
C42	C	2.094424	-0.123798	0.397696
O43	O	1.667486	-0.655817	-0.029219
O44	O	2.167486	-0.155817	0.470781
N45	N	1.508488	-0.654773	-0.188205
N46	N	2.008488	-0.154773	0.311795
C47	C	1.422532	-0.623825	-0.274113
C48	C	1.922532	-0.123825	0.225887
O49	O	1.349437	-0.655858	-0.347177
O50	O	1.849437	-0.155858	0.152823
C51	C	1.422520	-0.561906	-0.274115
C52	C	1.922520	-0.061906	0.225885
C53	C	1.508470	-0.530934	-0.188216
C54	C	2.008470	-0.030934	0.311784
C55	C	1.680360	-0.530906	-0.016421
C56	C	2.180360	-0.030906	0.483579
C57	C	1.680354	-0.468991	-0.016432
C58	C	2.180354	0.031009	0.483568
C59	C	1.594407	-0.438047	-0.102335
C60	C	2.094407	0.061953	0.397665
C61	C	1.508465	-0.469019	-0.188228
C62	C	2.008465	0.030981	0.311772
C63	C	1.336559	-0.530959	-0.360015
C64	C	1.836559	-0.030959	0.139985
C65	C	1.336554	-0.469036	-0.360009
C66	C	1.836554	0.030964	0.139991
C67	C	1.422504	-0.438065	-0.274111
C68	C	1.922504	0.061935	0.225889
C69	C	1.422513	-0.376160	-0.274142
C70	C	1.922513	0.123840	0.225858
N71	N	1.508449	-0.345184	-0.188241
N72	N	2.008449	0.154816	0.311759
C73	C	1.594396	-0.376128	-0.102337
C74	C	2.094396	0.123872	0.397663
C75	C	1.422561	-0.753859	-0.274100
C76	C	1.922561	-0.253859	0.225900
C77	C	1.422578	-0.815776	-0.274106
C78	C	1.922578	-0.315776	0.225894
C79	C	1.594469	-0.815745	-0.102295
C80	C	2.094469	-0.315745	0.397705
C81	C	1.594457	-0.753826	-0.102297
C82	C	2.094457	-0.253826	0.397703
C83	C	1.508497	-0.722884	-0.188199
C84	C	2.008497	-0.222884	0.311801
C85	C	1.594379	-0.246101	-0.102368
C86	C	2.094379	0.253899	0.397632
C87	C	1.594370	-0.184180	-0.102390
C88	C	2.094370	0.315820	0.397610
C89	C	1.422475	-0.184216	-0.274196
C90	C	1.922475	0.315784	0.225804
C91	C	1.422488	-0.246132	-0.274179
C92	C	1.922488	0.253868	0.225821
C93	C	1.508445	-0.277073	-0.188254
C94	C	2.008445	0.222927	0.311746
O95	O	1.349485	-0.344101	-0.347187
O96	O	1.849485	0.155899	0.152813
O97	O	1.667467	-0.344088	-0.029274
O98	O	2.167467	0.155912	0.470726
C99	C	1.741600	0.000023	-0.181055
C100	C	2.241600	0.500023	0.318945
C101	C	1.883231	0.000028	-0.184857
C102	C	2.383231	0.500028	0.315143
C103	C	1.515638	0.000016	0.044880
C104	C	2.015638	0.500016	0.544880
C105	C	1.511820	0.000017	0.186509
C106	C	2.011820	0.500017	0.686509
N107	N	1.508521	0.153275	-0.188197
N108	N	2.008521	0.653275	0.311803
C109	C	1.501296	0.000024	-0.421381
C110	C	2.001296	0.500024	0.078619
C111	C	1.505114	0.000027	-0.563010
C112	C	2.005114	0.500027	-0.063010
C113	C	1.388354	0.000020	0.254636
C114	C	1.888354	0.500020	0.754636
C115	C	1.446661	-0.048480	0.346751
C116	C	1.946661	0.451520	0.846751
C117	C	1.446725	0.048504	0.346753
C118	C	1.946725	0.548504	0.846753
C119	C	1.570179	-0.048523	0.276758
C120	C	2.070179	0.451477	0.776758
C121	C	1.570225	0.048504	0.276751
C122	C	2.070225	0.548504	0.776751
C123	C	1.628622	-0.000008	0.368839
C124	C	2.128622	0.499992	0.868839
H125	H	0.942421	-0.089467	-0.074313
H126	H	1.442421	0.410533	0.425687
Br127	Br	1.305856	-0.288164	-0.390775
Br128	Br	1.805856	0.211836	0.109225
Br129	Br	0.868491	0.000104	-0.477520
Br130	Br	1.368491	0.500104	0.022480
Br131	Br	1.657251	0.116852	0.225034
Br132	Br	2.157251	0.616852	0.725034
Br133	Br	0.922215	0.116984	-0.039449
Br134	Br	1.422215	0.616984	0.460551
Br135	Br	1.359640	0.116841	0.398412
Br136	Br	1.859640	0.616841	0.898412
Br137	Br	1.095144	0.116871	-0.337102
Br138	Br	1.595144	0.616871	0.162898
H139	H	1.115050	0.000073	0.033484
H140	H	1.615050	0.500073	0.533484
Br141	Br	1.305840	-0.142212	-0.390779
Br142	Br	1.805840	0.357788	0.109221
Br143	Br	1.219160	-0.000057	0.171864
Br144	Br	1.719160	0.499943	0.671864
Br145	Br	1.095000	-0.116799	-0.337179
Br146	Br	1.595000	0.383201	0.162821
Br147	Br	1.711029	-0.142149	0.014188
Br148	Br	2.211029	0.357851	0.514188
H149	H	1.664371	-0.271286	-0.032399
H150	H	2.164371	0.228714	0.467601
H151	H	1.750348	-0.556095	0.053538
H152	H	2.250348	-0.056095	0.553538
Br153	Br	1.796998	-0.426964	0.100154
Br154	Br	2.296998	0.073036	0.600154
Br155	Br	1.711107	-0.711800	0.014283
Br156	Br	2.211107	-0.211800	0.514283
H157	H	1.664450	-0.840951	-0.032346
H158	H	2.164450	-0.340951	0.467654
H159	H	1.352603	-0.840989	-0.344065
H160	H	1.852603	-0.340989	0.155935
Br161	Br	1.305898	-0.711871	-0.390701
Br162	Br	1.805898	-0.211871	0.109299
H163	H	1.266570	-0.556168	-0.429960
H164	H	1.766570	-0.056168	0.070040
H165	H	1.266551	-0.443846	-0.429960
H166	H	1.766551	0.056154	0.070040
H167	H	1.394406	-0.089485	0.377745
H168	H	1.894406	0.410515	0.877745
H169	H	1.622360	-0.089573	0.245920
H170	H	2.122360	0.410427	0.745920
Br171	Br	1.797967	-0.000047	0.451238
Br172	Br	2.297967	0.499953	0.951238
