data_functionalizedCrystal
_audit_creation_method	'MofGen! by Chris Wilmer'
_symmetry_space_group_name_H-M	'P1'
_symmetry_Int_Tables_number	1
_symmetry_cell_setting	triclinic
loop_
_symmetry_equiv_pos_as_xyz
  x,y,z
_cell_length_a	23.532407
_cell_length_b	14.971500
_cell_length_c	22.610064
_cell_angle_alpha	89.991753
_cell_angle_beta	89.997161
_cell_angle_gamma	96.765752
loop_
_atom_site_label
_atom_site_type_symbol
_atom_site_fract_x
_atom_site_fract_y
_atom_site_fract_z
O1	O	-0.755732	0.108566	0.049106
O2	O	-0.255732	0.608566	0.549106
O3	O	-0.589936	0.124276	0.049122
O4	O	-0.089936	0.624276	0.549122
O5	O	-0.677274	-0.013825	0.049116
O6	O	-0.177274	0.486175	0.549116
O7	O	-0.668395	0.246667	0.049112
O8	O	-0.168395	0.746667	0.549112
O9	O	-0.677258	-0.013805	-0.049253
O10	O	-0.177258	0.486195	0.450747
O11	O	-0.589921	0.124296	-0.049247
O12	O	-0.089921	0.624296	0.450753
O13	O	-0.755716	0.108586	-0.049264
O14	O	-0.255716	0.608586	0.450736
Zn15	Zn	-0.672816	0.116444	-0.064873
Zn16	Zn	-0.172816	0.616444	0.435127
Zn17	Zn	-0.672837	0.116418	0.064732
Zn18	Zn	-0.172837	0.616418	0.564732
O19	O	-0.668379	0.246687	-0.049257
O20	O	-0.168379	0.746687	0.450743
C21	C	-0.568711	0.123886	-0.000060
C22	C	-0.068711	0.623886	0.499940
C23	C	-0.505489	0.122683	-0.000054
C24	C	-0.005489	0.622683	0.499946
C25	C	-0.676868	-0.047136	-0.000067
C26	C	-0.176868	0.452864	0.499933
C27	C	-0.675673	-0.146419	-0.000061
C28	C	-0.175673	0.353581	0.499939
C29	C	-0.776942	0.108976	-0.000080
C30	C	-0.276942	0.608976	0.499920
C31	C	-0.840164	0.110179	-0.000083
C32	C	-0.340164	0.610179	0.499917
C33	C	-0.106706	0.196864	-0.000081
C34	C	0.393294	0.696864	0.499919
C35	C	-0.047301	0.195747	-0.000085
C36	C	0.452699	0.695747	0.499915
O37	O	-0.010853	0.264514	-0.000108
O38	O	0.489147	0.764514	0.499892
N39	N	-0.024320	0.113646	-0.000083
N40	N	0.475680	0.613646	0.499917
C41	C	-0.060748	0.032657	-0.000083
C42	C	0.439252	0.532657	0.499917
O43	O	-0.035747	-0.037279	-0.000082
O44	O	0.464253	0.462721	0.499918
C45	C	-0.120152	0.033775	-0.000084
C46	C	0.379848	0.533775	0.499916
C47	C	-0.143129	0.115882	-0.000080
C48	C	0.356871	0.615882	0.499920
C49	C	-0.129683	0.278964	-0.000078
C50	C	0.370317	0.778964	0.499922
C51	C	-0.189084	0.280081	-0.000074
C52	C	0.310916	0.780081	0.499926
C53	C	-0.225508	0.199098	-0.000072
C54	C	0.274492	0.699098	0.499928
C55	C	-0.202530	0.116998	-0.000075
C56	C	0.297470	0.616998	0.499925
C57	C	-0.156579	-0.047213	-0.000088
C58	C	0.343421	0.452787	0.499912
C59	C	-0.215987	-0.046088	-0.000089
C60	C	0.284013	0.453912	0.499911
C61	C	-0.238963	0.036019	-0.000085
C62	C	0.261037	0.536019	0.499915
C63	C	-0.298355	0.037133	-0.000069
C64	C	0.201645	0.537133	0.499931
N65	N	-0.321335	0.119234	-0.000071
N66	N	0.178665	0.619234	0.499929
C67	C	-0.284911	0.200217	-0.000073
C68	C	0.215089	0.700217	0.499927
C69	C	0.064004	0.030314	-0.000083
C70	C	0.564004	0.530314	0.499917
C71	C	0.123407	0.029195	-0.000078
C72	C	0.623407	0.529195	0.499922
C73	C	0.136851	0.192286	-0.000081
C74	C	0.636851	0.692286	0.499919
C75	C	0.077447	0.193404	-0.000082
C76	C	0.577447	0.693404	0.499918
C77	C	0.041024	0.112416	-0.000085
C78	C	0.541024	0.612416	0.499915
C79	C	-0.409658	0.202556	-0.000062
C80	C	0.090342	0.702556	0.499938
C81	C	-0.469065	0.203666	-0.000055
C82	C	0.030935	0.703666	0.499945
C83	C	-0.482504	0.040576	-0.000055
C84	C	0.017496	0.540576	0.499945
C85	C	-0.423102	0.039466	-0.000059
C86	C	0.076898	0.539466	0.499941
C87	C	-0.386680	0.120463	-0.000065
C88	C	0.113320	0.620463	0.499935
O89	O	-0.334837	-0.031598	-0.000049
O90	O	0.165163	0.468402	0.499951
O91	O	-0.309921	0.270141	-0.000081
O92	O	0.190079	0.770141	0.499919
C93	C	-0.668785	0.279997	-0.000073
C94	C	-0.168785	0.779997	0.499927
C95	C	-0.669980	0.379281	-0.000075
C96	C	-0.169980	0.879281	0.499925
N97	N	-0.672807	0.116462	-0.153326
N98	N	-0.172807	0.616462	0.346674
C99	C	-0.675120	0.806924	0.053559
C100	C	-0.175120	1.306924	0.553559
C101	C	-0.673997	0.713637	0.053557
C102	C	-0.173997	1.213637	0.553557
C103	C	-0.673431	0.667007	-0.000066
C104	C	-0.173431	1.167007	0.499934
C105	C	-0.673982	0.713670	-0.053690
C106	C	-0.173982	1.213670	0.446310
C107	C	-0.675101	0.806957	-0.053688
C108	C	-0.175101	1.306957	0.446312
C109	C	-0.671651	0.519231	-0.053692
C110	C	-0.171651	1.019231	0.446308
C111	C	-0.670533	0.425938	-0.053695
C112	C	-0.170533	0.925938	0.446305
C113	C	-0.670546	0.425911	0.053552
C114	C	-0.170546	0.925911	0.553552
C115	C	-0.671666	0.519197	0.053555
C116	C	-0.171666	1.019197	0.553555
C117	C	-0.672218	0.565854	-0.000070
C118	C	-0.172218	1.065854	0.499930
C119	C	-0.711511	0.055276	-0.561970
C120	C	-0.211511	0.555276	-0.061970
C121	C	-0.711514	0.055269	-0.623890
C122	C	-0.211514	0.555269	-0.123890
O123	O	-0.744398	0.003260	-0.655911
O124	O	-0.244398	0.503260	-0.155911
N125	N	-0.672836	0.116399	-0.654863
N126	N	-0.172836	0.616399	-0.154863
C127	C	-0.634149	0.177533	-0.623913
C128	C	-0.134149	0.677533	-0.123913
O129	O	-0.601250	0.229528	-0.655944
O130	O	-0.101250	0.729528	-0.155944
C131	C	-0.634144	0.177535	-0.561994
C132	C	-0.134144	0.677535	-0.061994
C133	C	-0.672828	0.116407	-0.531024
C134	C	-0.172828	0.616407	-0.031024
C135	C	-0.750192	-0.005848	-0.531000
C136	C	-0.250192	0.494152	-0.031000
C137	C	-0.750190	-0.005840	-0.469085
C138	C	-0.250190	0.494160	0.030915
C139	C	-0.711507	0.055291	-0.438139
C140	C	-0.211507	0.555291	0.061861
C141	C	-0.672826	0.116415	-0.469109
C142	C	-0.172826	0.616415	0.030891
C143	C	-0.595454	0.238664	-0.531045
C144	C	-0.095454	0.738664	-0.031045
C145	C	-0.595452	0.238660	-0.469122
C146	C	-0.095452	0.738660	0.030878
C147	C	-0.634136	0.177532	-0.438152
C148	C	-0.134136	0.677532	0.061848
C149	C	-0.634140	0.177554	-0.376247
C150	C	-0.134140	0.677554	0.123753
N151	N	-0.672818	0.116424	-0.345274
N152	N	-0.172818	0.616424	0.154726
C153	C	-0.711502	0.055293	-0.376220
C154	C	-0.211502	0.555293	0.123780
C155	C	-0.634162	0.177524	-0.753947
C156	C	-0.134162	0.677524	-0.253947
C157	C	-0.634169	0.177528	-0.815864
C158	C	-0.134169	0.677528	-0.315864
C159	C	-0.711534	0.055262	-0.815837
C160	C	-0.211534	0.555262	-0.315837
C161	C	-0.711529	0.055264	-0.753918
C162	C	-0.211529	0.555264	-0.253918
C163	C	-0.672840	0.116395	-0.722974
C164	C	-0.172840	0.616395	-0.222974
C165	C	-0.711494	0.055314	-0.246193
C166	C	-0.211494	0.555314	0.253807
C167	C	-0.711490	0.055330	-0.184272
C168	C	-0.211490	0.555330	0.315728
C169	C	-0.634123	0.177592	-0.184304
C170	C	-0.134123	0.677592	0.315696
C171	C	-0.634129	0.177580	-0.246220
C172	C	-0.134129	0.677580	0.253780
C173	C	-0.672817	0.116434	-0.277163
C174	C	-0.172817	0.616434	0.222837
O175	O	-0.601271	0.229534	-0.344187
O176	O	-0.101271	0.729534	0.155813
O177	O	-0.744390	0.003299	-0.344182
O178	O	-0.244390	0.503299	0.155818
N179	N	-0.672851	0.116393	0.153185
N180	N	-0.172851	0.616393	0.653185
H181	H	-0.487769	0.270530	-0.000052
H182	H	0.012231	0.770530	0.499948
H183	H	-0.742993	0.005553	-0.159058
H184	H	-0.242993	0.505553	0.340942
H185	H	-0.672131	0.557160	0.097220
H186	H	-0.172131	1.057160	0.597220
H187	H	-0.100032	0.344914	-0.000082
H188	H	0.399968	0.844914	0.499918
H189	H	-0.673549	0.675652	0.097220
H190	H	-0.173549	1.175652	0.597220
H191	H	-0.670067	0.387975	-0.097360
H192	H	-0.170067	0.887975	0.402640
H193	H	-0.602634	0.227365	-0.271436
H194	H	-0.102634	0.727365	0.228564
H195	H	-0.602629	0.227367	-0.159099
H196	H	-0.102629	0.727367	0.340901
H197	H	-0.670096	0.387919	0.097216
H198	H	-0.170096	0.887919	0.597216
H199	H	-0.742996	0.005523	-0.271379
H200	H	-0.242996	0.505523	0.228621
H201	H	-0.672088	0.557219	-0.097359
H202	H	-0.172088	1.057219	0.402641
H203	H	-0.602675	0.227313	-0.841076
H204	H	-0.102675	0.727313	-0.341076
H205	H	-0.673518	0.675697	-0.097351
H206	H	-0.173518	1.175697	0.402649
H207	H	-0.781689	-0.055618	-0.443873
H208	H	-0.281689	0.444382	0.056127
H209	H	0.142109	-0.037664	-0.000072
H210	H	0.642109	0.462336	0.499928
H211	H	-0.380010	0.268512	-0.000069
H212	H	0.119990	0.768512	0.499931
H213	H	0.058744	0.260262	-0.000082
H214	H	0.558744	0.760262	0.499918
H215	H	-0.675544	0.844945	-0.097351
H216	H	-0.175544	1.344945	0.402649
H217	H	-0.602658	0.227312	-0.728754
H218	H	-0.102658	0.727312	-0.228754
H219	H	-0.781693	-0.055633	-0.556191
H220	H	-0.281693	0.444367	-0.056191
H221	H	-0.563944	0.288439	-0.443930
H222	H	-0.063944	0.788439	0.056070
H223	H	-0.743029	0.005488	-0.728706
H224	H	-0.243029	0.505488	-0.228706
H225	H	0.166518	0.258226	-0.000085
H226	H	0.666518	0.758226	0.499915
H227	H	-0.675584	0.844883	0.097225
H228	H	-0.175584	1.344883	0.597225
H229	H	-0.743032	0.005484	-0.841044
H230	H	-0.243032	0.505484	-0.341044
H231	H	-0.563953	0.288439	-0.556252
H232	H	-0.063953	0.788439	-0.056252
H233	H	0.034351	-0.035640	-0.000080
H234	H	0.534351	0.464360	0.499920
H235	H	-0.207786	0.346941	-0.000070
H236	H	0.292214	0.846941	0.499930
H237	H	-0.137882	-0.114073	-0.000092
H238	H	0.362118	0.385927	0.499908
H239	H	-0.404394	-0.027392	-0.000054
H240	H	0.095606	0.472608	0.499946
H241	H	-0.245640	-0.112040	-0.000092
H242	H	0.254360	0.387960	0.499908
H243	H	-0.512170	-0.025358	-0.000052
H244	H	-0.012170	0.474642	0.499948
