data_functionalizedCrystal
_audit_creation_method	'MofGen! by Chris Wilmer'
_symmetry_space_group_name_H-M	'P1'
_symmetry_Int_Tables_number	1
_symmetry_cell_setting	triclinic
loop_
_symmetry_equiv_pos_as_xyz
  x,y,z
_cell_length_a	13.897448
_cell_length_b	18.215407
_cell_length_c	18.215399
_cell_angle_alpha	90.014769
_cell_angle_beta	89.971263
_cell_angle_gamma	89.986687
loop_
_atom_site_label
_atom_site_type_symbol
_atom_site_fract_x
_atom_site_fract_y
_atom_site_fract_z
Zn1	Zn	-0.384115	-1.125087	-0.416084
Zn2	Zn	-0.050781	-0.791754	-0.082750
Zn3	Zn	0.282552	-0.458420	0.250583
Zn4	Zn	-0.545431	-1.125017	-0.293021
Zn5	Zn	-0.212098	-0.791684	0.040312
Zn6	Zn	0.121236	-0.458351	0.373646
Zn7	Zn	-0.384139	-1.002026	-0.293036
Zn8	Zn	-0.050806	-0.668693	0.040298
Zn9	Zn	0.282527	-0.335359	0.373631
Zn10	Zn	-0.545357	-1.002001	-0.416050
Zn11	Zn	-0.212024	-0.668667	-0.082717
Zn12	Zn	0.121310	-0.335334	0.250616
O13	O	-0.464760	-1.063533	-0.354548
O14	O	-0.131427	-0.730199	-0.021214
O15	O	0.201906	-0.396866	0.312119
O16	O	-0.405534	-1.228062	-0.399767
O17	O	-0.072201	-0.894729	-0.066434
O18	O	0.261132	-0.561395	0.266900
O19	O	-0.524077	-1.108683	-0.190039
O20	O	-0.190743	-0.775350	0.143295
O21	O	0.142590	-0.442017	0.476628
O22	O	-0.249154	-1.018390	-0.309378
O23	O	0.084179	-0.685057	0.023955
O24	O	0.417512	-0.351723	0.357288
O25	O	-0.524053	-1.228011	-0.309353
O26	O	-0.190719	-0.894677	0.023980
O27	O	0.142614	-0.561344	0.357313
O28	O	-0.249136	-1.108802	-0.399781
O29	O	0.084197	-0.775469	-0.066448
O30	O	0.417530	-0.442136	0.266885
O31	O	-0.405576	-1.018322	-0.190049
O32	O	-0.072243	-0.684989	0.143284
O33	O	0.261090	-0.351656	0.476617
O34	O	-0.405505	-0.899038	-0.309346
O35	O	-0.072171	-0.565705	0.023988
O36	O	0.261162	-0.232372	0.357321
O37	O	-0.523926	-1.018347	-0.519039
O38	O	-0.190593	-0.685014	-0.185706
O39	O	0.142740	-0.351680	0.147628
O40	O	-0.523950	-0.899020	-0.399724
O41	O	-0.190617	-0.565687	-0.066391
O42	O	0.142716	-0.232353	0.266942
O43	O	-0.405462	-1.108778	-0.519064
O44	O	-0.072129	-0.775445	-0.185730
O45	O	0.261204	-0.442111	0.147603
O46	O	-0.680403	-1.108659	-0.309321
O47	O	-0.347070	-0.775326	0.024012
O48	O	-0.013736	-0.441992	0.357346
O49	O	-0.680348	-1.018279	-0.399710
O50	O	-0.347015	-0.684946	-0.066377
O51	O	-0.013682	-0.351613	0.266957
C52	C	-0.464723	-0.872326	-0.354533
C53	C	-0.131390	-0.538993	-0.021200
C54	C	0.201944	-0.205660	0.312133
C55	C	-0.464730	-0.790528	-0.354545
C56	C	-0.131397	-0.457194	-0.021211
C57	C	0.201937	-0.123861	0.312122
C58	C	-0.403137	-0.602359	-0.401696
C59	C	-0.069803	-0.269026	-0.068363
C60	C	0.263530	0.064307	0.264970
C61	C	-0.403142	-0.525500	-0.401698
C62	C	-0.069808	-0.192167	-0.068365
C63	C	0.263525	0.141166	0.264969
C64	C	-0.526370	-0.525458	-0.307405
C65	C	-0.193036	-0.192125	0.025928
C66	C	0.140297	0.141209	0.359262
C67	C	-0.526359	-0.602315	-0.307400
C68	C	-0.193026	-0.268982	0.025934
C69	C	0.140308	0.064351	0.359267
C70	C	-0.464744	-0.640764	-0.354550
C71	C	-0.131411	-0.307431	-0.021216
C72	C	0.201923	0.025903	0.312117
C73	C	-0.464760	-0.487048	-0.354557
C74	C	-0.131426	-0.153715	-0.021223
C75	C	0.201907	0.179619	0.312110
C76	C	-0.464766	-0.403714	-0.354558
C77	C	-0.131432	-0.070381	-0.021225
C78	C	0.201901	0.262952	0.312108
C79	C	-0.464737	-0.724103	-0.354547
C80	C	-0.131403	-0.390770	-0.021214
C81	C	0.201930	-0.057436	0.312120
C82	C	-0.715375	-1.063479	-0.354526
C83	C	-0.382042	-0.730146	-0.021193
C84	C	-0.048708	-0.396812	0.312140
C85	C	-0.822589	-1.063523	-0.354542
C86	C	-0.489255	-0.730190	-0.021209
C87	C	-0.155922	-0.396857	0.312125
C88	C	-1.018884	-1.063601	-0.354588
C89	C	-0.685550	-0.730267	-0.021255
C90	C	-0.352217	-0.396934	0.312079
C91	C	-0.909651	-1.063556	-0.354565
C92	C	-0.576318	-0.730222	-0.021231
C93	C	-0.242985	-0.396889	0.312102
C94	C	-0.213168	-1.063607	-0.354585
C95	C	0.120166	-0.730273	-0.021252
C96	C	0.453499	-0.396940	0.312082
C97	C	-0.105954	-1.063638	-0.354601
C98	C	0.227380	-0.730305	-0.021268
C99	C	0.560713	-0.396971	0.312066
C100	C	-0.464683	-1.063567	-0.546501
C101	C	-0.131350	-0.730234	-0.213167
C102	C	0.201983	-0.396901	0.120166
C103	C	-0.464651	-1.063582	-0.628300
C104	C	-0.131317	-0.730249	-0.294966
C105	C	0.202016	-0.396916	0.038367
C106	C	-0.464788	-0.255486	-0.354561
C107	C	-0.131455	0.077848	-0.021227
C108	C	0.201878	0.411181	0.312106
C109	C	-0.464774	-0.337284	-0.354562
C110	C	-0.131440	-0.003951	-0.021228
C111	C	0.201893	0.329382	0.312105
C112	C	-0.402906	-1.016571	-0.816500
C113	C	-0.069573	-0.683238	-0.483167
C114	C	0.263761	-0.349904	-0.149833
C115	C	-0.402886	-1.016584	-0.893359
C116	C	-0.069553	-0.683250	-0.560026
C117	C	0.263780	-0.349917	-0.226692
C118	C	-0.526280	-1.110682	-0.893337
C119	C	-0.192947	-0.777348	-0.560004
C120	C	0.140386	-0.444015	-0.226670
C121	C	-0.526304	-1.110664	-0.816480
C122	C	-0.192971	-0.777331	-0.483146
C123	C	0.140363	-0.443998	-0.149813
C124	C	-0.464611	-1.063610	-0.778063
C125	C	-0.131278	-0.730277	-0.444730
C126	C	0.202055	-0.396944	-0.111396
C127	C	-0.464568	-1.063640	-0.931779
C128	C	-0.131235	-0.730307	-0.598446
C129	C	0.202098	-0.396973	-0.265113
C130	C	-0.464548	-1.063654	-1.015113
C131	C	-0.131214	-0.730321	-0.681780
C132	C	0.202119	-0.396988	-0.348446
C133	C	-0.464633	-1.063595	-0.694724
C134	C	-0.131300	-0.730262	-0.361391
C135	C	0.202034	-0.396928	-0.028057
C136	C	-0.464768	-1.063540	-0.163341
C137	C	-0.131434	-0.730207	0.169992
C138	C	0.201899	-0.396874	0.503325
C139	C	-0.464529	-1.063668	-0.081543
C140	C	-0.131195	-0.730335	0.251790
C141	C	0.202138	-0.397001	0.585124
H142	H	-0.352973	-0.494235	-0.440088
H143	H	-0.019640	-0.160901	-0.106755
H144	H	0.313693	0.172432	0.226578
C145	C	-0.594134	-0.644564	-0.255539
C146	C	-0.260800	-0.311230	0.077795
C147	C	0.072533	0.022103	0.411128
H148	H	-0.630841	-0.610659	-0.227466
H149	H	-0.297508	-0.277325	0.105867
H150	H	0.035825	0.056008	0.439200
H151	H	-0.557181	-0.674540	-0.223520
H152	H	-0.223848	-0.341207	0.109813
H153	H	0.109486	-0.007873	0.443146
H154	H	-0.636204	-0.674549	-0.283640
H155	H	-0.302871	-0.341216	0.049693
H156	H	0.030463	-0.007883	0.383026
H157	H	-0.352672	-0.978256	-0.785224
H158	H	-0.019339	-0.644923	-0.451890
H159	H	0.313995	-0.311590	-0.118557
C160	C	-0.594149	-0.483162	-0.255551
C161	C	-0.260816	-0.149829	0.077782
C162	C	0.072517	0.183504	0.411115
H163	H	-0.585341	-0.431888	-0.262311
H164	H	-0.252007	-0.098555	0.071022
H165	H	0.081326	0.234778	0.404355
H166	H	-0.579957	-0.495742	-0.206121
H167	H	-0.246624	-0.162408	0.127212
H168	H	0.086710	0.170925	0.460545
H169	H	-0.658977	-0.495758	-0.266243
H170	H	-0.325644	-0.162424	0.067090
H171	H	0.007690	0.170909	0.400423
C172	C	-0.335006	-0.964844	-0.935636
C173	C	-0.001673	-0.631511	-0.602303
C174	C	0.331661	-0.298177	-0.268970
H175	H	-0.298266	-0.936824	-0.901747
H176	H	0.035068	-0.603490	-0.568414
H177	H	0.368401	-0.270157	-0.235080
H178	H	-0.371886	-0.932773	-0.965609
H179	H	-0.038553	-0.599439	-0.632276
H180	H	0.294780	-0.266106	-0.298943
H181	H	-0.292972	-0.993019	-0.965628
H182	H	0.040362	-0.659686	-0.632294
H183	H	0.373695	-0.326353	-0.298961
H184	H	-0.576508	-1.148992	-0.924625
H185	H	-0.243174	-0.815659	-0.591292
H186	H	0.090159	-0.482325	-0.257958
C187	C	-0.335356	-0.644650	-0.453553
C188	C	-0.002022	-0.311317	-0.120219
C189	C	0.331311	0.022016	0.213114
H190	H	-0.298660	-0.610767	-0.481626
H191	H	0.034674	-0.277434	-0.148293
H192	H	0.368007	0.055900	0.185040
H193	H	-0.372297	-0.674640	-0.485569
H194	H	-0.038963	-0.341307	-0.152236
H195	H	0.294370	-0.007973	0.181097
H196	H	-0.293276	-0.674626	-0.425448
H197	H	0.040058	-0.341293	-0.092115
H198	H	0.373391	-0.007959	0.241219
H199	H	-0.576556	-1.148971	-0.785183
H200	H	-0.243222	-0.815638	-0.451850
H201	H	0.090111	-0.482305	-0.118517
