data_functionalizedCrystal
_audit_creation_method	'MofGen! by Chris Wilmer'
_symmetry_space_group_name_H-M	'P1'
_symmetry_Int_Tables_number	1
_symmetry_cell_setting	triclinic
loop_
_symmetry_equiv_pos_as_xyz
  x,y,z
_cell_length_a	25.639234
_cell_length_b	25.639242
_cell_length_c	25.639239
_cell_angle_alpha	90.034811
_cell_angle_beta	90.025460
_cell_angle_gamma	90.029352
loop_
_atom_site_label
_atom_site_type_symbol
_atom_site_fract_x
_atom_site_fract_y
_atom_site_fract_z
Zn1	Zn	-0.295740	-0.799260	0.208245
Zn2	Zn	0.037593	-0.465927	0.541578
Zn3	Zn	0.370926	-0.132593	0.874912
Zn4	Zn	-0.208304	-0.799172	0.295673
Zn5	Zn	0.125030	-0.465838	0.629006
Zn6	Zn	0.458363	-0.132505	0.962340
Zn7	Zn	-0.208304	-0.711825	0.208247
Zn8	Zn	0.125029	-0.378492	0.541580
Zn9	Zn	0.458362	-0.045159	0.874913
Zn10	Zn	-0.295694	-0.711780	0.295644
Zn11	Zn	0.037640	-0.378447	0.628978
Zn12	Zn	0.370973	-0.045114	0.962311
O13	O	-0.252010	-0.755509	0.251952
O14	O	0.081323	-0.422176	0.585286
O15	O	0.414656	-0.088843	0.918619
O16	O	-0.284161	-0.872413	0.219854
O17	O	0.049172	-0.539080	0.553187
O18	O	0.382506	-0.205747	0.886520
O19	O	-0.135139	-0.787567	0.284089
O20	O	0.198195	-0.454233	0.617422
O21	O	0.531528	-0.120900	0.950755
O22	O	-0.219923	-0.723479	0.135081
O23	O	0.113411	-0.390146	0.468415
O24	O	0.446744	-0.056813	0.801748
O25	O	-0.219922	-0.872348	0.284087
O26	O	0.113412	-0.539015	0.617420
O27	O	0.446745	-0.205682	0.950754
O28	O	-0.284161	-0.787717	0.135080
O29	O	0.049172	-0.454384	0.468413
O30	O	0.382505	-0.121051	0.801747
O31	O	-0.135139	-0.723394	0.219857
O32	O	0.198194	-0.390060	0.553190
O33	O	0.531528	-0.056727	0.886523
O34	O	-0.219877	-0.638654	0.219829
O35	O	0.113456	-0.305321	0.553162
O36	O	0.446789	0.028012	0.886496
O37	O	-0.368865	-0.723403	0.284038
O38	O	-0.035532	-0.390070	0.617371
O39	O	0.297802	-0.056736	0.950705
O40	O	-0.284082	-0.638621	0.284040
O41	O	0.049251	-0.305288	0.617373
O42	O	0.382585	0.028045	0.950706
O43	O	-0.368899	-0.787674	0.219826
O44	O	-0.035566	-0.454341	0.553159
O45	O	0.297767	-0.121007	0.886493
O46	O	-0.219876	-0.787523	0.368835
O47	O	0.113457	-0.454190	0.702168
O48	O	0.446790	-0.120857	1.035501
O49	O	-0.284081	-0.723317	0.368813
O50	O	0.049252	-0.389984	0.702147
O51	O	0.382585	-0.056651	1.035480
C52	C	-0.251985	-0.755420	0.387795
C53	C	0.081348	-0.422087	0.721128
C54	C	0.414681	-0.088753	1.054462
C55	C	-0.251992	-0.755430	0.445909
C56	C	0.081341	-0.422096	0.779242
C57	C	0.414675	-0.088763	1.112576
C58	C	-0.251975	-0.619667	0.251932
C59	C	0.081358	-0.286333	0.585265
C60	C	0.414692	0.047000	0.918598
C61	C	-0.251972	-0.561553	0.251935
C62	C	0.081361	-0.228219	0.585269
C63	C	0.414694	0.105114	0.918602
C64	C	-0.388384	-0.755543	0.251928
C65	C	-0.055050	-0.422210	0.585262
C66	C	0.278283	-0.088877	0.918595
C67	C	-0.446498	-0.755558	0.251918
C68	C	-0.113164	-0.422224	0.585252
C69	C	0.220169	-0.088891	0.918585
C70	C	-0.806867	-0.722158	0.218411
C71	C	-0.473533	-0.388824	0.551744
C72	C	-0.140200	-0.055491	0.885077
C73	C	-0.861471	-0.722160	0.218401
C74	C	-0.528138	-0.388827	0.551734
C75	C	-0.194804	-0.055494	0.885068
O76	O	-0.889712	-0.693736	0.189969
O77	O	-0.556379	-0.360403	0.523302
O78	O	-0.223046	-0.027069	0.856636
N79	N	-0.888780	-0.755575	0.251836
N80	N	-0.555447	-0.422242	0.585170
N81	N	-0.222114	-0.088909	0.918503
C82	C	-0.861483	-0.788986	0.285287
C83	C	-0.528149	-0.455652	0.618620
C84	C	-0.194816	-0.122319	0.951954
O85	O	-0.889725	-0.817407	0.313726
O86	O	-0.556392	-0.484074	0.647059
O87	O	-0.223059	-0.150741	0.980392
C88	C	-0.806879	-0.788980	0.285299
C89	C	-0.473546	-0.455646	0.618632
C90	C	-0.140212	-0.122313	0.951965
C91	C	-0.779573	-0.755567	0.251857
C92	C	-0.446239	-0.422233	0.585191
C93	C	-0.112906	-0.088900	0.918524
C94	C	-0.779560	-0.688747	0.184972
C95	C	-0.446227	-0.355413	0.518306
C96	C	-0.112893	-0.022080	0.851639
C97	C	-0.724959	-0.688745	0.184981
C98	C	-0.391626	-0.355411	0.518315
C99	C	-0.058293	-0.022078	0.851648
C100	C	-0.697665	-0.722154	0.218428
C101	C	-0.364332	-0.388820	0.551762
C102	C	-0.030999	-0.055487	0.885095
C103	C	-0.724972	-0.755565	0.251866
C104	C	-0.391639	-0.422231	0.585200
C105	C	-0.058305	-0.088898	0.918533
C106	C	-0.779582	-0.822387	0.318752
C107	C	-0.446249	-0.489054	0.652085
C108	C	-0.112916	-0.155720	0.985418
C109	C	-0.724975	-0.822378	0.318761
C110	C	-0.391642	-0.489045	0.652094
C111	C	-0.058309	-0.155711	0.985427
C112	C	-0.697669	-0.788965	0.285319
C113	C	-0.364335	-0.455631	0.618653
C114	C	-0.031002	-0.122298	0.951986
C115	C	-0.643078	-0.788971	0.285322
C116	C	-0.309744	-0.455638	0.618656
C117	C	0.023589	-0.122305	0.951989
N118	N	-0.615768	-0.755557	0.251887
N119	N	-0.282435	-0.422223	0.585220
N120	N	0.050899	-0.088890	0.918554
C121	C	-0.643062	-0.722148	0.218440
C122	C	-0.309729	-0.388814	0.551773
C123	C	0.023605	-0.055481	0.885107
C124	C	-0.976153	-0.788995	0.285260
C125	C	-0.642820	-0.455661	0.618594
C126	C	-0.309487	-0.122328	0.951927
C127	C	-1.030756	-0.789003	0.285246
C128	C	-0.697422	-0.455670	0.618580
C129	C	-0.364089	-0.122337	0.951913
C130	C	-1.030740	-0.722178	0.218361
C131	C	-0.697407	-0.388844	0.551694
C132	C	-0.364073	-0.055511	0.885028
C133	C	-0.976137	-0.722172	0.218373
C134	C	-0.642803	-0.388838	0.551706
C135	C	-0.309470	-0.055505	0.885040
C136	C	-0.948844	-0.755580	0.251825
C137	C	-0.615510	-0.422247	0.585159
C138	C	-0.282177	-0.088913	0.918492
C139	C	-0.528397	-0.722146	0.218461
C140	C	-0.195064	-0.388813	0.551794
C141	C	0.138270	-0.055480	0.885128
C142	C	-0.473792	-0.722149	0.218471
C143	C	-0.140458	-0.388816	0.551805
C144	C	0.192875	-0.055482	0.885138
C145	C	-0.473812	-0.788973	0.285358
C146	C	-0.140478	-0.455639	0.618692
C147	C	0.192855	-0.122306	0.952025
C148	C	-0.528412	-0.788972	0.285346
C149	C	-0.195079	-0.455639	0.618680
C150	C	0.138254	-0.122306	0.952013
C151	C	-0.555704	-0.755555	0.251896
C152	C	-0.222370	-0.422222	0.585229
C153	C	0.110963	-0.088888	0.918563
O154	O	-0.614801	-0.817380	0.313741
O155	O	-0.281468	-0.484046	0.647075
O156	O	0.051865	-0.150713	0.980408
O157	O	-0.614813	-0.693726	0.190011
O158	O	-0.281479	-0.360393	0.523344
O159	O	0.051854	-0.027059	0.856678
C160	C	-0.116168	-0.755506	0.251938
C161	C	0.217165	-0.422172	0.585272
C162	C	0.550499	-0.088839	0.918605
C163	C	-0.058054	-0.755592	0.251801
C164	C	0.275279	-0.422259	0.585135
C165	C	0.608612	-0.088926	0.918468
C166	C	-0.252046	-0.891882	0.251973
C167	C	0.081287	-0.558549	0.585307
C168	C	0.414620	-0.225216	0.918640
C169	C	-0.252062	-0.949996	0.251982
C170	C	0.081272	-0.616663	0.585316
C171	C	0.414605	-0.283330	0.918649
C172	C	-0.285410	-0.201181	0.285443
C173	C	0.047923	0.132152	0.618776
C174	C	0.381257	0.465485	0.952109
C175	C	-0.285418	-0.146577	0.285446
C176	C	0.047915	0.186756	0.618779
C177	C	0.381248	0.520090	0.952113
O178	O	-0.313818	-0.118333	0.313909
O179	O	0.019515	0.215000	0.647243
O180	O	0.352848	0.548333	0.980576
N181	N	-0.252045	-0.119270	0.251967
N182	N	0.081289	0.214063	0.585300
N183	N	0.414622	0.547396	0.918633
C184	C	-0.218664	-0.146571	0.218478
C185	C	0.114669	0.186763	0.551812
C186	C	0.448003	0.520096	0.885145
O187	O	-0.190278	-0.118330	0.190002
O188	O	0.143055	0.215003	0.523335
O189	O	0.476388	0.548337	0.856668
C190	C	-0.218659	-0.201174	0.218473
C191	C	0.114674	0.132159	0.551806
C192	C	0.448008	0.465493	0.885140
C193	C	-0.252031	-0.228478	0.251958
C194	C	0.081302	0.104855	0.585291
C195	C	0.414636	0.438189	0.918625
C196	C	-0.318780	-0.228485	0.318925
C197	C	0.014553	0.104848	0.652258
C198	C	0.347887	0.438181	0.985591
C199	C	-0.318771	-0.283086	0.318922
C200	C	0.014562	0.050247	0.652255
C201	C	0.347896	0.383581	0.985589
C202	C	-0.285392	-0.310382	0.285437
C203	C	0.047941	0.022951	0.618771
C204	C	0.381275	0.356284	0.952104
C205	C	-0.252022	-0.283078	0.251955
C206	C	0.081311	0.050255	0.585289
C207	C	0.414645	0.383588	0.918622
C208	C	-0.185282	-0.228473	0.184982
C209	C	0.148052	0.104860	0.518316
C210	C	0.481385	0.438193	0.851649
C211	C	-0.185279	-0.283080	0.184980
C212	C	0.148054	0.050253	0.518313
C213	C	0.481387	0.383586	0.851646
C214	C	-0.218652	-0.310384	0.218465
C215	C	0.114682	0.022949	0.551798
C216	C	0.448015	0.356282	0.885131
C217	C	-0.218634	-0.364975	0.218468
C218	C	0.114699	-0.031642	0.551802
C219	C	0.448033	0.301691	0.885135
N220	N	-0.252008	-0.392282	0.251947
N221	N	0.081326	-0.058949	0.585281
N222	N	0.414659	0.274384	0.918614
C223	C	-0.285387	-0.364986	0.285432
C224	C	0.047947	-0.031652	0.618765
C225	C	0.381280	0.301681	0.952099
C226	C	-0.218678	-0.031900	0.218492
C227	C	0.114655	0.301433	0.551825
C228	C	0.447988	0.634767	0.885158
C229	C	-0.218680	0.022702	0.218499
C230	C	0.114653	0.356036	0.551833
C231	C	0.447986	0.689369	0.885166
C232	C	-0.285436	0.022692	0.285466
C233	C	0.047898	0.356025	0.618800
C234	C	0.381231	0.689359	0.952133
C235	C	-0.285430	-0.031911	0.285461
C236	C	0.047903	0.301422	0.618794
C237	C	0.381236	0.634755	0.952128
C238	C	-0.252052	-0.059207	0.251971
C239	C	0.081281	0.274127	0.585304
C240	C	0.414615	0.607460	0.918638
C241	C	-0.285365	-0.479651	0.285424
C242	C	0.047969	-0.146318	0.618758
C243	C	0.381302	0.187016	0.952091
C244	C	-0.285351	-0.534256	0.285420
C245	C	0.047982	-0.200923	0.618753
C246	C	0.381315	0.132410	0.952087
C247	C	-0.218598	-0.534241	0.218451
C248	C	0.114735	-0.200908	0.551785
C249	C	0.448068	0.132425	0.885118
C250	C	-0.218610	-0.479641	0.218457
C251	C	0.114724	-0.146307	0.551791
C252	C	0.448057	0.187026	0.885124
C253	C	-0.251997	-0.452347	0.251945
C254	C	0.081336	-0.119013	0.585279
C255	C	0.414669	0.214320	0.918612
O256	O	-0.190250	-0.393254	0.190018
O257	O	0.143083	-0.059921	0.523351
O258	O	0.476417	0.273413	0.856684
O259	O	-0.313773	-0.393233	0.313899
O260	O	0.019561	-0.059900	0.647232
O261	O	0.352894	0.273434	0.980566
C262	C	-0.252047	-0.755613	0.115579
C263	C	0.081286	-0.422280	0.448913
C264	C	0.414619	-0.088947	0.782246
C265	C	-0.252063	-0.755658	0.057465
C266	C	0.081270	-0.422324	0.390799
C267	C	0.414604	-0.088991	0.724132
C268	C	-0.285431	-0.722071	0.697104
C269	C	0.047902	-0.388738	1.030437
C270	C	0.381235	-0.055404	1.363770
C271	C	-0.285425	-0.722052	0.642499
C272	C	0.047908	-0.388718	0.975833
C273	C	0.381241	-0.055385	1.309166
O274	O	-0.313839	-0.693603	0.614264
O275	O	0.019494	-0.360270	0.947597
O276	O	0.352827	-0.026936	1.280931
N277	N	-0.252019	-0.755495	0.615183
N278	N	0.081314	-0.422162	0.948516
N279	N	0.414647	-0.088829	1.281849
C280	C	-0.218621	-0.788964	0.642473
C281	C	0.114713	-0.455631	0.975807
C282	C	0.448046	-0.122298	1.309140
O283	O	-0.190206	-0.817409	0.614224
O284	O	0.143127	-0.484076	0.947558
O285	O	0.476461	-0.150743	1.280891
C286	C	-0.218630	-0.788986	0.697077
C287	C	0.114703	-0.455653	1.030410
C288	C	0.448037	-0.122319	1.363743
C289	C	-0.252034	-0.755536	0.724390
C290	C	0.081299	-0.422203	1.057724
C291	C	0.414632	-0.088870	1.391057
C292	C	-0.318834	-0.688624	0.724418
C293	C	0.014500	-0.355291	1.057751
C294	C	0.347833	-0.021958	1.391084
C295	C	-0.318839	-0.688643	0.779018
C296	C	0.014495	-0.355310	1.112352
C297	C	0.347828	-0.021977	1.445685
C298	C	-0.285442	-0.722109	0.806305
C299	C	0.047891	-0.388775	1.139638
C300	C	0.381225	-0.055442	1.472972
C301	C	-0.252040	-0.755555	0.778991
C302	C	0.081294	-0.422222	1.112324
C303	C	0.414627	-0.088889	1.445658
C304	C	-0.185235	-0.822457	0.724366
C305	C	0.148099	-0.489124	1.057699
C306	C	0.481432	-0.155791	1.391033
C307	C	-0.185247	-0.822476	0.778973
C308	C	0.148087	-0.489143	1.112306
C309	C	0.481420	-0.155810	1.445640
C310	C	-0.218651	-0.789027	0.806287
C311	C	0.114682	-0.455693	1.139620
C312	C	0.448015	-0.122360	1.472954
C313	C	-0.218648	-0.789039	0.860878
C314	C	0.114685	-0.455706	1.194211
C315	C	0.448019	-0.122373	1.527545
N316	N	-0.252054	-0.755596	0.888195
N317	N	0.081279	-0.422262	1.221528
N318	N	0.414613	-0.088929	1.554861
C319	C	-0.285451	-0.722130	0.860908
C320	C	0.047882	-0.388797	1.194242
C321	C	0.381216	-0.055464	1.527575
C322	C	-0.218605	-0.788917	0.527803
C323	C	0.114728	-0.455584	0.861136
C324	C	0.448062	-0.122250	1.194469
C325	C	-0.218593	-0.788893	0.473200
C326	C	0.114741	-0.455560	0.806534
C327	C	0.448074	-0.122227	1.139867
C328	C	-0.285398	-0.721981	0.473230
C329	C	0.047935	-0.388648	0.806564
C330	C	0.381269	-0.055314	1.139897
C331	C	-0.285407	-0.722003	0.527834
C332	C	0.047926	-0.388669	0.861167
C333	C	0.381259	-0.055336	1.194500
C334	C	-0.252011	-0.755473	0.555119
C335	C	0.081322	-0.422140	0.888453
C336	C	0.414656	-0.088807	1.221786
C337	C	-0.285459	-0.722172	0.975573
C338	C	0.047874	-0.388839	1.308907
C339	C	0.381207	-0.055505	1.642240
C340	C	-0.285460	-0.722192	1.030179
C341	C	0.047873	-0.388859	1.363512
C342	C	0.381207	-0.055526	1.696845
C343	C	-0.218657	-0.789106	1.030144
C344	C	0.114677	-0.455773	1.363477
C345	C	0.448010	-0.122439	1.696810
C346	C	-0.218654	-0.789084	0.975543
C347	C	0.114679	-0.455751	1.308877
C348	C	0.448013	-0.122418	1.642210
C349	C	-0.252059	-0.755615	0.948259
C350	C	0.081274	-0.422282	1.281593
C351	C	0.414607	-0.088949	1.614926
O352	O	-0.190250	-0.817475	0.889148
O353	O	0.143083	-0.484142	1.222482
O354	O	0.476417	-0.150808	1.555815
O355	O	-0.313866	-0.693695	0.889164
O356	O	0.019468	-0.360361	1.222497
O357	O	0.352801	-0.027028	1.555830
H358	H	-0.451561	-0.694940	0.191237
H359	H	-0.118228	-0.361607	0.524570
H360	H	0.215106	-0.028273	0.857904
F361	F	-0.183084	-0.450581	0.182827
F362	F	0.150249	-0.117247	0.516160
F363	F	0.483583	0.216086	0.849493
H364	H	-0.550646	-0.816186	0.312571
H365	H	-0.217313	-0.482852	0.645904
H366	H	0.116020	-0.149519	0.979238
H367	H	-0.158034	-0.849695	0.702135
H368	H	0.175299	-0.516362	1.035468
H369	H	0.508633	-0.183029	1.368801
H370	H	-0.191494	-0.054121	0.191221
H371	H	0.141839	0.279213	0.524554
H372	H	0.475173	0.612546	0.857887
F373	F	-0.183155	0.051755	0.182866
F374	F	0.150178	0.385089	0.516200
F375	F	0.483512	0.718422	0.849533
H376	H	-0.550611	-0.694935	0.191222
H377	H	-0.217278	-0.361602	0.524555
H378	H	0.116056	-0.028269	0.857889
F379	F	-0.695904	-0.653179	0.149391
F380	F	-0.362571	-0.319846	0.482724
F381	F	-0.029238	0.013487	0.816057
F382	F	-0.695931	-0.857935	0.354368
F383	F	-0.362598	-0.524602	0.687701
F384	F	-0.029265	-0.191268	1.021034
F385	F	-0.808600	-0.653180	0.149376
F386	F	-0.475267	-0.319846	0.482710
F387	F	-0.141933	0.013487	0.816043
F388	F	-0.183076	-0.563302	0.182817
F389	F	0.150258	-0.229968	0.516150
F390	F	0.483591	0.103365	0.849483
H391	H	-0.158105	-0.206252	0.157717
H392	H	0.175229	0.127082	0.491050
H393	H	0.508562	0.460415	0.824383
F394	F	-1.059798	-0.686620	0.182764
F395	F	-0.726465	-0.353287	0.516098
F396	F	-0.393131	-0.019953	0.849431
F397	F	-0.183117	-0.824722	1.059194
F398	F	0.150217	-0.491389	1.392527
F399	F	0.483550	-0.158055	1.725860
F400	F	-0.183092	-0.824675	0.946473
F401	F	0.150242	-0.491342	1.279806
F402	F	0.483575	-0.158009	1.613139
F403	F	-0.321015	-0.686589	1.059245
F404	F	0.012318	-0.353255	1.392578
F405	F	0.345652	-0.019922	1.725912
F406	F	-0.444754	-0.824530	0.320951
F407	F	-0.111421	-0.491196	0.654284
F408	F	0.221913	-0.157863	0.987617
H409	H	-0.345964	-0.206266	0.346192
H410	H	-0.012631	0.127067	0.679525
H411	H	0.320703	0.460400	1.012859
H412	H	-0.312527	-0.556485	0.312690
H413	H	0.020806	-0.223151	0.646023
H414	H	0.354139	0.110182	0.979356
H415	H	-0.345947	-0.305312	0.346188
H416	H	-0.012614	0.028021	0.679521
H417	H	0.320720	0.361355	1.012855
F418	F	-0.947080	-0.686609	0.182781
F419	F	-0.613747	-0.353275	0.516115
F420	F	-0.280413	-0.019942	0.849448
F421	F	-0.320900	-0.450610	0.321066
F422	F	0.012434	-0.117277	0.654399
F423	F	0.345767	0.216056	0.987733
H424	H	-1.052984	-0.816218	0.312472
H425	H	-0.719651	-0.482884	0.645805
H426	H	-0.386317	-0.149551	0.979138
F427	F	-0.354399	-0.653047	0.808081
F428	F	-0.021066	-0.319714	1.141414
F429	F	0.312268	0.013619	1.474748
H430	H	-0.158101	-0.305301	0.157704
H431	H	0.175232	0.028032	0.491038
H432	H	0.508565	0.361365	0.824371
H433	H	-0.801806	-0.849595	0.345983
H434	H	-0.468473	-0.516262	0.679317
H435	H	-0.135139	-0.182928	1.012650
F436	F	-0.947111	-0.824558	0.320864
F437	F	-0.613777	-0.491225	0.654197
F438	F	-0.280444	-0.157892	0.987530
H439	H	-0.312606	-0.054139	0.312727
H440	H	0.020728	0.279195	0.646060
H441	H	0.354061	0.612528	0.979393
F442	F	-0.183054	-0.824540	0.556837
F443	F	0.150279	-0.491207	0.890171
F444	F	0.483613	-0.157873	1.223504
F445	F	-0.320965	0.051753	0.321100
F446	F	0.012369	0.385086	0.654433
F447	F	0.345702	0.718419	0.987767
H448	H	-0.312662	-0.694919	0.953365
H449	H	0.020672	-0.361586	1.286698
H450	H	0.354005	-0.028253	1.620031
H451	H	-0.346032	-0.661373	0.702206
H452	H	-0.012698	-0.328040	1.035539
H453	H	0.320635	0.005294	1.368872
F454	F	-0.320961	-0.686402	0.556898
F455	F	0.012373	-0.353068	0.890232
F456	F	0.345706	-0.019735	1.223565
H457	H	-0.312592	-0.694732	0.451004
H458	H	0.020741	-0.361399	0.784337
H459	H	0.354074	-0.028066	1.117670
H460	H	-0.191386	-0.816125	0.450965
H461	H	0.141947	-0.482792	0.784298
H462	H	0.475281	-0.149459	1.117632
H463	H	-0.158053	-0.849735	0.801186
H464	H	0.175281	-0.516401	1.134519
H465	H	0.508614	-0.183068	1.467853
