data_functionalizedCrystal
_audit_creation_method	'MofGen! by Chris Wilmer'
_symmetry_space_group_name_H-M	'P1'
_symmetry_Int_Tables_number	1
_symmetry_cell_setting	triclinic
loop_
_symmetry_equiv_pos_as_xyz
  x,y,z
_cell_length_a	9.065215
_cell_length_b	9.065215
_cell_length_c	7.540329
_cell_angle_alpha	89.997549
_cell_angle_beta	89.997574
_cell_angle_gamma	85.014697
loop_
_atom_site_label
_atom_site_type_symbol
_atom_site_fract_x
_atom_site_fract_y
_atom_site_fract_z
O1	O	1.960399	0.216335	-0.147457
O2	O	2.460399	0.716335	0.352543
O3	O	1.531113	0.234085	-0.147465
O4	O	2.031113	0.734085	0.352535
O5	O	1.754631	0.010567	-0.147454
O6	O	2.254631	0.510567	0.352546
O7	O	1.736880	0.439853	-0.147468
O8	O	2.236880	0.939853	0.352532
O9	O	1.754618	0.010564	0.147511
O10	O	2.254618	0.510564	0.647511
O11	O	1.531100	0.234083	0.147500
O12	O	2.031100	0.734083	0.647500
O13	O	1.960385	0.216332	0.147508
O14	O	2.460385	0.716332	0.647508
Cu15	Cu	1.745741	0.225207	0.174437
Cu16	Cu	2.245741	0.725207	0.674437
Cu17	Cu	1.745757	0.225210	-0.174394
Cu18	Cu	2.245757	0.725210	0.325606
O19	O	1.736867	0.439850	0.147497
O20	O	2.236867	0.939850	0.647497
C21	C	1.476120	0.232379	0.000017
C22	C	1.976120	0.732379	0.500017
C23	C	1.312277	0.227281	0.000014
C24	C	1.812277	0.727281	0.500014
C25	C	1.752920	-0.044421	0.000026
C26	C	2.252920	0.455579	0.500026
C27	C	1.747822	-0.208264	0.000020
C28	C	2.247822	0.291736	0.500020
C29	C	2.015379	0.218038	0.000023
C30	C	2.515379	0.718038	0.500023
C31	C	2.179222	0.223136	0.000014
C32	C	2.679222	0.723136	0.500014
N33	N	1.745741	0.225204	0.419785
N34	N	2.245741	0.725204	0.919785
C35	C	1.738579	0.494838	0.000013
C36	C	2.238579	0.994838	0.500013
C37	C	1.743677	0.658681	0.000008
C38	C	2.243677	1.158681	0.500008
N39	N	1.745769	0.225202	-0.419742
N40	N	2.245769	0.725202	0.080258
