data_functionalizedCrystal
_audit_creation_method	'MofGen! by Chris Wilmer'
_symmetry_space_group_name_H-M	'P1'
_symmetry_Int_Tables_number	1
_symmetry_cell_setting	triclinic
loop_
_symmetry_equiv_pos_as_xyz
  x,y,z
_cell_length_a	14.519709
_cell_length_b	12.996460
_cell_length_c	14.519709
_cell_angle_alpha	90.007090
_cell_angle_beta	96.319855
_cell_angle_gamma	90.000034
loop_
_atom_site_label
_atom_site_type_symbol
_atom_site_fract_x
_atom_site_fract_y
_atom_site_fract_z
O1	O	1.223869	-0.085435	-0.120893
O2	O	1.557202	0.247898	0.212440
O3	O	1.890535	0.581232	0.545774
O4	O	0.955392	-0.085467	-0.135129
O5	O	1.288725	0.247866	0.198204
O6	O	1.622059	0.581200	0.531537
O7	O	1.096749	-0.085441	0.006227
O8	O	1.430082	0.247892	0.339561
O9	O	1.763415	0.581226	0.672894
O10	O	1.082512	-0.085461	-0.262250
O11	O	1.415845	0.247872	0.071084
O12	O	1.749179	0.581206	0.404417
O13	O	1.096734	0.085693	0.006235
O14	O	1.430067	0.419026	0.339568
O15	O	1.763400	0.752360	0.672902
O16	O	0.955377	0.085667	-0.135122
O17	O	1.288710	0.419000	0.198212
O18	O	1.622044	0.752334	0.531545
O19	O	1.223854	0.085699	-0.120885
O20	O	1.557187	0.419032	0.212448
O21	O	1.890521	0.752365	0.545782
Cu22	Cu	1.089614	0.101309	-0.128003
Cu23	Cu	1.422948	0.434642	0.205331
Cu24	Cu	1.756281	0.767975	0.538664
Cu25	Cu	1.089632	-0.101077	-0.128012
Cu26	Cu	1.422965	0.232256	0.205321
Cu27	Cu	1.756298	0.565590	0.538655
O28	O	1.082497	0.085673	-0.262242
O29	O	1.415831	0.419006	0.071092
O30	O	1.749164	0.752339	0.404425
C31	C	0.921025	0.000096	-0.134462
C32	C	1.254358	0.333429	0.198871
C33	C	1.587691	0.666763	0.532205
C34	C	0.818643	0.000084	-0.132474
C35	C	1.151977	0.333418	0.200859
C36	C	1.485310	0.666751	0.534193
N37	N	1.089609	0.243656	-0.127996
N38	N	1.422942	0.576989	0.205338
N39	N	1.756275	0.910322	0.538671
N40	N	1.089644	-0.243424	-0.128012
N41	N	1.422978	0.089909	0.205322
N42	N	1.756311	0.423243	0.538655
C43	C	0.443748	0.000132	-0.125154
C44	C	0.777081	0.333465	0.208179
C45	C	1.110414	0.666798	0.541512
C46	C	0.548056	0.000118	-0.127187
C47	C	0.881389	0.333451	0.206146
C48	C	1.214722	0.666785	0.539480
C49	C	0.631192	0.000107	-0.128814
C50	C	0.964526	0.333440	0.204519
C51	C	1.297859	0.666774	0.537853
C52	C	0.735507	0.000095	-0.130847
C53	C	1.068840	0.333429	0.202486
C54	C	1.402173	0.666762	0.535820
C55	C	1.258221	0.000134	-0.121553
C56	C	1.591554	0.333467	0.211781
C57	C	1.924888	0.666800	0.545114
C58	C	1.360602	0.000139	-0.123541
C59	C	1.693936	0.333472	0.209793
C60	C	2.027269	0.666805	0.543126
C61	C	1.096078	0.000126	0.040591
C62	C	1.429411	0.333459	0.373924
C63	C	1.762744	0.666793	0.707258
C64	C	1.094090	0.000126	0.142972
C65	C	1.427423	0.333460	0.476306
C66	C	1.760756	0.666793	0.809639
C67	C	1.089630	0.663470	-0.128013
C68	C	1.422964	0.996803	0.205320
C69	C	1.756297	1.330137	0.538654
C70	C	1.089622	0.546665	-0.128011
C71	C	1.422955	0.879998	0.205322
C72	C	1.756288	1.213332	0.538656
C73	C	1.089620	0.453567	-0.128005
C74	C	1.422953	0.786900	0.205328
C75	C	1.756287	1.120233	0.538662
C76	C	1.089610	0.336754	-0.128002
C77	C	1.422944	0.670087	0.205332
C78	C	1.756277	1.003421	0.538665
C79	C	1.083168	0.000103	-0.296605
C80	C	1.416501	0.333437	0.036728
C81	C	1.749835	0.666770	0.370061
C82	C	1.085156	0.000096	-0.398987
C83	C	1.418490	0.333430	-0.065653
C84	C	1.751823	0.666763	0.267680
C85	C	1.086770	0.000099	0.517868
C86	C	1.420103	0.333432	0.851201
C87	C	1.753437	0.666766	1.184535
C88	C	1.088803	0.000107	0.413560
C89	C	1.422136	0.333440	0.746893
C90	C	1.755469	0.666774	1.080227
C91	C	1.090430	0.000114	0.330423
C92	C	1.423763	0.333447	0.663757
C93	C	1.757096	0.666780	0.997090
C94	C	1.092463	0.000120	0.226109
C95	C	1.425796	0.333453	0.559442
C96	C	1.759129	0.666786	0.892776
