data_functionalizedCrystal
_audit_creation_method	'MofGen! by Chris Wilmer'
_symmetry_space_group_name_H-M	'P1'
_symmetry_Int_Tables_number	1
_symmetry_cell_setting	triclinic
loop_
_symmetry_equiv_pos_as_xyz
  x,y,z
_cell_length_a	14.519731
_cell_length_b	17.699092
_cell_length_c	16.776229
_cell_angle_alpha	89.995030
_cell_angle_beta	89.992771
_cell_angle_gamma	83.487610
loop_
_atom_site_label
_atom_site_type_symbol
_atom_site_fract_x
_atom_site_fract_y
_atom_site_fract_z
O1	O	1.223440	0.099292	-0.066287
O2	O	0.954917	0.110959	-0.066288
O3	O	1.096761	-0.005041	-0.066285
O4	O	1.081596	0.215292	-0.066289
O5	O	1.096742	-0.005049	0.066291
O6	O	0.954898	0.110951	0.066289
O7	O	1.223421	0.099285	0.066290
Zn8	Zn	1.089157	0.105117	0.087339
Zn9	Zn	1.089182	0.105126	-0.087337
O10	O	1.081577	0.215285	0.066287
C11	C	1.096207	-0.033243	0.000002
C12	C	1.094573	-0.117266	-0.000002
C13	C	0.920550	0.110408	0.000000
C14	C	0.818177	0.108770	0.000000
C15	C	1.093818	-0.156732	-0.072270
C16	C	1.092276	-0.235679	-0.072271
C17	C	1.091497	-0.275160	-0.000003
C18	C	1.092250	-0.235689	0.072271
C19	C	1.093784	-0.156742	0.072271
C20	C	1.086059	-0.554072	0.072272
C21	C	1.084527	-0.633024	0.072266
C22	C	1.084551	-0.633009	-0.072270
C23	C	1.086086	-0.554062	-0.072270
C24	C	1.086834	-0.514597	0.000003
C25	C	1.088503	-0.428993	0.000003
C26	C	1.089834	-0.360763	-0.000002
C27	C	0.735038	0.107439	-0.000003
C28	C	0.630737	0.105776	-0.000003
C29	C	0.547603	0.104456	-0.000003
C30	C	0.443295	0.102793	-0.000005
C31	C	1.257788	0.099835	-0.000000
C32	C	1.360161	0.101473	-0.000005
C33	C	1.082131	0.243487	-0.000001
C34	C	1.083765	0.327509	-0.000003
N35	N	1.089147	0.105110	0.206550
N36	N	1.089199	0.105127	-0.206548
C37	C	1.151974	0.053766	0.248268
C38	C	1.151979	0.053766	0.331720
C39	C	1.089161	0.105113	0.373453
C40	C	1.026326	0.156459	0.331729
C41	C	1.026317	0.156455	0.248278
C42	C	1.026359	0.156474	0.668276
C43	C	1.026375	0.156475	0.751733
C44	C	1.152022	0.053784	0.751718
C45	C	1.152013	0.053781	0.668267
C46	C	1.089176	0.105124	0.626551
C47	C	1.089170	0.105123	0.536062
C48	C	1.089170	0.105118	0.463940
H49	H	1.091665	-0.267809	-0.131120
O50	O	1.086685	-0.515821	0.142530
C51	C	1.006465	-0.526646	0.186500
H52	H	0.978721	-0.581137	0.165942
H53	H	1.024378	-0.531273	0.252609
H54	H	0.951427	-0.476284	0.176505
O55	O	0.965265	0.206233	0.372355
C56	C	0.908460	0.165592	0.420631
H57	H	0.945325	0.106437	0.433132
H58	H	0.893809	0.197157	0.479312
H59	H	0.840312	0.160319	0.388486
H60	H	1.203138	0.011957	0.365687
H61	H	1.203169	0.011972	0.634291
O62	O	1.083964	-0.671322	-0.142504
C63	C	1.164167	-0.660471	-0.186486
H64	H	1.220399	-0.644701	-0.144204
H65	H	1.189944	-0.715222	-0.219283
H66	H	1.147014	-0.612720	-0.231536
O67	O	1.091535	-0.274160	0.142402
C68	C	1.090001	-0.352302	0.126907
H69	H	1.118982	-0.366170	0.064796
H70	H	1.134172	-0.387048	0.173060
H71	H	1.015610	-0.366875	0.130336
O72	O	1.094547	-0.118522	0.142544
C73	C	1.093501	-0.170293	0.206331
H74	H	1.121609	-0.229658	0.185150
H75	H	1.138676	-0.152221	0.256884
H76	H	1.019374	-0.170864	0.228538
O77	O	0.965415	0.206364	0.207663
C78	C	1.014688	0.253162	0.159388
H79	H	1.086915	0.223156	0.146877
H80	H	0.976163	0.265058	0.100711
H81	H	1.020827	0.309115	0.191539
O82	O	1.212968	0.003930	0.792366
C83	C	1.199524	0.014950	0.874971
H84	H	1.126144	0.043096	0.886382
H85	H	1.209921	-0.042349	0.906690
H86	H	1.251634	0.053012	0.898639
H87	H	1.083890	-0.665167	0.131119
O88	O	0.965245	0.206250	0.627719
C89	C	0.908450	0.165616	0.579446
H90	H	0.907018	0.105925	0.604602
H91	H	0.835088	0.196366	0.578506
H92	H	0.937317	0.161699	0.516197
H93	H	1.094457	-0.124593	-0.131120
H94	H	1.203132	0.011957	0.214295
O95	O	1.086659	-0.515748	-0.142505
C96	C	1.006451	-0.526624	-0.186450
H97	H	0.950240	-0.542408	-0.144139
H98	H	0.980644	-0.471881	-0.219252
H99	H	1.023611	-0.574376	-0.231493
H100	H	0.975217	0.198290	0.785710
