data_functionalizedCrystal
_audit_creation_method	'MofGen! by Chris Wilmer'
_symmetry_space_group_name_H-M	'P1'
_symmetry_Int_Tables_number	1
_symmetry_cell_setting	triclinic
loop_
_symmetry_equiv_pos_as_xyz
  x,y,z
_cell_length_a	12.759399
_cell_length_b	21.295418
_cell_length_c	12.759393
_cell_angle_alpha	89.955003
_cell_angle_beta	90.030208
_cell_angle_gamma	89.966353
loop_
_atom_site_label
_atom_site_type_symbol
_atom_site_fract_x
_atom_site_fract_y
_atom_site_fract_z
Zn1	Zn	-0.417693	-0.962404	0.594734
Zn2	Zn	-0.593412	-0.962339	0.419059
Zn3	Zn	-0.417804	-0.857132	0.418993
Zn4	Zn	-0.593387	-0.857124	0.594619
O5	O	-0.505574	-0.909750	0.506851
O6	O	-0.440967	-1.050485	0.571507
O7	O	-0.570174	-0.948360	0.272029
O8	O	-0.270768	-0.871127	0.442326
O9	O	-0.570067	-1.050437	0.442438
O10	O	-0.270687	-0.948470	0.571443
O11	O	-0.441156	-0.871065	0.271980
O12	O	-0.441131	-0.769042	0.442214
O13	O	-0.570024	-0.871114	0.741655
O14	O	-0.570131	-0.769036	0.571246
O15	O	-0.440943	-0.948462	0.741740
O16	O	-0.740430	-0.948352	0.442326
O17	O	-0.740411	-0.871051	0.571310
C18	C	-0.505641	-0.746198	0.506711
C19	C	-0.505695	-0.676230	0.506675
C20	C	-0.572956	-0.643377	0.573758
C21	C	-0.572935	-0.577634	0.573797
C22	C	-0.505663	-0.544748	0.506735
C23	C	-0.438388	-0.577609	0.439648
C24	C	-0.438404	-0.643350	0.439618
N25	N	-0.497475	-0.441473	0.414830
N26	N	-0.497466	-0.379022	0.414862
C27	C	-0.505610	-0.346673	0.506823
N28	N	-0.513783	-0.379135	0.598753
N29	N	-0.513797	-0.441592	0.598721
C30	C	-0.505638	-0.473462	0.506761
C31	C	-0.572852	-0.242534	0.573954
C32	C	-0.572823	-0.176791	0.573995
C33	C	-0.438282	-0.176766	0.439836
C34	C	-0.438305	-0.242509	0.439804
C35	C	-0.505596	-0.275389	0.506862
C36	C	-0.778541	-0.909711	0.506836
C37	C	-0.895318	-0.909751	0.506864
C38	C	-1.060035	-0.869578	0.439615
C39	C	-0.950311	-0.869536	0.439597
C40	C	-0.950055	-0.950006	0.574163
C41	C	-1.059777	-0.950044	0.574186
C42	C	-1.115022	-0.829364	0.372336
C43	C	-1.060293	-0.789108	0.305038
C44	C	-0.950569	-0.789066	0.305020
C45	C	-0.895574	-0.829281	0.372298
C46	C	-0.231541	-0.909807	0.506890
C47	C	-0.114764	-0.909831	0.506906
C48	C	-0.505468	-0.909794	0.780885
C49	C	-0.505423	-0.909813	0.897661
C50	C	-0.505525	-0.073940	0.506963
C51	C	-0.505549	-0.143908	0.506933
C52	C	-0.505604	-0.909742	0.233884
C53	C	-0.505353	-0.909846	0.117108
C54	C	-0.438204	-0.950094	0.952569
C55	C	-0.438166	-0.950109	1.062293
C56	C	-0.572575	-0.869560	1.062192
C57	C	-0.572607	-0.869542	0.952470
C58	C	-0.371020	-0.990364	0.897761
C59	C	-0.303796	-1.030649	0.952669
C60	C	-0.303758	-1.030664	1.062393
C61	C	-0.370944	-0.990394	1.117209
H62	H	-0.383539	-0.269258	0.385173
O63	O	-0.638059	-0.274549	0.639149
C64	C	-0.652370	-0.348832	0.780973
C65	C	-0.578408	-0.312628	0.707190
H66	H	-0.604171	-0.379618	0.836017
H67	H	-0.707243	-0.379596	0.732687
H68	H	-0.700460	-0.314044	0.828887
H69	H	-0.530250	-0.347371	0.659260
H70	H	-0.523604	-0.281855	0.755536
H71	H	-0.906009	-0.756284	0.250231
H72	H	-0.371046	-0.990358	0.808418
O73	O	-1.113871	-0.750103	0.239726
C74	C	-1.283017	-0.714472	0.180164
C75	C	-1.222474	-0.758690	0.254165
H76	H	-1.370832	-0.721390	0.191828
H77	H	-1.261559	-0.725546	0.095445
H78	H	-1.261469	-0.663706	0.198487
H79	H	-1.243989	-0.809470	0.235937
H80	H	-1.243936	-0.747561	0.338862
O81	O	-0.638419	-0.675345	0.638755
C82	C	-0.780247	-0.749550	0.652632
C83	C	-0.706200	-0.713371	0.578900
H84	H	-0.835052	-0.780313	0.604271
H85	H	-0.828394	-0.714802	0.700572
H86	H	-0.732054	-0.780353	0.707655
H87	H	-0.754312	-0.682567	0.523814
H88	H	-0.658049	-0.748153	0.531034
H89	H	-1.204365	-0.829395	0.372341
O90	O	-0.638332	-0.545645	0.638818
C91	C	-0.780225	-0.471400	0.652727
C92	C	-0.706212	-0.507572	0.578975
H93	H	-0.835139	-0.440619	0.604373
H94	H	-0.732111	-0.440634	0.707746
H95	H	-0.828266	-0.506209	0.700671
H96	H	-0.658154	-0.472809	0.530963
H97	H	-0.754386	-0.538348	0.524025
H98	H	-0.383613	-0.550828	0.385048
H99	H	-1.104339	-0.982815	0.628992
O100	O	-0.788988	-0.829176	0.372124
C101	C	-0.631672	-0.784928	0.298322
C102	C	-0.752376	-0.784992	0.298397
H103	H	-0.602034	-0.749200	0.238737
H104	H	-0.601734	-0.833652	0.276565
H105	H	-0.601887	-0.771855	0.379678
H106	H	-0.782250	-0.798039	0.217066
H107	H	-0.782242	-0.736263	0.320214
H108	H	-0.905271	-0.982748	0.628937
O109	O	-0.638266	-0.144972	0.639194
C110	C	-0.771687	-0.151937	0.772280
C111	C	-0.697642	-0.188050	0.698480
H112	H	-0.819696	-0.186750	0.820247
H113	H	-0.826621	-0.121120	0.724010
H114	H	-0.723497	-0.121199	0.827274
H115	H	-0.745747	-0.218822	0.643471
H116	H	-0.642705	-0.218828	0.746815
O117	O	-0.238628	-1.069741	0.899263
C118	C	-0.179061	-1.105384	0.730276
C119	C	-0.252939	-1.061093	0.790623
H120	H	-0.190589	-1.098399	0.642430
H121	H	-0.197481	-1.156157	0.751812
H122	H	-0.094355	-1.094356	0.751921
H123	H	-0.337670	-1.072065	0.769010
H124	H	-0.234428	-1.010334	0.769081
O125	O	-0.373058	-0.144731	0.374699
C126	C	-0.313416	-0.043442	0.315276
C127	C	-0.387342	-0.079647	0.389094
H128	H	-0.324924	0.009184	0.326905
H129	H	-0.331808	-0.056270	0.230512
H130	H	-0.228724	-0.056444	0.333816
H131	H	-0.472059	-0.066664	0.370649
H132	H	-0.368861	-0.066816	0.473837
H133	H	-0.370895	-0.990402	1.206554
O134	O	-0.238425	-1.069851	1.115570
C135	C	-0.105072	-1.149718	1.104084
C136	C	-0.179024	-1.105377	1.043734
H137	H	-0.057012	-1.178443	1.046031
H138	H	-0.153230	-1.182671	1.155444
H139	H	-0.050173	-1.120828	1.155466
H140	H	-0.233938	-1.134216	0.992295
H141	H	-0.130801	-1.072422	0.992440
O142	O	-0.637875	-0.830390	1.115275
C143	C	-0.771248	-0.750527	1.103599
C144	C	-0.697327	-0.794843	1.043355
H145	H	-0.819350	-0.721785	1.045478
H146	H	-0.723064	-0.717589	1.154925
H147	H	-0.826111	-0.779437	1.155006
H148	H	-0.642450	-0.765983	0.991891
H149	H	-0.745577	-0.827783	0.992095
H150	H	-0.383628	-0.670099	0.384991
H151	H	-0.627326	-0.836732	0.907763
