data_functionalizedCrystal
_audit_creation_method	'MofGen! by Chris Wilmer'
_symmetry_space_group_name_H-M	'P1'
_symmetry_Int_Tables_number	1
_symmetry_cell_setting	triclinic
loop_
_symmetry_equiv_pos_as_xyz
  x,y,z
_cell_length_a	34.408637
_cell_length_b	34.407814
_cell_length_c	34.404193
_cell_angle_alpha	60.004510
_cell_angle_beta	60.009006
_cell_angle_gamma	59.994604
loop_
_atom_site_label
_atom_site_type_symbol
_atom_site_fract_x
_atom_site_fract_y
_atom_site_fract_z
O1	O	0.053973	-0.567860	0.474801
O2	O	0.553973	-0.067860	0.974801
O3	O	0.020377	-0.442124	0.382567
O4	O	0.520377	0.057876	0.882567
O5	O	0.100004	-0.521670	0.382483
O6	O	0.600004	-0.021670	0.882483
O7	O	-0.025653	-0.488314	0.474886
O8	O	0.474347	0.011686	0.974886
O9	O	0.126426	-0.495253	0.408816
O10	O	0.626426	0.004747	0.908816
O11	O	0.046800	-0.415707	0.408900
O12	O	0.546800	0.084293	0.908900
O13	O	0.080396	-0.541443	0.501134
O14	O	0.580396	-0.041443	1.001134
Zn15	Zn	0.067793	-0.474381	0.459198
Zn16	Zn	0.567793	0.025619	0.959198
Zn17	Zn	0.032980	-0.509186	0.424503
Zn18	Zn	0.532980	-0.009186	0.924503
O19	O	0.000769	-0.461897	0.501219
O20	O	0.500769	0.038103	1.001219
N21	N	0.091552	-0.450631	0.482879
N22	N	0.591552	0.049369	0.982879
N23	N	0.009225	-0.532940	0.400823
N24	N	0.509225	-0.032940	0.900823
C25	C	0.142848	-0.268847	0.534081
C26	C	0.642848	0.231153	1.034081
C27	C	0.142979	-0.399386	0.664559
C28	C	0.642979	0.100614	1.164559
C29	C	0.142862	-0.399365	0.534081
C30	C	0.642862	0.100635	1.034081
C31	C	0.273409	-0.399338	0.533986
C32	C	0.773409	0.100662	1.033986
C33	C	0.157225	-0.311914	0.548422
C34	C	0.657225	0.188086	1.048422
C35	C	0.157300	-0.385019	0.621491
C36	C	0.657300	0.114981	1.121491
C37	C	0.230339	-0.384991	0.548370
C38	C	0.730339	0.115009	1.048370
C39	C	0.157235	-0.385007	0.548422
C40	C	0.657235	0.114993	1.048422
C41	C	0.124548	-0.214028	0.515827
C42	C	0.624548	0.285972	1.015827
C43	C	0.124571	-0.417639	0.515827
C44	C	0.624571	0.082361	1.015827
C45	C	0.175526	-0.366733	0.566676
C46	C	0.675526	0.133267	1.066676
C47	C	0.353121	-0.385580	0.491988
C48	C	0.853121	0.114420	0.991988
C49	C	0.402952	-0.402180	0.475348
C50	C	0.902952	0.097820	0.975348
C51	C	0.402981	-0.482812	0.506096
C52	C	0.902981	0.017188	1.006096
C53	C	0.353151	-0.466211	0.522737
C54	C	0.853151	0.033789	1.022737
C55	C	0.136544	-0.189099	0.466839
C56	C	0.636544	0.310901	0.966839
C57	C	0.119905	-0.139265	0.450247
C58	C	0.619905	0.360735	0.950247
C59	C	0.079280	-0.139291	0.531632
C60	C	0.579280	0.360709	1.031632
C61	C	0.095918	-0.189125	0.548224
C62	C	0.595918	0.310875	1.048224
C63	C	0.075577	-0.405615	0.527900
C64	C	0.575577	0.094385	1.027900
C65	C	0.058953	-0.422228	0.511301
C66	C	0.558953	0.077772	1.011301
C67	C	0.140315	-0.462889	0.470566
C68	C	0.640315	0.037111	0.970566
C69	C	0.156941	-0.446276	0.487159
C70	C	0.656941	0.053724	0.987159
C71	C	0.075772	-0.405653	0.744326
C72	C	0.575772	0.094347	1.244326
C73	C	0.059206	-0.422280	0.794159
C74	C	0.559206	0.077720	1.294159
C75	C	0.140607	-0.462951	0.794094
C76	C	0.640607	0.037049	1.294094
C77	C	0.157172	-0.446325	0.744260
C78	C	0.657172	0.053675	1.244260
C79	C	0.124753	-0.417674	0.719377
C80	C	0.624753	0.082326	1.219377
C81	C	0.328223	-0.417595	0.515681
C82	C	0.828223	0.082405	1.015681
C83	C	-0.172390	-0.583988	0.349141
C84	C	0.327610	-0.083988	0.849141
C85	C	-0.041751	-0.584138	0.218783
C86	C	0.458249	-0.084138	0.718783
C87	C	-0.041941	-0.584130	0.349402
C88	C	0.458059	-0.084130	0.849402
C89	C	-0.041957	-0.714607	0.349338
C90	C	0.458043	-0.214607	0.849338
C91	C	-0.129326	-0.598388	0.334853
C92	C	0.370674	-0.098388	0.834853
C93	C	-0.056165	-0.598473	0.261852
C94	C	0.443835	-0.098473	0.761852
C95	C	-0.056282	-0.671535	0.334962
C96	C	0.443718	-0.171535	0.834962
C97	C	-0.056272	-0.598469	0.334999
C98	C	0.443728	-0.098469	0.834999
C99	C	-0.227205	-0.565659	0.367327
C100	C	0.272795	-0.065659	0.867327
C101	C	-0.023703	-0.565882	0.367734
C102	C	0.476297	-0.065882	0.867734
C103	C	-0.074511	-0.616717	0.316667
C104	C	0.425489	-0.116717	0.816667
C105	C	-0.055754	-0.794298	0.391257
C106	C	0.444246	-0.294298	0.891257
C107	C	-0.039181	-0.844132	0.407888
C108	C	0.460819	-0.344132	0.907888
C109	C	0.041447	-0.844215	0.377269
C110	C	0.541447	-0.344215	0.877269
C111	C	0.024873	-0.794381	0.360637
C112	C	0.524873	-0.294381	0.860637
C113	C	-0.252183	-0.577666	0.416302
C114	C	0.247817	-0.077666	0.916302
C115	C	-0.302014	-0.561001	0.432833
C116	C	0.197986	-0.061001	0.932833
C117	C	-0.301886	-0.520329	0.351410
C118	C	0.198114	-0.020329	0.851410
C119	C	-0.252055	-0.536994	0.334880
C120	C	0.247945	-0.036994	0.834880
C121	C	-0.035709	-0.516892	0.355682
C122	C	0.464291	-0.016892	0.855682
C123	C	-0.019129	-0.500308	0.372353
C124	C	0.480871	-0.000308	0.872353
C125	C	0.021465	-0.581700	0.413115
C126	C	0.521465	-0.081700	0.913115
C127	C	0.004884	-0.598286	0.396450
C128	C	0.504884	-0.098286	0.896450
C129	C	-0.035389	-0.516907	0.139026
C130	C	0.464611	-0.016907	0.639026
C131	C	-0.018707	-0.500324	0.089193
C132	C	0.481293	-0.000324	0.589193
C133	C	0.021949	-0.581721	0.089240
C134	C	0.521949	-0.081721	0.589240
C135	C	0.005268	-0.598303	0.139074
C136	C	0.505268	-0.098303	0.639074
C137	C	-0.023402	-0.565894	0.163965
C138	C	0.476598	-0.065894	0.663965
C139	C	-0.023728	-0.769425	0.367633
C140	C	0.476272	-0.269425	0.867633
N141	N	0.427173	-0.450553	0.482630
N142	N	0.927173	0.049447	0.982630
O143	O	0.589997	-0.458460	0.365361
O144	O	1.089997	0.041540	0.865361
O145	O	0.590185	-0.550997	0.490963
O146	O	1.090185	-0.050997	0.990963
O147	O	0.590104	-0.550786	0.411309
O148	O	1.090104	-0.050786	0.911309
O149	O	0.590077	-0.458671	0.445016
O150	O	1.090077	0.041329	0.945016
O151	O	0.510940	-0.524462	0.437777
O152	O	1.010940	-0.024462	0.937777
O153	O	0.511020	-0.524674	0.517432
O154	O	1.011020	-0.024674	1.017432
O155	O	0.510832	-0.432136	0.391830
O156	O	1.010832	0.067864	0.891830
Zn157	Zn	0.498357	-0.474225	0.458833
Zn158	Zn	0.998357	0.025775	0.958833
Zn159	Zn	0.602660	-0.508908	0.423960
Zn160	Zn	1.102660	-0.008908	0.923960
O161	O	0.510913	-0.432348	0.471484
O162	O	1.010913	0.067652	0.971484
N163	N	0.673844	-0.532580	0.400158
N164	N	1.173844	-0.032580	0.900158
N165	N	0.091520	-0.115070	0.482873
N166	N	0.591520	0.384930	0.982873
O167	O	-0.025663	0.047841	0.474857
O168	O	0.474337	0.547841	0.974857
O169	O	0.099940	0.047877	0.382299
O170	O	0.599940	0.547877	0.882299
O171	O	0.020247	0.047844	0.382560
O172	O	0.520247	0.547844	0.882560
O173	O	0.054030	0.047874	0.474596
O174	O	0.554030	0.547874	0.974596
O175	O	0.046674	-0.031326	0.408942
O176	O	0.546674	0.468674	0.908942
O177	O	0.126367	-0.031293	0.408680
O178	O	0.626367	0.468707	0.908680
O179	O	0.000764	-0.031329	0.501238
O180	O	0.500764	0.468671	1.001238
Zn181	Zn	0.067761	-0.043881	0.459148
Zn182	Zn	0.567761	0.456119	0.959148
Zn183	Zn	0.032943	0.060429	0.424389
Zn184	Zn	0.532943	0.560429	0.924389
O185	O	0.080457	-0.031296	0.500977
O186	O	0.580457	0.468704	1.000977
N187	N	0.009178	0.131618	0.400665
N188	N	0.509178	0.631618	0.900665
N189	N	0.091852	-0.450680	0.818332
N190	N	0.591852	0.049320	1.318332
O191	O	0.083862	-0.567845	0.981235
O192	O	0.583862	-0.067845	1.481235
O193	O	-0.008657	-0.442198	0.981276
O194	O	0.491343	0.057802	1.481276
O195	O	-0.008441	-0.521875	0.981252
O196	O	0.491559	-0.021875	1.481252
O197	O	0.083646	-0.488168	0.981258
O198	O	0.583646	0.011832	1.481258
O199	O	0.017919	-0.495468	0.902085
O200	O	0.517919	0.004532	1.402085
O201	O	0.017703	-0.415791	0.902109
O202	O	0.517703	0.084209	1.402109
O203	O	0.110222	-0.541438	0.902067
O204	O	0.610222	-0.041438	1.402067
Zn205	Zn	0.068148	-0.474422	0.889518
Zn206	Zn	0.568148	0.025578	1.389518
Zn207	Zn	0.033417	-0.509214	0.993825
Zn208	Zn	0.533417	-0.009214	1.493825
O209	O	0.110006	-0.461761	0.902091
O210	O	0.610006	0.038239	1.402091
N211	N	0.009712	-0.532961	1.065011
N212	N	0.509712	-0.032961	1.565011
C213	C	0.030439	-0.413071	0.383027
C214	C	0.530439	0.086929	0.883027
C215	C	0.129046	-0.511580	0.382922
C216	C	0.629046	-0.011580	0.882922
C217	C	0.070334	-0.570496	0.500675
C218	C	0.570334	-0.070496	1.000675
C219	C	-0.028274	-0.471987	0.500780
C220	C	0.471726	0.028013	1.000780
C221	C	0.550625	-0.550579	0.520021
C222	C	1.050625	-0.050579	1.020021
C223	C	0.550527	-0.550317	0.421379
C224	C	1.050527	-0.050317	0.921379
C225	C	0.550389	-0.432554	0.362773
C226	C	1.050389	0.067446	0.862773
C227	C	0.550491	-0.432816	0.461414
C228	C	1.050491	0.067184	0.961414
C229	C	0.128944	0.008394	0.382712
C230	C	0.628944	0.508394	0.882712
C231	C	0.030287	0.008256	0.383068
C232	C	0.530287	0.508256	0.883068
C233	C	-0.028273	0.008252	0.500793
C234	C	0.471727	0.508252	1.000793
C235	C	0.070417	0.008292	0.500470
C236	C	0.570417	0.508292	1.000470
C237	C	-0.008218	-0.413165	0.941698
C238	C	0.491782	0.086835	1.441698
C239	C	-0.007945	-0.511830	0.941653
C240	C	0.492055	-0.011830	1.441653
C241	C	0.109783	-0.570471	0.941646
C242	C	0.609783	-0.070471	1.441646
C243	C	0.109516	-0.471800	0.941673
C244	C	0.609516	0.028200	1.441673
H245	H	0.019320	-0.412483	0.814467
H246	H	0.519320	0.087517	1.314467
H247	H	0.550540	-0.579254	0.414165
H248	H	1.050540	-0.079254	0.914165
H249	H	-0.036863	-0.519031	0.941619
H250	H	0.463137	-0.019031	1.441619
C251	C	0.186287	-0.559426	0.332782
C252	C	0.686287	-0.059426	0.832782
C253	C	0.177765	-0.521173	0.343749
C254	C	0.677765	-0.021173	0.843749
H255	H	0.216365	-0.565349	0.308601
H256	H	0.716365	-0.065349	0.808601
H257	H	0.162072	-0.551895	0.321863
H258	H	0.662072	-0.051895	0.821863
H259	H	0.186210	-0.586978	0.360446
H260	H	0.686210	-0.086978	0.860446
H261	H	0.177839	-0.493619	0.316086
H262	H	0.677839	0.006381	0.816086
H263	H	0.201987	-0.528701	0.354666
H264	H	0.701987	-0.028701	0.854666
C265	C	-0.087293	-0.370611	0.982411
C266	C	0.412707	0.129389	1.482411
C267	C	-0.047433	-0.364452	0.941712
C268	C	0.452567	0.135548	1.441712
H269	H	-0.111503	-0.340537	0.982417
H270	H	0.388497	0.159463	1.482417
H271	H	-0.078633	-0.384851	1.010011
H272	H	0.421367	0.115149	1.510011
H273	H	-0.098779	-0.390615	0.982402
H274	H	0.401221	0.109385	1.482402
H275	H	-0.035945	-0.344451	0.941724
H276	H	0.464055	0.155549	1.441724
H277	H	-0.056094	-0.350205	0.914105
H278	H	0.443906	0.149795	1.414105
H279	H	0.077514	-0.606615	0.529644
H280	H	0.577514	-0.106615	1.029644
C281	C	0.025989	-0.370407	0.304045
C282	C	0.525989	0.129593	0.804045
C283	C	0.020753	-0.364314	0.343915
C284	C	0.520753	0.135686	0.843915
H285	H	0.020011	-0.340306	0.279898
H286	H	0.520011	0.159694	0.779898
H287	H	0.004010	-0.384701	0.312733
H288	H	0.504010	0.115299	0.812733
H289	H	0.057499	-0.390341	0.292459
H290	H	0.557499	0.109659	0.792459
H291	H	-0.010759	-0.344383	0.355503
H292	H	0.489241	0.155617	0.855503
H293	H	0.042732	-0.350013	0.335226
H294	H	0.542732	0.149987	0.835226
H295	H	0.167007	-0.486271	0.814352
H296	H	0.667007	0.013729	1.314352
H297	H	0.138447	-0.464586	0.941669
H298	H	0.638447	0.035414	1.441669
H299	H	0.138832	-0.606554	0.941627
H300	H	0.638832	-0.106554	1.441627
C301	C	0.509588	-0.353485	0.320278
C302	C	1.009588	0.146515	0.820278
C303	C	0.550310	-0.393330	0.314079
C304	C	1.050310	0.106670	0.814079
H305	H	0.509538	-0.329271	0.290216
H306	H	1.009538	0.170729	0.790216
H307	H	0.509606	-0.341993	0.340272
H308	H	1.009606	0.158007	0.840272
H309	H	0.482002	-0.362168	0.334543
H310	H	0.982002	0.137832	0.834543
H311	H	0.577896	-0.384647	0.299817
H312	H	1.077896	0.115353	0.799817
H313	H	0.550297	-0.404824	0.294078
H314	H	1.050297	0.095176	0.794078
C315	C	-0.077096	-0.503021	0.580718
C316	C	0.422904	-0.003021	1.080718
C317	C	-0.076994	-0.462398	0.539952
C318	C	0.423006	0.037602	1.039952
H319	H	-0.107175	-0.497101	0.604900
H320	H	0.392825	0.002899	1.104900
H321	H	-0.052883	-0.510542	0.591636
H322	H	0.447117	-0.010542	1.091636
H323	H	-0.071306	-0.528969	0.573267
H324	H	0.428694	-0.028969	1.073267
H325	H	-0.082780	-0.436451	0.547403
H326	H	0.417220	0.063549	1.047403
H327	H	-0.101214	-0.454871	0.529033
H328	H	0.398786	0.045129	1.029033
H329	H	0.049370	-0.382321	0.724071
H330	H	0.549370	0.117679	1.224071
C331	C	0.118470	-0.032400	0.550404
C332	C	0.618470	0.467600	1.050404
C333	C	0.080179	0.008292	0.539513
C334	C	0.580179	0.508292	1.039513
H335	H	0.124494	-0.032402	0.574510
H336	H	0.624494	0.467598	1.074510
H337	H	0.145964	-0.032387	0.522694
H338	H	0.645964	0.467613	1.022694
H339	H	0.110918	-0.060010	0.561401
H340	H	0.610918	0.439990	1.061401
H341	H	0.087733	0.035902	0.528512
H342	H	0.587733	0.535902	1.028512
H343	H	0.052680	0.008283	0.567228
H344	H	0.552680	0.508283	1.067228
H345	H	0.550674	-0.579628	0.556096
H346	H	1.050674	-0.079628	1.056096
H347	H	0.550485	-0.403881	0.468626
H348	H	1.050485	0.096119	0.968626
C349	C	0.047123	-0.677095	0.134114
C350	C	0.547123	-0.177095	0.634114
C351	C	0.018442	-0.652154	0.166487
C352	C	0.518442	-0.152154	0.666487
H353	H	0.055252	-0.710340	0.151037
H354	H	0.555252	-0.210340	0.651037
H355	H	0.075314	-0.668963	0.114724
H356	H	0.575314	-0.168963	0.614724
H357	H	0.030249	-0.668903	0.114629
H358	H	0.530249	-0.168903	0.614629
H359	H	0.035317	-0.660345	0.185970
H360	H	0.535317	-0.160345	0.685970
H361	H	-0.009754	-0.660290	0.185885
H362	H	0.490246	-0.160290	0.685885
C363	C	0.235970	-0.488190	0.749204
C364	C	0.735970	0.011810	1.249204
C365	C	0.211016	-0.459537	0.716838
C366	C	0.711016	0.040463	1.216838
H367	H	0.269210	-0.496343	0.732274
H368	H	0.769210	0.003657	1.232274
H369	H	0.227821	-0.516371	0.768639
H370	H	0.727821	-0.016371	1.268639
H371	H	0.227806	-0.471282	0.768644
H372	H	0.727806	0.028718	1.268644
H373	H	0.219177	-0.476446	0.697401
H374	H	0.719177	0.023554	1.197401
H375	H	0.219169	-0.431352	0.697395
H376	H	0.719169	0.068648	1.197395
H377	H	0.164941	0.008624	0.353583
H378	H	0.664941	0.508624	0.853583
C379	C	0.009421	-0.032482	0.360266
C380	C	0.509421	0.467518	0.860266
C381	C	0.020536	0.008232	0.344030
C382	C	0.520536	0.508232	0.844030
H383	H	0.003408	-0.032501	0.336164
H384	H	0.503408	0.467499	0.836164
H385	H	-0.018080	-0.032481	0.387969
H386	H	0.481920	0.467519	0.887969
H387	H	0.035400	-0.060077	0.367669
H388	H	0.535400	0.439923	0.867669
H389	H	-0.005445	0.035827	0.336631
H390	H	0.494555	0.535827	0.836631
H391	H	0.048040	0.008234	0.316319
H392	H	0.548040	0.508234	0.816319
C393	C	-0.006519	-0.367083	0.566490
C394	C	0.493481	0.132917	1.066490
C395	C	0.039995	-0.374133	0.559406
C396	C	0.539995	0.125867	1.059406
H397	H	-0.028485	-0.347645	0.585939
H398	H	0.471515	0.152355	1.085939
H399	H	-0.011291	-0.396952	0.581706
H400	H	0.488709	0.103048	1.081706
H401	H	-0.011328	-0.351864	0.536629
H402	H	0.488672	0.148136	1.036629
H403	H	0.044805	-0.389356	0.589266
H404	H	0.544805	0.110644	1.089266
H405	H	0.044769	-0.344258	0.544191
H406	H	0.544769	0.155742	1.044191
C407	C	-0.006905	-0.450567	0.549480
C408	C	0.493095	0.049433	1.049480
C409	C	0.005098	-0.409016	0.524567
C410	C	0.505098	0.090984	1.024567
H411	H	-0.040152	-0.442410	0.557666
H412	H	0.459848	0.057590	1.057666
H413	H	0.001290	-0.467474	0.577641
H414	H	0.501290	0.032526	1.077641
H415	H	0.010000	-0.469993	0.530024
H416	H	0.510000	0.030007	1.030024
H417	H	-0.011805	-0.389592	0.544024
H418	H	0.488195	0.110408	1.044024
H419	H	-0.003103	-0.392102	0.496402
H420	H	0.496897	0.107898	0.996402
H421	H	-0.064344	0.008241	0.529850
H422	H	0.435656	0.508241	1.029850
H423	H	0.166679	-0.486211	0.447227
H424	H	0.666679	0.013789	0.947227
H425	H	0.332881	-0.492283	0.542031
H426	H	0.832881	0.007717	1.042031
C427	C	0.235697	-0.488126	0.445214
C428	C	0.735697	0.011874	0.945214
C429	C	0.210797	-0.459485	0.473883
C430	C	0.710797	0.040515	0.973883
H431	H	0.268945	-0.496280	0.437018
H432	H	0.768945	0.003720	0.937018
H433	H	0.227492	-0.471214	0.417058
H434	H	0.727492	0.028786	0.917058
H435	H	0.227547	-0.516311	0.462126
H436	H	0.727547	-0.016311	0.962126
H437	H	0.218945	-0.431298	0.456970
H438	H	0.718945	0.068702	0.956970
H439	H	0.219007	-0.476397	0.502043
H440	H	0.719007	0.023603	1.002043
H441	H	0.423225	-0.376108	0.456057
H442	H	0.923225	0.123892	0.956057
C443	C	0.398005	-0.560847	0.538161
C444	C	0.898005	-0.060847	1.038161
C445	C	0.430383	-0.536250	0.513849
C446	C	0.930383	-0.036250	1.013849
H447	H	0.414925	-0.593839	0.542949
H448	H	0.914925	-0.093839	1.042949
H449	H	0.378549	-0.549162	0.519921
H450	H	0.878549	-0.049162	1.019921
H451	H	0.378589	-0.556228	0.568106
H452	H	0.878589	-0.056228	1.068106
H453	H	0.449797	-0.540867	0.483903
H454	H	0.949797	-0.040867	0.983903
H455	H	0.449847	-0.547939	0.532090
H456	H	0.949847	-0.047939	1.032090
H457	H	0.332825	-0.345993	0.486242
H458	H	0.832825	0.154007	0.986242
H459	H	0.129672	-0.118967	0.410356
H460	H	0.629672	0.381033	0.910356
C461	C	0.143049	-0.204430	0.402606
C462	C	0.643049	0.295570	0.902606
C463	C	0.168011	-0.216472	0.431227
C464	C	0.668011	0.283528	0.931227
H465	H	0.162475	-0.221333	0.380624
H466	H	0.662475	0.278667	0.880624
H467	H	0.134860	-0.171187	0.385715
H468	H	0.634860	0.328813	0.885715
H469	H	0.114885	-0.212612	0.422071
H470	H	0.614885	0.287388	0.922071
H471	H	0.196173	-0.208286	0.411763
H472	H	0.696173	0.291714	0.911763
H473	H	0.176206	-0.249722	0.448119
H474	H	0.676206	0.250278	0.948119
C475	C	0.072779	-0.123964	0.595866
C476	C	0.572779	0.376036	1.095866
C477	C	0.047815	-0.111918	0.567246
C478	C	0.547815	0.388082	1.067246
H479	H	0.053352	-0.107069	0.617855
H480	H	0.553352	0.392931	1.117855
H481	H	0.100938	-0.115780	0.576405
H482	H	0.600938	0.384220	1.076405
H483	H	0.080972	-0.157212	0.612754
H484	H	0.580972	0.342788	1.112754
H485	H	0.039625	-0.078670	0.550355
H486	H	0.539625	0.421330	1.050355
H487	H	0.019647	-0.120099	0.586709
H488	H	0.519647	0.379901	1.086709
C489	C	0.124321	-0.245139	0.614059
C490	C	0.624321	0.254861	1.114059
C491	C	0.082749	-0.216511	0.602076
C492	C	0.582749	0.283489	1.102076
H493	H	0.116194	-0.262044	0.647306
H494	H	0.616194	0.237956	1.147306
H495	H	0.141218	-0.225680	0.605849
H496	H	0.641218	0.274320	1.105849
H497	H	0.143742	-0.267114	0.597151
H498	H	0.643742	0.232886	1.097151
H499	H	0.063330	-0.194534	0.618980
H500	H	0.563330	0.305466	1.118980
H501	H	0.065845	-0.235972	0.610290
H502	H	0.565845	0.264028	1.110290
H503	H	-0.058738	-0.490513	0.159288
H504	H	0.441262	0.009487	0.659288
C505	C	-0.060586	-0.421534	0.094158
C506	C	0.439414	0.078466	0.594158
C507	C	-0.031895	-0.446474	0.061783
C508	C	0.468105	0.053526	0.561783
H509	H	-0.068728	-0.388289	0.077235
H510	H	0.431272	0.111711	0.577235
H511	H	-0.043718	-0.429716	0.113639
H512	H	0.456282	0.070284	0.613639
H513	H	-0.088774	-0.429680	0.113551
H514	H	0.411226	0.070320	0.613551
H515	H	-0.003705	-0.438331	0.042392
H516	H	0.496295	0.061669	0.542392
H517	H	-0.048763	-0.438289	0.042294
H518	H	0.451237	0.061711	0.542294
H519	H	0.045284	-0.608113	0.068976
H520	H	0.545284	-0.108113	0.568976
C521	C	-0.108682	-0.452589	0.349011
C522	C	0.391318	0.047411	0.849011
C523	C	-0.067139	-0.481271	0.324126
C524	C	0.432861	0.018729	0.824126
H525	H	-0.128087	-0.430599	0.329530
H526	H	0.371913	0.069401	0.829530
H527	H	-0.100522	-0.435705	0.357211
H528	H	0.399478	0.064295	0.857211
H529	H	-0.125616	-0.472012	0.377166
H530	H	0.374384	0.027988	0.877166
H531	H	-0.050203	-0.461847	0.295972
H532	H	0.449797	0.038153	0.795972
H533	H	-0.075299	-0.498156	0.315919
H534	H	0.424701	0.001844	0.815919
C535	C	-0.057301	-0.434384	0.400624
C536	C	0.442699	0.065616	0.900624
C537	C	-0.032325	-0.446455	0.359102
C538	C	0.467675	0.053545	0.859102
H539	H	-0.065450	-0.401137	0.392440
H540	H	0.434550	0.098863	0.892440
H541	H	-0.037906	-0.451302	0.420110
H542	H	0.462094	0.048698	0.920110
H543	H	-0.085490	-0.442521	0.417478
H544	H	0.414510	0.057479	0.917478
H545	H	-0.004134	-0.438321	0.342250
H546	H	0.495866	0.061679	0.842250
H547	H	-0.051720	-0.429532	0.339609
H548	H	0.448280	0.070468	0.839609
C549	C	0.094437	-0.646010	0.419797
C550	C	0.594437	-0.146010	0.919797
C551	C	0.052893	-0.617323	0.444676
C552	C	0.552893	-0.117323	0.944676
H553	H	0.113836	-0.668002	0.439284
H554	H	0.613836	-0.168002	0.939284
H555	H	0.111373	-0.626594	0.391646
H556	H	0.611373	-0.126594	0.891646
H557	H	0.086274	-0.662896	0.411597
H558	H	0.586274	-0.162896	0.911597
H559	H	0.061055	-0.600434	0.452874
H560	H	0.561055	-0.100434	0.952874
H561	H	0.035953	-0.636741	0.472837
H562	H	0.535953	-0.136741	0.972837
C563	C	0.001119	-0.672737	0.459249
C564	C	0.501119	-0.172737	0.959249
C565	C	0.018082	-0.652137	0.409691
C566	C	0.518082	-0.152137	0.909691
H567	H	0.009271	-0.705982	0.467421
H568	H	0.509271	-0.205982	0.967421
H569	H	-0.032499	-0.658709	0.470653
H570	H	0.467501	-0.158709	0.970653
H571	H	0.015088	-0.667495	0.473282
H572	H	0.515088	-0.167495	0.973282
H573	H	0.004110	-0.657376	0.395658
H574	H	0.504110	-0.157376	0.895658
H575	H	0.051706	-0.666169	0.398281
H576	H	0.551706	-0.166169	0.898281
C577	C	0.106237	-0.799476	0.332049
C578	C	0.606237	-0.299476	0.832049
C579	C	0.060080	-0.767042	0.334671
C580	C	0.560080	-0.267042	0.834671
H581	H	0.127971	-0.782597	0.316022
H582	H	0.627971	-0.282597	0.816022
H583	H	0.114588	-0.818913	0.315061
H584	H	0.614588	-0.318913	0.815061
H585	H	0.107454	-0.818909	0.363288
H586	H	0.607454	-0.318909	0.863288
H587	H	0.058861	-0.747612	0.303432
H588	H	0.558861	-0.247612	0.803432
H589	H	0.051726	-0.747597	0.351658
H590	H	0.551726	-0.247597	0.851658
H591	H	0.081021	-0.864532	0.371574
H592	H	0.581021	-0.364532	0.871574
H593	H	-0.065262	-0.864385	0.427124
H594	H	0.434738	-0.364385	0.927124
H595	H	-0.095331	-0.773979	0.396956
H596	H	0.404669	-0.273979	0.896956
H597	H	-0.231954	-0.601008	0.442726
H598	H	0.268046	-0.101008	0.942726
H599	H	-0.322352	-0.570775	0.472713
H600	H	0.177648	-0.070775	0.972713
H601	H	-0.231721	-0.527215	0.295000
H602	H	0.268279	-0.027215	0.795000
C603	C	-0.296754	-0.481810	0.269264
C604	C	0.203246	0.018190	0.769264
C605	C	-0.329203	-0.488823	0.315744
C606	C	0.170797	0.011177	0.815744
H607	H	-0.313619	-0.462356	0.247246
H608	H	0.186381	0.037644	0.747246
H609	H	-0.277328	-0.511688	0.264503
H610	H	0.222672	-0.011688	0.764503
H611	H	-0.277314	-0.466621	0.264520
H612	H	0.222686	0.033379	0.764520
H613	H	-0.348641	-0.504015	0.320489
H614	H	0.151359	-0.004015	0.820489
H615	H	-0.348637	-0.458938	0.320507
H616	H	0.151363	0.041062	0.820507
