data_functionalizedCrystal
_audit_creation_method	'MofGen! by Chris Wilmer'
_symmetry_space_group_name_H-M	'P1'
_symmetry_Int_Tables_number	1
_symmetry_cell_setting	triclinic
loop_
_symmetry_equiv_pos_as_xyz
  x,y,z
_cell_length_a	15.538191
_cell_length_b	10.654550
_cell_length_c	9.730223
_cell_angle_alpha	90.003749
_cell_angle_beta	90.002740
_cell_angle_gamma	114.121501
loop_
_atom_site_label
_atom_site_type_symbol
_atom_site_fract_x
_atom_site_fract_y
_atom_site_fract_z
O1	O	0.131911	-1.606168	-0.114384
O2	O	0.144479	-1.234815	-0.114360
O3	O	0.001538	-1.492779	-0.114383
O4	O	0.274853	-1.348204	-0.114361
O5	O	0.001542	-1.492775	0.114197
O6	O	0.144483	-1.234811	0.114220
O7	O	0.131915	-1.606165	0.114196
Zn8	Zn	0.138200	-1.420487	0.150500
Zn9	Zn	0.138195	-1.420492	-0.150664
O10	O	0.274856	-1.348201	0.114219
C11	C	0.143559	-1.188446	-0.000068
C12	C	0.140798	-1.050294	-0.000059
C13	C	-0.033457	-1.507903	-0.000099
C14	C	-0.137736	-1.552959	-0.000115
C15	C	0.132836	-1.652533	-0.000100
C16	C	0.135597	-1.790686	-0.000117
C17	C	-0.428451	-1.105338	-0.000057
C18	C	-0.526440	-1.147707	-0.000057
C19	C	-0.547326	-1.386021	-0.000073
C20	C	-0.449337	-1.343672	-0.000080
C21	C	-0.389906	-1.203329	-0.000071
C22	C	-0.410792	-1.441663	-0.000093
C23	C	-0.312812	-1.399317	-0.000093
C24	C	-0.253375	-1.258980	-0.000080
C25	C	-0.291926	-1.160983	-0.000070
C26	C	-0.470224	-1.582005	-0.000093
C27	C	-0.431680	-1.679996	-0.000106
C28	C	-0.333697	-1.637651	-0.000116
C29	C	-0.274261	-1.497314	-0.000102
C30	C	-0.295147	-1.735648	-0.000125
C31	C	-0.197166	-1.693302	-0.000125
C32	C	-0.176280	-1.454968	-0.000102
C33	C	0.309851	-1.333076	-0.000069
C34	C	0.414130	-1.288020	-0.000061
N35	N	0.138202	-1.420493	0.356036
C36	C	0.224959	-0.931464	-0.000072
C37	C	0.222359	-0.801659	-0.000096
C38	C	0.051429	-0.909528	-0.000100
C39	C	0.054030	-1.039331	-0.000066
C40	C	0.323644	-0.869186	-0.000077
C41	C	0.321045	-0.739380	-0.000100
N42	N	0.138185	-1.420500	-0.356201
C43	C	0.074930	-1.534731	0.427952
C44	C	0.074918	-1.534733	0.571835
C45	C	0.201461	-1.306251	0.571874
C46	C	0.201467	-1.306246	0.427993
C47	C	0.001874	-1.666646	0.427931
C48	C	0.001863	-1.666648	0.571814
H49	H	-0.127888	-1.340687	-0.000105
F50	F	-0.035546	-1.165796	-0.000025
F51	F	-0.149094	-1.213911	-0.000068
H52	H	-0.070315	-1.678950	0.388873
H53	H	0.355066	-0.890153	-0.098761
H54	H	0.017955	-1.755637	0.610860
F55	F	-0.040910	-0.897847	-0.000106
H56	H	-0.550006	-1.616479	-0.000105
F57	F	0.268787	-1.184667	0.648466
F58	F	0.374097	-0.883943	0.124963
H59	H	0.024749	-1.747137	0.383301
F60	F	0.360030	-0.661452	0.128885
H61	H	0.252980	-1.213218	0.369441
F62	F	-0.494939	-1.829355	-0.000106
H63	H	0.358226	-0.680267	-0.095765
H64	H	-0.243534	-1.046702	-0.000073
F65	F	-0.365195	-0.955968	-0.000061
F66	F	-0.567457	-1.043399	-0.000035
H67	H	-0.595727	-1.500288	-0.000075
F68	F	-0.156142	-1.797595	-0.000119
H69	H	-0.066356	-1.668026	0.616426
H70	H	-0.343549	-1.849915	-0.000119
