data_functionalizedCrystal
_audit_creation_method	'MofGen! by Chris Wilmer'
_symmetry_space_group_name_H-M	'P1'
_symmetry_Int_Tables_number	1
_symmetry_cell_setting	triclinic
loop_
_symmetry_equiv_pos_as_xyz
  x,y,z
_cell_length_a	21.295418
_cell_length_b	16.959454
_cell_length_c	16.959447
_cell_angle_alpha	89.973264
_cell_angle_beta	90.034641
_cell_angle_gamma	89.964110
loop_
_atom_site_label
_atom_site_type_symbol
_atom_site_fract_x
_atom_site_fract_y
_atom_site_fract_z
Zn1	Zn	0.962345	0.314332	0.447357
Zn2	Zn	0.962283	0.446525	0.315187
Zn3	Zn	0.857085	0.314401	0.315148
Zn4	Zn	0.857057	0.446509	0.447278
O5	O	0.909692	0.380442	0.381243
O6	O	1.050426	0.331846	0.429874
O7	O	0.948314	0.429033	0.204571
O8	O	0.871085	0.203781	0.332702
O9	O	1.050381	0.428967	0.332769
O10	O	0.948420	0.203730	0.429836
O11	O	0.871026	0.331962	0.204542
O12	O	0.768992	0.331947	0.332626
O13	O	0.871037	0.428940	0.557900
O14	O	0.768971	0.429007	0.429702
O15	O	0.948392	0.331831	0.557958
O16	O	0.948287	0.557133	0.332692
O17	O	0.870978	0.557122	0.429740
C18	C	0.746141	0.380483	0.381152
C19	C	0.676173	0.380520	0.381131
C20	C	0.909640	0.585808	0.381229
C21	C	0.909675	0.673664	0.381250
C22	C	0.909719	0.380376	0.587411
C23	C	0.909730	0.380348	0.675267
C24	C	0.643312	0.431126	0.431603
C25	C	0.577569	0.431106	0.431639
C26	C	0.544690	0.380489	0.381188
C27	C	0.577559	0.329874	0.330713
C28	C	0.643300	0.329889	0.330684
N29	N	0.441422	0.374319	0.312053
N30	N	0.378971	0.374309	0.312083
C31	C	0.346615	0.380439	0.381272
N32	N	0.379071	0.386595	0.450433
N33	N	0.441528	0.386609	0.450403
C34	C	0.473405	0.380467	0.381214
C35	C	0.242469	0.431026	0.431787
C36	C	0.176725	0.431001	0.431824
C37	C	0.176716	0.329773	0.330891
C38	C	0.242459	0.329794	0.330861
C39	C	0.275331	0.380425	0.381308
C40	C	1.073883	0.380400	0.381334
C41	C	1.143851	0.380383	0.381373
C42	C	0.909762	0.174273	0.381273
C43	C	0.909792	0.086417	0.381286
C44	C	0.869496	1.045164	0.431770
C45	C	0.950064	1.045116	0.330796
C46	C	0.950042	0.962570	0.330789
C47	C	0.909746	0.921317	0.381272
C48	C	0.869471	0.962611	0.431762
C49	C	0.990312	0.921271	0.280294
C50	C	0.990291	0.838720	0.280284
C51	C	0.949997	0.797466	0.330771
C52	C	0.909721	0.838764	0.381264
C53	C	0.869425	0.797511	0.431748
C54	C	0.829152	0.838808	0.482245
C55	C	0.829177	0.921356	0.482250
C56	C	0.949971	0.714917	0.330767
C57	C	0.869400	0.714958	0.431740
C58	C	0.909702	0.380450	0.175876
C59	C	0.909813	0.380255	0.088020
C60	C	0.869530	0.430825	1.046716
C61	C	0.950080	0.329704	1.046771
C62	C	0.950063	0.329721	0.964225
C63	C	0.909780	0.380292	0.922921
C64	C	0.869513	0.430845	0.964162
C65	C	0.990334	0.279174	0.922977
C66	C	0.990319	0.279189	0.840426
C67	C	0.950032	0.329756	0.799120
C68	C	0.909763	0.380312	0.840367
C69	C	0.869480	0.430882	0.799063
C70	C	0.829207	0.481434	0.840308
C71	C	0.829226	0.481413	0.922856
C72	C	0.950013	0.329778	0.716572
C73	C	0.869463	0.430902	0.716509
H74	H	0.550809	0.472315	0.472742
H75	H	0.550785	0.288659	0.289637
N76	N	0.676879	0.482847	0.483138
N77	N	0.647526	0.528027	0.528200
H78	H	0.671233	0.564555	0.564598
H79	H	0.836653	0.472076	0.682885
N80	N	0.788086	0.533030	0.964997
N81	N	0.748000	0.505203	1.011051
H82	H	0.718945	0.541655	1.040820
N83	N	0.676860	0.278186	0.279124
N84	N	0.647501	0.232988	0.234087
H85	H	0.671203	0.196472	0.197671
H86	H	0.269235	0.472249	0.472868
N87	N	1.031460	0.227552	0.798312
N88	N	1.067425	0.182407	0.835201
H89	H	1.096481	0.145936	0.805458
H90	H	0.836739	0.471981	1.080301
N91	N	0.276039	0.278118	0.279296
N92	N	0.334736	0.278141	0.279275
H93	H	0.358453	0.241642	0.242857
H94	H	0.982758	0.681297	0.289649
H95	H	1.023134	0.238007	0.956613
N96	N	0.143166	0.482695	0.483395
N97	N	0.172527	0.527892	0.528431
H98	H	0.148826	0.564401	0.564856
H99	H	0.836708	1.078791	0.472886
N100	N	0.143130	0.278064	0.279370
N101	N	0.084433	0.278051	0.279406
H102	H	0.060709	0.241526	0.243021
N103	N	0.991153	0.278147	0.674454
N104	N	1.027121	0.233004	0.711342
H105	H	1.056178	0.196536	0.681597
N106	N	0.828238	0.672834	0.483320
N107	N	0.792289	0.709717	0.528401
H108	H	0.763218	0.679969	0.564832
H109	H	0.796339	0.805210	0.523345
H110	H	0.796388	0.954987	0.523361
H111	H	0.982868	1.078709	0.289690
N112	N	1.031461	0.963420	0.228728
N113	N	1.031477	1.037124	0.228746
H114	H	1.060541	1.066896	0.192327
N115	N	1.031430	0.796553	0.228699
N116	N	1.067403	0.833396	0.183627
H117	H	1.096459	0.803615	0.147195
N118	N	0.788069	0.533091	0.798100
N119	N	0.788069	0.533102	0.724396
H120	H	0.759017	0.569584	0.694583
N121	N	0.991229	0.278064	1.088971
N122	N	0.991241	0.278059	1.162675
H123	H	1.020304	0.241586	1.192483
