data_functionalizedCrystal
_audit_creation_method	'MofGen! by Chris Wilmer'
_symmetry_space_group_name_H-M	'P1'
_symmetry_Int_Tables_number	1
_symmetry_cell_setting	triclinic
loop_
_symmetry_equiv_pos_as_xyz
  x,y,z
_cell_length_a	18.050591
_cell_length_b	19.121063
_cell_length_c	18.050583
_cell_angle_alpha	92.401387
_cell_angle_beta	89.977979
_cell_angle_gamma	92.465257
loop_
_atom_site_label
_atom_site_type_symbol
_atom_site_fract_x
_atom_site_fract_y
_atom_site_fract_z
Zn1	Zn	1.122689	-0.279636	-0.432625
Zn2	Zn	1.456022	0.053697	-0.099292
Zn3	Zn	1.789356	0.387031	0.234041
Zn4	Zn	1.117299	-0.397107	-0.313726
Zn5	Zn	1.450633	-0.063774	0.019607
Zn6	Zn	1.783966	0.269560	0.352941
Zn7	Zn	0.998504	-0.279667	-0.308438
Zn8	Zn	1.331838	0.053666	0.024895
Zn9	Zn	1.665171	0.387000	0.358229
Zn10	Zn	0.993161	-0.397042	-0.437858
Zn11	Zn	1.326495	-0.063708	-0.104525
Zn12	Zn	1.659828	0.269625	0.228808
O13	O	1.057914	-0.338363	-0.373162
O14	O	1.391247	-0.005030	-0.039829
O15	O	1.724580	0.328304	0.293505
O16	O	1.225898	-0.295233	-0.416876
O17	O	1.559231	0.038100	-0.083543
O18	O	1.892565	0.371434	0.249791
O19	O	1.101522	-0.381568	-0.209102
O20	O	1.434855	-0.048235	0.124232
O21	O	1.768188	0.285098	0.457565
O22	O	1.019470	-0.181379	-0.320508
O23	O	1.352803	0.151954	0.012825
O24	O	1.686136	0.485288	0.346158
O25	O	1.221938	-0.381538	-0.329521
O26	O	1.555272	-0.048205	0.003812
O27	O	1.888605	0.285128	0.337146
O28	O	1.110707	-0.181356	-0.411749
O29	O	1.444041	0.151977	-0.078415
O30	O	1.777374	0.485310	0.254918
O31	O	1.014243	-0.295286	-0.205216
O32	O	1.347577	0.038048	0.128117
O33	O	1.680910	0.371381	0.461450
O34	O	0.893872	-0.295223	-0.325583
O35	O	1.227205	0.038111	0.007751
O36	O	1.560538	0.371444	0.341084
O37	O	1.010363	-0.381427	-0.541087
O38	O	1.343696	-0.048094	-0.207754
O39	O	1.677029	0.285239	0.125580
O40	O	0.889946	-0.381457	-0.420668
O41	O	1.223279	-0.048124	-0.087334
O42	O	1.556613	0.285209	0.245999
O43	O	1.105526	-0.295170	-0.537242
O44	O	1.438860	0.038163	-0.203909
O45	O	1.772193	0.371497	0.129424
O46	O	1.096340	-0.495382	-0.334595
O47	O	1.429674	-0.162049	-0.001262
O48	O	1.763007	0.171285	0.332071
O49	O	1.005137	-0.495334	-0.425795
O50	O	1.338470	-0.162001	-0.092462
O51	O	1.671803	0.171333	0.240872
C52	C	0.864963	-0.338337	-0.373120
C53	C	1.198296	-0.005003	-0.039786
C54	C	1.531629	0.328330	0.293547
C55	C	0.782417	-0.338342	-0.373120
C56	C	1.115750	-0.005009	-0.039787
C57	C	1.449083	0.328324	0.293547
C58	C	0.585082	-0.291394	-0.321525
C59	C	0.918415	0.041940	0.011809
C60	C	1.251748	0.375273	0.345142
C61	C	0.532772	-0.355457	-0.306134
C62	C	0.866106	-0.022124	0.027200
C63	C	1.199439	0.311210	0.360533
C64	C	0.631285	-0.338364	-0.373154
C65	C	0.964619	-0.005030	-0.039821
C66	C	1.297952	0.328303	0.293512
C67	C	0.536512	-0.274323	-0.388544
C68	C	0.869845	0.059011	-0.055211
C69	C	1.203178	0.392344	0.278122
C70	C	0.485299	-0.338379	-0.373186
C71	C	0.818633	-0.005045	-0.039853
C72	C	1.151966	0.328288	0.293481
C73	C	0.580062	-0.402461	-0.357730
C74	C	0.913395	-0.069127	-0.024396
C75	C	1.246728	0.264206	0.308937
C76	C	0.583807	-0.321283	-0.440170
C77	C	0.917141	0.012050	-0.106837
C78	C	1.250474	0.345383	0.226497
C79	C	0.531518	-0.385391	-0.424807
C80	C	0.864852	-0.052058	-0.091473
C81	C	1.198185	0.281276	0.241860
C82	C	0.715384	-0.338354	-0.373134
C83	C	1.048717	-0.005021	-0.039801
C84	C	1.382051	0.328312	0.293532
C85	C	0.401202	-0.338395	-0.373207
C86	C	0.734535	-0.005062	-0.039873
C87	C	1.067869	0.328271	0.293460
C88	C	1.049594	-0.520842	-0.381353
C89	C	1.382927	-0.187509	-0.048020
C90	C	1.716261	0.145825	0.285314
C91	C	1.046103	-0.598907	-0.384882
C92	C	1.379436	-0.265574	-0.051549
C93	C	1.712770	0.067759	0.281784
C94	C	1.091985	-0.635584	-0.339097
C95	C	1.425318	-0.302251	-0.005763
C96	C	1.758651	0.031083	0.327570
C97	C	1.088706	-0.708935	-0.342420
C98	C	1.422039	-0.375601	-0.009087
C99	C	1.755372	-0.042268	0.324246
C100	C	1.039541	-0.745607	-0.391526
C101	C	1.372874	-0.412274	-0.058193
C102	C	1.706207	-0.078940	0.275141
C103	C	0.993657	-0.708925	-0.437316
C104	C	1.326990	-0.375592	-0.103983
C105	C	1.660324	-0.042258	0.229350
C106	C	0.996940	-0.635576	-0.433996
C107	C	1.330274	-0.302242	-0.100663
C108	C	1.663607	0.031091	0.232671
C109	C	1.027253	-0.967075	-0.403928
C110	C	1.360586	-0.633741	-0.070595
C111	C	1.693920	-0.300408	0.262739
C112	C	1.023972	-1.040429	-0.407243
C113	C	1.357305	-0.707096	-0.073910
C114	C	1.690638	-0.373762	0.259424
C115	C	1.119022	-1.040434	-0.312347
C116	C	1.452355	-0.707100	0.020986
C117	C	1.785688	-0.373767	0.354319
C118	C	1.122297	-0.967083	-0.309028
C119	C	1.455631	-0.633749	0.024305
C120	C	1.788964	-0.300416	0.357638
C121	C	1.076417	-0.930407	-0.354822
C122	C	1.409750	-0.597074	-0.021488
C123	C	1.743083	-0.263741	0.311845
C124	C	1.036186	-0.820583	-0.394923
C125	C	1.369519	-0.487250	-0.061589
C126	C	1.702853	-0.153917	0.271744
C127	C	1.079775	-0.855432	-0.351428
C128	C	1.413109	-0.522099	-0.018095
C129	C	1.746442	-0.188766	0.315238
C130	C	1.251618	-0.338390	-0.373205
C131	C	1.584951	-0.005056	-0.039871
C132	C	1.918285	0.328277	0.293462
C133	C	1.334163	-0.338401	-0.373223
C134	C	1.667496	-0.005068	-0.039890
C135	C	2.000830	0.328266	0.293444
C136	C	1.057950	-0.338288	-0.566864
C137	C	1.391283	-0.004955	-0.233531
C138	C	1.724616	0.328379	0.099802
C139	C	1.057965	-0.338256	-0.649409
C140	C	1.391298	-0.004923	-0.316075
C141	C	1.724632	0.328411	0.017258
C142	C	1.066286	-0.155171	-0.364955
C143	C	1.399619	0.178162	-0.031622
C144	C	1.732952	0.511495	0.301712
C145	C	1.069853	-0.077106	-0.361458
C146	C	1.403187	0.256227	-0.028124
C147	C	1.736520	0.589561	0.305209
C148	C	1.109766	-0.291327	-0.846768
C149	C	1.443099	0.042007	-0.513434
C150	C	1.776432	0.375340	-0.180101
C151	C	1.042808	-0.274132	-0.895381
C152	C	1.376141	0.059201	-0.562048
C153	C	1.709474	0.392534	-0.228714
C154	C	1.057995	-0.338244	-0.800538
C155	C	1.391329	-0.004911	-0.467205
C156	C	1.724662	0.328423	-0.133872
C157	C	1.124983	-0.355393	-0.899005
C158	C	1.458316	-0.022060	-0.565672
C159	C	1.791650	0.311273	-0.232338
C160	C	1.058031	-0.338231	-0.946523
C161	C	1.391364	-0.004898	-0.613190
C162	C	1.724697	0.328436	-0.279856
C163	C	0.991003	-0.321017	-0.848063
C164	C	1.324336	0.012317	-0.514730
C165	C	1.657670	0.345650	-0.181396
C166	C	1.073222	-0.402308	-0.851684
C167	C	1.406556	-0.068974	-0.518351
C168	C	1.739889	0.264359	-0.185017
C169	C	1.006217	-0.385138	-0.900276
C170	C	1.339550	-0.051804	-0.566943
C171	C	1.672883	0.281529	-0.233610
C172	C	1.057976	-0.338250	-0.716440
C173	C	1.391310	-0.004916	-0.383107
C174	C	1.724643	0.328417	-0.049774
C175	C	1.058042	-0.338225	-1.030619
C176	C	1.391376	-0.004892	-0.697286
C177	C	1.724709	0.328441	-0.363953
C178	C	1.057922	-0.338387	-0.180211
C179	C	1.391256	-0.005054	0.153122
C180	C	1.724589	0.328280	0.486456
C181	C	1.058060	-0.338221	-0.097658
C182	C	1.391393	-0.004888	0.235675
C183	C	1.724727	0.328446	0.569009
H184	H	1.132017	-0.605730	-0.299106
H185	H	1.465350	-0.272397	0.034227
H186	H	1.798683	0.060936	0.367560
H187	H	0.934354	-0.306443	-0.825801
H188	H	1.267687	0.026890	-0.492468
H189	H	1.601020	0.360223	-0.159135
H190	H	0.606217	-0.306806	-0.496812
H191	H	0.939550	0.026528	-0.163478
H192	H	1.272884	0.359861	0.169855
H193	H	0.953629	-0.738790	-0.477302
H194	H	1.286962	-0.405456	-0.143969
H195	H	1.620296	-0.072123	0.189364
H196	H	0.962403	-0.424809	-0.923566
H197	H	1.295736	-0.091476	-0.590233
H198	H	1.629069	0.241858	-0.256900
H199	H	0.510381	-0.369915	-0.249474
H200	H	0.843715	-0.036582	0.083859
H201	H	1.177048	0.296752	0.417193
H202	H	0.996154	-0.850450	-0.434903
H203	H	1.329488	-0.517117	-0.101570
H204	H	1.662821	-0.183783	0.231764
H205	H	1.153479	-0.251625	-0.823337
H206	H	1.486812	0.081708	-0.490004
H207	H	1.820145	0.415042	-0.156670
H208	H	1.126067	-0.738794	-0.305136
H209	H	1.459400	-0.405460	0.028197
H210	H	1.792733	-0.072127	0.361530
H211	H	1.029939	-0.219950	-0.914670
H212	H	1.363272	0.113384	-0.581337
H213	H	1.696606	0.446717	-0.248004
H214	H	1.086112	-0.456475	-0.832379
H215	H	1.419446	-0.123142	-0.499046
H216	H	1.752779	0.210191	-0.165713
H217	H	1.181618	-0.369903	-0.921357
H218	H	1.514952	-0.036569	-0.588024
H219	H	1.848285	0.296764	-0.254691
H220	H	0.508204	-0.425164	-0.468484
H221	H	0.841537	-0.091831	-0.135151
H222	H	1.174871	0.241503	0.198183
H223	H	0.608528	-0.251715	-0.277820
H224	H	0.941861	0.081618	0.055514
H225	H	1.275195	0.414951	0.388847
H226	H	1.162331	-0.937226	-0.269043
H227	H	1.495665	-0.603892	0.064291
H228	H	1.828998	-0.270559	0.397624
H229	H	0.517247	-0.220165	-0.401523
H230	H	0.850580	0.113169	-0.068190
H231	H	1.183914	0.446502	0.265144
H232	H	0.599196	-0.456642	-0.344663
H233	H	0.932530	-0.123309	-0.011330
H234	H	1.265863	0.210025	0.322004
H235	H	0.989894	-0.937219	-0.441213
H236	H	1.323227	-0.603886	-0.107880
H237	H	1.656560	-0.270552	0.225454
H238	H	0.983945	-1.070286	-0.447244
H239	H	1.317278	-0.736952	-0.113910
H240	H	1.650611	-0.403619	0.219423
H241	H	1.156376	-1.070303	-0.275066
H242	H	1.489710	-0.736969	0.058267
H243	H	1.823043	-0.403636	0.391600
H244	H	0.959580	-0.605714	-0.471280
H245	H	1.292913	-0.272381	-0.137947
H246	H	1.626246	0.060953	0.195386
H247	H	1.119808	-0.825572	-0.311449
H248	H	1.453142	-0.492238	0.021884
H249	H	1.786475	-0.158905	0.355218
