data_functionalizedCrystal
_audit_creation_method	'MofGen! by Chris Wilmer'
_symmetry_space_group_name_H-M	'P1'
_symmetry_Int_Tables_number	1
_symmetry_cell_setting	triclinic
loop_
_symmetry_equiv_pos_as_xyz
  x,y,z
_cell_length_a	14.044220
_cell_length_b	14.044190
_cell_length_c	12.996460
_cell_angle_alpha	89.989157
_cell_angle_beta	89.999501
_cell_angle_gamma	93.190328
loop_
_atom_site_label
_atom_site_type_symbol
_atom_site_fract_x
_atom_site_fract_y
_atom_site_fract_z
O1	O	1.277175	0.230170	-0.085478
O2	O	1.000504	0.221865	-0.085504
O3	O	1.134683	0.087681	-0.085471
O4	O	1.142996	0.364354	-0.085511
O5	O	1.134667	0.087672	0.085663
O6	O	1.000488	0.221855	0.085630
O7	O	1.277159	0.230161	0.085656
Cu8	Cu	1.138822	0.226007	0.101269
Cu9	Cu	1.138841	0.226018	-0.101117
O10	O	1.142980	0.364344	0.085623
C11	C	0.964874	0.218224	0.000060
C12	C	0.858731	0.207380	0.000052
C13	C	1.131039	0.052054	0.000099
C14	C	1.120191	-0.054089	0.000107
C15	C	0.664392	0.187553	0.000075
C16	C	0.613264	0.264468	0.000068
C17	C	0.505128	0.253436	0.000081
C18	C	0.772539	0.198583	0.000062
C19	C	1.177292	-0.299547	0.000071
C20	C	1.100375	-0.248422	0.000072
C21	C	1.111404	-0.140285	0.000091
C22	C	1.166265	-0.407694	0.000052
C23	C	1.312789	0.233801	0.000089
C24	C	1.418932	0.244646	0.000091
C25	C	1.146624	0.399971	0.000051
C26	C	1.157472	0.506114	0.000036
N27	N	1.138816	0.225999	0.243616
N28	N	1.138854	0.226019	-0.243464
C29	C	1.138840	0.226019	0.663430
C30	C	1.138830	0.226017	0.546625
C31	C	1.138828	0.226010	0.453527
C32	C	1.138818	0.226006	0.336714
H33	H	0.650706	0.338602	0.000052
H34	H	0.626954	0.113425	0.000091
O35	O	1.265657	-0.254735	0.000143
C36	C	1.257133	-0.155178	0.000135
H37	H	1.184562	-0.138234	0.032520
H38	H	1.264074	-0.127028	-0.081959
C39	C	1.425609	-0.128151	0.027501
C40	C	1.336479	-0.107340	0.067285
H41	H	1.474555	-0.098641	0.068918
H42	H	1.431353	-0.195224	0.027502
H43	H	1.431380	-0.104692	-0.040910
H44	H	1.330705	-0.130809	0.135689
H45	H	1.330736	-0.040269	0.067297
O46	O	1.012003	-0.293235	0.000105
C47	C	1.020519	-0.392793	0.000064
H48	H	1.093078	-0.409765	0.032462
H49	H	1.013598	-0.420887	-0.082042
C50	C	0.852033	-0.419823	0.027375
C51	C	0.941149	-0.440669	0.067175
H52	H	0.803073	-0.449357	0.068768
H53	H	0.846295	-0.352749	0.027399
H54	H	0.846280	-0.443236	-0.041046
H55	H	0.946906	-0.417246	0.135590
H56	H	0.946887	-0.507741	0.067164
