data_functionalizedCrystal
_audit_creation_method	'MofGen! by Chris Wilmer'
_symmetry_space_group_name_H-M	'P1'
_symmetry_Int_Tables_number	1
_symmetry_cell_setting	triclinic
loop_
_symmetry_equiv_pos_as_xyz
  x,y,z
_cell_length_a	12.594516
_cell_length_b	16.959455
_cell_length_c	16.959447
_cell_angle_alpha	90.014322
_cell_angle_beta	89.974854
_cell_angle_gamma	89.987000
loop_
_atom_site_label
_atom_site_type_symbol
_atom_site_fract_x
_atom_site_fract_y
_atom_site_fract_z
Zn1	Zn	-0.423808	-1.208406	-0.446937
Zn2	Zn	0.076192	-0.708406	0.053063
Zn3	Zn	-0.601815	-1.208338	-0.314770
Zn4	Zn	-0.101815	-0.708338	0.185230
Zn5	Zn	-0.423841	-1.076234	-0.314775
Zn6	Zn	0.076159	-0.576234	0.185225
Zn7	Zn	-0.601735	-1.076208	-0.446909
Zn8	Zn	-0.101735	-0.576208	0.053091
O9	O	-0.512800	-1.142297	-0.380848
O10	O	-0.012800	-0.642297	0.119152
O11	O	-0.447440	-1.319008	-0.429415
O12	O	0.052560	-0.819008	0.070585
O13	O	-0.578253	-1.190796	-0.204160
O14	O	-0.078253	-0.690796	0.295840
O15	O	-0.274891	-1.093807	-0.332320
O16	O	0.225109	-0.593807	0.167680
O17	O	-0.578221	-1.318958	-0.332313
O18	O	-0.078221	-0.818958	0.167687
O19	O	-0.274866	-1.190912	-0.429419
O20	O	0.225134	-0.690912	0.070581
O21	O	-0.447497	-1.093740	-0.204163
O22	O	0.052503	-0.593740	0.295837
O23	O	-0.447420	-0.965620	-0.332293
O24	O	0.052580	-0.465620	0.167707
O25	O	-0.578085	-1.093762	-0.557524
O26	O	-0.078085	-0.593762	-0.057524
O27	O	-0.578118	-0.965601	-0.429371
O28	O	-0.078118	-0.465601	0.070629
O29	O	-0.447363	-1.190887	-0.557544
O30	O	0.052637	-0.690887	-0.057544
O31	O	-0.750750	-1.190771	-0.332286
O32	O	-0.250750	-0.690771	0.167714
O33	O	-0.750692	-1.093696	-0.429367
O34	O	-0.250692	-0.593696	0.070633
C35	C	-0.512765	-0.936930	-0.380830
C36	C	-0.012765	-0.436930	0.119170
C37	C	-0.512775	-0.849074	-0.380841
C38	C	-0.012775	-0.349074	0.119159
C39	C	-0.789341	-1.142245	-0.380840
C40	C	-0.289341	-0.642245	0.119160
C41	C	-0.907646	-1.142295	-0.380863
C42	C	-0.407646	-0.642295	0.119137
C43	C	-0.512712	-1.142329	-0.587016
C44	C	-0.012712	-0.642329	-0.087016
C45	C	-0.512674	-1.142343	-0.674873
C46	C	-0.012674	-0.642343	-0.174873
C47	C	-0.976906	-1.089491	-0.433629
C48	C	-0.476906	-0.589491	0.066371
C49	C	-1.047768	-1.070239	-0.361503
C50	C	-0.547768	-0.570239	0.138497
C51	C	-1.047583	-1.161619	-0.453001
C52	C	-0.547583	-0.661619	0.046999
C53	C	-0.976950	-1.123005	-0.308699
C54	C	-0.476950	-0.623005	0.191301
C55	C	-0.976758	-1.214418	-0.400246
C56	C	-0.476758	-0.714418	0.099754
C57	C	-1.047589	-1.195194	-0.328071
C58	C	-0.547589	-0.695194	0.171929
C59	C	-0.235179	-1.142370	-0.380873
C60	C	0.264821	-0.642370	0.119127
C61	C	-0.116873	-1.142401	-0.380884
C62	C	0.383127	-0.642401	0.119116
C63	C	-0.512836	-1.348465	-0.380866
C64	C	-0.012836	-0.848465	0.119134
C65	C	-0.512851	-1.436321	-0.380874
C66	C	-0.012851	-0.936321	0.119126
C67	C	-0.444690	-0.477584	-0.330405
C68	C	0.055310	0.022416	0.169595
C69	C	-0.580998	-0.477613	-0.431336
C70	C	-0.080998	0.022387	0.068664
C71	C	-0.580982	-0.560158	-0.431332
C72	C	-0.080982	-0.060158	0.068668
C73	C	-0.512821	-0.601421	-0.380862
C74	C	-0.012821	-0.101421	0.119138
C75	C	-0.444674	-0.560137	-0.330396
C76	C	0.055326	-0.060137	0.169604
C77	C	-0.649135	-0.601448	-0.481790
C78	C	-0.149135	-0.101448	0.018210
C79	C	-0.649123	-0.683999	-0.481787
C80	C	-0.149123	-0.183999	0.018213
C81	C	-0.580955	-0.725263	-0.431320
C82	C	-0.080955	-0.225263	0.068680
C83	C	-0.512806	-0.683974	-0.380854
C84	C	-0.012806	-0.183974	0.119146
C85	C	-0.444644	-0.725237	-0.330384
C86	C	0.055356	-0.225237	0.169616
C87	C	-0.376488	-0.683949	-0.279920
C88	C	0.123512	-0.183949	0.220080
C89	C	-0.376507	-0.601401	-0.279930
C90	C	0.123493	-0.101401	0.220070
C91	C	-0.580937	-0.807811	-0.431311
C92	C	-0.080937	-0.307811	0.068689
C93	C	-0.444629	-0.807790	-0.330376
C94	C	0.055371	-0.307790	0.169624
C95	C	-0.580623	-1.091869	-1.046340
C96	C	-0.080623	-0.591869	-0.546340
C97	C	-0.444501	-1.193006	-1.046357
C98	C	0.055499	-0.693006	-0.546357
C99	C	-0.444523	-1.192985	-0.963811
C100	C	0.055477	-0.692985	-0.463811
C101	C	-0.512598	-1.142406	-0.922526
C102	C	-0.012598	-0.642406	-0.422526
C103	C	-0.580650	-1.091848	-0.963787
C104	C	-0.080650	-0.591848	-0.463787
C105	C	-0.376480	-1.243548	-0.922544
C106	C	0.123520	-0.743548	-0.422544
C107	C	-0.376501	-1.243530	-0.839993
C108	C	0.123499	-0.743530	-0.339993
C109	C	-0.444571	-1.192946	-0.798706
C110	C	0.055429	-0.692946	-0.298706
C111	C	-0.512625	-1.142385	-0.839972
C112	C	-0.012625	-0.642385	-0.339972
C113	C	-0.580699	-1.091806	-0.798687
C114	C	-0.080699	-0.591806	-0.298687
C115	C	-0.648749	-1.041241	-0.839952
C116	C	-0.148749	-0.541241	-0.339952
C117	C	-0.648720	-1.041265	-0.922500
C118	C	-0.148720	-0.541265	-0.422500
C119	C	-0.444600	-1.192922	-0.716158
C120	C	0.055400	-0.692922	-0.216158
C121	C	-0.580726	-1.091785	-0.716134
C122	C	-0.080726	-0.591785	-0.216134
C123	C	-0.512811	-1.142309	-0.175482
C124	C	-0.012811	-0.642309	0.324518
C125	C	-0.512548	-1.142448	-0.087625
C126	C	-0.012548	-0.642448	0.412375
H127	H	-0.945870	-1.044756	-0.478186
H128	H	-0.445870	-0.544756	0.021814
Br129	Br	-0.741068	-0.972650	-0.978506
Br130	Br	-0.241068	-0.472650	-0.478506
H131	H	-0.321019	-0.567778	-0.238845
H132	H	0.178981	-0.067778	0.261155
Br133	Br	-1.099305	-1.188787	-0.554666
Br134	Br	-0.599305	-0.688787	-0.054666
H135	H	-0.636024	-1.050698	-1.079942
H136	H	-0.136024	-0.550698	-0.579942
H137	H	-0.704619	-0.717608	-0.522877
H138	H	-0.204619	-0.217608	-0.022877
Br139	Br	-0.284149	-1.312151	-0.783998
Br140	Br	0.215851	-0.812151	-0.283998
Br141	Br	-0.673525	-0.421614	-0.499808
Br142	Br	-0.173525	0.078386	0.000192
Br143	Br	-0.924733	-1.315974	-0.427599
Br144	Br	-0.424733	-0.815974	0.072401
H145	H	-1.078983	-1.009295	-0.345126
H146	H	-0.578983	-0.509295	0.154874
Br147	Br	-0.352188	-0.421555	-0.261928
Br148	Br	0.147812	0.078445	0.238072
Br149	Br	-0.352129	-1.261654	-1.102387
Br150	Br	0.147871	-0.761654	-0.602387
Br151	Br	-0.741141	-0.972607	-0.783912
Br152	Br	-0.241141	-0.472607	-0.283912
H153	H	-0.946052	-1.106633	-0.247685
H154	H	-0.446052	-0.606633	0.252315
Br155	Br	-0.352265	-1.261548	-0.660159
Br156	Br	0.147735	-0.761548	-0.160159
Br157	Br	-1.098992	-1.269702	-0.253631
Br158	Br	-0.598992	-0.769702	0.246369
Br159	Br	-0.352110	-0.863783	-0.261884
Br160	Br	0.147890	-0.363783	0.238116
H161	H	-0.636152	-1.050590	-0.682525
H162	H	-0.136152	-0.550590	-0.182525
H163	H	-0.320996	-0.717556	-0.238824
H164	H	0.179004	-0.217556	0.261176
H165	H	-0.704636	-0.567846	-0.522874
H166	H	-0.204636	-0.067846	-0.022874
H167	H	-0.636432	-0.841424	-0.472394
H168	H	-0.136432	-0.341424	0.027606
Br169	Br	-0.284110	-1.312195	-0.978576
Br170	Br	0.215890	-0.812195	-0.478576
