data_functionalizedCrystal
_audit_creation_method	'MofGen! by Chris Wilmer'
_symmetry_space_group_name_H-M	'P1'
_symmetry_Int_Tables_number	1
_symmetry_cell_setting	triclinic
loop_
_symmetry_equiv_pos_as_xyz
  x,y,z
_cell_length_a	27.440280
_cell_length_b	14.395555
_cell_length_c	14.395555
_cell_angle_alpha	60.000749
_cell_angle_beta	90.004690
_cell_angle_gamma	60.000070
loop_
_atom_site_label
_atom_site_type_symbol
_atom_site_fract_x
_atom_site_fract_y
_atom_site_fract_z
Zr1	Zr	0.469518	1.016682	-0.121806
O2	O	0.391703	1.210488	-0.270151
O3	O	0.493370	0.822882	-0.076328
O4	O	0.493374	1.016670	-0.270124
O5	O	0.391698	1.016708	0.076512
O6	O	0.573577	1.016652	-0.270105
O7	O	0.391699	1.016701	-0.076355
O8	O	0.573570	0.670002	0.076560
O9	O	0.391705	1.363358	-0.270154
O10	O	0.563400	0.902579	-0.056921
O11	O	0.503545	0.902597	0.057148
O12	O	0.503550	1.130757	-0.171021
O13	O	0.443695	1.130775	-0.056953
Zr14	Zr	0.597431	1.016664	0.122030
Zr15	Zr	0.597432	1.016653	-0.121775
Zr16	Zr	0.469517	1.016693	0.122000
Zr17	Zr	0.469522	1.260491	-0.121810
Zr18	Zr	0.597427	0.772855	0.122034
O19	O	0.573579	1.210463	0.076552
O20	O	0.573580	1.210447	-0.270108
O21	O	0.391701	1.210504	0.076509
O22	O	0.675247	0.822857	0.270375
O23	O	0.675248	0.822842	-0.076285
O24	O	0.493369	0.822898	0.270332
O25	O	0.675251	1.016638	-0.076288
O26	O	0.573575	1.016676	0.270348
O27	O	0.493372	1.016694	0.270329
O28	O	0.675250	1.016645	0.076579
O29	O	0.493380	1.363335	-0.270129
O30	O	0.573569	0.670011	0.270353
O31	O	0.675244	0.669988	0.270378
O32	O	0.675245	0.669979	0.076585
O33	O	0.391704	1.363366	-0.076361
O34	O	0.493379	1.363344	-0.076336
O35	O	0.563399	0.902589	0.171246
O36	O	0.623254	0.902570	0.057177
O37	O	0.563404	1.130748	-0.056924
O38	O	0.503549	1.130767	0.057145
C39	C	0.533470	0.711705	0.000117
C40	C	0.533468	0.608201	0.000118
C41	C	0.500834	0.547619	0.062317
C42	C	0.477183	0.561876	-0.044963
C43	C	0.557105	0.409548	0.107366
C44	C	0.509784	0.623884	-0.107226
C45	C	0.589737	0.471494	0.045181
C46	C	0.566100	0.485798	-0.062163
C47	C	0.373473	1.016709	0.000074
C48	C	0.319170	1.016721	0.000061
C49	C	0.013714	0.897545	0.059703
C50	C	-0.037304	0.897537	0.059713
O51	O	-0.037123	0.796242	0.110401
N52	N	-0.094062	1.016643	0.000152
C53	C	-0.099801	1.135763	-0.059413
O54	O	-0.152763	1.237070	-0.110072
C55	C	-0.048783	1.135769	-0.059415
C56	C	0.007974	1.016656	0.000140
C57	C	0.070469	0.778441	0.119254
C58	C	0.121484	0.778449	0.119242
C59	C	0.115744	0.897560	0.059679
C60	C	0.058989	1.016663	0.000127
C61	C	-0.054523	1.254887	-0.118973
C62	C	-0.003499	1.254883	-0.118970
C63	C	0.053259	1.135770	-0.059415
C64	C	0.104264	1.135782	-0.059448
N65	N	0.161022	1.016677	0.000113
C66	C	0.166762	0.897566	0.059676
C67	C	-0.206940	1.135741	-0.059401
C68	C	-0.257957	1.135737	-0.059405
C69	C	-0.195457	0.897511	0.059722
C70	C	-0.144439	0.897517	0.059720
C71	C	-0.150182	1.016636	0.000160
C72	C	0.273894	0.897591	0.059645
C73	C	0.324911	0.897610	0.059624
C74	C	0.262406	1.135835	-0.059498
C75	C	0.211393	1.135817	-0.059482
C76	C	0.217142	1.016685	0.000098
O77	O	0.104128	1.237026	-0.110106
O78	O	0.219725	0.796276	0.110339
C79	C	0.693476	1.016637	0.000150
C80	C	0.747779	1.016625	0.000163
C81	C	0.533476	1.016659	-0.304852
C82	C	0.533476	1.016654	-0.408353
C83	C	0.533479	1.321641	0.000107
C84	C	0.533481	1.425144	0.000106
C85	C	0.566112	0.892242	-0.406729
C86	C	0.509833	0.954445	-0.499765
C87	C	0.589742	0.954456	-0.499746
C88	C	0.477163	1.078858	-0.500026
C89	C	0.557113	1.078852	-0.499992
C90	C	0.500800	1.141146	-0.593046
C91	C	0.533473	1.016687	0.305076
C92	C	0.533473	1.016691	0.408577
C93	C	0.693471	0.711669	0.000155
C94	C	0.747772	0.608153	0.000169
C95	C	0.533469	0.711718	0.305080
C96	C	0.533467	0.608220	0.408584
C97	C	0.693470	0.711683	0.305118
C98	C	0.747771	0.608172	0.408635
C99	C	0.373479	1.321663	-0.304894
C100	C	0.319179	1.425174	-0.408411
C101	C	0.373478	1.321677	0.000069
C102	C	0.319177	1.425192	0.000055
C103	C	0.533481	1.321627	-0.304856
C104	C	0.533483	1.425126	-0.408360
C105	C	0.742029	0.559546	-0.059392
C106	C	0.793046	0.462295	-0.059401
C107	C	0.849805	0.413648	0.000158
C108	C	0.855547	0.462265	0.059721
C109	C	0.804531	0.559520	0.059723
C110	C	0.804520	0.559552	0.397704
C111	C	0.855546	0.462306	0.494960
C112	C	0.849822	0.413675	0.603144
C113	C	0.793067	0.462304	0.614072
C114	C	0.742042	0.559555	0.516818
C115	C	0.262429	1.473805	-0.397480
C116	C	0.211403	1.571081	-0.494736
C117	C	0.217127	1.619718	-0.602920
C118	C	0.273882	1.571082	-0.613848
C119	C	0.324907	1.473815	-0.516594
C120	C	0.324920	1.473810	0.059606
C121	C	0.273903	1.571087	0.059588
C122	C	0.217144	1.619738	0.000025
C123	C	0.211402	1.571116	-0.059533
C124	C	0.262418	1.473848	-0.059521
C125	C	0.500829	0.547642	0.406962
C126	C	0.557109	0.409532	0.499996
C127	C	0.477202	0.561883	0.499982
C128	C	0.589780	0.471410	0.500254
C129	C	0.509832	0.623835	0.500225
C130	C	0.566146	0.485734	0.593276
H131	H	0.278583	0.800582	0.108162
H132	H	0.788360	0.422723	-0.107904
H133	H	0.489743	0.715451	-0.197972
H134	H	0.809192	0.599134	0.309624
H135	H	0.257734	1.434266	-0.108012
H136	H	0.695836	0.599128	0.525734
N137	N	0.602608	0.752896	-0.301068
H138	H	0.602662	0.753864	-0.231397
H139	H	0.644921	0.705473	-0.300915
N140	N	0.583618	1.148434	-0.498694
H141	H	0.619663	1.086012	-0.427875
H142	H	0.552894	1.226608	-0.499219
N143	N	0.280054	1.623537	-0.730534
H144	H	0.260277	1.721163	-0.773540
H145	H	0.260277	1.606527	-0.773439
H146	H	0.278589	1.610659	0.108092
H147	H	0.175574	1.698919	-0.682102
N148	N	-0.115733	1.383359	-0.183197
H149	H	-0.120519	1.435443	-0.266509
H150	H	-0.120462	1.435309	-0.151856
H151	H	0.257742	1.232812	-0.107997
H152	H	0.809215	0.599084	0.108231
H153	H	0.473274	0.574729	0.327197
N154	N	0.483323	0.745242	0.498921
H155	H	0.483880	0.814436	0.428872
H156	H	0.507542	0.722260	0.569201
H157	H	0.593696	0.458846	-0.114841
N158	N	0.652843	0.421859	0.499195
H159	H	0.663095	0.480290	0.498932
H160	H	0.656244	0.423015	0.428821
H161	H	0.167694	0.681455	0.167733
H162	H	0.489836	0.901871	-0.500701
N163	N	0.386129	0.769133	0.123852
H164	H	0.382019	0.693679	0.161587
H165	H	0.408665	0.763941	0.183719
N166	N	0.652772	0.884787	-0.500938
H167	H	0.652275	0.886055	-0.571727
H168	H	0.677352	0.790839	-0.431396
H169	H	0.371114	1.434220	-0.525507
H170	H	0.165182	1.610743	-0.108027
N171	N	0.386134	1.421349	0.123852
H172	H	0.382022	1.466926	0.161564
H173	H	0.408664	1.438265	0.069173
N174	N	0.414099	1.148463	-0.498972
H175	H	0.403849	1.226172	-0.498710
H176	H	0.410696	1.085732	-0.428599
H177	H	0.901754	0.422722	0.486042
N178	N	0.162121	1.724650	0.000018
H179	H	0.174377	1.748057	0.046787
H180	H	0.137585	1.690740	0.033881
N181	N	0.150195	1.623498	-0.482930
H182	H	0.118735	1.692500	-0.560949
H183	H	0.145473	1.663753	-0.439907
H184	H	0.257757	1.434211	-0.309400
N185	N	0.583601	0.288159	0.501242
H186	H	0.558919	0.310709	0.431752
H187	H	0.583767	0.218384	0.572080
H188	H	0.075153	0.681442	0.167764
N189	N	0.652751	0.422254	0.095705
H190	H	0.670572	0.342246	0.176767
H191	H	0.652258	0.493446	0.094561
N192	N	0.583584	0.288215	0.227520
H193	H	0.583755	0.218361	0.226595
H194	H	0.558872	0.310931	0.274351
N195	N	0.602753	0.449932	0.698765
H196	H	0.645232	0.415017	0.699524
H197	H	0.602225	0.380362	0.768493
H198	H	0.429620	0.599067	0.500885
N199	N	-0.083224	0.769047	0.123950
H200	H	-0.087336	0.693597	0.161677
H201	H	-0.060691	0.763852	0.183824
H202	H	0.429602	0.599070	-0.083089
N203	N	0.464236	0.583689	0.131895
H204	H	0.421733	0.618750	0.097703
H205	H	0.464846	0.653211	0.131989
H206	H	-0.304168	1.232731	-0.107916
N207	N	-0.189274	0.769042	0.123967
H208	H	-0.209048	0.763743	0.183893
H209	H	-0.145569	0.693653	0.161628
N210	N	-0.213138	1.264228	-0.123659
H211	H	-0.256836	1.339670	-0.161389
H212	H	-0.193335	1.269415	-0.183531
H213	H	0.891341	0.334455	0.000149
N214	N	0.786903	0.409828	0.730765
H215	H	0.764370	0.369470	0.739879
H216	H	0.764384	0.484072	0.739820
N217	N	-0.009694	1.383365	-0.183209
H218	H	-0.053392	1.458812	-0.220933
H219	H	0.010106	1.388561	-0.243087
N220	N	0.680815	0.612001	-0.123633
H221	H	0.684927	0.566443	-0.161364
H222	H	0.658286	0.709630	-0.183503
H223	H	0.473161	1.246434	-0.672682
N224	N	0.150174	1.264284	-0.123733
H225	H	0.154282	1.339740	-0.161472
H226	H	0.127650	1.269477	-0.069049
H227	H	0.901767	0.422642	0.108212
H228	H	0.891375	0.334487	0.682326
