data_functionalizedCrystal
_audit_creation_method	'MofGen! by Chris Wilmer'
_symmetry_space_group_name_H-M	'P1'
_symmetry_Int_Tables_number	1
_symmetry_cell_setting	triclinic
loop_
_symmetry_equiv_pos_as_xyz
  x,y,z
_cell_length_a	6.817900
_cell_length_b	9.109307
_cell_length_c	14.125465
_cell_angle_alpha	100.871692
_cell_angle_beta	100.398878
_cell_angle_gamma	111.764999
loop_
_atom_site_label
_atom_site_type_symbol
_atom_site_fract_x
_atom_site_fract_y
_atom_site_fract_z
V1	V	-4.044302	-0.223872	-0.318463
O2	O	-3.976621	0.012197	-0.293259
O3	O	-4.048462	-0.445285	-0.334695
O4	O	-3.979480	-0.219797	-0.448956
O5	O	-4.046081	-0.214852	-0.178206
V6	V	-4.523248	-0.195710	-0.299451
O7	O	-4.315602	-0.285648	-0.360168
O8	O	-4.702145	-0.133934	-0.257746
O9	O	-4.295881	0.025703	-0.283219
O10	O	-4.708325	-0.431779	-0.324655
O11	O	-4.638866	-0.204730	-0.439707
O12	O	-4.364863	-0.199785	-0.168957
C13	C	-3.906780	-0.499280	-0.334421
C14	C	-3.991358	-0.680284	-0.348562
C15	C	-3.818786	-0.211646	-0.480172
C16	C	-3.847417	-0.209779	-0.586972
C17	C	-3.899897	-0.206356	-0.782512
C18	C	-4.087020	-0.213223	-0.835401
C19	C	-4.116223	-0.211318	-0.944206
C20	C	-3.870687	-0.208260	-0.673697
C21	C	-4.100907	0.079690	-0.283490
C22	C	-3.995567	0.260692	-0.269356
C23	C	-4.188902	-0.207941	-0.137737
C24	C	-4.139506	-0.209800	-0.030935
H25	H	-4.052436	-0.768237	-0.427220
O26	O	-3.923108	-0.634484	-0.175512
C27	C	-4.012856	-0.551121	-0.022815
C28	C	-4.095217	-0.669926	-0.129081
H29	H	-4.151950	-0.579755	0.014763
H30	H	-3.955478	-0.418906	-0.027668
H31	H	-3.870092	-0.566821	0.023156
H32	H	-4.238040	-0.654373	-0.175112
H33	H	-4.152451	-0.802095	-0.124154
O34	O	-4.251809	-0.222033	-0.791803
C35	C	-4.372416	-0.231851	-0.642004
C36	C	-4.185642	-0.221894	-0.691263
H37	H	-4.318970	-0.231707	-0.560703
H38	H	-4.524922	-0.349969	-0.684355
H39	H	-4.411580	-0.121118	-0.644474
H40	H	-4.146284	-0.332542	-0.688804
H41	H	-4.033250	-0.103707	-0.648898
H42	H	-3.761641	-0.199048	-0.818947
