data_functionalizedCrystal
_audit_creation_method	'MofGen! by Chris Wilmer'
_symmetry_space_group_name_H-M	'P1'
_symmetry_Int_Tables_number	1
_symmetry_cell_setting	triclinic
loop_
_symmetry_equiv_pos_as_xyz
  x,y,z
_cell_length_a	14.395555
_cell_length_b	14.446369
_cell_length_c	14.446369
_cell_angle_alpha	59.999833
_cell_angle_beta	90.003477
_cell_angle_gamma	60.000723
loop_
_atom_site_label
_atom_site_type_symbol
_atom_site_fract_x
_atom_site_fract_y
_atom_site_fract_z
Zr1	Zr	0.894922	1.013197	-0.121473
O2	O	0.746592	1.206317	-0.269293
O3	O	0.940392	0.820077	-0.076153
O4	O	0.940392	1.013189	-0.269274
O5	O	0.746594	1.013211	0.076158
O6	O	1.093266	1.013182	-0.269265
O7	O	0.746592	1.013205	-0.076172
O8	O	1.093266	0.667741	0.076192
O9	O	0.746593	1.358653	-0.269300
O10	O	1.073874	0.899505	-0.056825
O11	O	0.959787	0.899514	0.056851
O12	O	0.959787	1.126878	-0.170524
O13	O	0.845700	1.126888	-0.056848
Zr14	Zr	1.138741	1.013195	0.121488
Zr15	Zr	1.138739	1.013186	-0.121461
Zr16	Zr	0.894925	1.013206	0.121475
Zr17	Zr	0.894924	1.256155	-0.121485
Zr18	Zr	1.138739	0.770237	0.121499
O19	O	1.093271	1.206315	0.076168
O20	O	1.093267	1.206301	-0.269274
O21	O	0.746595	1.206330	0.076149
O22	O	1.287072	0.820075	0.269308
O23	O	1.287068	0.820062	-0.076134
O24	O	0.940396	0.820091	0.269289
O25	O	1.287069	1.013181	-0.076143
O26	O	1.093272	1.013203	0.269288
O27	O	0.940398	1.013210	0.269280
O28	O	1.287071	1.013187	0.076187
O29	O	0.940395	1.358644	-0.269289
O30	O	1.093268	0.667748	0.269304
O31	O	1.287070	0.667739	0.269314
O32	O	1.287068	0.667732	0.076203
O33	O	0.746595	1.358660	-0.076188
O34	O	0.940397	1.358651	-0.076178
O35	O	1.073877	0.899513	0.170539
O36	O	1.187964	0.899504	0.056863
O37	O	1.073876	1.126878	-0.056836
O38	O	0.959789	1.126887	0.056840
C39	C	1.016829	0.709293	0.000021
C40	C	1.016828	0.606151	0.000026
C41	C	0.711854	1.013210	-0.000009
C42	C	0.608348	1.013214	-0.000014
C43	C	0.945218	0.459147	0.072050
C44	C	0.944829	0.566767	0.071759
C45	C	0.964336	0.655144	-0.123513
C46	C	0.963798	0.547912	-0.123139
C47	C	1.140981	0.372689	0.050478
C48	C	1.140798	0.478840	0.052998
C49	C	0.485553	1.137189	-0.061998
C50	C	0.454717	1.075210	-0.106911
C51	C	0.454761	1.075187	0.044891
C52	C	0.578875	0.951236	-0.044990
C53	C	0.578916	0.951230	0.106871
C54	C	0.548152	0.889162	0.061985
C55	C	1.321809	1.013182	0.000024
C56	C	1.425315	1.013178	0.000029
C57	C	1.016828	1.013184	-0.303885
C58	C	1.016827	1.013180	-0.407023
C59	C	1.016834	1.317099	-0.000007
C60	C	1.016835	1.420241	-0.000011
C61	C	1.088794	0.869761	-0.374592
C62	C	1.089184	0.869710	-0.481847
C63	C	1.068940	1.084847	-0.589815
C64	C	1.069480	1.083894	-0.482025
C65	C	0.892717	1.086006	-0.482992
C66	C	0.892909	1.083342	-0.588981
C67	C	1.016835	1.013208	0.303899
C68	C	1.016836	1.013212	0.407037
C69	C	1.321806	0.709279	0.000038
C70	C	1.425312	0.606132	0.000048
C71	C	1.016832	0.709304	0.303913
C72	C	1.016832	0.606166	0.407056
C73	C	1.321810	0.709291	0.303929
C74	C	1.425316	0.606148	0.407078
C75	C	0.711854	1.317101	-0.303915
C76	C	0.608347	1.420244	-0.407063
C77	C	0.711857	1.317113	-0.000023
C78	C	0.608351	1.420260	-0.000033
C79	C	1.016831	1.317088	-0.303898
C80	C	1.016831	1.420226	-0.407041
C81	C	1.644450	0.459812	0.071391
C82	C	1.536841	0.566739	0.071791
C83	C	1.428651	0.479275	0.052350
C84	C	1.536799	0.371893	0.052874
C85	C	1.535421	0.546866	-0.123686
C86	C	1.429079	0.655342	-0.123492
C87	C	0.944529	0.459854	0.482042
C88	C	0.944834	0.566776	0.374708
C89	C	1.140800	0.479306	0.481623
C90	C	1.140412	0.371930	0.588487
C91	C	0.966195	0.546910	0.590056
C92	C	0.963678	0.655382	0.481379
C93	C	1.500568	0.459811	0.625447
C94	C	1.392855	0.566755	0.518210
C95	C	1.500121	0.479295	0.410398
C96	C	1.607363	0.371897	0.518173
C97	C	1.608985	0.546841	0.516826
C98	C	1.499924	0.655335	0.410852
H99	H	0.980039	0.530059	0.162728
Br100	Br	1.003615	0.311041	0.224066
H101	H	1.180014	0.439241	0.144010
Br102	Br	0.793513	0.518654	0.014263
Br103	Br	0.667783	0.863997	-0.108465
Br104	Br	1.539485	0.715711	0.013229
H105	H	1.019018	1.190374	-0.668074
Br106	Br	0.668117	0.863976	0.257471
H107	H	1.013993	0.683925	-0.179525
H108	H	1.613130	0.586398	0.566853
H109	H	0.853256	0.655570	0.036756
H110	H	0.401199	1.127604	-0.197286
H111	H	0.460110	1.242020	-0.114496
Br112	Br	1.003388	0.504336	0.285054
H113	H	1.426511	0.440719	0.142516
H114	H	0.401256	1.127610	0.082850
Br115	Br	1.214055	0.216487	0.199794
H116	H	1.338865	0.529307	0.520653
H117	H	0.872350	0.745879	0.429950
H118	H	1.012592	0.525939	-0.179747
H119	H	0.853982	1.031101	-0.588327
H120	H	1.179804	0.814035	-0.319761
H121	H	1.054268	0.813531	-0.480104
H122	H	1.194591	0.346710	-0.001759
H123	H	0.872444	0.588612	-0.163557
H124	H	1.699630	0.370145	0.162094
H125	H	1.180962	0.281174	0.588219
H126	H	1.197223	0.341973	0.667072
Br127	Br	1.208867	0.415028	0.395619
H128	H	0.573809	0.784244	0.114408
Br129	Br	1.030911	0.775399	-0.284421
H130	H	1.180739	0.813785	-0.479555
Br131	Br	1.221678	1.000032	-0.398364
Br132	Br	1.496677	0.521855	0.715399
Br133	Br	0.813528	0.809001	-0.191346
H134	H	1.020417	1.189138	-0.508661
H135	H	1.159382	1.035698	-0.592113
H136	H	1.198654	0.500338	0.005973
Br137	Br	0.796168	1.257951	-0.720684
Br138	Br	1.619074	0.612828	-0.196500
H139	H	1.686223	0.341930	0.491525
Br140	Br	0.820101	1.008954	-0.399378
H141	H	0.979336	0.370186	0.481013
Br142	Br	1.540947	0.504308	0.223888
H143	H	0.838851	1.191657	-0.510413
Br144	Br	1.621017	0.220626	0.204596
H145	H	1.698597	0.497049	0.036489
H146	H	1.510051	0.341939	0.004247
Br147	Br	1.297742	0.516346	-0.030116
H148	H	1.429602	0.745830	-0.162563
H149	H	1.349641	0.687470	-0.181144
Br150	Br	0.792684	0.715707	0.284234
Br151	Br	0.791985	0.521930	0.478133
H152	H	1.197019	0.501552	0.508856
Br153	Br	0.816346	0.612872	0.596912
Br154	Br	1.042333	0.708944	0.523912
H155	H	1.018618	0.522120	0.668275
H156	H	1.507875	0.522075	-0.177112
Br157	Br	1.302089	0.715674	0.520905
H158	H	1.499520	0.370152	0.680421
Br159	Br	1.542621	0.708880	0.278924
H160	H	1.607080	0.281149	0.568508
H161	H	1.527455	0.501541	0.332138
H162	H	1.448318	0.440757	0.408251
H163	H	1.448346	0.745795	0.411413
H164	H	1.687479	0.522041	0.489387
