data_functionalizedCrystal
_audit_creation_method	'MofGen! by Chris Wilmer'
_symmetry_space_group_name_H-M	'P1'
_symmetry_Int_Tables_number	1
_symmetry_cell_setting	triclinic
loop_
_symmetry_equiv_pos_as_xyz
  x,y,z
_cell_length_a	12.759401
_cell_length_b	13.897448
_cell_length_c	12.759393
_cell_angle_alpha	89.968364
_cell_angle_beta	89.979541
_cell_angle_gamma	90.019217
loop_
_atom_site_label
_atom_site_type_symbol
_atom_site_fract_x
_atom_site_fract_y
_atom_site_fract_z
Zn1	Zn	1.606240	-0.383935	-0.594007
Zn2	Zn	1.606123	-0.545260	-0.418322
Zn3	Zn	1.430540	-0.383985	-0.418342
Zn4	Zn	1.430521	-0.545194	-0.593959
O5	O	1.518356	-0.464593	-0.506158
O6	O	1.753245	-0.405342	-0.570714
O7	O	1.582790	-0.523914	-0.271303
O8	O	1.453903	-0.248996	-0.441673
O9	O	1.753159	-0.523866	-0.441638
O10	O	1.582989	-0.248960	-0.570734
O11	O	1.453790	-0.405426	-0.271318
O12	O	1.283516	-0.405363	-0.441627
O13	O	1.453871	-0.523754	-0.740987
O14	O	1.283502	-0.523803	-0.570652
O15	O	1.582971	-0.405278	-0.741022
O16	O	1.582772	-0.680233	-0.441592
O17	O	1.453758	-0.680184	-0.570632
C18	C	1.245388	-0.464582	-0.506137
C19	C	1.128612	-0.464600	-0.506153
C20	C	1.073770	-0.526365	-0.573230
C21	C	0.964046	-0.526369	-0.573251
C22	C	0.964015	-0.402839	-0.439108
C23	C	1.073737	-0.402831	-0.439093
C24	C	1.518279	-0.715208	-0.506127
C25	C	1.518342	-0.822422	-0.506149
C26	C	1.518453	-1.018717	-0.506215
C27	C	1.518388	-0.909484	-0.506182
C28	C	1.792389	-0.464606	-0.506179
C29	C	1.909166	-0.464611	-0.506188
C30	C	1.518432	-0.464504	-0.780191
C31	C	1.518465	-0.464465	-0.896968
C32	C	1.518461	-0.213000	-0.506211
C33	C	1.518506	-0.105786	-0.506234
C34	C	1.585663	-0.526090	-1.061557
C35	C	1.585637	-0.526136	-0.951833
C36	C	1.451306	-0.402752	-0.951832
C37	C	1.451327	-0.402712	-1.061554
C38	C	1.518340	-0.464613	-0.233190
C39	C	1.518511	-0.464380	-0.116414
H40	H	0.919323	-0.352551	-0.384509
H41	H	1.118390	-0.352528	-0.384470
H42	H	1.640368	-0.576305	-1.106221
H43	H	1.118446	-0.576659	-0.627837
H44	H	1.640319	-0.576387	-0.907174
H45	H	1.396608	-0.352543	-0.907152
H46	H	0.919399	-0.576663	-0.627874
H47	H	1.396639	-0.352458	-1.106220
