data_functionalizedCrystal
_audit_creation_method	'MofGen! by Chris Wilmer'
_symmetry_space_group_name_H-M	'P1'
_symmetry_Int_Tables_number	1
_symmetry_cell_setting	triclinic
loop_
_symmetry_equiv_pos_as_xyz
  x,y,z
_cell_length_a	25.639239
_cell_length_b	16.120566
_cell_length_c	16.120297
_cell_angle_alpha	90.125018
_cell_angle_beta	87.131297
_cell_angle_gamma	92.865350
loop_
_atom_site_label
_atom_site_type_symbol
_atom_site_fract_x
_atom_site_fract_y
_atom_site_fract_z
Zn1	Zn	-0.264877	-1.247326	0.534603
Zn2	Zn	0.235123	-0.747326	1.034603
Zn3	Zn	-0.348108	-1.254242	0.395537
Zn4	Zn	0.151892	-0.754242	0.895537
Zn5	Zn	-0.256042	-1.115321	0.388515
Zn6	Zn	0.243958	-0.615321	0.888515
Zn7	Zn	-0.347628	-1.108199	0.527499
Zn8	Zn	0.152372	-0.608199	1.027499
O9	O	-0.304164	-1.181272	0.461539
O10	O	0.195836	-0.681272	0.961539
O11	O	-0.279816	-1.364608	0.522068
O12	O	0.220184	-0.864608	1.022068
O13	O	-0.332400	-1.241689	0.278241
O14	O	0.167600	-0.741689	0.778241
O15	O	-0.184053	-1.132918	0.407929
O16	O	0.315947	-0.632918	0.907929
O17	O	-0.340966	-1.369689	0.419897
O18	O	0.159034	-0.869689	0.919897
O19	O	-0.190544	-1.229902	0.515259
O20	O	0.309456	-0.729902	1.015259
O21	O	-0.264759	-1.139624	0.273082
O22	O	0.235241	-0.639624	0.773082
O23	O	-0.264293	-0.998012	0.401040
O24	O	0.235707	-0.498012	0.901040
O25	O	-0.340147	-1.120780	0.644806
O26	O	0.159853	-0.620780	1.144806
O27	O	-0.331580	-0.992780	0.503150
O28	O	0.168420	-0.492780	1.003150
O29	O	-0.279350	-1.222996	0.650026
O30	O	0.220650	-0.722996	1.150026
O31	O	-0.421206	-1.234784	0.413007
O32	O	0.078794	-0.734784	0.913007
O33	O	-0.420853	-1.127486	0.509959
O34	O	0.079147	-0.627486	1.009959
C35	C	-0.296926	-0.965224	0.450562
C36	C	0.203074	-0.465224	0.950562
C37	C	-0.293843	-0.872796	0.445886
C38	C	0.206157	-0.372796	0.945886
C39	C	-0.440001	-1.181134	0.461493
C40	C	0.059999	-0.681134	0.961493
C41	C	-0.498116	-1.181150	0.461506
C42	C	0.001884	-0.681150	0.961506
C43	C	-0.288202	-0.703570	0.437356
C44	C	0.211798	-0.203570	0.937356
C45	C	-0.320171	-0.659815	0.485727
C46	C	0.179829	-0.159815	0.985727
C47	C	-0.317032	-0.565652	0.480981
C48	C	0.182968	-0.065652	0.980981
C49	C	-0.291340	-0.797742	0.442101
C50	C	0.208660	-0.297742	0.942101
C51	C	-0.858662	-1.237276	0.411154
C52	C	-0.358662	-0.737276	0.911154
C53	C	-0.913268	-1.237308	0.411166
C54	C	-0.413268	-0.737308	0.911166
O55	O	-0.941655	-1.284885	0.368306
O56	O	-0.441655	-0.784885	0.868306
N57	N	-0.940409	-1.181416	0.461601
N58	N	-0.440409	-0.681416	0.961601
C59	C	-0.912943	-1.125494	0.512033
C60	C	-0.412943	-0.625494	1.012033
O61	O	-0.941043	-1.077957	0.554933
O62	O	-0.441043	-0.577957	1.054933
C63	C	-0.858338	-1.125467	0.512024
C64	C	-0.358338	-0.625467	1.012024
C65	C	-0.831199	-1.181357	0.461579
C66	C	-0.331199	-0.681357	0.961579
C67	C	-0.831523	-1.293162	0.360714
C68	C	-0.331523	-0.793162	0.860714
C69	C	-0.776921	-1.293129	0.360700
C70	C	-0.276921	-0.793129	0.860700
C71	C	-0.749458	-1.237210	0.411126
C72	C	-0.249458	-0.737210	0.911126
C73	C	-0.776597	-1.181324	0.461566
C74	C	-0.276597	-0.681324	0.961566
C75	C	-0.830873	-1.069550	0.562459
C76	C	-0.330873	-0.569550	1.062459
C77	C	-0.776265	-1.069528	0.562446
C78	C	-0.276265	-0.569528	1.062446
C79	C	-0.749126	-1.125418	0.512002
C80	C	-0.249126	-0.625418	1.012002
C81	C	-0.694532	-1.125372	0.511978
C82	C	-0.194532	-0.625372	1.011978
N83	N	-0.667391	-1.181264	0.461543
N84	N	-0.167391	-0.681264	0.961543
C85	C	-0.694854	-1.237183	0.411117
C86	C	-0.194854	-0.737183	0.911117
C87	C	-1.027616	-1.125556	0.512049
C88	C	-0.527616	-0.625556	1.012049
C89	C	-1.082219	-1.125578	0.512054
C90	C	-0.582219	-0.625578	1.012054
C91	C	-1.082540	-1.237393	0.411188
C92	C	-0.582540	-0.737393	0.911188
C93	C	-1.027936	-1.237366	0.411179
C94	C	-0.527936	-0.737366	0.911179
C95	C	-1.000474	-1.181448	0.461614
C96	C	-0.500474	-0.681448	0.961614
C97	C	-0.580185	-1.237109	0.411092
C98	C	-0.080185	-0.737109	0.911092
C99	C	-0.525578	-1.237069	0.411080
C100	C	-0.025578	-0.737069	0.911080
C101	C	-0.525262	-1.125257	0.511948
C102	C	-0.025262	-0.625257	1.011948
C103	C	-0.579864	-1.125294	0.511957
C104	C	-0.079864	-0.625294	1.011957
C105	C	-0.607325	-1.181227	0.461526
C106	C	-0.107325	-0.681227	0.961526
O107	O	-0.666111	-1.077821	0.554819
O108	O	-0.166111	-0.577821	1.054819
O109	O	-0.666747	-1.284720	0.368232
O110	O	-0.166747	-0.784720	0.868232
C111	C	-0.167798	-1.181432	0.461603
C112	C	0.332202	-0.681432	0.961603
C113	C	-0.109687	-1.181501	0.461631
C114	C	0.390313	-0.681501	0.961631
C115	C	-0.310680	-1.170322	0.678431
C116	C	0.189320	-0.670322	1.178431
C117	C	-0.313457	-1.165656	0.770858
C118	C	0.186543	-0.665656	1.270858
C119	C	-0.311431	-0.398165	0.472545
C120	C	0.188569	0.101835	0.972545
C121	C	-0.314531	-0.490594	0.477200
C122	C	0.185469	0.009406	0.977200
C123	C	-0.297637	-1.192227	0.245492
C124	C	0.202363	-0.692227	0.745492
C125	C	-0.294718	-1.197055	0.153074
C126	C	0.205282	-0.697055	0.653074
C127	C	-0.318514	-1.157106	0.940082
C128	C	0.181486	-0.657106	1.440082
C129	C	-0.289663	-1.205602	0.983855
C130	C	0.210337	-0.705602	1.483855
C131	C	-0.292476	-1.200845	1.078017
C132	C	0.207524	-0.700845	1.578017
C133	C	-0.315701	-1.161863	0.845911
C134	C	0.184299	-0.661863	1.345911
H135	H	-0.349896	-0.693075	0.530705
H136	H	0.150104	-0.193075	1.030705
C137	C	-0.248049	-0.658645	0.376593
C138	C	0.251951	-0.158645	0.876593
C139	C	-0.244933	-0.563115	0.371872
C140	C	0.255067	-0.063115	0.871872
C141	C	-0.204783	-0.518179	0.311106
C142	C	0.295217	-0.018179	0.811106
C143	C	-0.167749	-0.568774	0.255061
C144	C	0.332251	-0.068774	0.755061
C145	C	-0.170864	-0.664309	0.259781
C146	C	0.329136	-0.164309	0.759781
C147	C	-0.211014	-0.709245	0.320546
C148	C	0.288986	-0.209245	0.820546
H149	H	-0.272349	-0.525657	0.413361
H150	H	0.227651	-0.025657	0.913361
H151	H	-0.202477	-0.447457	0.307613
H152	H	0.297523	0.052543	0.807613
H153	H	-0.138027	-0.535509	0.210079
H154	H	0.361973	-0.035509	0.710079
H155	H	-0.143448	-0.701767	0.218292
H156	H	0.356552	-0.201767	0.718292
H157	H	-0.213320	-0.779967	0.324040
H158	H	0.286680	-0.279967	0.824040
H159	H	-0.503483	-1.282582	0.369999
H160	H	-0.003483	-0.782582	0.869999
H161	H	-0.602538	-1.282657	0.370028
H162	H	-0.102538	-0.782657	0.870028
H163	H	-0.262848	-1.250692	0.950613
H164	H	0.237152	-0.750692	1.450613
H165	H	-0.754828	-1.338642	0.319627
H166	H	-0.254828	-0.838642	0.819627
H167	H	-0.345326	-1.112020	0.973322
H168	H	0.154674	-0.612020	1.473322
H169	H	-0.853878	-1.338703	0.319651
H170	H	-0.353878	-0.838703	0.819651
H171	H	-1.005843	-1.282877	0.370104
H172	H	-0.505843	-0.782877	0.870104
C173	C	-1.112757	-1.298912	0.355723
C174	C	-0.612757	-0.798912	0.855723
C175	C	-1.172820	-1.298941	0.355745
C176	C	-0.672820	-0.798941	0.855745
C177	C	-1.203038	-1.360455	0.300283
C178	C	-0.703038	-0.860455	0.800283
C179	C	-1.173192	-1.421940	0.244800
C180	C	-0.673192	-0.921940	0.744800
C181	C	-1.113126	-1.421913	0.244776
C182	C	-0.613126	-0.921913	0.744776
C183	C	-1.082908	-1.360399	0.300238
C184	C	-0.582908	-0.860399	0.800238
H185	H	-1.194916	-1.253424	0.396819
H186	H	-0.694916	-0.753424	0.896819
H187	H	-1.247503	-1.360474	0.300301
H188	H	-0.747503	-0.860474	0.800301
H189	H	-1.195561	-1.467476	0.203743
H190	H	-0.695561	-0.967476	0.703743
H191	H	-1.091029	-1.467430	0.203702
H192	H	-0.591029	-0.967430	0.703702
H193	H	-1.038443	-1.360380	0.300220
H194	H	-0.538443	-0.860380	0.800220
H195	H	-0.601962	-1.079786	0.553036
H196	H	-0.101962	-0.579786	1.053036
H197	H	-1.104311	-1.080060	0.553122
H198	H	-0.604311	-0.580060	1.053122
H199	H	-0.753908	-1.023993	0.603519
H200	H	-0.253908	-0.523993	1.103519
C201	C	-0.997410	-1.064031	0.567521
C202	C	-0.497410	-0.564031	1.067521
C203	C	-1.001616	-0.969858	0.555850
C204	C	-0.501616	-0.469858	1.055850
C205	C	-0.971414	-0.908335	0.611323
C206	C	-0.471414	-0.408335	1.111323
C207	C	-0.937006	-0.940985	0.678467
C208	C	-0.437006	-0.440985	1.178467
C209	C	-0.932798	-1.035163	0.690142
C210	C	-0.432798	-0.535163	1.190142
C211	C	-0.963000	-1.096686	0.634669
C212	C	-0.463000	-0.596686	1.134669
H213	H	-1.027089	-0.945684	0.506142
H214	H	-0.527089	-0.445684	1.006142
H215	H	-0.974530	-0.838618	0.602680
H216	H	-0.474530	-0.338618	1.102680
H217	H	-0.914648	-0.895442	0.719532
H218	H	-0.414648	-0.395442	1.219532
H219	H	-0.907325	-1.059337	0.739849
H220	H	-0.407325	-0.559337	1.239849
H221	H	-0.959885	-1.166403	0.643312
H222	H	-0.459885	-0.666403	1.143312
C223	C	-0.495044	-1.063749	0.567414
C224	C	0.004956	-0.563749	1.067414
C225	C	-0.499238	-0.969572	0.555757
C226	C	0.000762	-0.469572	1.055757
C227	C	-0.469019	-0.908067	0.611226
C228	C	0.030981	-0.408067	1.111226
C229	C	-0.434605	-0.940741	0.678352
C230	C	0.065395	-0.440741	1.178352
C231	C	-0.430410	-1.034924	0.690012
C232	C	0.069590	-0.534924	1.190012
C233	C	-0.460630	-1.096428	0.634543
C234	C	0.039370	-0.596428	1.134543
H235	H	-0.524714	-0.945380	0.506063
H236	H	-0.024714	-0.445380	1.006063
H237	H	-0.472124	-0.838347	0.602595
H238	H	0.027876	-0.338347	1.102595
H239	H	-0.412235	-0.895212	0.719414
H240	H	0.087765	-0.395212	1.219414
H241	H	-0.404934	-1.059115	0.739706
H242	H	0.095066	-0.559115	1.239706
H243	H	-0.457524	-1.166148	0.643174
H244	H	0.042476	-0.666148	1.143174
H245	H	-0.852960	-1.024034	0.603532
H246	H	-0.352960	-0.524034	1.103532
