data_functionalizedCrystal
_audit_creation_method	'MofGen! by Chris Wilmer'
_symmetry_space_group_name_H-M	'P1'
_symmetry_Int_Tables_number	1
_symmetry_cell_setting	triclinic
loop_
_symmetry_equiv_pos_as_xyz
  x,y,z
_cell_length_a	15.944557
_cell_length_b	15.021413
_cell_length_c	10.654541
_cell_angle_alpha	90.004284
_cell_angle_beta	83.992649
_cell_angle_gamma	89.994532
loop_
_atom_site_label
_atom_site_type_symbol
_atom_site_fract_x
_atom_site_fract_y
_atom_site_fract_z
O1	O	-1.115462	0.073993	-0.161988
O2	O	-0.871029	0.074003	-0.181949
O3	O	-0.998866	0.073993	0.010844
O4	O	-0.987624	0.074004	-0.354781
O5	O	-0.998846	-0.074071	0.010816
O6	O	-0.871008	-0.074061	-0.181976
O7	O	-1.115442	-0.074071	-0.162016
Zn8	Zn	-0.993222	-0.097574	-0.172000
Zn9	Zn	-0.993249	0.097507	-0.171964
O10	O	-0.987604	-0.074060	-0.354808
C11	C	-0.839720	-0.000027	-0.181132
C12	C	-0.746460	-0.000024	-0.178644
C13	C	-0.475095	-0.000042	-0.051702
C14	C	-0.526020	-0.073044	-0.112911
C15	C	-0.410767	-0.000045	-0.169769
C16	C	-0.526021	0.072935	-0.112916
C17	C	-0.575704	-0.000033	-0.174123
C18	C	-0.460463	-0.073108	-0.230947
C19	C	-0.460461	0.072937	-0.230934
C20	C	-0.511353	-0.000083	-0.292230
C21	C	-0.315750	-0.000053	-0.167257
C22	C	-0.670718	-0.000032	-0.176644
N23	N	-0.993210	-0.230712	-0.172024
C24	C	-0.934088	-0.470390	-0.261130
C25	C	-1.010129	-0.529727	-0.285513
C26	C	-0.993231	-0.412319	-0.171993
C27	C	-0.917211	-0.529724	-0.147638
C28	C	-0.993245	-0.587743	-0.171966
C29	C	-1.069311	-0.470349	-0.196433
C30	C	-0.976342	-0.470341	-0.058508
C31	C	-1.052438	-0.529651	-0.082843
C32	C	-0.993222	-0.311261	-0.172012
C33	C	-0.993263	-0.688798	-0.171946
C34	C	-0.146752	-0.000042	-0.162815
C35	C	-0.240016	-0.000053	-0.165252
C36	C	-0.998031	-0.000039	0.057617
C37	C	-0.995563	-0.000037	0.197029
N38	N	-0.993267	0.230644	-0.171930
C39	C	-0.988439	-0.000027	-0.401582
C40	C	-0.990908	-0.000022	-0.540993
C41	C	-1.148428	-0.000055	0.226972
C42	C	-1.223697	-0.000065	0.307438
C43	C	-1.221372	-0.000062	0.438426
C44	C	-1.143770	-0.000046	0.488950
C45	C	-1.068501	-0.000036	0.408484
C46	C	-1.070834	-0.000041	0.277495
C47	C	-0.915638	-0.000012	0.378541
C48	C	-0.917961	-0.000021	0.247553
C49	C	-0.838036	0.000004	0.429065
C50	C	-0.762765	0.000008	0.348599
C51	C	-0.765093	0.000005	0.217604
C52	C	-0.842692	-0.000011	0.167087
H53	H	-0.431811	0.134661	-0.280742
H54	H	-0.852916	-0.555807	-0.127051
C55	C	-1.029448	-0.564973	-0.415135
H56	H	-1.079467	-0.599750	-0.405189
H57	H	-0.983790	-0.600673	-0.450554
H58	H	-1.037020	-0.516230	-0.469630
H59	H	-1.133620	-0.444378	-0.217135
C60	C	-0.845251	-0.000015	0.023005
H61	H	-0.789311	-0.000011	-0.017685
H62	H	-0.874022	0.051612	-0.001091
H63	H	-0.873992	-0.051661	-0.001101
H64	H	-0.884124	-0.444370	-0.336571
C65	C	-0.453144	-0.000141	0.085658
H66	H	-0.475701	-0.052079	0.127412
H67	H	-0.476569	0.051193	0.128013
H68	H	-0.393610	0.000382	0.086285
C69	C	-1.120081	-0.564591	0.019005
H70	H	-1.174032	-0.544151	0.001502
H71	H	-1.108538	-0.543358	0.099404
H72	H	-1.119415	-0.627831	0.018918
H73	H	-0.431934	-0.134894	-0.280784
H74	H	-0.554654	-0.134766	-0.063059
H75	H	-1.150328	-0.000069	0.120317
C76	C	-0.677415	0.000025	0.404177
H77	H	-0.686811	0.000025	0.493712
H78	H	-0.646399	0.051659	0.376559
H79	H	-0.646383	-0.051614	0.376564
H80	H	-0.527433	-0.000123	-0.393995
H81	H	-0.554658	0.134651	-0.063021
C82	C	-1.141210	-0.000027	0.633032
H83	H	-1.084216	-0.000010	0.651598
H84	H	-1.168903	-0.051658	0.668205
H85	H	-1.168921	0.051615	0.668181
C86	C	-0.956995	-0.435064	0.071077
H87	H	-0.902927	-0.455356	0.088245
H88	H	-0.998460	-0.456235	0.134573
H89	H	-0.957642	-0.371827	0.070346
C90	C	-1.309053	-0.000087	0.251860
H91	H	-1.299661	-0.000096	0.162324
H92	H	-1.340091	0.051540	0.279482
H93	H	-1.340059	-0.051733	0.279474
H94	H	-1.282663	-0.000064	0.503942
H95	H	-0.836149	0.000012	0.535723
H96	H	-0.703799	0.000017	0.152094
