data_functionalizedCrystal
_audit_creation_method	'MofGen! by Chris Wilmer'
_symmetry_space_group_name_H-M	'P1'
_symmetry_Int_Tables_number	1
_symmetry_cell_setting	triclinic
loop_
_symmetry_equiv_pos_as_xyz
  x,y,z
_cell_length_a	10.686220
_cell_length_b	12.759400
_cell_length_c	10.686551
_cell_angle_alpha	85.594162
_cell_angle_beta	90.308082
_cell_angle_gamma	94.396325
loop_
_atom_site_label
_atom_site_type_symbol
_atom_site_fract_x
_atom_site_fract_y
_atom_site_fract_z
Zn1	Zn	1.972289	-0.256138	-0.562385
Zn2	Zn	1.956061	-0.446298	-0.352626
Zn3	Zn	1.746408	-0.283014	-0.368703
Zn4	Zn	1.762491	-0.444169	-0.578404
O5	O	1.859312	-0.357405	-0.465529
O6	O	2.145678	-0.271007	-0.521128
O7	O	1.914727	-0.436777	-0.179213
O8	O	1.776432	-0.132422	-0.394419
O9	O	2.133755	-0.410716	-0.367019
O10	O	1.942386	-0.112677	-0.536717
O11	O	1.760696	-0.316813	-0.191024
O12	O	1.572999	-0.314748	-0.409952
O13	O	1.803844	-0.407088	-0.751824
O14	O	1.584816	-0.433148	-0.564018
O15	O	1.957981	-0.268942	-0.740056
O16	O	1.930323	-0.593042	-0.382552
O17	O	1.788108	-0.591478	-0.548429
C18	C	1.533391	-0.376634	-0.490468
C19	C	1.393964	-0.384884	-0.501167
C20	C	1.859236	-0.630378	-0.465509
C21	C	1.859321	-0.747148	-0.465533
C22	C	1.933468	-0.802778	-0.379243
C23	C	1.933548	-0.912495	-0.379275
C24	C	1.785323	-0.910942	-0.551894
C25	C	1.785251	-0.801226	-0.551866
C26	C	2.007538	-0.748700	-0.292910
C27	C	2.081690	-0.804330	-0.206611
C28	C	2.081770	-0.914047	-0.206644
C29	C	2.007698	-0.968133	-0.292976
C30	C	2.186505	-0.338101	-0.440494
C31	C	2.325936	-0.329875	-0.429825
C32	C	1.884517	-0.334779	-0.792730
C33	C	1.895257	-0.325138	-0.932163
C34	C	1.859425	-0.083361	-0.465575
C35	C	1.859473	0.033420	-0.465594
C36	C	1.834278	-0.379862	-0.139596
C37	C	1.823780	-0.389193	-0.000145
H38	H	1.374361	-0.276469	-0.360559
Cl39	Cl	2.007820	-0.610726	-0.293187
Cl40	Cl	2.002442	-0.229078	-1.006993
H41	H	1.345532	-0.438301	-0.570429
Cl42	Cl	1.716615	-0.485259	-0.925318
Cl43	Cl	2.174816	-0.736337	-0.098098
H44	H	2.007780	-1.057471	-0.293004
Cl45	Cl	2.174999	-0.983979	-0.098167
H46	H	1.725016	-0.954988	-0.622180
H47	H	1.724875	-0.755932	-0.622133
