data_functionalizedCrystal
_audit_creation_method	'MofGen! by Chris Wilmer'
_symmetry_space_group_name_H-M	'P1'
_symmetry_Int_Tables_number	1
_symmetry_cell_setting	triclinic
loop_
_symmetry_equiv_pos_as_xyz
  x,y,z
_cell_length_a	16.176319
_cell_length_b	10.540558
_cell_length_c	17.699083
_cell_angle_alpha	96.091925
_cell_angle_beta	90.014116
_cell_angle_gamma	90.003101
loop_
_atom_site_label
_atom_site_type_symbol
_atom_site_fract_x
_atom_site_fract_y
_atom_site_fract_z
O1	O	0.068724	-1.683908	0.106737
O2	O	0.568724	-1.183908	0.606737
O3	O	0.068731	-1.314315	0.116772
O4	O	0.568731	-0.814315	0.616772
O5	O	0.068720	-1.509553	0.001634
O6	O	0.568720	-1.009553	0.501634
O7	O	0.068735	-1.488669	0.221875
O8	O	0.568735	-0.988669	0.721875
O9	O	-0.068773	-1.509563	0.001610
O10	O	0.431227	-1.009563	0.501610
O11	O	-0.068762	-1.314325	0.116748
O12	O	0.431238	-0.814325	0.616748
O13	O	-0.068769	-1.683918	0.106713
O14	O	0.431231	-1.183918	0.606713
Cu15	Cu	-0.081320	-1.499122	0.111728
Cu16	Cu	0.418680	-0.999122	0.611728
Cu17	Cu	0.081282	-1.499110	0.111757
Cu18	Cu	0.581282	-0.999110	0.611757
O19	O	-0.068758	-1.488679	0.221851
O20	O	0.431242	-0.988679	0.721851
C21	C	-0.000015	-1.267031	0.116004
C22	C	0.499985	-0.767031	0.616004
C23	C	-0.000012	-1.126125	0.113744
C24	C	0.499988	-0.626125	0.613744
C25	C	-0.000341	-0.944280	0.027338
C26	C	0.499659	-0.444280	0.527338
C27	C	-0.000021	-1.090855	0.029629
C28	C	0.499979	-0.590855	0.529629
C29	C	0.078502	-1.063707	0.154234
C30	C	0.578502	-0.563707	0.654234
C31	C	0.078558	-0.917216	0.151357
C32	C	0.578558	-0.417216	0.651357
C33	C	-0.077797	-0.916708	0.153041
C34	C	0.422203	-0.416708	0.653041
C35	C	-0.078825	-1.063675	0.153822
C36	C	0.421175	-0.563675	0.653822
N37	N	-0.195685	-1.499140	0.111708
N38	N	0.304315	-0.999140	0.611708
N39	N	0.195647	-1.499103	0.111771
N40	N	0.695647	-0.999103	0.611771
C41	C	0.238903	-1.422431	0.065323
C42	C	0.738903	-0.922431	0.565323
C43	C	0.325450	-1.422440	0.065310
C44	C	0.825450	-0.922440	0.565310
C45	C	0.368740	-1.499115	0.111751
C46	C	0.868740	-0.999115	0.611751
C47	C	0.325478	-1.575796	0.158201
C48	C	0.825478	-1.075796	0.658201
C49	C	0.238932	-1.575793	0.158209
C50	C	0.738932	-1.075793	0.658209
C51	C	0.674506	-1.575811	0.158171
C52	C	1.174506	-1.075811	0.658171
C53	C	0.761058	-1.575806	0.158161
C54	C	1.261058	-1.075806	0.658161
C55	C	0.761024	-1.422459	0.065272
C56	C	1.261024	-0.922459	0.565272
C57	C	0.674478	-1.422456	0.065280
C58	C	1.174478	-0.922456	0.565280
C59	C	0.631224	-1.499141	0.111727
C60	C	1.131224	-0.999141	0.611727
C61	C	0.537380	-1.499132	0.111738
C62	C	1.037380	-0.999132	0.611738
C63	C	0.462582	-1.499118	0.111744
C64	C	0.962582	-0.999118	0.611744
C65	C	-0.000027	-1.508810	-0.026580
C66	C	0.499973	-1.008810	0.473420
C67	C	-0.000027	-1.506565	-0.110613
C68	C	0.499973	-1.006565	0.389387
C69	C	-0.000024	-0.731204	0.107471
C70	C	0.499976	-0.231204	0.607471
C71	C	-0.000027	-0.872116	0.109701
C72	C	0.499973	-0.372116	0.609701
C73	C	-0.000030	-1.621166	-0.158484
C74	C	0.499970	-1.121166	0.341516
C75	C	-0.000023	-1.619049	-0.237441
C76	C	0.499977	-1.119049	0.262559
C77	C	-0.000018	-1.502330	-0.268526
C78	C	0.499982	-1.002330	0.231474
C79	C	-0.000012	-1.387720	-0.220648
C80	C	0.499988	-0.887720	0.279352
C81	C	-0.000014	-1.389838	-0.141693
C82	C	0.499986	-0.889838	0.358307
C83	C	-0.000005	-1.379175	-0.539067
C84	C	0.499995	-0.879175	-0.039067
C85	C	-0.000006	-1.377065	-0.618029
C86	C	0.499994	-0.877065	-0.118029
C87	C	-0.000015	-1.608386	-0.634816
C88	C	0.499985	-1.108386	-0.134816
C89	C	-0.000016	-1.610504	-0.555860
C90	C	0.499984	-1.110504	-0.055860
C91	C	-0.000006	-1.495895	-0.507990
C92	C	0.499994	-0.995895	-0.007990
C93	C	-0.000012	-1.498192	-0.422376
C94	C	0.499988	-0.998192	0.077624
C95	C	-0.000018	-1.500032	-0.354138
C96	C	0.499982	-1.000032	0.145862
C97	C	-0.000010	-1.489423	0.250065
C98	C	0.499990	-0.989423	0.750065
C99	C	-0.000004	-1.491668	0.334098
C100	C	0.499996	-0.991668	0.834098
H101	H	0.137245	-0.889549	0.121449
H102	H	0.637245	-0.389549	0.621449
H103	H	-0.000024	-1.705549	-0.530556
H104	H	0.499976	-1.205549	-0.030556
H105	H	0.639299	-1.638252	0.195991
H106	H	1.139299	-1.138252	0.695991
Cl107	Cl	-0.000024	-1.752468	-0.695001
Cl108	Cl	0.499976	-1.252468	-0.195001
H109	H	0.796302	-1.638248	0.195981
H110	H	1.296302	-1.138248	0.695981
H111	H	0.796252	-1.360022	0.027450
H112	H	1.296252	-0.860022	0.527450
Cl113	Cl	0.087169	-1.156166	-0.019658
Cl114	Cl	0.587169	-0.656166	0.480342
H115	H	-0.083561	-1.086779	0.215146
H116	H	0.416439	-0.586779	0.715146
Cl117	Cl	0.083041	-1.096510	0.249598
Cl118	Cl	0.583041	-0.596510	0.749598
H119	H	-0.056304	-1.134055	-0.002229
H120	H	0.443696	-0.634055	0.497771
Cl121	Cl	-0.169683	-0.868789	0.110993
Cl122	Cl	0.330317	-0.368789	0.610993
Cl123	Cl	0.379825	-1.326008	0.006939
Cl124	Cl	0.879825	-0.826008	0.506939
H125	H	0.360731	-1.638232	0.196011
H126	H	0.860731	-1.138232	0.696011
H127	H	0.203714	-1.638227	0.196032
H128	H	0.703714	-1.138227	0.696032
H129	H	0.639236	-1.360014	0.027466
H130	H	1.139236	-0.860014	0.527466
H131	H	-0.000004	-1.282013	-0.643334
H132	H	0.499996	-0.782013	-0.143334
Cl133	Cl	0.000010	-1.235094	-0.478898
Cl134	Cl	0.500010	-0.735094	0.021102
Cl135	Cl	-0.000006	-1.245762	-0.081511
Cl136	Cl	0.499994	-0.745762	0.418489
Cl137	Cl	0.184490	-1.326028	0.006940
Cl138	Cl	0.684490	-0.826028	0.506940
Cl139	Cl	0.000004	-1.240986	-0.259726
Cl140	Cl	0.500004	-0.740986	0.240274
H141	H	-0.056649	-0.916307	-0.005903
H142	H	0.443351	-0.416307	0.494097
Cl143	Cl	-0.000045	-1.767908	-0.119415
Cl144	Cl	0.499955	-1.267908	0.380585
H145	H	0.055649	-0.914674	-0.005743
H146	H	0.555649	-0.414674	0.494257
Cl147	Cl	0.084068	-0.841442	0.244749
Cl148	Cl	0.584068	-0.341442	0.744749
Cl149	Cl	-0.168504	-1.127601	0.108076
Cl150	Cl	0.331496	-0.627601	0.608076
Cl151	Cl	0.168715	-1.130240	0.110840
Cl152	Cl	0.668715	-0.630240	0.610840
Cl153	Cl	-0.000030	-1.763126	-0.297620
Cl154	Cl	0.499970	-1.263126	0.202380
H155	H	-0.078324	-0.868370	0.213794
H156	H	0.421676	-0.368370	0.713794
