data_functionalizedCrystal
_audit_creation_method	'MofGen! by Chris Wilmer'
_symmetry_space_group_name_H-M	'P1'
_symmetry_Int_Tables_number	1
_symmetry_cell_setting	triclinic
loop_
_symmetry_equiv_pos_as_xyz
  x,y,z
_cell_length_a	10.723022
_cell_length_b	10.723024
_cell_length_c	15.455313
_cell_angle_alpha	92.691723
_cell_angle_beta	87.293625
_cell_angle_gamma	84.467548
loop_
_atom_site_label
_atom_site_type_symbol
_atom_site_fract_x
_atom_site_fract_y
_atom_site_fract_z
O1	O	1.662612	0.169607	-0.072123
O2	O	2.162612	0.669607	0.427877
O3	O	1.299460	0.186362	-0.072126
O4	O	1.799460	0.686362	0.427874
O5	O	1.489412	-0.003592	-0.072121
O6	O	1.989412	0.496408	0.427879
O7	O	1.472659	0.359560	-0.072128
O8	O	1.972659	0.859560	0.427872
O9	O	1.478550	0.007226	0.072141
O10	O	1.978550	0.507226	0.572141
O11	O	1.288597	0.197179	0.072136
O12	O	1.788597	0.697179	0.572136
O13	O	1.651749	0.180424	0.072139
O14	O	2.151749	0.680424	0.572139
Cu15	Cu	1.469181	0.189789	0.085310
Cu16	Cu	1.969181	0.689789	0.585310
Cu17	Cu	1.482028	0.176997	-0.085296
Cu18	Cu	1.982028	0.676997	0.414704
O19	O	1.461797	0.370378	0.072134
O20	O	1.961797	0.870378	0.572134
C21	C	1.247529	0.190552	0.000005
C22	C	1.747529	0.690552	0.500005
C23	C	1.108974	0.186905	0.000004
C24	C	1.608974	0.686905	0.500004
C25	C	1.060413	0.077365	0.000005
C26	C	1.560413	0.577365	0.500005
C27	C	0.917211	0.073593	0.000004
C28	C	1.417211	0.573593	0.500004
C29	C	1.482762	-0.044683	0.000009
C30	C	1.982762	0.455317	0.500009
C31	C	1.479114	-0.183237	0.000006
C32	C	1.979114	0.316763	0.500006
C33	C	1.585402	-0.258220	0.000005
C34	C	2.085402	0.241780	0.500005
C35	C	1.581635	-0.401424	0.000002
C36	C	2.081635	0.098576	0.500002
C37	C	1.703681	0.176234	0.000007
C38	C	2.203681	0.676234	0.500007
C39	C	1.842235	0.179881	0.000002
C40	C	2.342235	0.679881	0.500002
C41	C	1.468447	0.411469	0.000003
C42	C	1.968447	0.911469	0.500003
C43	C	1.472095	0.550023	-0.000000
C44	C	1.972095	1.050023	0.500000
N45	N	1.460155	0.198786	0.205305
N46	N	1.960155	0.698786	0.705305
N47	N	1.491064	0.167990	-0.205292
N48	N	1.991064	0.667990	0.294708
C49	C	1.540882	0.118118	0.250701
C50	C	2.040882	0.618118	0.750701
C51	C	1.534067	0.124933	0.341509
C52	C	2.034067	0.624933	0.841509
C53	C	1.446531	0.212425	0.386919
C54	C	1.946531	0.712425	0.886919
C55	C	1.365795	0.293097	0.341517
C56	C	1.865795	0.793097	0.841517
C57	C	1.372605	0.286274	0.250710
C58	C	1.872605	0.786274	0.750710
C59	C	1.417138	0.241840	0.658500
C60	C	1.917138	0.741840	1.158500
C61	C	1.410337	0.248659	0.749312
C62	C	1.910337	0.748659	1.249312
C63	C	1.578608	0.080493	0.749298
C64	C	2.078608	0.580493	1.249298
C65	C	1.585415	0.073683	0.658491
C66	C	2.085415	0.573683	1.158491
C67	C	1.504675	0.154351	0.613096
C68	C	2.004675	0.654351	1.113096
N69	N	1.439566	0.219396	0.479739
N70	N	1.939566	0.719396	0.979739
N71	N	1.511635	0.147372	0.520278
N72	N	2.011635	0.647372	1.020278
H73	H	0.884038	0.273673	0.000006
H74	H	1.384038	0.773673	0.500006
Br75	Br	1.001579	0.338568	-0.000010
Br76	Br	1.501579	0.838568	0.499990
H77	H	1.599801	0.059246	0.378470
H78	H	2.099801	0.559246	0.878470
H79	H	1.294514	0.364330	0.378495
H80	H	1.794514	0.864330	0.878495
H81	H	1.124856	-0.013624	0.000003
H82	H	1.624856	0.486376	0.500003
H83	H	1.679188	-0.216398	0.000011
H84	H	2.179188	0.283602	0.500011
H85	H	1.672625	-0.465857	0.000006
H86	H	2.172625	0.034143	0.500006
H87	H	1.381099	-0.385551	0.000006
H88	H	1.881099	0.114449	0.500006
H89	H	1.306866	0.351962	0.213750
H90	H	1.806866	0.851962	0.713750
H91	H	1.385329	-0.225059	-0.000001
H92	H	1.885329	0.274941	0.499999
Br93	Br	1.688177	-0.028982	0.810908
Br94	Br	2.188177	0.471018	1.310908
Br95	Br	0.847530	-0.082734	0.000017
Br96	Br	1.347530	0.417266	0.500017
H97	H	1.612169	0.046878	0.213734
H98	H	2.112169	0.546878	0.713734
H99	H	1.656695	0.002441	0.621520
H100	H	2.156695	0.502441	1.121520
Br101	Br	1.291532	0.367413	0.810935
Br102	Br	1.791532	0.867413	1.310935
H103	H	1.351398	0.307525	0.621547
H104	H	1.851398	0.807525	1.121547
