data_functionalizedCrystal
_audit_creation_method	'MofGen! by Chris Wilmer'
_symmetry_space_group_name_H-M	'P1'
_symmetry_Int_Tables_number	1
_symmetry_cell_setting	triclinic
loop_
_symmetry_equiv_pos_as_xyz
  x,y,z
_cell_length_a	18.215407
_cell_length_b	12.759400
_cell_length_c	18.215399
_cell_angle_alpha	89.973045
_cell_angle_beta	89.983176
_cell_angle_gamma	90.015132
loop_
_atom_site_label
_atom_site_type_symbol
_atom_site_fract_x
_atom_site_fract_y
_atom_site_fract_z
Zn1	Zn	1.125102	-0.418240	-0.416133
Zn2	Zn	1.125039	-0.593944	-0.293074
Zn3	Zn	1.002041	-0.418281	-0.293081
Zn4	Zn	1.002023	-0.593878	-0.416099
O5	O	1.063551	-0.506086	-0.354597
O6	O	1.228078	-0.441557	-0.399821
O7	O	1.108704	-0.570687	-0.190091
O8	O	1.018400	-0.271255	-0.309421
O9	O	1.228032	-0.570647	-0.309410
O10	O	1.108812	-0.271224	-0.399827
O11	O	1.018339	-0.441628	-0.190096
O12	O	0.899055	-0.441565	-0.309388
O13	O	1.018368	-0.570534	-0.519088
O14	O	0.899041	-0.570575	-0.399769
O15	O	1.108794	-0.441493	-0.519113
O16	O	1.108686	-0.740957	-0.309377
O17	O	1.018307	-0.740908	-0.399763
C18	C	0.872345	-0.506068	-0.354576
C19	C	0.790546	-0.506086	-0.354584
C20	C	0.602364	-0.573367	-0.401587
C21	C	0.525506	-0.573370	-0.401596
C22	C	0.525490	-0.438824	-0.307623
C23	C	0.602348	-0.438816	-0.307618
C24	C	0.640783	-0.506094	-0.354599
C25	C	0.487067	-0.506105	-0.354613
C26	C	0.403733	-0.506108	-0.354623
C27	C	0.724122	-0.506089	-0.354590
C28	C	1.063508	-0.779053	-0.354582
C29	C	1.063556	-0.895830	-0.354600
C30	C	1.110669	-0.950682	-0.307588
C31	C	1.110714	-1.060406	-0.307610
C32	C	1.016527	-1.060416	-0.401659
C33	C	1.016487	-0.950694	-0.401639
C34	C	1.157739	-0.895818	-0.260548
C35	C	1.204855	-0.950671	-0.213532
C36	C	1.204900	-1.060395	-0.213554
C37	C	1.157829	-1.115266	-0.260593
C38	C	1.255504	-0.506105	-0.354618
C39	C	1.337303	-0.506113	-0.354628
C40	C	1.063586	-0.506002	-0.546550
C41	C	1.063601	-0.505966	-0.628349
C42	C	1.063615	-0.232053	-0.354628
C43	C	1.063642	-0.115276	-0.354642
C44	C	1.016587	-0.438720	-0.816546
C45	C	1.016600	-0.438699	-0.893405
C46	C	1.110703	-0.573087	-0.893389
C47	C	1.110686	-0.573113	-0.816532
C48	C	1.063629	-0.505923	-0.778112
C49	C	1.063659	-0.505876	-0.931829
C50	C	1.063673	-0.505854	-1.015162
C51	C	1.063614	-0.505947	-0.694773
C52	C	1.063559	-0.506094	-0.163391
C53	C	1.063687	-0.505833	-0.081592
H54	H	0.494187	-0.384051	-0.269372
C55	C	0.964748	-1.120772	-0.453395
C56	C	0.964790	-1.241461	-0.453415
C57	C	0.913008	-1.301816	-0.505150
C58	C	0.861184	-1.241480	-0.556864
C59	C	0.861140	-1.120783	-0.556846
C60	C	0.912922	-1.060429	-0.505111
H61	H	1.003155	-1.286132	-0.415131
H62	H	0.913041	-1.391164	-0.505163
H63	H	0.822852	-1.286157	-0.595162
H64	H	0.822775	-1.076113	-0.595130
H65	H	0.912889	-0.971081	-0.505098
C66	C	0.644644	-0.647361	-0.453270
C67	C	0.697458	-0.729790	-0.421284
C68	C	0.739735	-0.803783	-0.472971
C69	C	0.729199	-0.795347	-0.556643
C70	C	0.676383	-0.712914	-0.588633
C71	C	0.634106	-0.638921	-0.536946
H72	H	0.705259	-0.736038	-0.359341
H73	H	0.778833	-0.864805	-0.449290
H74	H	0.760496	-0.850121	-0.594905
H75	H	0.668582	-0.706666	-0.650576
H76	H	0.595008	-0.577899	-0.560628
C77	C	0.483245	-0.647375	-0.453282
C78	C	0.525526	-0.721372	-0.504957
C79	C	0.483266	-0.795378	-0.556646
C80	C	0.398726	-0.795387	-0.556660
C81	C	0.356441	-0.721387	-0.504983
C82	C	0.398701	-0.647381	-0.453294
H83	H	0.588111	-0.721368	-0.504948
H84	H	0.514568	-0.850158	-0.594901
H85	H	0.367442	-0.850171	-0.594924
H86	H	0.293855	-0.721391	-0.504992
H87	H	0.367398	-0.592601	-0.415039
H88	H	0.978124	-0.906033	-0.439921
C89	C	1.256634	-0.890317	-0.161794
C90	C	1.256588	-0.769628	-0.161765
C91	C	1.308370	-0.709277	-0.110028
C92	C	1.360198	-0.769617	-0.058319
C93	C	1.360246	-0.890313	-0.058346
C94	C	1.308464	-0.950664	-0.110084
H95	H	1.218220	-0.724955	-0.200045
H96	H	1.308333	-0.619929	-0.110008
H97	H	1.398529	-0.724942	-0.020020
H98	H	1.398614	-0.934986	-0.020067
H99	H	1.308500	-1.040012	-0.110103
H100	H	0.978293	-0.383976	-0.924694
H101	H	1.149015	-0.627790	-0.924680
C102	C	0.964821	-0.364822	-0.774284
C103	C	0.913072	-0.290904	-0.816564
C104	C	0.861303	-0.217006	-0.774304
C105	C	0.861281	-0.217026	-0.689764
C106	C	0.913031	-0.290947	-0.647479
C107	C	0.964801	-0.364844	-0.689739
H108	H	0.913087	-0.290887	-0.879150
H109	H	0.822994	-0.162285	-0.805606
H110	H	0.822958	-0.162323	-0.658480
H111	H	0.913017	-0.290964	-0.584893
H112	H	1.003110	-0.419565	-0.658436
H113	H	1.243270	-1.105053	-0.175277
H114	H	0.633629	-0.384028	-0.269355
C115	C	1.162436	-0.647041	-0.774249
C116	C	1.214203	-0.720938	-0.816505
C117	C	1.265948	-0.794865	-0.774222
C118	C	1.265925	-0.794896	-0.689682
C119	C	1.214156	-0.720996	-0.647420
C120	C	1.162411	-0.647069	-0.689704
H121	H	1.214221	-0.720918	-0.879091
H122	H	1.304270	-0.849570	-0.805507
H123	H	1.304230	-0.849621	-0.658381
H124	H	1.214138	-0.721016	-0.584835
H125	H	1.124089	-0.592363	-0.658419
H126	H	1.157705	-0.806475	-0.260522
H127	H	1.157876	-1.204611	-0.260614
