data_functionalizedCrystal
_audit_creation_method	'MofGen! by Chris Wilmer'
_symmetry_space_group_name_H-M	'P1'
_symmetry_Int_Tables_number	1
_symmetry_cell_setting	triclinic
loop_
_symmetry_equiv_pos_as_xyz
  x,y,z
_cell_length_a	10.489741
_cell_length_b	10.489741
_cell_length_c	11.804365
_cell_angle_alpha	101.953620
_cell_angle_beta	78.031880
_cell_angle_gamma	84.539174
loop_
_atom_site_label
_atom_site_type_symbol
_atom_site_fract_x
_atom_site_fract_y
_atom_site_fract_z
O1	O	1.719568	0.154468	-0.098951
O2	O	1.348377	0.171356	-0.098970
O3	O	1.542417	-0.022684	-0.098953
O4	O	1.525528	0.348508	-0.098968
O5	O	1.491333	0.028348	0.099098
O6	O	1.297293	0.222388	0.099082
O7	O	1.668484	0.205500	0.099100
Cu8	Cu	1.478224	0.218603	0.117175
Cu9	Cu	1.538637	0.158253	-0.117044
O10	O	1.474444	0.399540	0.099083
C11	C	1.275304	0.195596	0.000054
C12	C	1.133676	0.191777	0.000047
C13	C	1.065532	0.068316	0.000063
C14	C	0.998592	0.101479	-0.097587
C15	C	0.948262	0.151821	0.097677
C16	C	1.068623	0.224969	-0.097684
C17	C	1.018279	0.275317	0.097667
C18	C	0.951373	0.308563	-0.000006
C19	C	1.515599	-0.044700	0.000072
C20	C	1.511783	-0.186330	0.000070
C21	C	1.388322	-0.254474	0.000055
C22	C	1.421458	-0.321434	0.097707
C23	C	1.471852	-0.371722	-0.097556
C24	C	1.544949	-0.251404	0.097803
C25	C	1.595348	-0.301705	-0.097548
C26	C	1.628567	-0.368632	0.000128
C27	C	1.741558	0.181260	0.000074
C28	C	1.883187	0.185077	0.000073
C29	C	1.501262	0.421555	0.000056
C30	C	1.505081	0.563183	0.000050
N31	N	1.435743	0.261050	0.281912
N32	N	1.581128	0.115796	-0.281781
C33	C	1.683142	0.013842	0.655882
C34	C	1.715278	-0.018274	0.531223
C35	C	1.645396	0.051554	0.468889
C36	C	1.543374	0.153504	0.531226
C37	C	1.511242	0.185630	0.655897
C38	C	1.473497	0.223342	0.468904
C39	C	1.371475	0.325292	0.531242
C40	C	1.339347	0.357413	0.655900
C41	C	1.409229	0.287585	0.718234
C42	C	1.505629	0.191216	0.344233
C43	C	1.333729	0.363004	0.344249
C44	C	1.301593	0.395120	0.468908
H45	H	1.028031	0.348787	0.180224
H46	H	0.895990	0.120830	0.180232
H47	H	0.901964	0.410151	-0.000063
Br48	Br	1.155525	0.276481	-0.235438
H49	H	1.286786	-0.204799	0.000148
H50	H	1.347924	-0.331175	0.180260
Br51	Br	1.596421	-0.164532	0.235557
H52	H	1.730155	-0.418041	0.000187
Br53	Br	1.717842	-0.285414	-0.235150
H54	H	1.440892	-0.423960	-0.180122
H55	H	1.588695	0.108208	0.293489
H56	H	1.671566	0.025400	0.367386
H57	H	1.798344	-0.101280	0.480472
H58	H	0.988871	0.027967	-0.180140
Br59	Br	1.777987	-0.080901	0.740477
Br60	Br	1.365604	0.331166	0.887422
Br61	Br	1.200909	0.495791	0.740504
H62	H	1.218525	0.478131	0.519678
H63	H	1.115252	-0.033210	-0.000055
Br64	Br	1.238893	0.457786	0.259662
