data_functionalizedCrystal
_audit_creation_method	'MofGen! by Chris Wilmer'
_symmetry_space_group_name_H-M	'P1'
_symmetry_Int_Tables_number	1
_symmetry_cell_setting	triclinic
loop_
_symmetry_equiv_pos_as_xyz
  x,y,z
_cell_length_a	17.699077
_cell_length_b	14.519731
_cell_length_c	16.176319
_cell_angle_alpha	89.992219
_cell_angle_beta	89.993140
_cell_angle_gamma	83.484715
loop_
_atom_site_label
_atom_site_type_symbol
_atom_site_fract_x
_atom_site_fract_y
_atom_site_fract_z
O1	O	1.004423	0.116597	-0.068737
O2	O	1.504423	0.616597	0.431263
O3	O	0.784088	0.131776	-0.068742
O4	O	1.284088	0.631776	0.431258
O5	O	0.900089	-0.010076	-0.068732
O6	O	1.400089	0.489924	0.431268
O7	O	0.888422	0.258448	-0.068747
O8	O	1.388422	0.758448	0.431253
O9	O	0.900073	-0.010085	0.068761
O10	O	1.400073	0.489915	0.568761
O11	O	0.784072	0.131767	0.068751
O12	O	1.284072	0.631767	0.568751
O13	O	1.004407	0.116588	0.068756
O14	O	1.504407	0.616588	0.568756
Cu15	Cu	0.894238	0.124177	0.081308
Cu16	Cu	1.394238	0.624177	0.581308
Cu17	Cu	0.894257	0.124187	-0.081294
Cu18	Cu	1.394257	0.624187	0.418706
O19	O	0.888406	0.258439	0.068746
O20	O	1.388406	0.758439	0.568746
C21	C	0.755881	0.131228	0.000004
C22	C	1.255881	0.631228	0.500004
C23	C	0.671858	0.129599	0.000003
C24	C	1.171858	0.629599	0.500003
C25	C	0.632380	0.128827	0.074951
C26	C	1.132380	0.628827	0.574951
C27	C	0.553433	0.127282	0.074952
C28	C	1.053433	0.627282	0.574952
C29	C	0.513965	0.126516	0.000004
C30	C	1.013965	0.626516	0.500004
C31	C	0.553449	0.127285	-0.074950
C32	C	1.053449	0.627285	0.425050
C33	C	0.632395	0.128824	-0.074950
C34	C	1.132395	0.628824	0.425050
C35	C	0.235068	0.121079	-0.074951
C36	C	0.735068	0.621079	0.425049
C37	C	0.156116	0.119543	-0.074946
C38	C	0.656116	0.619543	0.425054
C39	C	0.156105	0.119537	0.074951
C40	C	0.656105	0.619537	0.574951
C41	C	0.235052	0.121076	0.074951
C42	C	0.735052	0.621076	0.574951
C43	C	0.274529	0.121840	-0.000002
C44	C	0.774529	0.621840	0.499998
C45	C	0.360133	0.123514	-0.000003
C46	C	0.860133	0.623514	0.499997
C47	C	0.428362	0.124849	0.000003
C48	C	0.928362	0.624849	0.500003
C49	C	0.899534	-0.044437	0.000015
C50	C	1.399534	0.455563	0.500015
C51	C	0.897896	-0.146811	0.000015
C52	C	1.397896	0.353189	0.500015
C53	C	0.896565	-0.229949	0.000013
C54	C	1.396565	0.270051	0.500013
C55	C	0.894902	-0.334251	0.000007
C56	C	1.394902	0.165749	0.500007
C57	C	0.893582	-0.417384	0.000002
C58	C	1.393582	0.082616	0.500002
C59	C	0.891919	-0.521692	-0.000003
C60	C	1.391919	-0.021692	0.499997
C61	C	1.032613	0.117136	0.000008
C62	C	1.532613	0.617136	0.500008
C63	C	1.116636	0.118764	0.000004
C64	C	1.616636	0.618764	0.500004
C65	C	0.888961	0.292801	-0.000003
C66	C	1.388961	0.792801	0.499997
C67	C	0.890599	0.395174	-0.000008
C68	C	1.390599	0.895174	0.499992
N69	N	0.894230	0.124168	0.195673
N70	N	1.394230	0.624168	0.695673
N71	N	0.894271	0.124188	-0.195659
N72	N	1.394271	0.624188	0.304341
C73	C	0.945611	0.061382	0.238942
C74	C	1.445611	0.561382	0.738942
C75	C	0.945615	0.061381	0.325489
C76	C	1.445615	0.561381	0.825489
C77	C	0.894241	0.124172	0.368766
C78	C	1.394241	0.624172	0.868766
C79	C	0.842855	0.186961	0.325491
C80	C	1.342855	0.686961	0.825491
C81	C	0.842848	0.186957	0.238946
C82	C	1.342848	0.686957	0.738946
C83	C	0.842881	0.186978	0.674519
C84	C	1.342881	0.686978	1.174519
C85	C	0.842893	0.186979	0.761071
C86	C	1.342893	0.686979	1.261071
C87	C	0.945648	0.061403	0.761062
C88	C	1.445648	0.561403	1.261062
C89	C	0.945641	0.061399	0.674517
C90	C	1.445641	0.561399	1.174517
C91	C	0.894252	0.124184	0.631250
C92	C	1.394252	0.624184	1.131250
C93	C	0.894248	0.124183	0.537406
C94	C	1.394248	0.624183	1.037406
C95	C	0.894248	0.124178	0.462608
C96	C	1.394248	0.624178	0.962608
H97	H	0.267182	0.121704	0.135982
H98	H	0.767182	0.621704	0.635982
C99	C	0.510011	0.126429	0.157400
C100	C	1.010011	0.626429	0.657400
C101	C	0.512372	0.206687	0.219227
C102	C	1.012372	0.706687	0.719227
C103	C	0.468954	0.205830	0.301680
C104	C	0.968954	0.705830	0.801680
C105	C	0.423174	0.124715	0.322306
C106	C	0.923174	0.624715	0.822306
C107	C	0.420811	0.044450	0.260477
C108	C	0.920811	0.544450	0.760477
C109	C	0.464230	0.045308	0.178024
C110	C	0.964230	0.545308	0.678024
H111	H	0.546263	0.266739	0.203961
H112	H	1.046263	0.766739	0.703961
H113	H	0.470703	0.265247	0.347450
H114	H	0.970703	0.765247	0.847450
H115	H	0.391033	0.124080	0.383342
H116	H	0.891033	0.624080	0.883342
H117	H	0.386921	-0.015602	0.275744
H118	H	0.886921	0.484398	0.775744
H119	H	0.462480	-0.014110	0.132254
H120	H	0.962480	0.485890	0.632254
C121	C	0.786341	0.256033	0.373091
C122	C	1.286341	0.756033	0.873091
C123	C	0.786381	0.256089	0.468288
C124	C	1.286381	0.756089	0.968288
C125	C	0.729868	0.325166	0.515885
C126	C	1.229868	0.825166	1.015885
C127	C	0.673315	0.394186	0.468286
C128	C	1.173315	0.894186	0.968286
C129	C	0.673274	0.394133	0.373084
C130	C	1.173274	0.894133	0.873084
C131	C	0.729787	0.325056	0.325487
C132	C	1.229787	0.825056	0.825487
H133	H	0.828246	0.204994	0.503529
H134	H	1.328246	0.704994	1.003529
H135	H	0.729899	0.325205	0.586360
H136	H	1.229899	0.825205	1.086360
H137	H	0.631481	0.445321	0.503520
H138	H	1.131481	0.945321	1.003520
H139	H	0.631408	0.445228	0.337843
H140	H	1.131408	0.945228	0.837843
H141	H	0.729756	0.325017	0.255011
H142	H	1.229756	0.825017	0.755011
H143	H	0.123953	0.118910	0.135982
H144	H	0.623953	0.618910	0.635982
H145	H	0.664538	0.129455	-0.135981
H146	H	1.164538	0.629455	0.364019
H147	H	0.987489	0.010276	0.796300
H148	H	1.487489	0.510276	1.296300
H149	H	0.801055	0.238113	0.796306
H150	H	1.301055	0.738113	1.296306
C151	C	1.002151	-0.007672	0.626912
C152	C	1.502151	0.492328	1.126912
C153	C	0.972473	-0.078155	0.567432
C154	C	1.472473	0.421845	1.067432
C155	C	1.028982	-0.147230	0.519827
C156	C	1.528982	0.352770	1.019827
C157	C	1.115168	-0.145823	0.531703
C158	C	1.615168	0.354177	1.031703
C159	C	1.144851	-0.075337	0.591186
C160	C	1.644851	0.424663	1.091186
C161	C	1.088342	-0.006262	0.638790
C162	C	1.588342	0.493738	1.138790
H163	H	0.908669	-0.079199	0.558638
H164	H	1.408669	0.420801	1.058638
H165	H	1.007008	-0.199408	0.475794
H166	H	1.507008	0.300592	0.975794
H167	H	1.156999	-0.196956	0.496463
H168	H	1.656999	0.303044	0.996463
H169	H	1.208655	-0.074293	0.599980
H170	H	1.708655	0.425707	1.099980
H171	H	1.110315	0.045916	0.682824
H172	H	1.610315	0.545916	1.182824
H173	H	0.801008	0.238082	0.203717
H174	H	1.301008	0.738082	0.703717
H175	H	0.664508	0.129458	0.135983
H176	H	1.164508	0.629458	0.635983
H177	H	0.123983	0.118919	-0.135981
H178	H	0.623983	0.618919	0.364019
H179	H	0.267201	0.121699	-0.135983
H180	H	0.767201	0.621699	0.364017
H181	H	0.801040	0.238102	0.639298
H182	H	1.301040	0.738102	1.139298
C183	C	0.510037	0.126444	-0.157396
C184	C	1.010037	0.626444	0.342604
C185	C	0.423198	0.124759	-0.157400
C186	C	0.923198	0.624759	0.342600
C187	C	0.379787	0.123922	-0.239848
C188	C	0.879787	0.623922	0.260152
C189	C	0.423215	0.124770	-0.322291
C190	C	0.923215	0.624770	0.177709
C191	C	0.510059	0.126456	-0.322289
C192	C	1.010059	0.626456	0.177711
C193	C	0.553469	0.127293	-0.239841
C194	C	1.053469	0.627293	0.260159
H195	H	0.391046	0.124131	-0.096368
H196	H	0.891046	0.624131	0.403632
H197	H	0.315500	0.122674	-0.239849
H198	H	0.815500	0.622674	0.260151
H199	H	0.391080	0.124150	-0.383323
H200	H	0.891080	0.624150	0.116677
H201	H	0.542211	0.127084	-0.383321
H202	H	1.042211	0.627084	0.116679
H203	H	0.617757	0.128540	-0.239841
H204	H	1.117757	0.628540	0.260159
H205	H	0.987452	0.010256	0.360718
H206	H	1.487452	0.510256	0.860718
C207	C	1.002124	-0.007690	0.191341
C208	C	1.502124	0.492310	0.691341
C209	C	1.058638	-0.076757	0.238941
C210	C	1.558638	0.423243	0.738941
C211	C	1.115151	-0.145834	0.191344
C212	C	1.615151	0.354166	0.691344
C213	C	1.115150	-0.145843	0.096147
C214	C	1.615150	0.354157	0.596147
C215	C	1.058634	-0.076773	0.048542
C216	C	1.558634	0.423227	0.548542
C217	C	1.002121	-0.007697	0.096139
C218	C	1.502121	0.492303	0.596139
H219	H	1.058641	-0.076752	0.309416
H220	H	1.558641	0.423248	0.809416
H221	H	1.156988	-0.196964	0.226584
H222	H	1.656988	0.303036	0.726584
H223	H	1.156985	-0.196978	0.060913
H224	H	1.656985	0.303022	0.560913
H225	H	1.058632	-0.076778	-0.021933
H226	H	1.558632	0.423222	0.478067
H227	H	0.960284	0.043433	0.060899
H228	H	1.460284	0.543433	0.560899
