data_functionalizedCrystal
_audit_creation_method	'MofGen! by Chris Wilmer'
_symmetry_space_group_name_H-M	'P1'
_symmetry_Int_Tables_number	1
_symmetry_cell_setting	triclinic
loop_
_symmetry_equiv_pos_as_xyz
  x,y,z
_cell_length_a	10.723024
_cell_length_b	10.654550
_cell_length_c	9.798715
_cell_angle_alpha	89.994830
_cell_angle_beta	90.000203
_cell_angle_gamma	95.523614
loop_
_atom_site_label
_atom_site_type_symbol
_atom_site_fract_x
_atom_site_fract_y
_atom_site_fract_z
O1	O	1.657207	-0.176153	0.113478
O2	O	2.157207	0.323847	0.613478
O3	O	1.294057	-0.193014	0.113483
O4	O	1.794057	0.306986	0.613483
O5	O	1.483982	-0.001843	0.113475
O6	O	1.983982	0.498157	0.613475
O7	O	1.467283	-0.367324	0.113486
O8	O	1.967283	0.132676	0.613486
O9	O	1.483980	-0.001830	-0.113507
O10	O	1.983980	0.498170	0.386493
O11	O	1.294056	-0.193001	-0.113499
O12	O	1.794056	0.306999	0.386501
O13	O	1.657206	-0.176140	-0.113504
O14	O	2.157206	0.323860	0.386496
Zn15	Zn	1.475630	-0.184568	-0.149540
Zn16	Zn	1.975630	0.315432	0.350460
Zn17	Zn	1.475632	-0.184586	0.149519
Zn18	Zn	1.975632	0.315414	0.649519
O19	O	1.467281	-0.367311	-0.113496
O20	O	1.967281	0.132689	0.386504
C21	C	1.247557	-0.191780	-0.000008
C22	C	1.747557	0.308220	0.499992
C23	C	1.109002	-0.188109	-0.000006
C24	C	1.609002	0.311891	0.499994
N25	N	1.475638	-0.184555	-0.353640
N26	N	1.975638	0.315445	0.146360
C27	C	1.482755	0.044961	-0.000014
C28	C	1.982755	0.544961	0.499986
C29	C	1.479086	0.184404	-0.000009
C30	C	1.979086	0.684404	0.499991
C31	C	1.034035	-0.295078	-0.000002
C32	C	1.534035	0.204922	0.499998
C33	C	0.890831	-0.291287	-0.000001
C34	C	1.390831	0.208713	0.499999
C35	C	1.703706	-0.177373	-0.000010
C36	C	2.203706	0.322627	0.499990
C37	C	1.842261	-0.181045	-0.000003
C38	C	2.342261	0.318955	0.499997
C39	C	1.468508	-0.414115	-0.000004
C40	C	1.968508	0.085885	0.499996
C41	C	1.472176	-0.553558	0.000000
C42	C	1.972176	-0.053558	0.500000
C43	C	1.590911	0.263907	-0.000015
C44	C	2.090911	0.763907	0.499985
C45	C	1.587456	0.394927	-0.000005
C46	C	2.087456	0.894927	0.499995
C47	C	1.360343	0.366929	0.000010
C48	C	1.860343	0.866929	0.500010
C49	C	1.363799	0.235912	0.000010
C50	C	1.863799	0.735912	0.500010
C51	C	1.722033	0.280072	-0.000029
C52	C	2.222033	0.780072	0.499971
C53	C	1.718579	0.411092	-0.000020
C54	C	2.218579	0.911092	0.499980
N55	N	1.475634	-0.184589	0.353619
N56	N	1.975634	0.315411	0.853619
C57	C	1.555712	-0.104284	0.578547
C58	C	2.055712	0.395716	1.078547
C59	C	1.555711	-0.104302	0.421385
C60	C	2.055711	0.395698	0.921385
H61	H	1.075871	-0.389466	-0.000007
H62	H	1.575871	0.110534	0.499993
F63	F	0.806635	-0.410985	0.000014
F64	F	1.306635	0.089015	0.500014
H65	H	1.272741	0.171184	0.000033
H66	H	1.772741	0.671184	0.500033
H67	H	0.906672	-0.089466	0.000002
H68	H	1.406672	0.410534	0.500002
H69	H	1.624270	-0.035583	0.363068
H70	H	2.124270	0.464417	0.863068
H71	H	1.067166	-0.093722	0.000026
H72	H	1.567166	0.406278	0.500026
H73	H	1.407078	-0.253287	0.588067
H74	H	1.907078	0.246713	1.088067
F75	F	1.237653	0.421759	0.000033
F76	F	1.737653	0.921759	0.500033
H77	H	1.763786	0.244457	-0.098036
H78	H	2.263786	0.744457	0.401964
H79	H	1.773320	0.250716	0.094955
H80	H	2.273320	0.750716	0.594955
F81	F	1.770373	0.470758	0.128075
F82	F	2.270373	0.970758	0.628075
F83	F	1.783149	0.465698	-0.124176
F84	F	2.283149	0.965698	0.375824
H85	H	1.407081	-0.253320	0.411926
H86	H	1.907081	0.246680	0.911926
F87	F	1.645718	-0.014842	0.654735
F88	F	2.145718	0.485158	1.154735
