data_functionalizedCrystal
_audit_creation_method	'MofGen! by Chris Wilmer'
_symmetry_space_group_name_H-M	'P1'
_symmetry_Int_Tables_number	1
_symmetry_cell_setting	triclinic
loop_
_symmetry_equiv_pos_as_xyz
  x,y,z
_cell_length_a	21.395362
_cell_length_b	13.897448
_cell_length_c	21.395355
_cell_angle_alpha	89.984371
_cell_angle_beta	89.956060
_cell_angle_gamma	90.033571
loop_
_atom_site_label
_atom_site_type_symbol
_atom_site_fract_x
_atom_site_fract_y
_atom_site_fract_z
Zn1	Zn	0.957916	-0.383718	-0.354598
Zn2	Zn	1.457916	0.116282	0.145402
Zn3	Zn	0.957842	-0.544997	-0.249826
Zn4	Zn	1.457842	-0.044997	0.250174
Zn5	Zn	0.853131	-0.383763	-0.249799
Zn6	Zn	1.353131	0.116237	0.250201
Zn7	Zn	0.853124	-0.545017	-0.354531
Zn8	Zn	1.353124	-0.045017	0.145469
O9	O	0.905503	-0.464374	-0.302189
O10	O	1.405503	0.035626	0.197811
O11	O	1.045584	-0.405085	-0.340739
O12	O	1.545584	0.094915	0.159261
O13	O	0.943924	-0.523620	-0.162145
O14	O	1.443924	-0.023620	0.337855
O15	O	0.867065	-0.248775	-0.263718
O16	O	1.367065	0.251225	0.236282
O17	O	1.045530	-0.523576	-0.263764
O18	O	1.545530	-0.023576	0.236236
O19	O	0.944050	-0.248742	-0.340714
O20	O	1.444050	0.251258	0.159286
O21	O	0.866993	-0.405161	-0.162125
O22	O	1.366993	0.094839	0.337875
O23	O	0.765452	-0.405181	-0.263653
O24	O	1.265452	0.094819	0.236347
O25	O	0.867053	-0.523610	-0.442218
O26	O	1.367053	-0.023610	0.057782
O27	O	0.765447	-0.523654	-0.340599
O28	O	1.265447	-0.023654	0.159401
O29	O	0.944043	-0.405104	-0.442267
O30	O	1.444043	0.094896	0.057733
O31	O	0.943918	-0.679982	-0.263698
O32	O	1.443918	-0.179982	0.236302
O33	O	0.866981	-0.679996	-0.340624
O34	O	1.366981	-0.179996	0.159376
C35	C	0.742716	-0.464425	-0.302116
C36	C	1.242716	0.035575	0.197884
C37	C	0.673074	-0.464470	-0.302100
C38	C	1.173074	0.035530	0.197900
C39	C	0.640375	-0.526240	-0.342105
C40	C	1.140375	-0.026240	0.157895
C41	C	0.574940	-0.526217	-0.342133
C42	C	1.074940	-0.026217	0.157867
C43	C	0.542206	-0.464433	-0.302144
C44	C	1.042206	0.035567	0.197856
C45	C	0.574913	-0.402650	-0.262136
C46	C	1.074913	0.097350	0.237864
C47	C	0.640348	-0.402669	-0.262114
C48	C	1.140348	0.097331	0.237886
C49	C	0.438480	-0.456662	-0.245739
C50	C	0.938480	0.043338	0.254261
C51	C	0.373047	-0.456650	-0.245760
C52	C	0.873047	0.043350	0.254240
C53	C	0.340385	-0.464370	-0.302214
C54	C	0.840385	0.035630	0.197786
C55	C	0.373165	-0.472121	-0.358647
C56	C	0.873165	0.027879	0.141353
C57	C	0.438599	-0.472140	-0.358625
C58	C	0.938599	0.027860	0.141375
C59	C	0.471254	-0.464405	-0.302164
C60	C	0.971254	0.035595	0.197836
C61	C	0.236734	-0.526118	-0.342253
C62	C	0.736734	-0.026118	0.157747
C63	C	0.171297	-0.526088	-0.342282
C64	C	0.671297	-0.026088	0.157718
C65	C	0.171272	-0.402526	-0.262279
C66	C	0.671272	0.097474	0.237721
C67	C	0.236707	-0.402551	-0.262255
C68	C	0.736707	0.097449	0.237745
C69	C	0.269434	-0.464352	-0.302242
C70	C	0.769434	0.035648	0.197758
C71	C	0.905458	-0.714988	-0.302170
C72	C	1.405458	-0.214988	0.197830
C73	C	0.905495	-0.822202	-0.302184
C74	C	1.405495	-0.322202	0.197816
C75	C	0.905561	-1.018497	-0.302223
C76	C	1.405561	-0.518497	0.197777
C77	C	0.905523	-0.909265	-0.302203
C78	C	1.405523	-0.409265	0.197797
C79	C	1.068927	-0.464323	-0.302262
C80	C	1.568927	0.035677	0.197738
C81	C	1.138568	-0.464302	-0.302293
C82	C	1.638568	0.035698	0.197707
C83	C	0.905555	-0.464354	-0.465612
C84	C	1.405555	0.035646	0.034388
C85	C	0.905578	-0.464346	-0.535253
C86	C	1.405578	0.035654	-0.035253
C87	C	0.905566	-0.212781	-0.302221
C88	C	1.405566	0.287219	0.197779
C89	C	0.905593	-0.105567	-0.302234
C90	C	1.405593	0.394433	0.197766
C91	C	0.945665	-0.402637	-0.567993
C92	C	1.445665	0.097363	-0.067993
C93	C	0.945664	-0.402596	-0.633429
C94	C	1.445664	0.097404	-0.133429
C95	C	0.905582	-0.464280	-0.666122
C96	C	1.405582	0.035720	-0.166122
C97	C	0.865488	-0.525993	-0.633374
C98	C	1.365488	-0.025993	-0.133374
C99	C	0.865485	-0.526026	-0.567940
C100	C	1.365485	-0.026026	-0.067940
C101	C	0.900619	-0.551135	-0.769788
C102	C	1.400619	-0.051135	-0.269788
C103	C	0.900626	-0.551103	-0.835221
C104	C	1.400626	-0.051103	-0.335221
C105	C	0.905586	-0.464178	-0.867942
C106	C	1.405586	0.035822	-0.367942
C107	C	0.910553	-0.377282	-0.835223
C108	C	1.410553	0.122718	-0.335223
C109	C	0.910550	-0.377315	-0.769788
C110	C	1.410550	0.122685	-0.269788
C111	C	0.905580	-0.464251	-0.737074
C112	C	1.405580	0.035749	-0.237074
C113	C	0.945675	-0.402419	-0.971635
C114	C	1.445675	0.097581	-0.471635
C115	C	0.945669	-0.402376	-1.037072
C116	C	1.445669	0.097624	-0.537072
C117	C	0.865496	-0.525782	-1.037016
C118	C	1.365496	-0.025782	-0.537016
C119	C	0.865498	-0.525817	-0.971580
C120	C	1.365498	-0.025817	-0.471580
C121	C	0.905591	-0.464137	-0.938894
C122	C	1.405591	0.035863	-0.438894
C123	C	0.905488	-0.464324	-0.139401
C124	C	1.405488	0.035676	0.360599
C125	C	0.905587	-0.464060	-0.069760
C126	C	1.405587	0.035940	0.430240
H127	H	0.346573	-0.478406	-0.404617
H128	H	0.846573	0.021594	0.095383
O129	O	0.135969	-0.335891	-0.219148
O130	O	0.635969	0.164109	0.280852
H131	H	0.148573	-0.260213	-0.229977
H132	H	0.648573	0.239787	0.270023
O133	O	0.675623	-0.336061	-0.218951
O134	O	1.175623	0.163939	0.281049
H135	H	0.641871	-0.293099	-0.191143
H136	H	1.141871	0.206901	0.308857
H137	H	0.144674	-0.576387	-0.374863
H138	H	0.644674	-0.076387	0.125137
O139	O	0.337699	-0.448298	-0.184893
O140	O	0.837699	0.051702	0.315107
H141	H	0.286711	-0.449598	-0.194391
H142	H	0.786711	0.050402	0.305609
O143	O	0.822260	-0.592312	-1.072266
O144	O	1.322260	-0.092312	-0.572266
H145	H	0.850288	-0.641372	-1.102098
H146	H	1.350288	-0.141372	-0.602098
O147	O	0.271983	-0.335952	-0.219090
O148	O	0.771983	0.164048	0.280910
H149	H	0.238230	-0.292996	-0.191280
H150	H	0.738230	0.207004	0.308720
H151	H	0.832851	-0.576214	-0.659997
H152	H	1.332851	-0.076214	-0.159997
O153	O	0.473707	-0.448338	-0.184846
O154	O	0.973707	0.051662	0.315154
H155	H	0.439923	-0.442961	-0.145609
H156	H	0.939923	0.057039	0.354391
O157	O	0.473954	-0.480490	-0.419488
O158	O	0.973954	0.019510	0.080512
H159	H	0.503808	-0.415896	-0.425937
H160	H	1.003808	0.084104	0.074063
O161	O	0.822233	-0.592564	-0.532621
O162	O	1.322233	-0.092564	-0.032621
H163	H	0.794356	-0.635445	-0.566344
H164	H	1.294356	-0.135445	-0.066344
O165	O	0.822245	-0.592348	-0.936261
O166	O	1.322245	-0.092348	-0.436261
H167	H	0.794368	-0.635228	-0.969985
H168	H	1.294368	-0.135228	-0.469985
O169	O	0.539614	-0.336030	-0.218990
O170	O	1.039614	0.163970	0.281010
H171	H	0.488619	-0.346408	-0.225716
H172	H	0.988619	0.153592	0.274284
H173	H	0.978317	-0.352190	-0.945020
H174	H	1.478317	0.147810	-0.445020
H175	H	0.667017	-0.576562	-0.374666
H176	H	1.167017	-0.076562	0.125334
H177	H	0.978310	-0.352411	-0.541384
H178	H	1.478310	0.147589	-0.041384
O179	O	0.895263	-0.644820	-0.870511
O180	O	1.395263	-0.144820	-0.370511
H181	H	0.891798	-0.705268	-0.836767
H182	H	1.391798	-0.205268	-0.336767
H183	H	0.978306	-0.352340	-0.660091
H184	H	1.478306	0.147660	-0.160091
H185	H	0.914593	-0.306560	-0.743151
H186	H	1.414593	0.193440	-0.243151
O187	O	0.915886	-0.283513	-0.870503
O188	O	1.415886	0.216487	-0.370503
H189	H	0.915040	-0.298082	-0.921500
H190	H	1.415040	0.201918	-0.421500
H191	H	0.548311	-0.576517	-0.374713
H192	H	1.048311	-0.076517	0.125287
O193	O	0.988905	-0.335814	-1.072392
O194	O	1.488905	0.164186	-0.572392
H195	H	1.038075	-0.352360	-1.059879
H196	H	1.538075	0.147640	-0.559879
O197	O	0.272039	-0.592757	-0.385386
O198	O	0.772039	-0.092757	0.114614
H199	H	0.238305	-0.635696	-0.413218
H200	H	0.738305	-0.135696	0.086782
O201	O	0.895261	-0.644894	-0.734497
O202	O	1.395261	-0.144894	-0.234497
H203	H	0.891815	-0.705311	-0.768240
H204	H	1.391815	-0.205311	-0.268240
