data_functionalizedCrystal
_audit_creation_method	'MofGen! by Chris Wilmer'
_symmetry_space_group_name_H-M	'P1'
_symmetry_Int_Tables_number	1
_symmetry_cell_setting	triclinic
loop_
_symmetry_equiv_pos_as_xyz
  x,y,z
_cell_length_a	13.033293
_cell_length_b	13.897448
_cell_length_c	13.032268
_cell_angle_alpha	97.148041
_cell_angle_beta	89.079182
_cell_angle_gamma	97.187372
loop_
_atom_site_label
_atom_site_type_symbol
_atom_site_fract_x
_atom_site_fract_y
_atom_site_fract_z
Zn1	Zn	1.498462	-0.300097	-0.781480
Zn2	Zn	1.520205	-0.438715	-0.609506
Zn3	Zn	1.348322	-0.295004	-0.587656
Zn4	Zn	1.326456	-0.478925	-0.759546
O5	O	1.423361	-0.378185	-0.684547
O6	O	1.645265	-0.303789	-0.776992
O7	O	1.515655	-0.400691	-0.462699
O8	O	1.368291	-0.160696	-0.613402
O9	O	1.661239	-0.405630	-0.650643
O10	O	1.478598	-0.164438	-0.755804
O11	O	1.389374	-0.295107	-0.446646
O12	O	1.201503	-0.334098	-0.592134
O13	O	1.331022	-0.474163	-0.906364
O14	O	1.185438	-0.469224	-0.718420
O15	O	1.457394	-0.342779	-0.922479
O16	O	1.494452	-0.579032	-0.629374
O17	O	1.352105	-0.608575	-0.739608
C18	C	1.156154	-0.405472	-0.650526
C19	C	1.041838	-0.417172	-0.635996
C20	C	0.982956	-0.372103	-0.692130
C21	C	0.864805	-0.384195	-0.677114
C22	C	1.423290	-0.628803	-0.684508
C23	C	1.423349	-0.736014	-0.684537
C24	C	1.423449	-0.932306	-0.684616
C25	C	1.423390	-0.823076	-0.684575
C26	C	1.691612	-0.350792	-0.718701
C27	C	1.805925	-0.339119	-0.733256
C28	C	1.389344	-0.413525	-0.952779
C29	C	1.374847	-0.428585	-1.067083
C30	C	1.423458	-0.126589	-0.684613
C31	C	1.423499	-0.019373	-0.684641
C32	C	1.430911	-0.370293	-1.126017
C33	C	1.415930	-0.385856	-1.244156
C34	C	1.457306	-0.342907	-0.417367
C35	C	1.472001	-0.327556	-0.303088
H36	H	0.827749	-0.431733	-0.617933
H37	H	0.842979	-0.291573	-0.792430
H38	H	1.020017	-0.324562	-0.751301
C39	C	1.551832	-0.244565	-1.253113
H40	H	1.551435	-0.244993	-1.180267
H41	H	1.534597	-0.183587	-1.268769
H42	H	1.618721	-0.253929	-1.279461
C43	C	0.991789	-0.481392	-0.556053
H44	H	1.044052	-0.508095	-0.522777
H45	H	0.944897	-0.532907	-0.590023
H46	H	0.955553	-0.442784	-0.506021
H47	H	1.489996	-0.308861	-1.089009
H48	H	1.315751	-0.490007	-1.104089
H49	H	1.356830	-0.447283	-1.281158
