data_functionalizedCrystal
_audit_creation_method	'MofGen! by Chris Wilmer'
_symmetry_space_group_name_H-M	'P1'
_symmetry_Int_Tables_number	1
_symmetry_cell_setting	triclinic
loop_
_symmetry_equiv_pos_as_xyz
  x,y,z
_cell_length_a	17.699083
_cell_length_b	10.654550
_cell_length_c	9.730223
_cell_angle_alpha	89.998521
_cell_angle_beta	90.002740
_cell_angle_gamma	83.883971
loop_
_atom_site_label
_atom_site_type_symbol
_atom_site_fract_x
_atom_site_fract_y
_atom_site_fract_z
O1	O	1.005084	0.158805	-0.114088
O2	O	1.505084	0.658805	0.385912
O3	O	0.784837	0.179467	-0.114132
O4	O	1.284837	0.679467	0.385868
O5	O	0.900024	-0.013692	-0.114110
O6	O	1.400024	0.486308	0.385890
O7	O	0.889897	0.351964	-0.114110
O8	O	1.389897	0.851964	0.385890
O9	O	0.900017	-0.013697	0.114470
O10	O	1.400017	0.486303	0.614470
O11	O	0.784830	0.179462	0.114448
O12	O	1.284830	0.679462	0.614448
O13	O	1.005077	0.158800	0.114492
O14	O	1.505077	0.658800	0.614492
Zn15	Zn	0.894952	0.169130	0.150762
Zn16	Zn	1.394952	0.669130	0.650762
Zn17	Zn	0.894962	0.169137	-0.150402
Zn18	Zn	1.394962	0.669137	0.349598
O19	O	0.889889	0.351959	0.114470
O20	O	1.389889	0.851959	0.614470
C21	C	0.756632	0.178724	0.000152
C22	C	1.256632	0.678724	0.500152
C23	C	0.672599	0.176503	0.000135
C24	C	1.172599	0.676503	0.500135
C25	C	0.899277	-0.060479	0.000176
C26	C	1.399277	0.439521	0.500176
C27	C	0.897052	-0.199884	0.000166
C28	C	1.397052	0.300116	0.500166
C29	C	0.893913	-0.396366	-0.124423
C30	C	1.393913	0.103634	0.375577
C31	C	0.896011	-0.265383	-0.124431
C32	C	1.396011	0.234617	0.375569
C33	C	0.896003	-0.265376	0.124780
C34	C	1.396003	0.234624	0.624780
C35	C	0.893911	-0.396359	0.124786
C36	C	1.393911	0.103641	0.624786
C37	C	0.624699	0.289883	0.000135
C38	C	1.124699	0.789883	0.500135
C39	C	0.545743	0.287788	0.000153
C40	C	1.045743	0.787788	0.500153
C41	C	0.514688	0.172313	0.000161
C42	C	1.014688	0.672313	0.500161
C43	C	0.562594	0.058924	0.000164
C44	C	1.062594	0.558924	0.500164
C45	C	0.641549	0.061020	0.000156
C46	C	1.141549	0.561020	0.500156
C47	C	0.244177	0.050470	0.000198
C48	C	0.744177	0.550470	0.500198
C49	C	0.165216	0.048383	0.000202
C50	C	0.665216	0.548383	0.500202
C51	C	0.148371	0.277239	0.000195
C52	C	0.648371	0.777239	0.500195
C53	C	0.227326	0.279334	0.000187
C54	C	0.727326	0.779334	0.500187
C55	C	0.275225	0.165946	0.000198
C56	C	0.775225	0.665946	0.500198
C57	C	0.360839	0.168219	0.000181
C58	C	0.860839	0.668219	0.500181
C59	C	0.429076	0.170039	0.000168
C60	C	0.929076	0.670039	0.500168
C61	C	1.033282	0.159543	0.000204
C62	C	1.533282	0.659543	0.500204
C63	C	1.117314	0.161764	0.000212
C64	C	1.617314	0.661764	0.500212
C65	C	0.890637	0.398746	0.000180
C66	C	1.390637	0.898746	0.500180
C67	C	0.892861	0.538151	0.000181
C68	C	1.392861	1.038151	0.500181
N69	N	0.894951	0.169125	0.356298
N70	N	1.394951	0.669125	0.856298
N71	N	0.894969	0.169132	-0.355939
N72	N	1.394969	0.669132	0.144061
C73	C	0.945973	0.083630	0.428234
C74	C	1.445973	0.583630	0.928234
C75	C	0.945981	0.083630	0.572117
C76	C	1.445981	0.583630	1.072117
C77	C	0.843941	0.254631	0.572116
C78	C	1.343941	0.754631	1.072116
C79	C	0.843930	0.254624	0.428235
C80	C	1.343930	0.754624	0.928235
H81	H	0.893058	-0.449685	-0.225884
H82	H	1.393058	0.050315	0.274116
H83	H	0.252606	0.373366	0.000175
H84	H	0.752606	0.873366	0.500175
H85	H	0.537303	-0.035098	0.000190
H86	H	1.037303	0.464902	0.500190
H87	H	0.987516	0.014009	0.369666
H88	H	1.487516	0.514009	0.869666
Cl89	Cl	0.892594	-0.478688	0.281444
Cl90	Cl	1.392594	0.021312	0.781444
Cl91	Cl	1.010124	-0.023856	0.662546
Cl92	Cl	1.510124	0.476144	1.162546
Cl93	Cl	0.701767	-0.081521	0.000162
Cl94	Cl	1.201767	0.418479	0.500162
H95	H	0.802402	0.324245	0.630701
H96	H	1.302402	0.824245	1.130701
H97	H	0.802378	0.324245	0.369661
H98	H	1.302378	0.824245	0.869661
Cl99	Cl	0.897317	-0.183035	0.281417
Cl100	Cl	1.397317	0.316965	0.781417
Cl101	Cl	0.897335	-0.183067	-0.281083
Cl102	Cl	1.397335	0.316933	0.218917
H103	H	0.649978	0.383916	0.000128
H104	H	1.149978	0.883916	0.500128
Cl105	Cl	0.485528	0.430330	0.000145
Cl106	Cl	0.985528	0.930330	0.500145
H107	H	0.109361	0.369564	0.000194
H108	H	0.609361	0.869564	0.500194
Cl109	Cl	0.126177	-0.096798	0.000213
Cl110	Cl	0.626177	0.403202	0.500213
H111	H	0.283168	-0.041858	0.000208
H112	H	0.783168	0.458142	0.500208
