data_functionalizedCrystal
_audit_creation_method	'MofGen! by Chris Wilmer'
_symmetry_space_group_name_H-M	'P1'
_symmetry_Int_Tables_number	1
_symmetry_cell_setting	triclinic
loop_
_symmetry_equiv_pos_as_xyz
  x,y,z
_cell_length_a	16.625548
_cell_length_b	16.625545
_cell_length_c	12.759393
_cell_angle_alpha	90.033904
_cell_angle_beta	90.021668
_cell_angle_gamma	90.026626
loop_
_atom_site_label
_atom_site_type_symbol
_atom_site_fract_x
_atom_site_fract_y
_atom_site_fract_z
Zn1	Zn	1.232672	-0.320931	0.594053
Zn2	Zn	1.732672	0.179069	1.094053
Zn3	Zn	1.232565	-0.455788	0.418366
Zn4	Zn	1.732565	0.044212	0.918366
Zn5	Zn	1.097831	-0.320975	0.418383
Zn6	Zn	1.597831	0.179025	0.918383
Zn7	Zn	1.097797	-0.455728	0.593998
Zn8	Zn	1.597797	0.044272	1.093998
O9	O	1.165216	-0.388356	0.506200
O10	O	1.665216	0.111644	1.006200
O11	O	1.345490	-0.338827	0.570764
O12	O	1.845490	0.161173	1.070764
O13	O	1.214662	-0.437948	0.271347
O14	O	1.714662	0.062052	0.771347
O15	O	1.115777	-0.208137	0.441716
O16	O	1.615777	0.291863	0.941716
O17	O	1.345412	-0.437905	0.441688
O18	O	1.845412	0.062095	0.941688
O19	O	1.214844	-0.208105	0.570780
O20	O	1.714844	0.291895	1.070780
O21	O	1.115674	-0.338902	0.271359
O22	O	1.615674	0.161098	0.771359
O23	O	0.984994	-0.338844	0.441662
O24	O	1.484994	0.161156	0.941662
O25	O	1.115719	-0.437803	0.741026
O26	O	1.615719	0.062197	1.241026
O27	O	0.984969	-0.437846	0.570686
O28	O	1.484969	0.062154	1.070686
O29	O	1.214811	-0.338769	0.741067
O30	O	1.714811	0.161231	1.241067
O31	O	1.214629	-0.568612	0.441634
O32	O	1.714629	-0.068612	0.941634
O33	O	1.115615	-0.568568	0.570670
O34	O	1.615615	-0.068568	1.070670
C35	C	0.955725	-0.388344	0.506171
C36	C	1.455725	0.111656	1.006171
C37	C	0.866104	-0.388359	0.506183
C38	C	1.366104	0.111641	1.006183
C39	C	0.537929	-0.388364	0.506228
C40	C	1.037929	0.111636	1.006228
C41	C	0.629237	-0.388360	0.506212
C42	C	1.129237	0.111640	1.006212
C43	C	0.702014	-0.388362	0.506205
C44	C	1.202014	0.111638	1.006205
C45	C	0.793328	-0.388357	0.506190
C46	C	1.293328	0.111643	1.006190
C47	C	1.165129	-0.597846	0.506167
C48	C	1.665129	-0.097846	1.006167
C49	C	1.165165	-0.687468	0.506188
C50	C	1.665165	-0.187468	1.006188
C51	C	1.165196	-0.760250	0.506209
C52	C	1.665196	-0.260250	1.006209
C53	C	1.165243	-0.851558	0.506232
C54	C	1.665243	-0.351558	1.006232
C55	C	1.165285	-0.924335	0.506245
C56	C	1.665285	-0.424335	1.006245
C57	C	1.165331	-1.015649	0.506267
C58	C	1.665331	-0.515649	1.006267
C59	C	1.375525	-0.388368	0.506230
C60	C	1.875525	0.111632	1.006230
C61	C	1.465146	-0.388373	0.506243
C62	C	1.965146	0.111627	1.006243
C63	C	1.165273	-0.388274	0.780233
C64	C	1.665273	0.111726	1.280233
C65	C	1.165297	-0.388240	0.897010
C66	C	1.665297	0.111760	1.397010
C67	C	1.165326	-0.178047	0.506256
C68	C	1.665326	0.321953	1.006256
C69	C	1.165373	-0.088425	0.506280
C70	C	1.665373	0.411575	1.006280
C71	C	1.165206	-0.388378	0.233233
C72	C	1.665206	0.111622	0.733233
C73	C	1.165339	-0.388186	0.116456
C74	C	1.665339	0.111814	0.616456
C75	C	1.216901	-0.336667	0.951895
C76	C	1.716901	0.163333	1.451895
C77	C	1.216920	-0.336638	1.061619
C78	C	1.716920	0.163362	1.561619
C79	C	1.113729	-0.439760	1.061564
C80	C	1.613729	0.060240	1.561564
C81	C	1.113706	-0.439785	0.951842
C82	C	1.613706	0.060215	1.451842
C83	C	1.268492	-0.285122	0.897064
C84	C	1.768492	0.214878	1.397064
C85	C	1.320101	-0.233546	0.951949
C86	C	1.820101	0.266454	1.451949
C87	C	1.320120	-0.233517	1.061673
C88	C	1.820120	0.266483	1.561673
C89	C	1.268530	-0.285064	1.116512
C90	C	1.768530	0.214936	1.616512
H91	H	1.268484	-0.285142	0.807721
H92	H	1.768484	0.214858	1.307721
Br93	Br	1.043720	-0.509714	1.135988
Br94	Br	1.543720	-0.009714	1.635988
H95	H	1.362099	-0.191574	0.907291
H96	H	1.862099	0.308426	1.407291
Br97	Br	1.043667	-0.509774	0.877348
Br98	Br	1.543667	-0.009774	1.377348
H99	H	1.362137	-0.191516	1.106357
H100	H	1.862137	0.308484	1.606357
Br101	Br	1.268544	-0.285009	1.265425
Br102	Br	1.768544	0.214991	1.765425
