data_functionalizedCrystal
_audit_creation_method	'MofGen! by Chris Wilmer'
_symmetry_space_group_name_H-M	'P1'
_symmetry_Int_Tables_number	1
_symmetry_cell_setting	triclinic
loop_
_symmetry_equiv_pos_as_xyz
  x,y,z
_cell_length_a	21.606444
_cell_length_b	12.970454
_cell_length_c	21.606444
_cell_angle_alpha	120.001016
_cell_angle_beta	90.002216
_cell_angle_gamma	60.000552
loop_
_atom_site_label
_atom_site_type_symbol
_atom_site_fract_x
_atom_site_fract_y
_atom_site_fract_z
Zr1	Zr	0.596240	1.128516	0.081214
O2	O	0.497422	1.343602	0.180039
O3	O	0.626533	0.913426	0.050918
O4	O	0.626542	1.128511	0.180037
O5	O	0.497406	1.128523	-0.050929
O6	O	0.728394	1.128510	0.180035
O7	O	0.497413	1.128517	0.050921
O8	O	0.728378	0.743764	-0.050934
O9	O	0.497422	1.513269	0.180040
O10	O	0.715464	1.001897	0.037997
O11	O	0.639447	1.001901	-0.038012
O12	O	0.639458	1.255135	0.114009
O13	O	0.563442	1.255139	0.038000
Zr14	Zr	0.758671	1.128524	-0.081228
Zr15	Zr	0.758682	1.128515	0.081212
Zr16	Zr	0.596229	1.128524	-0.081226
Zr17	Zr	0.596240	1.399116	0.081215
Zr18	Zr	0.758671	0.857924	-0.081229
O19	O	0.728378	1.343613	-0.050932
O20	O	0.728394	1.343601	0.180036
O21	O	0.497406	1.343613	-0.050929
O22	O	0.857489	0.913438	-0.180053
O23	O	0.857505	0.913426	0.050915
O24	O	0.626517	0.913438	-0.180050
O25	O	0.857505	1.128517	0.050915
O26	O	0.728369	1.128529	-0.180051
O27	O	0.626517	1.128529	-0.180049
O28	O	0.857498	1.128522	-0.050935
O29	O	0.626542	1.513269	0.180038
O30	O	0.728369	0.743771	-0.180052
O31	O	0.857489	0.743770	-0.180054
O32	O	0.857498	0.743764	-0.050936
O33	O	0.497413	1.513276	0.050922
O34	O	0.626533	1.513275	0.050920
O35	O	0.715453	1.001905	-0.114023
O36	O	0.791469	1.001901	-0.038014
O37	O	0.715464	1.255139	0.037998
O38	O	0.639447	1.255143	-0.038011
C39	C	0.677455	0.790040	-0.000008
C40	C	0.677455	0.675164	-0.000008
C41	C	0.474265	1.128520	-0.000004
C42	C	0.405304	1.128520	-0.000003
C43	C	0.372910	1.128522	0.056109
C44	C	0.308116	1.128514	0.056107
C45	C	0.275714	1.128516	-0.000006
C46	C	0.308115	1.128510	-0.056124
C47	C	0.372911	1.128507	-0.056123
C48	C	0.046801	1.128521	-0.056126
C49	C	-0.018001	1.128528	-0.056121
C50	C	-0.017994	1.128528	0.056104
C51	C	0.046802	1.128525	0.056104
C52	C	0.079199	1.128511	-0.000016
C53	C	0.149457	1.128517	-0.000013
C54	C	0.205455	1.128521	-0.000006
C55	C	0.880646	1.128519	-0.000010
C56	C	0.949607	1.128519	-0.000011
C57	C	0.677469	1.128509	0.203180
C58	C	0.677474	1.128506	0.272140
C59	C	0.677456	1.466999	-0.000006
C60	C	0.677456	1.581876	-0.000006
C61	C	0.621329	1.128532	0.695445
C62	C	0.621335	1.128522	0.630646
C63	C	0.677450	1.128519	0.598251
C64	C	0.733567	1.128512	0.630654
C65	C	0.733563	1.128512	0.695449
C66	C	0.733585	1.128509	0.369342
C67	C	0.733583	1.128514	0.304544
C68	C	0.621357	1.128519	0.304539
C69	C	0.621353	1.128519	0.369334
C70	C	0.677471	1.128504	0.401729
C71	C	0.677465	1.128513	0.471991
C72	C	0.677455	1.128521	0.527993
C73	C	0.677442	1.128529	0.796806
C74	C	0.677440	1.128530	0.727845
C75	C	0.880646	0.790040	-0.000011
C76	C	0.949607	0.675163	-0.000013
C77	C	0.677441	0.790051	-0.203195
C78	C	0.677437	0.675178	-0.272155
C79	C	0.880632	0.790050	-0.203198
C80	C	0.949588	0.675177	-0.272160
C81	C	0.474279	1.466989	0.203184
C82	C	0.405323	1.581862	0.272146
C83	C	0.474265	1.466999	-0.000003
C84	C	0.405304	1.581876	-0.000001
C85	C	0.677470	1.466989	0.203181
C86	C	0.677474	1.581862	0.272141
C87	C	0.942317	0.621214	0.039670
C88	C	1.007107	0.513290	0.039684
C89	C	1.079186	0.459310	0.000010
C90	C	1.086474	0.513270	-0.039674
C91	C	1.021685	0.621199	-0.039683
C92	C	0.717109	0.621234	-0.344224
C93	C	0.717101	0.513313	-0.409025
C94	C	0.677426	0.459331	-0.401757
C95	C	0.637749	0.513286	-0.329681
C96	C	0.637752	0.621211	-0.264881
C97	C	1.021657	0.621229	-0.264869
C98	C	1.086455	0.513309	-0.329659
C99	C	1.079182	0.459330	-0.401739
C100	C	1.007105	0.513289	-0.409029
C101	C	0.942309	0.621215	-0.344239
C102	C	0.333254	1.635823	0.264855
C103	C	0.268456	1.743777	0.329645
C104	C	0.275729	1.797761	0.401725
C105	C	0.347806	1.743796	0.409015
C106	C	0.412602	1.635851	0.344225
C107	C	0.412594	1.635837	-0.039678
C108	C	0.347804	1.743791	-0.039674
C109	C	0.275725	1.797775	0.000003
C110	C	0.268437	1.743810	0.039684
C111	C	0.333226	1.635865	0.039684
C112	C	0.717157	1.635810	0.264849
C113	C	0.717177	1.743731	0.329638
C114	C	0.677508	1.797710	0.401719
C115	C	0.637824	1.743751	0.409010
C116	C	0.637809	1.635824	0.344222
H117	H	0.399284	1.128529	0.101805
H118	H	0.222961	1.885657	0.454475
H119	H	0.327281	1.591933	0.071991
H120	H	1.131949	0.371450	-0.454489
H121	H	1.027593	0.665163	-0.206183
H122	H	0.677526	1.885591	0.454468
C123	C	0.760830	1.803072	0.321601
N124	N	0.793709	1.847766	0.315545
C125	C	0.272490	1.128450	-0.117867
N126	N	0.245662	1.128389	-0.164378
C127	C	0.559597	1.128534	0.731073
N128	N	0.513100	1.128529	0.757904
C129	C	0.594222	1.803092	0.488307
N130	N	0.561390	1.847777	0.548035
H131	H	1.001195	0.469324	-0.467725
H132	H	0.471282	1.591917	0.350170
H133	H	0.073179	1.128531	0.101798
H134	H	0.281741	1.128514	0.101797
C135	C	1.150449	0.340574	0.000022
N136	N	1.204122	0.251136	0.000030
H137	H	0.779256	1.128507	0.721827
H138	H	0.353753	1.787711	-0.071990
C139	C	0.559629	1.128517	0.268893
N140	N	0.513137	1.128517	0.242046
C141	C	0.795331	1.128446	0.404955
N142	N	0.841847	1.128380	0.431774
C143	C	-0.053631	1.128524	0.117832
N144	N	-0.080471	1.128522	0.164324
C145	C	-0.053637	1.128517	-0.117856
N146	N	-0.080478	1.128506	-0.164353
H147	H	0.605491	1.591912	0.350170
H148	H	0.471278	1.591891	-0.071992
H149	H	0.749460	1.591877	0.206163
C150	C	0.760759	0.453970	-0.488301
N151	N	0.793645	0.409271	-0.548010
C152	C	1.165732	0.453961	-0.321624
N153	N	1.225441	0.409260	-0.315569
C154	C	0.999073	0.453941	0.083334
N155	N	0.993020	0.409239	0.116209
H156	H	0.073172	1.128514	-0.101820
C157	C	0.355793	1.803181	0.488310
N158	N	0.361807	1.847904	0.548038
C159	C	0.863034	0.680543	-0.352272
N160	N	0.803325	0.725225	-0.358328
H161	H	0.883633	0.665163	0.071987
H162	H	0.327318	1.591875	0.206169
C163	C	0.677438	0.340595	-0.473047
N164	N	0.677453	0.251156	-0.526745
C165	C	1.165768	0.453865	-0.083319
N166	N	1.225494	0.409110	-0.116197
C167	C	0.408544	1.128507	-0.117851
N168	N	0.435383	1.128502	-0.164348
C169	C	0.204462	1.916511	-0.000009
N170	N	0.150789	2.005939	-0.000023
C171	C	0.795305	1.128473	0.595006
N172	N	0.841810	1.128438	0.568155
C173	C	0.189179	1.803117	0.321610
N174	N	0.129469	1.847809	0.315555
H175	H	0.575646	1.128522	0.604265
H176	H	0.209742	1.787780	0.071987
H177	H	0.779282	1.128509	0.278169
C178	C	0.559623	1.128517	0.404964
N179	N	0.513130	1.128507	0.431796
H180	H	1.027630	0.665111	-0.072002
H181	H	0.749417	0.665174	-0.350156
C182	C	0.594117	0.680522	-0.185607
N183	N	0.561249	0.725187	-0.125899
C184	C	0.594113	0.453881	-0.321699
N185	N	0.561251	0.409127	-0.315689
