data_functionalizedCrystal
_audit_creation_method	'MofGen! by Chris Wilmer'
_symmetry_space_group_name_H-M	'P1'
_symmetry_Int_Tables_number	1
_symmetry_cell_setting	triclinic
loop_
_symmetry_equiv_pos_as_xyz
  x,y,z
_cell_length_a	12.594517
_cell_length_b	15.297327
_cell_length_c	15.298259
_cell_angle_alpha	91.656652
_cell_angle_beta	99.658443
_cell_angle_gamma	80.293213
loop_
_atom_site_label
_atom_site_type_symbol
_atom_site_fract_x
_atom_site_fract_y
_atom_site_fract_z
Zn1	Zn	1.460080	0.262973	-0.555598
Zn2	Zn	1.449581	0.434822	-0.434459
Zn3	Zn	1.306797	0.288362	-0.409142
Zn4	Zn	1.246974	0.409416	-0.580877
O5	O	1.365858	0.348893	-0.495019
O6	O	1.607628	0.285777	-0.539545
O7	O	1.451283	0.436651	-0.308531
O8	O	1.356561	0.162413	-0.407395
O9	O	1.599914	0.412033	-0.450544
O10	O	1.469177	0.143760	-0.514996
O11	O	1.346380	0.329047	-0.289931
O12	O	1.149921	0.304412	-0.431907
O13	O	1.254600	0.368732	-0.700093
O14	O	1.105968	0.393350	-0.558080
O15	O	1.411168	0.261142	-0.681521
O16	O	1.393274	0.554032	-0.475056
O17	O	1.244419	0.535367	-0.582629
C18	C	1.089325	0.348880	-0.494990
C19	C	0.971015	0.348892	-0.495002
C20	C	1.311241	0.576480	-0.534352
C21	C	1.287969	0.673838	-0.551208
C22	C	1.327382	0.309271	-0.723477
C23	C	1.310986	0.292387	-0.820832
C24	C	0.925637	0.300419	-0.426474
C25	C	0.839311	0.384049	-0.418744
C26	C	0.846530	0.265298	-0.502754
C27	C	0.886245	0.432571	-0.487238
C28	C	0.893476	0.313760	-0.571275
C29	C	0.807164	0.397440	-0.563585
C30	C	1.643470	0.348907	-0.495049
C31	C	1.761771	0.348913	-0.495061
C32	C	1.420713	0.120414	-0.455551
C33	C	1.444089	0.023050	-0.438733
C34	C	1.532580	0.986994	-0.374844
C35	C	1.554446	0.895522	-0.359002
C36	C	1.487829	0.840097	-0.407053
C37	C	1.399341	0.876152	-0.470947
C38	C	1.377468	0.967633	-0.486785
C39	C	1.332717	0.820736	-0.518994
C40	C	1.244229	0.856791	-0.582888
C41	C	1.222361	0.948263	-0.598724
C42	C	1.288978	1.003689	-0.550674
C43	C	1.354590	0.729255	-0.503156
C44	C	1.199478	0.709894	-0.615097
C45	C	1.177612	0.801365	-0.630939
C46	C	1.483239	0.468895	-1.133990
C47	C	1.498637	0.484764	-1.042521
C48	C	1.451726	0.436671	-0.987094
C49	C	1.389414	0.372706	-1.023145
C50	C	1.374007	0.356840	-1.114624
C51	C	1.342494	0.324616	-0.967728
C52	C	1.280181	0.260651	-1.003779
C53	C	1.264778	0.244788	-1.095249
C54	C	1.311689	0.292881	-1.150676
C55	C	1.357901	0.340482	-0.876250
C56	C	1.248668	0.228427	-0.856884
C57	C	1.233270	0.212558	-0.948353
C58	C	1.404260	0.388298	-0.267439
C59	C	1.420922	0.404935	-0.170042
H60	H	0.815241	0.413777	-0.354268
H61	H	1.426637	0.699907	-0.451132
H62	H	1.182535	0.160477	-0.977719
H63	H	1.214027	0.192711	-1.124600
N64	N	1.562306	0.550090	-1.005719
N65	N	1.660189	0.542506	-1.014954
H66	H	1.705163	0.588645	-0.988966
N67	N	0.923743	0.276455	-0.652126
N68	N	0.960940	0.321988	-0.702565
H69	H	0.982322	0.295633	-0.759665
N70	N	1.421564	0.405799	-0.839413
N71	N	1.435322	0.419956	-0.757740
H72	H	1.480293	0.466087	-0.731723
H73	H	0.828523	0.194609	-0.509259
H74	H	0.904077	0.503307	-0.480633
N75	N	1.200745	0.179309	-0.800265
N76	N	1.214507	0.193484	-0.718594
H77	H	1.180662	0.158800	-0.678602
H78	H	1.299159	0.279961	-1.225158
N79	N	1.531130	0.518016	-1.190619
N80	N	1.517357	0.503844	-1.272290
H81	H	1.551181	0.538541	-1.312288
N82	N	0.989898	0.249073	-0.353705
N83	N	0.978562	0.270723	-0.275973
H84	H	1.023945	0.234464	-0.224578
H85	H	1.505637	0.765617	-0.394150
H86	H	0.756107	0.438498	-0.621572
N87	N	1.467484	0.452880	-0.893662
N88	N	1.561787	0.441663	-0.849690
H89	H	1.572926	0.453111	-0.783699
N90	N	1.644827	0.858710	-0.293735
N91	N	1.704298	0.908203	-0.250838
H92	H	1.768135	0.882205	-0.204739
N93	N	1.600598	1.043622	-0.325767
N94	N	1.581050	1.125295	-0.339914
H95	H	1.629090	1.165291	-0.305249
H96	H	1.271181	1.078173	-0.563571
N97	N	1.131959	0.985081	-0.663982
N98	N	1.072485	0.935590	-0.706878
H99	H	1.008637	0.961591	-0.752966
N100	N	1.087221	0.838217	-0.696189
N101	N	1.012414	0.894677	-0.674163
H102	H	0.948574	0.920706	-0.720245
H103	H	1.145231	0.664766	-0.654222
