data_functionalizedCrystal
_audit_creation_method	'MofGen! by Chris Wilmer'
_symmetry_space_group_name_H-M	'P1'
_symmetry_Int_Tables_number	1
_symmetry_cell_setting	triclinic
loop_
_symmetry_equiv_pos_as_xyz
  x,y,z
_cell_length_a	6.817900
_cell_length_b	11.102289
_cell_length_c	17.110486
_cell_angle_alpha	95.184084
_cell_angle_beta	99.060439
_cell_angle_gamma	108.605707
loop_
_atom_site_label
_atom_site_type_symbol
_atom_site_fract_x
_atom_site_fract_y
_atom_site_fract_z
V1	V	-4.002964	-0.175461	-0.246720
O2	O	-3.964063	0.008821	-0.242024
O3	O	-3.980483	-0.348283	-0.245032
O4	O	-3.932395	-0.172591	-0.354323
O5	O	-4.012484	-0.168088	-0.131976
V6	V	-4.486106	-0.153439	-0.232996
O7	O	-4.265058	-0.223768	-0.276825
O8	O	-4.674209	-0.105131	-0.202890
O9	O	-4.285380	0.019384	-0.234683
O10	O	-4.642403	-0.337720	-0.237692
O11	O	-4.593982	-0.160811	-0.347739
O12	O	-4.333468	-0.156308	-0.125393
C13	C	-3.832507	-0.390419	-0.241140
C14	C	-3.895266	-0.531703	-0.240478
C15	C	-4.107020	-0.604546	-0.244114
C16	C	-4.165979	-0.737298	-0.243498
C17	C	-3.801407	-0.724352	-0.235607
C18	C	-3.742453	-0.591604	-0.236228
C19	C	-4.317502	-0.612020	-0.248667
C20	C	-4.376461	-0.744773	-0.248051
C21	C	-3.771165	-0.166304	-0.380550
C22	C	-3.794922	-0.165101	-0.468517
C23	C	-3.988322	-0.170879	-0.513874
C24	C	-4.010632	-0.169748	-0.596528
C25	C	-3.839545	-0.162848	-0.633822
C26	C	-3.646128	-0.157066	-0.588458
C27	C	-3.623816	-0.158188	-0.505806
C28	C	-3.897793	-0.159135	-0.883177
C29	C	-3.920123	-0.158018	-0.965836
C30	C	-4.284625	-0.170697	-0.973900
C31	C	-4.262299	-0.171826	-0.891246
C32	C	-4.068882	-0.166037	-0.845889
C33	C	-3.862348	-0.161696	-0.718308
C34	C	-4.046078	-0.167181	-0.761404
C35	C	-4.096699	0.061513	-0.238573
C36	C	-4.013178	0.202796	-0.239241
C37	C	-4.158042	-0.162599	-0.099161
C38	C	-4.113522	-0.163796	-0.011194
H39	H	-4.404045	-0.592711	-0.306215
H40	H	-4.401620	-0.177444	-0.860887
H41	H	-4.442097	-0.175408	-1.010839
H42	H	-4.185372	-0.172794	-0.731035
O43	O	-4.502995	-0.813515	-0.318022
C44	C	-4.680111	-0.806705	-0.450181
C45	C	-4.536854	-0.728696	-0.370976
H46	H	-4.707494	-0.738162	-0.493022
H47	H	-4.837979	-0.868652	-0.437962
H48	H	-4.600783	-0.871070	-0.478216
H49	H	-4.615994	-0.664259	-0.342900
H50	H	-4.378996	-0.666833	-0.383245
H51	H	-3.466317	-0.153452	-0.468873
H52	H	-4.168112	-0.174446	-0.633454
H53	H	-3.780790	-0.152395	-0.996198
H54	H	-4.451554	-0.769825	-0.193998
O55	O	-4.347061	-0.548816	-0.182073
C56	C	-4.462690	-0.566012	-0.056239
C57	C	-4.429392	-0.637757	-0.131629
H58	H	-4.529218	-0.637887	-0.015426
H59	H	-4.578182	-0.513767	-0.074364
H60	H	-4.305159	-0.493242	-0.023087
H61	H	-4.586817	-0.710589	-0.164815
H62	H	-4.313806	-0.689916	-0.113451
H63	H	-3.740326	-0.154467	-0.846261
H64	H	-3.506824	-0.151441	-0.618829
H65	H	-4.127648	-0.176506	-0.483516
O66	O	-3.696237	-0.154837	-0.754614
C67	C	-3.457382	-0.035582	-0.832484
C68	C	-3.645537	-0.043211	-0.791414
H69	H	-3.416305	0.054674	-0.862232
H70	H	-3.501075	-0.124019	-0.879700
H71	H	-3.315366	-0.031716	-0.785866
H72	H	-3.787630	-0.047037	-0.837973
H73	H	-3.601670	0.045224	-0.744182
H74	H	-3.570031	-0.532302	-0.233277
H75	H	-3.677001	-0.773140	-0.232148
