data_functionalizedCrystal
_audit_creation_method	'MofGen! by Chris Wilmer'
_symmetry_space_group_name_H-M	'P1'
_symmetry_Int_Tables_number	1
_symmetry_cell_setting	triclinic
loop_
_symmetry_equiv_pos_as_xyz
  x,y,z
_cell_length_a	10.654562
_cell_length_b	23.532407
_cell_length_c	9.730223
_cell_angle_alpha	89.990210
_cell_angle_beta	89.996961
_cell_angle_gamma	83.669425
loop_
_atom_site_label
_atom_site_type_symbol
_atom_site_fract_x
_atom_site_fract_y
_atom_site_fract_z
O1	O	1.665290	0.080017	-0.114409
O2	O	1.299572	0.087630	-0.114394
O3	O	1.493459	0.000964	-0.114364
O4	O	1.471403	0.166683	-0.114440
O5	O	1.493457	0.000966	0.114216
O6	O	1.299570	0.087632	0.114185
O7	O	1.665287	0.080019	0.114171
Zn8	Zn	1.482428	0.083826	0.150470
Zn9	Zn	1.482431	0.083823	-0.150694
O10	O	1.471400	0.166685	0.114140
C11	C	1.252791	0.087070	-0.000102
C12	C	1.113402	0.085393	-0.000095
C13	C	1.047894	0.084612	0.124494
C14	C	0.916922	0.083041	0.124472
C15	C	0.916975	0.083035	-0.124739
C16	C	1.047946	0.084602	-0.124715
C17	C	1.047862	0.084619	0.268374
C18	C	0.916890	0.083048	0.268351
C19	C	1.492896	-0.020255	-0.000067
C20	C	1.491207	-0.083483	-0.000046
C21	C	1.369505	-0.350446	-0.000127
C22	C	1.371074	-0.291035	-0.000116
O23	O	1.274529	-0.254922	-0.000156
N24	N	1.486340	-0.267656	-0.000105
C25	C	1.600044	-0.303690	-0.000118
O26	O	1.698231	-0.278349	-0.000109
C27	C	1.598474	-0.363100	-0.000138
C28	C	1.483201	-0.386476	-0.000136
C29	C	1.254241	-0.373823	-0.000125
C30	C	1.252673	-0.433229	-0.000133
C31	C	1.366369	-0.469259	-0.000143
C32	C	1.481633	-0.445882	-0.000144
C33	C	1.712177	-0.399133	-0.000161
C34	C	1.710597	-0.458546	-0.000183
C35	C	1.595324	-0.481922	-0.000180
C36	C	1.593760	-0.541318	-0.000161
N37	N	1.478495	-0.564698	-0.000172
C38	C	1.364799	-0.528668	-0.000163
C39	C	1.603332	-0.178926	-0.000078
C40	C	1.604904	-0.119518	-0.000048
C41	C	1.375933	-0.106867	-0.000048
C42	C	1.374363	-0.166277	-0.000069
C43	C	1.488067	-0.202306	-0.000089
C44	C	1.361514	-0.653426	-0.000178
C45	C	1.359956	-0.712839	-0.000181
C46	C	1.588926	-0.725484	-0.000187
C47	C	1.590485	-0.666077	-0.000178
C48	C	1.476769	-0.630049	-0.000178
O49	O	1.690255	-0.577467	-0.000127
O50	O	1.266628	-0.554018	-0.000190
C51	C	1.712068	0.080578	-0.000124
C52	C	1.851458	0.082255	-0.000141
C53	C	1.471963	0.187904	-0.000160
C54	C	1.473652	0.251132	-0.000190
N55	N	1.482435	0.083827	0.356007
N56	N	1.482434	0.083817	-0.356230
C57	C	1.568310	0.045465	0.427946
C58	C	1.568307	0.045458	0.571829
C59	C	1.396550	0.122181	0.571820
C60	C	1.396548	0.122185	0.427940
C61	C	1.667476	0.001171	0.427953
C62	C	1.667473	0.001164	0.571836
H63	H	0.863665	0.082390	-0.226200
O64	O	1.787669	0.019543	0.368802
H65	H	1.835040	-0.015465	0.304612
H66	H	1.280497	-0.185305	-0.000061
H67	H	1.681494	-0.754830	-0.000188
O68	O	1.640897	-0.056804	0.376228
H69	H	1.627873	-0.085189	0.465013
H70	H	1.283356	-0.077521	-0.000040
O71	O	1.110808	0.032492	0.341580
H72	H	1.037756	0.005725	0.377389
O73	O	1.836518	-0.373937	-0.000183
H74	H	1.842748	-0.347187	0.092990
H75	H	1.638271	-0.040200	0.616472
H76	H	0.888617	0.041516	0.313016
O77	O	1.128339	-0.458435	-0.000149
H78	H	1.122124	-0.485206	0.093014
H79	H	1.266083	-0.731868	-0.000172
H80	H	1.698771	-0.100491	-0.000028
H81	H	1.684350	-0.647044	-0.000160
O82	O	1.725977	-0.217786	-0.000065
H83	H	1.806383	-0.191543	-0.000037
O84	O	1.833237	-0.497407	-0.000190
H85	H	1.913648	-0.471167	-0.000175
O86	O	1.085316	0.139622	0.327524
H87	H	0.999255	0.167516	0.358866
H88	H	1.326612	0.153418	0.369368
H89	H	1.763675	0.010923	0.610877
H90	H	1.101280	0.085229	-0.226167
H91	H	1.326623	0.153410	0.630404
O92	O	0.853899	0.135177	0.341479
H93	H	0.876881	0.174306	0.287627
H94	H	1.268915	-0.624099	-0.000179
H95	H	1.161651	-0.344492	-0.000123
