data_functionalizedCrystal
_audit_creation_method	'MofGen! by Chris Wilmer'
_symmetry_space_group_name_H-M	'P1'
_symmetry_Int_Tables_number	1
_symmetry_cell_setting	triclinic
loop_
_symmetry_equiv_pos_as_xyz
  x,y,z
_cell_length_a	6.817900
_cell_length_b	12.000032
_cell_length_c	14.125286
_cell_angle_alpha	92.871923
_cell_angle_beta	100.396688
_cell_angle_gamma	119.142083
loop_
_atom_site_label
_atom_site_type_symbol
_atom_site_fract_x
_atom_site_fract_y
_atom_site_fract_z
V1	V	-4.077805	-0.175873	-0.301604
O2	O	-3.974875	0.009467	-0.294193
O3	O	-4.115024	-0.349704	-0.301147
O4	O	-4.012408	-0.172722	-0.432411
O5	O	-4.078202	-0.168740	-0.162020
V6	V	-4.552542	-0.153757	-0.284713
O7	O	-4.358338	-0.224387	-0.338654
O8	O	-4.722206	-0.105243	-0.247663
O9	O	-4.292116	0.020074	-0.285171
O10	O	-4.772869	-0.339097	-0.292124
O11	O	-4.669542	-0.160891	-0.424297
O12	O	-4.394733	-0.156908	-0.153906
C13	C	-3.981404	-0.392094	-0.296803
C14	C	-4.093008	-0.534200	-0.297301
C15	C	-3.967201	-0.591384	-0.292903
C16	C	-4.082546	-0.738258	-0.293418
C17	C	-3.850504	-0.166335	-0.464243
C18	C	-3.878885	-0.164909	-0.571189
C19	C	-4.118930	-0.167500	-0.819334
C20	C	-3.930797	-0.162129	-0.766971
C21	C	-3.901914	-0.163676	-0.658028
C22	C	-4.147821	-0.165953	-0.928288
C23	C	-4.089082	0.062457	-0.289512
C24	C	-3.956716	0.204562	-0.289020
C25	C	-4.219981	-0.163300	-0.122069
C26	C	-4.170836	-0.164719	-0.015122
H27	H	-3.774098	-0.531606	-0.288752
H28	H	-4.258293	-0.173260	-0.782348
H29	H	-4.275652	-0.798029	-0.297554
H30	H	-3.763604	-0.735666	-0.284870
H31	H	-3.791421	-0.156366	-0.803959
C32	C	-4.353885	-0.614951	-0.302907
N33	N	-4.550383	-0.675773	-0.307133
