data_functionalizedCrystal
_audit_creation_method	'MofGen! by Chris Wilmer'
_symmetry_space_group_name_H-M	'P1'
_symmetry_Int_Tables_number	1
_symmetry_cell_setting	triclinic
loop_
_symmetry_equiv_pos_as_xyz
  x,y,z
_cell_length_a	34.408637
_cell_length_b	34.407814
_cell_length_c	34.404193
_cell_angle_alpha	60.004510
_cell_angle_beta	60.009006
_cell_angle_gamma	59.994604
loop_
_atom_site_label
_atom_site_type_symbol
_atom_site_fract_x
_atom_site_fract_y
_atom_site_fract_z
O1	O	0.053973	-0.567860	0.474801
O2	O	0.553973	-0.067860	0.974801
O3	O	0.020377	-0.442124	0.382567
O4	O	0.520377	0.057876	0.882567
O5	O	0.100004	-0.521670	0.382483
O6	O	0.600004	-0.021670	0.882483
O7	O	-0.025653	-0.488314	0.474886
O8	O	0.474347	0.011686	0.974886
O9	O	0.126426	-0.495253	0.408816
O10	O	0.626426	0.004747	0.908816
O11	O	0.046800	-0.415707	0.408900
O12	O	0.546800	0.084293	0.908900
O13	O	0.080396	-0.541443	0.501134
O14	O	0.580396	-0.041443	1.001134
Zn15	Zn	0.067793	-0.474381	0.459198
Zn16	Zn	0.567793	0.025619	0.959198
Zn17	Zn	0.032980	-0.509186	0.424503
Zn18	Zn	0.532980	-0.009186	0.924503
O19	O	0.000769	-0.461897	0.501219
O20	O	0.500769	0.038103	1.001219
N21	N	0.091552	-0.450631	0.482879
N22	N	0.591552	0.049369	0.982879
N23	N	0.009225	-0.532940	0.400823
N24	N	0.509225	-0.032940	0.900823
C25	C	0.142848	-0.268847	0.534081
C26	C	0.642848	0.231153	1.034081
C27	C	0.142979	-0.399386	0.664559
C28	C	0.642979	0.100614	1.164559
C29	C	0.142862	-0.399365	0.534081
C30	C	0.642862	0.100635	1.034081
C31	C	0.273409	-0.399338	0.533986
C32	C	0.773409	0.100662	1.033986
C33	C	0.157225	-0.311914	0.548422
C34	C	0.657225	0.188086	1.048422
C35	C	0.157300	-0.385019	0.621491
C36	C	0.657300	0.114981	1.121491
C37	C	0.230339	-0.384991	0.548370
C38	C	0.730339	0.115009	1.048370
C39	C	0.157235	-0.385007	0.548422
C40	C	0.657235	0.114993	1.048422
C41	C	0.124548	-0.214028	0.515827
C42	C	0.624548	0.285972	1.015827
C43	C	0.124571	-0.417639	0.515827
C44	C	0.624571	0.082361	1.015827
C45	C	0.175526	-0.366733	0.566676
C46	C	0.675526	0.133267	1.066676
C47	C	0.353121	-0.385580	0.491988
C48	C	0.853121	0.114420	0.991988
C49	C	0.402952	-0.402180	0.475348
C50	C	0.902952	0.097820	0.975348
C51	C	0.402981	-0.482812	0.506096
C52	C	0.902981	0.017188	1.006096
C53	C	0.353151	-0.466211	0.522737
C54	C	0.853151	0.033789	1.022737
C55	C	0.136544	-0.189099	0.466839
C56	C	0.636544	0.310901	0.966839
C57	C	0.119905	-0.139265	0.450247
C58	C	0.619905	0.360735	0.950247
C59	C	0.079280	-0.139291	0.531632
C60	C	0.579280	0.360709	1.031632
C61	C	0.095918	-0.189125	0.548224
C62	C	0.595918	0.310875	1.048224
C63	C	0.075577	-0.405615	0.527900
C64	C	0.575577	0.094385	1.027900
C65	C	0.058953	-0.422228	0.511301
C66	C	0.558953	0.077772	1.011301
C67	C	0.140315	-0.462889	0.470566
C68	C	0.640315	0.037111	0.970566
C69	C	0.156941	-0.446276	0.487159
C70	C	0.656941	0.053724	0.987159
C71	C	0.075772	-0.405653	0.744326
C72	C	0.575772	0.094347	1.244326
C73	C	0.059206	-0.422280	0.794159
C74	C	0.559206	0.077720	1.294159
C75	C	0.140607	-0.462951	0.794094
C76	C	0.640607	0.037049	1.294094
C77	C	0.157172	-0.446325	0.744260
C78	C	0.657172	0.053675	1.244260
C79	C	0.124753	-0.417674	0.719377
C80	C	0.624753	0.082326	1.219377
C81	C	0.328223	-0.417595	0.515681
C82	C	0.828223	0.082405	1.015681
C83	C	-0.172390	-0.583988	0.349141
C84	C	0.327610	-0.083988	0.849141
C85	C	-0.041751	-0.584138	0.218783
C86	C	0.458249	-0.084138	0.718783
C87	C	-0.041941	-0.584130	0.349402
C88	C	0.458059	-0.084130	0.849402
C89	C	-0.041957	-0.714607	0.349338
C90	C	0.458043	-0.214607	0.849338
C91	C	-0.129326	-0.598388	0.334853
C92	C	0.370674	-0.098388	0.834853
C93	C	-0.056165	-0.598473	0.261852
C94	C	0.443835	-0.098473	0.761852
C95	C	-0.056282	-0.671535	0.334962
C96	C	0.443718	-0.171535	0.834962
C97	C	-0.056272	-0.598469	0.334999
C98	C	0.443728	-0.098469	0.834999
C99	C	-0.227205	-0.565659	0.367327
C100	C	0.272795	-0.065659	0.867327
C101	C	-0.023703	-0.565882	0.367734
C102	C	0.476297	-0.065882	0.867734
C103	C	-0.074511	-0.616717	0.316667
C104	C	0.425489	-0.116717	0.816667
C105	C	-0.055754	-0.794298	0.391257
C106	C	0.444246	-0.294298	0.891257
C107	C	-0.039181	-0.844132	0.407888
C108	C	0.460819	-0.344132	0.907888
C109	C	0.041447	-0.844215	0.377269
C110	C	0.541447	-0.344215	0.877269
C111	C	0.024873	-0.794381	0.360637
C112	C	0.524873	-0.294381	0.860637
C113	C	-0.252183	-0.577666	0.416302
C114	C	0.247817	-0.077666	0.916302
C115	C	-0.302014	-0.561001	0.432833
C116	C	0.197986	-0.061001	0.932833
C117	C	-0.301886	-0.520329	0.351410
C118	C	0.198114	-0.020329	0.851410
C119	C	-0.252055	-0.536994	0.334880
C120	C	0.247945	-0.036994	0.834880
C121	C	-0.035709	-0.516892	0.355682
C122	C	0.464291	-0.016892	0.855682
C123	C	-0.019129	-0.500308	0.372353
C124	C	0.480871	-0.000308	0.872353
C125	C	0.021465	-0.581700	0.413115
C126	C	0.521465	-0.081700	0.913115
C127	C	0.004884	-0.598286	0.396450
C128	C	0.504884	-0.098286	0.896450
C129	C	-0.035389	-0.516907	0.139026
C130	C	0.464611	-0.016907	0.639026
C131	C	-0.018707	-0.500324	0.089193
C132	C	0.481293	-0.000324	0.589193
C133	C	0.021949	-0.581721	0.089240
C134	C	0.521949	-0.081721	0.589240
C135	C	0.005268	-0.598303	0.139074
C136	C	0.505268	-0.098303	0.639074
C137	C	-0.023402	-0.565894	0.163965
C138	C	0.476598	-0.065894	0.663965
C139	C	-0.023728	-0.769425	0.367633
C140	C	0.476272	-0.269425	0.867633
N141	N	0.427173	-0.450553	0.482630
N142	N	0.927173	0.049447	0.982630
O143	O	0.589997	-0.458460	0.365361
O144	O	1.089997	0.041540	0.865361
O145	O	0.590185	-0.550997	0.490963
O146	O	1.090185	-0.050997	0.990963
O147	O	0.590104	-0.550786	0.411309
O148	O	1.090104	-0.050786	0.911309
O149	O	0.590077	-0.458671	0.445016
O150	O	1.090077	0.041329	0.945016
O151	O	0.510940	-0.524462	0.437777
O152	O	1.010940	-0.024462	0.937777
O153	O	0.511020	-0.524674	0.517432
O154	O	1.011020	-0.024674	1.017432
O155	O	0.510832	-0.432136	0.391830
O156	O	1.010832	0.067864	0.891830
Zn157	Zn	0.498357	-0.474225	0.458833
Zn158	Zn	0.998357	0.025775	0.958833
Zn159	Zn	0.602660	-0.508908	0.423960
Zn160	Zn	1.102660	-0.008908	0.923960
O161	O	0.510913	-0.432348	0.471484
O162	O	1.010913	0.067652	0.971484
N163	N	0.673844	-0.532580	0.400158
N164	N	1.173844	-0.032580	0.900158
N165	N	0.091520	-0.115070	0.482873
N166	N	0.591520	0.384930	0.982873
O167	O	-0.025663	0.047841	0.474857
O168	O	0.474337	0.547841	0.974857
O169	O	0.099940	0.047877	0.382299
O170	O	0.599940	0.547877	0.882299
O171	O	0.020247	0.047844	0.382560
O172	O	0.520247	0.547844	0.882560
O173	O	0.054030	0.047874	0.474596
O174	O	0.554030	0.547874	0.974596
O175	O	0.046674	-0.031326	0.408942
O176	O	0.546674	0.468674	0.908942
O177	O	0.126367	-0.031293	0.408680
O178	O	0.626367	0.468707	0.908680
O179	O	0.000764	-0.031329	0.501238
O180	O	0.500764	0.468671	1.001238
Zn181	Zn	0.067761	-0.043881	0.459148
Zn182	Zn	0.567761	0.456119	0.959148
Zn183	Zn	0.032943	0.060429	0.424389
Zn184	Zn	0.532943	0.560429	0.924389
O185	O	0.080457	-0.031296	0.500977
O186	O	0.580457	0.468704	1.000977
N187	N	0.009178	0.131618	0.400665
N188	N	0.509178	0.631618	0.900665
N189	N	0.091852	-0.450680	0.818332
N190	N	0.591852	0.049320	1.318332
O191	O	0.083862	-0.567845	0.981235
O192	O	0.583862	-0.067845	1.481235
O193	O	-0.008657	-0.442198	0.981276
O194	O	0.491343	0.057802	1.481276
O195	O	-0.008441	-0.521875	0.981252
O196	O	0.491559	-0.021875	1.481252
O197	O	0.083646	-0.488168	0.981258
O198	O	0.583646	0.011832	1.481258
O199	O	0.017919	-0.495468	0.902085
O200	O	0.517919	0.004532	1.402085
O201	O	0.017703	-0.415791	0.902109
O202	O	0.517703	0.084209	1.402109
O203	O	0.110222	-0.541438	0.902067
O204	O	0.610222	-0.041438	1.402067
Zn205	Zn	0.068148	-0.474422	0.889518
Zn206	Zn	0.568148	0.025578	1.389518
Zn207	Zn	0.033417	-0.509214	0.993825
Zn208	Zn	0.533417	-0.009214	1.493825
O209	O	0.110006	-0.461761	0.902091
O210	O	0.610006	0.038239	1.402091
N211	N	0.009712	-0.532961	1.065011
N212	N	0.509712	-0.032961	1.565011
C213	C	0.030439	-0.413071	0.383027
C214	C	0.530439	0.086929	0.883027
C215	C	0.129046	-0.511580	0.382922
C216	C	0.629046	-0.011580	0.882922
C217	C	0.070334	-0.570496	0.500675
C218	C	0.570334	-0.070496	1.000675
C219	C	-0.028274	-0.471987	0.500780
C220	C	0.471726	0.028013	1.000780
C221	C	0.550625	-0.550579	0.520021
C222	C	1.050625	-0.050579	1.020021
C223	C	0.550527	-0.550317	0.421379
C224	C	1.050527	-0.050317	0.921379
C225	C	0.550389	-0.432554	0.362773
C226	C	1.050389	0.067446	0.862773
C227	C	0.550491	-0.432816	0.461414
C228	C	1.050491	0.067184	0.961414
C229	C	0.128944	0.008394	0.382712
C230	C	0.628944	0.508394	0.882712
C231	C	0.030287	0.008256	0.383068
C232	C	0.530287	0.508256	0.883068
C233	C	-0.028273	0.008252	0.500793
C234	C	0.471727	0.508252	1.000793
C235	C	0.070417	0.008292	0.500470
C236	C	0.570417	0.508292	1.000470
C237	C	-0.008218	-0.413165	0.941698
C238	C	0.491782	0.086835	1.441698
C239	C	-0.007945	-0.511830	0.941653
C240	C	0.492055	-0.011830	1.441653
C241	C	0.109783	-0.570471	0.941646
C242	C	0.609783	-0.070471	1.441646
C243	C	0.109516	-0.471800	0.941673
C244	C	0.609516	0.028200	1.441673
H245	H	0.019320	-0.412483	0.814467
H246	H	0.519320	0.087517	1.314467
C247	C	0.550793	-0.589332	0.568096
C248	C	1.050793	-0.089332	1.068096
C249	C	0.591547	-0.600255	0.576492
C250	C	1.091547	-0.100255	1.076492
C251	C	0.591721	-0.635956	0.620771
C252	C	1.091721	-0.135956	1.120771
H253	H	0.523232	-0.578486	0.592380
H254	H	1.023232	-0.078486	1.092380
H255	H	0.550837	-0.616992	0.568150
H256	H	1.050837	-0.116992	1.068150
H257	H	0.591499	-0.572600	0.576443
H258	H	1.091499	-0.072600	1.076443
H259	H	0.619115	-0.611109	0.552221
H260	H	1.119115	-0.111109	1.052221
H261	H	0.591765	-0.663616	0.620825
H262	H	1.091765	-0.163616	1.120825
H263	H	0.564158	-0.625106	0.645051
H264	H	1.064158	-0.125106	1.145051
H265	H	0.619374	-0.643375	0.626472
H266	H	1.119374	-0.143375	1.126472
C267	C	0.177169	-0.520964	0.344210
C268	C	0.677169	-0.020964	0.844210
C269	C	0.198084	-0.488470	0.331500
C270	C	0.698084	0.011530	0.831500
C271	C	0.242412	-0.497096	0.295836
C272	C	0.742412	0.002904	0.795836
H273	H	0.197201	-0.552448	0.355697
H274	H	0.697201	-0.052448	0.855697
H275	H	0.173017	-0.517362	0.317147
H276	H	0.673017	-0.017362	0.817147
H277	H	0.202239	-0.492076	0.358557
H278	H	0.702239	0.007924	0.858557
H279	H	0.178066	-0.456983	0.320005
H280	H	0.678066	0.043017	0.820005
H281	H	0.238260	-0.493495	0.268773
H282	H	0.738260	0.006505	0.768773
H283	H	0.262440	-0.528582	0.307326
H284	H	0.762440	-0.028582	0.807326
H285	H	0.256606	-0.475049	0.287204
H286	H	0.756606	0.024951	0.787204
C287	C	0.326115	-0.332774	0.484232
C288	C	0.826115	0.167226	0.984232
C289	C	0.338208	-0.307275	0.435365
C290	C	0.838208	0.192725	0.935365
C291	C	0.313347	-0.258628	0.428200
C292	C	0.813347	0.241372	0.928200
H293	H	0.292864	-0.327402	0.497490
H294	H	0.792864	0.172598	0.997490
H295	H	0.334306	-0.322441	0.499256
H296	H	0.834306	0.177559	0.999256
H297	H	0.330014	-0.317603	0.420346
H298	H	0.830014	0.182397	0.920346
H299	H	0.371455	-0.312633	0.422096
H300	H	0.871455	0.187367	0.922096
H301	H	0.321538	-0.248296	0.443224
H302	H	0.821538	0.251704	0.943224
H303	H	0.280097	-0.253261	0.441461
H304	H	0.780097	0.246739	0.941461
H305	H	0.321552	-0.241321	0.395044
H306	H	0.821552	0.258679	0.895044
H307	H	0.164941	0.008624	0.353583
H308	H	0.664941	0.508624	0.853583
C309	C	-0.046576	-0.521343	0.941630
C310	C	0.453424	-0.021343	1.441630
C311	C	-0.087349	-0.480727	0.941642
C312	C	0.412651	0.019273	1.441642
C313	C	-0.122947	-0.489474	0.941628
C314	C	0.377053	0.010526	1.441628
H315	H	-0.035633	-0.528870	0.914017
H316	H	0.464367	-0.028870	1.414017
H317	H	-0.054015	-0.547298	0.969235
H318	H	0.445985	-0.047298	1.469235
H319	H	-0.079910	-0.454779	0.914040
H320	H	0.420090	0.045221	1.414040
H321	H	-0.098306	-0.473192	0.969254
H322	H	0.401694	0.026808	1.469254
H323	H	-0.130387	-0.515430	0.969233
H324	H	0.369613	-0.015430	1.469233
H325	H	-0.112000	-0.497003	0.914014
H326	H	0.388000	0.002997	1.414014
H327	H	-0.150617	-0.461920	0.941641
H328	H	0.349383	0.038080	1.441641
H329	H	0.550329	-0.403500	0.326702
H330	H	1.050329	0.096500	0.826702
C331	C	-0.076419	-0.462573	0.539456
C332	C	0.423581	0.037427	1.039456
C333	C	-0.097343	-0.495051	0.552149
C334	C	0.402657	0.004949	1.052149
C335	C	-0.141698	-0.486388	0.587771
C336	C	0.358302	0.013612	1.087771
H337	H	-0.072317	-0.466160	0.566537
H338	H	0.427683	0.033840	1.066537
H339	H	-0.096420	-0.431076	0.527923
H340	H	0.403580	0.068924	1.027923
H341	H	-0.077347	-0.526540	0.563682
H342	H	0.422653	-0.026540	1.063682
H343	H	-0.101458	-0.491470	0.525079
H344	H	0.398542	0.008530	1.025079
H345	H	-0.161698	-0.454892	0.576238
H346	H	0.338302	0.045108	1.076238
H347	H	-0.137591	-0.489976	0.614849
H348	H	0.362409	0.010024	1.114849
H349	H	-0.155902	-0.508421	0.596384
H350	H	0.344098	-0.008421	1.096384
H351	H	0.550485	-0.403881	0.468626
H352	H	1.050485	0.096119	0.968626
H353	H	0.023050	0.008252	0.354152
H354	H	0.523050	0.508252	0.854152
H355	H	0.077653	0.008301	0.529384
H356	H	0.577653	0.508301	1.029384
C357	C	-0.076411	0.008274	0.539467
C358	C	0.423589	0.508274	1.039467
C359	C	-0.105817	0.008275	0.522428
C360	C	0.394183	0.508275	1.022428
C361	C	-0.150168	0.008305	0.558038
C362	C	0.349832	0.508305	1.058038
H363	H	-0.072293	-0.019323	0.566540
H364	H	0.427707	0.480677	1.066540
H365	H	-0.090672	0.035898	0.548103
H366	H	0.409328	0.535898	1.048103
H367	H	-0.091559	-0.019347	0.513799
H368	H	0.408441	0.480653	1.013799
H369	H	-0.109948	0.035869	0.495361
H370	H	0.390052	0.535869	0.995361
H371	H	-0.164429	0.035929	0.566673
H372	H	0.335571	0.535929	1.066673
H373	H	-0.146046	-0.019292	0.585108
H374	H	0.353954	0.480708	1.085108
H375	H	-0.170127	0.008310	0.546480
H376	H	0.329873	0.508310	1.046480
H377	H	0.138832	-0.606554	0.941627
H378	H	0.638832	-0.106554	1.441627
H379	H	-0.037264	-0.377079	0.941710
H380	H	0.462736	0.122921	1.441710
C381	C	0.148110	-0.462126	0.941569
C382	C	0.648110	0.037874	1.441569
C383	C	0.158923	-0.423846	0.900838
C384	C	0.658923	0.076154	1.400838
C385	C	0.194477	-0.414925	0.900723
C386	C	0.694477	0.085075	1.400723
H387	H	0.137172	-0.454543	0.969147
H388	H	0.637172	0.045457	1.469147
H389	H	0.175837	-0.489625	0.941532
H390	H	0.675837	0.010375	1.441532
H391	H	0.131201	-0.396353	0.900880
H392	H	0.631201	0.103647	1.400880
H393	H	0.169869	-0.431419	0.873253
H394	H	0.669869	0.068581	1.373253
H395	H	0.222204	-0.442423	0.900686
H396	H	0.722204	0.057577	1.400686
H397	H	0.183535	-0.407344	0.928303
H398	H	0.683535	0.092656	1.428303
H399	H	0.201821	-0.388954	0.873086
H400	H	0.701821	0.111046	1.373086
C401	C	0.040550	-0.374627	0.717339
C402	C	0.540550	0.125373	1.217339
C403	C	0.011976	-0.399664	0.729472
C404	C	0.511976	0.100336	1.229472
C405	C	-0.020472	-0.371103	0.704616
C406	C	0.479528	0.128897	1.204616
H407	H	0.021064	-0.346447	0.725499
H408	H	0.521064	0.153553	1.225499
H409	H	0.057411	-0.366456	0.684082
H410	H	0.557411	0.133544	1.184082
H411	H	-0.004885	-0.407829	0.762720
H412	H	0.495115	0.092171	1.262720
H413	H	0.031448	-0.427842	0.721310
H414	H	0.531448	0.072158	1.221310
H415	H	-0.003610	-0.362932	0.671359
H416	H	0.496390	0.137068	1.171359
H417	H	-0.039954	-0.342925	0.712778
H418	H	0.460046	0.157075	1.212778
H419	H	-0.039860	-0.388088	0.712841
H420	H	0.460140	0.111912	1.212841
C421	C	0.175824	-0.494131	0.821088
C422	C	0.675824	0.005869	1.321088
C423	C	0.204403	-0.535618	0.808955
C424	C	0.704403	-0.035618	1.308955
C425	C	0.236843	-0.564360	0.833818
C426	C	0.736843	-0.064360	1.333818
H427	H	0.195307	-0.477282	0.812933
H428	H	0.695307	0.022718	1.312933
H429	H	0.158958	-0.502344	0.854343
H430	H	0.658958	-0.002344	1.354343
H431	H	0.221267	-0.527405	0.775707
H432	H	0.721267	-0.027405	1.275707
H433	H	0.184933	-0.552480	0.817111
H434	H	0.684933	-0.052480	1.317111
H435	H	0.219977	-0.572573	0.867073
H436	H	0.719977	-0.072573	1.367073
H437	H	0.256323	-0.547507	0.825661
H438	H	0.756323	-0.047507	1.325661
H439	H	0.256235	-0.592514	0.825593
H440	H	0.756235	-0.092514	1.325593
C441	C	0.210350	-0.459443	0.717150
C442	C	0.710350	0.040557	1.217150
C443	C	0.222247	-0.484356	0.688549
C444	C	0.722247	0.015644	1.188549
C445	C	0.271230	-0.496453	0.663575
C446	C	0.771230	0.003547	1.163575
H447	H	0.218559	-0.431295	0.697670
H448	H	0.718559	0.068705	1.197670
H449	H	0.227300	-0.478906	0.739094
H450	H	0.727300	0.021094	1.239094
H451	H	0.205302	-0.464892	0.666608
H452	H	0.705302	0.035108	1.166608
H453	H	0.214049	-0.512509	0.708017
H454	H	0.714049	-0.012509	1.208017
H455	H	0.288180	-0.515917	0.685519
H456	H	0.788180	-0.015917	1.185519
H457	H	0.279434	-0.468303	0.644098
H458	H	0.779434	0.031697	1.144098
H459	H	0.279309	-0.513362	0.644170
H460	H	0.779309	-0.013362	1.144170
C461	C	0.040409	-0.374441	0.558937
C462	C	0.540409	0.125559	1.058937
C463	C	0.011801	-0.332948	0.533932
C464	C	0.511801	0.167052	1.033932
C465	C	-0.020598	-0.304216	0.562506
C466	C	0.479402	0.195784	1.062506
H467	H	0.020942	-0.391295	0.587128
H468	H	0.520942	0.108705	1.087128
H469	H	0.057308	-0.366237	0.567085
H470	H	0.557308	0.133763	1.067085
H471	H	-0.005097	-0.341153	0.525791
H472	H	0.494903	0.158847	1.025791
H473	H	0.031255	-0.316082	0.505743
H474	H	0.531255	0.183918	1.005743
H475	H	-0.003699	-0.296011	0.570654
H476	H	0.496301	0.203989	1.070654
H477	H	-0.040062	-0.321073	0.590696
H478	H	0.459938	0.178927	1.090696
H479	H	-0.040010	-0.276057	0.545542
H480	H	0.459990	0.223943	1.045542
C481	C	0.005763	-0.409110	0.524313
C482	C	0.505763	0.090890	1.024313
C483	C	-0.006197	-0.384180	0.482730
C484	C	0.493803	0.115820	0.982730
C485	C	-0.055191	-0.372082	0.494699
C486	C	0.444809	0.127918	0.994699
H487	H	-0.002446	-0.437258	0.541200
H488	H	0.497554	0.062742	1.041200
H489	H	-0.011151	-0.389656	0.543747
H490	H	0.488849	0.110344	1.043747
H491	H	0.010711	-0.403633	0.463304
H492	H	0.510711	0.096367	0.963304
H493	H	0.002001	-0.356027	0.465837
H494	H	0.502001	0.143973	0.965837
H495	H	-0.072105	-0.352629	0.514133
H496	H	0.427895	0.147371	1.014133
H497	H	-0.063396	-0.400232	0.511587
H498	H	0.436604	0.099768	1.011587
H499	H	-0.063313	-0.355162	0.466487
H500	H	0.436687	0.144838	0.966487
C501	C	0.175437	-0.494059	0.439515
C502	C	0.675437	0.005941	0.939515
C503	C	0.168312	-0.538053	0.462043
C504	C	0.668312	-0.038053	0.962043
C505	C	0.200657	-0.566776	0.433453
C506	C	0.700657	-0.066776	0.933453
H507	H	0.170646	-0.478893	0.409652
H508	H	0.670646	0.021107	0.909652
H509	H	0.207007	-0.498874	0.434709
H510	H	0.707007	0.001126	0.934709
H511	H	0.136750	-0.533236	0.466842
H512	H	0.636750	-0.033236	0.966842
H513	H	0.173107	-0.553232	0.491903
H514	H	0.673107	-0.053232	0.991903
H515	H	0.232227	-0.571592	0.428647
H516	H	0.732227	-0.071592	0.928647
H517	H	0.195863	-0.551606	0.403591
H518	H	0.695863	-0.051606	0.903591
H519	H	0.195830	-0.596631	0.448736
H520	H	0.695830	-0.096631	0.948736
C521	C	0.210148	-0.459298	0.473953
C522	C	0.710148	0.040702	0.973953
C523	C	0.230610	-0.442345	0.424380
C524	C	0.730610	0.057655	0.924380
C525	C	0.279623	-0.454334	0.412195
C526	C	0.779623	0.045666	0.912195
H527	H	0.215475	-0.445308	0.487893
H528	H	0.715475	0.054692	0.987893
H529	H	0.224189	-0.492924	0.485369
H530	H	0.724189	0.007076	0.985369
H531	H	0.216573	-0.408725	0.412969
H532	H	0.716573	0.091275	0.912969
H533	H	0.225296	-0.456332	0.410428
H534	H	0.725296	0.043668	0.910428
H535	H	0.293665	-0.487961	0.423610
H536	H	0.793665	0.012039	0.923610
H537	H	0.284946	-0.440344	0.426138
H538	H	0.784946	0.059656	0.926138
H539	H	0.293514	-0.442838	0.378558
H540	H	0.793514	0.057162	0.878558
C541	C	0.326206	-0.501045	0.548429
C542	C	0.826206	-0.001045	1.048429
C543	C	0.358708	-0.547170	0.551031
C544	C	0.858708	-0.047170	1.051031
C545	C	0.333904	-0.579272	0.574690
C546	C	0.833904	-0.079272	1.074690
H547	H	0.306787	-0.499843	0.579671
H548	H	0.806787	0.000157	1.079671
H549	H	0.306757	-0.492738	0.531463
H550	H	0.806757	0.007262	1.031463
H551	H	0.378148	-0.555475	0.567998
H552	H	0.878148	-0.055475	1.067998
H553	H	0.378128	-0.548388	0.519796
H554	H	0.878128	-0.048388	1.019796
H555	H	0.314455	-0.570965	0.557724
H556	H	0.814455	-0.070965	1.057724
H557	H	0.314486	-0.578066	0.605930
H558	H	0.814486	-0.078066	1.105930
H559	H	0.355952	-0.610571	0.576454
H560	H	0.855952	-0.110571	1.076454
C561	C	0.550639	-0.588955	0.411760
C562	C	1.050639	-0.088955	0.911760
C563	C	0.591409	-0.628765	0.416966
C564	C	1.091409	-0.128765	0.916966
C565	C	0.591531	-0.664364	0.408103
C566	C	1.091531	-0.164364	0.908103
H567	H	0.523089	-0.597709	0.433727
H568	H	1.023089	-0.097709	0.933727
H569	H	0.550625	-0.577344	0.380241
H570	H	1.050625	-0.077344	0.880241
H571	H	0.591418	-0.640375	0.448479
H572	H	1.091418	-0.140375	0.948479
H573	H	0.618966	-0.620026	0.395000
H574	H	1.118966	-0.120026	0.895000
H575	H	0.591517	-0.652753	0.376584
H576	H	1.091517	-0.152753	0.876584
H577	H	0.563979	-0.673115	0.430071
H578	H	1.063979	-0.173115	0.930071
H579	H	0.619195	-0.691379	0.411629
H580	H	1.119195	-0.191379	0.911629
H581	H	0.023260	-0.376951	0.354059
H582	H	0.523260	0.123049	0.854059
H583	H	-0.231954	-0.601008	0.442726
H584	H	0.268046	-0.101008	0.942726
C585	C	0.430108	-0.535591	0.513785
C586	C	0.930108	-0.035591	1.013785
C587	C	0.458757	-0.552688	0.540663
C588	C	0.958757	-0.052688	1.040663
C589	C	0.483760	-0.601305	0.547750
C590	C	0.983760	-0.101305	1.047750
H591	H	0.408197	-0.552340	0.530297
H592	H	0.908197	-0.052340	1.030297
H593	H	0.449554	-0.540221	0.483844
H594	H	0.949554	-0.040221	0.983844
H595	H	0.439313	-0.548062	0.570599
H596	H	0.939313	-0.048062	1.070599
H597	H	0.480677	-0.535953	0.524160
H598	H	0.980677	-0.035953	1.024160
H599	H	0.503205	-0.605936	0.517809
H600	H	1.003205	-0.105936	1.017809
H601	H	0.461845	-0.618050	0.564260
H602	H	0.961845	-0.118050	1.064260
H603	H	0.503204	-0.612911	0.565983
H604	H	1.003204	-0.112911	1.065983
H605	H	0.159856	-0.209371	0.440456
H606	H	0.659856	0.290629	0.940456
C607	C	0.430049	-0.367463	0.449547
C608	C	0.930049	0.132537	0.949547
C609	C	0.458631	-0.369438	0.403557
C610	C	0.958631	0.130562	0.903557
C611	C	0.483605	-0.337469	0.379774
C612	C	0.983605	0.162531	0.879774
H613	H	0.408121	-0.336109	0.447673
H614	H	0.908121	0.163891	0.947673
H615	H	0.449538	-0.375800	0.466483
H616	H	0.949538	0.124200	0.966483
H617	H	0.439144	-0.361098	0.386625
H618	H	0.939144	0.138902	0.886625
H619	H	0.480568	-0.400785	0.405416
H620	H	0.980568	0.099215	0.905416
H621	H	0.503094	-0.345806	0.396710
H622	H	1.003094	0.154194	0.896710
H623	H	0.461673	-0.306117	0.377903
H624	H	0.961673	0.193883	0.877903
H625	H	0.503004	-0.338808	0.348568
H626	H	1.003004	0.161192	0.848568
H627	H	0.055974	-0.119015	0.558014
H628	H	0.555974	0.380985	1.058014
C629	C	0.132997	-0.112282	0.397040
C630	C	0.632997	0.387718	0.897040
C631	C	0.161641	-0.144758	0.372220
C632	C	0.661641	0.355242	0.872220
C633	C	0.173713	-0.119920	0.323205
C634	C	0.673713	0.380080	0.823205
H635	H	0.104841	-0.092848	0.388830
H636	H	0.604841	0.407152	0.888830
H637	H	0.149921	-0.092843	0.388836
H638	H	0.649921	0.407157	0.888836
H639	H	0.144717	-0.164188	0.380420
H640	H	0.644717	0.335812	0.880420
H641	H	0.189803	-0.164193	0.380415
H642	H	0.689803	0.335807	0.880415
H643	H	0.190637	-0.100481	0.315001
H644	H	0.690637	0.399519	0.815001
H645	H	0.145555	-0.100487	0.315000
H646	H	0.645555	0.399513	0.815000
H647	H	0.193153	-0.141951	0.306359
H648	H	0.693153	0.358049	0.806359
H649	H	0.086148	-0.209418	0.588113
H650	H	0.586148	0.290582	1.088113
H651	H	-0.058738	-0.490513	0.159288
H652	H	0.441262	0.009487	0.659288
C653	C	-0.031804	-0.447117	0.062205
C654	C	0.468196	0.052883	0.562205
C655	C	-0.060494	-0.422289	0.094673
C656	C	0.439506	0.077711	0.594673
C657	C	-0.072571	-0.373273	0.069830
C658	C	0.427429	0.126727	0.569830
H659	H	-0.003651	-0.438911	0.042808
H660	H	0.496349	0.061089	0.542808
H661	H	-0.048696	-0.438914	0.042730
H662	H	0.451304	0.061086	0.542730
H663	H	-0.043602	-0.430488	0.114140
H664	H	0.456398	0.069512	0.614140
H665	H	-0.088653	-0.430480	0.114071
H666	H	0.411347	0.069520	0.614071
H667	H	-0.089463	-0.365070	0.050355
H668	H	0.410537	0.134930	0.550355
H669	H	-0.044417	-0.365073	0.050434
H670	H	0.455583	0.134927	0.550434
H671	H	-0.092042	-0.356422	0.091856
H672	H	0.407958	0.143578	0.591856
H673	H	0.045284	-0.608113	0.068976
H674	H	0.545284	-0.108113	0.568976
C675	C	0.018314	-0.651511	0.166065
C676	C	0.518314	-0.151511	0.666065
C677	C	0.046977	-0.676341	0.133598
C678	C	0.546977	-0.176341	0.633598
C679	C	0.058997	-0.725356	0.158443
C680	C	0.558997	-0.225356	0.658443
H681	H	0.035208	-0.659764	0.185553
H682	H	0.535208	-0.159764	0.685553
H683	H	-0.009874	-0.659666	0.185448
H684	H	0.490126	-0.159666	0.685448
H685	H	0.075160	-0.668190	0.114223
H686	H	0.575160	-0.168190	0.614223
H687	H	0.030092	-0.668102	0.114108
H688	H	0.530092	-0.168102	0.614108
H689	H	0.030809	-0.733510	0.177827
H690	H	0.530809	-0.233510	0.677827
H691	H	0.075889	-0.733604	0.177931
H692	H	0.575889	-0.233604	0.677931
H693	H	0.078442	-0.742209	0.136418
H694	H	0.578442	-0.242209	0.636418
C695	C	-0.066830	-0.481685	0.324594
C696	C	0.433170	0.018315	0.824594
C697	C	-0.108336	-0.453074	0.349580
C698	C	0.391664	0.046926	0.849580
C699	C	-0.137020	-0.420639	0.320959
C700	C	0.362980	0.079361	0.820959
H701	H	-0.049952	-0.462221	0.296430
H702	H	0.450048	0.037779	0.796430
H703	H	-0.075020	-0.498559	0.316400
H704	H	0.424980	0.001441	0.816400
H705	H	-0.100146	-0.436202	0.357768
H706	H	0.399854	0.063798	0.857768
H707	H	-0.125227	-0.472525	0.377742
H708	H	0.374773	0.027475	0.877742
H709	H	-0.145209	-0.437512	0.312766
H710	H	0.354791	0.062488	0.812766
H711	H	-0.120137	-0.401178	0.292797
H712	H	0.379863	0.098822	0.792797
H713	H	-0.165186	-0.401225	0.337910
H714	H	0.334814	0.098775	0.837910
C715	C	-0.032082	-0.447114	0.359170
C716	C	0.467918	0.052886	0.859170
C717	C	-0.015047	-0.426646	0.309604
C718	C	0.484953	0.073354	0.809604
C719	C	-0.026959	-0.377648	0.297440
C720	C	0.473041	0.122352	0.797440
H721	H	-0.065696	-0.433010	0.370524
H722	H	0.434304	0.066990	0.870524
H723	H	-0.018096	-0.441864	0.373184
H724	H	0.481904	0.058136	0.873184
H725	H	-0.029034	-0.431892	0.295596
H726	H	0.470966	0.068108	0.795596
H727	H	0.018566	-0.440736	0.298239
H728	H	0.518566	0.059264	0.798239
H729	H	-0.012973	-0.372398	0.311454
H730	H	0.487027	0.127602	0.811454
H731	H	-0.060572	-0.363549	0.308797
H732	H	0.439428	0.136451	0.808797
H733	H	-0.015398	-0.363755	0.263809
H734	H	0.484602	0.136245	0.763809
H735	H	-0.322352	-0.570775	0.472713
H736	H	0.177648	-0.070775	0.972713
H737	H	0.044746	-0.608091	0.436494
H738	H	0.544746	-0.108091	0.936494
H739	H	0.077514	-0.606615	0.529644
H740	H	0.577514	-0.106615	1.029644
H741	H	0.014660	-0.638178	0.406265
H742	H	0.514660	-0.138178	0.906265
H743	H	0.050956	-0.774133	0.341399
H744	H	0.550956	-0.274133	0.841399
H745	H	0.081021	-0.864532	0.371574
H746	H	0.581021	-0.364532	0.871574
H747	H	-0.095331	-0.773979	0.396956
H748	H	0.404669	-0.273979	0.896956
C749	C	-0.073996	-0.871082	0.433467
C750	C	0.426004	-0.371082	0.933467
C751	C	-0.097102	-0.858937	0.403094
C752	C	0.402898	-0.358937	0.903094
C753	C	-0.129179	-0.883749	0.426646
C754	C	0.370821	-0.383749	0.926646
H755	H	-0.057219	-0.904342	0.442375
H756	H	0.442781	-0.404342	0.942375
H757	H	-0.096865	-0.862884	0.461137
H758	H	0.403135	-0.362884	0.961137
H759	H	-0.074236	-0.867138	0.375433
H760	H	0.425764	-0.367138	0.875433
H761	H	-0.113888	-0.825680	0.394185
H762	H	0.386112	-0.325680	0.894185
H763	H	-0.152049	-0.875551	0.454316
H764	H	0.347951	-0.375551	0.954316
H765	H	-0.112399	-0.917009	0.435552
H766	H	0.387601	-0.417009	0.935552
H767	H	-0.144864	-0.875509	0.406043
H768	H	0.355136	-0.375509	0.906043
C769	C	-0.328782	-0.489196	0.316107
C770	C	0.171218	0.010804	0.816107
C771	C	-0.296240	-0.482246	0.269677
C772	C	0.203760	0.017754	0.769677
C773	C	-0.320997	-0.453563	0.237143
C774	C	0.179003	0.046437	0.737143
H775	H	-0.348225	-0.504347	0.320793
H776	H	0.151775	-0.004347	0.820793
H777	H	-0.348202	-0.459297	0.320842
H778	H	0.151798	0.040703	0.820842
H779	H	-0.276828	-0.512140	0.264943
H780	H	0.223172	-0.012140	0.764943
H781	H	-0.276795	-0.467090	0.264975
H782	H	0.223205	0.032910	0.764975
H783	H	-0.340417	-0.423664	0.241878
H784	H	0.159583	0.076336	0.741878
H785	H	-0.340440	-0.468717	0.241834
H786	H	0.159560	0.031283	0.741834
H787	H	-0.298922	-0.448840	0.205636
H788	H	0.201078	0.051160	0.705636
H789	H	-0.231721	-0.527215	0.295000
H790	H	0.268279	-0.027215	0.795000
