data_functionalizedCrystal
_audit_creation_method	'MofGen! by Chris Wilmer'
_symmetry_space_group_name_H-M	'P1'
_symmetry_Int_Tables_number	1
_symmetry_cell_setting	triclinic
loop_
_symmetry_equiv_pos_as_xyz
  x,y,z
_cell_length_a	15.944564
_cell_length_b	14.421503
_cell_length_c	15.944551
_cell_angle_alpha	89.996660
_cell_angle_beta	96.498664
_cell_angle_gamma	89.996857
loop_
_atom_site_label
_atom_site_type_symbol
_atom_site_fract_x
_atom_site_fract_y
_atom_site_fract_z
O1	O	-1.114523	0.077017	0.108371
O2	O	-0.869974	0.077040	0.121716
O3	O	-0.998927	0.077020	-0.007231
O4	O	-0.985570	0.077038	0.237318
O5	O	-0.998905	-0.077204	-0.007211
O6	O	-0.869953	-0.077183	0.121736
O7	O	-1.114501	-0.077206	0.108391
Cu8	Cu	-0.992225	-0.091277	0.115065
Cu9	Cu	-0.992250	0.091110	0.115042
O10	O	-0.985549	-0.077186	0.237338
C11	C	-0.838670	-0.000069	0.121170
C12	C	-0.745425	-0.000060	0.119504
N13	N	-0.992214	-0.219558	0.115080
C14	C	-0.530569	-0.000084	0.035589
C15	C	-0.469560	0.075959	0.074539
C16	C	-0.574700	-0.000071	0.116488
C17	C	-0.469561	-0.076093	0.074578
C18	C	-0.409788	-0.000086	0.113570
C19	C	-0.514919	0.076035	0.155461
C20	C	-0.514926	-0.076086	0.155488
C21	C	-0.453935	-0.000024	0.194497
C22	C	-0.669701	-0.000062	0.118167
C23	C	-0.314787	-0.000089	0.111898
C24	C	-0.998361	-0.000092	-0.038515
C25	C	-0.996699	-0.000093	-0.131761
C26	C	-0.145807	-0.000096	0.108925
C27	C	-0.239057	-0.000098	0.110558
C28	C	-0.932576	-0.469202	0.174679
C29	C	-1.008475	-0.531011	0.190989
C30	C	-0.992234	-0.408719	0.115060
C31	C	-0.916354	-0.531005	0.098769
C32	C	-0.992247	-0.591441	0.115043
C33	C	-1.068172	-0.469167	0.131409
C34	C	-0.976001	-0.469156	0.039156
C35	C	-1.051955	-0.530936	0.055434
C36	C	-0.992225	-0.303458	0.115072
C37	C	-0.992264	-0.696700	0.115030
N38	N	-0.992269	0.219392	0.115020
C39	C	-0.912795	-0.000072	-0.346622
C40	C	-0.951747	-0.076117	-0.407628
C41	C	-0.993692	-0.000085	-0.302487
C42	C	-0.951787	0.075935	-0.407630
C43	C	-0.990781	-0.000074	-0.467400
C44	C	-1.032666	-0.076193	-0.362265
C45	C	-1.032695	0.075927	-0.362261
C46	C	-1.071705	-0.000136	-0.423249
C47	C	-0.995366	-0.000092	-0.207485
C48	C	-0.989113	-0.000073	-0.562401
C49	C	-0.986114	-0.000072	0.268622
C50	C	-0.987777	-0.000065	0.361868
H51	H	-0.563902	0.000005	-0.031547
H52	H	-1.102467	-0.557872	0.005006
H53	H	-0.449466	-0.140379	0.040354
O54	O	-0.445723	0.152676	0.033655
C55	C	-0.517615	0.206084	0.005915
H56	H	-0.575978	0.159857	0.000088
H57	H	-0.525209	0.263703	0.053420
C58	C	-0.435363	0.305813	-0.073532
C59	C	-0.507045	0.249034	-0.080695
H60	H	-0.428843	0.332310	-0.126956
H61	H	-0.386927	0.269834	-0.054841
H62	H	-0.441701	0.353821	-0.033941
H63	H	-0.500702	0.201021	-0.120278
H64	H	-0.555480	0.285006	-0.099395
H65	H	-0.962235	-0.441965	-0.025007
O66	O	-0.911091	0.152730	-0.431581
C67	C	-0.953033	0.232772	-0.407316
H68	H	-1.021402	0.214912	-0.399681
H69	H	-0.920217	0.259661	-0.344802
C70	C	-0.866853	0.329944	-0.484947
C71	C	-0.950827	0.308010	-0.475577
H72	H	-0.865489	0.376357	-0.527051
H73	H	-0.838593	0.276019	-0.501292
H74	H	-0.839515	0.352346	-0.432847
H75	H	-0.978160	0.285597	-0.527672
H76	H	-0.979091	0.361933	-0.459241
H77	H	-0.852178	-0.558170	0.084998
H78	H	-0.845647	-0.000141	-0.313317
O79	O	-0.872540	-0.436897	0.234979
C80	C	-0.889978	-0.468435	0.314894
H81	H	-0.959962	-0.485767	0.312531
H82	H	-0.850941	-0.533131	0.332883
C83	C	-0.781266	-0.370791	0.383982
C84	C	-0.867224	-0.392072	0.381082
H85	H	-0.767227	-0.323690	0.424812
H86	H	-0.769515	-0.349546	0.330142
H87	H	-0.748746	-0.424711	0.398970
H88	H	-0.899742	-0.338155	0.366084
H89	H	-0.878979	-0.413307	0.434921
H90	H	-1.066844	-0.140554	-0.342265
H91	H	-0.534915	0.140394	0.189644
O92	O	-0.911057	-0.152873	-0.431676
C93	C	-0.966713	-0.205886	-0.487591
H94	H	-1.034642	-0.188902	-0.477370
H95	H	-0.956207	-0.188829	-0.555434
C96	C	-0.866512	-0.330635	-0.483387
C97	C	-0.949943	-0.309781	-0.470828
H98	H	-0.856165	-0.394723	-0.473050
H99	H	-0.829013	-0.294919	-0.445718
H100	H	-0.857766	-0.316415	-0.539923
H101	H	-0.958684	-0.323991	-0.414290
H102	H	-0.987442	-0.345503	-0.508487
O103	O	-1.151893	-0.000355	-0.462774
C104	C	-1.194213	-0.080625	-0.439631
H105	H	-1.145982	-0.136402	-0.417721
H106	H	-1.233325	-0.063212	-0.386144
C107	C	-1.311993	-0.047974	-0.543111
C108	C	-1.252756	-0.116485	-0.516207
H109	H	-1.348109	-0.070093	-0.590345
H110	H	-1.283484	0.006107	-0.558701
H111	H	-1.344578	-0.033470	-0.498531
H112	H	-1.220165	-0.130979	-0.560783
H113	H	-1.281262	-0.170569	-0.500626
H114	H	-0.420776	0.000023	0.261702
H115	H	-1.022218	-0.558180	0.255173
O116	O	-0.538920	-0.152871	0.196160
C117	C	-0.516057	-0.232893	0.153310
H118	H	-0.509293	-0.214680	0.084827
H119	H	-0.453416	-0.260637	0.185081
C120	C	-0.593149	-0.329801	0.240205
C121	C	-0.584848	-0.307433	0.156091
H122	H	-0.635579	-0.375783	0.241923
H123	H	-0.608549	-0.275890	0.269077
H124	H	-0.540943	-0.352916	0.266671
H125	H	-0.637050	-0.284308	0.129629
H126	H	-0.569457	-0.361342	0.127215
H127	H	-1.132362	-0.442119	0.145257
O128	O	-1.073377	0.152643	-0.338129
C129	C	-1.018137	0.204760	-0.281040
H130	H	-0.966325	0.157632	-0.249778
H131	H	-0.988548	0.262643	-0.316514
C132	C	-1.131390	0.305048	-0.251388
C133	C	-1.067758	0.247161	-0.212986
H134	H	-1.161998	0.331207	-0.209410
H135	H	-1.168606	0.269938	-0.289851
H136	H	-1.106723	0.353276	-0.280948
H137	H	-1.092426	0.198928	-0.183436
H138	H	-1.030547	0.282264	-0.174515
