data_functionalizedCrystal
_audit_creation_method	'MofGen! by Chris Wilmer'
_symmetry_space_group_name_H-M	'P1'
_symmetry_Int_Tables_number	1
_symmetry_cell_setting	triclinic
loop_
_symmetry_equiv_pos_as_xyz
  x,y,z
_cell_length_a	13.897449
_cell_length_b	15.298530
_cell_length_c	15.296720
_cell_angle_alpha	91.639580
_cell_angle_beta	80.337801
_cell_angle_gamma	99.680571
loop_
_atom_site_label
_atom_site_type_symbol
_atom_site_fract_x
_atom_site_fract_y
_atom_site_fract_z
Zn1	Zn	1.313877	-0.434394	0.434919
Zn2	Zn	1.813877	0.065606	0.934919
Zn3	Zn	1.323195	-0.555541	0.263117
Zn4	Zn	1.823195	-0.055541	0.763117
Zn5	Zn	1.184365	-0.409086	0.288463
Zn6	Zn	1.684365	0.090914	0.788463
Zn7	Zn	1.130181	-0.580829	0.409550
Zn8	Zn	1.630181	-0.080829	0.909550
O9	O	1.237905	-0.494962	0.349012
O10	O	1.737905	0.005038	0.849012
O11	O	1.450091	-0.450473	0.412139
O12	O	1.950091	0.049527	0.912139
O13	O	1.331355	-0.514940	0.143904
O14	O	1.831355	-0.014940	0.643904
O15	O	1.220321	-0.289868	0.329115
O16	O	1.720321	0.210132	0.829115
O17	O	1.456937	-0.539479	0.285917
O18	O	1.956937	-0.039479	0.785917
O19	O	1.315473	-0.308461	0.436716
O20	O	1.815473	0.191539	0.936716
O21	O	1.229357	-0.407340	0.162526
O22	O	1.729357	0.092660	0.662526
O23	O	1.042199	-0.431860	0.304515
O24	O	1.542199	0.068140	0.804515
O25	O	1.127973	-0.582578	0.535490
O26	O	1.627973	-0.082578	1.035490
O27	O	1.002391	-0.558038	0.393477
O28	O	1.502391	-0.058038	0.893477
O29	O	1.262933	-0.474993	0.554128
O30	O	1.762933	0.025007	1.054128
O31	O	1.278816	-0.681471	0.261317
O32	O	1.778816	-0.181471	0.761317
O33	O	1.137009	-0.700050	0.368900
O34	O	1.637009	-0.200050	0.868900
C35	C	0.987296	-0.494947	0.348994
C36	C	1.487296	0.005053	0.848994
C37	C	0.880077	-0.494966	0.349004
C38	C	1.380077	0.005034	0.849004
C39	C	1.188370	-0.534429	0.577480
C40	C	1.688370	-0.034429	1.077480
C41	C	1.167261	-0.551247	0.674839
C42	C	1.667261	-0.051247	1.174839
C43	C	1.203066	-0.722546	0.309625
C44	C	1.703066	-0.222546	0.809625
C45	C	1.188244	-0.819913	0.292804
C46	C	1.688244	-0.319913	0.792804
C47	C	0.683777	-0.494973	0.349026
C48	C	1.183777	0.005027	0.849026
C49	C	0.793013	-0.494966	0.349012
C50	C	1.293013	0.005034	0.849012
C51	C	1.489491	-0.494978	0.349031
C52	C	1.989491	0.005022	0.849031
C53	C	1.596702	-0.494985	0.349038
C54	C	2.096702	0.005015	0.849038
C55	C	1.272901	-0.266493	0.388573
C56	C	1.772901	0.233507	0.888573
C57	C	1.287815	-0.169133	0.405431
C58	C	1.787815	0.330867	0.905431
C59	C	1.131698	0.144031	0.228859
C60	C	1.631698	0.644031	0.728859
C61	C	1.117690	0.052558	0.213013
C62	C	1.617690	0.552558	0.713013
C63	C	1.160219	-0.002869	0.261116
C64	C	1.660219	0.497131	0.761116
C65	C	1.216761	0.033186	0.325067
C66	C	1.716761	0.533186	0.825067
C67	C	1.230777	0.124669	0.340909
C68	C	1.730777	0.624669	0.840909
C69	C	1.259298	-0.022232	0.373167
C70	C	1.759298	0.477768	0.873167
C71	C	1.315839	0.013823	0.437118
C72	C	1.815839	0.513823	0.937118
C73	C	1.329852	0.105298	0.452958
C74	C	1.829852	0.605298	0.952958
C75	C	1.287323	0.160725	0.404855
C76	C	1.787323	0.660725	0.904855
C77	C	1.245282	-0.113715	0.357325
C78	C	1.745282	0.386285	0.857325
C79	C	1.344361	-0.133077	0.469376
C80	C	1.844361	0.366923	0.969376
C81	C	1.358369	-0.041604	0.485221
C82	C	1.858369	0.458396	0.985221
C83	C	1.287312	-0.455586	0.121444
C84	C	1.787312	0.044414	0.621444
C85	C	1.308645	-0.438521	0.024128
C86	C	1.808645	0.061479	0.524128
C87	C	1.388832	-0.374606	0.988095
C88	C	1.888832	0.125394	1.488095
C89	C	1.408670	-0.358806	0.896621
C90	C	1.908670	0.141194	1.396621
C91	C	1.348320	-0.406915	0.841171
C92	C	1.848320	0.093085	1.341171
C93	C	1.268127	-0.470827	0.877204
C94	C	1.768127	0.029173	1.377204
C95	C	1.248291	-0.486633	0.968687
C96	C	1.748291	0.013367	1.468687
C97	C	1.207779	-0.518942	0.821763
C98	C	1.707779	-0.018942	1.321763
C99	C	1.127586	-0.582854	0.857796
C100	C	1.627586	-0.082854	1.357796
C101	C	1.107754	-0.598657	0.949270
C102	C	1.607754	-0.098657	1.449270
C103	C	1.168104	-0.550548	1.004719
C104	C	1.668104	-0.050548	1.504719
C105	C	1.227615	-0.503135	0.730280
C106	C	1.727615	-0.003135	1.230280
C107	C	1.087074	-0.615162	0.710872
C108	C	1.587074	-0.115162	1.210872
C109	C	1.067236	-0.630962	0.802346
C110	C	1.567236	-0.130962	1.302346
H111	H	1.199245	-0.143062	0.305256
H112	H	1.699245	0.356938	0.805256
F113	F	1.302028	0.258057	0.421868
F114	F	1.802028	0.758057	0.921868
H115	H	1.375900	0.134654	0.505023
H116	H	1.875900	0.634654	1.005023
F117	F	1.146997	-0.567365	1.102078
F118	F	1.646997	-0.067365	1.602078
F119	F	1.022417	-0.666690	0.987614
F120	F	1.522417	-0.166690	1.487614
F121	F	1.389631	-0.192062	0.520571
F122	F	1.889631	0.307938	1.020571
F123	F	0.981892	-0.698981	0.840706
F124	F	1.481892	-0.198981	1.340706
H125	H	1.097081	0.189166	0.189694
H126	H	1.597081	0.689166	0.689694
H127	H	1.148810	-0.077351	0.248211
H128	H	1.648810	0.422649	0.748211
F129	F	1.418540	-0.003221	0.553283
F130	F	1.918540	0.496779	1.053283
F131	F	1.312959	-0.435117	0.691942
F132	F	1.812959	0.064883	1.191942
F133	F	1.369435	-0.390096	0.743816
F134	F	1.869435	0.109904	1.243816
F135	F	1.057516	0.014192	0.144955
F136	F	1.557516	0.514192	0.644955
H137	H	1.437966	-0.335448	1.033249
H138	H	1.937966	0.164552	1.533249
F139	F	1.494014	-0.290790	0.858278
F140	F	1.994014	0.209210	1.358278
F141	F	1.022844	-0.666370	0.651862
F142	F	1.522844	-0.166370	1.151862
