data_functionalizedCrystal
_audit_creation_method	'MofGen! by Chris Wilmer'
_symmetry_space_group_name_H-M	'P1'
_symmetry_Int_Tables_number	1
_symmetry_cell_setting	triclinic
loop_
_symmetry_equiv_pos_as_xyz
  x,y,z
_cell_length_a	18.101398
_cell_length_b	18.101395
_cell_length_c	12.759395
_cell_angle_alpha	90.011141
_cell_angle_beta	90.002853
_cell_angle_gamma	90.029256
loop_
_atom_site_label
_atom_site_type_symbol
_atom_site_fract_x
_atom_site_fract_y
_atom_site_fract_z
Zn1	Zn	1.132037	-0.294986	0.593926
Zn2	Zn	1.632037	0.205014	1.093926
Zn3	Zn	1.131958	-0.418799	0.418241
Zn4	Zn	1.631958	0.081201	0.918241
Zn5	Zn	1.008221	-0.294972	0.418270
Zn6	Zn	1.508221	0.205028	0.918270
Zn7	Zn	1.008147	-0.418786	0.593887
Zn8	Zn	1.508147	0.081214	1.093887
O9	O	1.070090	-0.356885	0.506081
O10	O	1.570090	0.143115	1.006081
O11	O	1.235659	-0.311421	0.570625
O12	O	1.735659	0.188579	1.070625
O13	O	1.115542	-0.402373	0.271224
O14	O	1.615542	0.097627	0.771224
O15	O	1.024709	-0.191341	0.441600
O16	O	1.524709	0.308659	0.941600
O17	O	1.235601	-0.402386	0.441550
O18	O	1.735601	0.097614	0.941550
O19	O	1.115677	-0.191351	0.570654
O20	O	1.615677	0.308649	1.070654
O21	O	1.024633	-0.311397	0.271245
O22	O	1.524633	0.188603	0.771245
O23	O	0.904578	-0.311385	0.441562
O24	O	1.404578	0.188615	0.941562
O25	O	1.024583	-0.402364	0.740913
O26	O	1.524583	0.097636	1.240913
O27	O	0.904524	-0.402350	0.570586
O28	O	1.404524	0.097650	1.070586
O29	O	1.115605	-0.311408	0.740942
O30	O	1.615605	0.188592	1.240942
O31	O	1.115470	-0.522430	0.441511
O32	O	1.615470	-0.022430	0.941511
O33	O	1.024506	-0.522420	0.570558
O34	O	1.524506	-0.022420	1.070558
C35	C	0.877680	-0.356865	0.506074
C36	C	1.377680	0.143135	1.006074
C37	C	0.795366	-0.356874	0.506095
C38	C	1.295366	0.143126	1.006095
C39	C	0.644657	-0.356888	0.506094
C40	C	1.144657	0.143112	1.006094
C41	C	0.613294	-0.414209	0.587147
C42	C	1.113294	0.085791	1.087147
C43	C	0.527676	-0.414441	0.586907
C44	C	1.027676	0.085559	1.086907
C45	C	0.496275	-0.356902	0.506094
C46	C	0.996275	0.143098	1.006094
C47	C	0.527343	-0.377707	0.395237
C48	C	1.027343	0.122293	0.895237
C49	C	0.612988	-0.378115	0.395706
C50	C	1.112988	0.121885	0.895706
C51	C	0.613132	-0.278619	0.534930
C52	C	1.113132	0.221381	1.034930
C53	C	0.527482	-0.279049	0.537371
C54	C	1.027482	0.220951	1.037371
C55	C	0.412415	-0.356908	0.506087
C56	C	0.912415	0.143092	1.006087
C57	C	0.728517	-0.356883	0.506093
C58	C	1.228517	0.143117	1.006093
C59	C	1.069991	-0.549296	0.506050
C60	C	1.569991	-0.049296	1.006050
C61	C	1.070017	-0.631610	0.506072
C62	C	1.570017	-0.131610	1.006072
C63	C	1.070179	-0.930701	0.506129
C64	C	1.570179	-0.430701	1.006129
C65	C	1.013080	-0.899401	0.587522
C66	C	1.513080	-0.399401	1.087522
C67	C	1.012809	-0.813783	0.587268
C68	C	1.512809	-0.313783	1.087268
C69	C	1.070099	-0.782319	0.506101
C70	C	1.570099	-0.282319	1.006101
C71	C	1.048985	-0.813447	0.395377
C72	C	1.548985	-0.313447	0.895377
C73	C	1.048617	-0.899092	0.395864
C74	C	1.548617	-0.399092	0.895864
C75	C	1.148517	-0.899053	0.534484
C76	C	1.648517	-0.399053	1.034484
C77	C	1.148056	-0.813402	0.536912
C78	C	1.648056	-0.313402	1.036912
C79	C	1.070054	-0.698459	0.506079
C80	C	1.570054	-0.198459	1.006079
C81	C	1.070222	-1.014560	0.506143
C82	C	1.570222	-0.514560	1.006143
C83	C	1.263252	-0.356906	0.506089
C84	C	1.763252	0.143094	1.006089
C85	C	1.345566	-0.356915	0.506092
C86	C	1.845566	0.143085	1.006092
C87	C	1.070095	-0.356886	0.780114
C88	C	1.570095	0.143114	1.280114
C89	C	1.070096	-0.356886	0.896891
C90	C	1.570096	0.143114	1.396891
C91	C	1.070210	-0.163724	0.506135
C92	C	1.570210	0.336276	1.006135
C93	C	1.070261	-0.081409	0.506158
C94	C	1.570261	0.418591	1.006158
C95	C	1.164884	-0.262180	0.896941
C96	C	1.664884	0.237820	1.396941
C97	C	1.212277	-0.214831	0.951827
C98	C	1.712277	0.285169	1.451827
C99	C	1.212274	-0.214833	1.061549
C100	C	1.712274	0.285167	1.561549
C101	C	1.164871	-0.262189	1.116387
C102	C	1.664871	0.237811	1.616387
C103	C	1.117478	-0.309538	1.061501
C104	C	1.617478	0.190462	1.561501
C105	C	1.117487	-0.309532	0.951777
C106	C	1.617487	0.190468	1.451777
C107	C	1.022688	-0.404239	1.061451
C108	C	1.522688	0.095761	1.561451
C109	C	1.022693	-0.404241	0.951729
C110	C	1.522693	0.095759	1.451729
C111	C	0.975285	-0.451594	1.116289
C112	C	1.475285	0.048406	1.616289
C113	C	0.927894	-0.498948	1.061403
C114	C	1.427894	0.001052	1.561403
C115	C	0.927899	-0.498944	0.951675
C116	C	1.427899	0.001056	1.451675
C117	C	0.975300	-0.451591	0.896843
C118	C	1.475300	0.048409	1.396843
C119	C	1.070081	-0.356899	1.233113
C120	C	1.570081	0.143101	1.733113
C121	C	1.070081	-0.356889	1.116337
C122	C	1.570081	0.143111	1.616337
H123	H	0.633736	-0.338148	0.333243
H124	H	1.133736	0.161852	0.833243
H125	H	0.632934	-0.435318	0.371334
H126	H	1.132934	0.064682	0.871334
H127	H	1.026017	-0.792735	0.669369
H128	H	1.526017	-0.292735	1.169369
H129	H	1.164867	-0.262180	1.205728
H130	H	1.664867	0.237820	1.705728
Br131	Br	0.975316	-0.451587	0.747934
Br132	Br	1.475316	0.048413	1.247934
Br133	Br	1.034870	-0.933677	0.724813
Br134	Br	1.534870	-0.433677	1.224813
Br135	Br	0.916026	-0.779726	0.555972
Br136	Br	1.416026	-0.279726	1.055972
H137	H	1.167770	-0.920617	0.613848
H138	H	1.667770	-0.420617	1.113848
Br139	Br	0.493450	-0.310254	0.291811
Br140	Br	0.993450	0.189746	0.791811
H141	H	0.991353	-0.919129	0.371843
H142	H	1.491353	-0.419129	0.871843
Br143	Br	1.222717	-0.777692	0.445314
Br144	Br	1.722717	-0.277692	0.945314
Br145	Br	0.492660	-0.392815	0.723888
Br146	Br	0.992660	0.107185	1.223888
H147	H	0.975283	-0.451589	1.205630
H148	H	1.475283	0.048411	1.705630
H149	H	1.163978	-0.793056	0.618399
H150	H	1.663978	-0.293056	1.118399
H151	H	0.505867	-0.434286	0.370450
H152	H	1.005867	0.065714	0.870450
H153	H	1.088402	-0.919799	0.333152
H154	H	1.588402	-0.419799	0.833152
H155	H	0.955367	-0.920982	0.568977
H156	H	1.455367	-0.420982	1.068977
Br157	Br	0.647667	-0.392856	0.724553
Br158	Br	1.147667	0.107144	1.224553
Br159	Br	1.276580	-0.150559	1.136041
Br160	Br	1.776580	0.349441	1.636041
H161	H	0.889298	-0.537497	1.106061
H162	H	1.389298	-0.037497	1.606061
Br163	Br	0.863569	-0.563202	0.877196
Br164	Br	1.363569	-0.063202	1.377196
H165	H	0.634747	-0.259607	0.614404
H166	H	1.134747	0.240393	1.114404
H167	H	0.507178	-0.263353	0.618956
H168	H	1.007178	0.236647	1.118956
H169	H	0.506109	-0.234088	0.482687
H170	H	1.006109	0.265912	0.982687
Br171	Br	1.219425	-0.932801	0.435694
Br172	Br	1.719425	-0.432801	0.935694
H173	H	0.634785	-0.471878	0.568247
H174	H	1.134785	0.028122	1.068247
Br175	Br	1.116121	-0.779482	0.291537
Br176	Br	1.616121	-0.279482	0.791537
H177	H	0.633418	-0.235916	0.475901
H178	H	1.133418	0.264084	0.975901
H179	H	0.992328	-0.792056	0.370925
H180	H	1.492328	-0.292056	0.870925
Br181	Br	0.493469	-0.511120	0.555056
Br182	Br	0.993469	-0.011120	1.055056
H183	H	1.164897	-0.262181	0.807600
H184	H	1.664897	0.237819	1.307600
H185	H	1.250870	-0.176274	0.907166
H186	H	1.750870	0.323726	1.407166
