data_functionalizedCrystal
_audit_creation_method	'MofGen! by Chris Wilmer'
_symmetry_space_group_name_H-M	'P1'
_symmetry_Int_Tables_number	1
_symmetry_cell_setting	triclinic
loop_
_symmetry_equiv_pos_as_xyz
  x,y,z
_cell_length_a	16.959455
_cell_length_b	29.839131
_cell_length_c	16.959447
_cell_angle_alpha	89.973821
_cell_angle_beta	89.976455
_cell_angle_gamma	90.038723
loop_
_atom_site_label
_atom_site_type_symbol
_atom_site_fract_x
_atom_site_fract_y
_atom_site_fract_z
Zn1	Zn	1.208290	-0.178896	-0.447039
Zn2	Zn	1.208155	-0.254025	-0.314862
Zn3	Zn	1.076111	-0.178905	-0.314863
Zn4	Zn	1.076033	-0.253996	-0.446987
O5	O	1.142147	-0.216455	-0.380938
O6	O	1.318883	-0.188870	-0.429528
O7	O	1.190615	-0.244076	-0.204251
O8	O	1.093734	-0.116037	-0.332419
O9	O	1.318784	-0.244067	-0.332417
O10	O	1.190845	-0.116030	-0.429528
O11	O	1.093603	-0.188886	-0.204252
O12	O	0.965490	-0.188858	-0.332368
O13	O	1.093601	-0.244018	-0.557605
O14	O	0.965432	-0.244027	-0.429439
O15	O	1.190769	-0.188842	-0.557643
O16	O	1.190540	-0.316888	-0.332366
O17	O	1.093470	-0.316867	-0.429438
C18	C	0.936781	-0.216441	-0.380898
C19	C	0.848924	-0.216445	-0.380900
C20	C	0.477387	-0.245168	-0.330347
C21	C	0.477511	-0.187780	-0.431625
C22	C	0.560057	-0.187773	-0.431606
C23	C	0.601271	-0.216464	-0.380957
C24	C	0.559940	-0.245162	-0.330328
C25	C	0.601394	-0.159078	-0.482240
C26	C	0.683945	-0.159070	-0.482223
C27	C	0.725161	-0.187759	-0.431570
C28	C	0.683825	-0.216458	-0.380938
C29	C	0.725039	-0.245149	-0.330289
C30	C	0.683705	-0.273847	-0.279653
C31	C	0.601156	-0.273851	-0.279674
C32	C	0.807710	-0.187754	-0.431548
C33	C	0.807593	-0.245144	-0.330270
C34	C	1.142003	-0.333178	-0.380914
C35	C	1.142014	-0.383112	-0.380930
C36	C	1.091636	-0.739704	-0.431480
C37	C	1.091531	-0.552031	-0.431455
O38	O	1.048525	-0.527771	-0.474419
N39	N	1.142098	-0.528558	-0.380953
C40	C	1.192698	-0.552005	-0.330458
O41	O	1.235711	-0.527733	-0.287509
C42	C	1.192806	-0.739677	-0.330487
C43	C	1.142230	-0.763148	-0.380986
C44	C	1.041065	-0.763175	-0.481975
C45	C	1.041088	-0.810091	-0.481978
C46	C	1.091683	-0.833535	-0.431485
C47	C	1.142254	-0.810064	-0.380989
C48	C	1.243409	-0.763124	-0.279997
C49	C	1.243433	-0.810045	-0.280010
C50	C	1.192857	-0.833516	-0.330509
C51	C	1.192872	-0.880424	-0.330499
N52	N	1.142305	-0.903897	-0.381000
C53	C	1.091711	-0.880453	-0.431493
C54	C	1.192637	-0.453475	-0.330445
C55	C	1.192609	-0.406557	-0.330437
C56	C	1.091443	-0.406586	-0.431435
C57	C	1.091467	-0.453505	-0.431439
C58	C	1.142070	-0.476948	-0.380947
C59	C	1.091763	-0.978979	-0.431495
C60	C	1.091789	-1.025898	-0.431490
C61	C	1.192958	-1.025865	-0.330496
C62	C	1.192929	-0.978949	-0.330496
C63	C	1.142330	-0.955508	-0.381002
O64	O	1.235861	-0.904713	-0.287563
O65	O	1.048716	-0.904733	-0.474449
C66	C	1.091612	-0.692789	-0.431477
C67	C	1.142183	-0.669318	-0.380981
C68	C	1.192777	-0.692762	-0.330488
C69	C	1.142155	-0.622400	-0.380973
C70	C	1.091561	-0.598955	-0.431466
C71	C	1.040994	-0.622429	-0.481967
C72	C	1.041018	-0.669345	-0.481970
C73	C	1.243344	-0.669288	-0.279987
C74	C	1.243316	-0.622373	-0.279987
C75	C	1.192721	-0.598928	-0.330481
C76	C	1.348315	-0.216470	-0.380978
C77	C	1.436172	-0.216477	-0.380996
C78	C	1.142191	-0.216426	-0.587106
C79	C	1.142210	-0.216413	-0.674963
C80	C	1.142313	-0.099277	-0.380980
C81	C	1.142384	-0.049343	-0.380997
C82	C	1.091629	-0.245135	-0.716218
C83	C	1.192805	-0.187676	-0.716261
C84	C	1.192821	-0.187661	-0.798807
C85	C	1.142240	-0.216383	-0.840062
C86	C	1.091642	-0.245120	-0.798772
C87	C	1.243412	-0.158922	-0.840104
C88	C	1.243430	-0.158906	-0.922655
C89	C	1.192852	-0.187630	-0.963912
C90	C	1.142253	-0.216369	-0.922616
C91	C	1.091672	-0.245090	-0.963871
C92	C	1.041076	-0.273831	-0.922577
C93	C	1.041064	-0.273844	-0.840029
C94	C	1.192864	-0.187617	-1.046460
C95	C	1.091685	-0.245076	-1.046425
C96	C	1.142149	-0.216453	-0.175572
C97	C	1.142283	-0.216339	-0.087715
H98	H	0.841361	-0.164390	-0.472778
H99	H	1.284630	-0.135504	-0.956269
H100	H	1.050437	-0.268536	-0.682593
C101	C	1.292812	-0.130878	-0.724593
C102	C	1.248399	-0.156104	-0.670916
H103	H	1.327131	-0.111385	-0.696595
H104	H	1.323027	-0.150448	-0.756787
H105	H	1.258395	-0.113688	-0.756790
H106	H	1.282817	-0.173297	-0.638722
H107	H	1.218182	-0.136533	-0.638708
H108	H	1.050603	-1.045007	-0.472615
H109	H	0.443949	-0.164424	-0.472865
H110	H	1.234052	-0.164213	-1.080078
C111	C	0.991471	-0.448810	-0.531270
C112	C	1.035881	-0.479302	-0.486956
H113	H	0.957159	-0.464735	-0.565550
H114	H	0.961249	-0.430542	-0.496793
H115	H	1.025891	-0.430478	-0.561530
H116	H	1.001462	-0.497631	-0.456691
H117	H	1.066106	-0.497578	-0.521437
C118	C	0.799178	-0.301872	-0.230162
C119	C	0.852893	-0.276684	-0.274597
H120	H	0.827146	-0.321346	-0.195797
H121	H	0.766986	-0.282277	-0.199995
H122	H	0.766980	-0.319082	-0.264563
H123	H	0.885087	-0.259472	-0.240197
H124	H	0.885098	-0.296281	-0.304767
C125	C	0.991673	-0.301874	-1.038090
C126	C	1.036082	-0.276648	-1.091770
H127	H	0.957344	-0.321363	-1.066086
H128	H	1.026087	-0.319065	-1.005903
H129	H	0.961461	-0.282301	-1.005886
H130	H	1.066298	-0.296220	-1.123971
H131	H	1.001664	-0.259455	-1.123971
C132	C	0.609803	-0.102361	-0.582363
C133	C	0.556092	-0.127547	-0.537918
H134	H	0.581831	-0.082897	-0.616741
H135	H	0.641992	-0.085146	-0.547976
H136	H	0.642002	-0.121961	-0.612525
H137	H	0.523897	-0.107946	-0.507751
H138	H	0.523889	-0.144763	-0.572309
H139	H	0.443728	-0.268531	-0.289118
H140	H	0.717272	-0.297209	-0.238419
C141	C	0.991764	-0.983733	-0.531324
C142	C	1.036142	-0.953216	-0.487009
H143	H	0.957421	-0.967828	-0.565590
H144	H	1.026195	-1.002004	-0.561592
H145	H	0.961567	-1.002060	-0.496841
H146	H	1.066343	-0.934891	-0.521491
H147	H	1.001706	-0.934938	-0.456739
C148	C	1.292611	-0.411252	-0.230611
C149	C	1.248198	-0.380760	-0.274921
H150	H	1.326936	-0.395327	-0.196343
H151	H	1.258201	-0.429579	-0.200345
H152	H	1.322829	-0.429525	-0.265096
H153	H	1.217976	-0.362490	-0.240436
H154	H	1.282613	-0.362426	-0.305189
C155	C	0.996112	-0.299373	-0.713470
C156	C	0.985446	-0.305429	-0.794637
H157	H	0.961770	-0.318869	-0.685446
H158	H	1.049202	-0.305954	-0.699955
H159	H	0.984583	-0.269187	-0.699960
H160	H	0.996980	-0.335614	-0.808148
H161	H	0.932343	-0.298851	-0.808157
H162	H	1.284590	-0.135537	-0.806507
H163	H	0.717593	-0.135703	-0.523455
C164	C	0.941098	-0.805393	-0.581813
C165	C	0.985502	-0.835886	-0.537497
H166	H	0.906785	-0.821316	-0.616095
H167	H	0.910876	-0.787123	-0.547338
H168	H	0.975522	-0.787062	-0.612072
H169	H	0.951078	-0.854214	-0.507234
H170	H	1.015726	-0.854163	-0.571977
H171	H	0.999865	-0.744091	-0.523096
C172	C	0.474561	-0.299345	-0.234745
C173	C	0.555720	-0.305397	-0.224025
H174	H	0.446510	-0.318822	-0.200393
H175	H	0.461058	-0.269156	-0.223270
H176	H	0.461073	-0.305959	-0.287840
H177	H	0.569208	-0.298779	-0.170930
H178	H	0.569228	-0.335592	-0.235494
C179	C	1.046500	-0.334673	-0.476269
C180	C	1.035834	-0.380810	-0.486945
H181	H	1.012177	-0.318760	-0.510544
H182	H	1.034951	-0.327011	-0.423155
H183	H	1.099603	-0.326959	-0.487882
H184	H	0.982732	-0.388525	-0.475326
H185	H	1.047377	-0.388475	-0.540071
H186	H	1.233845	-0.472558	-0.289325
H187	H	1.284643	-0.829130	-0.238895
C188	C	1.343429	-0.767828	-0.180192
C189	C	1.299014	-0.737333	-0.224494
H190	H	1.377764	-0.751905	-0.145931
H191	H	1.309019	-0.786152	-0.149919
H192	H	1.373635	-0.786103	-0.214683
H193	H	1.268803	-0.719059	-0.190003
H194	H	1.333427	-0.719001	-0.254769
C195	C	1.292922	-0.983636	-0.230657
C196	C	1.248513	-0.953147	-0.274979
H197	H	1.327243	-0.967708	-0.196390
H198	H	1.258508	-1.001960	-0.200391
H199	H	1.323143	-1.001911	-0.265135
H200	H	1.218288	-0.934874	-0.240502
H201	H	1.282932	-0.934815	-0.305248
H202	H	1.234148	-1.044962	-0.289383
C203	C	0.941025	-0.664646	-0.581803
C204	C	0.985429	-0.695140	-0.537487
H205	H	0.906710	-0.680570	-0.616082
H206	H	0.910805	-0.646376	-0.547327
H207	H	0.975448	-0.646317	-0.612063
H208	H	0.951006	-0.713467	-0.507222
H209	H	1.015651	-0.713418	-0.571967
H210	H	0.999795	-0.603333	-0.523078
H211	H	1.284499	-0.603266	-0.238858
H212	H	1.284546	-0.688372	-0.238869
H213	H	0.999888	-0.297214	-0.956178
