data_functionalizedCrystal
_audit_creation_method	'MofGen! by Chris Wilmer'
_symmetry_space_group_name_H-M	'P1'
_symmetry_Int_Tables_number	1
_symmetry_cell_setting	triclinic
loop_
_symmetry_equiv_pos_as_xyz
  x,y,z
_cell_length_a	11.792241
_cell_length_b	15.944493
_cell_length_c	10.268362
_cell_angle_alpha	90.000590
_cell_angle_beta	89.999626
_cell_angle_gamma	83.834229
loop_
_atom_site_label
_atom_site_type_symbol
_atom_site_fract_x
_atom_site_fract_y
_atom_site_fract_z
O1	O	1.505928	0.115131	-0.108156
O2	O	1.175486	0.126997	-0.108184
O3	O	1.349765	-0.001173	-0.108180
O4	O	1.331649	0.243301	-0.108160
O5	O	1.349750	-0.001179	0.108421
O6	O	1.175471	0.126991	0.108417
O7	O	1.505913	0.115126	0.108445
Cu8	Cu	1.340690	0.121058	0.128208
Cu9	Cu	1.340708	0.121064	-0.127947
O10	O	1.331634	0.243296	0.108441
C11	C	1.133194	0.126249	0.000112
C12	C	1.007199	0.124018	0.000101
C13	C	0.776522	0.119916	0.000138
C14	C	0.904887	0.122195	0.000117
C15	C	1.349017	-0.032474	0.000115
C16	C	1.346797	-0.125733	0.000098
C17	C	1.449381	-0.361030	0.000132
C18	C	1.394069	-0.411845	-0.106668
C19	C	1.342684	-0.296472	0.000114
C20	C	1.394029	-0.411826	0.106883
C21	C	1.338719	-0.461400	0.000135
C22	C	1.287400	-0.346059	-0.106774
C23	C	1.287376	-0.346037	0.106873
C24	C	1.231985	-0.396820	0.000048
C25	C	1.344971	-0.201462	0.000101
C26	C	1.336423	-0.556407	0.000138
C27	C	1.548205	0.115874	0.000146
C28	C	1.674200	0.118105	0.000149
C29	C	1.332382	0.274597	0.000143
C30	C	1.334602	0.367855	0.000152
N31	N	1.340686	0.121053	0.308374
N32	N	1.340721	0.121063	-0.308113
C33	C	1.340702	0.121063	0.574045
C34	C	1.340690	0.121060	0.426207
H35	H	1.439135	-0.440585	-0.196952
O36	O	1.122327	-0.415921	0.000032
C37	C	1.121395	-0.504269	0.001068
H38	H	1.205365	-0.535046	0.042689
H39	H	1.047683	-0.521525	0.063954
H40	H	1.110384	-0.527679	-0.102598
O41	O	1.233784	-0.311793	-0.214582
C42	C	1.236583	-0.223616	-0.213305
H43	H	1.310537	-0.207299	-0.149995
H44	H	1.248504	-0.200305	-0.316850
H45	H	1.152974	-0.191941	-0.172040
O46	O	1.233823	-0.311779	0.214716
C47	C	1.290369	-0.345460	0.327103
H48	H	1.382154	-0.369651	0.301524
H49	H	1.290035	-0.294237	0.404601
H50	H	1.244643	-0.399727	0.366066
O51	O	1.559068	-0.341987	0.000163
C52	C	1.615702	-0.376905	0.111703
H53	H	1.570520	-0.432006	0.148566
H54	H	1.707721	-0.400224	0.085829
H55	H	1.614663	-0.326722	0.190907
O56	O	1.447955	-0.446153	0.214465
C57	C	1.540187	-0.504577	0.176137
H58	H	1.567981	-0.488943	0.073420
H59	H	1.614464	-0.501057	0.246277
H60	H	1.512701	-0.570970	0.177721
