data_functionalizedCrystal
_audit_creation_method	'MofGen! by Chris Wilmer'
_symmetry_space_group_name_H-M	'P1'
_symmetry_Int_Tables_number	1
_symmetry_cell_setting	triclinic
loop_
_symmetry_equiv_pos_as_xyz
  x,y,z
_cell_length_a	16.992694
_cell_length_b	8.965430
_cell_length_c	16.992700
_cell_angle_alpha	89.994763
_cell_angle_beta	90.667698
_cell_angle_gamma	89.999967
loop_
_atom_site_label
_atom_site_type_symbol
_atom_site_fract_x
_atom_site_fract_y
_atom_site_fract_z
O1	O	1.050850	-0.123892	0.166909
O2	O	0.822450	-0.123935	0.165078
O3	O	0.935736	-0.123876	0.051793
O4	O	0.937565	-0.123951	0.280193
O5	O	0.935722	0.124203	0.051804
O6	O	0.822437	0.124144	0.165088
O7	O	1.050837	0.124187	0.166920
Cu8	Cu	0.936636	0.146817	0.166005
Cu9	Cu	0.936652	-0.146565	0.165992
O10	O	0.937552	0.124128	0.280204
C11	C	0.793084	0.000099	0.162727
C12	C	0.705599	0.000084	0.155699
C13	C	0.659608	0.000063	0.223517
C14	C	0.577407	0.000086	0.216908
C15	C	0.541199	0.000119	0.142480
C16	C	0.587197	0.000145	0.074657
C17	C	0.669396	0.000133	0.081267
C18	C	0.295885	0.000168	0.115086
C19	C	0.213680	0.000176	0.108481
C20	C	0.203896	0.000119	0.250732
C21	C	0.286097	0.000098	0.257335
C22	C	0.332087	0.000132	0.189512
N23	N	0.457177	0.000138	0.135723
N24	N	0.416108	0.000124	0.196270
N25	N	0.936631	0.353166	0.166014
C26	C	0.884220	0.450444	0.218386
C27	C	0.956310	0.549866	0.238120
C28	C	0.864567	0.549872	0.146293
C29	C	1.008758	0.450398	0.185785
C30	C	0.916967	0.450396	0.093925
C31	C	0.989106	0.549773	0.113631
C32	C	1.080204	0.000149	0.169270
C33	C	1.167688	0.000154	0.176299
N34	N	0.936648	0.647086	0.165991
C35	C	0.933374	0.000170	0.022439
C36	C	0.926346	0.000188	-0.065046
C37	C	0.879124	0.000043	-0.556965
C38	C	0.885734	0.000059	-0.474764
C39	C	0.960162	0.000093	-0.438557
C40	C	1.027984	0.000097	-0.484555
C41	C	1.021374	0.000070	-0.566754
C42	C	0.987558	0.000165	-0.193243
C43	C	0.994163	0.000196	-0.111038
C44	C	0.851912	0.000155	-0.101253
C45	C	0.845308	0.000137	-0.183454
C46	C	0.913131	0.000133	-0.229445
N47	N	0.966919	0.000114	-0.354535
N48	N	0.906372	0.000102	-0.313465
C49	C	0.939914	0.000079	0.309559
C50	C	0.946942	0.000051	0.397043
H51	H	0.539964	0.000067	0.272132
O52	O	0.894889	0.392468	0.013207
H53	H	0.937812	0.434002	-0.030388
O54	O	0.154286	0.000107	0.323877
H55	H	0.167705	-0.101023	0.359246
O56	O	0.698658	0.000023	0.303793
H57	H	0.735882	0.101124	0.310208
H58	H	0.839946	0.406832	0.262720
O59	O	0.719007	0.000151	0.008122
H60	H	0.680022	0.000163	-0.044744
H61	H	1.033487	0.593111	0.069332
H62	H	0.184203	0.000201	0.047870
O63	O	0.325150	0.000100	0.337611
H64	H	0.279359	0.000112	0.383660
O65	O	0.548146	0.000195	-0.005620
H66	H	0.566272	-0.100897	-0.038467
O67	O	0.345485	0.000204	0.041937
H68	H	0.306495	0.000216	-0.010925
O69	O	0.978336	0.607835	0.318848
H70	H	0.934730	0.568095	0.362224
H71	H	1.069726	0.406887	0.202528
O72	O	0.783835	0.607755	0.124201
H73	H	0.740437	0.567957	0.167772
H74	H	0.818517	0.000032	-0.586438
H75	H	0.830509	0.000047	-0.437320
H76	H	0.784701	0.000092	-0.212927
O77	O	1.074442	0.000220	-0.071981
H78	H	1.120494	0.000196	-0.117770
H79	H	1.088585	0.000127	-0.455069
O80	O	0.778762	0.000146	-0.051651
H81	H	0.795859	0.000158	0.011591
O82	O	1.060713	0.000178	-0.242833
H83	H	1.061126	-0.100954	-0.280497
H84	H	1.076598	0.000070	-0.604200
