data_functionalizedCrystal
_audit_creation_method	'MofGen! by Chris Wilmer'
_symmetry_space_group_name_H-M	'P1'
_symmetry_Int_Tables_number	1
_symmetry_cell_setting	triclinic
loop_
_symmetry_equiv_pos_as_xyz
  x,y,z
_cell_length_a	12.759401
_cell_length_b	16.120444
_cell_length_c	12.759393
_cell_angle_alpha	87.136376
_cell_angle_beta	90.019684
_cell_angle_gamma	92.925610
loop_
_atom_site_label
_atom_site_type_symbol
_atom_site_fract_x
_atom_site_fract_y
_atom_site_fract_z
Zn1	Zn	1.584963	-0.331877	0.615185
Zn2	Zn	1.575911	-0.471315	0.448401
Zn3	Zn	1.409262	-0.331918	0.439524
Zn4	Zn	1.400312	-0.471249	0.624034
O5	O	1.492612	-0.401590	0.531786
O6	O	1.730782	-0.350385	0.593073
O7	O	1.553762	-0.452869	0.300205
O8	O	1.440103	-0.215247	0.455408
O9	O	1.724132	-0.452829	0.470537
O10	O	1.569190	-0.215217	0.584465
O11	O	1.431326	-0.350455	0.293683
O12	O	1.261054	-0.350390	0.463988
O13	O	1.424848	-0.452716	0.769879
O14	O	1.254479	-0.452756	0.599547
O15	O	1.560511	-0.350320	0.763377
O16	O	1.545083	-0.587972	0.479117
O17	O	1.416071	-0.587923	0.608154
C18	C	1.219646	-0.401571	0.531765
C19	C	1.102868	-0.401583	0.531782
C20	C	1.051404	-0.348211	0.461316
C21	C	0.941679	-0.348230	0.461330
C22	C	0.934891	-0.454996	0.602287
C23	C	1.044615	-0.454980	0.602266
C24	C	1.055322	-0.286568	0.379938
C25	C	0.945597	-0.286587	0.379953
C26	C	1.478652	-0.618198	0.545582
C27	C	1.472776	-0.710863	0.551519
C28	C	1.523350	-0.921809	0.501213
C29	C	1.462068	-0.880519	0.562369
C30	C	1.468028	-0.786114	0.556330
C31	C	1.517392	-1.016223	0.507251
C32	C	1.766644	-0.401610	0.531808
C33	C	1.883420	-0.401618	0.531817
C34	C	1.492691	-0.401506	0.805814
C35	C	1.492724	-0.401470	0.922589
C36	C	1.506655	-0.184136	0.517959
C37	C	1.512639	-0.091471	0.512067
C38	C	1.492597	-0.401614	0.258820
C39	C	1.492782	-0.401415	0.142031
C40	C	1.563373	-0.348148	0.974067
C41	C	1.563400	-0.348117	1.083789
C42	C	1.422126	-0.454739	1.090545
C43	C	1.422095	-0.454765	0.980825
C44	C	1.644940	-0.286593	0.970167
C45	C	1.644967	-0.286563	1.079889
H46	H	1.083950	-0.303778	0.299622
H47	H	1.086512	-0.498449	0.659637
H48	H	1.580287	-0.886262	0.444324
C49	C	1.509205	-0.189088	1.085720
C50	C	1.610991	-0.203743	1.120570
H51	H	1.488231	-0.137958	1.110829
H52	H	1.462314	-0.233058	1.111504
H53	H	1.508046	-0.186297	1.011188
H54	H	1.612148	-0.206541	1.195103
H55	H	1.657894	-0.159762	1.094791
H56	H	1.364562	-0.498182	0.938916
C57	C	0.810818	-0.466730	0.744351
C58	C	0.870855	-0.513682	0.679768
H59	H	0.771291	-0.502962	0.792190
H60	H	0.764468	-0.434956	0.702383
H61	H	0.855983	-0.430440	0.782292
H62	H	0.825688	-0.549968	0.641820
H63	H	0.917209	-0.545471	0.721741
H64	H	1.093307	-0.225257	0.405305
H65	H	1.405126	-0.916071	0.619262
H66	H	1.364620	-0.498128	1.137975
C67	C	1.529775	-0.204640	0.863775
C68	C	1.621137	-0.199439	0.924423
H69	H	1.515085	-0.150836	0.835530
H70	H	1.472722	-0.226071	0.906493
H71	H	1.539566	-0.240530	0.808158
H72	H	1.611343	-0.163553	0.980045
H73	H	1.678203	-0.177996	0.881702
H74	H	0.910046	-0.309645	0.304080
H75	H	0.919974	-0.222042	0.397772
H76	H	1.720727	-0.309740	0.937609
H77	H	1.725228	-0.303857	1.110773
