data_functionalizedCrystal
_audit_creation_method	'MofGen! by Chris Wilmer'
_symmetry_space_group_name_H-M	'P1'
_symmetry_Int_Tables_number	1
_symmetry_cell_setting	triclinic
loop_
_symmetry_equiv_pos_as_xyz
  x,y,z
_cell_length_a	16.120530
_cell_length_b	12.594516
_cell_length_c	16.120297
_cell_angle_alpha	87.126738
_cell_angle_beta	89.871860
_cell_angle_gamma	87.109090
loop_
_atom_site_label
_atom_site_type_symbol
_atom_site_fract_x
_atom_site_fract_y
_atom_site_fract_z
Zn1	Zn	1.247514	-0.539248	0.534570
Zn2	Zn	1.497514	-0.289248	0.784570
Zn3	Zn	1.747514	-0.039248	1.034570
Zn4	Zn	1.997514	0.210752	1.284570
Zn5	Zn	1.254487	-0.708691	0.395513
Zn6	Zn	1.504487	-0.458691	0.645513
Zn7	Zn	1.754487	-0.208691	0.895513
Zn8	Zn	2.004487	0.041309	1.145513
Zn9	Zn	1.115501	-0.521262	0.388487
Zn10	Zn	1.365501	-0.271262	0.638487
Zn11	Zn	1.615501	-0.021262	0.888487
Zn12	Zn	1.865501	0.228738	1.138487
Zn13	Zn	1.108444	-0.707711	0.527483
Zn14	Zn	1.358444	-0.457711	0.777483
Zn15	Zn	1.608444	-0.207711	1.027483
Zn16	Zn	1.858444	0.042289	1.277483
O17	O	1.181487	-0.619228	0.461513
O18	O	1.431487	-0.369228	0.711513
O19	O	1.681487	-0.119228	0.961513
O20	O	1.931487	0.130772	1.211513
O21	O	1.364806	-0.569663	0.522030
O22	O	1.614806	-0.319663	0.772030
O23	O	1.864806	-0.069663	1.022030
O24	O	2.114806	0.180337	1.272030
O25	O	1.241923	-0.676711	0.278216
O26	O	1.491923	-0.426711	0.528216
O27	O	1.741923	-0.176711	0.778216
O28	O	1.991923	0.073289	1.028216
O29	O	1.133048	-0.374706	0.407891
O30	O	1.383048	-0.124706	0.657891
O31	O	1.633048	0.125294	0.907891
O32	O	1.883048	0.375294	1.157891
O33	O	1.369930	-0.694152	0.419866
O34	O	1.619930	-0.444152	0.669866
O35	O	1.869930	-0.194152	0.919866
O36	O	2.119930	0.055848	1.169866
O37	O	1.230037	-0.387920	0.515217
O38	O	1.480037	-0.137920	0.765217
O39	O	1.730037	0.112080	1.015217
O40	O	1.980037	0.362080	1.265217
O41	O	1.139811	-0.539008	0.273054
O42	O	1.389811	-0.289008	0.523054
O43	O	1.639811	-0.039008	0.773054
O44	O	1.889811	0.210992	1.023054
O45	O	0.998198	-0.538057	0.401019
O46	O	1.248198	-0.288057	0.651019
O47	O	1.498198	-0.038057	0.901019
O48	O	1.748198	0.211943	1.151019
O49	O	1.121019	-0.692481	0.644788
O50	O	1.371019	-0.442481	0.894788
O51	O	1.621019	-0.192481	1.144788
O52	O	1.871019	0.057519	1.394788
O53	O	0.993013	-0.675040	0.503138
O54	O	1.243013	-0.425040	0.753138
O55	O	1.493013	-0.175040	1.003138
O56	O	1.743013	0.074960	1.253138
O57	O	1.223193	-0.568712	0.649995
O58	O	1.473193	-0.318712	0.899995
O59	O	1.723193	-0.068712	1.149995
O60	O	1.973193	0.181288	1.399995
O61	O	1.235079	-0.857503	0.412994
O62	O	1.485079	-0.607503	0.662994
O63	O	1.735079	-0.357503	0.912994
O64	O	1.985079	-0.107503	1.162994
O65	O	1.127781	-0.856783	0.509951
O66	O	1.377781	-0.606783	0.759951
O67	O	1.627781	-0.356783	1.009951
O68	O	1.877781	-0.106783	1.259951
C69	C	0.965432	-0.604492	0.450548
C70	C	1.215432	-0.354492	0.700548
C71	C	1.465432	-0.104492	0.950548
C72	C	1.715432	0.145508	1.200548
C73	C	0.873003	-0.598214	0.445876
C74	C	1.123003	-0.348214	0.695876
C75	C	1.373003	-0.098214	0.945876
C76	C	1.623003	0.151786	1.195876
C77	C	1.181443	-0.895764	0.461485
C78	C	1.431443	-0.645764	0.711485
C79	C	1.681443	-0.395764	0.961485
C80	C	1.931443	-0.145764	1.211485
C81	C	1.181499	-1.014075	0.461505
C82	C	1.431499	-0.764075	0.711505
C83	C	1.681499	-0.514075	0.961505
C84	C	1.931499	-0.264075	1.211505
C85	C	0.703771	-0.586729	0.437355
C86	C	0.953771	-0.336729	0.687355
C87	C	1.203771	-0.086729	0.937355
C88	C	1.453771	0.163271	1.187355
C89	C	0.660039	-0.651809	0.485732
C90	C	0.910039	-0.401809	0.735732
C91	C	1.160039	-0.151809	0.985732
C92	C	1.410039	0.098191	1.235732
C93	C	0.565873	-0.645419	0.480991
C94	C	0.815873	-0.395419	0.730991
C95	C	1.065873	-0.145419	0.980991
C96	C	1.315873	0.104581	1.230991
C97	C	0.797946	-0.593118	0.442095
C98	C	1.047946	-0.343118	0.692095
C99	C	1.297946	-0.093118	0.942095
C100	C	1.547946	0.156882	1.192095
C101	C	1.239955	-1.154457	0.408872
C102	C	1.489955	-0.904457	0.658872
C103	C	1.739955	-0.654457	0.908872
C104	C	1.989955	-0.404457	1.158872
C105	C	1.165106	-1.077346	0.384592
C106	C	1.415106	-0.827346	0.634592
C107	C	1.665106	-0.577346	0.884592
C108	C	1.915106	-0.327346	1.134592
C109	C	1.256341	-1.089611	0.485746
C110	C	1.506341	-0.839611	0.735746
C111	C	1.756341	-0.589611	0.985746
C112	C	2.006341	-0.339611	1.235746
C113	C	1.106694	-1.147754	0.437261
C114	C	1.356694	-0.897754	0.687261
C115	C	1.606694	-0.647754	0.937261
C116	C	1.856694	-0.397754	1.187261
C117	C	1.197978	-1.160031	0.538452
C118	C	1.447978	-0.910031	0.788452
C119	C	1.697978	-0.660031	1.038452
C120	C	1.947978	-0.410031	1.288452
C121	C	1.123075	-1.082950	0.514199
C122	C	1.373075	-0.832950	0.764199
C123	C	1.623075	-0.582950	1.014199
C124	C	1.873075	-0.332950	1.264199
C125	C	1.398384	-0.634023	0.472522
C126	C	1.648384	-0.384023	0.722522
C127	C	1.898384	-0.134023	0.972522
C128	C	2.148384	0.115977	1.222522
C129	C	1.490813	-0.640327	0.477213
C130	C	1.740813	-0.390327	0.727213
C131	C	1.990813	-0.140327	0.977213
C132	C	2.240813	0.109673	1.227213
C133	C	1.170541	-0.632494	0.678408
C134	C	1.420541	-0.382494	0.928408
C135	C	1.670541	-0.132494	1.178408
C136	C	1.920541	0.117506	1.428408
C137	C	1.165877	-0.638147	0.770835
C138	C	1.415877	-0.388147	1.020835
C139	C	1.665877	-0.138147	1.270835
C140	C	1.915877	0.111853	1.520835
C141	C	1.181552	-0.341615	0.461561
C142	C	1.431552	-0.091615	0.711561
C143	C	1.681552	0.158385	0.961561
C144	C	1.931552	0.408385	1.211561
C145	C	1.181580	-0.223312	0.461581
C146	C	1.431580	0.026688	0.711581
C147	C	1.681580	0.276688	0.961581
C148	C	1.931580	0.526688	1.211581
C149	C	1.192437	-0.605941	0.245465
C150	C	1.442437	-0.355941	0.495465
C151	C	1.692437	-0.105941	0.745465
C152	C	1.942437	0.144059	0.995465
C153	C	1.197263	-0.599999	0.153046
C154	C	1.447263	-0.349999	0.403046
C155	C	1.697263	-0.099999	0.653046
C156	C	1.947263	0.150001	0.903046
C157	C	1.157331	-0.648442	0.940060
C158	C	1.407331	-0.398442	1.190060
C159	C	1.657331	-0.148442	1.440060
C160	C	1.907331	0.101558	1.690060
C161	C	1.205806	-0.589707	0.983827
C162	C	1.455806	-0.339707	1.233827
C163	C	1.705806	-0.089707	1.483827
C164	C	1.955806	0.160293	1.733827
C165	C	1.201051	-0.595435	1.077989
C166	C	1.451051	-0.345435	1.327989
C167	C	1.701051	-0.095435	1.577989
C168	C	1.951051	0.154565	1.827989
C169	C	1.162085	-0.642715	0.845889
C170	C	1.412085	-0.392715	1.095889
C171	C	1.662085	-0.142715	1.345889
C172	C	1.912085	0.107285	1.595889
H173	H	0.670493	-0.526218	0.392380
H174	H	0.920493	-0.276218	0.642380
H175	H	1.170493	-0.026218	0.892380
H176	H	1.420493	0.223782	1.142380
O177	O	0.704114	-0.731974	0.545314
O178	O	0.954114	-0.481974	0.795314
O179	O	1.204114	-0.231974	1.045314
O180	O	1.454114	0.018026	1.295314
H181	H	0.745547	-0.786407	0.509971
H182	H	0.995547	-0.536407	0.759971
H183	H	1.245547	-0.286407	1.009971
H184	H	1.495547	-0.036407	1.259971
H185	H	1.211911	-1.196178	0.603477
H186	H	1.461911	-0.946178	0.853477
H187	H	1.711911	-0.696178	1.103477
H188	H	1.961911	-0.446178	1.353477
O189	O	1.265518	-0.517407	0.939792
O190	O	1.515518	-0.267407	1.189792
O191	O	1.765518	-0.017407	1.439792
O192	O	2.015518	0.232593	1.689792
H193	H	1.329951	-0.541113	0.959735
H194	H	1.579951	-0.291113	1.209735
H195	H	1.829951	-0.041113	1.459735
H196	H	2.079951	0.208887	1.709735
O197	O	1.305318	-1.196033	0.349828
O198	O	1.555318	-0.946033	0.599828
O199	O	1.805318	-0.696033	0.849828
O200	O	2.055318	-0.446033	1.099828
H201	H	1.291469	-1.162734	0.286024
H202	H	1.541469	-0.912734	0.536024
H203	H	1.791469	-0.662734	0.786024
H204	H	2.041469	-0.412734	1.036024
O205	O	1.146678	-1.029477	0.298444
O206	O	1.396678	-0.779477	0.548444
O207	O	1.646678	-0.529477	0.798444
O208	O	1.896678	-0.279477	1.048444
H209	H	1.195251	-1.058127	0.254835
H210	H	1.445251	-0.808127	0.504835
H211	H	1.695251	-0.558127	0.754835
H212	H	1.945251	-0.308127	1.004835
H213	H	1.043421	-1.173369	0.416717
H214	H	1.293421	-0.923369	0.666717
H215	H	1.543421	-0.673369	0.916717
H216	H	1.793421	-0.423369	1.166717
H217	H	1.073620	-1.051760	0.558739
H218	H	1.323620	-0.801760	0.808739
H219	H	1.573620	-0.551760	1.058739
H220	H	1.823620	-0.301760	1.308739
H221	H	1.319598	-1.063858	0.506216
H222	H	1.569598	-0.813858	0.756216
H223	H	1.819598	-0.563858	1.006216
H224	H	2.069598	-0.313858	1.256216
H225	H	1.112262	-0.703025	0.973306
H226	H	1.362262	-0.453025	1.223306
H227	H	1.612262	-0.203025	1.473306
H228	H	1.862262	0.046975	1.723306
