data_functionalizedCrystal
_audit_creation_method	'MofGen! by Chris Wilmer'
_symmetry_space_group_name_H-M	'P1'
_symmetry_Int_Tables_number	1
_symmetry_cell_setting	triclinic
loop_
_symmetry_equiv_pos_as_xyz
  x,y,z
_cell_length_a	10.654550
_cell_length_b	10.654550
_cell_length_c	9.130313
_cell_angle_alpha	90.000276
_cell_angle_beta	89.996647
_cell_angle_gamma	95.515083
loop_
_atom_site_label
_atom_site_type_symbol
_atom_site_fract_x
_atom_site_fract_y
_atom_site_fract_z
O1	O	0.176399	-1.667839	-0.121686
O2	O	0.193205	-1.302361	-0.121712
O3	O	0.002063	-1.493503	-0.121693
O4	O	0.367541	-1.476697	-0.121705
O5	O	0.002057	-1.493490	0.121906
O6	O	0.193199	-1.302348	0.121886
O7	O	0.176393	-1.667826	0.121913
Cu8	Cu	0.184796	-1.485086	0.144142
Cu9	Cu	0.184802	-1.485101	-0.143942
O10	O	0.367535	-1.476684	0.121894
C11	C	0.191968	-1.255556	0.000084
C12	C	0.188276	-1.116113	0.000073
C13	C	-0.044738	-1.492263	0.000104
C14	C	-0.184181	-1.488571	0.000099
C15	C	0.177630	-1.714631	0.000114
C16	C	0.181322	-1.854074	0.000114
C17	C	-0.263667	-1.601112	0.000112
C18	C	-0.394688	-1.597636	0.000101
C19	C	-0.366725	-1.369066	0.000072
C20	C	-0.235706	-1.372544	0.000072
C21	C	-0.212142	-1.717139	0.000139
C22	C	-0.291629	-1.829690	0.000153
C23	C	-0.422650	-1.826213	0.000143
C24	C	-0.474184	-1.710186	0.000118
C25	C	0.414336	-1.477924	0.000093
C26	C	0.553779	-1.481616	0.000089
N27	N	0.184790	-1.485084	0.346765
C28	C	0.300818	-1.036627	0.000074
C29	C	0.297341	-0.905607	0.000100
C30	C	0.068772	-0.933570	0.000118
C31	C	0.072250	-1.064588	0.000103
N32	N	0.184798	-1.485113	-0.346564
C33	C	0.100188	-1.569751	0.423425
C34	C	0.100189	-1.569763	0.576762
C35	C	0.269404	-1.400437	0.576765
C36	C	0.269396	-1.400420	0.423431
H37	H	-0.105460	-1.719983	0.000152
H38	H	-0.170986	-1.280903	0.000063
C39	C	0.007129	-1.662893	0.661089
H40	H	0.019237	-1.650772	0.763390
H41	H	0.021548	-1.746824	0.635949
H42	H	-0.076823	-1.648520	0.635967
H43	H	-0.025693	-0.891602	0.000151
H44	H	0.338290	-1.331468	0.361009
H45	H	-0.019401	-1.129309	0.000107
H46	H	0.031295	-1.638687	0.361008
H47	H	0.338290	-1.331508	0.639201
H48	H	-0.249661	-1.924155	0.000137
H49	H	-0.487366	-1.917857	0.000139
C50	C	-0.423404	-1.241446	0.000051
H51	H	-0.357299	-1.174916	0.000030
H52	H	-0.473939	-1.235330	0.084997
H53	H	-0.473927	-1.235350	-0.084910
H54	H	-0.580871	-1.707364	0.000094
H55	H	0.388984	-0.840894	0.000103
C56	C	0.428441	-1.093302	0.000057
H57	H	0.494967	-1.027193	0.000074
H58	H	0.434553	-1.143824	-0.084896
H59	H	0.434545	-1.143836	0.085011
