data_functionalizedCrystal
_audit_creation_method	'MofGen! by Chris Wilmer'
_symmetry_space_group_name_H-M	'P1'
_symmetry_Int_Tables_number	1
_symmetry_cell_setting	triclinic
loop_
_symmetry_equiv_pos_as_xyz
  x,y,z
_cell_length_a	21.295419
_cell_length_b	25.639240
_cell_length_c	21.295411
_cell_angle_alpha	90.026709
_cell_angle_beta	90.024539
_cell_angle_gamma	90.047559
loop_
_atom_site_label
_atom_site_type_symbol
_atom_site_fract_x
_atom_site_fract_y
_atom_site_fract_z
Zn1	Zn	0.962346	-0.208004	0.355889
Zn2	Zn	1.462346	0.291996	0.855889
Zn3	Zn	0.962244	-0.295424	0.250605
Zn4	Zn	1.462244	0.204576	0.750605
Zn5	Zn	0.857069	-0.208027	0.250634
Zn6	Zn	1.357069	0.291973	0.750634
Zn7	Zn	0.857034	-0.295433	0.355837
Zn8	Zn	1.357034	0.204567	0.855837
O9	O	0.909673	-0.251722	0.303241
O10	O	1.409673	0.248278	0.803241
O11	O	1.050422	-0.219587	0.341933
O12	O	1.550422	0.280413	0.841933
O13	O	0.948264	-0.283836	0.162520
O14	O	1.448264	0.216164	0.662520
O15	O	0.871091	-0.134859	0.264630
O16	O	1.371091	0.365141	0.764630
O17	O	1.050347	-0.283814	0.264581
O18	O	1.550347	0.216186	0.764581
O19	O	0.948438	-0.134842	0.341961
O20	O	1.448438	0.365158	0.841961
O21	O	0.870993	-0.219626	0.162541
O22	O	1.370993	0.280374	0.662541
O23	O	0.768975	-0.219635	0.264580
O24	O	1.268975	0.280365	0.764580
O25	O	0.871032	-0.283829	0.443933
O26	O	1.371032	0.216171	0.943933
O27	O	0.768949	-0.283851	0.341872
O28	O	1.268949	0.216149	0.841872
O29	O	0.948404	-0.219596	0.443971
O30	O	1.448404	0.280404	0.943971
O31	O	0.948231	-0.368590	0.264530
O32	O	1.448231	0.131410	0.764530
O33	O	0.870933	-0.368597	0.341844
O34	O	1.370933	0.131403	0.841844
C35	C	0.746122	-0.251747	0.303224
C36	C	1.246122	0.248253	0.803224
C37	C	0.676153	-0.251770	0.303231
C38	C	1.176153	0.248230	0.803231
C39	C	0.643348	-0.218382	0.343570
C40	C	1.143348	0.281618	0.843570
C41	C	0.577606	-0.218368	0.343573
C42	C	1.077606	0.281632	0.843573
C43	C	0.544671	-0.251751	0.303242
C44	C	1.044671	0.248249	0.803242
C45	C	0.577484	-0.285142	0.262895
C46	C	1.077484	0.214858	0.762895
C47	C	0.643225	-0.285152	0.262890
C48	C	1.143225	0.214848	0.762890
N49	N	0.441393	-0.297498	0.298318
N50	N	0.941393	0.202502	0.798318
N51	N	0.378942	-0.297487	0.298327
N52	N	0.878942	0.202513	0.798327
C53	C	0.346596	-0.251724	0.303256
C54	C	0.846596	0.248276	0.803256
N55	N	0.379061	-0.205972	0.308189
N56	N	0.879061	0.294028	0.808189
N57	N	0.441518	-0.205983	0.308183
N58	N	0.941518	0.294017	0.808183
C59	C	0.473386	-0.251745	0.303244
C60	C	0.973386	0.248255	0.803244
C61	C	0.242505	-0.218318	0.343600
C62	C	0.742505	0.281682	0.843600
C63	C	0.176762	-0.218303	0.343598
C64	C	0.676762	0.281697	0.843598
C65	C	0.176641	-0.285082	0.262924
C66	C	0.676641	0.214918	0.762924
C67	C	0.242384	-0.285092	0.262923
C68	C	0.742384	0.214908	0.762923
C69	C	0.275312	-0.251711	0.303264
C70	C	0.775312	0.248289	0.803264
C71	C	0.909584	-0.387564	0.303192
C72	C	1.409584	0.112436	0.803192
C73	C	0.909604	-0.445678	0.303192
C74	C	1.409604	0.054322	0.803192
C75	C	0.949967	-0.805994	0.343580
C76	C	1.449967	-0.305994	0.843580
C77	C	0.949986	-0.860599	0.343593
C78	C	1.449986	-0.360599	0.843593
O79	O	0.984199	-0.888795	0.377881
O80	O	1.484199	-0.388795	0.877881
N81	N	0.909761	-0.887961	0.303302
N82	N	1.409761	-0.387961	0.803302
C83	C	0.869509	-0.860716	0.263001
C84	C	1.369509	-0.360716	0.763001
O85	O	0.835296	-0.889004	0.228732
O86	O	1.335296	-0.389004	0.728732
C87	C	0.869488	-0.806113	0.262992
C88	C	1.369488	-0.306113	0.762992
C89	C	0.909721	-0.778753	0.303280
C90	C	1.409721	-0.278753	0.803280
C91	C	0.990196	-0.778635	0.383866
C92	C	1.490196	-0.278635	0.883866
C93	C	0.990178	-0.724034	0.383852
C94	C	1.490178	-0.224034	0.883852
C95	C	0.949932	-0.696793	0.343552
C96	C	1.449932	-0.196793	0.843552
C97	C	0.909703	-0.724153	0.303266
C98	C	1.409703	-0.224153	0.803266
C99	C	0.829234	-0.778869	0.222694
C100	C	1.329234	-0.278869	0.722694
C101	C	0.829216	-0.724262	0.222688
C102	C	1.329216	-0.224262	0.722688
C103	C	0.869449	-0.696902	0.262977
C104	C	1.369449	-0.196902	0.762977
C105	C	0.869438	-0.642311	0.262953
C106	C	1.369438	-0.142311	0.762953
N107	N	0.909664	-0.614949	0.303243
N108	N	1.409664	-0.114949	0.803243
C109	C	0.949910	-0.642190	0.343543
C110	C	1.449910	-0.142190	0.843543
C111	C	0.869556	-0.975387	0.263024
C112	C	1.369556	-0.475387	0.763024
C113	C	0.869580	-1.029989	0.263029
C114	C	1.369580	-0.529989	0.763029
C115	C	0.950056	-1.029868	0.343622
C116	C	1.450056	-0.529868	0.843622
C117	C	0.950035	-0.975264	0.343613
C118	C	1.450035	-0.475264	0.843613
C119	C	0.909782	-0.948024	0.303314
C120	C	1.409782	-0.448024	0.803314
C121	C	0.949870	-0.527525	0.343511
C122	C	1.449870	-0.027525	0.843511
C123	C	0.949850	-0.472919	0.343492
C124	C	1.449850	0.027081	0.843492
C125	C	0.869372	-0.473046	0.262901
C126	C	1.369372	0.026954	0.762901
C127	C	0.869394	-0.527646	0.262918
C128	C	1.369394	-0.027646	0.762918
C129	C	0.909645	-0.554884	0.303228
C130	C	1.409645	-0.054884	0.803228
O131	O	0.835241	-0.614080	0.228684
O132	O	1.335241	-0.114080	0.728684
O133	O	0.984112	-0.613895	0.377812
O134	O	1.484112	-0.113895	0.877812
C135	C	1.073863	-0.251697	0.303259
C136	C	1.573863	0.248303	0.803259
C137	C	1.143832	-0.251686	0.303267
C138	C	1.643832	0.248314	0.803267
C139	C	0.909725	-0.251711	0.467432
C140	C	1.409725	0.248289	0.967432
C141	C	0.909748	-0.251706	0.537400
C142	C	1.409748	0.248294	1.037400
C143	C	0.909780	-0.115349	0.303305
C144	C	1.409780	0.384651	0.803305
C145	C	0.909825	-0.057235	0.303331
C146	C	1.409825	0.442765	0.803331
C147	C	0.909657	-0.251695	0.139690
C148	C	1.409657	0.248305	0.639690
C149	C	0.909757	-0.251552	0.069722
C150	C	1.409757	0.248448	0.569722
C151	C	0.950033	-0.218258	0.570287
C152	C	1.450033	0.281742	1.070287
C153	C	0.950033	-0.218235	0.636030
C154	C	1.450033	0.281765	1.136030
C155	C	0.909753	-0.251670	0.668882
C156	C	1.409753	0.248330	1.168882
C157	C	0.869459	-0.285120	0.635987
C158	C	1.369459	0.214880	1.135987
C159	C	0.869456	-0.285138	0.570245
C160	C	1.369456	0.214862	1.070245
N161	N	0.904894	-0.297409	0.772093
N162	N	1.404894	0.202591	1.272093
N163	N	0.904900	-0.297391	0.834544
N164	N	1.404900	0.202609	1.334544
C165	C	0.909757	-0.251617	0.866957
C166	C	1.409757	0.248383	1.366957
N167	N	0.914619	-0.205862	0.834559
N168	N	1.414619	0.294138	1.334559
N169	N	0.914617	-0.205881	0.772102
N170	N	1.414617	0.294119	1.272102
C171	C	0.909750	-0.251654	0.740168
C172	C	1.409750	0.248346	1.240168
C173	C	0.950044	-0.218142	0.971130
C174	C	1.450044	0.281858	1.471130
C175	C	0.950038	-0.218118	1.036874
C176	C	1.450038	0.281882	1.536874
C177	C	0.869468	-0.285008	1.036830
C178	C	1.369468	0.214992	1.536830
C179	C	0.869470	-0.285027	0.971087
C180	C	1.369470	0.214973	1.471087
C181	C	0.909761	-0.251594	0.938241
C182	C	1.409761	0.248406	1.438241
H183	H	0.670154	-0.191200	0.376419
H184	H	1.170154	0.308800	0.876419
H185	H	0.150053	-0.191111	0.376446
H186	H	0.650053	0.308889	0.876446
H187	H	0.982795	-0.952991	0.376420
H188	H	1.482795	-0.452991	0.876420
H189	H	0.836779	-0.953210	0.230202
H190	H	1.336779	-0.453210	0.730202
F191	F	0.786371	-0.695274	0.179796
F192	F	1.286371	-0.195274	0.679796
F193	F	0.992890	-1.058869	0.386514
F194	F	1.492890	-0.558869	0.886514
H195	H	0.982642	-0.549696	0.376339
H196	H	1.482642	-0.049696	0.876339
H197	H	0.149827	-0.312264	0.230087
H198	H	0.649827	0.187736	0.730087
F199	F	0.826588	-0.320702	0.670951
F200	F	1.326588	0.179298	1.170951
F201	F	0.277299	-0.320628	0.219986
F202	F	0.777299	0.179372	0.719986
H203	H	1.022937	-0.701761	0.416660
H204	H	1.522937	-0.201761	0.916660
H205	H	0.669935	-0.312341	0.230040
H206	H	1.169935	0.187659	0.730040
H207	H	0.269317	-0.191134	0.376445
H208	H	0.769317	0.308866	0.876445
H209	H	0.836648	-0.312375	0.543469
H210	H	1.336648	0.187625	1.043469
H211	H	0.982837	-0.190995	0.662812
H212	H	1.482837	0.309005	1.162812
F213	F	0.992675	-0.443804	0.386373
F214	F	1.492675	0.056196	0.886373
H215	H	0.836638	-0.549923	0.230107
H216	H	1.336638	-0.049923	0.730107
H217	H	0.982848	-0.190916	0.944386
H218	H	1.482848	0.309084	1.444386
H219	H	0.982843	-0.190878	1.063650
H220	H	1.482843	0.309122	1.563650
F221	F	0.542685	-0.182829	0.386508
F222	F	1.042685	0.317171	0.886508
F223	F	0.826594	-0.320588	1.071789
F224	F	1.326594	0.179412	1.571789
H225	H	0.836668	-0.312267	0.944310
H226	H	1.336668	0.187733	1.444310
H227	H	1.022970	-0.800808	0.416686
H228	H	1.522970	-0.300808	0.916686
F229	F	0.786411	-0.807975	0.179814
F230	F	1.286411	-0.307975	0.679814
F231	F	0.542432	-0.320670	0.219971
F232	F	1.042432	0.179330	0.719971
H233	H	0.836826	-1.052260	0.230215
H234	H	1.336826	-0.552260	0.730215
F235	F	0.992913	-0.182674	0.535334
F236	F	1.492913	0.317326	1.035334
H237	H	0.836606	-0.450857	0.230088
H238	H	1.336606	0.049143	0.730088
