data_functionalizedCrystal
_audit_creation_method	'MofGen! by Chris Wilmer'
_symmetry_space_group_name_H-M	'P1'
_symmetry_Int_Tables_number	1
_symmetry_cell_setting	triclinic
loop_
_symmetry_equiv_pos_as_xyz
  x,y,z
_cell_length_a	23.532407
_cell_length_b	23.532407
_cell_length_c	22.010155
_cell_angle_alpha	90.009202
_cell_angle_beta	90.013018
_cell_angle_gamma	82.848712
loop_
_atom_site_label
_atom_site_type_symbol
_atom_site_fract_x
_atom_site_fract_y
_atom_site_fract_z
O1	O	0.755269	0.069134	0.050493
O2	O	1.255269	0.569134	0.550493
O3	O	0.589405	0.079137	0.050503
O4	O	1.089405	0.579137	0.550503
O5	O	0.677339	-0.008796	0.050487
O6	O	1.177339	0.491204	0.550487
O7	O	0.667336	0.157067	0.050510
O8	O	1.167336	0.657067	0.550510
O9	O	0.677312	-0.008796	-0.050564
O10	O	1.177312	0.491204	0.449436
O11	O	0.589379	0.079137	-0.050547
O12	O	1.089379	0.579137	0.449453
O13	O	0.755242	0.069134	-0.050557
O14	O	1.255242	0.569134	0.449443
Cu15	Cu	0.672308	0.074135	-0.059779
Cu16	Cu	1.172308	0.574135	0.440221
Cu17	Cu	0.672340	0.074135	0.059725
Cu18	Cu	1.172340	0.574135	0.559725
O19	O	0.667309	0.157067	-0.050541
O20	O	1.167309	0.657067	0.449459
C21	C	0.568176	0.078882	-0.000021
C22	C	1.068176	0.578882	0.499979
C23	C	0.504959	0.078116	-0.000017
C24	C	1.004959	0.578116	0.499983
C25	C	0.238792	0.022921	-0.000041
C26	C	0.738792	0.522921	0.499959
C27	C	0.298192	0.023632	-0.000041
C28	C	0.798192	0.523632	0.499959
O29	O	0.334937	-0.020153	-0.000068
O30	O	0.834937	0.479847	0.499932
N31	N	0.320818	0.075909	-0.000030
N32	N	0.820818	0.575909	0.499970
C33	C	0.284041	0.127477	-0.000025
C34	C	0.784041	0.627477	0.499975
O35	O	0.308740	0.172007	-0.000016
O36	O	0.808740	0.672007	0.499984
C37	C	0.224642	0.126765	-0.000029
C38	C	0.724642	0.626765	0.499971
C39	C	0.202019	0.074485	-0.000035
C40	C	0.702019	0.574485	0.499965
C41	C	0.216168	-0.029354	-0.000047
C42	C	0.716168	0.470646	0.499953
C43	C	0.156772	-0.030066	-0.000046
C44	C	0.656772	0.469934	0.499954
C45	C	0.119999	0.021499	-0.000039
C46	C	0.619999	0.521499	0.499961
C47	C	0.142623	0.073774	-0.000034
C48	C	0.642623	0.573774	0.499966
C49	C	0.187865	0.178333	-0.000029
C50	C	0.687865	0.678333	0.499971
C51	C	0.128463	0.177616	-0.000034
C52	C	0.628463	0.677616	0.499966
C53	C	0.105840	0.125336	-0.000039
C54	C	0.605840	0.625336	0.499961
C55	C	0.046454	0.124627	-0.000026
C56	C	0.546454	0.624627	0.499974
N57	N	0.023828	0.072351	-0.000037
N58	N	0.523828	0.572351	0.499963
C59	C	0.060600	0.020787	-0.000044
C60	C	0.560600	0.520787	0.499956
C61	C	0.408783	0.128968	-0.000016
C62	C	0.908783	0.628968	0.499984
C63	C	0.468181	0.129681	-0.000007
C64	C	0.968181	0.629681	0.499993
C65	C	0.482328	0.025836	-0.000025
C66	C	0.982328	0.525836	0.499975
C67	C	0.422929	0.025124	-0.000029
C68	C	0.922929	0.525124	0.499971
C69	C	0.386157	0.076692	-0.000027
C70	C	0.886157	0.576692	0.499973
C71	C	-0.064136	0.019297	-0.000042
C72	C	0.435864	0.519297	0.499958
C73	C	-0.123538	0.018590	-0.000038
C74	C	0.376462	0.518590	0.499962
C75	C	-0.137680	0.122435	-0.000024
C76	C	0.362320	0.622435	0.499976
C77	C	-0.078284	0.123142	-0.000024
C78	C	0.421716	0.623142	0.499976
C79	C	-0.041512	0.071568	-0.000035
C80	C	0.458488	0.571568	0.499965
O81	O	0.009675	0.168390	-0.000001
O82	O	0.509675	0.668390	0.499999
O83	O	0.035892	-0.023737	-0.000061
O84	O	0.535892	0.476263	0.499939
C85	C	0.677071	-0.030012	-0.000040
C86	C	1.177071	0.469988	0.499960
C87	C	0.676305	-0.093229	-0.000045
C88	C	1.176305	0.406771	0.499955
C89	C	0.723538	-0.492332	-0.000014
C90	C	1.223538	0.007668	0.499986
C91	C	0.722827	-0.551733	-0.000010
C92	C	1.222827	-0.051733	0.499990
O93	O	0.766613	-0.588477	0.000010
O94	O	1.266613	-0.088477	0.500010
N95	N	0.670551	-0.574359	-0.000007
N96	N	1.170551	-0.074359	0.499993
C97	C	0.618982	-0.537581	-0.000002
C98	C	1.118982	-0.037581	0.499998
O99	O	0.574452	-0.562281	0.000001
O100	O	1.074452	-0.062281	0.500001
C101	C	0.619695	-0.478182	-0.000003
C102	C	1.119695	0.021818	0.499997
C103	C	0.671974	-0.455559	-0.000012
C104	C	1.171974	0.044441	0.499988
C105	C	0.775814	-0.469709	-0.000023
C106	C	1.275814	0.030291	0.499977
C107	C	0.776525	-0.410313	-0.000028
C108	C	1.276525	0.089687	0.499972
C109	C	0.724961	-0.373540	-0.000026
C110	C	1.224961	0.126460	0.499974
C111	C	0.672685	-0.396163	-0.000018
C112	C	1.172685	0.103837	0.499982
C113	C	0.568127	-0.441406	0.000006
C114	C	1.068127	0.058594	0.500006
C115	C	0.568843	-0.382003	0.000006
C116	C	1.068843	0.117997	0.500006
C117	C	0.621123	-0.359381	-0.000003
C118	C	1.121123	0.140619	0.499997
C119	C	0.621832	-0.299994	-0.000021
C120	C	1.121832	0.200006	0.499979
N121	N	0.674109	-0.277368	-0.000024
N122	N	1.174109	0.222632	0.499976
C123	C	0.725673	-0.314141	-0.000026
C124	C	1.225673	0.185859	0.499974
C125	C	0.617491	-0.662324	-0.000001
C126	C	1.117491	-0.162324	0.499999
C127	C	0.616778	-0.721722	-0.000005
C128	C	1.116778	-0.221722	0.499995
C129	C	0.720623	-0.735869	-0.000011
C130	C	1.220623	-0.235869	0.499989
C131	C	0.721335	-0.676470	-0.000011
C132	C	1.221335	-0.176470	0.499989
C133	C	0.669767	-0.639698	-0.000004
C134	C	1.169767	-0.139698	0.499996
C135	C	0.727163	-0.189404	-0.000039
C136	C	1.227163	0.310596	0.499961
C137	C	0.727869	-0.130002	-0.000047
C138	C	1.227869	0.369998	0.499953
C139	C	0.624025	-0.115860	-0.000038
C140	C	1.124025	0.384140	0.499962
C141	C	0.623318	-0.175257	-0.000033
C142	C	1.123318	0.324743	0.499967
C143	C	0.674891	-0.212028	-0.000031
C144	C	1.174891	0.287972	0.499969
O145	O	0.578069	-0.263215	-0.000038
O146	O	1.078069	0.236785	0.499962
O147	O	0.770196	-0.289433	-0.000022
O148	O	1.270196	0.210567	0.499978
C149	C	0.776472	0.069389	-0.000032
C150	C	1.276472	0.569389	0.499968
C151	C	0.839689	0.070155	-0.000032
C152	C	1.339689	0.570155	0.499968
C153	C	0.667577	0.178283	-0.000013
C154	C	1.167577	0.678283	0.499987
C155	C	0.668343	0.241500	-0.000004
C156	C	1.168343	0.741500	0.499996
N157	N	0.672291	0.074135	-0.143831
N158	N	1.172291	0.574135	0.356169
C159	C	0.706685	0.108496	-0.563608
C160	C	1.206685	0.608496	-0.063608
C161	C	0.706692	0.108495	-0.627216
C162	C	1.206692	0.608495	-0.127216
O163	O	0.735915	0.137706	-0.660105
O164	O	1.235915	0.637706	-0.160105
N165	N	0.672351	0.074129	-0.659038
N166	N	1.172351	0.574129	-0.159038
C167	C	0.638005	0.039758	-0.627250
C168	C	1.138005	0.539758	-0.127250
O169	O	0.608796	0.010527	-0.660159
O170	O	1.108796	0.510527	-0.160159
C171	C	0.638002	0.039757	-0.563644
C172	C	1.138002	0.539757	-0.063644
C173	C	0.672341	0.074129	-0.531824
C174	C	1.172341	0.574129	-0.031824
C175	C	0.741022	0.142865	-0.531789
C176	C	1.241022	0.642865	-0.031789
C177	C	0.741014	0.142867	-0.468185
C178	C	1.241014	0.642867	0.031815
C179	C	0.706670	0.108500	-0.436402
C180	C	1.206670	0.608500	0.063598
C181	C	0.672333	0.074131	-0.468221
C182	C	1.172333	0.574131	0.031779
C183	C	0.603660	0.005383	-0.531857
C184	C	1.103660	0.505383	-0.031857
C185	C	0.603660	0.005385	-0.468246
C186	C	1.103660	0.505385	0.031754
C187	C	0.637999	0.039757	-0.436427
C188	C	1.137999	0.539757	0.063573
C189	C	0.637981	0.039766	-0.372834
C190	C	1.137981	0.539766	0.127166
N191	N	0.672322	0.074132	-0.341012
N192	N	1.172322	0.574132	0.158988
C193	C	0.706667	0.108499	-0.372795
C194	C	1.206667	0.608499	0.127205
C195	C	0.638015	0.039763	-0.760828
C196	C	1.138015	0.539763	-0.260828
C197	C	0.638015	0.039766	-0.824433
C198	C	1.138015	0.539766	-0.324433
C199	C	0.706703	0.108502	-0.824394
C200	C	1.206703	0.608502	-0.324394
C201	C	0.706699	0.108501	-0.760788
C202	C	1.206699	0.608501	-0.260788
C203	C	0.672356	0.074128	-0.729005
C204	C	1.172356	0.574128	-0.229005
C205	C	0.706647	0.108501	-0.239224
C206	C	1.206647	0.608501	0.260776
C207	C	0.706635	0.108502	-0.175615
C208	C	1.206635	0.608502	0.324385
C209	C	0.637950	0.039764	-0.175660
C210	C	1.137950	0.539764	0.324340
C211	C	0.637960	0.039765	-0.239263
C212	C	1.137960	0.539765	0.260737
C213	C	0.672313	0.074135	-0.271043
C214	C	1.172313	0.574135	0.228957
O215	O	0.608775	0.010569	-0.339905
O216	O	1.108775	0.510569	0.160095
O217	O	0.735876	0.137720	-0.339879
O218	O	1.235876	0.637720	0.160121
N219	N	0.672362	0.074131	0.143777
N220	N	1.172362	0.574131	0.643777
H221	H	0.138359	-0.072637	-0.000053
H222	H	0.638359	0.427363	0.499947
H223	H	-0.034204	-0.022699	-0.000050
H224	H	0.465796	0.477301	0.499950
O225	O	0.604560	0.006460	-0.144710
O226	O	1.104560	0.506460	0.355290
C227	C	0.565490	0.041382	-0.107932
C228	C	1.065490	0.541382	0.392068
H229	H	0.582964	0.083555	-0.098397
H230	H	1.082964	0.583555	0.401603
H231	H	0.559285	0.018521	-0.063206
H232	H	1.059285	0.518521	0.436794
H233	H	0.522630	0.050308	-0.132451
H234	H	1.022630	0.550308	0.367549
O235	O	-0.173488	0.172470	-0.000047
O236	O	0.326512	0.672470	0.499953
C237	C	-0.230764	0.160625	-0.000036
C238	C	0.269236	0.660625	0.499964
H239	H	-0.232793	0.115902	-0.019168
H240	H	0.267207	0.615902	0.480832
H241	H	-0.257866	0.193507	-0.029375
H242	H	0.242134	0.693507	0.470625
H243	H	-0.247949	0.162887	0.048442
H244	H	0.252051	0.662887	0.548442
H245	H	-0.141954	-0.023984	-0.000041
H246	H	0.358046	0.476016	0.499959
H247	H	0.246104	-0.071347	-0.000055
H248	H	0.746104	0.428653	0.499945
H249	H	0.404515	-0.017447	-0.000034
H250	H	0.904515	0.482553	0.499966
H251	H	0.512280	-0.016150	-0.000030
H252	H	1.012280	0.483850	0.499970
H253	H	0.582043	-0.085909	-0.000038
H254	H	1.082043	0.414091	0.499962
O255	O	0.570262	-0.027923	-0.437307
O256	O	1.070262	0.472077	0.062693
C257	C	0.531188	0.007001	-0.400536
C258	C	1.031188	0.507001	0.099464
H259	H	0.548666	0.049170	-0.390990
H260	H	1.048666	0.549170	0.109010
H261	H	0.524967	-0.015862	-0.355816
H262	H	1.024967	0.484138	0.144184
H263	H	0.488334	0.015936	-0.425067
H264	H	0.988334	0.515936	0.074933
O265	O	0.739934	0.141923	-0.270157
O266	O	1.239934	0.641923	0.229843
C267	C	0.704992	0.180972	-0.306942
C268	C	1.204992	0.680972	0.193058
H269	H	0.662842	0.163460	-0.316498
H270	H	1.162842	0.663460	0.183502
H271	H	0.727857	0.187206	-0.351657
H272	H	1.227857	0.687206	0.148343
H273	H	0.696021	0.223824	-0.282420
H274	H	1.196021	0.723824	0.217580
H275	H	-0.059864	0.165712	-0.000019
H276	H	0.440136	0.665712	0.499981
O277	O	0.774467	0.176220	-0.562590
O278	O	1.274467	0.676220	-0.062590
C279	C	0.832361	0.160140	-0.547038
C280	C	1.332361	0.660140	-0.047038
H281	H	0.834926	0.138029	-0.500864
H282	H	1.334926	0.638029	-0.000864
H283	H	0.855452	0.199900	-0.544834
H284	H	1.355452	0.699900	-0.044834
H285	H	0.853519	0.129490	-0.582840
H286	H	1.353519	0.629490	-0.082840
H287	H	0.762610	-0.765821	-0.000011
H288	H	1.262610	-0.265821	0.499989
O289	O	0.490058	0.180516	-0.000022
O290	O	0.990058	0.680516	0.499978
C291	C	0.444857	0.225871	0.000001
C292	C	0.944857	0.725871	0.500001
H293	H	0.404588	0.210137	-0.019132
H294	H	0.904588	0.710137	0.480868
H295	H	0.457060	0.262392	-0.029331
H296	H	0.957060	0.762392	0.470669
H297	H	0.436374	0.241758	0.048483
H298	H	0.936374	0.741758	0.548483
H299	H	0.768979	0.170854	-0.442284
H300	H	1.268979	0.670854	0.057716
H301	H	0.770443	-0.111587	-0.000056
H302	H	1.270443	0.388413	0.499944
H303	H	0.763906	-0.658055	-0.000018
H304	H	1.263906	-0.158055	0.499982
O305	O	0.518786	-0.346226	-0.000069
O306	O	1.018786	0.153774	0.499931
C307	C	0.516064	-0.311463	-0.052414
C308	C	1.016064	0.188537	0.447586
H309	H	0.561244	-0.308706	-0.069869
H310	H	1.061244	0.191294	0.430131
H311	H	0.494589	-0.266698	-0.040643
H312	H	0.994589	0.233302	0.459357
H313	H	0.490157	-0.330872	-0.089055
H314	H	0.990157	0.169128	0.410945
O315	O	0.373007	0.179028	0.000077
O316	O	0.873007	0.679028	0.500077
C317	C	0.338245	0.181731	0.052420
C318	C	0.838245	0.681731	0.552420
H319	H	0.335486	0.136544	0.069856
H320	H	0.835486	0.636544	0.569856
H321	H	0.293481	0.203213	0.040654
H322	H	0.793481	0.703213	0.540654
H323	H	0.357658	0.207620	0.089073
H324	H	0.857658	0.707620	0.589073
O325	O	0.740048	0.141906	-0.144801
O326	O	1.240048	0.641906	0.355199
C327	C	0.770352	0.172247	-0.186498
C328	C	1.270352	0.672247	0.313502
H329	H	0.773813	0.148650	-0.231841
H330	H	1.273813	0.648650	0.268159
H331	H	0.815112	0.175554	-0.168106
H332	H	1.315112	0.675554	0.331894
H333	H	0.746636	0.217070	-0.193266
H334	H	1.246636	0.717070	0.306734
H335	H	0.734667	0.136486	-0.850284
H336	H	1.234667	0.636486	-0.350284
O337	O	0.604680	0.006348	-0.270241
O338	O	1.104680	0.506348	0.229759
C339	C	0.639632	-0.032706	-0.307010
C340	C	1.139632	0.467294	0.192990
H341	H	0.681787	-0.015197	-0.316524
H342	H	1.181787	0.484803	0.183476
H343	H	0.616780	-0.038941	-0.351746
H344	H	1.116780	0.461059	0.148254
H345	H	0.648592	-0.075557	-0.282494
H346	H	1.148592	0.424443	0.217506
H347	H	0.574207	-0.740135	-0.000008
H348	H	1.074207	-0.240135	0.499992
H349	H	0.769159	-0.219337	-0.000035
H350	H	1.269159	0.280663	0.499965
H351	H	0.206274	0.220904	-0.000022
H352	H	0.706274	0.720904	0.499978
H353	H	0.610043	0.011774	-0.734955
H354	H	1.110043	0.511774	-0.234955
H355	H	0.098525	0.219610	-0.000035
H356	H	0.598525	0.719610	0.499965
O357	O	0.567342	-0.626686	-0.000029
O358	O	1.067342	-0.126686	0.499971
C359	C	0.521054	-0.659400	-0.000012
C360	C	1.021054	-0.159400	0.499988
H361	H	0.535771	-0.703817	-0.019141
H362	H	1.035771	-0.203817	0.480859
H363	H	0.484938	-0.637299	-0.029349
H364	H	0.984938	-0.137299	0.470651
H365	H	0.505025	-0.663536	0.048468
H366	H	1.005025	-0.163536	0.548468
H367	H	0.819097	-0.391900	-0.000033
H368	H	1.319097	0.108100	0.499967
H369	H	0.734661	0.136490	-0.734885
H370	H	1.234661	0.636490	-0.234885
O371	O	0.604639	0.006330	-0.855246
O372	O	1.104639	0.506330	-0.355246
C373	C	0.574314	-0.023989	-0.813547
C374	C	1.074314	0.476011	-0.313547
H375	H	0.597905	-0.027428	-0.768200
H376	H	1.097905	0.472572	-0.268200
H377	H	0.571038	-0.068758	-0.831930
H378	H	1.071038	0.431242	-0.331930
H379	H	0.529478	-0.000299	-0.806794
H380	H	1.029478	0.499701	-0.306794
H381	H	0.817806	-0.499644	-0.000022
H382	H	1.317806	0.000356	0.499978
O383	O	0.570372	-0.028094	-0.562731
O384	O	1.070372	0.471906	-0.062731
C385	C	0.586480	-0.085978	-0.547175
C386	C	1.086480	0.414022	-0.047175
H387	H	0.632436	-0.091708	-0.529678
H388	H	1.132436	0.408292	-0.029678
H389	H	0.583327	-0.113987	-0.589006
H390	H	1.083327	0.386013	-0.089006
H391	H	0.556702	-0.099046	-0.510262
H392	H	1.056702	0.400954	-0.010262
O393	O	0.517292	-0.463277	0.000045
O394	O	1.017292	0.036723	0.500045
C395	C	0.471940	-0.418072	0.000036
C396	C	0.971940	0.081928	0.500036
H397	H	0.487685	-0.377806	0.019160
H398	H	0.987685	0.122194	0.519160
H399	H	0.435429	-0.430273	0.029382
H400	H	0.935429	0.069727	0.529382
H401	H	0.456034	-0.409585	-0.048441
H402	H	0.956034	0.090415	0.451559
O403	O	0.572485	-0.197141	0.000001
O404	O	1.072485	0.302859	0.500001
C405	C	0.527126	-0.151944	-0.000016
C406	C	1.027126	0.348056	0.499984
H407	H	0.542863	-0.111671	0.019102
H408	H	1.042863	0.388329	0.519102
H409	H	0.490616	-0.164147	0.029332
H410	H	0.990616	0.335853	0.529332
H411	H	0.511220	-0.143466	-0.048494
H412	H	1.011220	0.356534	0.451506
