data_functionalizedCrystal
_audit_creation_method	'MofGen! by Chris Wilmer'
_symmetry_space_group_name_H-M	'P1'
_symmetry_Int_Tables_number	1
_symmetry_cell_setting	triclinic
loop_
_symmetry_equiv_pos_as_xyz
  x,y,z
_cell_length_a	10.654550
_cell_length_b	16.109301
_cell_length_c	9.130313
_cell_angle_alpha	89.997330
_cell_angle_beta	89.996220
_cell_angle_gamma	83.973192
loop_
_atom_site_label
_atom_site_type_symbol
_atom_site_fract_x
_atom_site_fract_y
_atom_site_fract_z
O1	O	1.666250	0.116770	-0.121925
O2	O	1.300621	0.127896	-0.121902
O3	O	1.493479	0.001362	-0.121899
O4	O	1.473391	0.243304	-0.121928
O5	O	1.493477	0.001365	0.121700
O6	O	1.300618	0.127899	0.121697
O7	O	1.666248	0.116774	0.121674
Cu8	Cu	1.483433	0.122337	0.143928
Cu9	Cu	1.483435	0.122333	-0.144156
O10	O	1.473389	0.243308	0.121671
C11	C	1.253832	0.127080	-0.000099
C12	C	1.114422	0.124636	-0.000090
C13	C	1.033926	0.199138	-0.000120
C14	C	0.902936	0.196836	-0.000145
C15	C	0.932952	0.045526	-0.000116
C16	C	1.063939	0.047828	-0.000081
C17	C	1.016595	0.286496	-0.000143
C18	C	0.885606	0.284194	-0.000168
C19	C	1.492665	-0.029616	-0.000099
C20	C	1.490225	-0.121926	-0.000097
C21	C	1.598991	-0.343552	-0.000127
C22	C	1.596689	-0.430286	-0.000139
C23	C	1.367868	-0.411772	-0.000119
C24	C	1.370172	-0.325040	-0.000117
C25	C	1.485737	-0.290932	-0.000114
C26	C	1.481131	-0.464399	-0.000127
C27	C	1.478634	-0.558440	-0.000140
C28	C	1.488234	-0.196885	-0.000104
C29	C	1.713036	0.117589	-0.000132
C30	C	1.852446	0.120033	-0.000151
C31	C	1.474204	0.274286	-0.000132
C32	C	1.476643	0.366595	-0.000144
N33	N	1.483440	0.122339	0.346551
N34	N	1.483438	0.122324	-0.346779
C35	C	1.568859	0.066329	0.423204
C36	C	1.568856	0.066319	0.576541
C37	C	1.398010	0.178336	0.576558
C38	C	1.398008	0.178342	0.423223
C39	C	1.667500	0.001659	0.423195
C40	C	1.667497	0.001649	0.576532
H41	H	1.051874	0.314310	-0.105318
H42	H	1.045462	0.320663	0.101804
C43	C	1.305060	0.239041	0.659731
C44	C	1.181672	0.224780	0.622464
C45	C	1.096012	0.280678	0.699067
H46	H	1.318494	0.294652	0.634673
H47	H	1.317207	0.231010	0.762044
H48	H	1.169530	0.232818	0.520174
H49	H	1.168198	0.169180	0.647527
H50	H	1.108159	0.272647	0.801380
H51	H	1.109457	0.336286	0.674002
H52	H	1.012284	0.271005	0.673802
C53	C	0.824444	0.319467	0.140125
C54	C	0.917447	0.345174	0.233101
C55	C	0.861148	0.377678	0.362341
H56	H	0.782537	0.277700	0.187511
H57	H	0.765082	0.365860	0.117336
H58	H	0.976786	0.298786	0.255892
H59	H	0.959360	0.386950	0.185762
H60	H	0.801787	0.424071	0.339552
H61	H	0.819243	0.335906	0.409713
H62	H	0.924240	0.395131	0.425435
H63	H	1.328442	0.223942	0.360814
C64	C	1.724494	-0.306565	-0.000446
C65	C	1.792932	-0.333226	-0.125804
C66	C	1.908545	-0.299165	-0.126164
H67	H	1.771284	-0.324562	0.084394
H68	H	1.709701	-0.247370	-0.000521
H69	H	1.807728	-0.392409	-0.125715
H70	H	1.746179	-0.315231	-0.210664
H71	H	1.893752	-0.239970	-0.126240
H72	H	1.955325	-0.317164	-0.041319
H73	H	1.954990	-0.317243	-0.211224
H74	H	0.891833	-0.017009	-0.000131
C75	C	0.829495	0.328213	-0.136057
C76	C	0.857022	0.411308	-0.135722
C77	C	0.805365	0.451879	-0.260880
H78	H	0.740601	0.326747	-0.136200
H79	H	0.864696	0.300837	-0.221051
H80	H	0.821815	0.438676	-0.050752
H81	H	0.945906	0.412798	-0.135602
H82	H	0.840567	0.424504	-0.345873
H83	H	0.716474	0.450408	-0.261012
H84	H	0.824045	0.508261	-0.260676
C85	C	1.242531	-0.448966	-0.000031
C86	C	1.264750	-0.536186	0.000009
C87	C	1.149317	-0.570474	0.000114
H88	H	1.195799	-0.431040	-0.084950
H89	H	1.195893	-0.430996	0.084957
H90	H	1.311368	-0.554148	-0.084971
H91	H	1.311463	-0.554135	0.084921
H92	H	1.102679	-0.552505	0.085103
H93	H	1.102594	-0.552542	-0.084806
H94	H	1.164377	-0.629656	0.000155
C95	C	1.639977	-0.083586	0.367984
C96	C	1.623144	-0.135736	0.487506
C97	C	1.597770	-0.214263	0.436702
H98	H	1.708740	-0.107317	0.310211
H99	H	1.565399	-0.077747	0.310233
H100	H	1.697713	-0.141577	0.545232
H101	H	1.554378	-0.112032	0.545291
H102	H	1.523193	-0.208425	0.378951
H103	H	1.666537	-0.237986	0.378929
H104	H	1.586335	-0.249654	0.517788
C105	C	1.247105	-0.268002	-0.000330
C106	C	1.177505	-0.283525	-0.125631
C107	C	1.064128	-0.231006	-0.125875
H108	H	1.264851	-0.211435	-0.000410
H109	H	1.199649	-0.278425	0.084578
H110	H	1.224950	-0.273096	-0.210518
H111	H	1.159726	-0.340081	-0.125579
H112	H	1.016673	-0.241429	-0.040966
H113	H	1.081887	-0.174443	-0.125950
H114	H	1.016886	-0.241537	-0.210882
C115	C	1.788832	0.028634	0.360037
C116	C	1.869209	0.046507	0.474496
C117	C	1.980996	0.071351	0.416369
H118	H	1.769829	0.077071	0.301500
H119	H	1.829157	-0.015087	0.301516
H120	H	1.828892	0.090225	0.532992
H121	H	1.888247	-0.001918	0.533042
H122	H	2.021321	0.027629	0.357849
H123	H	1.961981	0.119786	0.357833
H124	H	2.035550	0.083473	0.494020
H125	H	1.637803	-0.058739	0.624088
H126	H	1.129476	-0.012838	-0.000035
H127	H	1.688912	-0.473126	-0.000152
H128	H	1.763815	0.015894	0.618141
