data_functionalizedCrystal
_audit_creation_method	'MofGen! by Chris Wilmer'
_symmetry_space_group_name_H-M	'P1'
_symmetry_Int_Tables_number	1
_symmetry_cell_setting	triclinic
loop_
_symmetry_equiv_pos_as_xyz
  x,y,z
_cell_length_a	16.992694
_cell_length_b	13.339070
_cell_length_c	16.053802
_cell_angle_alpha	93.267614
_cell_angle_beta	87.249047
_cell_angle_gamma	103.148759
loop_
_atom_site_label
_atom_site_type_symbol
_atom_site_fract_x
_atom_site_fract_y
_atom_site_fract_z
O1	O	1.090314	0.214289	-0.069315
O2	O	1.590314	0.714289	0.430685
O3	O	0.861508	0.211892	-0.069340
O4	O	1.361508	0.711892	0.430660
O5	O	0.949651	0.063704	-0.069328
O6	O	1.449651	0.563704	0.430672
O7	O	1.002170	0.362477	-0.069327
O8	O	1.502170	0.862477	0.430673
O9	O	0.944792	0.071825	0.069530
O10	O	1.444792	0.571825	0.569530
O11	O	0.856649	0.220013	0.069518
O12	O	1.356649	0.720013	0.569518
O13	O	1.085454	0.222410	0.069543
O14	O	1.585454	0.722410	0.569543
Zn15	Zn	0.970280	0.222501	0.091577
Zn16	Zn	1.470280	0.722501	0.591577
Zn17	Zn	0.976682	0.211801	-0.091374
Zn18	Zn	1.476682	0.711801	0.408626
O19	O	0.997311	0.370598	0.069531
O20	O	1.497311	0.870598	0.569531
C21	C	0.829196	0.212871	0.000086
C22	C	1.329196	0.712871	0.500086
C23	C	0.740151	0.203676	0.000076
C24	C	1.240151	0.703676	0.500076
C25	C	0.709211	0.292389	0.000077
C26	C	1.209211	0.792389	0.500077
C27	C	0.625543	0.283745	0.000089
C28	C	1.125543	0.783745	0.500089
C29	C	0.572817	0.186385	0.000093
C30	C	1.072817	0.686385	0.500093
C31	C	0.603763	0.097665	0.000095
C32	C	1.103763	0.597665	0.500095
C33	C	0.687429	0.106311	0.000090
C34	C	1.187429	0.606311	0.500090
C35	C	0.321423	0.150552	0.000116
C36	C	0.821423	0.650552	0.500116
C37	C	0.237752	0.141912	0.000119
C38	C	0.737752	0.641912	0.500119
C39	C	0.259538	0.327993	0.000114
C40	C	0.759538	0.827993	0.500114
C41	C	0.343205	0.336630	0.000103
C42	C	0.843205	0.836630	0.500103
C43	C	0.374143	0.247910	0.000109
C44	C	0.874143	0.747910	0.500109
N45	N	0.487295	0.177547	0.000103
N46	N	0.987295	0.677547	0.500103
N47	N	0.459663	0.256750	0.000106
N48	N	0.959663	0.756750	0.500106
C49	C	0.938350	0.029358	0.000099
C50	C	1.438350	0.529358	0.500099
C51	C	0.911906	-0.085082	0.000093
C52	C	1.411906	0.414918	0.500093
C53	C	1.117519	-0.433251	0.000116
C54	C	1.617519	0.066749	0.500116
C55	C	1.142367	-0.325729	0.000126
C56	C	1.642367	0.174271	0.500126
C57	C	1.084754	-0.265562	0.000118
C58	C	1.584754	0.234438	0.500118
C59	C	1.002289	-0.312928	0.000099
C60	C	1.502289	0.187072	0.500099
C61	C	0.977439	-0.420460	0.000095
C62	C	1.477439	0.079540	0.500095
C63	C	0.944673	-0.252771	0.000097
C64	C	1.444673	0.247229	0.500097
C65	C	0.862209	-0.300136	0.000078
C66	C	1.362209	0.199864	0.500078
C67	C	0.837363	-0.407658	0.000074
C68	C	1.337363	0.092342	0.500074
C69	C	0.894976	-0.467825	0.000082
C70	C	1.394976	0.032175	0.500082
C71	C	0.969524	-0.145239	0.000101
C72	C	1.469524	0.354761	0.500101
C73	C	0.829443	-0.132447	0.000080
C74	C	1.329443	0.367553	0.500080
C75	C	0.804596	-0.239970	0.000070
C76	C	1.304596	0.260030	0.500070
C77	C	1.117767	0.221431	0.000115
C78	C	1.617767	0.721431	0.500115
C79	C	1.206811	0.230626	0.000120
C80	C	1.706811	0.730626	0.500120
C81	C	1.008612	0.404944	0.000102
C82	C	1.508612	0.904944	0.500102
C83	C	1.035056	0.519384	0.000103
C84	C	1.535056	1.019384	0.500103
N85	N	0.965916	0.229803	0.216437
N86	N	1.465916	0.729803	0.716437
N87	N	0.981051	0.204492	-0.216234
N88	N	1.481051	0.704492	0.283766
C89	C	1.003445	0.166774	0.260136
C90	C	1.503445	0.666774	0.760136
C91	C	1.000402	0.171892	0.347543
C92	C	1.500402	0.671892	0.847543
C93	C	0.959834	0.240045	0.391248
C94	C	1.459834	0.740045	0.891248
C95	C	0.922300	0.303076	0.347543
C96	C	1.422300	0.803076	0.847543
C97	C	0.925339	0.297952	0.260138
C98	C	1.425339	0.797952	0.760138
C99	C	0.946555	0.262399	0.652656
C100	C	1.446555	0.762399	1.152656
C101	C	0.943522	0.267520	0.740067
C102	C	1.443522	0.767520	1.240067
C103	C	1.021623	0.136334	0.740060
C104	C	1.521623	0.636334	1.240060
C105	C	1.024662	0.131221	0.652654
C106	C	1.524662	0.631221	1.152654
C107	C	0.987124	0.194248	0.608956
C108	C	1.487124	0.694248	1.108956
N109	N	0.956725	0.245281	0.480592
N110	N	1.456725	0.745281	0.980592
N111	N	0.990229	0.189006	0.519615
N112	N	1.490229	0.689006	1.019615
H113	H	0.194823	0.062627	0.000122
H114	H	0.694823	0.562627	0.500122
H115	H	1.104990	-0.178013	0.000126
H116	H	1.604990	0.321987	0.500126
O117	O	0.868178	-0.583800	0.000082
O118	O	1.368178	-0.083800	0.500082
H119	H	0.893849	-0.618220	-0.056509
H120	H	1.393849	-0.118220	0.443491
O121	O	0.400062	0.441647	0.000106
O122	O	0.900062	0.941647	0.500106
H123	H	0.440669	0.446736	-0.056496
H124	H	0.940669	0.946736	0.443504
H125	H	1.209509	-0.287171	0.000142
H126	H	1.709509	0.212829	0.500142
H127	H	1.036667	-0.106684	0.000116
H128	H	1.536667	0.393316	0.500116
O129	O	1.179654	-0.498139	0.000134
O130	O	1.679654	0.001861	0.500134
H131	H	1.148518	-0.580865	0.000127
H132	H	1.648518	-0.080865	0.500127
H133	H	1.036484	0.111281	0.224557
H134	H	1.536484	0.611281	0.724557
O135	O	0.748420	-0.458751	0.000064
O136	O	1.248420	0.041249	0.500064
H137	H	0.712532	-0.398854	0.000054
H138	H	1.212532	0.101146	0.500054
H139	H	0.737452	-0.278550	0.000055
H140	H	1.237452	0.221450	0.500055
O141	O	0.354785	0.054863	0.000114
O142	O	0.854785	0.554863	0.500114
H143	H	0.390402	0.057657	0.056713
H144	H	0.890402	0.557657	0.556713
O145	O	0.767293	-0.067569	0.000068
O146	O	1.267293	0.432431	0.500068
H147	H	0.798427	0.015157	0.000064
H148	H	1.298427	0.515157	0.500064
O149	O	1.040898	0.103932	0.394679
O150	O	1.540898	0.603932	0.894679
H151	H	1.069633	0.055697	0.349603
H152	H	1.569633	0.555697	0.849603
O153	O	0.878549	0.376588	0.394683
O154	O	1.378549	0.876588	0.894683
H155	H	0.906764	0.456705	0.377889
H156	H	1.406764	0.956705	0.877889
H157	H	1.052183	0.085019	0.775647
H158	H	1.552183	0.585019	1.275647
O159	O	0.720807	0.010629	0.000086
O160	O	1.220807	0.510629	0.500086
H161	H	0.670089	-0.058525	0.000083
H162	H	1.170089	0.441475	0.500083
H163	H	0.234339	0.400223	0.000111
H164	H	0.734339	0.900223	0.500111
H165	H	1.057695	0.075725	0.617071
H166	H	1.557695	0.575725	1.117071
H167	H	0.910485	0.323023	0.775648
H168	H	1.410485	0.823023	1.275648
O169	O	0.906080	0.330385	0.605529
O170	O	1.406080	0.830385	1.105529
H171	H	0.877371	0.378644	0.650607
H172	H	1.377371	0.878644	1.150607
O173	O	0.884861	0.365924	0.212991
O174	O	1.384861	0.865924	0.712991
H175	H	0.911909	0.448016	0.229743
H176	H	1.411909	0.948016	0.729743
O177	O	0.766079	0.397400	0.000080
O178	O	1.266079	0.897400	0.500080
H179	H	0.730504	0.457635	0.000094
H180	H	1.230504	0.957635	0.500094
O181	O	0.546898	-0.007347	0.000107
O182	O	1.046898	0.492653	0.500107
H183	H	0.510235	-0.019057	-0.056490
H184	H	1.010235	0.480943	0.443510
O185	O	0.592169	0.379427	0.000090
O186	O	1.092169	0.879427	0.500090
H187	H	0.642888	0.448579	0.000076
H188	H	1.142888	0.948579	0.500076
