data_functionalizedCrystal
_audit_creation_method	'MofGen! by Chris Wilmer'
_symmetry_space_group_name_H-M	'P1'
_symmetry_Int_Tables_number	1
_symmetry_cell_setting	triclinic
loop_
_symmetry_equiv_pos_as_xyz
  x,y,z
_cell_length_a	12.837943
_cell_length_b	12.811415
_cell_length_c	15.186229
_cell_angle_alpha	84.565396
_cell_angle_beta	89.997745
_cell_angle_gamma	89.411917
loop_
_atom_site_label
_atom_site_type_symbol
_atom_site_fract_x
_atom_site_fract_y
_atom_site_fract_z
O1	O	1.376630	0.272976	-0.095009
O2	O	1.074766	0.259491	-0.093937
O3	O	1.233292	0.114201	-0.082328
O4	O	1.218104	0.418266	-0.106618
O5	O	1.233282	0.114197	0.064129
O6	O	1.074756	0.259488	0.052520
O7	O	1.376620	0.272973	0.051449
Zn8	Zn	1.225686	0.266230	0.075238
Zn9	Zn	1.225700	0.266234	-0.117726
O10	O	1.218094	0.418263	0.039840
C11	C	1.036121	0.254934	-0.020345
C12	C	0.920985	0.241348	-0.019262
C13	C	0.680731	0.404678	-0.032297
C14	C	0.572551	0.391918	-0.031279
C15	C	0.596440	0.203068	-0.016203
C16	C	0.704621	0.215828	-0.017221
C17	C	0.746763	0.316637	-0.025269
C18	C	0.854946	0.329396	-0.026293
C19	C	0.878833	0.140547	-0.011211
C20	C	0.770652	0.127786	-0.010193
C21	C	1.232436	0.075010	-0.005971
C22	C	1.229887	-0.041763	0.003352
C23	C	1.225090	-0.261179	-0.138817
C24	C	1.222695	-0.370898	-0.130062
C25	C	1.222695	-0.370921	0.029616
C26	C	1.225090	-0.261203	0.020861
C27	C	1.226289	-0.206335	-0.063358
C28	C	1.228691	-0.096615	-0.072112
C29	C	1.228683	-0.096640	0.087565
C30	C	1.226288	-0.206359	0.096320
C31	C	1.415265	0.277530	-0.022145
C32	C	1.530401	0.291116	-0.023234
C33	C	1.218950	0.457454	-0.036520
C34	C	1.221499	0.574227	-0.045848
N35	N	1.225684	0.266227	0.206931
N36	N	1.225710	0.266229	-0.249419
C37	C	1.295903	0.201919	0.437792
C38	C	1.295907	0.201916	0.529982
C39	C	1.155483	0.330540	0.519713
C40	C	1.155476	0.330536	0.427526
C41	C	1.225692	0.266227	0.386567
C42	C	1.225702	0.266229	0.570945
C43	C	1.225705	0.266227	0.670901
C44	C	1.225688	0.266227	0.286605
H45	H	0.562109	0.120994	-0.009577
H46	H	1.226076	-0.216506	-0.207391
H47	H	0.715043	0.486760	-0.038852
H48	H	1.221715	-0.415547	-0.191508
O49	O	1.221405	-0.424352	0.111368
C50	C	1.128971	-0.545318	0.213705
C51	C	1.130298	-0.484879	0.121091
H52	H	1.055308	-0.594251	0.221602
H53	H	1.200294	-0.599105	0.221971
H54	H	1.130300	-0.487271	0.266133
H55	H	1.128934	-0.542849	0.068606
H56	H	1.058981	-0.431076	0.112900
O57	O	0.508364	0.477408	-0.037953
C58	C	0.372310	0.572565	0.030292
C59	C	0.444958	0.475711	0.037972
H60	H	0.321013	0.571213	0.091660
H61	H	0.420965	0.646839	0.024418
H62	H	0.321119	0.571307	-0.030929
H63	H	0.496164	0.476867	0.099191
H64	H	0.396241	0.401480	0.043796
O65	O	0.729540	0.029941	-0.002421
C66	C	0.573470	-0.073415	0.005883
C67	C	0.619887	0.037456	-0.002941
H68	H	0.484810	-0.067377	0.005484
H69	H	0.600556	-0.117484	-0.051908
H70	H	0.600691	-0.117471	0.070676
H71	H	0.592687	0.081599	-0.067699
H72	H	0.592806	0.081445	0.054896
O73	O	1.224988	-0.259774	0.178077
C74	C	1.132530	-0.380703	0.280428
C75	C	1.133876	-0.320293	0.187803
H76	H	1.058862	-0.429630	0.288328
H77	H	1.203848	-0.434494	0.288715
H78	H	1.133854	-0.322638	0.332842
H79	H	1.132516	-0.378280	0.135333
H80	H	1.062564	-0.266485	0.179591
O81	O	0.943081	0.055094	-0.004508
C82	C	1.079033	-0.040128	-0.072821
C83	C	1.006352	0.056701	-0.080508
H84	H	1.130190	-0.038872	-0.134266
H85	H	1.130352	-0.038894	-0.011672
H86	H	1.030301	-0.114348	-0.066853
H87	H	1.055001	0.130972	-0.086511
H88	H	0.955028	0.055375	-0.141645
O89	O	1.087243	0.392864	0.559613
C90	C	0.945684	0.400974	0.663026
C91	C	1.022922	0.330269	0.617921
H92	H	0.893647	0.350393	0.710164
H93	H	0.990633	0.457916	0.701688
H94	H	0.895544	0.446962	0.610559
H95	H	1.073082	0.284213	0.670330
H96	H	0.977910	0.273394	0.579240
H97	H	1.229663	-0.051975	0.149009
O98	O	1.364140	0.139347	0.398149
C99	C	1.503457	0.011810	0.418065
C100	C	1.426220	0.082607	0.463072
H101	H	1.553683	-0.034066	0.470533
H102	H	1.458508	-0.045219	0.379491
H103	H	1.555410	0.062367	0.370835
H104	H	1.374247	0.032134	0.510342
H105	H	1.471233	0.139642	0.501589
H106	H	1.098296	0.382904	0.385816
H107	H	1.229671	-0.051944	-0.140688
O108	O	0.895713	0.427391	-0.034077
C109	C	0.860595	0.613357	-0.048969
C110	C	0.814292	0.502436	-0.040142
H111	H	0.794788	0.674061	-0.053894
H112	H	0.910605	0.624113	0.011479
H113	H	0.910683	0.624008	-0.111097
H114	H	0.764157	0.491708	0.021951
H115	H	0.764342	0.491731	-0.100634
O116	O	1.363969	0.139331	0.579790
C117	C	1.385443	-0.001816	0.695187
C118	C	1.308245	0.068979	0.638827
H119	H	1.340420	-0.058698	0.742944
H120	H	1.435608	-0.047855	0.650119
H121	H	1.437462	0.048755	0.734263
H122	H	1.256158	0.018486	0.599742
H123	H	1.258153	0.115025	0.683941
