data_functionalizedCrystal
_audit_creation_method	'MofGen! by Chris Wilmer'
_symmetry_space_group_name_H-M	'P1'
_symmetry_Int_Tables_number	1
_symmetry_cell_setting	triclinic
loop_
_symmetry_equiv_pos_as_xyz
  x,y,z
_cell_length_a	19.288864
_cell_length_b	19.288865
_cell_length_c	15.455446
_cell_angle_alpha	87.330239
_cell_angle_beta	87.358405
_cell_angle_gamma	96.863755
loop_
_atom_site_label
_atom_site_type_symbol
_atom_site_fract_x
_atom_site_fract_y
_atom_site_fract_z
O1	O	0.918290	-0.089706	0.072417
O2	O	0.716032	-0.101392	0.072359
O3	O	0.823006	0.005582	0.072373
O4	O	0.811316	-0.196680	0.072404
O5	O	0.829089	0.011677	-0.071886
O6	O	0.722115	-0.095297	-0.071899
O7	O	0.924373	-0.083611	-0.071841
Cu8	Cu	0.823799	-0.088897	-0.085042
Cu9	Cu	0.816605	-0.096106	0.085560
O10	O	0.817399	-0.190585	-0.071855
C11	C	0.693197	-0.097968	0.000222
C12	C	0.616095	-0.096838	0.000199
C13	C	0.825671	0.034506	0.000241
C14	C	0.824543	0.111610	0.000233
C15	C	0.571397	-0.159607	0.000223
C16	C	0.498950	-0.158547	0.000232
C17	C	0.471202	-0.094715	0.000236
C18	C	0.515909	-0.031937	0.000208
C19	C	0.588356	-0.032999	0.000189
C20	C	0.360808	-0.046672	0.050797
C21	C	0.288363	-0.045613	0.050821
C22	C	0.247754	-0.091437	0.000288
C23	C	0.279598	-0.138333	-0.050258
C24	C	0.352045	-0.139394	-0.050276
C25	C	0.392647	-0.093556	0.000255
C26	C	0.124501	-0.153061	0.000320
C27	C	0.052053	-0.151998	0.000324
C28	C	0.069013	-0.025387	0.000308
C29	C	0.141460	-0.026451	0.000295
C30	C	0.169199	-0.090290	0.000305
C31	C	0.947208	-0.087035	0.000298
C32	C	1.024310	-0.088165	0.000326
N33	N	0.828864	-0.083827	-0.205034
C34	C	0.814733	-0.219509	0.000279
C35	C	0.815862	-0.296613	0.000293
C36	C	0.887310	0.156306	0.000247
C37	C	0.886249	0.228752	0.000260
C38	C	0.822417	0.256501	0.000242
C39	C	0.759642	0.211795	0.000233
C40	C	0.760704	0.139350	0.000229
C41	C	0.774369	0.366924	-0.050303
C42	C	0.773309	0.439368	-0.050303
C43	C	0.819137	0.479945	0.000261
C44	C	0.866037	0.448071	0.050814
C45	C	0.867099	0.375626	0.050809
C46	C	0.821258	0.335054	0.000248
C47	C	0.880758	0.603196	0.000290
C48	C	0.879694	0.675644	0.000309
C49	C	0.753085	0.658685	0.000274
C50	C	0.754151	0.586239	0.000264
C51	C	0.817989	0.558499	0.000268
C52	C	0.857001	-0.055742	-0.749025
C53	C	0.853154	-0.059585	-0.658220
C54	C	0.803850	-0.108854	-0.612838
C55	C	0.758393	-0.154287	-0.658267
C56	C	0.762243	-0.150447	-0.749071
C57	C	0.787258	-0.125420	-0.341267
C58	C	0.783410	-0.129255	-0.250457
C59	C	0.878172	-0.034553	-0.250416
C60	C	0.882015	-0.030715	-0.341221
C61	C	0.836561	-0.076150	-0.386642
N62	N	0.799916	-0.112782	-0.520020
N63	N	0.840499	-0.072225	-0.479458
N64	N	0.811546	-0.101170	0.205552
H65	H	0.462550	-0.209662	0.000249
H66	H	0.725230	-0.187441	-0.786053
H67	H	0.890167	-0.022594	-0.621237
H68	H	0.718251	-0.194407	-0.621312
H69	H	0.147087	-0.205042	0.000315
C70	C	0.002885	-0.221047	0.000350
H71	H	0.029784	-0.259216	0.000361
H72	H	-0.023625	-0.221144	-0.049950
H73	H	-0.027833	-0.225385	0.050669
C74	C	0.601910	-0.229825	0.000229
H75	H	0.651459	-0.221470	0.000222
H76	H	0.588656	-0.253539	-0.050067
H77	H	0.584449	-0.257782	0.050551
H78	H	0.046420	0.026584	0.000365
H79	H	0.377969	-0.177576	-0.091434
C80	C	0.234939	-0.188746	-0.105842
H81	H	0.187232	-0.181395	-0.098600
H82	H	0.239913	-0.235625	-0.088064
H83	H	0.250110	-0.180310	-0.165156
C84	C	0.957527	0.125792	0.000254
H85	H	0.949173	0.076245	0.000242
H86	H	0.981247	0.139016	0.050565
H87	H	0.985478	0.143283	-0.050054
H88	H	0.932739	0.580610	0.000298
H89	H	0.905285	0.349677	0.091974
C90	C	0.911235	-0.001545	-0.798937
H91	H	0.937759	0.024956	-0.758876
H92	H	0.887849	0.028808	-0.834380
H93	H	0.941570	-0.024967	-0.834336
C94	C	0.936248	0.023481	-0.391139
H95	H	0.932025	0.019267	-0.451724
H96	H	0.981947	0.015427	-0.376230
H97	H	0.928216	0.069193	-0.376267
H98	H	0.709590	0.102958	0.000217
H99	H	0.177854	0.024662	0.000281
C100	C	0.253341	0.005971	0.106414
H101	H	0.287902	0.033120	0.136493
H102	H	0.220163	-0.019339	0.147068
H103	H	0.230362	0.035969	0.069968
C104	C	0.405470	0.003732	0.106395
H105	H	0.376129	0.031803	0.136511
H106	H	0.439015	0.032907	0.069957
H107	H	0.428809	-0.022424	0.147032
C108	C	0.637524	0.036049	0.000174
H109	H	0.610626	0.074219	0.000182
H110	H	0.668246	0.040394	-0.050135
H111	H	0.664028	0.036137	0.050483
C112	C	0.485390	0.038276	0.000217
H113	H	0.435841	0.029918	0.000240
H114	H	0.502848	0.066240	-0.050095
H115	H	0.498645	0.061983	0.050523
H116	H	0.735118	0.465314	-0.091462
C117	C	0.955296	0.277927	0.000269
H118	H	0.993467	0.251030	0.000265
H119	H	0.955396	0.304410	0.050575
H120	H	0.959626	0.308669	-0.050044
C121	C	0.916446	0.492696	0.106443
H122	H	0.909092	0.540405	0.099217
H123	H	0.963325	0.487735	0.088690
H124	H	0.908008	0.477484	0.165749
C125	C	0.948739	0.724812	0.000334
H126	H	0.938964	0.771931	0.000349
H127	H	0.977046	0.718562	-0.049966
H128	H	0.972799	0.714284	0.050652
H129	H	0.915179	0.002438	-0.213426
C130	C	0.723955	0.322295	-0.105926
H131	H	0.695880	0.351653	-0.136041
H132	H	0.694787	0.288733	-0.069501
H133	H	0.750101	0.298976	-0.146564
H134	H	0.750246	-0.162414	-0.378242
C135	C	0.682872	0.689199	0.000257
H136	H	0.691227	0.738747	0.000258
H137	H	0.654915	0.671708	0.050555
H138	H	0.659158	0.675978	-0.050064
H139	H	0.743257	-0.169378	-0.213512
H140	H	0.703039	0.549847	0.000248
H141	H	0.707670	0.234392	0.000221
