data_functionalizedCrystal
_audit_creation_method	'MofGen! by Chris Wilmer'
_symmetry_space_group_name_H-M	'P1'
_symmetry_Int_Tables_number	1
_symmetry_cell_setting	triclinic
loop_
_symmetry_equiv_pos_as_xyz
  x,y,z
_cell_length_a	10.654550
_cell_length_b	15.995292
_cell_length_c	9.730223
_cell_angle_alpha	90.001861
_cell_angle_beta	89.996251
_cell_angle_gamma	83.976760
loop_
_atom_site_label
_atom_site_type_symbol
_atom_site_fract_x
_atom_site_fract_y
_atom_site_fract_z
O1	O	1.666261	0.117602	-0.114392
O2	O	1.300633	0.128806	-0.114369
O3	O	1.493479	0.001371	-0.114383
O4	O	1.473414	0.245037	-0.114378
O5	O	1.493477	0.001375	0.114197
O6	O	1.300630	0.128810	0.114211
O7	O	1.666259	0.117605	0.114188
Zn8	Zn	1.483444	0.123208	0.150491
Zn9	Zn	1.483447	0.123204	-0.150673
O10	O	1.473412	0.245040	0.114202
C11	C	1.253844	0.127985	-0.000076
C12	C	1.114434	0.125524	-0.000068
C13	C	1.492662	-0.029827	-0.000097
C14	C	1.490213	-0.122794	-0.000107
C15	C	1.033945	0.200556	-0.000086
C16	C	0.902955	0.198238	-0.000110
C17	C	0.932957	0.045850	-0.000103
C18	C	1.063944	0.048169	-0.000069
C19	C	1.016622	0.288536	-0.000096
C20	C	0.885633	0.286218	-0.000120
C21	C	1.481212	-0.460585	-0.000094
C22	C	1.620404	-0.436465	0.000408
C23	C	1.623050	-0.339774	-0.000112
C24	C	1.485679	-0.293003	-0.000100
C25	C	1.416091	-0.322510	-0.130621
C26	C	1.414415	-0.419311	-0.130725
C27	C	1.411570	-0.419181	0.129213
C28	C	1.416728	-0.322658	0.130933
C29	C	1.488196	-0.198293	-0.000107
C30	C	1.478692	-0.555296	-0.000095
C31	C	1.713047	0.118426	-0.000108
C32	C	1.852457	0.120887	-0.000125
C33	C	1.474230	0.276239	-0.000088
C34	C	1.476678	0.369206	-0.000086
N35	N	1.483451	0.123210	0.356028
N36	N	1.483450	0.123195	-0.356209
C37	C	1.568866	0.066801	0.427947
C38	C	1.568862	0.066791	0.571830
C39	C	1.398026	0.179606	0.571861
C40	C	1.398025	0.179612	0.427981
C41	C	1.667500	0.001671	0.427931
C42	C	1.667497	0.001661	0.571814
H43	H	1.129475	-0.012929	-0.000035
H44	H	1.462611	-0.445848	-0.228302
H45	H	0.891831	-0.017130	-0.000125
H46	H	1.758411	0.022064	0.383299
Cl47	Cl	1.290638	0.250507	0.662325
H48	H	1.673758	-0.465174	-0.092676
Cl49	Cl	1.707686	-0.310862	-0.144834
H50	H	1.637797	-0.059158	0.616430
Cl51	Cl	1.816204	0.023803	0.632107
Cl52	Cl	1.290628	0.250516	0.337566
H53	H	1.312359	-0.434454	-0.136630
H54	H	1.315004	-0.291230	-0.135465
H55	H	1.051904	0.316548	-0.098783
Cl56	Cl	1.478801	-0.462477	0.281954
Cl57	Cl	1.061205	0.341665	0.147596
H58	H	1.467399	-0.303797	0.227492
Cl59	Cl	0.814558	0.327272	0.152233
H60	H	1.464416	-0.302171	-0.227764
Cl61	Cl	0.820508	0.337392	-0.147818
Cl62	Cl	1.635722	-0.097690	0.367624
H63	H	1.677549	-0.320431	0.093448
Cl64	Cl	1.703244	-0.479206	0.144925
H65	H	1.309114	-0.433766	0.130102
Cl66	Cl	1.261918	-0.272659	0.143120
