data_functionalizedCrystal
_audit_creation_method	'MofGen! by Chris Wilmer'
_symmetry_space_group_name_H-M	'P1'
_symmetry_Int_Tables_number	1
_symmetry_cell_setting	triclinic
loop_
_symmetry_equiv_pos_as_xyz
  x,y,z
_cell_length_a	23.532407
_cell_length_b	23.532407
_cell_length_c	12.996460
_cell_angle_alpha	90.004951
_cell_angle_beta	90.000844
_cell_angle_gamma	82.848678
loop_
_atom_site_label
_atom_site_type_symbol
_atom_site_fract_x
_atom_site_fract_y
_atom_site_fract_z
O1	O	0.755261	0.069131	0.085449
O2	O	1.088595	0.402464	0.418782
O3	O	1.421928	0.735798	0.752115
O4	O	0.589398	0.079134	0.085480
O5	O	0.922731	0.412467	0.418814
O6	O	1.256065	0.745801	0.752147
O7	O	0.677331	-0.008799	0.085445
O8	O	1.010665	0.324534	0.418778
O9	O	1.343998	0.657867	0.752111
O10	O	0.667328	0.157064	0.085484
O11	O	1.000661	0.490398	0.418818
O12	O	1.333995	0.823731	0.752151
O13	O	0.677320	-0.008794	-0.085689
O14	O	1.010653	0.324539	0.247644
O15	O	1.343987	0.657873	0.580978
O16	O	0.589387	0.079139	-0.085653
O17	O	0.922720	0.412473	0.247680
O18	O	1.256053	0.745806	0.581013
O19	O	0.755250	0.069136	-0.085685
O20	O	1.088583	0.402469	0.247648
O21	O	1.421917	0.735803	0.580982
Cu22	Cu	0.672317	0.074138	-0.101295
Cu23	Cu	1.005651	0.407471	0.232038
Cu24	Cu	1.338984	0.740805	0.565372
Cu25	Cu	0.672331	0.074132	0.101091
Cu26	Cu	1.005664	0.407465	0.434424
Cu27	Cu	1.338997	0.740799	0.767757
O28	O	0.667317	0.157069	-0.085649
O29	O	1.000650	0.490403	0.247684
O30	O	1.333983	0.823736	0.581017
C31	C	0.568176	0.078882	-0.000083
C32	C	0.901510	0.412215	0.333251
C33	C	1.234843	0.745549	0.666584
C34	C	0.504959	0.078116	-0.000071
C35	C	0.838293	0.411449	0.333262
C36	C	1.171626	0.744783	0.666595
C37	C	0.105856	0.125350	-0.000107
C38	C	0.439190	0.458683	0.333227
C39	C	0.772523	0.792016	0.666560
C40	C	0.046456	0.124638	-0.000113
C41	C	0.379789	0.457971	0.333220
C42	C	0.713123	0.791305	0.666553
O43	O	0.009711	0.168424	-0.000140
O44	O	0.343045	0.501757	0.333193
O45	O	0.676378	0.835091	0.666527
N46	N	0.023830	0.072362	-0.000124
N47	N	0.357163	0.405695	0.333209
N48	N	0.690496	0.739028	0.666543
C49	C	0.060607	0.020794	-0.000139
C50	C	0.393941	0.354127	0.333195
C51	C	0.727274	0.687460	0.666528
O52	O	0.035908	-0.023737	-0.000149
O53	O	0.369241	0.309596	0.333184
O54	O	0.702574	0.642930	0.666517
C55	C	0.120006	0.021506	-0.000140
C56	C	0.453340	0.354839	0.333194
C57	C	0.786673	0.688172	0.666527
C58	C	0.142629	0.073785	-0.000118
C59	C	0.475962	0.407119	0.333215
C60	C	0.809296	0.740452	0.666548
C61	C	0.128479	0.177625	-0.000087
C62	C	0.461813	0.510958	0.333247
C63	C	0.795146	0.844292	0.666580
C64	C	0.187876	0.178336	-0.000078
C65	C	0.521209	0.511670	0.333255
C66	C	0.854542	0.845003	0.666588
C67	C	0.224649	0.126772	-0.000090
C68	C	0.557982	0.460105	0.333243
C69	C	0.891315	0.793439	0.666577
C70	C	0.202025	0.074497	-0.000110
C71	C	0.535359	0.407830	0.333223
C72	C	0.868692	0.741163	0.666557
C73	C	0.156783	-0.030062	-0.000162
C74	C	0.490116	0.303271	0.333172
C75	C	0.823450	0.636605	0.666505
C76	C	0.216185	-0.029345	-0.000163
C77	C	0.549519	0.303988	0.333170
C78	C	0.882852	0.637321	0.666503
C79	C	0.238808	0.022934	-0.000142
C80	C	0.572141	0.356268	0.333191
C81	C	0.905475	0.689601	0.666524
C82	C	0.298194	0.023643	-0.000113
C83	C	0.631528	0.356977	0.333220
C84	C	0.964861	0.690310	0.666553
N85	N	0.320820	0.075920	-0.000103
N86	N	0.654154	0.409253	0.333231
N87	N	0.987487	0.742586	0.666564
C88	C	0.284048	0.127484	-0.000091
C89	C	0.617381	0.460817	0.333242
C90	C	0.950714	0.794151	0.666576
C91	C	-0.064135	0.019302	-0.000139
C92	C	0.269198	0.352635	0.333195
C93	C	0.602532	0.685969	0.666528
C94	C	-0.123533	0.018589	-0.000130
C95	C	0.209800	0.351923	0.333203
C96	C	0.543134	0.685256	0.666536
C97	C	-0.137680	0.122434	-0.000107
C98	C	0.195653	0.455768	0.333227
C99	C	0.528986	0.789101	0.666560
C100	C	-0.078281	0.123146	-0.000108
C101	C	0.255052	0.456480	0.333226
C102	C	0.588385	0.789813	0.666559
C103	C	-0.041509	0.071578	-0.000128
C104	C	0.291824	0.404912	0.333205
C105	C	0.625158	0.738245	0.666539
C106	C	0.408784	0.128974	-0.000072
C107	C	0.742118	0.462307	0.333261
C108	C	1.075451	0.795640	0.666594
C109	C	0.468186	0.129680	-0.000060
C110	C	0.801520	0.463014	0.333274
C111	C	1.134853	0.796347	0.666607
C112	C	0.482329	0.025836	-0.000089
C113	C	0.815662	0.359169	0.333245
C114	C	1.148995	0.692503	0.666578
C115	C	0.422932	0.025129	-0.000096
C116	C	0.756265	0.358462	0.333237
C117	C	1.089598	0.691796	0.666571
C118	C	0.386160	0.076702	-0.000091
C119	C	0.719494	0.410036	0.333242
C120	C	1.052827	0.743369	0.666575
O121	O	0.334974	-0.020119	-0.000091
O122	O	0.668307	0.313214	0.333243
O123	O	1.001640	0.646547	0.666576
O124	O	0.308755	0.172007	-0.000094
O125	O	0.642089	0.505340	0.333240
O126	O	0.975422	0.838674	0.666573
C127	C	0.677071	-0.030013	-0.000125
C128	C	1.010404	0.303321	0.333209
C129	C	1.343738	0.636654	0.666542
C130	C	0.676305	-0.093230	-0.000132
C131	C	1.009638	0.240104	0.333201
C132	C	1.342972	0.573437	0.666534
C133	C	0.723539	-0.492333	-0.000085
C134	C	1.056872	-0.158999	0.333248
C135	C	1.390205	0.174334	0.666582
C136	C	0.722827	-0.551733	-0.000077
C137	C	1.056160	-0.218400	0.333256
C138	C	1.389494	0.114934	0.666590
O139	O	0.766613	-0.588478	-0.000047
O140	O	1.099946	-0.255144	0.333286
O141	O	1.433280	0.078189	0.666619
N142	N	0.670551	-0.574359	-0.000068
N143	N	1.003884	-0.241026	0.333265
N144	N	1.337217	0.092307	0.666599
C145	C	0.618983	-0.537582	-0.000056
C146	C	0.952316	-0.204248	0.333277
C147	C	1.285649	0.129085	0.666611
O148	O	0.574452	-0.562281	-0.000047
O149	O	0.907785	-0.228948	0.333287
O150	O	1.241119	0.104385	0.666620
C151	C	0.619695	-0.478182	-0.000057
C152	C	0.953028	-0.144849	0.333277
C153	C	1.286361	0.188484	0.666610
C154	C	0.671974	-0.455560	-0.000076
C155	C	1.005308	-0.122227	0.333257
C156	C	1.338641	0.211107	0.666590
C157	C	0.775814	-0.469710	-0.000104
C158	C	1.109147	-0.136376	0.333230
C159	C	1.442481	0.196957	0.666563
C160	C	0.776525	-0.410313	-0.000113
C161	C	1.109859	-0.076980	0.333220
C162	C	1.443192	0.256353	0.666553
C163	C	0.724961	-0.373540	-0.000105
C164	C	1.058294	-0.040207	0.333229
C165	C	1.391628	0.293126	0.666562
C166	C	0.672685	-0.396164	-0.000086
C167	C	1.006019	-0.062830	0.333247
C168	C	1.339352	0.270503	0.666580
C169	C	0.568127	-0.441406	-0.000038
C170	C	0.901460	-0.108073	0.333296
C171	C	1.234794	0.225261	0.666629
C172	C	0.568844	-0.382004	-0.000037
C173	C	0.902177	-0.048670	0.333296
C174	C	1.235510	0.284663	0.666629
C175	C	0.621123	-0.359381	-0.000057
C176	C	0.954457	-0.026048	0.333276
C177	C	1.287790	0.307286	0.666610
C178	C	0.621832	-0.299995	-0.000087
C179	C	0.955166	0.033339	0.333246
C180	C	1.288499	0.366672	0.666579
N181	N	0.674109	-0.277368	-0.000097
N182	N	1.007442	0.055965	0.333237
N183	N	1.340775	0.389298	0.666570
C184	C	0.725673	-0.314141	-0.000105
C185	C	1.059006	0.019192	0.333228
C186	C	1.392340	0.352525	0.666561
C187	C	0.617491	-0.662324	-0.000053
C188	C	0.950824	-0.328991	0.333280
C189	C	1.284158	0.004343	0.666614
C190	C	0.616778	-0.721722	-0.000060
C191	C	0.950112	-0.388389	0.333273
C192	C	1.283445	-0.055055	0.666607
C193	C	0.720623	-0.735869	-0.000079
C194	C	1.053957	-0.402536	0.333254
C195	C	1.387290	-0.069203	0.666588
C196	C	0.721335	-0.676470	-0.000080
C197	C	1.054669	-0.343137	0.333254
C198	C	1.388002	-0.009804	0.666587
C199	C	0.669767	-0.639698	-0.000062
C200	C	1.003101	-0.306365	0.333271
C201	C	1.336434	0.026969	0.666604
C202	C	0.727163	-0.189405	-0.000127
C203	C	1.060496	0.143929	0.333206
C204	C	1.393829	0.477262	0.666540
C205	C	0.727869	-0.130003	-0.000141
C206	C	1.061203	0.203331	0.333192
C207	C	1.394536	0.536664	0.666526
C208	C	0.624025	-0.115860	-0.000117
C209	C	0.957358	0.217473	0.333217
C210	C	1.290692	0.550806	0.666550
C211	C	0.623318	-0.175257	-0.000108
C212	C	0.956651	0.158076	0.333225
C213	C	1.289985	0.491409	0.666559
C214	C	0.674891	-0.212029	-0.000110
C215	C	1.008225	0.121305	0.333224
C216	C	1.341558	0.454638	0.666557
O217	O	0.578070	-0.263215	-0.000113
O218	O	0.911403	0.070118	0.333220
O219	O	1.244736	0.403451	0.666554
O220	O	0.770196	-0.289433	-0.000101
O221	O	1.103529	0.043900	0.333232
O222	O	1.436863	0.377233	0.666565
C223	C	0.776472	0.069388	-0.000120
C224	C	1.109805	0.402722	0.333214
C225	C	1.443138	0.736055	0.666547
C226	C	0.839689	0.070154	-0.000124
C227	C	1.173022	0.403487	0.333209
C228	C	1.506355	0.736821	0.666543
C229	C	0.667577	0.178283	-0.000078
C230	C	1.000910	0.511616	0.333256
C231	C	1.334244	0.844949	0.666589
C232	C	0.668343	0.241500	-0.000063
C233	C	1.001676	0.574833	0.333270
C234	C	1.335010	0.908167	0.666604
N235	N	0.672312	0.074142	-0.243642
N236	N	1.005645	0.407475	0.089691
N237	N	1.338979	0.740809	0.423025
C238	C	0.672315	0.074143	-0.336748
C239	C	1.005648	0.407477	-0.003415
C240	C	1.338981	0.740810	0.329919
C241	C	0.672320	0.074140	-0.453553
C242	C	1.005653	0.407473	-0.120220
C243	C	1.338987	0.740806	0.213113
C244	C	0.672327	0.074133	-0.546652
C245	C	1.005661	0.407467	-0.213318
C246	C	1.338994	0.740800	0.120015
C247	C	0.672333	0.074130	-0.663464
C248	C	1.005667	0.407463	-0.330131
C249	C	1.339000	0.740797	0.003203
N250	N	0.672340	0.074124	0.243438
N251	N	1.005674	0.407457	0.576771
N252	N	1.339007	0.740790	0.910104
H253	H	0.138375	-0.072634	-0.000180
H254	H	0.471708	0.260700	0.333153
H255	H	0.805041	0.594033	0.666487
N256	N	-0.146628	-0.034818	-0.000129
N257	N	0.186705	0.298515	0.333204
N258	N	0.520038	0.631849	0.666538
N259	N	-0.113782	-0.080851	-0.000134
N260	N	0.219551	0.252483	0.333200
N261	N	0.552885	0.585816	0.666533
H262	H	-0.130090	-0.118572	-0.000137
H263	H	0.203243	0.214761	0.333197
H264	H	0.536577	0.548094	0.666530
H265	H	0.526850	-0.352066	-0.000022
H266	H	0.860183	-0.018732	0.333311
H267	H	1.193516	0.314601	0.666645
N268	N	0.773303	-0.773429	-0.000089
N269	N	1.106636	-0.440096	0.333244
N270	N	1.439969	-0.106763	0.666578
N271	N	0.808145	-0.771541	-0.072231
N272	N	1.141479	-0.438207	0.261103
N273	N	1.474812	-0.104874	0.594436
H274	H	0.845349	-0.798067	-0.072239
H275	H	1.178682	-0.464734	0.261094
H276	H	1.512015	-0.131401	0.594427
N277	N	0.563376	-0.744826	-0.000030
N278	N	0.896709	-0.411493	0.333303
N279	N	1.230042	-0.078160	0.666636
N280	N	0.551394	-0.776383	0.072117
N281	N	0.884728	-0.443050	0.405451
N282	N	1.218061	-0.109716	0.738784
H283	H	0.513677	-0.792698	0.072145
H284	H	0.847010	-0.459365	0.405478
H285	H	1.180343	-0.126032	0.738812
H286	H	0.769159	-0.219337	-0.000124
H287	H	1.102492	0.113996	0.333209
H288	H	1.435826	0.447329	0.666542
N289	N	0.090924	0.230303	-0.000094
N290	N	0.424257	0.563636	0.333239
N291	N	0.757591	0.896969	0.666572
N292	N	0.092828	0.265148	-0.072223
N293	N	0.426161	0.598482	0.261111
N294	N	0.759494	0.931815	0.594444
H295	H	0.066308	0.302356	-0.072224
H296	H	0.399641	0.635690	0.261109
H297	H	0.732974	0.969023	0.594442
N298	N	0.564807	-0.624772	-0.000039
N299	N	0.898140	-0.291439	0.333294
N300	N	1.231473	0.041895	0.666627
N301	N	0.518139	-0.644987	-0.000029
N302	N	0.851472	-0.311654	0.333304
N303	N	1.184805	0.021679	0.666637
H304	H	0.480930	-0.618469	-0.000017
H305	H	0.814263	-0.285136	0.333316
H306	H	1.147596	0.048197	0.666650
N307	N	0.253739	-0.082028	-0.000195
N308	N	0.587072	0.251305	0.333138
N309	N	0.920405	0.584639	0.666472
N310	N	0.233527	-0.128698	-0.000219
N311	N	0.566860	0.204636	0.333115
N312	N	0.900193	0.537969	0.666448
H313	H	0.260047	-0.165905	-0.000241
H314	H	0.593380	0.167428	0.333092
H315	H	0.926714	0.500762	0.666426
H316	H	0.525555	-0.459814	-0.000015
H317	H	0.858889	-0.126481	0.333318
H318	H	1.192222	0.206852	0.666651
N319	N	0.781269	-0.106886	-0.000169
N320	N	1.114603	0.226448	0.333164
N321	N	1.447936	0.559781	0.666498
N322	N	0.793247	-0.075326	-0.072315
N323	N	1.126580	0.258007	0.261018
N324	N	1.459914	0.591340	0.594352
H325	H	0.830959	-0.059000	-0.072335
H326	H	1.164293	0.274333	0.260998
H327	H	1.497626	0.607666	0.594332
H328	H	0.404512	-0.017441	-0.000098
H329	H	0.737845	0.315892	0.333235
H330	H	1.071178	0.649225	0.666568
H331	H	0.580748	-0.193677	-0.000120
H332	H	0.914081	0.139656	0.333213
H333	H	1.247414	0.472989	0.666546
H334	H	0.819097	-0.391900	-0.000125
H335	H	1.152430	-0.058567	0.333208
H336	H	1.485763	0.274767	0.666541
H337	H	0.582043	-0.085909	-0.000113
H338	H	0.915376	0.247424	0.333220
H339	H	1.248709	0.580757	0.666553
N340	N	0.371221	0.181649	-0.000073
N341	N	0.704554	0.514982	0.333261
N342	N	1.037888	0.848315	0.666594
N343	N	0.336499	0.192846	-0.072209
N344	N	0.669832	0.526179	0.261124
N345	N	1.003165	0.859512	0.594457
H346	H	0.309969	0.230047	-0.072205
H347	H	0.643302	0.563380	0.261128
H348	H	0.976636	0.896714	0.594461
N349	N	0.491283	0.183091	-0.000053
N350	N	0.824617	0.516424	0.333280
N351	N	1.157950	0.849757	0.666614
N352	N	0.479909	0.217776	-0.072185
N353	N	0.813243	0.551110	0.261149
N354	N	1.146576	0.884443	0.594482
H355	H	0.496219	0.255497	-0.072183
H356	H	0.829552	0.588830	0.261150
H357	H	1.162886	0.922164	0.594484
N358	N	0.210970	0.231744	-0.000055
N359	N	0.544303	0.565078	0.333278
N360	N	0.877637	0.898411	0.666611
N361	N	0.178121	0.277775	-0.000046
N362	N	0.511454	0.611109	0.333288
N363	N	0.844788	0.944442	0.666621
H364	H	0.194427	0.315498	-0.000031
H365	H	0.527760	0.648831	0.333302
H366	H	0.861094	0.982165	0.666636
N367	N	0.774742	-0.653374	-0.000104
N368	N	1.108076	-0.320041	0.333229
N369	N	1.441409	0.013293	0.666562
N370	N	0.820775	-0.686220	-0.000120
N371	N	1.154108	-0.352887	0.333213
N372	N	1.487442	-0.019554	0.666547
H373	H	0.858497	-0.669912	-0.000137
H374	H	1.191830	-0.336579	0.333196
H375	H	1.525163	-0.003245	0.666529
N376	N	-0.055185	0.176553	-0.000085
N377	N	0.278148	0.509887	0.333248
N378	N	0.611482	0.843220	0.666582
N379	N	-0.088031	0.222586	-0.000069
N380	N	0.245302	0.555919	0.333264
N381	N	0.578635	0.889253	0.666597
H382	H	-0.071723	0.260308	-0.000055
H383	H	0.261610	0.593641	0.333278
H384	H	0.594944	0.926974	0.666612
H385	H	-0.167632	0.164421	-0.000102
H386	H	0.165701	0.497754	0.333231
H387	H	0.499035	0.831087	0.666565
H388	H	-0.034198	-0.022693	-0.000146
H389	H	0.299136	0.310640	0.333187
H390	H	0.632469	0.643973	0.666521
N391	N	0.519899	-0.026832	-0.000130
N392	N	0.853232	0.306501	0.333204
N393	N	1.186565	0.639834	0.666537
N394	N	0.518006	-0.061667	-0.072289
N395	N	0.851339	0.271666	0.261044
N396	N	1.184673	0.605000	0.594377
H397	H	0.544542	-0.098864	-0.072328
H398	H	0.877875	0.234469	0.261005
H399	H	1.211209	0.567802	0.594338
N400	N	0.828496	-0.507259	-0.000105
N401	N	1.161829	-0.173925	0.333228
N402	N	1.495162	0.159408	0.666561
N403	N	0.875162	-0.487040	-0.000118
N404	N	1.208495	-0.153706	0.333215
N405	N	1.541828	0.179627	0.666548
H406	H	0.912372	-0.513555	-0.000126
H407	H	1.245706	-0.180222	0.333208
H408	H	1.579039	0.153112	0.666541
