data_functionalizedCrystal
_audit_creation_method	'MofGen! by Chris Wilmer'
_symmetry_space_group_name_H-M	'P1'
_symmetry_Int_Tables_number	1
_symmetry_cell_setting	triclinic
loop_
_symmetry_equiv_pos_as_xyz
  x,y,z
_cell_length_a	27.780882
_cell_length_b	27.780884
_cell_length_c	27.780936
_cell_angle_alpha	59.997431
_cell_angle_beta	89.998393
_cell_angle_gamma	60.000211
loop_
_atom_site_label
_atom_site_type_symbol
_atom_site_fract_x
_atom_site_fract_y
_atom_site_fract_z
O1	O	-0.410272	-0.344533	0.014321
O2	O	-0.340274	-0.245963	-0.014251
O3	O	-0.340271	-0.344532	0.084319
O4	O	-0.410275	-0.245964	-0.084248
O5	O	-0.260212	-0.424591	0.084319
O6	O	-0.260215	-0.326022	-0.014251
O7	O	-0.330212	-0.424593	0.014321
Zn8	Zn	-0.282502	-0.388018	0.000035
Zn9	Zn	-0.387984	-0.282537	0.000035
O10	O	-0.330215	-0.326023	-0.084249
C11	C	-0.207596	-0.090567	-0.029862
C12	C	-0.237300	-0.031161	-0.025773
C13	C	-0.149665	-0.119396	-0.030268
C14	C	-0.207598	-0.177730	-0.029868
C15	C	-0.237303	-0.211519	-0.025784
C16	C	-0.149667	-0.206427	-0.030273
C17	C	-0.120430	-0.177733	-0.029862
C18	C	-0.056935	-0.211526	-0.025772
C19	C	-0.236701	-0.119393	-0.030273
C20	C	-0.005637	-0.238828	-0.022467
C21	C	-0.261296	0.016832	-0.022467
C22	C	-0.261302	-0.238818	-0.022483
C23	C	0.058719	-0.273079	-0.018321
C24	C	-0.291401	0.077042	-0.018322
C25	C	-0.291409	-0.273065	-0.018343
C26	C	-0.462880	-0.492840	0.029960
C27	C	-0.433177	-0.459046	0.025869
C28	C	-0.520810	-0.464145	0.030369
C29	C	-0.462878	-0.580009	0.029964
C30	C	-0.433175	-0.639417	0.025878
C31	C	-0.520809	-0.551182	0.030373
C32	C	-0.550044	-0.492843	0.029965
C33	C	-0.613539	-0.459053	0.025879
C34	C	-0.433776	-0.551179	0.030369
C35	C	-0.664836	-0.431753	0.022576
C36	C	-0.409181	-0.431743	0.022562
C37	C	-0.409177	-0.687411	0.022575
C38	C	-0.729191	-0.397505	0.018434
C39	C	-0.379076	-0.397491	0.018415
C40	C	-0.379071	-0.747624	0.018433
C41	C	-0.462885	-0.177726	-0.372327
C42	C	-0.433180	-0.211518	-0.402029
C43	C	-0.520816	-0.119387	-0.401431
C44	C	-0.462885	-0.177725	-0.285161
C45	C	-0.433182	-0.211516	-0.221665
C46	C	-0.520817	-0.119386	-0.314397
C47	C	-0.550052	-0.090558	-0.372329
C48	C	-0.613547	-0.031151	-0.402033
C49	C	-0.433782	-0.206421	-0.314395
C50	C	-0.664845	0.016843	-0.426031
C51	C	-0.409183	-0.238819	-0.426026
C52	C	-0.409185	-0.238817	-0.170367
C53	C	-0.729200	0.077055	-0.456138
C54	C	-0.379077	-0.273069	-0.456130
C55	C	-0.379080	-0.273066	-0.106011
O56	O	0.249046	-0.424606	0.014340
O57	O	0.080480	-0.326036	-0.014230
O58	O	0.179042	-0.424608	0.084339
O59	O	0.150485	-0.326033	-0.084229
O60	O	0.179044	-0.344552	0.084344
O61	O	0.080483	-0.245979	-0.014225
O62	O	0.249048	-0.344549	0.014345
Zn63	Zn	0.164766	-0.282554	0.000061
Zn64	Zn	0.164763	-0.388031	0.000054
O65	O	0.150487	-0.245976	-0.084224
O66	O	-0.330206	0.234705	0.014343
O67	O	-0.260205	0.094709	-0.014226
O68	O	-0.260208	0.094701	0.084342
O69	O	-0.330203	0.234714	-0.084225
O70	O	-0.340270	0.094703	0.084337
O71	O	-0.340267	0.094712	-0.014231
O72	O	-0.410267	0.234708	0.014338
Zn73	Zn	-0.387978	0.164710	0.000053
Zn74	Zn	-0.282494	0.164707	0.000059
O75	O	-0.410264	0.234716	-0.084231
O76	O	-0.919528	0.234726	-0.494947
O77	O	-0.750964	0.094725	-0.424943
O78	O	-0.849526	0.094722	-0.424940
O79	O	-0.820966	0.234730	-0.494951
O80	O	-0.849524	0.094720	-0.504999
O81	O	-0.750962	0.094723	-0.505002
O82	O	-0.919526	0.234724	-0.575006
Zn83	Zn	-0.835244	0.164724	-0.552715
Zn84	Zn	-0.835246	0.164726	-0.447234
O85	O	-0.820964	0.234728	-0.575009
O86	O	-0.340271	-0.344532	-0.574994
O87	O	-0.410272	-0.245967	-0.504995
O88	O	-0.410270	-0.344535	-0.504989
O89	O	-0.340273	-0.245964	-0.574999
O90	O	-0.330210	-0.424595	-0.424929
O91	O	-0.330211	-0.326028	-0.424934
O92	O	-0.260211	-0.424592	-0.494933
Zn93	Zn	-0.282500	-0.388021	-0.447222
Zn94	Zn	-0.387983	-0.282538	-0.552706
O95	O	-0.260212	-0.326025	-0.494939
C96	C	-0.120433	-0.579999	0.372398
C97	C	-0.056937	-0.639406	0.402102
C98	C	-0.149668	-0.551171	0.401501
C99	C	-0.207599	-0.492832	0.285231
C100	C	-0.237303	-0.459040	0.221736
C101	C	-0.236702	-0.464136	0.314466
C102	C	-0.207599	-0.492832	0.372397
C103	C	-0.237303	-0.459041	0.402100
C104	C	-0.149668	-0.551170	0.314467
C105	C	-0.261300	-0.431740	0.426097
C106	C	-0.005639	-0.687400	0.426100
C107	C	-0.261300	-0.431739	0.170437
C108	C	-0.291406	-0.397490	0.456202
C109	C	0.058716	-0.747612	0.456206
C110	C	-0.291406	-0.397489	0.106081
C111	C	0.194661	-0.492867	0.372424
C112	C	0.190573	-0.459078	0.402130
C113	C	0.195066	-0.551205	0.401525
C114	C	0.194663	-0.492861	0.285255
C115	C	0.190578	-0.459066	0.221759
C116	C	0.195068	-0.551199	0.314489
C117	C	0.194659	-0.580030	0.372420
C118	C	0.190568	-0.639437	0.402122
C119	C	0.195070	-0.464168	0.314492
C120	C	0.187263	-0.687431	0.426117
C121	C	0.187269	-0.431780	0.426129
C122	C	0.187276	-0.431762	0.170460
C123	C	0.183116	-0.747642	0.456221
C124	C	0.183126	-0.397533	0.456237
C125	C	0.183135	-0.397509	0.106104
C126	C	0.134870	-0.090557	-0.372306
C127	C	0.138960	-0.031150	-0.402008
C128	C	0.134463	-0.119382	-0.401410
C129	C	0.134865	-0.177726	-0.285140
C130	C	0.138951	-0.211520	-0.221644
C131	C	0.134458	-0.206419	-0.314377
C132	C	0.134868	-0.177721	-0.372309
C133	C	0.138956	-0.211509	-0.402014
C134	C	0.134460	-0.119388	-0.314374
C135	C	0.142259	-0.238808	-0.426012
C136	C	0.142266	0.016844	-0.426004
C137	C	0.142253	-0.238823	-0.170345
C138	C	0.146403	-0.273055	-0.456120
C139	C	0.146412	0.077056	-0.456108
C140	C	0.146394	-0.273076	-0.105989
C141	C	-0.207598	-0.177787	0.372409
C142	C	-0.237303	-0.211580	0.402109
C143	C	-0.149667	-0.206489	0.401514
C144	C	-0.207597	-0.090610	0.285248
C145	C	-0.237301	-0.031194	0.221754
C146	C	-0.149666	-0.119444	0.314485
C147	C	-0.120430	-0.177790	0.372415
C148	C	-0.056935	-0.211587	0.402120
C149	C	-0.236701	-0.119441	0.314480
C150	C	-0.005636	-0.238893	0.426118
C151	C	-0.261301	-0.238883	0.426102
C152	C	-0.261298	0.016808	0.170457
C153	C	0.058720	-0.273148	0.456225
C154	C	-0.291408	-0.273134	0.456204
C155	C	-0.291404	0.077029	0.106102
O156	O	0.150447	-0.326068	0.575099
O157	O	0.179028	-0.424636	0.505101
O158	O	0.080457	-0.326067	0.505088
O159	O	0.249018	-0.424637	0.575111
O160	O	0.080466	-0.246008	0.425031
O161	O	0.179037	-0.344577	0.425044
O162	O	0.150456	-0.246009	0.495042
Zn163	Zn	0.164748	-0.282582	0.447332
Zn164	Zn	0.164736	-0.388063	0.552810
O165	O	0.249027	-0.344578	0.495054
C166	C	-0.550042	0.507207	-0.372303
C167	C	-0.613538	0.541004	-0.402008
C168	C	-0.520806	0.535906	-0.401402
C169	C	-0.462875	0.420027	-0.285136
C170	C	-0.433171	0.360611	-0.221642
C171	C	-0.433772	0.448858	-0.314368
C172	C	-0.462874	0.507204	-0.372297
C173	C	-0.433170	0.540998	-0.401996
C174	C	-0.520807	0.448861	-0.314373
C175	C	-0.409172	0.568301	-0.425990
C176	C	-0.664836	0.568309	-0.426007
C177	C	-0.409174	0.312609	-0.170345
C178	C	-0.379065	0.602553	-0.456091
C179	C	-0.729192	0.602564	-0.456114
C180	C	-0.379068	0.252388	-0.105990
H181	H	-0.126198	-0.253369	-0.030929
H182	H	-0.126196	-0.095265	-0.030925
Br183	Br	-0.559938	-0.079167	-0.275282
H184	H	-0.284301	-0.095261	-0.030933
H185	H	-0.284300	-0.095313	0.291008
Br186	Br	0.133321	-0.284631	-0.275275
Br187	Br	-0.559920	0.614150	-0.480737
H188	H	-0.544286	0.424744	-0.290902
H189	H	-0.284298	-0.417187	0.290989
Br190	Br	-0.559930	-0.591395	0.031469
Br191	Br	0.133368	-0.079165	-0.480746
Br192	Br	-0.354446	-0.591389	0.031454
Br193	Br	0.133378	-0.079187	-0.275246
Br194	Br	-0.559946	-0.385876	0.031419
Br195	Br	-0.110554	-0.591390	0.480839
H196	H	-0.386173	0.424726	-0.290891
H197	H	-0.126194	-0.095316	0.291012
Br198	Br	0.196163	-0.385925	0.275371
Br199	Br	-0.559943	-0.079183	-0.480759
Br200	Br	-0.110563	-0.284702	0.480863
H201	H	-0.126188	-0.575288	0.290992
Br202	Br	-0.354452	-0.284668	-0.275268
Br203	Br	0.196155	-0.591406	0.275366
H204	H	0.195711	-0.575327	0.449122
