data_functionalizedCrystal
_audit_creation_method	'MofGen! by Chris Wilmer'
_symmetry_space_group_name_H-M	'P1'
_symmetry_Int_Tables_number	1
_symmetry_cell_setting	triclinic
loop_
_symmetry_equiv_pos_as_xyz
  x,y,z
_cell_length_a	17.699077
_cell_length_b	8.559649
_cell_length_c	16.176319
_cell_angle_alpha	89.994635
_cell_angle_beta	89.992710
_cell_angle_gamma	76.529620
loop_
_atom_site_label
_atom_site_type_symbol
_atom_site_fract_x
_atom_site_fract_y
_atom_site_fract_z
O1	O	0.992513	0.202065	-0.068732
O2	O	0.770628	0.228369	-0.068735
O3	O	0.901119	-0.017462	-0.068732
O4	O	0.862022	0.447896	-0.068735
O5	O	0.901103	-0.017477	0.068761
O6	O	0.770612	0.228355	0.068758
O7	O	0.992497	0.202050	0.068761
Cu8	Cu	0.881553	0.215201	0.081314
Cu9	Cu	0.881572	0.215218	-0.081288
O10	O	0.862006	0.447881	0.068758
C11	C	0.742477	0.227421	0.000011
C12	C	0.658620	0.224598	0.000009
C13	C	0.619220	0.223260	0.074958
C14	C	0.540431	0.220582	0.074959
C15	C	0.501042	0.219254	0.000010
C16	C	0.540448	0.220588	-0.074944
C17	C	0.619237	0.223254	-0.074944
C18	C	0.222700	0.209832	-0.074946
C19	C	0.143905	0.207171	-0.074940
C20	C	0.143894	0.207161	0.074957
C21	C	0.222683	0.209827	0.074957
C22	C	0.262083	0.211152	0.000003
C23	C	0.347516	0.214052	0.000003
C24	C	0.415609	0.216365	0.000009
C25	C	0.904073	-0.077011	0.000013
C26	C	0.912893	-0.254425	0.000008
C27	C	1.020648	0.202998	0.000014
C28	C	1.104505	0.205821	0.000010
C29	C	0.859051	0.507430	0.000012
C30	C	0.850232	0.684845	0.000011
N31	N	0.881545	0.215188	0.195679
C32	C	0.939339	0.106378	0.238945
C33	C	0.939342	0.106377	0.325492
C34	C	0.881554	0.215194	0.368772
C35	C	0.823754	0.324009	0.325500
C36	C	0.823749	0.324001	0.238955
C37	C	0.823776	0.324041	0.674528
C38	C	0.823787	0.324043	0.761080
C39	C	0.939370	0.106417	0.761065
C40	C	0.939364	0.106409	0.674520
C41	C	0.881562	0.215217	0.631256
C42	C	0.881558	0.215215	0.537412
C43	C	0.881560	0.215205	0.462614
N44	N	0.881579	0.215225	0.804347
H45	H	0.508358	0.219466	0.135989
Cl46	Cl	0.751133	0.460851	0.815488
H47	H	0.973290	-0.338168	0.000016
Cl48	Cl	0.751102	0.460803	0.379907
H49	H	0.986433	0.017814	0.796300
H50	H	0.986402	0.017775	0.360718
H51	H	0.789838	-0.231421	0.000012
Cl52	Cl	0.094388	0.205497	-0.169168
Cl53	Cl	0.751116	0.460830	0.620145
H54	H	0.508372	0.219495	-0.135968
H55	H	0.254771	0.210906	-0.135977
Cl56	Cl	1.011995	-0.030422	0.184545
Cl57	Cl	0.751087	0.460791	0.184564
H58	H	0.651283	0.224355	0.135990
Cl59	Cl	0.272196	0.211506	0.169182
Cl60	Cl	1.012016	-0.030389	0.620114
H61	H	0.111806	0.206074	0.135988
H62	H	0.651315	0.224347	-0.135975
