data_functionalizedCrystal
_audit_creation_method	'MofGen! by Chris Wilmer'
_symmetry_space_group_name_H-M	'P1'
_symmetry_Int_Tables_number	1
_symmetry_cell_setting	triclinic
loop_
_symmetry_equiv_pos_as_xyz
  x,y,z
_cell_length_a	10.540539
_cell_length_b	14.971496
_cell_length_c	9.016244
_cell_angle_alpha	90.008100
_cell_angle_beta	90.000009
_cell_angle_gamma	95.928196
loop_
_atom_site_label
_atom_site_type_symbol
_atom_site_fract_x
_atom_site_fract_y
_atom_site_fract_z
O1	O	1.684458	-0.126056	-0.123275
O2	O	1.314911	-0.137932	-0.123294
O3	O	1.509583	-0.001850	-0.123269
O4	O	1.489786	-0.262138	-0.123300
O5	O	1.509576	-0.001840	0.123411
O6	O	1.314904	-0.137922	0.123387
O7	O	1.684451	-0.126045	0.123406
Cu8	Cu	1.499677	-0.131983	0.145920
Cu9	Cu	1.499685	-0.131995	-0.145808
O10	O	1.489779	-0.262127	0.123381
C11	C	1.508692	0.031484	0.000071
C12	C	1.506032	0.130796	0.000073
C13	C	1.267615	-0.137037	0.000044
C14	C	1.126697	-0.134372	0.000038
C15	C	1.494586	0.558559	-0.134427
C16	C	1.497092	0.465246	-0.134422
C17	C	1.498333	0.418601	0.000049
C18	C	1.497080	0.465275	0.134523
C19	C	1.494584	0.558587	0.134516
C20	C	1.502281	0.270782	0.134529
C21	C	1.504776	0.177463	0.134537
C22	C	1.504790	0.177441	-0.134409
C23	C	1.502293	0.270753	-0.134416
C24	C	1.501039	0.317421	0.000059
C25	C	0.944423	-0.032264	0.000625
C26	C	1.091011	-0.034965	0.000054
C27	C	1.064487	-0.182217	-0.140829
C28	C	0.917981	-0.178824	-0.140932
C29	C	0.917462	-0.180834	0.139590
C30	C	1.064434	-0.181750	0.141437
C31	C	1.731748	-0.126941	0.000064
C32	C	1.872666	-0.129606	0.000061
C33	C	1.490670	0.704538	0.000040
C34	C	1.493330	0.605226	0.000036
N35	N	1.499680	-0.131974	0.351106
C36	C	1.604201	-0.059429	0.586106
C37	C	1.603924	-0.059153	0.414215
C38	C	1.367216	-0.110743	0.413527
C39	C	1.367839	-0.110234	0.585472
C40	C	1.526462	-0.226000	0.585601
C41	C	1.529463	-0.225386	0.413645
N42	N	1.499696	-0.131996	0.649005
H43	H	1.493564	0.596529	-0.243929
C44	C	1.334595	-0.019137	0.355400
H45	H	1.401522	0.006288	0.293109
H46	H	1.257341	-0.027070	0.300483
H47	H	1.324827	0.019894	0.436760
H48	H	1.501276	0.308728	-0.243914
H49	H	1.501261	0.308777	0.244032
H50	H	1.107454	-0.148989	-0.245658
C51	C	1.498443	0.413972	0.282442
H52	H	1.497347	0.455134	0.362523
H53	H	1.425449	0.371226	0.288027
H54	H	1.573390	0.383919	0.288044
C55	C	0.852075	-0.275396	-0.149593
H56	H	0.762174	-0.273979	-0.149705
H57	H	0.877272	-0.303120	-0.238105
H58	H	0.876111	-0.308664	-0.066294
C59	C	1.506189	0.126112	-0.282328
H60	H	1.507873	0.063860	-0.263069
H61	H	1.431820	0.135047	-0.337594
H62	H	1.579760	0.147753	-0.337564
C63	C	1.506147	0.126156	0.282450
H64	H	1.505059	0.167314	0.362538
H65	H	1.433153	0.083409	0.288038
H66	H	1.581094	0.096102	0.288038
H67	H	1.086016	-0.255219	-0.146079
C68	C	1.259608	-0.180182	0.358309
H69	H	1.180369	-0.166083	0.397369
H70	H	1.256550	-0.178895	0.253042
H71	H	1.275510	-0.238412	0.390478
H72	H	0.886276	-0.148659	0.246366
H73	H	0.890173	-0.143471	-0.246223
H74	H	1.493560	0.596583	0.244010
H75	H	0.916279	0.007012	0.101650
H76	H	1.134047	0.002681	0.101034
H77	H	0.914661	0.006837	-0.099827
H78	H	1.458288	-0.281980	0.370682
H79	H	1.133188	0.002938	-0.101092
H80	H	1.105788	-0.146798	0.245650
C81	C	1.096047	-0.279657	0.152921
H82	H	1.147854	-0.292982	0.071260
H83	H	1.140554	-0.287508	0.242824
H84	H	1.019227	-0.318887	0.151730
H85	H	1.621000	-0.246198	0.628956
C86	C	0.852575	-0.277831	0.140868
H87	H	0.798438	-0.287099	0.056833
H88	H	0.915810	-0.318636	0.137762
H89	H	0.803422	-0.287589	0.228784
H90	H	1.702386	-0.071920	0.372010
C91	C	1.737668	-0.076413	0.641950
H92	H	1.730858	-0.127908	0.704135
H93	H	1.790852	-0.086099	0.559673
H94	H	1.773627	-0.025711	0.696530
C95	C	1.336010	-0.017586	0.639689
H96	H	1.322829	0.019388	0.556629
H97	H	1.260797	-0.024648	0.698375
H98	H	1.404790	0.009669	0.697488
C99	C	1.259389	-0.178668	0.641692
H100	H	1.215162	-0.206670	0.559441
H101	H	1.294089	-0.222922	0.700324
H102	H	1.201921	-0.148564	0.699973
C103	C	1.423521	-0.298968	0.640557
H104	H	1.364510	-0.272323	0.701846
H105	H	1.379912	-0.326928	0.557879
H106	H	1.462636	-0.342658	0.695885
C107	C	1.661096	-0.247133	0.358524
H108	H	1.697758	-0.199491	0.297643
H109	H	1.715125	-0.254074	0.441151
H110	H	1.651607	-0.301245	0.302735
H111	H	1.586806	0.010593	0.373103
C112	C	1.498460	0.413914	-0.282332
H113	H	1.497344	0.455056	-0.362417
H114	H	1.573398	0.383858	-0.287926
H115	H	1.425457	0.371166	-0.287915
H116	H	1.587335	0.009918	0.629340
