data_functionalizedCrystal
_audit_creation_method	'MofGen! by Chris Wilmer'
_symmetry_space_group_name_H-M	'P1'
_symmetry_Int_Tables_number	1
_symmetry_cell_setting	triclinic
loop_
_symmetry_equiv_pos_as_xyz
  x,y,z
_cell_length_a	19.188930
_cell_length_b	9.065218
_cell_length_c	8.140239
_cell_angle_alpha	89.998314
_cell_angle_beta	89.983403
_cell_angle_gamma	84.080333
loop_
_atom_site_label
_atom_site_type_symbol
_atom_site_fract_x
_atom_site_fract_y
_atom_site_fract_z
O1	O	0.927574	0.184174	-0.137136
O2	O	1.427574	0.684174	0.362864
O3	O	0.724455	0.208967	-0.137023
O4	O	1.224455	0.708967	0.362977
O5	O	0.830213	-0.018217	-0.137078
O6	O	1.330213	0.481783	0.362922
O7	O	0.821816	0.411359	-0.137080
O8	O	1.321816	0.911359	0.362920
O9	O	0.830207	-0.018220	0.136149
O10	O	1.330207	0.481780	0.636149
O11	O	0.724449	0.208965	0.136205
O12	O	1.224449	0.708965	0.636205
O13	O	0.927568	0.184172	0.136091
O14	O	1.427568	0.684172	0.636091
Zn15	Zn	0.826008	0.196568	0.179529
Zn16	Zn	1.326008	0.696568	0.679529
Zn17	Zn	0.826016	0.196571	-0.180460
Zn18	Zn	1.326016	0.696571	0.319540
O19	O	0.821810	0.411356	0.136147
O20	O	1.321810	0.911356	0.636147
C21	C	0.829403	-0.073177	-0.000467
C22	C	1.329403	0.426823	0.499533
C23	C	0.826990	-0.236936	-0.000473
C24	C	1.326990	0.263064	0.499527
C25	C	0.698435	0.208163	-0.000395
C26	C	1.198435	0.708163	0.499605
C27	C	0.620912	0.205753	-0.000351
C28	C	1.120912	0.705753	0.499649
C29	C	0.577024	0.339058	-0.000378
C30	C	1.077024	0.839058	0.499622
C31	C	0.504182	0.336793	-0.000396
C32	C	1.004182	0.836793	0.499604
C33	C	0.475232	0.201217	-0.000421
C34	C	0.975232	0.701217	0.499579
C35	C	0.519130	0.067895	-0.000385
C36	C	1.019130	0.567895	0.499615
C37	C	0.591970	0.070163	-0.000350
C38	C	1.091970	0.570163	0.499650
N39	N	0.366449	0.097586	-0.093477
N40	N	0.866449	0.597586	0.406523
N41	N	0.297254	0.095441	-0.093514
N42	N	0.797254	0.595441	0.406486
C43	C	0.255771	0.194375	-0.000521
C44	C	0.755771	0.694375	0.499479
N45	N	0.286095	0.295558	0.092489
N46	N	0.786095	0.795558	0.592489
N47	N	0.355297	0.297708	0.092518
N48	N	0.855297	0.797708	0.592518
C49	C	0.396251	0.198742	-0.000457
C50	C	0.896251	0.698742	0.499543
C51	C	0.132899	0.325234	-0.000565
C52	C	0.632899	0.825234	0.499435
C53	C	0.060056	0.322964	-0.000572
C54	C	0.560056	0.822964	0.499428
C55	C	0.075006	0.054061	-0.000578
C56	C	0.575006	0.554061	0.499422
C57	C	0.147847	0.056335	-0.000554
C58	C	0.647847	0.556335	0.499446
C59	C	0.176789	0.191925	-0.000555
C60	C	0.676789	0.691925	0.499445
C61	C	0.953588	0.184976	-0.000540
C62	C	1.453588	0.684976	0.499460
C63	C	1.031112	0.187386	-0.000594
C64	C	1.531112	0.687386	0.499406
C65	C	0.822620	0.466316	-0.000468
C66	C	1.322620	0.966316	0.499532
C67	C	0.825033	0.630075	-0.000472
C68	C	1.325033	1.130075	0.499528
N69	N	0.826008	0.196565	0.425211
N70	N	1.326008	0.696565	0.925211
N71	N	0.826021	0.196563	-0.426143
N72	N	1.326021	0.696563	0.073857
H73	H	0.600583	0.449466	-0.000382
H74	H	1.100583	0.949466	0.499618
F75	F	0.638681	-0.071725	-0.000322
F76	F	1.138681	0.428275	0.499678
H77	H	0.495555	-0.042493	-0.000427
H78	H	0.995555	0.457507	0.499573
H79	H	0.051436	-0.056328	-0.000700
H80	H	0.551436	0.443672	0.499300
H81	H	0.156464	0.435639	-0.000541
H82	H	0.656464	0.935639	0.499459
F83	F	0.013346	0.464853	-0.000592
F84	F	0.513346	0.964853	0.499408
F85	F	0.194558	-0.085548	-0.000534
F86	F	0.694558	0.414452	0.499466
H87	H	0.468442	0.445349	-0.000413
H88	H	0.968442	0.945349	0.499587
