data_functionalizedCrystal
_audit_creation_method	'MofGen! by Chris Wilmer'
_symmetry_space_group_name_H-M	'P1'
_symmetry_Int_Tables_number	1
_symmetry_cell_setting	triclinic
loop_
_symmetry_equiv_pos_as_xyz
  x,y,z
_cell_length_a	10.654550
_cell_length_b	10.654550
_cell_length_c	9.730223
_cell_angle_alpha	89.995747
_cell_angle_beta	89.999957
_cell_angle_gamma	84.484931
loop_
_atom_site_label
_atom_site_type_symbol
_atom_site_fract_x
_atom_site_fract_y
_atom_site_fract_z
O1	O	1.667839	0.176399	-0.114187
O2	O	1.302361	0.193205	-0.114212
O3	O	1.493503	0.002062	-0.114190
O4	O	1.476697	0.367541	-0.114209
O5	O	1.493490	0.002057	0.114390
O6	O	1.302348	0.193199	0.114368
O7	O	1.667827	0.176393	0.114393
Zn8	Zn	1.485085	0.184796	0.150672
Zn9	Zn	1.485102	0.184802	-0.150492
O10	O	1.476684	0.367536	0.114371
C11	C	1.255556	0.191968	0.000075
C12	C	1.116113	0.188276	0.000065
C13	C	1.036628	0.300818	0.000064
C14	C	0.905607	0.297341	0.000088
C15	C	0.933570	0.068772	0.000109
C16	C	1.064588	0.072250	0.000095
C17	C	1.492263	-0.044738	0.000099
C18	C	1.488571	-0.184181	0.000096
C19	C	1.601112	-0.263667	0.000104
C20	C	1.597636	-0.394688	0.000087
C21	C	1.369066	-0.366725	0.000061
C22	C	1.372544	-0.235706	0.000068
C23	C	1.714631	0.177630	0.000103
C24	C	1.854074	0.181322	0.000104
C25	C	1.477925	0.414336	0.000079
C26	C	1.481617	0.553779	0.000072
N27	N	1.485083	0.184790	0.356209
N28	N	1.485114	0.184798	-0.356028
C29	C	1.569750	0.100188	0.428144
C30	C	1.569763	0.100189	0.572027
C31	C	1.400438	0.269404	0.572026
C32	C	1.400420	0.269396	0.428146
H33	H	0.891602	-0.025693	0.000142
O34	O	1.652056	0.018145	0.358171
C35	C	1.730093	0.086071	0.274851
H36	H	1.733160	0.185132	0.318192
H37	H	1.690782	0.092311	0.165834
C38	C	1.860531	-0.103640	0.219324
C39	C	1.864306	0.018024	0.272563
H40	H	1.943318	-0.145616	0.217906
H41	H	1.807954	-0.149405	0.275453
H42	H	1.827766	-0.098423	0.128481
H43	H	1.897055	0.012805	0.363409
H44	H	1.916892	0.063787	0.216448
H45	H	1.078574	0.395294	0.000049
O46	O	1.652132	0.017963	0.641692
C47	C	1.726825	-0.056732	0.547339
H48	H	1.728675	-0.005226	0.444771
H49	H	1.685244	-0.150413	0.532052
C50	C	1.859815	-0.144611	0.729453
C51	C	1.862095	-0.081346	0.603480
H52	H	1.943254	-0.159800	0.764084
H53	H	1.809490	-0.094292	0.793022
H54	H	1.825158	-0.222672	0.716696
H55	H	1.896737	-0.003280	0.616241
H56	H	1.912429	-0.131653	0.539914
H57	H	1.129309	-0.019401	0.000100
H58	H	1.280893	-0.170985	0.000058
O59	O	1.256286	-0.416629	0.000226
C60	C	1.187615	-0.376142	0.118620
H61	H	1.222634	-0.284995	0.158096
H62	H	1.201489	-0.451827	0.201515
C63	C	1.003540	-0.464752	0.034157
C64	C	1.046545	-0.352797	0.082635
H65	H	0.916521	-0.450357	0.011964
H66	H	1.049806	-0.492034	-0.045605
H67	H	1.015114	-0.527812	0.103245
H68	H	1.034986	-0.289745	0.013542
H69	H	1.000274	-0.325504	0.162386
O70	O	1.318329	0.351548	0.642122
C71	C	1.336479	0.333397	0.784541
H72	H	1.435921	0.287386	0.804183
H73	H	1.264857	0.269747	0.825396
C74	C	1.196589	0.518216	0.834265
C75	C	1.318729	0.461714	0.858391
H76	H	1.185635	0.597366	0.879821
H77	H	1.184356	0.530443	0.738315
H78	H	1.136917	0.465162	0.868311
H79	H	1.378398	0.514761	0.824329
H80	H	1.330972	0.449500	0.954337
H81	H	0.840894	0.388984	0.000089
H82	H	1.695588	-0.221720	0.000124
H83	H	1.689279	-0.459401	0.000090
H84	H	1.331468	0.338290	0.369572
