data_functionalizedCrystal
_audit_creation_method	'MofGen! by Chris Wilmer'
_symmetry_space_group_name_H-M	'P1'
_symmetry_Int_Tables_number	1
_symmetry_cell_setting	triclinic
loop_
_symmetry_equiv_pos_as_xyz
  x,y,z
_cell_length_a	25.639243
_cell_length_b	25.639240
_cell_length_c	25.639233
_cell_angle_alpha	89.974071
_cell_angle_beta	89.984038
_cell_angle_gamma	90.035481
loop_
_atom_site_label
_atom_site_type_symbol
_atom_site_fract_x
_atom_site_fract_y
_atom_site_fract_z
Zn1	Zn	0.799247	-0.208176	-0.295630
Zn2	Zn	1.132580	0.125157	0.037704
Zn3	Zn	1.465913	0.458490	0.371037
Zn4	Zn	0.799179	-0.295595	-0.208183
Zn5	Zn	1.132512	0.037738	0.125150
Zn6	Zn	1.465846	0.371071	0.458484
Zn7	Zn	0.711823	-0.208180	-0.208203
Zn8	Zn	1.045156	0.125154	0.125130
Zn9	Zn	1.378490	0.458487	0.458463
Zn10	Zn	0.711777	-0.295587	-0.295582
Zn11	Zn	1.045110	0.037747	0.037751
Zn12	Zn	1.378444	0.371080	0.371084
O13	O	0.755506	-0.251885	-0.251900
O14	O	1.088840	0.081449	0.081434
O15	O	1.422173	0.414782	0.414767
O16	O	0.872403	-0.219775	-0.284041
O17	O	1.205736	0.113559	0.049292
O18	O	1.539070	0.446892	0.382626
O19	O	0.787582	-0.284004	-0.135020
O20	O	1.120915	0.049329	0.198313
O21	O	1.454249	0.382662	0.531646
O22	O	0.723467	-0.135014	-0.219829
O23	O	1.056801	0.198319	0.113505
O24	O	1.390134	0.531653	0.446838
O25	O	0.872353	-0.284001	-0.219794
O26	O	1.205687	0.049332	0.113539
O27	O	1.539020	0.382666	0.446872
O28	O	0.787697	-0.135012	-0.284061
O29	O	1.121030	0.198322	0.049273
O30	O	1.454364	0.531655	0.382606
O31	O	0.723402	-0.219781	-0.135035
O32	O	1.056735	0.113553	0.198298
O33	O	1.390069	0.446886	0.531631
O34	O	0.638652	-0.219772	-0.219783
O35	O	0.971985	0.113561	0.113550
O36	O	1.305318	0.446894	0.446884
O37	O	0.723389	-0.283987	-0.368754
O38	O	1.056722	0.049347	-0.035421
O39	O	1.390056	0.382680	0.297913
O40	O	0.638618	-0.283990	-0.283980
O41	O	0.971951	0.049343	0.049353
O42	O	1.305285	0.382677	0.382687
O43	O	0.787653	-0.219767	-0.368789
O44	O	1.120986	0.113567	-0.035455
O45	O	1.454319	0.446900	0.297878
O46	O	0.787538	-0.368759	-0.219749
O47	O	1.120871	-0.035426	0.113585
O48	O	1.454204	0.297907	0.446918
O49	O	0.723324	-0.368753	-0.283960
O50	O	1.056657	-0.035420	0.049373
O51	O	1.389990	0.297914	0.382706
C52	C	0.619664	-0.251881	-0.251879
C53	C	0.952997	0.081452	0.081455
C54	C	1.286331	0.414786	0.414788
C55	C	0.561550	-0.251892	-0.251882
C56	C	0.894883	0.081441	0.081451
C57	C	1.228217	0.414775	0.414784
C58	C	0.201207	-0.218495	-0.285409
C59	C	0.534540	0.114839	0.047925
C60	C	0.867874	0.448172	0.381258
C61	C	0.146603	-0.218494	-0.285412
C62	C	0.479936	0.114839	0.047922
C63	C	0.813269	0.448173	0.381255
O64	O	0.118383	-0.190088	-0.313891
O65	O	0.451716	0.143245	0.019442
O66	O	0.785050	0.476578	0.352776
N67	N	0.119267	-0.251883	-0.251914
N68	N	0.452601	0.081450	0.081419
N69	N	0.785934	0.414784	0.414753
C70	C	0.146539	-0.285271	-0.218407
C71	C	0.479872	0.048062	0.114926
C72	C	0.813206	0.381396	0.448260
O73	O	0.118274	-0.313670	-0.189914
O74	O	0.451608	0.019663	0.143419
O75	O	0.784941	0.352996	0.476752
C76	C	0.201142	-0.285268	-0.218401
C77	C	0.534476	0.048065	0.114932
C78	C	0.867809	0.381398	0.448265
C79	C	0.228475	-0.251881	-0.251905
C80	C	0.561808	0.081452	0.081428
C81	C	0.895142	0.414786	0.414761
C82	C	0.228540	-0.185109	-0.318909
C83	C	0.561873	0.148224	0.014424
C84	C	0.895206	0.481557	0.347757
C85	C	0.283140	-0.185111	-0.318907
C86	C	0.616473	0.148223	0.014427
C87	C	0.949807	0.481556	0.347760
C88	C	0.310408	-0.218497	-0.285403
C89	C	0.643741	0.114836	0.047930
C90	C	0.977075	0.448170	0.381264
C91	C	0.283076	-0.251882	-0.251903
C92	C	0.616409	0.081451	0.081431
C93	C	0.949742	0.414785	0.414764
C94	C	0.228413	-0.318653	-0.184892
C95	C	0.561747	0.014680	0.148441
C96	C	0.895080	0.348014	0.481775
C97	C	0.283020	-0.318647	-0.184889
C98	C	0.616354	0.014686	0.148444
C99	C	0.949687	0.348019	0.481777
C100	C	0.310353	-0.285260	-0.218393
C101	C	0.643686	0.048073	0.114940
C102	C	0.977020	0.381407	0.448274
C103	C	0.364944	-0.285270	-0.218396
C104	C	0.698277	0.048064	0.114937
C105	C	1.031611	0.381397	0.448270
N106	N	0.392279	-0.251881	-0.251894
N107	N	0.725613	0.081453	0.081439
N108	N	1.058946	0.414786	0.414772
C109	C	0.365011	-0.218494	-0.285398
C110	C	0.698345	0.114839	0.047936
C111	C	1.031678	0.448172	0.381269
C112	C	0.031869	-0.285273	-0.218420
C113	C	0.365202	0.048060	0.114913
C114	C	0.698535	0.381394	0.448246
C115	C	-0.022734	-0.285279	-0.218428
C116	C	0.310600	0.048055	0.114905
C117	C	0.643933	0.381388	0.448239
C118	C	-0.022667	-0.218501	-0.285432
C119	C	0.310667	0.114832	0.047901
C120	C	0.644000	0.448166	0.381234
C121	C	0.031937	-0.218498	-0.285427
C122	C	0.365270	0.114835	0.047906
C123	C	0.698603	0.448168	0.381240
C124	C	0.059204	-0.251884	-0.251918
C125	C	0.392537	0.081449	0.081415
C126	C	0.725871	0.414783	0.414748
C127	C	0.479676	-0.218500	-0.285390
C128	C	0.813010	0.114833	0.047943
C129	C	1.146343	0.448167	0.381277
C130	C	0.534282	-0.218506	-0.285386
C131	C	0.867615	0.114828	0.047948
C132	C	1.200949	0.448161	0.381281
C133	C	0.534210	-0.285281	-0.218380
C134	C	0.867543	0.048052	0.114954
C135	C	1.200876	0.381386	0.448287
C136	C	0.479609	-0.285278	-0.218385
C137	C	0.812943	0.048056	0.114948
C138	C	1.146276	0.381389	0.448281
C139	C	0.452344	-0.251883	-0.251892
C140	C	0.785677	0.081451	0.081441
C141	C	1.119011	0.414784	0.414774
O142	O	0.393198	-0.313659	-0.189930
O143	O	0.726532	0.019674	0.143403
O144	O	1.059865	0.353007	0.476737
O145	O	0.393283	-0.190095	-0.313881
O146	O	0.726616	0.143238	0.019453
O147	O	1.059950	0.476572	0.352786
C148	C	0.755433	-0.387727	-0.251859
C149	C	1.088766	-0.054394	0.081475
C150	C	1.422099	0.278940	0.414808
C151	C	0.755449	-0.445841	-0.251859
C152	C	1.088782	-0.112508	0.081475
C153	C	1.422115	0.220826	0.414808
C154	C	0.788967	-0.806164	-0.285405
C155	C	1.122301	-0.472831	0.047928
C156	C	1.455634	-0.139498	0.381261
C157	C	0.788983	-0.860769	-0.285416
C158	C	1.122316	-0.527435	0.047917
C159	C	1.455650	-0.194102	0.381251
O160	O	0.817394	-0.888972	-0.313897
O161	O	1.150727	-0.555638	0.019437
O162	O	1.484061	-0.222305	0.352770
N163	N	0.755579	-0.888124	-0.251950
N164	N	1.088912	-0.554790	0.081383
N165	N	1.422246	-0.221457	0.414717
C166	C	0.722154	-0.860871	-0.218475
C167	C	1.055487	-0.527538	0.114858
C168	C	1.388820	-0.194205	0.448192
O169	O	0.693742	-0.889153	-0.190011
O170	O	1.027075	-0.555819	0.143322
O171	O	1.360409	-0.222486	0.476656
C172	C	0.722136	-0.806268	-0.218467
C173	C	1.055469	-0.472935	0.114866
C174	C	1.388803	-0.139601	0.448199
C175	C	0.755546	-0.778916	-0.251932
C176	C	1.088879	-0.445583	0.081401
C177	C	1.422213	-0.112249	0.414735
C178	C	0.822374	-0.778812	-0.318867
C179	C	1.155708	-0.445479	0.014466
C180	C	1.489041	-0.112146	0.347799
C181	C	0.822359	-0.724212	-0.318856
C182	C	1.155693	-0.390879	0.014477
C183	C	1.489026	-0.057545	0.347811
C184	C	0.788938	-0.696963	-0.285383
C185	C	1.122271	-0.363630	0.047951
C186	C	1.455604	-0.030297	0.381284
C187	C	0.755531	-0.724315	-0.251920
C188	C	1.088864	-0.390982	0.081413
C189	C	1.422198	-0.057649	0.414746
C190	C	0.688708	-0.779017	-0.184996
C191	C	1.022042	-0.445683	0.148338
C192	C	1.355375	-0.112350	0.481671
C193	C	0.688693	-0.724410	-0.184991
C194	C	1.022027	-0.391076	0.148342
C195	C	1.355360	-0.057743	0.481676
C196	C	0.722103	-0.697058	-0.218455
C197	C	1.055437	-0.363724	0.114878
C198	C	1.388770	-0.030391	0.448211
C199	C	0.722095	-0.642466	-0.218435
C200	C	1.055428	-0.309133	0.114898
C201	C	1.388761	0.024200	0.448231
N202	N	0.755499	-0.615112	-0.251901
N203	N	1.088832	-0.281778	0.081432
N204	N	1.422165	0.051555	0.414765
C205	C	0.788920	-0.642360	-0.285375
C206	C	1.122253	-0.309027	0.047958
C207	C	1.455587	0.024307	0.381292
C208	C	0.722193	-0.975542	-0.218494
C209	C	1.055526	-0.642209	0.114839
C210	C	1.388859	-0.308875	0.448172
C211	C	0.722213	-1.030144	-0.218499
C212	C	1.055546	-0.696811	0.114835
C213	C	1.388879	-0.363478	0.448168
C214	C	0.789041	-1.030038	-0.285441
C215	C	1.122375	-0.696705	0.047893
C216	C	1.455708	-0.363371	0.381226
C217	C	0.789024	-0.975435	-0.285433
C218	C	1.122357	-0.642101	0.047900
C219	C	1.455690	-0.308768	0.381234
C220	C	0.755597	-0.948187	-0.251960
C221	C	1.088930	-0.614854	0.081373
C222	C	1.422263	-0.281520	0.414706
C223	C	0.788887	-0.527695	-0.285348
C224	C	1.122220	-0.194362	0.047985
C225	C	1.455553	0.138972	0.381319
C226	C	0.788870	-0.473090	-0.285332
C227	C	1.122204	-0.139756	0.048001
C228	C	1.455537	0.193577	0.381335
C229	C	0.722040	-0.473201	-0.218392
C230	C	1.055373	-0.139867	0.114941
C231	C	1.388707	0.193466	0.448274
C232	C	0.722058	-0.527801	-0.218406
C233	C	1.055391	-0.194468	0.114927
C234	C	1.388725	0.138865	0.448260
C235	C	0.755483	-0.555047	-0.251888
C236	C	1.088816	-0.221714	0.081445
C237	C	1.422150	0.111620	0.414778
O238	O	0.693697	-0.614229	-0.189971
O239	O	1.027030	-0.280895	0.143362
O240	O	1.360363	0.052438	0.476696
O241	O	0.817322	-0.614072	-0.313839
O242	O	1.150655	-0.280739	0.019494
O243	O	1.483989	0.052595	0.352828
C244	C	0.891879	-0.251888	-0.251921
C245	C	1.225213	0.081445	0.081413
C246	C	1.558546	0.414778	0.414746
C247	C	0.949993	-0.251890	-0.251930
C248	C	1.283327	0.081443	0.081404
C249	C	1.616660	0.414777	0.414737
C250	C	0.755523	-0.251875	-0.388273
C251	C	1.088857	0.081458	-0.054939
C252	C	1.422190	0.414791	0.278394
C253	C	0.755530	-0.251871	-0.446387
C254	C	1.088864	0.081462	-0.113053
C255	C	1.422197	0.414795	0.220280
C256	C	0.755595	-0.115511	-0.251952
C257	C	1.088928	0.217822	0.081381
C258	C	1.422262	0.551155	0.414715
C259	C	0.755633	-0.057397	-0.251975
C260	C	1.088966	0.275936	0.081359
C261	C	1.422299	0.609269	0.414692
C262	C	0.789035	-0.218333	-0.806774
C263	C	1.122368	0.115001	-0.473440
C264	C	1.455702	0.448334	-0.140107
C265	C	0.789041	-0.218318	-0.861378
C266	C	1.122375	0.115015	-0.528045
C267	C	1.455708	0.448348	-0.194711
O268	O	0.817486	-0.189864	-0.889635
O269	O	1.150819	0.143469	-0.556302
O270	O	1.484152	0.476803	-0.222968
N271	N	0.755588	-0.251749	-0.888669
N272	N	1.088921	0.081584	-0.555336
N273	N	1.422255	0.414918	-0.222003
C274	C	0.722122	-0.285192	-0.861354
C275	C	1.055456	0.048141	-0.528020
C276	C	1.388789	0.381474	-0.194687
O277	O	0.693668	-0.313626	-0.889581
O278	O	1.027001	0.019707	-0.556248
O279	O	1.360335	0.353041	-0.222914
C280	C	0.722114	-0.285204	-0.806750
C281	C	1.055447	0.048130	-0.473417
C282	C	1.388780	0.381463	-0.140084
C283	C	0.755573	-0.251775	-0.779462
C284	C	1.088906	0.081559	-0.446128
C285	C	1.422240	0.414892	-0.112795
C286	C	0.822491	-0.184906	-0.779485
C287	C	1.155824	0.148427	-0.446152
C288	C	1.489158	0.481761	-0.112818
C289	C	0.822485	-0.184921	-0.724884
C290	C	1.155818	0.148412	-0.391551
C291	C	1.489152	0.481745	-0.058218
C292	C	0.789023	-0.218363	-0.697572
C293	C	1.122356	0.114970	-0.364239
C294	C	1.455690	0.448303	-0.030906
C295	C	0.755567	-0.251790	-0.724861
C296	C	1.088900	0.081543	-0.391528
C297	C	1.422234	0.414877	-0.058194
C298	C	0.688646	-0.318644	-0.779436
C299	C	1.021979	0.014689	-0.446102
C300	C	1.355313	0.348022	-0.112769
C301	C	0.688640	-0.318653	-0.724828
C302	C	1.021973	0.014681	-0.391495
C303	C	1.355306	0.348014	-0.058162
C304	C	0.722099	-0.285223	-0.697540
C305	C	1.055432	0.048110	-0.364207
C306	C	1.388766	0.381443	-0.030873
C307	C	0.722099	-0.285247	-0.642949
C308	C	1.055433	0.048086	-0.309615
C309	C	1.388766	0.381419	0.023718
N310	N	0.755552	-0.251817	-0.615657
N311	N	1.088886	0.081517	-0.282324
N312	N	1.422219	0.414850	0.051009
C313	C	0.789014	-0.218375	-0.642969
C314	C	1.122348	0.114959	-0.309636
C315	C	1.455681	0.448292	0.023698
C316	C	0.722143	-0.285165	-0.976024
C317	C	1.055476	0.048168	-0.642691
C318	C	1.388809	0.381502	-0.309358
C319	C	0.722154	-0.285157	-1.030627
C320	C	1.055487	0.048177	-0.697293
C321	C	1.388820	0.381510	-0.363960
C322	C	0.789072	-0.218282	-1.030647
C323	C	1.122405	0.115051	-0.697314
C324	C	1.455739	0.448385	-0.363981
C325	C	0.789063	-0.218293	-0.976044
C326	C	1.122397	0.115040	-0.642711
C327	C	1.455730	0.448373	-0.309377
C328	C	0.755596	-0.251735	-0.948733
C329	C	1.088929	0.081599	-0.615400
C330	C	1.422263	0.414932	-0.282066
C331	C	0.789000	-0.218410	-0.528304
C332	C	1.122333	0.114924	-0.194971
C333	C	1.455666	0.448257	0.138363
C334	C	0.788992	-0.218429	-0.473699
C335	C	1.122326	0.114904	-0.140365
C336	C	1.455659	0.448237	0.192968
C337	C	0.722072	-0.285302	-0.473683
C338	C	1.055406	0.048031	-0.140349
C339	C	1.388739	0.381364	0.192984
C340	C	0.722081	-0.285285	-0.528283
C341	C	1.055415	0.048049	-0.194950
C342	C	1.388748	0.381382	0.138383
C343	C	0.755547	-0.251834	-0.555593
C344	C	1.088880	0.081499	-0.222259
C345	C	1.422214	0.414833	0.111074
O346	O	0.693668	-0.313686	-0.614657
O347	O	1.027001	0.019648	-0.281324
O348	O	1.360334	0.352981	0.052010
O349	O	0.817459	-0.189941	-0.614735
O350	O	1.150792	0.143392	-0.281402
O351	O	1.484126	0.476726	0.051932
C352	C	0.755520	-0.251856	-0.116057
C353	C	1.088853	0.081477	0.217276
C354	C	1.422186	0.414811	0.550610
C355	C	0.755614	-0.251713	-0.057943
C356	C	1.088947	0.081621	0.275390
C357	C	1.422281	0.414954	0.608723
H358	H	-0.044878	-0.191315	-0.312711
H359	H	0.288455	0.142019	0.020622
H360	H	0.621789	0.475352	0.353955
N361	N	0.856668	-0.150737	-0.807378
N362	N	1.190002	0.182597	-0.474045
N363	N	1.523335	0.515930	-0.140711
N364	N	0.853232	-0.102493	-0.801286
N365	N	1.186566	0.230840	-0.467952
N366	N	1.519899	0.564173	-0.134619
H367	H	0.877374	-0.078360	-0.820982
H368	H	1.210708	0.254973	-0.487649
H369	H	1.544041	0.588306	-0.154315
H370	H	0.694857	-0.550072	-0.191153
H371	H	1.028190	-0.216739	0.142181
H372	H	1.361524	0.116594	0.475514
H373	H	0.816308	-0.191071	-0.953829
H374	H	1.149641	0.142262	-0.620496
H375	H	1.482974	0.475595	-0.287162
N376	N	0.654556	-0.696578	-0.150790
N377	N	0.987889	-0.363245	0.182544
N378	N	1.321222	-0.029911	0.515877
N379	N	0.672964	-0.666116	-0.117481
N380	N	1.006297	-0.332783	0.215852
N381	N	1.339630	0.000550	0.549186
H382	H	0.648856	-0.646461	-0.093325
H383	H	0.982189	-0.313127	0.240008
H384	H	1.315522	0.020206	0.573342
N385	N	0.200495	-0.352745	-0.150662
N386	N	0.533828	-0.019412	0.182672
N387	N	0.867162	0.313922	0.516005
N388	N	0.151742	-0.352744	-0.150657
N389	N	0.485076	-0.019411	0.182676
N390	N	0.818409	0.313922	0.516009
H391	H	0.132025	-0.376821	-0.126478
H392	H	0.465358	-0.043488	0.206855
H393	H	0.798691	0.289845	0.540189
N394	N	0.856521	-0.806648	-0.353053
N395	N	1.189854	-0.473315	-0.019719
N396	N	1.523187	-0.139982	0.313614
N397	N	0.856544	-0.855401	-0.353059
N398	N	1.189877	-0.522068	-0.019726
N399	N	1.523211	-0.188734	0.313607
H400	H	0.880665	-0.875058	-0.377201
H401	H	1.213998	-0.541725	-0.043868
H402	H	1.547332	-0.208391	0.289465
N403	N	0.687892	-0.319418	-0.556161
N404	N	1.021225	0.013916	-0.222828
N405	N	1.354559	0.347249	0.110505
N406	N	0.639651	-0.315931	-0.550049
N407	N	0.972984	0.017402	-0.216716
N408	N	1.306317	0.350735	0.116618
H409	H	0.615497	-0.340030	-0.569738
H410	H	0.948830	-0.006696	-0.236404
H411	H	1.282163	0.326637	0.096929
N412	N	0.823184	-0.184235	-0.556186
N413	N	1.156517	0.149098	-0.222853
N414	N	1.489850	0.482431	0.110480
N415	N	0.853049	-0.154394	-0.531806
N416	N	1.186383	0.178939	-0.198473
N417	N	1.519716	0.512273	0.134860
H418	H	0.877193	-0.130259	-0.551497
H419	H	1.210527	0.203074	-0.218164
H420	H	1.543860	0.536407	0.115169
N421	N	0.654462	-0.352797	-0.807288
N422	N	0.987795	-0.019463	-0.473955
N423	N	1.321128	0.313870	-0.140621
N424	N	0.606219	-0.349329	-0.801172
N425	N	0.939553	-0.015996	-0.467839
N426	N	1.272886	0.317338	-0.134506
H427	H	0.582074	-0.373453	-0.820840
H428	H	0.915408	-0.040120	-0.487507
H429	H	1.248741	0.293213	-0.154173
N430	N	0.562192	-0.184399	-0.319616
N431	N	0.895526	0.148935	0.013717
N432	N	1.228859	0.482268	0.347050
N433	N	0.537835	-0.154592	-0.349526
N434	N	0.871169	0.178741	-0.016193
N435	N	1.204502	0.512074	0.317140
H436	H	0.557545	-0.130504	-0.373701
H437	H	0.890878	0.202829	-0.040368
H438	H	1.224212	0.536162	0.292965
H439	H	0.556421	-0.312465	-0.191103
H440	H	0.889755	0.020869	0.142230
H441	H	1.223088	0.354202	0.475563
H442	H	0.694830	-0.312531	-0.451436
H443	H	1.028163	0.020802	-0.118102
H444	H	1.361497	0.354135	0.215231
N445	N	0.451839	-0.184390	-0.319623
N446	N	0.785172	0.148944	0.013710
N447	N	1.118506	0.482277	0.347044
N448	N	0.476258	-0.154590	-0.349533
N449	N	0.809592	0.178743	-0.016200
N450	N	1.142925	0.512076	0.317133
H451	H	0.456599	-0.130503	-0.373715
H452	H	0.789932	0.202830	-0.040382
H453	H	1.123265	0.536163	0.292952
H454	H	0.694830	-0.451006	-0.191137
H455	H	1.028163	-0.117673	0.142196
H456	H	1.361497	0.215660	0.475530
N457	N	0.823181	-1.057885	-0.319629
N458	N	1.156514	-0.724552	0.013705
N459	N	1.489847	-0.391219	0.347038
N460	N	0.823187	-1.106638	-0.319627
N461	N	1.156521	-0.773305	0.013706
N462	N	1.489854	-0.439971	0.347039
H463	H	0.847297	-1.126307	-0.343770
H464	H	1.180631	-0.792974	-0.010437
H465	H	1.513964	-0.459641	0.322897
N466	N	0.654577	-0.806955	-0.150822
N467	N	0.987910	-0.473622	0.182511
N468	N	1.321243	-0.140288	0.515844
N469	N	0.654585	-0.855707	-0.150830
N470	N	0.987918	-0.522374	0.182503
N471	N	1.321251	-0.189041	0.515836
H472	H	0.630476	-0.875439	-0.126695
H473	H	0.963809	-0.542106	0.206639
H474	H	1.297143	-0.208773	0.539972
H475	H	0.816241	-0.191207	-0.451483
H476	H	1.149574	0.142126	-0.118149
H477	H	1.482907	0.475460	0.215184
H478	H	0.305389	-0.157922	-0.346188
H479	H	0.638723	0.175411	-0.012855
H480	H	0.972056	0.508744	0.320479
H481	H	0.206344	-0.157919	-0.346192
H482	H	0.539677	0.175414	-0.012858
H483	H	0.873010	0.508747	0.320475
N484	N	0.823251	-0.184124	-1.058560
N485	N	1.156584	0.149209	-0.725226
N486	N	1.489917	0.482543	-0.391893
N487	N	0.823248	-0.184121	-1.107312
N488	N	1.156581	0.149213	-0.773979
N489	N	1.489915	0.482546	-0.440645
H490	H	0.847385	-0.159998	-1.127027
H491	H	1.180718	0.173335	-0.793694
H492	H	1.514052	0.506668	-0.460361
H493	H	0.054187	-0.191310	-0.312708
H494	H	0.387521	0.142023	0.020626
H495	H	0.720854	0.475356	0.353959
H496	H	0.457354	-0.312470	-0.191110
H497	H	0.790687	0.020863	0.142223
H498	H	1.124021	0.354196	0.475557
N499	N	0.310864	-0.352751	-0.150653
N500	N	0.644197	-0.019417	0.182681
N501	N	0.977531	0.313916	0.516014
N502	N	0.286449	-0.382554	-0.120743
N503	N	0.619782	-0.049220	0.212591
N504	N	0.953116	0.284113	0.545924
H505	H	0.306112	-0.406639	-0.096563
H506	H	0.639445	-0.073306	0.236771
H507	H	0.972779	0.260027	0.570104
N508	N	-0.050642	-0.319395	-0.184210
N509	N	0.282692	0.013939	0.149124
N510	N	0.616025	0.347272	0.482457
N511	N	-0.026282	-0.349202	-0.154302
N512	N	0.307051	-0.015868	0.179031
N513	N	0.640385	0.317465	0.512365
H514	H	-0.045990	-0.373296	-0.130132
H515	H	0.287343	-0.039963	0.203201
H516	H	0.620677	0.293370	0.536534
H517	H	0.849730	-0.157699	-0.702671
H518	H	1.183063	0.175634	-0.369338
H519	H	1.516397	0.508968	-0.036004
H520	H	0.054066	-0.312464	-0.191135
H521	H	0.387399	0.020869	0.142198
H522	H	0.720733	0.354202	0.475532
N523	N	0.687979	-0.319300	-1.058506
N524	N	1.021312	0.014033	-0.725172
N525	N	1.354646	0.347366	-0.391839
N526	N	0.687983	-0.319286	-1.107258
N527	N	1.021316	0.014047	-0.773925
N528	N	1.354649	0.347381	-0.440592
H529	H	0.663843	-0.343399	-1.126947
H530	H	0.997177	-0.010065	-0.793614
H531	H	1.330510	0.323268	-0.460281
N532	N	0.687952	-0.319325	-0.948130
N533	N	1.021285	0.014008	-0.614796
N534	N	1.354618	0.347342	-0.281463
N535	N	0.639710	-0.315854	-0.954227
N536	N	0.973044	0.017480	-0.620894
N537	N	1.306377	0.350813	-0.287561
H538	H	0.615561	-0.339978	-0.934529
H539	H	0.948895	-0.006645	-0.601196
H540	H	1.282228	0.326689	-0.267862
H541	H	0.695013	-1.052410	-0.191243
H542	H	1.028346	-0.719076	0.142090
H543	H	1.361679	-0.385743	0.475424
N544	N	0.823005	-0.445159	-0.319517
N545	N	1.156339	-0.111826	0.013816
N546	N	1.489672	0.221508	0.347149
N547	N	0.852843	-0.469499	-0.349401
N548	N	1.186176	-0.136166	-0.016068
N549	N	1.519509	0.197168	0.317265
H550	H	0.876950	-0.449775	-0.373545
H551	H	1.210284	-0.116442	-0.040211
H552	H	1.543617	0.216892	0.293122
N553	N	0.823031	-0.555513	-0.319553
N554	N	1.156364	-0.222179	0.013781
N555	N	1.489698	0.111154	0.347114
N556	N	0.852854	-0.531076	-0.349424
N557	N	1.186187	-0.197743	-0.016091
N558	N	1.519521	0.135591	0.317242
H559	H	0.876971	-0.550721	-0.373580
H560	H	1.210304	-0.217388	-0.040247
H561	H	1.543637	0.115945	0.293087
N562	N	0.856490	-0.696285	-0.353044
N563	N	1.189823	-0.362951	-0.019710
N564	N	1.523156	-0.029618	0.313623
N565	N	0.886324	-0.720629	-0.382926
N566	N	1.219658	-0.387296	-0.049593
N567	N	1.552991	-0.053963	0.283740
H568	H	0.910430	-0.700909	-0.407074
H569	H	1.243763	-0.367576	-0.073741
H570	H	1.577097	-0.034243	0.259592
H571	H	0.816228	-0.953168	-0.312683
H572	H	1.149562	-0.619834	0.020651
H573	H	1.482895	-0.286501	0.353984
N574	N	0.688044	-0.947720	-0.184295
N575	N	1.021377	-0.614386	0.149038
N576	N	1.354710	-0.281053	0.482372
N577	N	0.658223	-0.972155	-0.154420
N578	N	0.991557	-0.638821	0.178913
N579	N	1.324890	-0.305488	0.512247
H580	H	0.634105	-0.952508	-0.130267
H581	H	0.967438	-0.619175	0.203066
H582	H	1.300771	-0.285842	0.536399
H583	H	0.661380	-0.345880	-0.702595
H584	H	0.994714	-0.012546	-0.369261
H585	H	1.328047	0.320787	-0.035928
