data_functionalizedCrystal
_audit_creation_method	'MofGen! by Chris Wilmer'
_symmetry_space_group_name_H-M	'P1'
_symmetry_Int_Tables_number	1
_symmetry_cell_setting	triclinic
loop_
_symmetry_equiv_pos_as_xyz
  x,y,z
_cell_length_a	34.408637
_cell_length_b	34.407814
_cell_length_c	34.404193
_cell_angle_alpha	60.004510
_cell_angle_beta	60.009006
_cell_angle_gamma	59.994604
loop_
_atom_site_label
_atom_site_type_symbol
_atom_site_fract_x
_atom_site_fract_y
_atom_site_fract_z
O1	O	0.053973	-0.567860	0.474801
O2	O	0.020377	-0.442124	0.382567
O3	O	0.100004	-0.521670	0.382483
O4	O	-0.025653	-0.488314	0.474886
O5	O	0.126426	-0.495253	0.408816
O6	O	0.046800	-0.415707	0.408900
O7	O	0.080396	-0.541443	0.501134
Zn8	Zn	0.067793	-0.474381	0.459198
Zn9	Zn	0.032980	-0.509186	0.424503
O10	O	0.000769	-0.461897	0.501219
N11	N	0.091552	-0.450631	0.482879
N12	N	0.009225	-0.532940	0.400823
C13	C	0.142848	-0.268847	0.534081
C14	C	0.142979	-0.399386	0.664559
C15	C	0.142862	-0.399365	0.534081
C16	C	0.273409	-0.399338	0.533986
C17	C	0.157225	-0.311914	0.548422
C18	C	0.157300	-0.385019	0.621491
C19	C	0.230339	-0.384991	0.548370
C20	C	0.157235	-0.385007	0.548422
C21	C	0.124548	-0.214028	0.515827
C22	C	0.124571	-0.417639	0.515827
C23	C	0.175526	-0.366733	0.566676
C24	C	0.353121	-0.385580	0.491988
C25	C	0.402952	-0.402180	0.475348
C26	C	0.402981	-0.482812	0.506096
C27	C	0.353151	-0.466211	0.522737
C28	C	0.136544	-0.189099	0.466839
C29	C	0.119905	-0.139265	0.450247
C30	C	0.079280	-0.139291	0.531632
C31	C	0.095918	-0.189125	0.548224
C32	C	0.075577	-0.405615	0.527900
C33	C	0.058953	-0.422228	0.511301
C34	C	0.140315	-0.462889	0.470566
C35	C	0.156941	-0.446276	0.487159
C36	C	0.075772	-0.405653	0.744326
C37	C	0.059206	-0.422280	0.794159
C38	C	0.140607	-0.462951	0.794094
C39	C	0.157172	-0.446325	0.744260
C40	C	0.124753	-0.417674	0.719377
C41	C	0.328223	-0.417595	0.515681
C42	C	-0.172390	-0.583988	0.349141
C43	C	-0.041751	-0.584138	0.218783
C44	C	-0.041941	-0.584130	0.349402
C45	C	-0.041957	-0.714607	0.349338
C46	C	-0.129326	-0.598388	0.334853
C47	C	-0.056165	-0.598473	0.261852
C48	C	-0.056282	-0.671535	0.334962
C49	C	-0.056272	-0.598469	0.334999
C50	C	-0.227205	-0.565659	0.367327
C51	C	-0.023703	-0.565882	0.367734
C52	C	-0.074511	-0.616717	0.316667
C53	C	-0.055754	-0.794298	0.391257
C54	C	-0.039181	-0.844132	0.407888
C55	C	0.041447	-0.844215	0.377269
C56	C	0.024873	-0.794381	0.360637
C57	C	-0.252183	-0.577666	0.416302
C58	C	-0.302014	-0.561001	0.432833
C59	C	-0.301886	-0.520329	0.351410
C60	C	-0.252055	-0.536994	0.334880
C61	C	-0.035709	-0.516892	0.355682
C62	C	-0.019129	-0.500308	0.372353
C63	C	0.021465	-0.581700	0.413115
C64	C	0.004884	-0.598286	0.396450
C65	C	-0.035389	-0.516907	0.139026
C66	C	-0.018707	-0.500324	0.089193
C67	C	0.021949	-0.581721	0.089240
C68	C	0.005268	-0.598303	0.139074
C69	C	-0.023402	-0.565894	0.163965
C70	C	-0.023728	-0.769425	0.367633
N71	N	0.427173	-0.450553	0.482630
O72	O	0.589997	-0.458460	0.365361
O73	O	0.590185	-0.550997	0.490963
O74	O	0.590104	-0.550786	0.411309
O75	O	0.590077	-0.458671	0.445016
O76	O	0.510940	-0.524462	0.437777
O77	O	0.511020	-0.524674	0.517432
O78	O	0.510832	-0.432136	0.391830
Zn79	Zn	0.498357	-0.474225	0.458833
Zn80	Zn	0.602660	-0.508908	0.423960
O81	O	0.510913	-0.432348	0.471484
N82	N	0.673844	-0.532580	0.400158
N83	N	0.091520	-0.115070	0.482873
O84	O	-0.025663	0.047841	0.474857
O85	O	0.099940	0.047877	0.382299
O86	O	0.020247	0.047844	0.382560
O87	O	0.054030	0.047874	0.474596
O88	O	0.046674	-0.031326	0.408942
O89	O	0.126367	-0.031293	0.408680
O90	O	0.000764	-0.031329	0.501238
Zn91	Zn	0.067761	-0.043881	0.459148
Zn92	Zn	0.032943	0.060429	0.424389
O93	O	0.080457	-0.031296	0.500977
N94	N	0.009178	0.131618	0.400665
N95	N	0.091852	-0.450680	0.818332
O96	O	0.083862	-0.567845	0.981235
O97	O	-0.008657	-0.442198	0.981276
O98	O	-0.008441	-0.521875	0.981252
O99	O	0.083646	-0.488168	0.981258
O100	O	0.017919	-0.495468	0.902085
O101	O	0.017703	-0.415791	0.902109
O102	O	0.110222	-0.541438	0.902067
Zn103	Zn	0.068148	-0.474422	0.889518
Zn104	Zn	0.033417	-0.509214	0.993825
O105	O	0.110006	-0.461761	0.902091
N106	N	0.009712	-0.532961	1.065011
C107	C	0.030439	-0.413071	0.383027
C108	C	0.129046	-0.511580	0.382922
C109	C	0.070334	-0.570496	0.500675
C110	C	-0.028274	-0.471987	0.500780
C111	C	0.550625	-0.550579	0.520021
C112	C	0.550527	-0.550317	0.421379
C113	C	0.550389	-0.432554	0.362773
C114	C	0.550491	-0.432816	0.461414
C115	C	0.128944	0.008394	0.382712
C116	C	0.030287	0.008256	0.383068
C117	C	-0.028273	0.008252	0.500793
C118	C	0.070417	0.008292	0.500470
C119	C	-0.008218	-0.413165	0.941698
C120	C	-0.007945	-0.511830	0.941653
C121	C	0.109783	-0.570471	0.941646
C122	C	0.109516	-0.471800	0.941673
H123	H	0.049370	-0.382321	0.724071
O124	O	0.056040	-0.770275	0.337640
C125	C	0.089902	-0.782477	0.296577
H126	H	0.092234	-0.818649	0.301067
H127	H	0.126160	-0.784224	0.291197
H128	H	0.078695	-0.754428	0.264262
O129	O	0.144046	-0.463147	0.941583
C130	C	0.154950	-0.424587	0.900594
H131	H	0.144482	-0.420836	0.871939
H132	H	0.194775	-0.431288	0.886821
H133	H	0.134411	-0.390458	0.909875
H134	H	0.023260	-0.376951	0.354059
O135	O	-0.042463	-0.520338	0.941548
C136	C	-0.055249	-0.487700	0.900533
H137	H	-0.045769	-0.454713	0.886894
H138	H	-0.095176	-0.477047	0.909732
H139	H	-0.035142	-0.504946	0.871807
O140	O	-0.071270	0.008160	0.535500
C141	C	-0.064968	-0.032834	0.575611
H142	H	-0.030112	-0.061489	0.564133
H143	H	-0.095840	-0.046606	0.592666
H144	H	-0.063855	-0.023555	0.602467
H145	H	0.550540	-0.579254	0.414165
O146	O	-0.326300	-0.572583	0.480405
C147	C	-0.355129	-0.530697	0.492422
H148	H	-0.340074	-0.500786	0.464350
H149	H	-0.355746	-0.537263	0.528622
H150	H	-0.392880	-0.520172	0.494013
O151	O	0.144379	-0.613552	0.941650
C152	C	0.127251	-0.643170	0.941627
H153	H	0.086705	-0.630282	0.956624
H154	H	0.141858	-0.681306	0.964598
H155	H	0.139338	-0.641874	0.903642
H156	H	0.165136	-0.518689	0.353905
O157	O	-0.042859	-0.370096	0.941627
C158	C	-0.055660	-0.349029	0.900635
H159	H	-0.025093	-0.364771	0.871970
H160	H	-0.063533	-0.308971	0.886882
H161	H	-0.088705	-0.356308	0.909906
H162	H	0.077653	0.008301	0.529384
O163	O	-0.227719	-0.525360	0.287320
C164	C	-0.178408	-0.546224	0.279684
H165	H	-0.171654	-0.553744	0.312420
H166	H	-0.159426	-0.520809	0.247410
H167	H	-0.164271	-0.580989	0.273048
H168	H	0.019320	-0.412483	0.814467
H169	H	0.077514	-0.606615	0.529644
H170	H	-0.064365	-0.464880	0.529794
H171	H	0.550329	-0.403500	0.326702
H172	H	0.167007	-0.486271	0.814352
H173	H	0.550674	-0.579628	0.556096
H174	H	0.049217	-0.382297	0.551240
O175	O	0.204771	-0.458029	0.720100
C176	C	0.229829	-0.486887	0.752750
H177	H	0.206086	-0.480540	0.788282
H178	H	0.263077	-0.477536	0.738331
H179	H	0.240587	-0.525921	0.758039
H180	H	0.023050	0.008252	0.354152
H181	H	0.019058	-0.412426	0.521121
H182	H	0.164941	0.008624	0.353583
O183	O	0.171827	-0.490688	0.442708
C184	C	0.218635	-0.497750	0.435625
H185	H	0.218548	-0.467707	0.441192
H186	H	0.242266	-0.497999	0.397824
H187	H	0.232941	-0.533253	0.462132
O188	O	0.204529	-0.457870	0.475379
C189	C	0.216539	-0.415987	0.450304
H190	H	0.188419	-0.386055	0.433468
H191	H	0.252698	-0.422536	0.421244
H192	H	0.218212	-0.405504	0.475923
H193	H	0.550485	-0.403881	0.468626
H194	H	0.332881	-0.492283	0.542031
H195	H	0.423225	-0.376108	0.456057
O196	O	0.427123	-0.530054	0.513005
C197	C	0.394461	-0.554752	0.537474
H198	H	0.358947	-0.533020	0.557911
H199	H	0.408888	-0.590688	0.563475
H200	H	0.389137	-0.560518	0.510825
H201	H	-0.028907	-0.460416	0.362542
O202	O	0.328978	-0.338341	0.485114
C203	C	0.361643	-0.313644	0.460624
H204	H	0.397178	-0.339216	0.466351
H205	H	0.347252	-0.283593	0.474736
H206	H	0.366912	-0.298153	0.420981
H207	H	0.129672	-0.118967	0.410356
O208	O	0.164331	-0.213214	0.435303
C209	C	0.171356	-0.180524	0.388506
H210	H	0.141301	-0.145008	0.388617
H211	H	0.171596	-0.194920	0.364856
H212	H	0.206850	-0.175210	0.374203
H213	H	0.055974	-0.119015	0.558014
H214	H	-0.028474	-0.460433	0.068892
O215	O	0.084238	-0.213265	0.595826
C216	C	0.055389	-0.180597	0.620860
H217	H	0.061726	-0.145067	0.597094
H218	H	0.064758	-0.194999	0.654103
H219	H	0.016357	-0.175310	0.631628
H220	H	-0.058738	-0.490513	0.159288
H221	H	0.015032	-0.638195	0.159378
O222	O	0.049735	-0.613248	0.065112
C223	C	0.024556	-0.642010	0.077226
H224	H	-0.004490	-0.642466	0.113378
H225	H	0.050105	-0.679818	0.078965
H226	H	0.007694	-0.627007	0.049129
O227	O	-0.063550	-0.485394	0.327865
C228	C	-0.105351	-0.456542	0.352979
H229	H	-0.112334	-0.475774	0.392856
H230	H	-0.136713	-0.448975	0.344000
H231	H	-0.100806	-0.421548	0.342390
O232	O	0.049217	-0.613245	0.441018
C233	C	0.056271	-0.660041	0.448065
H234	H	0.026250	-0.659921	0.442434
H235	H	0.056475	-0.683692	0.485878
H236	H	0.091790	-0.674350	0.421582
H237	H	0.014660	-0.638178	0.406265
O238	O	0.088655	-0.868510	0.370447
C239	C	0.105949	-0.897335	0.343332
H240	H	0.075194	-0.904766	0.347177
H241	H	0.133475	-0.932396	0.356601
H242	H	0.123163	-0.878155	0.304292
H243	H	-0.065262	-0.864385	0.427124
H244	H	-0.231954	-0.601008	0.442726
O245	O	-0.102978	-0.770127	0.398059
C246	C	-0.127689	-0.802771	0.422478
H247	H	-0.102114	-0.838312	0.416765
H248	H	-0.157692	-0.788354	0.408291
H249	H	-0.143243	-0.808045	0.462125
H250	H	-0.322118	-0.496994	0.324987
