data_functionalizedCrystal
_audit_creation_method	'MofGen! by Chris Wilmer'
_symmetry_space_group_name_H-M	'P1'
_symmetry_Int_Tables_number	1
_symmetry_cell_setting	triclinic
loop_
_symmetry_equiv_pos_as_xyz
  x,y,z
_cell_length_a	15.944493
_cell_length_b	15.944551
_cell_length_c	15.021413
_cell_angle_alpha	89.990496
_cell_angle_beta	89.995554
_cell_angle_gamma	83.486891
loop_
_atom_site_label
_atom_site_type_symbol
_atom_site_fract_x
_atom_site_fract_y
_atom_site_fract_z
O1	O	1.114555	0.108105	-0.074022
O2	O	1.364555	0.358105	0.175978
O3	O	1.614555	0.608105	0.425978
O4	O	1.864555	0.858105	0.675978
O5	O	0.869998	0.121512	-0.074027
O6	O	1.119998	0.371512	0.175973
O7	O	1.369998	0.621512	0.425973
O8	O	1.619998	0.871512	0.675973
O9	O	0.998955	-0.007468	-0.074016
O10	O	1.248955	0.242532	0.175984
O11	O	1.498955	0.492532	0.425984
O12	O	1.748955	0.742532	0.675984
O13	O	0.985598	0.237084	-0.074033
O14	O	1.235598	0.487084	0.175967
O15	O	1.485598	0.737084	0.425967
O16	O	1.735598	0.987084	0.675967
O17	O	0.998943	-0.007481	0.074048
O18	O	1.248943	0.242519	0.324048
O19	O	1.498943	0.492519	0.574048
O20	O	1.748943	0.742519	0.824048
O21	O	0.869987	0.121499	0.074037
O22	O	1.119987	0.371499	0.324037
O23	O	1.369987	0.621499	0.574037
O24	O	1.619987	0.871499	0.824037
O25	O	1.114543	0.108092	0.074042
O26	O	1.364543	0.358092	0.324042
O27	O	1.614543	0.608092	0.574042
O28	O	1.864543	0.858092	0.824042
Zn29	Zn	0.992263	0.114793	0.097548
Zn30	Zn	1.242263	0.364793	0.347548
Zn31	Zn	1.492263	0.614793	0.597548
Zn32	Zn	1.742263	0.864793	0.847548
Zn33	Zn	0.992278	0.114810	-0.097533
Zn34	Zn	1.242278	0.364810	0.152467
Zn35	Zn	1.492278	0.614810	0.402467
Zn36	Zn	1.742278	0.864810	0.652467
O37	O	0.985587	0.237071	0.074032
O38	O	1.235587	0.487071	0.324032
O39	O	1.485587	0.737071	0.574032
O40	O	1.735587	0.987071	0.824032
C41	C	0.838698	0.120957	0.000005
C42	C	1.088698	0.370957	0.250005
C43	C	1.338698	0.620957	0.500005
C44	C	1.588698	0.870957	0.750005
C45	C	0.745449	0.119314	0.000003
C46	C	0.995449	0.369314	0.250003
C47	C	1.245449	0.619314	0.500003
C48	C	1.495449	0.869314	0.750003
C49	C	0.509689	0.195235	-0.000002
C50	C	0.759689	0.445235	0.249998
C51	C	1.009689	0.695235	0.499998
C52	C	1.259689	0.945235	0.749998
C53	C	0.459125	0.154287	0.073008
C54	C	0.709125	0.404287	0.323008
C55	C	0.959125	0.654287	0.573008
C56	C	1.209125	0.904287	0.823008
C57	C	0.574728	0.116270	0.000005
C58	C	0.824728	0.366270	0.250005
C59	C	1.074728	0.616270	0.500005
C60	C	1.324728	0.866270	0.750005
C61	C	0.459141	0.154282	-0.072972
C62	C	0.709141	0.404282	0.177028
C63	C	0.959141	0.654282	0.427028
C64	C	1.209141	0.904282	0.677028
C65	C	0.409819	0.113336	0.000003
C66	C	0.659819	0.363336	0.250003
C67	C	0.909819	0.613336	0.500003
C68	C	1.159819	0.863336	0.750003
C69	C	0.525393	0.075344	0.073075
C70	C	0.775393	0.325344	0.323075
C71	C	1.025393	0.575344	0.573075
C72	C	1.275393	0.825344	0.823075
C73	C	0.525412	0.075350	-0.072970
C74	C	0.775412	0.325350	0.177030
C75	C	1.025412	0.575350	0.427030
C76	C	1.275412	0.825350	0.677030
C77	C	0.474880	0.034345	0.000058
C78	C	0.724880	0.284345	0.250058
C79	C	0.974880	0.534345	0.500058
C80	C	1.224880	0.784345	0.750058
C81	C	0.669728	0.117963	0.000007
C82	C	0.919728	0.367963	0.250007
C83	C	1.169728	0.617963	0.500007
C84	C	1.419728	0.867963	0.750007
C85	C	0.314821	0.111637	0.000008
C86	C	0.564821	0.361637	0.250008
C87	C	0.814821	0.611637	0.500008
C88	C	1.064821	0.861637	0.750008
C89	C	0.998395	-0.038768	0.000016
C90	C	1.248395	0.211232	0.250016
C91	C	1.498395	0.461232	0.500016
C92	C	1.748395	0.711232	0.750016
C93	C	0.996732	-0.132014	0.000016
C94	C	1.246732	0.117986	0.250016
C95	C	1.496732	0.367986	0.500016
C96	C	1.746732	0.617986	0.750016
C97	C	0.912826	-0.346853	0.000003
C98	C	1.162826	-0.096853	0.250003
C99	C	1.412826	0.153147	0.500003
C100	C	1.662826	0.403147	0.750003
C101	C	0.951783	-0.407885	0.073008
C102	C	1.201783	-0.157885	0.323008
C103	C	1.451783	0.092115	0.573008
C104	C	1.701783	0.342115	0.823008
C105	C	0.993725	-0.302739	0.000010
C106	C	1.243725	-0.052739	0.250010
C107	C	1.493725	0.197261	0.500010
C108	C	1.743725	0.447261	0.750010
C109	C	0.951814	-0.407856	-0.072972
C110	C	1.201814	-0.157856	0.177028
C111	C	1.451814	0.092144	0.427028
C112	C	1.701814	0.342144	0.677028
C113	C	0.990814	-0.467651	-0.000001
C114	C	1.240814	-0.217651	0.249999
C115	C	1.490814	0.032349	0.499999
C116	C	1.740814	0.282349	0.749999
C117	C	1.032705	-0.362543	0.073075
C118	C	1.282705	-0.112543	0.323075
C119	C	1.532705	0.137457	0.573075
C120	C	1.782705	0.387457	0.823075
C121	C	1.032724	-0.362507	-0.072970
C122	C	1.282724	-0.112507	0.177030
C123	C	1.532724	0.137493	0.427030
C124	C	1.782724	0.387493	0.677030
C125	C	1.071741	-0.423521	0.000053
C126	C	1.321741	-0.173521	0.250053
C127	C	1.571741	0.076479	0.500053
C128	C	1.821741	0.326479	0.750053
C129	C	0.995399	-0.207737	0.000016
C130	C	1.245399	0.042263	0.250016
C131	C	1.495399	0.292263	0.500016
C132	C	1.745399	0.542263	0.750016
C133	C	0.989146	-0.562652	-0.000001
C134	C	1.239146	-0.312652	0.249999
C135	C	1.489146	-0.062652	0.499999
C136	C	1.739146	0.187348	0.749999
C137	C	1.145844	0.108646	0.000009
C138	C	1.395844	0.358646	0.250009
C139	C	1.645844	0.608646	0.500009
C140	C	1.895844	0.858646	0.750009
C141	C	1.239092	0.110289	0.000004
C142	C	1.489092	0.360289	0.250004
C143	C	1.739092	0.610289	0.500004
C144	C	1.989092	0.860289	0.750004
C145	C	0.986147	0.268372	-0.000003
C146	C	1.236147	0.518372	0.249997
C147	C	1.486147	0.768372	0.499997
C148	C	1.736147	1.018372	0.749997
C149	C	0.987809	0.361617	-0.000009
C150	C	1.237809	0.611617	0.249991
C151	C	1.487809	0.861617	0.499991
C152	C	1.737809	1.111617	0.749991
N153	N	0.992259	0.114781	0.230686
N154	N	1.242259	0.364781	0.480686
N155	N	1.492259	0.614781	0.730686
N156	N	1.742259	0.864781	0.980686
N157	N	0.992289	0.114816	-0.230670
N158	N	1.242289	0.364816	0.019330
N159	N	1.492289	0.614816	0.269330
N160	N	1.742289	0.864816	0.519330
C161	C	1.051442	0.054667	0.529682
C162	C	1.301442	0.304667	0.779682
C163	C	1.551442	0.554667	1.029682
C164	C	1.801442	0.804667	1.279682
C165	C	1.068430	0.130334	0.470310
C166	C	1.318430	0.380334	0.720310
C167	C	1.568430	0.630334	0.970310
C168	C	1.818430	0.880334	1.220310
C169	C	0.992279	0.114806	0.587723
C170	C	1.242279	0.364806	0.837723
C171	C	1.492279	0.614806	1.087723
C172	C	1.742279	0.864806	1.337723
C173	C	0.975321	0.039129	0.470352
C174	C	1.225321	0.289129	0.720352
C175	C	1.475321	0.539129	0.970352
C176	C	1.725321	0.789129	1.220352
C177	C	0.992272	0.114789	0.412299
C178	C	1.242272	0.364789	0.662299
C179	C	1.492272	0.614789	0.912299
C180	C	1.742272	0.864789	1.162299
C181	C	1.009305	0.190511	0.529658
C182	C	1.259305	0.440511	0.779658
C183	C	1.509305	0.690511	1.029658
C184	C	1.759305	0.940511	1.279658
C185	C	0.916163	0.099256	0.529705
C186	C	1.166163	0.349256	0.779705
C187	C	1.416163	0.599256	1.029705
C188	C	1.666163	0.849256	1.279705
C189	C	0.933119	0.174978	0.470360
C190	C	1.183119	0.424978	0.720360
C191	C	1.433119	0.674978	0.970360
C192	C	1.683119	0.924978	1.220360
C193	C	0.992286	0.114814	0.688780
C194	C	1.242286	0.364814	0.938780
C195	C	1.492286	0.614814	1.188780
C196	C	1.742286	0.864814	1.438780
C197	C	0.992265	0.114790	0.311243
C198	C	1.242265	0.364790	0.561243
C199	C	1.492265	0.614790	0.811243
C200	C	1.742265	0.864790	1.061243
H201	H	0.525313	0.263254	0.000061
H202	H	0.775313	0.513254	0.250061
H203	H	1.025313	0.763254	0.500061
H204	H	1.275313	1.013254	0.750061
F205	F	1.077388	-0.336434	0.153836
F206	F	1.327388	-0.086434	0.403836
F207	F	1.577388	0.163566	0.653836
F208	F	1.827388	0.413566	0.903836
F209	F	1.116884	-0.011724	0.563730
F210	F	1.366884	0.238276	0.813730
F211	F	1.616884	0.488276	1.063730
F212	F	1.866884	0.738276	1.313730
H213	H	0.960981	-0.024864	0.444301
H214	H	1.210981	0.225136	0.694301
H215	H	1.460981	0.475136	0.944301
H216	H	1.710981	0.725136	1.194301
H217	H	0.554362	0.042033	-0.134692
H218	H	0.804362	0.292033	0.115308
H219	H	1.054362	0.542033	0.365308
H220	H	1.304362	0.792033	0.615308
F221	F	0.421294	0.197867	0.153678
F222	F	0.671294	0.447867	0.403678
F223	F	0.921294	0.697867	0.653678
F224	F	1.171294	0.947867	0.903678
H225	H	0.459415	-0.033726	0.000105
H226	H	0.709415	0.216274	0.250105
H227	H	0.959415	0.466274	0.500105
H228	H	1.209415	0.716274	0.750105
F229	F	1.152557	0.147513	0.436191
F230	F	1.402557	0.397513	0.686191
F231	F	1.652557	0.647513	0.936191
F232	F	1.902557	0.897513	1.186191
F233	F	0.907055	-0.434167	0.153680
F234	F	1.157055	-0.184167	0.403680
F235	F	1.407055	0.065833	0.653680
F236	F	1.657055	0.315833	0.903680
H237	H	0.430207	0.187651	-0.134688
H238	H	0.680207	0.437651	0.115312
H239	H	0.930207	0.687651	0.365312
H240	H	1.180207	0.937651	0.615312
H241	H	1.138950	-0.456694	0.000096
H242	H	1.388950	-0.206694	0.250096
H243	H	1.638950	0.043306	0.500096
H244	H	1.888950	0.293306	0.750096
F245	F	1.077417	-0.336195	-0.153646
F246	F	1.327417	-0.086195	0.096354
F247	F	1.577417	0.163805	0.346354
F248	F	1.827417	0.413805	0.596354
F249	F	0.563063	0.031776	0.153835
F250	F	0.813063	0.281776	0.403835
F251	F	1.063063	0.531776	0.653835
F252	F	1.313063	0.781776	0.903835
H253	H	1.023714	0.254519	0.555599
H254	H	1.273714	0.504519	0.805599
H255	H	1.523714	0.754519	1.055599
H256	H	1.773714	1.004519	1.305599
F257	F	0.907077	-0.434099	-0.153638
F258	F	1.157077	-0.184099	0.096362
F259	F	1.407077	0.065901	0.346362
F260	F	1.657077	0.315901	0.596362
H261	H	0.883081	0.225884	0.444478
H262	H	1.133081	0.475884	0.694478
H263	H	1.383081	0.725884	0.944478
H264	H	1.633081	0.975884	1.194478
H265	H	0.845675	-0.313532	0.000074
H266	H	1.095675	-0.063532	0.250074
H267	H	1.345675	0.186468	0.500074
H268	H	1.595675	0.436468	0.750074
F269	F	0.832057	0.082036	0.563832
F270	F	1.082057	0.332036	0.813832
F271	F	1.332057	0.582036	1.063832
F272	F	1.582057	0.832036	1.313832
