data_functionalizedCrystal
_audit_creation_method	'MofGen! by Chris Wilmer'
_symmetry_space_group_name_H-M	'P1'
_symmetry_Int_Tables_number	1
_symmetry_cell_setting	triclinic
loop_
_symmetry_equiv_pos_as_xyz
  x,y,z
_cell_length_a	19.288864
_cell_length_b	12.811415
_cell_length_c	18.366186
_cell_angle_alpha	84.562925
_cell_angle_beta	89.977106
_cell_angle_gamma	83.590547
loop_
_atom_site_label
_atom_site_type_symbol
_atom_site_fract_x
_atom_site_fract_y
_atom_site_fract_z
O1	O	0.922003	0.130934	-0.069428
O2	O	0.719830	0.148597	-0.070544
O3	O	0.826002	-0.013052	-0.059893
O4	O	0.815832	0.292582	-0.080078
O5	O	0.825984	-0.013060	0.061207
O6	O	0.719812	0.148589	0.050556
O7	O	0.921985	0.130926	0.051672
Zn8	Zn	0.820896	0.139756	0.070341
Zn9	Zn	0.820920	0.139766	-0.089213
O10	O	0.815813	0.292574	0.041022
C11	C	0.693942	0.148024	-0.009950
C12	C	0.616830	0.146318	-0.009818
C13	C	0.572605	0.241166	-0.016094
C14	C	0.500150	0.239563	-0.015996
C15	C	0.471923	0.143107	-0.009637
C16	C	0.516158	0.048247	-0.003356
C17	C	0.588611	0.049852	-0.003447
C18	C	0.363291	0.067285	-0.047080
C19	C	0.290838	0.065683	-0.046994
C20	C	0.248453	0.138151	-0.009354
C21	C	0.278527	0.212239	0.028191
C22	C	0.350981	0.213845	0.028100
C23	C	0.393360	0.141356	-0.009537
C24	C	0.125663	0.231268	-0.015523
C25	C	0.053207	0.229661	-0.015420
C26	C	0.069217	0.038342	-0.002788
C27	C	0.141671	0.039952	-0.002883
C28	C	0.169890	0.136417	-0.009254
C29	C	0.825423	-0.052157	0.003238
C30	C	0.823715	-0.168668	0.010930
C31	C	0.820513	-0.387583	-0.106656
C32	C	0.818908	-0.497055	-0.099432
C33	C	0.818896	-0.497084	0.032599
C34	C	0.820500	-0.387613	0.025375
C35	C	0.821310	-0.332866	-0.044254
C36	C	0.822920	-0.223393	-0.051477
C37	C	0.822902	-0.223423	0.080554
C38	C	0.821298	-0.332895	0.087777
C39	C	0.947873	0.131498	-0.008923
C40	C	1.024985	0.133204	-0.009060
C41	C	0.816393	0.331680	-0.022111
C42	C	0.818101	0.448190	-0.029807
N43	N	0.820884	0.139748	0.179233
N44	N	0.820936	0.139766	-0.198104
C45	C	0.867913	0.068206	0.222047
C46	C	0.867917	0.068201	0.298275
C47	C	0.820900	0.139757	0.331685
C48	C	0.773863	0.211305	0.288861
C49	C	0.773855	0.211301	0.212635
C50	C	0.812077	0.235391	0.446131
C51	C	0.812089	0.235396	0.522356
C52	C	0.820920	0.139770	0.566792
C53	C	0.829752	0.044134	0.534995
C54	C	0.829744	0.044130	0.458768
C55	C	0.820903	0.139769	0.414339
C56	C	0.867955	0.068216	0.692262
C57	C	0.867955	0.068210	0.768491
C58	C	0.773904	0.211324	0.759075
C59	C	0.773901	0.211321	0.682848
C60	C	0.820930	0.139768	0.649445
H61	H	0.595575	0.319716	-0.021283
F62	F	0.802728	0.337178	0.398845
H63	H	0.906248	0.009950	0.665065
F64	F	0.918007	-0.007944	0.814060
H65	H	0.735619	0.269582	0.786277
H66	H	0.735558	0.269561	0.177775
H67	H	0.464135	0.316802	-0.021104
H68	H	0.375464	0.274166	0.058672
F69	F	0.723850	0.287471	0.637278
F70	F	0.818017	-0.555364	0.106697
F71	F	0.820430	-0.391171	0.161878
F72	F	0.039181	-0.064315	0.003987
F73	F	0.486116	-0.054408	0.003415
H74	H	0.818256	-0.541601	-0.150246
H75	H	0.823554	-0.178862	0.131366
F76	F	0.917963	-0.007950	0.186500
H77	H	0.244018	0.271249	0.058842
H78	H	0.906215	0.009940	0.333141
H79	H	0.821178	-0.343009	-0.163351
H80	H	0.804902	0.313269	0.548239
H81	H	0.836934	-0.033740	0.432882
H82	H	0.148640	0.309816	-0.020700
F83	F	0.006139	0.330617	-0.022096
F84	F	0.723821	0.287457	0.324419
H85	H	0.836942	-0.033734	0.571173
H86	H	0.266357	0.005361	-0.077568
F87	F	0.188741	-0.061000	0.003793
F88	F	0.823784	-0.165129	-0.125581
H89	H	0.397796	0.008270	-0.077736
H90	H	0.624620	-0.027387	0.001663
