data_functionalizedCrystal
_audit_creation_method	'MofGen! by Chris Wilmer'
_symmetry_space_group_name_H-M	'P1'
_symmetry_Int_Tables_number	1
_symmetry_cell_setting	triclinic
loop_
_symmetry_equiv_pos_as_xyz
  x,y,z
_cell_length_a	10.489716
_cell_length_b	23.532407
_cell_length_c	9.565339
_cell_angle_alpha	89.995586
_cell_angle_beta	89.996780
_cell_angle_gamma	83.688907
loop_
_atom_site_label
_atom_site_type_symbol
_atom_site_fract_x
_atom_site_fract_y
_atom_site_fract_z
O1	O	1.691402	0.080274	-0.116265
O2	O	1.319951	0.087830	-0.116272
O3	O	1.516878	0.001194	-0.116242
O4	O	1.494476	0.166910	-0.116294
O5	O	1.516862	0.001199	0.116278
O6	O	1.319936	0.087835	0.116249
O7	O	1.691387	0.080279	0.116255
Zn8	Zn	1.505659	0.084058	0.153170
Zn9	Zn	1.505679	0.084051	-0.153186
O10	O	1.494460	0.166915	0.116226
C11	C	1.272430	0.087265	-0.000012
C12	C	1.130856	0.085566	-0.000013
C13	C	1.031416	0.138694	-0.000033
C14	C	0.954995	0.110623	0.114626
C15	C	0.955018	0.110605	-0.114620
C16	C	1.056300	0.057517	0.114741
C17	C	1.056328	0.057507	-0.114609
C18	C	0.979958	0.029397	0.000079
C19	C	1.516300	-0.020023	0.000021
C20	C	1.514585	-0.083252	0.000032
C21	C	1.620364	-0.481658	-0.000043
C22	C	1.618771	-0.541069	-0.000053
O23	O	1.716829	-0.577167	-0.000103
N24	N	1.501698	-0.564466	-0.000054
C25	C	1.386211	-0.528449	-0.000059
O26	O	1.286485	-0.553806	-0.000062
C27	C	1.387806	-0.469040	-0.000059
C28	C	1.504886	-0.445646	-0.000043
C29	C	1.737435	-0.458263	-0.000029
C30	C	1.739028	-0.398857	-0.000016
C31	C	1.623549	-0.362845	-0.000016
C32	C	1.506479	-0.386239	-0.000030
C33	C	1.272320	-0.433024	-0.000073
C34	C	1.273925	-0.373611	-0.000074
C35	C	1.391005	-0.350217	-0.000058
C36	C	1.392593	-0.290820	-0.000017
N37	N	1.509666	-0.267423	-0.000016
C38	C	1.625144	-0.303435	-0.000016
C39	C	1.382871	-0.653214	-0.000063
C40	C	1.381275	-0.712622	-0.000054
C41	C	1.613835	-0.725238	-0.000050
C42	C	1.615430	-0.665828	-0.000050
C43	C	1.499944	-0.629816	-0.000062
C44	C	1.628480	-0.178676	0.000013
C45	C	1.630063	-0.119264	0.000033
C46	C	1.397503	-0.106654	0.000022
C47	C	1.395920	-0.166061	0.000010
C48	C	1.511419	-0.202071	0.000001
O49	O	1.294586	-0.254687	0.000027
O50	O	1.724854	-0.278070	-0.000031
C51	C	1.738908	0.080844	-0.000007
C52	C	1.880482	0.082543	-0.000015
C53	C	1.495039	0.188132	-0.000041
C54	C	1.496754	0.251360	-0.000060
N55	N	1.505654	0.084062	0.362249
N56	N	1.505694	0.084042	-0.362265
C57	C	1.414555	0.124115	0.453439
C58	C	1.529670	0.135633	0.546615
C59	C	1.390589	0.072549	0.546627
C60	C	1.620827	0.095606	0.453374
C61	C	1.481670	0.032499	0.453378
C62	C	1.596869	0.043996	0.546513
H63	H	0.910761	0.133053	0.211546
H64	H	1.549984	0.179230	0.587569
O65	O	1.158664	-0.455805	-0.000289
C66	C	1.150780	-0.489771	-0.120743
H67	H	1.251502	-0.504158	-0.160869
H68	H	1.094047	-0.463749	-0.205075
C69	C	0.959036	-0.524919	-0.034910
C70	C	1.082745	-0.542594	-0.084188
H71	H	0.917064	-0.557502	-0.012365
H72	H	0.964344	-0.502034	0.046239
H73	H	0.911775	-0.503235	-0.105196
H74	H	1.130008	-0.564272	-0.013897
H75	H	1.077443	-0.565484	-0.165325
O76	O	1.108810	0.030690	0.230407
C77	C	1.082083	-0.026733	0.230710
H78	H	1.061942	-0.040508	0.119346
H79	H	0.994555	-0.031048	0.298941
C80	C	1.223070	-0.048102	0.426082
C81	C	1.198344	-0.065023	0.289302
H82	H	1.294782	-0.071722	0.462230
H83	H	1.241073	-0.009415	0.425883
H84	H	1.150121	-0.051699	0.482925
H85	H	1.271286	-0.061419	0.232459
H86	H	1.180355	-0.103711	0.289494
O87	O	0.952868	-0.025807	0.000239
C88	C	1.068216	-0.062729	0.001412
H89	H	1.148478	-0.039203	0.045971
H90	H	1.093631	-0.077212	-0.109839
C91	C	0.952882	-0.144170	0.038054
C92	C	1.051460	-0.115277	0.092794
H93	H	0.942547	-0.176586	0.094417
H94	H	0.875170	-0.119296	0.037259
H95	H	0.974074	-0.156234	-0.054654
H96	H	1.030260	-0.103207	0.185492
H97	H	1.129169	-0.140150	0.093607
O98	O	1.161620	-0.338712	-0.000023
C99	C	1.057953	-0.372105	-0.000076
H100	H	1.090906	-0.416306	0.043943
H101	H	1.022048	-0.376480	-0.111633
C102	C	0.908227	-0.288679	0.037036
C103	C	0.948698	-0.342965	0.091112
H104	H	0.840830	-0.270703	0.093279
H105	H	0.978068	-0.266180	0.037067
H106	H	0.878314	-0.292332	-0.055927
H107	H	0.978624	-0.339311	0.184066
H108	H	0.878859	-0.365462	0.091099
H109	H	1.054549	0.184907	0.000059
H110	H	1.674009	0.010114	0.587123
O111	O	1.736965	0.107368	0.404931
C112	C	1.762230	0.161563	0.453605
H113	H	1.703551	0.172859	0.552012
H114	H	1.734888	0.195015	0.369484
C115	C	1.978097	0.146443	0.366613
C116	C	1.906035	0.160315	0.487485
H117	H	2.066803	0.145674	0.387506
H118	H	1.961076	0.109931	0.333815
H119	H	1.955298	0.174322	0.296523
H120	H	1.928823	0.132432	0.557565
H121	H	1.923063	0.196822	0.520296
H122	H	1.303484	-0.077322	0.000026
H123	H	1.100575	0.035094	-0.211534
O124	O	1.282161	-0.188764	-0.000245
C125	C	1.211813	-0.170385	-0.120651
H126	H	1.280297	-0.157735	-0.204806
H127	H	1.140231	-0.131970	-0.093414
C128	C	1.055043	-0.234826	-0.071928
C129	C	1.139157	-0.219293	-0.175293
H130	H	1.010220	-0.264993	-0.105632
H131	H	1.102434	-0.247207	0.009195
H132	H	0.995403	-0.202809	-0.049240
H133	H	1.198805	-0.251308	-0.197967
H134	H	1.091774	-0.206919	-0.256422
H135	H	1.285936	-0.731664	-0.000042
H136	H	0.910795	0.133041	-0.211542
O137	O	1.322867	0.164633	0.404733
C138	C	1.348656	0.218917	0.452272
H139	H	1.454946	0.217742	0.478395
H140	H	1.289231	0.230872	0.549817
C141	C	1.182972	0.265099	0.305063
C142	C	1.313522	0.263656	0.337136
H143	H	1.161295	0.292697	0.234045
H144	H	1.165594	0.228527	0.273038
H145	H	1.133468	0.275060	0.386359
H146	H	1.363024	0.253689	0.255845
H147	H	1.330908	0.300228	0.369145
H148	H	1.461320	-0.011084	0.412391
H149	H	1.293263	0.062820	0.587593
H150	H	1.725408	-0.100220	0.000049
H151	H	1.834366	-0.379815	-0.000009
H152	H	1.722531	-0.207990	0.000001
H153	H	1.710767	-0.646785	-0.000038
H154	H	1.831476	-0.487579	-0.000034
H155	H	1.707864	-0.754570	-0.000055
H156	H	1.288822	-0.623896	-0.000061
