data_functionalizedCrystal
_audit_creation_method	'MofGen! by Chris Wilmer'
_symmetry_space_group_name_H-M	'P1'
_symmetry_Int_Tables_number	1
_symmetry_cell_setting	triclinic
loop_
_symmetry_equiv_pos_as_xyz
  x,y,z
_cell_length_a	17.077404
_cell_length_b	29.839131
_cell_length_c	17.077396
_cell_angle_alpha	89.968087
_cell_angle_beta	89.980499
_cell_angle_gamma	90.041645
loop_
_atom_site_label
_atom_site_type_symbol
_atom_site_fract_x
_atom_site_fract_y
_atom_site_fract_z
Zn1	Zn	1.199954	-0.178851	-0.443824
Zn2	Zn	1.199818	-0.253981	-0.312550
Zn3	Zn	1.068685	-0.178866	-0.312572
Zn4	Zn	1.068611	-0.253955	-0.443774
O5	O	1.134267	-0.216413	-0.378180
O6	O	1.309782	-0.188821	-0.426422
O7	O	1.182398	-0.244035	-0.202706
O8	O	1.086186	-0.115997	-0.330013
O9	O	1.309683	-0.244020	-0.329976
O10	O	1.182628	-0.115986	-0.426443
O11	O	1.086055	-0.188848	-0.202722
O12	O	0.958829	-0.188822	-0.329964
O13	O	1.086059	-0.243974	-0.553627
O14	O	0.958774	-0.243989	-0.426358
O15	O	1.182556	-0.188796	-0.553664
O16	O	1.182325	-0.316845	-0.329927
O17	O	1.085928	-0.316825	-0.426336
C18	C	0.930319	-0.216405	-0.378158
C19	C	0.843069	-0.216412	-0.378168
C20	C	0.802071	-0.245181	-0.428279
C21	C	0.720091	-0.245182	-0.428292
C22	C	0.679110	-0.216416	-0.378188
C23	C	0.720114	-0.187644	-0.328074
C24	C	0.802093	-0.187641	-0.328066
C25	C	0.549244	-0.187653	-0.328093
C26	C	0.467259	-0.187657	-0.328100
C27	C	0.467242	-0.245194	-0.428319
C28	C	0.549221	-0.245191	-0.428311
C29	C	0.590219	-0.216420	-0.378196
C30	C	1.134125	-0.333136	-0.378141
C31	C	1.134136	-0.383070	-0.378151
C32	C	1.184552	-0.692711	-0.328053
C33	C	1.184649	-0.880384	-0.328083
O34	O	1.227402	-0.904647	-0.285459
N35	N	1.134430	-0.903855	-0.378239
C36	C	1.084186	-0.880405	-0.428394
O37	O	1.041479	-0.904675	-0.471061
C38	C	1.084094	-0.692733	-0.428367
C39	C	1.134311	-0.669264	-0.378203
C40	C	1.234766	-0.669242	-0.277893
C41	C	1.234738	-0.622327	-0.277883
C42	C	1.184497	-0.598880	-0.328033
C43	C	1.134283	-0.622349	-0.378193
C44	C	1.033855	-0.669284	-0.478526
C45	C	1.033837	-0.622363	-0.478516
C46	C	1.084055	-0.598894	-0.428352
C47	C	1.084014	-0.551987	-0.428332
N48	N	1.134233	-0.528516	-0.378177
C49	C	1.184475	-0.551962	-0.328027
C50	C	1.084237	-0.978936	-0.428404
C51	C	1.084259	-1.025854	-0.428410
C52	C	1.184723	-1.025829	-0.328100
C53	C	1.184697	-0.978911	-0.328090
C54	C	1.134457	-0.955465	-0.378248
C55	C	1.184412	-0.453437	-0.328009
C56	C	1.184378	-0.406517	-0.328001
C57	C	1.083917	-0.406545	-0.428314
C58	C	1.083948	-0.453461	-0.428319
C59	C	1.134202	-0.476905	-0.378164
O60	O	1.041290	-0.527695	-0.470941
O61	O	1.227188	-0.527685	-0.285378
C62	C	1.184580	-0.739627	-0.328063
C63	C	1.134366	-0.763095	-0.378223
C64	C	1.084125	-0.739649	-0.428373
C65	C	1.134388	-0.810013	-0.378229
C66	C	1.184630	-0.833460	-0.328079
C67	C	1.234849	-0.809989	-0.277923
C68	C	1.234822	-0.763073	-0.277913
C69	C	1.033905	-0.763120	-0.478529
C70	C	1.033937	-0.810035	-0.478534
C71	C	1.084178	-0.833482	-0.428384
C72	C	1.339011	-0.216422	-0.378202
C73	C	1.426261	-0.216425	-0.378212
C74	C	1.134314	-0.216380	-0.582924
C75	C	1.134335	-0.216366	-0.670174
C76	C	1.134431	-0.099235	-0.378236
C77	C	1.134500	-0.049300	-0.378260
C78	C	1.184582	-0.187632	-0.711185
C79	C	1.184592	-0.187617	-0.793165
C80	C	1.134357	-0.216339	-0.834134
C81	C	1.084104	-0.245074	-0.793117
C82	C	1.084091	-0.245086	-0.711138
C83	C	1.084135	-0.245047	-0.963987
C84	C	1.084149	-0.245035	-1.045972
C85	C	1.184636	-0.187578	-1.046014
C86	C	1.184624	-0.187590	-0.964035
C87	C	1.134371	-0.216326	-0.923025
C88	C	1.134265	-0.216414	-0.174232
C89	C	1.134397	-0.216301	-0.086983
H90	H	0.433857	-0.268619	-0.469126
N91	N	1.032603	-0.382597	-0.479552
N92	N	0.987773	-0.403553	-0.524343
H93	H	0.951535	-0.386639	-0.560536
N94	N	0.678196	-0.274566	-0.479471
N95	N	0.632488	-0.258801	-0.529547
H96	H	0.602896	-0.279555	-0.565692
H97	H	1.225552	-0.164179	-1.079409
H98	H	1.225336	-0.472520	-0.287169
N99	N	0.843928	-0.274559	-0.479471
N100	N	0.889711	-0.258787	-0.529539
H101	H	0.919271	-0.279535	-0.565697
N102	N	1.286121	-0.739111	-0.226664
N103	N	1.330971	-0.760059	-0.181894
H104	H	1.367204	-0.743139	-0.145696
N105	N	1.235924	-0.158263	-0.835044
N106	N	1.280777	-0.132624	-0.798456
H107	H	1.317033	-0.111891	-0.828032
H108	H	1.225588	-0.959805	-0.287243
H109	H	0.433895	-0.164227	-0.287311
N110	N	1.286041	-0.598365	-0.226636
N111	N	1.330893	-0.619313	-0.181869
H112	H	1.367130	-0.602393	-0.145675
N113	N	1.286100	-0.693181	-0.226660
N114	N	1.330927	-0.672212	-0.181885
H115	H	1.367183	-0.689116	-0.145696
N116	N	1.236037	-1.049791	-0.276874
N117	N	1.236043	-1.091682	-0.276893
H118	H	1.272283	-1.108607	-0.240720
H119	H	1.225492	-0.164245	-0.677834
N120	N	1.235949	-0.158254	-0.922198
N121	N	1.280814	-0.132601	-0.958821
H122	H	1.317064	-0.111881	-0.929274
H123	H	0.992994	-0.744033	-0.519368
N124	N	0.591112	-0.158256	-0.276907
N125	N	0.554515	-0.132573	-0.232177
H126	H	0.584083	-0.111811	-0.196026
H127	H	1.043199	-0.268458	-0.826480
H128	H	1.043242	-0.268422	-1.079326
H129	H	1.275756	-0.829087	-0.237087
H130	H	0.992958	-0.688384	-0.519372
N131	N	1.032946	-1.049816	-0.479644
N132	N	0.988093	-1.028870	-0.524414
H133	H	0.951853	-1.045792	-0.560603
H134	H	1.225271	-0.387410	-0.287148
N135	N	0.982513	-0.598407	-0.529740
N136	N	0.982490	-0.556517	-0.529728
H137	H	0.946242	-0.539598	-0.565903
N138	N	0.678255	-0.158254	-0.276906
N139	N	0.632556	-0.129648	-0.304623
H140	H	0.602994	-0.108890	-0.268484
H141	H	0.835472	-0.164213	-0.287265
N142	N	1.032793	-0.274399	-0.922107
N143	N	0.987944	-0.300042	-0.958693
H144	H	0.951686	-0.320772	-0.929115
H145	H	1.043323	-0.959849	-0.469250
N146	N	0.982625	-0.833998	-0.529778
N147	N	0.937774	-0.813052	-0.574549
H148	H	0.901539	-0.829974	-0.610744
N149	N	1.032754	-0.274437	-0.669256
N150	N	0.987902	-0.300079	-0.705842
H151	H	0.951640	-0.320807	-0.676264
H152	H	1.043059	-0.472570	-0.469170
H153	H	0.582585	-0.268617	-0.469105
