data_functionalizedCrystal
_audit_creation_method	'MofGen! by Chris Wilmer'
_symmetry_space_group_name_H-M	'P1'
_symmetry_Int_Tables_number	1
_symmetry_cell_setting	triclinic
loop_
_symmetry_equiv_pos_as_xyz
  x,y,z
_cell_length_a	18.215407
_cell_length_b	18.215405
_cell_length_c	12.759393
_cell_angle_alpha	90.036495
_cell_angle_beta	90.022888
_cell_angle_gamma	90.025333
loop_
_atom_site_label
_atom_site_type_symbol
_atom_site_fract_x
_atom_site_fract_y
_atom_site_fract_z
Zn1	Zn	1.125094	-0.292940	0.594031
Zn2	Zn	1.625094	0.207060	1.094031
Zn3	Zn	1.124996	-0.416024	0.418333
Zn4	Zn	1.624996	0.083976	0.918333
Zn5	Zn	1.002020	-0.292977	0.418360
Zn6	Zn	1.502020	0.207023	0.918360
Zn7	Zn	1.001993	-0.415970	0.593964
Zn8	Zn	1.501993	0.084030	1.093964
O9	O	1.063526	-0.354478	0.506172
O10	O	1.563526	0.145522	1.006172
O11	O	1.228065	-0.309274	0.570741
O12	O	1.728065	0.190726	1.070741
O13	O	1.108653	-0.399739	0.271315
O14	O	1.608653	0.100261	0.771315
O15	O	1.018399	-0.189988	0.441703
O16	O	1.518399	0.310012	0.941703
O17	O	1.227993	-0.399704	0.441656
O18	O	1.727993	0.100296	0.941656
O19	O	1.108821	-0.189960	0.570767
O20	O	1.608821	0.310040	1.070767
O21	O	1.018304	-0.309337	0.271335
O22	O	1.518304	0.190663	0.771335
O23	O	0.899032	-0.309285	0.441638
O24	O	1.399032	0.190715	0.941638
O25	O	1.018352	-0.399612	0.740994
O26	O	1.518352	0.100388	1.240994
O27	O	0.899012	-0.399648	0.570653
O28	O	1.399012	0.100352	1.070653
O29	O	1.108794	-0.309222	0.741043
O30	O	1.608794	0.190778	1.241043
O31	O	1.108627	-0.519001	0.441591
O32	O	1.608627	-0.019001	0.941591
O33	O	1.018257	-0.518962	0.570627
O34	O	1.518257	-0.018962	1.070627
C35	C	0.872319	-0.354465	0.506142
C36	C	1.372319	0.145535	1.006142
C37	C	0.790521	-0.354477	0.506154
C38	C	1.290521	0.145523	1.006154
C39	C	0.602335	-0.401603	0.573248
C40	C	1.102335	0.098397	1.073248
C41	C	0.525477	-0.401606	0.573261
C42	C	1.025477	0.098394	1.073261
C43	C	0.525468	-0.307365	0.439119
C44	C	1.025468	0.192635	0.939119
C45	C	0.602325	-0.307360	0.439112
C46	C	1.102325	0.192640	0.939112
C47	C	0.640757	-0.354483	0.506175
C48	C	1.140757	0.145517	1.006175
C49	C	0.487041	-0.354491	0.506195
C50	C	0.987041	0.145509	1.006195
C51	C	0.403707	-0.354493	0.506209
C52	C	0.903707	0.145507	1.006209
C53	C	0.724096	-0.354480	0.506163
C54	C	1.224096	0.145520	1.006163
C55	C	1.063448	-0.545684	0.506121
C56	C	1.563448	-0.045684	1.006121
C57	C	1.063482	-0.627483	0.506135
C58	C	1.563482	-0.127483	1.006135
C59	C	1.110648	-0.815673	0.439070
C60	C	1.610648	-0.315673	0.939070
C61	C	1.110681	-0.892532	0.439095
C62	C	1.610681	-0.392532	0.939095
C63	C	1.016497	-0.892530	0.573350
C64	C	1.516497	-0.392530	1.073350
C65	C	1.016469	-0.815673	0.573329
C66	C	1.516469	-0.315673	1.073329
C67	C	1.063543	-0.777246	0.506183
C68	C	1.563543	-0.277246	1.006183
C69	C	1.063605	-0.930962	0.506229
C70	C	1.563605	-0.430962	1.006229
C71	C	1.063640	-1.014296	0.506257
C72	C	1.563640	-0.514296	1.006257
C73	C	1.063509	-0.693907	0.506156
C74	C	1.563509	-0.193907	1.006156
C75	C	1.255479	-0.354491	0.506203
C76	C	1.755479	0.145509	1.006203
C77	C	1.337278	-0.354496	0.506216
C78	C	1.837278	0.145504	1.006216
C79	C	1.063581	-0.354407	0.780205
C80	C	1.563581	0.145593	1.280205
C81	C	1.063604	-0.354377	0.896982
C82	C	1.563604	0.145623	1.396982
C83	C	1.063624	-0.162525	0.506246
C84	C	1.563624	0.337475	1.006246
C85	C	1.063666	-0.080726	0.506277
C86	C	1.563666	0.419274	1.006277
C87	C	1.063513	-0.354495	0.233205
C88	C	1.563513	0.145505	0.733205
C89	C	1.063632	-0.354318	0.116428
C90	C	1.563632	0.145682	0.616428
C91	C	1.110701	-0.307303	0.951871
C92	C	1.610701	0.192697	1.451871
C93	C	1.110713	-0.307272	1.061596
C94	C	1.610713	0.192728	1.561596
C95	C	1.016530	-0.401393	1.061531
C96	C	1.516530	0.098607	1.561531
C97	C	1.016515	-0.401421	0.951809
C98	C	1.516515	0.098579	1.451809
H99	H	0.633609	-0.268984	0.384493
H100	H	1.133609	0.231016	0.884493
Cl101	Cl	0.957298	-0.460600	0.882800
Cl102	Cl	1.457298	0.039400	1.382800
Cl103	Cl	1.169896	-0.248160	0.882950
Cl104	Cl	1.669896	0.251840	1.382950
H105	H	0.978170	-0.923827	0.628016
H106	H	1.478170	-0.423827	1.128016
Cl107	Cl	1.169904	-0.940836	0.354723
Cl108	Cl	1.669904	-0.440836	0.854723
H109	H	1.148980	-0.784388	0.384397
H110	H	1.648980	-0.284388	0.884397
H111	H	1.149063	-0.268939	1.106282
H112	H	1.649063	0.231061	1.606282
H113	H	0.978193	-0.439696	1.106185
H114	H	1.478193	0.060304	1.606185
Cl115	Cl	0.957250	-0.767362	0.657712
Cl116	Cl	1.457250	-0.267362	1.157712
H117	H	0.633624	-0.439972	0.627857
H118	H	1.133624	0.060028	1.127857
H119	H	0.494197	-0.439975	0.627880
H120	H	0.994197	0.060025	1.127880
H121	H	0.494168	-0.269001	0.384517
H122	H	0.994168	0.230999	0.884517
