data_functionalizedCrystal
_audit_creation_method	'MofGen! by Chris Wilmer'
_symmetry_space_group_name_H-M	'P1'
_symmetry_Int_Tables_number	1
_symmetry_cell_setting	triclinic
loop_
_symmetry_equiv_pos_as_xyz
  x,y,z
_cell_length_a	21.295419
_cell_length_b	21.295417
_cell_length_c	12.594509
_cell_angle_alpha	89.963755
_cell_angle_beta	89.978992
_cell_angle_gamma	90.045308
loop_
_atom_site_label
_atom_site_type_symbol
_atom_site_fract_x
_atom_site_fract_y
_atom_site_fract_z
Zn1	Zn	0.962334	-0.250342	-0.601792
Zn2	Zn	0.962243	-0.355620	-0.423789
Zn3	Zn	0.857063	-0.250396	-0.423822
Zn4	Zn	0.857026	-0.355604	-0.601720
O5	O	0.909666	-0.302991	-0.512780
O6	O	1.050411	-0.264291	-0.578196
O7	O	0.948268	-0.341692	-0.274847
O8	O	0.871081	-0.162299	-0.447474
O9	O	1.050344	-0.341639	-0.447417
O10	O	0.948423	-0.162259	-0.578228
O11	O	0.870993	-0.264384	-0.274871
O12	O	0.768969	-0.264368	-0.447404
O13	O	0.871018	-0.341611	-0.750675
O14	O	0.768942	-0.341664	-0.578105
O15	O	0.948387	-0.264275	-0.750728
O16	O	0.948232	-0.443708	-0.447347
O17	O	0.870930	-0.443696	-0.578072
C18	C	0.746115	-0.303021	-0.512751
C19	C	0.676147	-0.303049	-0.512763
C20	C	0.643337	-0.262840	-0.580965
C21	C	0.577595	-0.262823	-0.580969
C22	C	0.544664	-0.303026	-0.512782
C23	C	0.577481	-0.343238	-0.444568
C24	C	0.643223	-0.343250	-0.444558
N25	N	0.441389	-0.358105	-0.504464
N26	N	0.378938	-0.358092	-0.504479
C27	C	0.346590	-0.302994	-0.512806
N28	N	0.379052	-0.247907	-0.521137
N29	N	0.441509	-0.247920	-0.521127
C30	C	0.473379	-0.303018	-0.512785
C31	C	0.242495	-0.262763	-0.581016
C32	C	0.176751	-0.262745	-0.581012
C33	C	0.176639	-0.343166	-0.444617
C34	C	0.242381	-0.343178	-0.444615
C35	C	0.275305	-0.302978	-0.512820
C36	C	0.909584	-0.466542	-0.512722
C37	C	0.909606	-0.536510	-0.512732
C38	C	0.949893	-0.569362	-0.444733
C39	C	0.949923	-0.635105	-0.444757
C40	C	0.909654	-0.667993	-0.512769
C41	C	0.869364	-0.635133	-0.580781
C42	C	0.869340	-0.569392	-0.580762
N43	N	0.854587	-0.771272	-0.520873
N44	N	0.854611	-0.833724	-0.520884
C45	C	0.909724	-0.866067	-0.512830
N46	N	0.964814	-0.833600	-0.504743
N47	N	0.964788	-0.771143	-0.504726
C48	C	0.909676	-0.739278	-0.512797
C49	C	0.950047	-0.970205	-0.444853
C50	C	0.950077	-1.035949	-0.444885
C51	C	0.869513	-1.035976	-0.580903
C52	C	0.869488	-0.970233	-0.580877
C53	C	0.909754	-0.937352	-0.512846
C54	C	1.073857	-0.302961	-0.512811
C55	C	1.143825	-0.302948	-0.512824
C56	C	0.909709	-0.302935	-0.790401
C57	C	0.909727	-0.302912	-0.908707
C58	C	0.909766	-0.138800	-0.512863
C59	C	0.909809	-0.068832	-0.512898
C60	C	0.867659	-0.344951	-0.977931
C61	C	0.925094	-0.360317	-1.048718
C62	C	0.852336	-0.287508	-1.048720
C63	C	0.967192	-0.318308	-0.977935
C64	C	0.894395	-0.245473	-0.977931
C65	C	0.951870	-0.260816	-1.048686
C66	C	0.909661	-0.303000	-0.236239
C67	C	0.909765	-0.302846	-0.117935
H68	H	0.669936	-0.375994	-0.389018
H69	H	0.670140	-0.230105	-0.636502
C70	C	0.140661	-0.218514	-0.656048
C71	C	0.095462	-0.245851	-0.739527
C72	C	0.059373	-0.201621	-0.814569
C73	C	0.068483	-0.130055	-0.806132
C74	C	0.113684	-0.102714	-0.722650
C75	C	0.149773	-0.146944	-0.647608
H76	H	0.088716	-0.298832	-0.745775
H77	H	0.025912	-0.221861	-0.876368
H78	H	0.041767	-0.097313	-0.861683
H79	H	0.120429	-0.049733	-0.716402
H80	H	0.183234	-0.126704	-0.585810
C81	C	0.278476	-0.387417	-0.369603
C82	C	0.242258	-0.431643	-0.294600
C83	C	0.278352	-0.475883	-0.219583
C84	C	0.350665	-0.475899	-0.219571
C85	C	0.386887	-0.431672	-0.294578
C86	C	0.350793	-0.387431	-0.369594
H87	H	0.188724	-0.431633	-0.294606
H88	H	0.251538	-0.508623	-0.164058
H89	H	0.377385	-0.508648	-0.164040
H90	H	0.440421	-0.431681	-0.294571
H91	H	0.377607	-0.354691	-0.425119
H92	H	1.015756	-0.331364	-0.946973
H93	H	0.803786	-0.274507	-1.079814
C94	C	0.994191	-0.533197	-0.369908
C95	C	0.989097	-0.542303	-0.248904
C96	C	1.033396	-0.506137	-0.174080
C97	C	1.082790	-0.460865	-0.220261
C98	C	1.087886	-0.451757	-0.341271
C99	C	1.043587	-0.487922	-0.416095
H100	H	0.952531	-0.575817	-0.214713
H101	H	1.029623	-0.512879	-0.084500
H102	H	1.115583	-0.434092	-0.164872
H103	H	1.124452	-0.418242	-0.375462
H104	H	1.047359	-0.481180	-0.505675
H105	H	0.881390	-0.196939	-0.946814
C106	C	0.541494	-0.218594	-0.656001
C107	C	0.577709	-0.174376	-0.731022
C108	C	0.541610	-0.130149	-0.806056
C109	C	0.469298	-0.130139	-0.806067
C110	C	0.433079	-0.174359	-0.731043
C111	C	0.469177	-0.218586	-0.656010
H112	H	0.631243	-0.174381	-0.731016
H113	H	0.568422	-0.097414	-0.861594
H114	H	0.442575	-0.097399	-0.861611
H115	H	0.379545	-0.174353	-0.731049
H116	H	0.442366	-0.251320	-0.600472
H117	H	0.987503	-0.225237	-1.079556
H118	H	0.938082	-0.408864	-1.079811
H119	H	0.982731	-0.661858	-0.389384
C120	C	0.825068	-0.671307	-0.655594
C121	C	0.775676	-0.716579	-0.609409
C122	C	0.731381	-0.752753	-0.684229
C123	C	0.736478	-0.743654	-0.805235
C124	C	0.785872	-0.698380	-0.851426
C125	C	0.830167	-0.662207	-0.776606
H126	H	0.771901	-0.723316	-0.519827
H127	H	0.694816	-0.786268	-0.650035
H128	H	0.703688	-0.770432	-0.860621
H129	H	0.789647	-0.691644	-0.941007
H130	H	0.866732	-0.628692	-0.810800
C131	C	0.541261	-0.387464	-0.369564
C132	C	0.496065	-0.360119	-0.286097
C133	C	0.459845	-0.404344	-0.211086
C134	C	0.468820	-0.475913	-0.219542
C135	C	0.514017	-0.503261	-0.303012
C136	C	0.550238	-0.459037	-0.378023
H137	H	0.489420	-0.307136	-0.279834
H138	H	0.426387	-0.384099	-0.149296
H139	H	0.442008	-0.508651	-0.164014
H140	H	0.520663	-0.556245	-0.309275
H141	H	0.583696	-0.479282	-0.439813
H142	H	0.269303	-0.230025	-0.636545
C143	C	0.825019	-0.533250	-0.655559
C144	C	0.852251	-0.487980	-0.739149
C145	C	0.807928	-0.451837	-0.813945
C146	C	0.736373	-0.460963	-0.805150
C147	C	0.709137	-0.506234	-0.721557
C148	C	0.753460	-0.542378	-0.646762
H149	H	0.905224	-0.481223	-0.745662
H150	H	0.828091	-0.418324	-0.875826
H151	H	0.703563	-0.434207	-0.860518
H152	H	0.656164	-0.512992	-0.715044
H153	H	0.733297	-0.575891	-0.584880
C154	C	0.994343	-0.934030	-0.370033
C155	C	1.038667	-0.970170	-0.295243
C156	C	1.082963	-0.933998	-0.220423
C157	C	1.082935	-0.861685	-0.220392
C158	C	1.038609	-0.825541	-0.295184
C159	C	0.994313	-0.861713	-0.370004
H160	H	1.038689	-1.023704	-0.295264
H161	H	1.115776	-0.960754	-0.165057
H162	H	1.115725	-0.834908	-0.165005
H163	H	1.038586	-0.772007	-0.295163
H164	H	0.961500	-0.834957	-0.425370
C165	C	0.994398	-1.072087	-0.370080
C166	C	0.967164	-1.117357	-0.286493
C167	C	1.011485	-1.153495	-0.211687
C168	C	1.083040	-1.144363	-0.220469
C169	C	1.110278	-1.099091	-0.304060
C170	C	1.065957	-1.062952	-0.378865
H171	H	0.914191	-1.124119	-0.279990
H172	H	0.991322	-1.187009	-0.149808
H173	H	1.115850	-1.171114	-0.165093
H174	H	1.163251	-1.092328	-0.310563
H175	H	1.086120	-1.029439	-0.440745
C176	C	0.825215	-1.072144	-0.655715
C177	C	0.825237	-1.144457	-0.655738
C178	C	0.780939	-1.180629	-0.730555
C179	C	0.736617	-1.144488	-0.805348
C180	C	0.736593	-1.072171	-0.805328
C181	C	0.780892	-1.035999	-0.730511
H182	H	0.858048	-1.171214	-0.600370
H183	H	0.780957	-1.234163	-0.730570
H184	H	0.703825	-1.171265	-0.860732
H185	H	0.703782	-1.045414	-0.860697
H186	H	0.780874	-0.982465	-0.730496
H187	H	0.149827	-0.375900	-0.389098
H188	H	0.836680	-0.943483	-0.636243
H189	H	0.832111	-0.380557	-0.946866
