data_functionalizedCrystal
_audit_creation_method	'MofGen! by Chris Wilmer'
_symmetry_space_group_name_H-M	'P1'
_symmetry_Int_Tables_number	1
_symmetry_cell_setting	triclinic
loop_
_symmetry_equiv_pos_as_xyz
  x,y,z
_cell_length_a	13.185408
_cell_length_b	16.992695
_cell_length_c	15.455301
_cell_angle_alpha	87.173129
_cell_angle_beta	93.612142
_cell_angle_gamma	108.679139
loop_
_atom_site_label
_atom_site_type_symbol
_atom_site_fract_x
_atom_site_fract_y
_atom_site_fract_z
O1	O	1.433929	0.198459	0.072061
O2	O	1.123234	0.120415	0.072078
O3	O	1.277336	0.273317	0.072063
O4	O	1.279828	0.045557	0.072077
O5	O	1.268429	0.277567	-0.072199
O6	O	1.114327	0.124665	-0.072184
O7	O	1.425022	0.202709	-0.072201
Cu8	Cu	1.268861	0.164075	-0.085365
Cu9	Cu	1.279395	0.159049	0.085242
O10	O	1.270920	0.049807	-0.072186
C11	C	1.078842	0.114628	-0.000051
C12	C	0.959836	0.091062	-0.000044
C13	C	0.897279	0.007155	-0.000037
C14	C	0.785465	-0.014989	-0.000044
C15	C	0.736199	0.046772	-0.000050
C16	C	0.798756	0.130680	-0.000051
C17	C	0.910580	0.152826	-0.000051
C18	C	0.749500	0.192443	-0.000064
C19	C	0.812058	0.276352	-0.000065
C20	C	0.923871	0.298494	-0.000065
C21	C	0.973137	0.236733	-0.000058
C22	C	0.637677	0.170297	-0.000064
C23	C	0.650978	0.315969	-0.000078
C24	C	0.762791	0.338113	-0.000071
C25	C	1.269678	0.303978	-0.000068
C26	C	1.260116	0.389005	-0.000067
C27	C	1.469415	0.208496	-0.000070
C28	C	1.588421	0.232062	-0.000071
C29	C	1.278579	0.019145	-0.000053
C30	C	1.288140	-0.065881	-0.000048
N31	N	1.261460	0.167613	-0.205361
C32	C	1.352370	0.458713	-0.000073
C33	C	1.343380	0.538602	-0.000064
C34	C	1.242136	0.548782	-0.000056
C35	C	1.149875	0.479066	-0.000047
C36	C	1.158867	0.399178	-0.000050
C37	C	1.204871	0.784515	-0.000042
C38	C	1.195887	0.864411	-0.000042
C39	C	1.389393	0.923942	-0.000058
C40	C	1.398374	0.844050	-0.000065
C41	C	1.306115	0.774341	-0.000052
N42	N	1.232944	0.630441	-0.000050
N43	N	1.315307	0.692684	-0.000052
C44	C	1.327675	0.135928	-0.250752
C45	C	1.322092	0.138611	-0.341560
C46	C	1.250287	0.172974	-0.386975
C47	C	1.184070	0.204663	-0.341578
C48	C	1.189659	0.201985	-0.250771
C49	C	1.226176	0.184530	-0.658558
C50	C	1.220589	0.187204	-0.749371
C51	C	1.358613	0.121153	-0.749347
C52	C	1.364192	0.118473	-0.658539
C53	C	1.297978	0.150166	-0.613149
N54	N	1.244576	0.175715	-0.479796
N55	N	1.303695	0.147430	-0.520330
N56	N	1.286804	0.155519	0.205238
H57	H	0.813741	0.406432	-0.000072
H58	H	1.376013	0.112812	-0.378514
C59	C	1.509751	0.832861	-0.000076
N60	N	1.593641	0.824434	-0.000087
H61	H	0.610868	0.366258	-0.000043
H62	H	1.129746	0.727766	-0.000031
C63	C	1.153329	0.219385	-0.608641
N64	N	1.098455	0.245637	-0.571041
C65	C	1.463747	0.447526	-0.000083
N66	N	1.547640	0.439102	-0.000086
H67	H	1.162112	0.215184	-0.786345
C68	C	1.084506	0.875603	-0.000026
N69	N	1.000618	0.884034	-0.000014
H70	H	1.125610	0.232647	-0.378562
H71	H	1.418503	0.595358	-0.000071
H72	H	1.135740	0.227786	-0.213815
C73	C	1.443189	0.080678	-0.608589
N74	N	1.502691	0.052210	-0.570966
H75	H	0.734539	-0.083307	-0.000043
H76	H	1.464505	0.980706	-0.000067
C77	C	1.096138	0.261088	-0.000060
N78	N	1.188784	0.279429	-0.000065
H79	H	0.974802	0.366818	-0.000076
C80	C	1.038505	0.490266	-0.000045
N81	N	0.954617	0.498701	-0.000050
H82	H	1.083744	0.342420	-0.000045
H83	H	0.645155	0.028737	-0.000057
C84	C	1.431451	0.086301	-0.799283
N85	N	1.486320	0.060053	-0.836895
H86	H	0.586753	0.101978	-0.000065
C87	C	1.406667	0.098127	-0.200804
N88	N	1.466169	0.069657	-0.163185
H89	H	0.937402	-0.043121	-0.000039
