data_functionalizedCrystal
_audit_creation_method	'MofGen! by Chris Wilmer'
_symmetry_space_group_name_H-M	'P1'
_symmetry_Int_Tables_number	1
_symmetry_cell_setting	triclinic
loop_
_symmetry_equiv_pos_as_xyz
  x,y,z
_cell_length_a	19.805405
_cell_length_b	19.805407
_cell_length_c	19.805398
_cell_angle_alpha	90.012745
_cell_angle_beta	89.969674
_cell_angle_gamma	89.977440
loop_
_atom_site_label
_atom_site_type_symbol
_atom_site_fract_x
_atom_site_fract_y
_atom_site_fract_z
Zn1	Zn	-0.269542	-1.034693	-0.382705
Zn2	Zn	-0.019542	-0.784693	-0.132705
Zn3	Zn	0.230458	-0.534693	0.117295
Zn4	Zn	0.480458	-0.284693	0.367295
Zn5	Zn	-0.382732	-1.034620	-0.269513
Zn6	Zn	-0.132732	-0.784620	-0.019513
Zn7	Zn	0.117268	-0.534620	0.230487
Zn8	Zn	0.367268	-0.284620	0.480487
Zn9	Zn	-0.269555	-0.921520	-0.269530
Zn10	Zn	-0.019555	-0.671520	-0.019530
Zn11	Zn	0.230445	-0.421520	0.230470
Zn12	Zn	0.480445	-0.171520	0.480470
Zn13	Zn	-0.382686	-0.921471	-0.382661
Zn14	Zn	-0.132686	-0.671471	-0.132661
Zn15	Zn	0.117314	-0.421471	0.117339
Zn16	Zn	0.367314	-0.171471	0.367339
O17	O	-0.326129	-0.978076	-0.326102
O18	O	-0.076129	-0.728076	-0.076102
O19	O	0.173871	-0.478076	0.173898
O20	O	0.423871	-0.228076	0.423898
O21	O	-0.284570	-1.129399	-0.367701
O22	O	-0.034570	-0.879399	-0.117701
O23	O	0.215430	-0.629399	0.132299
O24	O	0.465430	-0.379399	0.382299
O25	O	-0.367743	-1.019607	-0.174799
O26	O	-0.117743	-0.769607	0.075201
O27	O	0.132257	-0.519607	0.325201
O28	O	0.382257	-0.269607	0.575201
O29	O	-0.174836	-0.936583	-0.284569
O30	O	0.075164	-0.686583	-0.034569
O31	O	0.325164	-0.436583	0.215431
O32	O	0.575164	-0.186583	0.465431
O33	O	-0.367731	-1.129346	-0.284540
O34	O	-0.117731	-0.879346	-0.034540
O35	O	0.132269	-0.629346	0.215460
O36	O	0.382269	-0.379346	0.465460
O37	O	-0.174827	-1.019731	-0.367717
O38	O	0.075173	-0.769731	-0.117717
O39	O	0.325173	-0.519731	0.132283
O40	O	0.575173	-0.269731	0.382283
O41	O	-0.284592	-0.936513	-0.174811
O42	O	-0.034592	-0.686513	0.075189
O43	O	0.215408	-0.436513	0.325189
O44	O	0.465408	-0.186513	0.575189
O45	O	-0.284548	-0.826797	-0.284526
O46	O	-0.034548	-0.576797	-0.034526
O47	O	0.215452	-0.326797	0.215474
O48	O	0.465452	-0.076797	0.465474
O49	O	-0.367653	-0.936500	-0.477383
O50	O	-0.117653	-0.686500	-0.227383
O51	O	0.132347	-0.436500	0.022617
O52	O	0.382347	-0.186500	0.272617
O53	O	-0.367666	-0.826761	-0.367642
O54	O	-0.117666	-0.576761	-0.117642
O55	O	0.132334	-0.326761	0.132358
O56	O	0.382334	-0.076761	0.382358
O57	O	-0.284526	-1.019683	-0.477415
O58	O	-0.034526	-0.769683	-0.227415
O59	O	0.215474	-0.519683	0.022585
O60	O	0.465474	-0.269683	0.272585
O61	O	-0.477442	-1.019560	-0.284497
O62	O	-0.227442	-0.769560	-0.034497
O63	O	0.022558	-0.519560	0.215503
O64	O	0.272558	-0.269560	0.465503
O65	O	-0.477409	-0.936429	-0.367626
O66	O	-0.227409	-0.686429	-0.117626
O67	O	0.022591	-0.436429	0.132374
O68	O	0.272591	-0.186429	0.382374
C69	C	-0.326104	-0.802220	-0.326081
C70	C	-0.076104	-0.552220	-0.076081
C71	C	0.173896	-0.302220	0.173919
C72	C	0.423896	-0.052220	0.423919
C73	C	-0.326110	-0.726988	-0.326089
C74	C	-0.076110	-0.476988	-0.076089
C75	C	0.173890	-0.226988	0.173911
C76	C	0.423890	0.023012	0.423911
C77	C	-0.501985	-0.978000	-0.326069
C78	C	-0.251985	-0.728000	-0.076069
C79	C	-0.001985	-0.478000	0.173931
C80	C	0.248015	-0.228000	0.423931
C81	C	-0.577217	-0.978029	-0.326078
C82	C	-0.327217	-0.728029	-0.076078
C83	C	-0.077217	-0.478029	0.173922
C84	C	0.172783	-0.228029	0.423922
C85	C	-0.282884	-0.691672	-0.369456
C86	C	-0.032884	-0.441672	-0.119456
C87	C	0.217116	-0.191672	0.130544
C88	C	0.467116	0.058328	0.380544
C89	C	-0.282886	-0.620984	-0.369457
C90	C	-0.032886	-0.370984	-0.119457
C91	C	0.217114	-0.120984	0.130543
C92	C	0.467114	0.129016	0.380543
C93	C	-0.326118	-0.585612	-0.326093
C94	C	-0.076118	-0.335612	-0.076093
C95	C	0.173882	-0.085612	0.173907
C96	C	0.423882	0.164388	0.423907
C97	C	-0.369345	-0.620933	-0.282721
C98	C	-0.119345	-0.370933	-0.032721
C99	C	0.130655	-0.120933	0.217279
C100	C	0.380655	0.129067	0.467279
C101	C	-0.369339	-0.691620	-0.282718
C102	C	-0.119339	-0.441620	-0.032718
C103	C	0.130661	-0.191620	0.217282
C104	C	0.380661	0.058380	0.467282
C105	C	-0.369370	-0.335860	-0.282735
C106	C	-0.119370	-0.085860	-0.032735
C107	C	0.130630	0.164140	0.217265
C108	C	0.380630	0.414140	0.467265
C109	C	-0.369374	-0.265168	-0.282744
C110	C	-0.119374	-0.015168	-0.032744
C111	C	0.130626	0.234832	0.217256
C112	C	0.380626	0.484832	0.467256
C113	C	-0.282917	-0.265223	-0.369474
C114	C	-0.032917	-0.015223	-0.119474
C115	C	0.217083	0.234777	0.130526
C116	C	0.467083	0.484777	0.380526
C117	C	-0.282911	-0.335910	-0.369470
C118	C	-0.032911	-0.085910	-0.119470
C119	C	0.217089	0.164090	0.130530
C120	C	0.467089	0.414090	0.380530
C121	C	-0.326135	-0.371225	-0.326096
C122	C	-0.076135	-0.121225	-0.076096
C123	C	0.173865	0.128775	0.173904
C124	C	0.423865	0.378775	0.423904
C125	C	-0.326132	-0.447873	-0.326095
C126	C	-0.076132	-0.197873	-0.076095
C127	C	0.173868	0.052127	0.173905
C128	C	0.423868	0.302127	0.423905
C129	C	-0.326125	-0.508965	-0.326098
C130	C	-0.076125	-0.258965	-0.076098
C131	C	0.173875	-0.008965	0.173902
C132	C	0.423875	0.241035	0.423902
C133	C	-0.612556	-1.021357	-0.282838
C134	C	-0.362556	-0.771357	-0.032838
C135	C	-0.112556	-0.521357	0.217162
C136	C	0.137444	-0.271357	0.467162
C137	C	-0.683244	-1.021386	-0.282853
C138	C	-0.433244	-0.771386	-0.032853
C139	C	-0.183244	-0.521386	0.217147
C140	C	0.066756	-0.271386	0.467147
C141	C	-0.718592	-0.978083	-0.326105
C142	C	-0.468592	-0.728083	-0.076105
C143	C	-0.218592	-0.478083	0.173895
C144	C	0.031408	-0.228083	0.423895
C145	C	-0.683248	-0.934753	-0.369350
C146	C	-0.433248	-0.684753	-0.119350
C147	C	-0.183248	-0.434753	0.130650
C148	C	0.066752	-0.184753	0.380650
C149	C	-0.612561	-0.934728	-0.369338
C150	C	-0.362561	-0.684728	-0.119338
C151	C	-0.112561	-0.434728	0.130662
C152	C	0.137439	-0.184728	0.380662
C153	C	-0.968321	-0.934852	-0.369400
C154	C	-0.718321	-0.684852	-0.119400
C155	C	-0.468321	-0.434852	0.130600
C156	C	-0.218321	-0.184852	0.380600
C157	C	-1.039013	-0.934879	-0.369407
C158	C	-0.789013	-0.684879	-0.119407
C159	C	-0.539013	-0.434879	0.130593
C160	C	-0.289013	-0.184879	0.380593
C161	C	-1.039005	-1.021510	-0.282915
C162	C	-0.789005	-0.771510	-0.032915
C163	C	-0.539005	-0.521510	0.217085
C164	C	-0.289005	-0.271510	0.467085
C165	C	-0.968317	-1.021486	-0.282903
C166	C	-0.718317	-0.771486	-0.032903
C167	C	-0.468317	-0.521486	0.217097
C168	C	-0.218317	-0.271486	0.467097
C169	C	-0.932980	-0.978159	-0.326150
C170	C	-0.682980	-0.728159	-0.076150
C171	C	-0.432980	-0.478159	0.173850
C172	C	-0.182980	-0.228159	0.423850
C173	C	-0.856331	-0.978129	-0.326134
C174	C	-0.606331	-0.728129	-0.076134
C175	C	-0.356331	-0.478129	0.173866
C176	C	-0.106331	-0.228129	0.423866
C177	C	-0.795239	-0.978108	-0.326118
C178	C	-0.545239	-0.728108	-0.076118
C179	C	-0.295239	-0.478108	0.173882
C180	C	-0.045239	-0.228108	0.423882
C181	C	-0.149586	-0.978171	-0.326150
C182	C	0.100414	-0.728171	-0.076150
C183	C	0.350414	-0.478171	0.173850
C184	C	0.600414	-0.228171	0.423850
C185	C	-0.074354	-0.978211	-0.326170
C186	C	0.175646	-0.728211	-0.076170
C187	C	0.425646	-0.478211	0.173830
C188	C	0.675646	-0.228211	0.423830
C189	C	-0.326083	-0.978094	-0.502645
C190	C	-0.076083	-0.728094	-0.252645
C191	C	0.173917	-0.478094	-0.002645
C192	C	0.423917	-0.228094	0.247355
C193	C	-0.326063	-0.978102	-0.577877
C194	C	-0.076063	-0.728102	-0.327877
C195	C	0.173937	-0.478102	-0.077877
C196	C	0.423937	-0.228102	0.172123
C197	C	-0.326149	-0.154619	-0.326117
C198	C	-0.076149	0.095381	-0.076117
C199	C	0.173851	0.345381	0.173883
C200	C	0.423851	0.595381	0.423883
C201	C	-0.326144	-0.229851	-0.326108
C202	C	-0.076144	0.020149	-0.076108
C203	C	0.173856	0.270149	0.173892
C204	C	0.423856	0.520149	0.423892
C205	C	-0.369252	-1.021476	-1.039659
C206	C	-0.119252	-0.771476	-0.789659
C207	C	0.130748	-0.521476	-0.539659
C208	C	0.380748	-0.271476	-0.289659
C209	C	-0.369271	-1.021457	-0.968971
C210	C	-0.119271	-0.771457	-0.718971
C211	C	0.130729	-0.521457	-0.468971
C212	C	0.380729	-0.271457	-0.218971
C213	C	-0.325987	-0.978186	-0.933639
C214	C	-0.075987	-0.728186	-0.683639
C215	C	0.174013	-0.478186	-0.433639
C216	C	0.424013	-0.228186	-0.183639
C217	C	-0.282687	-0.934926	-0.968999
C218	C	-0.032687	-0.684926	-0.718999
C219	C	0.217313	-0.434926	-0.468999
C220	C	0.467313	-0.184926	-0.218999
C221	C	-0.282673	-0.934941	-1.039686
C222	C	-0.032673	-0.684941	-0.789686
C223	C	0.217327	-0.434941	-0.539686
C224	C	0.467327	-0.184941	-0.289686
C225	C	-0.282745	-0.934860	-0.683926
C226	C	-0.032745	-0.684860	-0.433926
C227	C	0.217255	-0.434860	-0.183926
C228	C	0.467255	-0.184860	0.066074
C229	C	-0.282761	-0.934849	-0.613234
C230	C	-0.032761	-0.684849	-0.363234
C231	C	0.217239	-0.434849	-0.113234
C232	C	0.467239	-0.184849	0.136766
C233	C	-0.369343	-1.021376	-0.613210
C234	C	-0.119343	-0.771376	-0.363210
C235	C	0.130657	-0.521376	-0.113210
C236	C	0.380657	-0.271376	0.136790
C237	C	-0.369329	-1.021391	-0.683897
C238	C	-0.119329	-0.771391	-0.433897
C239	C	0.130671	-0.521391	-0.183897
C240	C	0.380671	-0.271391	0.066103
C241	C	-0.326031	-0.978129	-0.719251
C242	C	-0.076031	-0.728129	-0.469251
C243	C	0.173969	-0.478129	-0.219251
C244	C	0.423969	-0.228129	0.030749
C245	C	-0.326013	-0.978149	-0.795900
C246	C	-0.076013	-0.728149	-0.545900
C247	C	0.173987	-0.478149	-0.295900
C248	C	0.423987	-0.228149	-0.045900
C249	C	-0.326002	-0.978169	-0.856992
C250	C	-0.076002	-0.728169	-0.606992
C251	C	0.173998	-0.478169	-0.356992
C252	C	0.423998	-0.228169	-0.106992
C253	C	-0.326125	-0.978097	-0.150246
C254	C	-0.076125	-0.728097	0.099754
C255	C	0.173875	-0.478097	0.349754
C256	C	0.423875	-0.228097	0.599754
C257	C	-0.325954	-0.978220	-0.075015
C258	C	-0.075954	-0.728220	0.174985
C259	C	0.174046	-0.478220	0.424985
C260	C	0.424046	-0.228220	0.674985
H261	H	-0.247681	-0.720466	-0.404769
H262	H	0.002319	-0.470466	-0.154769
H263	H	0.252319	-0.220466	0.095231
H264	H	0.502319	0.029534	0.345231
F265	F	-0.236910	-0.227633	-0.415636
F266	F	0.013090	0.022367	-0.165636
F267	F	0.263090	0.272367	0.084364
F268	F	0.513090	0.522367	0.334364
F269	F	-0.236880	-0.583401	-0.415615
F270	F	0.013120	-0.333401	-0.165615
F271	F	0.263120	-0.083401	0.084385
F272	F	0.513120	0.166599	0.334385
F273	F	-0.236614	-0.888880	-0.931394
F274	F	0.013386	-0.638880	-0.681394
F275	F	0.263386	-0.388880	-0.431394
F276	F	0.513386	-0.138880	-0.181394
H277	H	-0.404567	-0.364604	-0.247418
H278	H	-0.154567	-0.114604	0.002582
H279	H	0.095433	0.135396	0.252582
H280	H	0.345433	0.385396	0.502582
H281	H	-0.404537	-1.056671	-0.940188
H282	H	-0.154537	-0.806671	-0.690188
H283	H	0.095463	-0.556671	-0.440188
H284	H	0.345463	-0.306671	-0.190188
F285	F	-0.930701	-1.067574	-0.236868
F286	F	-0.680701	-0.817574	0.013132
F287	F	-0.430701	-0.567574	0.263132
F288	F	-0.180701	-0.317574	0.513132
F289	F	-0.236688	-0.888793	-0.721543
F290	F	0.013312	-0.638793	-0.471543
F291	F	0.263312	-0.388793	-0.221543
F292	F	0.513312	-0.138793	0.028457
F293	F	-0.415353	-0.583286	-0.236567
F294	F	-0.165353	-0.333286	0.013433
F295	F	0.084647	-0.083286	0.263433
F296	F	0.334647	0.166714	0.513433
H297	H	-0.404496	-1.056715	-1.068421
H298	H	-0.154496	-0.806715	-0.818421
H299	H	0.095504	-0.556715	-0.568421
H300	H	0.345504	-0.306715	-0.318421
H301	H	-0.404538	-0.720373	-0.247403
H302	H	-0.154538	-0.470373	0.002597
H303	H	0.095462	-0.220373	0.252597
H304	H	0.345462	0.029627	0.502597
H305	H	-0.247709	-0.364706	-0.404784
H306	H	0.002291	-0.114706	-0.154784
H307	H	0.252291	0.135294	0.095216
H308	H	0.502291	0.385294	0.345216
F309	F	-0.415396	-1.067448	-0.721496
F310	F	-0.165396	-0.817448	-0.471496
F311	F	0.084604	-0.567448	-0.221496
F312	F	0.334604	-0.317448	0.028504
H313	H	-0.247512	-0.899610	-0.584468
H314	H	0.002488	-0.649610	-0.334468
H315	H	0.252488	-0.399610	-0.084468
H316	H	0.502488	-0.149610	0.165532
H317	H	-0.404580	-0.236370	-0.247430
H318	H	-0.154580	0.013630	0.002570
H319	H	0.095420	0.263630	0.252570
H320	H	0.345420	0.513630	0.502570
F321	F	-1.076619	-1.067627	-0.236891
F322	F	-0.826619	-0.817627	0.013109
F323	F	-0.576619	-0.567627	0.263109
F324	F	-0.326619	-0.317627	0.513109
H325	H	-0.939555	-0.899573	-0.404612
H326	H	-0.689555	-0.649573	-0.154612
H327	H	-0.439555	-0.399573	0.095388
H328	H	-0.189555	-0.149573	0.345388
H329	H	-0.583780	-1.056616	-0.247614
H330	H	-0.333780	-0.806616	0.002386
H331	H	-0.083780	-0.556616	0.252386
H332	H	0.166220	-0.306616	0.502386
H333	H	-0.247414	-0.899719	-1.068472
H334	H	0.002586	-0.649719	-0.818472
H335	H	0.252586	-0.399719	-0.568472
H336	H	0.502586	-0.149719	-0.318472
H337	H	-0.712014	-1.056667	-0.247642
H338	H	-0.462014	-0.806667	0.002358
H339	H	-0.212014	-0.556667	0.252358
H340	H	0.037986	-0.306667	0.502358
H341	H	-0.404600	-1.056600	-0.584416
H342	H	-0.154600	-0.806600	-0.334416
H343	H	0.095400	-0.556600	-0.084416
H344	H	0.345400	-0.306600	0.165584
F345	F	-0.720870	-0.888670	-0.415386
F346	F	-0.470870	-0.638670	-0.165386
F347	F	-0.220870	-0.388670	0.084614
F348	F	0.029130	-0.138670	0.334614
F349	F	-1.076632	-0.888789	-0.415445
F350	F	-0.826632	-0.638789	-0.165445
F351	F	-0.576632	-0.388789	0.084555
F352	F	-0.326632	-0.138789	0.334555
H353	H	-0.583789	-0.899447	-0.404549
H354	H	-0.333789	-0.649447	-0.154549
H355	H	-0.083789	-0.399447	0.095451
H356	H	0.166211	-0.149447	0.345451
