data_functionalizedCrystal
_audit_creation_method	'MofGen! by Chris Wilmer'
_symmetry_space_group_name_H-M	'P1'
_symmetry_Int_Tables_number	1
_symmetry_cell_setting	triclinic
loop_
_symmetry_equiv_pos_as_xyz
  x,y,z
_cell_length_a	14.044191
_cell_length_b	14.044190
_cell_length_c	8.140239
_cell_angle_alpha	89.991557
_cell_angle_beta	89.999659
_cell_angle_gamma	93.191777
loop_
_atom_site_label
_atom_site_type_symbol
_atom_site_fract_x
_atom_site_fract_y
_atom_site_fract_z
O1	O	1.277176	0.230199	-0.136568
O2	O	1.777176	0.730199	0.363432
O3	O	1.000503	0.221886	-0.136588
O4	O	1.500503	0.721886	0.363412
O5	O	1.134683	0.087706	-0.136546
O6	O	1.634683	0.587706	0.363454
O7	O	1.142996	0.364379	-0.136610
O8	O	1.642996	0.864379	0.363390
O9	O	1.134675	0.087704	0.136681
O10	O	1.634675	0.587704	0.636681
O11	O	1.000495	0.221884	0.136639
O12	O	1.500495	0.721884	0.636639
O13	O	1.277168	0.230197	0.136659
O14	O	1.777168	0.730197	0.636659
Zn15	Zn	1.138830	0.226040	0.180030
Zn16	Zn	1.638830	0.726040	0.680030
Zn17	Zn	1.138841	0.226043	-0.179959
Zn18	Zn	1.638841	0.726043	0.320041
O19	O	1.142988	0.364377	0.136617
O20	O	1.642988	0.864377	0.636617
C21	C	0.964877	0.218249	0.000024
C22	C	1.464877	0.718249	0.500024
C23	C	0.858734	0.207401	0.000018
C24	C	1.358734	0.707401	0.500018
C25	C	0.613277	0.264502	0.000021
C26	C	1.113277	0.764502	0.500021
C27	C	0.664400	0.187585	0.000036
C28	C	1.164400	0.687585	0.500036
C29	C	0.772537	0.198614	0.000026
C30	C	1.272537	0.698614	0.500026
C31	C	0.505130	0.253475	0.000031
C32	C	1.005130	0.753475	0.500031
C33	C	1.131043	0.052083	0.000072
C34	C	1.631043	0.552083	0.500072
C35	C	1.120195	-0.054060	0.000086
C36	C	1.620195	0.445940	0.500086
C37	C	1.177296	-0.299517	0.000025
C38	C	1.677296	0.200483	0.500025
C39	C	1.100379	-0.248394	0.000031
C40	C	1.600379	0.251606	0.500031
C41	C	1.111408	-0.140257	0.000062
C42	C	1.611408	0.359743	0.500062
C43	C	1.166269	-0.407664	-0.000005
C44	C	1.666269	0.092336	0.499995
C45	C	1.312794	0.233834	0.000044
C46	C	1.812794	0.733834	0.500044
C47	C	1.418937	0.244682	0.000039
C48	C	1.918937	0.744682	0.500039
C49	C	1.146628	0.400000	-0.000005
C50	C	1.646628	0.900000	0.499995
C51	C	1.157476	0.506143	-0.000029
C52	C	1.657476	1.006143	0.499971
N53	N	1.138830	0.226038	0.425712
N54	N	1.638830	0.726038	0.925712
N55	N	1.138848	0.226038	-0.425641
N56	N	1.638848	0.726038	0.074359
H57	H	0.626955	0.113453	-0.000063
H58	H	1.126955	0.613453	0.499937
H59	H	0.650720	0.338629	-0.000001
H60	H	1.150720	0.838629	0.499999
Br61	Br	0.976818	-0.310800	0.000016
Br62	Br	1.476818	0.189200	0.500016
H63	H	1.251423	-0.262074	0.000048
H64	H	1.751423	0.237926	0.500048
