data_functionalizedCrystal
_audit_creation_method	'MofGen! by Chris Wilmer'
_symmetry_space_group_name_H-M	'P1'
_symmetry_Int_Tables_number	1
_symmetry_cell_setting	triclinic
loop_
_symmetry_equiv_pos_as_xyz
  x,y,z
_cell_length_a	19.121241
_cell_length_b	21.295417
_cell_length_c	19.120904
_cell_angle_alpha	87.591662
_cell_angle_beta	90.124528
_cell_angle_gamma	92.464587
loop_
_atom_site_label
_atom_site_type_symbol
_atom_site_fract_x
_atom_site_fract_y
_atom_site_fract_z
Zn1	Zn	1.054845	-0.227282	0.442174
Zn2	Zn	1.059755	-0.327881	0.324928
Zn3	Zn	0.942612	-0.226908	0.319943
Zn4	Zn	0.937563	-0.336799	0.437114
O5	O	0.998694	-0.279717	0.381039
O6	O	1.153604	-0.237051	0.430824
O7	O	1.048383	-0.310598	0.226162
O8	O	0.957558	-0.138867	0.336189
O9	O	1.157211	-0.310960	0.344684
O10	O	1.040016	-0.139142	0.425991
O11	O	0.962319	-0.236414	0.222500
O12	O	0.843834	-0.245061	0.331283
O13	O	0.948953	-0.326160	0.535889
O14	O	0.840125	-0.325797	0.417367
O15	O	1.035120	-0.245698	0.539606
O16	O	1.043487	-0.417154	0.339778
O17	O	0.953713	-0.423706	0.422200
C18	C	0.816541	-0.286357	0.373235
C19	C	0.738615	-0.289213	0.369913
C20	C	0.700124	-0.252141	0.413269
C21	C	0.626905	-0.254822	0.410142
C22	C	0.592176	-0.294578	0.363661
C23	C	0.630672	-0.331651	0.320300
C24	C	0.703890	-0.328967	0.323425
C25	C	0.371197	-0.304601	0.351977
C26	C	0.297973	-0.307284	0.348857
C27	C	0.294211	-0.230453	0.438698
C28	C	0.367431	-0.227775	0.441822
C29	C	0.405921	-0.264846	0.398458
C30	C	0.517334	-0.297320	0.360465
C31	C	0.480762	-0.262100	0.401652
C32	C	0.998603	-0.443271	0.380997
C33	C	0.998628	-0.513238	0.381005
C34	C	1.045411	-0.542673	0.338135
C35	C	1.045443	-0.608415	0.338152
C36	C	0.998680	-0.644720	0.381031
C37	C	0.951893	-0.615278	0.423909
C38	C	0.951867	-0.549537	0.423896
N39	N	0.937121	-0.750438	0.383748
N40	N	0.937148	-0.812889	0.383756
C41	C	0.998757	-0.842793	0.381075
N42	N	1.060339	-0.807887	0.378370
N43	N	1.060312	-0.745430	0.378358
C44	C	0.998703	-0.716005	0.381051
C45	C	1.045579	-0.943512	0.338221
C46	C	1.045612	-1.009256	0.338243
C47	C	0.952056	-1.016118	0.423997
C48	C	0.952029	-0.950375	0.423979
C49	C	0.998790	-0.914077	0.381087
C50	C	1.181557	-0.273052	0.388875
C51	C	1.259483	-0.270212	0.392214
C52	C	0.990925	-0.286965	0.563896
C53	C	0.987615	-0.290054	0.641819
C54	C	0.998803	-0.115525	0.381099
C55	C	0.998849	-0.045556	0.381124
C56	C	1.006472	-0.272451	0.198896
C57	C	1.009918	-0.269180	0.120980
C58	C	1.030920	-0.249615	0.680363
C59	C	1.027801	-0.252515	0.753580
C60	C	0.981380	-0.295857	0.788250
C61	C	0.938070	-0.336298	0.749700
C62	C	0.941186	-0.333395	0.676485
C63	C	0.969724	-0.306717	1.009215
C64	C	0.966613	-0.309619	1.082435
C65	C	1.056343	-0.225834	1.086310
C66	C	1.059458	-0.222937	1.013093
C67	C	1.016146	-0.263376	0.974550
C68	C	0.978192	-0.298824	0.863088
C69	C	1.019330	-0.260406	0.899712
H70	H	0.269700	-0.339662	0.311007
O71	O	0.514522	-0.223575	0.446878
C72	C	0.554962	-0.259722	0.493872
H73	H	0.532692	-0.310283	0.497154
H74	H	0.553526	-0.239144	0.547909
H75	H	0.611367	-0.258970	0.474553
O76	O	0.906371	-0.650474	0.465523
C77	C	0.837155	-0.636424	0.447140
H78	H	0.836849	-0.587688	0.420119
H79	H	0.803530	-0.637333	0.496363
H80	H	0.815115	-0.672889	0.410075
O81	O	0.921553	-0.351803	1.116043
C82	C	0.937595	-0.413280	1.098803
H83	H	0.966799	-0.411502	1.046796
H84	H	0.887081	-0.443247	1.094127
H85	H	0.971876	-0.434802	1.141546
O86	O	1.091186	-1.037850	0.296735
C87	C	1.134742	-1.075726	0.338679
H88	H	1.136589	-1.057921	0.394079
H89	H	1.189819	-1.073412	0.315741
H90	H	1.113041	-1.126471	0.340134
H91	H	0.602390	-0.364019	0.282451
O92	O	0.589486	-0.218744	0.452160
C93	C	0.548822	-0.178012	0.410529
H94	H	0.573226	-0.171042	0.356264
H95	H	0.546932	-0.130645	0.435957
H96	H	0.493428	-0.199410	0.405701
H97	H	0.913770	-0.525571	0.458807
H98	H	0.262866	-0.200271	0.474002
H99	H	1.057123	-0.225114	0.871480
H100	H	1.091605	-0.192911	1.117700
H101	H	0.395702	-0.195404	0.479674
H102	H	0.905915	-0.366318	0.645102
H103	H	0.900271	-0.371586	0.777934
O104	O	1.091069	-0.908341	0.296542
C105	C	1.132362	-0.948422	0.258697
H106	H	1.133569	-0.996319	0.287531
H107	H	1.187912	-0.927071	0.253623
H108	H	1.108995	-0.954286	0.204337
O109	O	0.408472	-0.340675	0.309830
C110	C	0.362117	-0.376328	0.268126
H111	H	0.308711	-0.381600	0.294615
H112	H	0.383570	-0.424840	0.261443
H113	H	0.356585	-0.351377	0.214599
H114	H	0.735228	-0.359155	0.288119
H115	H	1.063066	-0.219587	0.784960
O116	O	1.076032	-0.207456	0.646797
C117	C	1.113596	-0.172396	0.696522
H118	H	1.082659	-0.173333	0.747480
H119	H	1.122008	-0.121686	0.675709
H120	H	1.166496	-0.193815	0.706586
H121	H	0.913931	-0.926408	0.458884
H122	H	1.097261	-0.187645	0.984870
O123	O	0.933202	-0.340992	0.896806
C124	C	0.971289	-0.381858	0.940873
H125	H	1.027441	-0.382863	0.921173
H126	H	0.945864	-0.431261	0.940608
H127	H	0.971360	-0.364498	0.996468
H128	H	1.083542	-0.632385	0.303243
H129	H	0.489050	-0.329690	0.322620
O130	O	0.906657	-1.051470	0.465588
C131	C	0.916726	-1.115808	0.456425
H132	H	0.942030	-1.121808	0.403327
H133	H	0.864019	-1.142939	0.458897
H134	H	0.952270	-1.134700	0.499639
H135	H	0.728395	-0.219769	0.451121
O136	O	1.090907	-0.507507	0.296459
C137	C	1.132196	-0.547590	0.258613
H138	H	1.133393	-0.595490	0.287441
H139	H	1.187750	-0.526246	0.253546
H140	H	1.108833	-0.553446	0.204250
O141	O	0.927584	-0.345908	0.971738
C142	C	0.884144	-0.310033	0.927448
H143	H	0.878908	-0.261489	0.949352
H144	H	0.830210	-0.334732	0.924288
H145	H	0.908185	-0.304869	0.872892
