data_functionalizedCrystal
_audit_creation_method	'MofGen! by Chris Wilmer'
_symmetry_space_group_name_H-M	'P1'
_symmetry_Int_Tables_number	1
_symmetry_cell_setting	triclinic
loop_
_symmetry_equiv_pos_as_xyz
  x,y,z
_cell_length_a	12.970454
_cell_length_b	27.440280
_cell_length_c	12.970454
_cell_angle_alpha	90.003933
_cell_angle_beta	59.999644
_cell_angle_gamma	59.998424
loop_
_atom_site_label
_atom_site_type_symbol
_atom_site_fract_x
_atom_site_fract_y
_atom_site_fract_z
Zr1	Zr	1.128405	0.469501	-0.135181
O2	O	1.343516	0.391682	-0.299828
O3	O	0.913308	0.493357	-0.084708
O4	O	1.128400	0.493357	-0.299800
O5	O	1.128423	0.391683	0.084932
O6	O	1.128380	0.573559	-0.299778
O7	O	1.128424	0.391682	-0.084736
O8	O	0.743620	0.573560	0.084982
O9	O	1.513184	0.391682	-0.299828
O10	O	1.001761	0.563386	-0.063166
O11	O	1.001775	0.503532	0.063439
O12	O	1.255018	0.503531	-0.189804
O13	O	1.255032	0.443677	-0.063199
Zr14	Zr	1.128372	0.597416	0.135453
Zr15	Zr	1.128373	0.597415	-0.135147
Zr16	Zr	1.128404	0.469502	0.135419
Zr17	Zr	1.399005	0.469501	-0.135183
Zr18	Zr	0.857772	0.597416	0.135454
O19	O	1.343469	0.573560	0.084979
O20	O	1.343471	0.573559	-0.299779
O21	O	1.343514	0.391683	0.084931
O22	O	0.913261	0.675235	0.300099
O23	O	0.913263	0.675235	-0.084659
O24	O	0.913306	0.493358	0.300051
O25	O	1.128354	0.675235	-0.084660
O26	O	1.128377	0.573561	0.300071
O27	O	1.128397	0.493358	0.300050
O28	O	1.128353	0.675235	0.085007
O29	O	1.513158	0.493357	-0.299802
O30	O	0.743619	0.573561	0.300073
O31	O	0.743594	0.675235	0.300100
O32	O	0.743595	0.675235	0.085009
O33	O	1.513182	0.391682	-0.084738
O34	O	1.513157	0.493357	-0.084711
O35	O	1.001759	0.563386	0.190076
O36	O	1.001745	0.623240	0.063471
O37	O	1.255002	0.563386	-0.063168
O38	O	1.255017	0.503532	0.063437
C39	C	0.789909	0.533459	0.000137
C40	C	0.675033	0.533459	0.000138
C41	C	1.128428	0.373457	0.000093
C42	C	1.128442	0.319155	0.000079
C43	C	0.996167	0.013700	0.066274
C44	C	0.996159	-0.037318	0.066285
O45	O	0.883730	-0.037135	0.122543
N46	N	1.128355	-0.094078	0.000180
C47	C	1.260568	-0.099819	-0.065930
O48	O	1.373010	-0.152783	-0.122155
C49	C	1.260574	-0.048802	-0.065933
C50	C	1.128370	0.007958	0.000166
C51	C	0.863973	0.070457	0.132369
C52	C	0.863982	0.121472	0.132355
C53	C	0.996184	0.115730	0.066247
C54	C	1.128378	0.058973	0.000153
C55	C	1.392786	-0.054543	-0.132035
C56	C	1.392781	-0.003519	-0.132031
C57	C	1.260576	0.053240	-0.065932
C58	C	1.260590	0.104245	-0.065969
N59	N	1.128393	0.161006	0.000136
C60	C	0.996191	0.166748	0.066244
C61	C	1.260544	-0.206958	-0.065916
C62	C	1.260539	-0.257975	-0.065922
C63	C	0.996130	-0.195470	0.066296
C64	C	0.996136	-0.144453	0.066293
C65	C	1.128348	-0.150198	0.000189
C66	C	0.996219	0.273880	0.066210
C67	C	0.996239	0.324897	0.066187
C68	C	1.260648	0.262388	-0.066024
C69	C	1.260628	0.211375	-0.066007
C70	C	1.128402	0.217126	0.000120
O71	O	1.372961	0.104108	-0.122193
O72	O	0.883767	0.219713	0.122474
C73	C	1.466868	0.533459	0.000134
C74	C	1.581745	0.533459	0.000133
C75	C	1.128390	0.533458	-0.338344
C76	C	1.128391	0.533458	-0.453220
C77	C	1.128349	0.693460	0.000178
C78	C	1.128336	0.747763	0.000192
C79	C	1.128387	0.533459	0.338615
C80	C	1.128386	0.533460	0.453492
C81	C	0.789870	0.693460	0.000180
C82	C	0.674980	0.747763	0.000195
C83	C	0.789908	0.533459	0.338617
C84	C	0.675030	0.533460	0.453494
C85	C	0.789868	0.693460	0.338659
C86	C	0.674977	0.747764	0.453551
C87	C	1.466909	0.373457	-0.338388
C88	C	1.581800	0.319154	-0.453279
C89	C	1.466908	0.373458	0.000091
C90	C	1.581798	0.319155	0.000077
C91	C	1.466870	0.533458	-0.338345
C92	C	1.581747	0.533458	-0.453223
C93	C	0.621034	0.742020	-0.065913
C94	C	0.513097	0.793039	-0.065924
C95	C	0.459101	0.849799	0.000180
C96	C	0.513057	0.855540	0.066290
C97	C	0.620999	0.804522	0.066293
C98	C	0.621016	0.804514	0.441419
C99	C	0.513079	0.855542	0.549361
C100	C	0.459098	0.849819	0.669435
C101	C	0.513070	0.793063	0.681564
C102	C	0.621012	0.742036	0.573623
C103	C	1.635774	0.262404	-0.441147
C104	C	1.743745	0.211375	-0.549090
C105	C	1.797732	0.217098	-0.669164
C106	C	1.743753	0.273854	-0.681293
C107	C	1.635792	0.324881	-0.573352
C108	C	1.635755	0.324897	0.066173
C109	C	1.743721	0.273878	0.066154
C110	C	1.797721	0.217118	0.000046
C111	C	1.743760	0.211377	-0.066058
C112	C	1.635803	0.262395	-0.066046
H113	H	0.888577	0.371113	0.120016
H114	H	0.664908	0.809206	0.120133
H115	H	0.469078	0.901761	0.120109
O116	O	1.583085	0.380044	0.130553
C117	C	1.431827	0.411434	0.223316
H118	H	1.402287	0.378330	0.247883
H119	H	1.400796	0.439648	0.311585
H120	H	1.370088	0.441709	0.185492
O121	O	0.673641	0.686897	0.585354
C122	C	0.824901	0.655495	0.526848
H123	H	0.854472	0.688591	0.521850
H124	H	0.855913	0.627290	0.584098
H125	H	0.886630	0.625210	0.427289
O126	O	0.460411	0.910704	0.537734
C127	C	0.309161	0.942095	0.596204
H128	H	0.263369	0.922620	0.669769
H129	H	0.253248	0.991196	0.644130
H130	H	0.288559	0.937853	0.521995
H131	H	0.371204	0.891374	0.757317
O132	O	0.460833	0.787403	0.798113
C133	C	0.531572	0.726372	0.785695
H134	H	0.640991	0.699148	0.689375
H135	H	0.550156	0.719273	0.863118
H136	H	0.460773	0.711345	0.794552
H137	H	1.885640	0.175544	-0.757046
O138	O	1.796135	0.156216	-0.537451
C139	C	1.769754	0.124831	-0.595919
H140	H	1.756348	0.144304	-0.669496
H141	H	1.865635	0.075727	-0.643832
H142	H	1.665952	0.129084	-0.521711
O143	O	1.795910	0.279570	0.130491
C144	C	1.725101	0.340609	0.188826
H145	H	1.615696	0.367807	0.201906
H146	H	1.706481	0.347725	0.284848
H147	H	1.795865	0.355652	0.126899
H148	H	1.591874	0.257711	-0.119866
H149	H	1.885627	0.175581	0.000047
O150	O	0.354097	0.899399	0.000411
C151	C	0.229193	0.933575	0.125479
H152	H	0.261778	0.922429	0.193688
H153	H	0.176920	0.983070	0.138005
H154	H	0.147880	0.922864	0.145877
H155	H	0.664952	0.809185	0.343658
O156	O	1.583621	0.379973	-0.585321
C157	C	1.698813	0.386508	-0.651887
H158	H	1.806798	0.340575	-0.711435
H159	H	1.682564	0.413325	-0.716079
H160	H	1.700226	0.410910	-0.581977
O161	O	1.389055	-0.313077	-0.130326
C162	C	1.469462	-0.319629	-0.259357
H163	H	1.431863	-0.273701	-0.270170
H164	H	1.590403	-0.346466	-0.299860
H165	H	1.451140	-0.344017	-0.312379
H166	H	1.591824	0.257733	-0.343387
O167	O	1.796331	0.156194	-0.130155
C168	C	1.903204	0.112402	-0.116000
H169	H	1.885462	0.132301	-0.026730
H170	H	1.894460	0.073055	-0.108417
H171	H	2.016106	0.096441	-0.201405
H172	H	1.787723	0.278506	-0.779070
H173	H	0.664997	0.695808	-0.119758
H174	H	0.888548	0.278571	0.120058
H175	H	0.756327	0.167685	0.186175
H176	H	0.888483	-0.098239	0.120128
O177	O	0.735410	0.076149	0.196608
C178	C	0.618753	0.137190	0.254962
H179	H	0.657544	0.164386	0.203107
H180	H	0.526287	0.144313	0.251406
H181	H	0.578096	0.152230	0.357555
O182	O	1.521124	-0.009027	-0.196341
C183	C	1.529071	0.018591	-0.289141
H184	H	1.414295	0.053367	-0.261362
H185	H	1.585036	0.041239	-0.297154
H186	H	1.594309	-0.016498	-0.383944
H187	H	1.368214	-0.211644	-0.119752
O188	O	0.867609	-0.189820	0.130709
C189	C	0.787205	-0.158353	0.259739
H190	H	0.824792	-0.130191	0.270545
H191	H	0.666262	-0.128024	0.300248
H192	H	0.805545	-0.191398	0.312760
O193	O	1.521342	-0.109627	-0.196248
C194	C	1.638009	-0.103741	-0.254601
H195	H	1.599222	-0.058203	-0.202761
H196	H	1.730459	-0.140324	-0.251023
H197	H	1.678687	-0.107936	-0.357201
O198	O	1.389179	0.156282	-0.130260
C199	C	1.505864	0.162157	-0.188654
H200	H	1.467120	0.207685	-0.136813
H201	H	1.598341	0.125559	-0.185124
H202	H	1.546489	0.157976	-0.291240
H203	H	0.469179	0.788353	-0.119758
O204	O	1.388933	0.256922	-0.130127
C205	C	1.360575	0.314126	-0.115977
H206	H	1.246952	0.347949	-0.026706
H207	H	1.444993	0.313567	-0.108401
H208	H	1.366849	0.327117	-0.201381
