data_functionalizedCrystal
_audit_creation_method	'MofGen! by Chris Wilmer'
_symmetry_space_group_name_H-M	'P1'
_symmetry_Int_Tables_number	1
_symmetry_cell_setting	triclinic
loop_
_symmetry_equiv_pos_as_xyz
  x,y,z
_cell_length_a	12.759395
_cell_length_b	19.805405
_cell_length_c	19.805399
_cell_angle_alpha	90.029301
_cell_angle_beta	89.983760
_cell_angle_gamma	89.972053
loop_
_atom_site_label
_atom_site_type_symbol
_atom_site_fract_x
_atom_site_fract_y
_atom_site_fract_z
Zn1	Zn	1.606139	0.269451	-0.382651
Zn2	Zn	1.606007	0.382640	-0.269460
Zn3	Zn	1.430450	0.269473	-0.269483
Zn4	Zn	1.430394	0.382607	-0.382613
O5	O	1.518247	0.326043	-0.326052
O6	O	1.753142	0.284471	-0.367643
O7	O	1.582687	0.367651	-0.174746
O8	O	1.453835	0.174753	-0.284520
O9	O	1.753045	0.367630	-0.284481
O10	O	1.582912	0.174737	-0.367665
O11	O	1.453707	0.284508	-0.174763
O12	O	1.283422	0.284476	-0.284483
O13	O	1.453738	0.367573	-0.477335
O14	O	1.283380	0.367594	-0.367600
O15	O	1.582858	0.284439	-0.477363
O16	O	1.582632	0.477352	-0.284444
O17	O	1.453610	0.477328	-0.367577
C18	C	1.245280	0.326034	-0.326040
C19	C	1.128503	0.326047	-0.326051
C20	C	1.518129	0.501899	-0.326019
C21	C	1.518175	0.577131	-0.326028
C22	C	1.518306	0.326000	-0.502594
C23	C	1.518331	0.325982	-0.577826
C24	C	1.128498	0.412739	-0.412460
C25	C	1.073635	0.456090	-0.455667
C26	C	0.963914	0.456098	-0.455675
C27	C	0.909053	0.412749	-0.412474
C28	C	0.963916	0.369398	-0.369267
C29	C	1.073640	0.369396	-0.369262
C30	C	0.963921	0.282704	-0.282862
C31	C	1.073642	0.282698	-0.282850
C32	C	0.909060	0.239355	-0.239661
C33	C	0.963923	0.196006	-0.196450
C34	C	1.073651	0.196000	-0.196443
C35	C	1.128505	0.239347	-0.239643
C36	C	1.792281	0.326051	-0.326064
C37	C	1.909057	0.326055	-0.326069
C38	C	1.518395	0.149500	-0.326099
C39	C	1.518457	0.074268	-0.326120
C40	C	1.585422	0.612465	-0.282785
C41	C	1.585466	0.683153	-0.282800
C42	C	1.518258	0.718506	-0.326055
C43	C	1.451008	0.683167	-0.369302
C44	C	1.450969	0.612480	-0.369289
C45	C	1.451163	0.968240	-0.369352
C46	C	1.451204	1.038932	-0.369359
C47	C	1.585660	1.038914	-0.282863
C48	C	1.585621	0.968226	-0.282851
C49	C	1.518376	0.932893	-0.326100
C50	C	1.518330	0.856245	-0.326084
C51	C	1.518298	0.795153	-0.326067
C52	C	1.585565	0.282691	-0.613186
C53	C	1.585576	0.282672	-0.683875
C54	C	1.518357	0.325946	-0.719202
C55	C	1.451116	0.369239	-0.683837
C56	C	1.451101	0.369254	-0.613150
C57	C	1.451175	0.369176	-0.968911
C58	C	1.451198	0.369158	-1.039603
C59	C	1.585651	0.282593	-1.039636
C60	C	1.585635	0.282609	-0.968948
C61	C	1.518391	0.325898	-0.933590
C62	C	1.518378	0.325918	-0.856941
C63	C	1.518374	0.325930	-0.795849
C64	C	1.518249	0.326036	-0.150196
C65	C	1.518428	0.325864	-0.074964
H66	H	1.118315	0.491383	-0.490842
H67	H	0.819712	0.412754	-0.412490
H68	H	1.396290	0.711957	-0.404523
N69	N	1.658103	0.235976	-0.722001
H70	H	1.706776	0.263474	-0.751328
H71	H	1.615372	0.204603	-0.751292
H72	H	0.919246	0.160712	-0.161282
N73	N	1.378604	0.415899	-0.721948
H74	H	1.421272	0.447261	-0.751274
H75	H	1.336010	0.443281	-0.688784
H76	H	1.118314	0.160694	-0.161264
N77	N	0.790718	0.239365	-0.239662
H78	H	0.764284	0.273409	-0.273584
H79	H	0.764354	0.251723	-0.193182
H80	H	1.396211	0.583711	-0.404502
H81	H	1.217847	0.239348	-0.239640
N82	N	1.658120	0.930098	-0.236203
H83	H	1.647891	0.879957	-0.242757
H84	H	1.641825	0.942494	-0.187854
N85	N	1.378723	1.077068	-0.416019
H86	H	1.330075	1.106440	-0.388489
H87	H	1.336188	1.043919	-0.443409
H88	H	1.217839	0.412741	-0.412453
H89	H	0.919244	0.491395	-0.490861
H90	H	1.640306	0.247454	-0.584428
H91	H	1.640375	0.247372	-0.940188
N92	N	1.658190	1.077023	-0.236211
H93	H	1.648021	1.127167	-0.242780
H94	H	1.733209	1.064618	-0.246780
N95	N	1.657908	0.574337	-0.236130
H96	H	1.700518	0.607450	-0.208740
H97	H	1.706486	0.544963	-0.263705
H98	H	1.640225	0.711919	-0.247588
H99	H	1.640401	0.247342	-1.068433
H100	H	1.396456	0.404399	-1.068364
N101	N	1.378592	0.415952	-0.575011
H102	H	1.388779	0.409395	-0.524871
H103	H	1.303569	0.405412	-0.587363
H104	H	1.396436	0.404435	-0.940130
N105	N	1.378628	0.930136	-0.415991
H106	H	1.336054	0.963260	-0.443389
H107	H	1.330019	0.900854	-0.388404
