data_functionalizedCrystal
_audit_creation_method	'MofGen! by Chris Wilmer'
_symmetry_space_group_name_H-M	'P1'
_symmetry_Int_Tables_number	1
_symmetry_cell_setting	triclinic
loop_
_symmetry_equiv_pos_as_xyz
  x,y,z
_cell_length_a	6.817900
_cell_length_b	17.110486
_cell_length_c	17.110515
_cell_angle_alpha	96.938872
_cell_angle_beta	99.060823
_cell_angle_gamma	99.060439
loop_
_atom_site_label
_atom_site_type_symbol
_atom_site_fract_x
_atom_site_fract_y
_atom_site_fract_z
V1	V	-3.954941	-0.246618	-0.109247
O2	O	-3.966477	-0.242029	0.005492
O3	O	-3.885159	-0.244830	-0.216852
O4	O	-3.885157	-0.354223	-0.107460
O5	O	-3.966479	-0.131878	-0.104656
V6	V	-4.444110	-0.232906	-0.095535
O7	O	-4.203813	-0.276695	-0.139324
O8	O	-4.645434	-0.202829	-0.065458
O9	O	-4.290685	-0.234695	0.012069
O10	O	-4.549970	-0.237496	-0.210275
O11	O	-4.549969	-0.347646	-0.100126
O12	O	-4.290686	-0.125302	-0.097322
C13	C	-3.725650	-0.240913	-0.243087
C14	C	-3.749739	-0.240168	-0.331054
C15	C	-3.876867	-0.235766	-0.828378
C16	C	-3.854249	-0.236469	-0.745724
C17	C	-4.023447	-0.240759	-0.708426
C18	C	-4.215280	-0.244355	-0.753788
C19	C	-4.237897	-0.243658	-0.836441
C20	C	-3.964189	-0.243067	-0.459069
C21	C	-3.941555	-0.243762	-0.376409
C22	C	-3.580526	-0.235876	-0.368352
C23	C	-3.603159	-0.235175	-0.451006
C24	C	-3.794989	-0.238775	-0.496361
C25	C	-4.000331	-0.241475	-0.623940
C26	C	-3.818104	-0.238064	-0.580846
C27	C	-3.725648	-0.380454	-0.103546
C28	C	-3.749734	-0.468421	-0.102797
C29	C	-3.941552	-0.513775	-0.106394
C30	C	-3.964172	-0.596429	-0.105690
C31	C	-3.794974	-0.633728	-0.101394
C32	C	-3.603139	-0.588367	-0.097794
C33	C	-3.580520	-0.505713	-0.098493
C34	C	-3.854238	-0.883085	-0.099082
C35	C	-3.876873	-0.965744	-0.098386
C36	C	-4.237905	-0.973801	-0.106281
C37	C	-4.215270	-0.891146	-0.106984
C38	C	-4.023438	-0.845792	-0.103380
C39	C	-3.818092	-0.718213	-0.100677
C40	C	-4.000320	-0.761307	-0.104092
C41	C	-4.113536	-0.238609	0.038300
C42	C	-4.068683	-0.239359	0.126267
C43	C	-4.113539	-0.099066	-0.101239
C44	C	-4.068691	-0.011099	-0.101984
H45	H	-3.739083	-0.232274	-0.858740
H46	H	-4.138089	-0.244967	-0.593562
Br47	Br	-4.171204	-0.249604	-0.325793
Br48	Br	-4.171198	-0.463165	-0.112233
H49	H	-4.120366	-0.633353	-0.108615
H50	H	-4.353053	-0.860783	-0.110482
H51	H	-3.698055	-0.233541	-0.708799
Br52	Br	-4.229938	-0.710685	-0.109919
Br53	Br	-4.224526	-0.247948	-0.520611
H54	H	-3.680347	-0.234575	-0.611219
Br55	Br	-4.444913	-0.250186	-0.703171
H56	H	-3.465371	-0.231666	-0.481366
H57	H	-3.465375	-0.618741	-0.094291
H58	H	-4.394092	-0.246585	-0.873368
H59	H	-3.739080	-0.996110	-0.094886
H60	H	-3.424344	-0.232947	-0.331415
H61	H	-4.394088	-1.010737	-0.109214
H62	H	-3.698048	-0.846171	-0.096176
Br63	Br	-3.320182	-0.444158	-0.093599
H64	H	-3.680334	-0.748592	-0.097182
