data_functionalizedCrystal
_audit_creation_method	'MofGen! by Chris Wilmer'
_symmetry_space_group_name_H-M	'P1'
_symmetry_Int_Tables_number	1
_symmetry_cell_setting	triclinic
loop_
_symmetry_equiv_pos_as_xyz
  x,y,z
_cell_length_a	8.559649
_cell_length_b	15.944551
_cell_length_c	7.681481
_cell_angle_alpha	84.256492
_cell_angle_beta	94.913240
_cell_angle_gamma	76.638701
loop_
_atom_site_label
_atom_site_type_symbol
_atom_site_fract_x
_atom_site_fract_y
_atom_site_fract_z
O1	O	2.105021	-0.019570	-0.146399
O2	O	1.639821	0.023810	-0.146411
O3	O	1.885126	-0.120976	-0.146389
O4	O	1.859716	0.125215	-0.146421
O5	O	1.915319	-0.138833	0.146471
O6	O	1.670014	0.005953	0.146450
O7	O	2.135214	-0.037427	0.146461
Zn8	Zn	1.907408	-0.018572	0.192953
Zn9	Zn	1.867627	0.004955	-0.192903
O10	O	1.889909	0.107359	0.146439
C11	C	1.595387	0.018169	0.000018
C12	C	1.418008	0.027954	0.000014
C13	C	1.899168	-0.161130	0.000042
C14	C	1.896006	-0.254172	0.000042
C15	C	1.736394	-0.458726	0.000014
C16	C	1.825398	-0.533331	0.144414
C17	C	1.890284	-0.424528	0.000029
C18	C	1.795667	-0.515712	-0.144323
C19	C	1.884744	-0.589082	0.000008
C20	C	1.979342	-0.497915	0.144548
C21	C	1.949576	-0.480280	-0.144319
C22	C	2.038696	-0.554877	0.000116
C23	C	1.893471	-0.329732	0.000042
C24	C	1.881571	-0.683878	0.000007
C25	C	2.179647	-0.031786	0.000028
C26	C	2.357025	-0.041570	0.000021
C27	C	1.875866	0.147513	0.000005
C28	C	1.879027	0.240556	-0.000008
N29	N	1.934569	-0.034630	0.456290
N30	N	1.840479	0.021005	-0.456240
H31	H	1.334507	0.094969	-0.000004
C32	C	2.033868	-0.189546	0.513389
C33	C	2.064244	-0.111296	0.557810
H34	H	2.113928	-0.236874	0.576058
H35	H	1.930293	-0.193556	0.543546
H36	H	2.036809	-0.191281	0.390435
H37	H	2.061291	-0.109558	0.680763
H38	H	2.167846	-0.107285	0.527665
C39	C	1.627822	0.146743	0.561908
C40	C	1.710810	0.097667	0.442248
H41	H	1.547776	0.194074	0.499227
H42	H	1.577610	0.111173	0.633824
H43	H	1.701799	0.168276	0.633807
H44	H	1.636834	0.076129	0.370357
H45	H	1.761022	0.133243	0.370301
C46	C	1.499392	-0.429433	0.151600
C47	C	1.563985	-0.402637	0.000197
H48	H	1.392962	-0.394800	0.151720
H49	H	1.496310	-0.488645	0.152633
H50	H	1.565088	-0.423010	0.253127
H51	H	1.498295	-0.409065	-0.101331
H52	H	1.567057	-0.343410	-0.000853
C53	C	1.753691	-0.652530	0.308232
C54	C	1.754529	-0.564864	0.309208
H55	H	1.709940	-0.671993	0.409970
H56	H	1.689486	-0.659093	0.205705
H57	H	1.861087	-0.685961	0.308389
H58	H	1.647131	-0.531433	0.309037
H59	H	1.818734	-0.558295	0.411762
H60	H	2.056976	-0.489573	0.266760
H61	H	2.166550	-0.596291	0.000200
C62	C	1.629524	-0.124546	0.000045
C63	C	1.469725	-0.132035	0.000038
H64	H	1.699105	-0.180398	0.000067
H65	H	1.638399	-0.087865	-0.102080
H66	H	1.659447	-0.100309	0.102174
H67	H	1.439798	-0.156266	-0.102098
H68	H	1.460844	-0.168731	0.102174
H69	H	2.002022	-0.456903	-0.266401
H70	H	1.717971	-0.524143	-0.266411
