data_functionalizedCrystal
_audit_creation_method	'MofGen! by Chris Wilmer'
_symmetry_space_group_name_H-M	'P1'
_symmetry_Int_Tables_number	1
_symmetry_cell_setting	triclinic
loop_
_symmetry_equiv_pos_as_xyz
  x,y,z
_cell_length_a	11.892095
_cell_length_b	17.699083
_cell_length_c	17.699083
_cell_angle_alpha	83.283015
_cell_angle_beta	93.880337
_cell_angle_gamma	86.114923
loop_
_atom_site_label
_atom_site_type_symbol
_atom_site_fract_x
_atom_site_fract_y
_atom_site_fract_z
O1	O	0.093846	-1.008916	-0.090872
O2	O	0.093884	-0.788539	-0.103322
O3	O	0.093854	-0.904953	0.013092
O4	O	0.093876	-0.892502	-0.207286
O5	O	-0.094151	-0.895247	0.003400
O6	O	-0.094121	-0.778833	-0.113014
O7	O	-0.094159	-0.999210	-0.100563
Zn8	Zn	-0.123990	-0.887480	-0.108327
Zn9	Zn	0.123715	-0.900269	-0.095558
O10	O	-0.094129	-0.882796	-0.216977
C11	C	-0.000114	-0.755490	-0.107722
C12	C	-0.000100	-0.671472	-0.106382
C13	C	-0.000149	-0.899654	0.036443
C14	C	-0.000149	-0.898315	0.120461
N15	N	-0.293042	-0.878758	-0.117041
C16	C	-0.529713	-0.969691	-0.026159
C17	C	-0.648053	-0.963600	-0.032256
C18	C	-0.648065	-0.860481	-0.135327
C19	C	-0.529725	-0.866572	-0.129230
C20	C	-0.470553	-0.921180	-0.074645
C21	C	-0.352210	-0.927274	-0.068553
C22	C	-0.352224	-0.824152	-0.171620
C23	C	-0.470565	-0.818061	-0.177716
N24	N	0.292767	-0.908997	-0.086838
C25	C	-0.000158	-1.032260	-0.096164
C26	C	-0.000165	-1.116277	-0.097503
C27	C	-0.000094	-0.622852	-0.174715
C28	C	-0.000109	-0.543907	-0.173454
C29	C	-0.000122	-0.513586	-0.103858
C30	C	-0.000132	-0.562213	-0.035520
C31	C	-0.000125	-0.641155	-0.036783
C32	C	-0.000160	-0.243848	-0.030426
C33	C	-0.000163	-0.164900	-0.029168
C34	C	-0.000144	-0.146601	-0.167097
C35	C	-0.000137	-0.225543	-0.168360
C36	C	-0.000153	-0.274162	-0.100023
C37	C	-0.000139	-0.359762	-0.101391
C38	C	-0.000128	-0.427988	-0.102488
C39	C	-0.000124	-0.888095	-0.240328
C40	C	-0.000116	-0.889434	-0.324346
C41	C	-0.000162	-0.966648	0.169081
C42	C	-0.000152	-0.965386	0.248025
C43	C	-0.000137	-0.895791	0.278347
C44	C	-0.000120	-0.827453	0.229720
C45	C	-0.000122	-0.828716	0.150778
C46	C	-0.000110	-0.822358	0.548084
C47	C	-0.000111	-0.821100	0.627032
C48	C	-0.000140	-0.959029	0.645331
C49	C	-0.000142	-0.960292	0.566389
C50	C	-0.000119	-0.891955	0.517770
C51	C	-0.000128	-0.893324	0.432170
C52	C	-0.000136	-0.894420	0.363944
H53	H	-0.304034	-0.971740	-0.024109
H54	H	-0.481534	-1.014160	0.018281
N55	N	-0.711884	-0.801589	-0.194203
H56	H	-0.691297	-0.748950	-0.184501
H57	H	-0.795810	-0.805155	-0.190682
H58	H	-0.696218	-1.003101	0.007227
N59	N	-0.000085	-0.491469	-0.247156
H60	H	-0.000095	-0.436858	-0.235799
H61	H	-0.069770	-0.497682	-0.281091
H62	H	-0.000176	-0.140216	0.027508
N63	N	-0.000093	-0.748654	0.495652
H64	H	0.069606	-0.749700	0.466086
H65	H	-0.000128	-0.704419	0.526896
N66	N	-0.534388	-0.759162	-0.236583
H67	H	-0.618334	-0.762662	-0.233088
H68	H	-0.513701	-0.768873	-0.289199
N69	N	-0.000108	-0.258248	-0.243422
H70	H	-0.000105	-0.215467	-0.286521
H71	H	-0.069798	-0.287014	-0.250546
H72	H	-0.304043	-0.784653	-0.211103
H73	H	-0.000152	-1.014672	0.684926
H74	H	-0.000082	-0.647533	-0.231388
H75	H	-0.000182	-1.023321	0.144400
N76	N	-0.000130	-0.094161	-0.240808
H77	H	-0.000140	-0.039550	-0.229452
H78	H	-0.069817	-0.100375	-0.274740
N79	N	-0.000185	-0.296281	0.043277
H80	H	-0.000192	-0.265091	0.087554
H81	H	0.069508	-0.333029	0.049357
H82	H	-0.000165	-1.021030	0.287609
N83	N	-0.000164	-0.529512	0.039545
H84	H	-0.000167	-0.472125	0.029977
H85	H	0.069525	-0.550898	0.073038
H86	H	-0.000130	-0.680742	0.018861
N87	N	-0.000167	-1.035354	0.533684
H88	H	-0.000173	-1.078453	0.576465
H89	H	0.069527	-1.042480	0.504918
N90	N	-0.000096	-0.752388	0.262420
H91	H	-0.000101	-0.761955	0.319807
H92	H	-0.069786	-0.718894	0.241034
H93	H	-0.000101	-0.764424	0.651716
N94	N	-0.000101	-0.755015	0.098334
H95	H	-0.000092	-0.710734	0.129520
H96	H	-0.069795	-0.748934	0.061591
