data_functionalizedCrystal
_audit_creation_method	'MofGen! by Chris Wilmer'
_symmetry_space_group_name_H-M	'P1'
_symmetry_Int_Tables_number	1
_symmetry_cell_setting	triclinic
loop_
_symmetry_equiv_pos_as_xyz
  x,y,z
_cell_length_a	14.519709
_cell_length_b	12.837942
_cell_length_c	12.996460
_cell_angle_alpha	90.000533
_cell_angle_beta	90.000602
_cell_angle_gamma	90.745457
loop_
_atom_site_label
_atom_site_type_symbol
_atom_site_fract_x
_atom_site_fract_y
_atom_site_fract_z
O1	O	1.235614	-0.135901	0.085431
O2	O	1.735614	0.364099	0.585431
O3	O	0.968520	-0.151906	0.085462
O4	O	1.468520	0.348094	0.585462
O5	O	1.096145	0.007010	0.085441
O6	O	1.596145	0.507010	0.585441
O7	O	1.107990	-0.294818	0.085452
O8	O	1.607990	0.205182	0.585452
O9	O	1.096127	0.007001	-0.085693
O10	O	1.596127	0.507001	0.414307
O11	O	0.968503	-0.151916	-0.085671
O12	O	1.468503	0.348084	0.414329
O13	O	1.235597	-0.135911	-0.085703
O14	O	1.735597	0.364089	0.414297
Cu15	Cu	1.102048	-0.143914	-0.101313
Cu16	Cu	1.602048	0.356086	0.398687
Cu17	Cu	1.102069	-0.143903	0.101073
Cu18	Cu	1.602069	0.356097	0.601073
O19	O	1.107972	-0.294827	-0.085681
O20	O	1.607972	0.205173	0.414319
C21	C	0.934087	-0.151165	-0.000101
C22	C	1.434087	0.348835	0.499899
C23	C	0.831513	-0.148930	-0.000089
C24	C	1.331513	0.351070	0.499911
C25	C	0.455906	-0.140701	-0.000136
C26	C	0.955906	0.359299	0.499864
C27	C	0.560411	-0.142986	-0.000122
C28	C	1.060411	0.357014	0.499878
C29	C	0.643706	-0.144815	-0.000111
C30	C	1.143706	0.355185	0.499889
C31	C	0.748218	-0.147101	-0.000100
C32	C	1.248218	0.352899	0.499900
C33	C	1.092134	0.045633	-0.000125
C34	C	1.592134	0.545633	0.499875
C35	C	1.080200	0.160732	-0.000122
C36	C	1.580200	0.660732	0.499878
C37	C	1.270030	-0.136652	-0.000138
C38	C	1.770030	0.363348	0.499862
C39	C	1.372604	-0.138887	-0.000143
C40	C	1.872604	0.361113	0.499857
C41	C	1.111982	-0.333450	-0.000113
C42	C	1.611982	0.166550	0.499887
C43	C	1.123916	-0.448550	-0.000110
C44	C	1.623916	0.051450	0.499890
C45	C	1.223671	0.401425	-0.000117
C46	C	1.723671	0.901425	0.499883
C47	C	1.212462	0.509571	-0.000114
C48	C	1.712462	1.009571	0.499886
C49	C	1.046574	0.485174	-0.000105
C50	C	1.546574	0.985174	0.499895
C51	C	1.057783	0.377028	-0.000108
C52	C	1.557783	0.877028	0.499892
C53	C	1.146334	0.335157	-0.000116
C54	C	1.646334	0.835157	0.499884
C55	C	1.157542	0.227009	-0.000126
C56	C	1.657542	0.727009	0.499874
C57	C	0.991656	0.202614	-0.000110
C58	C	1.491656	0.702614	0.499890
C59	C	0.980447	0.310760	-0.000107
C60	C	1.480447	0.810760	0.499893
N61	N	1.102040	-0.143921	-0.243660
N62	N	1.602040	0.356079	0.256340
C63	C	1.102045	-0.143924	-0.336766
C64	C	1.602045	0.356076	0.163234
C65	C	1.102053	-0.143917	-0.453571
C66	C	1.602053	0.356083	0.046429
C67	C	1.102063	-0.143905	-0.546669
C68	C	1.602063	0.356095	-0.046669
C69	C	1.102072	-0.143899	-0.663482
C70	C	1.602072	0.356101	-0.163482
N71	N	1.102083	-0.143888	0.243420
N72	N	1.602083	0.356112	0.743420
H73	H	1.229645	0.192920	-0.000136
H74	H	1.729645	0.692920	0.499864
C75	C	1.321070	0.355363	-0.000133
C76	C	1.821070	0.855363	0.499867
H77	H	1.365525	0.410320	-0.000132
H78	H	1.865525	0.910320	0.499868
H79	H	1.328881	0.313681	-0.059813
H80	H	1.828881	0.813681	0.440187
H81	H	1.328897	0.313683	0.059551
H82	H	1.828897	0.813683	0.559551
H83	H	0.974480	0.519285	-0.000088
H84	H	1.474480	1.019285	0.499912
H85	H	1.275438	0.563524	-0.000112
H86	H	1.775438	1.063524	0.499888
H87	H	0.928683	0.148646	-0.000117
H88	H	1.428683	0.648646	0.499883
C89	C	0.883049	0.356824	-0.000105
C90	C	1.383049	0.856824	0.499895
H91	H	0.887448	0.430724	-0.000111
H92	H	1.387448	0.930724	0.499889
H93	H	0.850803	0.334087	0.059570
H94	H	1.350803	0.834087	0.559570
H95	H	0.850811	0.334090	-0.059794
H96	H	1.350811	0.834090	0.440206
