data_functionalizedCrystal
_audit_creation_method	'MofGen! by Chris Wilmer'
_symmetry_space_group_name_H-M	'P1'
_symmetry_Int_Tables_number	1
_symmetry_cell_setting	triclinic
loop_
_symmetry_equiv_pos_as_xyz
  x,y,z
_cell_length_a	14.519709
_cell_length_b	13.101018
_cell_length_c	14.519709
_cell_angle_alpha	93.364108
_cell_angle_beta	83.680145
_cell_angle_gamma	86.637576
loop_
_atom_site_label
_atom_site_type_symbol
_atom_site_fract_x
_atom_site_fract_y
_atom_site_fract_z
O1	O	-1.228930	0.085070	-0.115822
O2	O	-0.895596	0.418404	0.217511
O3	O	-0.562263	0.751737	0.550845
O4	O	-0.960455	0.085105	-0.130057
O5	O	-0.627122	0.418438	0.203277
O6	O	-0.293788	0.751771	0.536610
O7	O	-1.101810	0.085078	0.011299
O8	O	-0.768477	0.418411	0.344632
O9	O	-0.435143	0.751744	0.677965
O10	O	-1.087575	0.085098	-0.257177
O11	O	-0.754241	0.418431	0.076156
O12	O	-0.420908	0.751764	0.409489
O13	O	-1.091656	-0.085351	0.001148
O14	O	-0.758323	0.247982	0.334481
O15	O	-0.424990	0.581316	0.667814
O16	O	-0.950301	-0.085324	-0.140208
O17	O	-0.616968	0.248010	0.193126
O18	O	-0.283634	0.581343	0.526459
O19	O	-1.218776	-0.085358	-0.125973
O20	O	-0.885443	0.247975	0.207360
O21	O	-0.552109	0.581309	0.540694
Zn22	Zn	-1.082926	-0.112400	-0.134702
Zn23	Zn	-0.749593	0.220933	0.198631
Zn24	Zn	-0.416260	0.554267	0.531965
Zn25	Zn	-1.096304	0.112147	-0.121328
Zn26	Zn	-0.762971	0.445480	0.212006
Zn27	Zn	-0.429638	0.778813	0.545339
O28	O	-1.077421	-0.085331	-0.267328
O29	O	-0.744088	0.248003	0.066005
O30	O	-0.410754	0.581336	0.399339
C31	C	-0.921018	-0.000105	-0.134468
C32	C	-0.587685	0.333228	0.198865
C33	C	-0.254352	0.666562	0.532198
C34	C	-0.818638	-0.000092	-0.132479
C35	C	-0.485305	0.333241	0.200854
C36	C	-0.151971	0.666574	0.534187
C37	C	-0.443740	-0.000136	-0.125162
C38	C	-0.110406	0.333198	0.208171
C39	C	0.222927	0.666531	0.541504
C40	C	-0.548048	-0.000123	-0.127194
C41	C	-0.214715	0.333210	0.206139
C42	C	0.118618	0.666543	0.539472
C43	C	-0.631186	-0.000113	-0.128821
C44	C	-0.297852	0.333220	0.204513
C45	C	0.035481	0.666554	0.537846
C46	C	-0.735501	-0.000103	-0.130853
C47	C	-0.402167	0.333231	0.202480
C48	C	-0.068834	0.666564	0.535814
N49	N	-1.073803	-0.265647	-0.143829
N50	N	-0.740470	0.067686	0.189504
N51	N	-0.407136	0.401020	0.522838
C52	C	-1.117843	-0.525565	-0.099772
C53	C	-0.784510	-0.192232	0.233561
C54	C	-0.451176	0.141102	0.566895
C55	C	-1.061398	-0.474681	-0.156247
C56	C	-0.728065	-0.141348	0.177086
C57	C	-0.394731	0.191985	0.510419
C58	C	-1.068302	-0.358364	-0.149336
C59	C	-0.734969	-0.025031	0.183997
C60	C	-0.401635	0.308303	0.517331
C61	C	-1.110940	-0.641893	-0.106682
C62	C	-0.777607	-0.308560	0.226651
C63	C	-0.444274	0.024774	0.559984
C64	C	-0.258213	-0.000143	-0.121561
C65	C	0.075121	0.333190	0.211772
C66	C	0.408454	0.666523	0.545106
C67	C	-0.360594	-0.000142	-0.123549
C68	C	-0.027261	0.333192	0.209784
C69	C	0.306073	0.666525	0.543118
C70	C	-1.096070	-0.000137	0.040583
C71	C	-0.762736	0.333197	0.373916
C72	C	-0.429403	0.666530	0.707249
C73	C	-1.094081	-0.000137	0.142964
C74	C	-0.760748	0.333196	0.476297
C75	C	-0.427415	0.666530	0.809631
N76	N	-1.105435	0.265394	-0.112193
N77	N	-0.772102	0.598727	0.221140
N78	N	-0.438768	0.932061	0.554473
C79	C	-1.083161	-0.000114	-0.296612
C80	C	-0.749828	0.333219	0.036721
C81	C	-0.416495	0.666553	0.370054
C82	C	-1.085150	-0.000107	-0.398993
C83	C	-0.751817	0.333226	-0.065660
C84	C	-0.418483	0.666560	0.267674
C85	C	-1.086764	-0.000110	0.517861
C86	C	-0.753430	0.333224	0.851195
C87	C	-0.420097	0.666557	1.184528
C88	C	-1.088796	-0.000118	0.413553
C89	C	-0.755462	0.333216	0.746886
C90	C	-0.422129	0.666549	1.080220
C91	C	-1.090422	-0.000124	0.330416
C92	C	-0.757089	0.333209	0.663749
C93	C	-0.423755	0.666542	0.997083
C94	C	-1.092455	-0.000130	0.226101
C95	C	-0.759122	0.333203	0.559434
C96	C	-0.425788	0.666536	0.892768
H97	H	-1.007890	-0.518476	-0.209788
H98	H	-0.674556	-0.185143	0.123545
H99	H	-0.341223	0.148191	0.456878
C100	C	-1.190131	-0.466415	-0.027452
C101	C	-0.856798	-0.133082	0.305882
C102	C	-0.523465	0.200252	0.639215
H103	H	-1.224639	-0.513634	0.007079
H104	H	-0.891306	-0.180301	0.340412
H105	H	-0.557973	0.153033	0.673746
H106	H	-1.231034	-0.424559	-0.058246
H107	H	-0.897701	-0.091226	0.275087
H108	H	-0.564368	0.242108	0.608421
H109	H	-1.159311	-0.424562	0.013440
H110	H	-0.825978	-0.091229	0.346774
H111	H	-0.492644	0.242104	0.680107
