data_functionalizedCrystal
_audit_creation_method	'MofGen! by Chris Wilmer'
_symmetry_space_group_name_H-M	'P1'
_symmetry_Int_Tables_number	1
_symmetry_cell_setting	triclinic
loop_
_symmetry_equiv_pos_as_xyz
  x,y,z
_cell_length_a	6.817900
_cell_length_b	11.102210
_cell_length_c	11.102300
_cell_angle_alpha	91.946834
_cell_angle_beta	108.605850
_cell_angle_gamma	108.604261
loop_
_atom_site_label
_atom_site_type_symbol
_atom_site_fract_x
_atom_site_fract_y
_atom_site_fract_z
V1	V	-4.111521	-0.175838	-0.396254
O2	O	-4.070563	0.008450	-0.388713
O3	O	-4.088289	-0.348658	-0.393541
O4	O	-4.088302	-0.173133	-0.569075
O5	O	-4.070550	-0.168290	-0.211964
V6	V	-4.588625	-0.153795	-0.374211
O7	O	-4.386860	-0.224191	-0.444605
O8	O	-4.763483	-0.105442	-0.325860
O9	O	-4.388650	0.019024	-0.376924
O10	O	-4.746979	-0.338083	-0.381752
O11	O	-4.746993	-0.161344	-0.558501
O12	O	-4.388637	-0.156500	-0.201390
C13	C	-3.938598	-0.390787	-0.387289
C14	C	-4.001057	-0.532070	-0.386223
C15	C	-4.028951	-0.713064	-0.268354
C16	C	-3.970240	-0.580311	-0.269341
C17	C	-4.090573	-0.616588	-0.502124
C18	C	-4.149268	-0.749337	-0.501135
C19	C	-3.938613	-0.166887	-0.611198
C20	C	-4.001079	-0.165819	-0.752481
C21	C	-4.214436	-0.171664	-0.825329
C22	C	-4.273116	-0.170656	-0.958078
C23	C	-3.905062	-0.157962	-0.945117
C24	C	-3.846381	-0.158961	-0.812370
C25	C	-4.201684	0.061147	-0.383173
C26	C	-4.118464	0.202428	-0.384247
C27	C	-4.201668	-0.162751	-0.159260
C28	C	-4.118439	-0.163812	-0.017977
H29	H	-4.115648	-0.577299	-0.597291
H30	H	-4.222153	-0.818148	-0.595515
O31	O	-4.364736	-0.178540	-0.767126
C32	C	-4.569173	-0.297604	-0.641956
C33	C	-4.398968	-0.289995	-0.707834
H34	H	-4.596869	-0.387693	-0.593979
H35	H	-4.731842	-0.301692	-0.716789
H36	H	-4.504688	-0.208993	-0.566248
H37	H	-4.463248	-0.378584	-0.783534
H38	H	-4.236330	-0.285844	-0.632925
H39	H	-3.672628	-0.154191	-0.753053
H40	H	-4.003858	-0.752330	-0.173176
H41	H	-3.897350	-0.511509	-0.174969
O42	O	-4.480519	-0.176570	-1.028824
C43	C	-4.870225	-0.297697	-1.097701
C44	C	-4.635453	-0.291179	-1.017555
H45	H	-4.995556	-0.390338	-1.088596
H46	H	-4.885770	-0.295888	-1.202899
H47	H	-4.903156	-0.211629	-1.060866
H48	H	-4.602366	-0.377229	-1.054278
H49	H	-4.620025	-0.292926	-0.912369
O50	O	-3.754910	-0.151145	-1.003419
C51	C	-3.550296	-0.032004	-1.128469
C52	C	-3.720406	-0.039577	-1.062528
H53	H	-3.522312	0.058205	-1.176252
H54	H	-3.614735	-0.120513	-1.204299
H55	H	-3.387773	-0.028058	-1.053585
H56	H	-3.882981	-0.043482	-1.137318
H57	H	-3.655786	0.048930	-0.986674
