data_functionalizedCrystal
_audit_creation_method	'MofGen! by Chris Wilmer'
_symmetry_space_group_name_H-M	'P1'
_symmetry_Int_Tables_number	1
_symmetry_cell_setting	triclinic
loop_
_symmetry_equiv_pos_as_xyz
  x,y,z
_cell_length_a	12.811445
_cell_length_b	23.532357
_cell_length_c	11.295483
_cell_angle_alpha	94.062867
_cell_angle_beta	80.460739
_cell_angle_gamma	83.439184
loop_
_atom_site_label
_atom_site_type_symbol
_atom_site_fract_x
_atom_site_fract_y
_atom_site_fract_z
O1	O	1.409893	0.067036	-0.251282
O2	O	1.101831	0.076655	-0.218021
O3	O	1.265178	-0.011076	-0.235633
O4	O	1.246547	0.154767	-0.233670
O5	O	1.250831	-0.003382	-0.036035
O6	O	1.087484	0.084349	-0.018423
O7	O	1.395546	0.074730	-0.051684
Cu8	Cu	1.240205	0.080242	-0.016829
Cu9	Cu	1.257172	0.071143	-0.252876
O10	O	1.232200	0.162460	-0.034073
C11	C	1.055253	0.080198	-0.113967
C12	C	0.937840	0.079286	-0.101289
C13	C	0.732846	0.069194	-0.295090
C14	C	0.622526	0.068337	-0.283183
C15	C	0.606877	0.076719	-0.065570
C16	C	0.717197	0.077576	-0.077477
C17	C	0.780178	0.073812	-0.192240
C18	C	0.890501	0.074665	-0.204146
C19	C	0.874849	0.083051	0.013466
C20	C	0.764530	0.082194	0.025373
C21	C	1.257538	-0.028446	-0.135780
C22	C	1.256136	-0.091666	-0.135617
C23	C	1.255163	-0.487884	-0.243533
C24	C	1.253832	-0.547286	-0.243396
O25	O	1.259758	-0.581570	-0.335848
N26	N	1.245351	-0.572804	-0.134526
C27	C	1.238190	-0.538917	-0.025784
O28	O	1.230853	-0.566076	0.066832
C29	C	1.239514	-0.479516	-0.025921
C30	C	1.248006	-0.454002	-0.134800
C31	C	1.263654	-0.462370	-0.352403
C32	C	1.264987	-0.402973	-0.352540
C33	C	1.257830	-0.369090	-0.243806
C34	C	1.249340	-0.394605	-0.134937
C35	C	1.232346	-0.445629	0.082820
C36	C	1.233670	-0.386225	0.082673
C37	C	1.242162	-0.360711	-0.026205
C38	C	1.243516	-0.301325	-0.026340
N39	N	1.251997	-0.275807	-0.135211
C40	C	1.259154	-0.309689	-0.243944
C41	C	1.235408	-0.663662	-0.025503
C42	C	1.234091	-0.723063	-0.025365
C43	C	1.249731	-0.731428	-0.242978
C44	C	1.251055	-0.672027	-0.243115
C45	C	1.243889	-0.638144	-0.134374
C46	C	1.261955	-0.184951	-0.244223
C47	C	1.263293	-0.125548	-0.244350
C48	C	1.247647	-0.117188	-0.026738
C49	C	1.246315	-0.176586	-0.026610
C50	C	1.253467	-0.210466	-0.135362
O51	O	1.237590	-0.267005	0.066065
O52	O	1.266476	-0.282521	-0.336542
C53	C	1.442125	0.071186	-0.155741
C54	C	1.559538	0.072098	-0.168427
C55	C	1.239840	0.179830	-0.133928
C56	C	1.241243	0.243050	-0.134099
N57	N	1.228279	0.086641	0.149193
N58	N	1.269107	0.064739	-0.418899
C59	C	1.354956	0.018642	0.384824
C60	C	1.345951	0.023482	0.510459
C61	C	1.201260	0.101158	0.526100
C62	C	1.210265	0.096318	0.400465
C63	C	1.287117	0.055059	0.329831
C64	C	1.296126	0.050222	0.204194
C65	C	1.151430	0.127895	0.219837
C66	C	1.142425	0.132735	0.345472
H67	H	0.555579	0.079788	0.027866
N68	N	1.271390	-0.498908	-0.469693
H69	H	1.269268	-0.540413	-0.453109
H70	H	1.209459	-0.485613	-0.510156
N71	N	1.118389	0.145660	0.602295
H72	H	1.076779	0.168000	0.548396
H73	H	1.068124	0.125939	0.659465
H74	H	1.079851	0.166325	0.402996
N75	N	1.274159	-0.375456	-0.469971
H76	H	1.209488	-0.346255	-0.467815
H77	H	1.340683	-0.355774	-0.481878
N78	N	0.696598	0.086256	0.149148
H79	H	0.619341	0.085793	0.141115
H80	H	0.720486	0.052517	0.193011
N81	N	0.571467	0.063353	-0.394107
H82	H	0.585130	0.096967	-0.442789
H83	H	0.603065	0.026352	-0.444614
N84	N	1.379004	0.005714	0.128026
H85	H	1.342583	-0.021447	0.080260
H86	H	1.429329	0.025430	0.070916
N87	N	1.225944	-0.349677	0.199957
H88	H	1.156713	-0.353447	0.254626
H89	H	1.287922	-0.362944	0.240370
H90	H	0.913399	0.086811	0.097213
H91	H	0.941779	0.071601	-0.297593
N92	N	1.419128	-0.015791	0.569775
H93	H	1.469180	-0.042659	0.505961
H94	H	1.461914	0.007956	0.616853
H95	H	1.417539	-0.014948	0.327313
N96	N	1.078261	0.167181	0.160525
H97	H	1.095627	0.157857	0.070217
H98	H	1.001719	0.161564	0.190595
H99	H	1.239410	-0.197361	0.062046
H100	H	0.784127	0.066127	-0.388535
N101	N	1.272457	-0.098030	-0.361789
H102	H	1.276785	-0.128511	-0.430646
H103	H	1.207770	-0.068827	-0.359510
H104	H	1.257969	-0.651257	-0.331774
N105	N	1.269698	-0.221490	-0.361519
H106	H	1.275290	-0.196306	-0.430501
H107	H	1.335078	-0.251049	-0.373263
N108	N	1.257450	-0.767978	-0.360259
H109	H	1.255319	-0.809478	-0.343641
H110	H	1.195514	-0.754686	-0.400716
H111	H	1.229575	-0.636078	0.063052
N112	N	1.224953	-0.750576	0.092069
H113	H	1.156187	-0.733668	0.146692
H114	H	1.225244	-0.793345	0.075568
N115	N	1.223188	-0.473138	0.200255
H116	H	1.218850	-0.442652	0.269105
H117	H	1.156712	-0.492862	0.212134
H118	H	1.241825	-0.089591	0.061789
