data_functionalizedCrystal
_audit_creation_method	'MofGen! by Chris Wilmer'
_symmetry_space_group_name_H-M	'P1'
_symmetry_Int_Tables_number	1
_symmetry_cell_setting	triclinic
loop_
_symmetry_equiv_pos_as_xyz
  x,y,z
_cell_length_a	16.625546
_cell_length_b	13.897449
_cell_length_c	13.897441
_cell_angle_alpha	89.979267
_cell_angle_beta	90.033447
_cell_angle_gamma	89.976252
loop_
_atom_site_label
_atom_site_type_symbol
_atom_site_fract_x
_atom_site_fract_y
_atom_site_fract_z
Zn1	Zn	-0.320948	-1.474671	0.545362
Zn2	Zn	0.012385	-1.141337	0.878695
Zn3	Zn	0.345718	-0.808004	1.212029
Zn4	Zn	-0.455799	-1.474551	0.384055
Zn5	Zn	-0.122465	-1.141218	0.717389
Zn6	Zn	0.210868	-0.807884	1.050722
Zn7	Zn	-0.320987	-1.313360	0.384080
Zn8	Zn	0.012347	-0.980026	0.717414
Zn9	Zn	0.345680	-0.646693	1.050747
Zn10	Zn	-0.455746	-1.313328	0.545308
Zn11	Zn	-0.122412	-0.979995	0.878641
Zn12	Zn	0.210921	-0.646661	1.211975
O13	O	-0.388370	-1.393977	0.464702
O14	O	-0.055037	-1.060644	0.798035
O15	O	0.278297	-0.727311	1.131368
O16	O	-0.338843	-1.609636	0.523977
O17	O	-0.005509	-1.276303	0.857310
O18	O	0.327824	-0.942970	1.190643
O19	O	-0.437954	-1.453132	0.249077
O20	O	-0.104621	-1.119799	0.582410
O21	O	0.228713	-0.786465	0.915744
O22	O	-0.208149	-1.334821	0.405508
O23	O	0.125184	-1.001488	0.738841
O24	O	0.458517	-0.668155	1.072175
O25	O	-0.437917	-1.609549	0.405465
O26	O	-0.104583	-1.276215	0.738799
O27	O	0.228750	-0.942882	1.072132
O28	O	-0.208121	-1.453336	0.524001
O29	O	0.125212	-1.120002	0.857334
O30	O	0.458546	-0.786669	1.190667
O31	O	-0.338908	-1.334705	0.249095
O32	O	-0.005575	-1.001372	0.582429
O33	O	0.327759	-0.668039	0.915762
O34	O	-0.338857	-1.178374	0.405455
O35	O	-0.005523	-0.845041	0.738789
O36	O	0.327810	-0.511707	1.072122
O37	O	-0.437826	-1.334767	0.680297
O38	O	-0.104493	-1.001434	1.013630
O39	O	0.228840	-0.668100	1.346964
O40	O	-0.437864	-1.178351	0.523909
O41	O	-0.104530	-0.845017	0.857242
O42	O	0.228803	-0.511684	1.190575
O43	O	-0.338791	-1.453305	0.680337
O44	O	-0.005458	-1.119972	1.013670
O45	O	0.327875	-0.786638	1.347003
O46	O	-0.568624	-1.453101	0.405413
O47	O	-0.235291	-1.119768	0.738746
O48	O	0.098043	-0.786435	1.072080
O49	O	-0.568585	-1.334651	0.523884
O50	O	-0.235252	-1.001318	0.857218
O51	O	0.098082	-0.667985	1.190551
C52	C	-0.388359	-1.143363	0.464680
C53	C	-0.055026	-0.810030	0.798013
C54	C	0.278308	-0.476696	1.131346
C55	C	-0.388374	-1.036149	0.464693
C56	C	-0.055041	-0.702816	0.798026
C57	C	0.278293	-0.369482	1.131360
C58	C	-0.597861	-1.393886	0.464661
C59	C	-0.264527	-1.060553	0.797994
C60	C	0.068806	-0.727219	1.131328
C61	C	-0.687482	-1.393935	0.464676
C62	C	-0.354149	-1.060602	0.798009
C63	C	-0.020815	-0.727269	1.131343
C64	C	-0.388299	-1.394046	0.716295
C65	C	-0.054965	-1.060712	1.049628
C66	C	0.278368	-0.727379	1.382961
C67	C	-0.388268	-1.394075	0.823509
C68	C	-0.054935	-1.060742	1.156842
C69	C	0.278398	-0.727408	1.490175
C70	C	-1.015657	-1.394104	0.464777
C71	C	-0.682324	-1.060770	0.798110
C72	C	-0.348991	-0.727437	1.131443
C73	C	-0.924349	-1.394054	0.464751
C74	C	-0.591016	-1.060720	0.798085
C75	C	-0.257682	-0.727387	1.131418
C76	C	-0.851573	-1.394019	0.464726
C77	C	-0.518239	-1.060685	0.798059
C78	C	-0.184906	-0.727352	1.131393
C79	C	-0.760258	-1.393970	0.464702
C80	C	-0.426925	-1.060637	0.798035
C81	C	-0.093592	-0.727304	1.131368
C82	C	-0.178061	-1.394095	0.464763
C83	C	0.155272	-1.060762	0.798096
C84	C	0.488606	-0.727429	1.131430
C85	C	-0.088440	-1.394146	0.464789
C86	C	0.244894	-1.060812	0.798123
C87	C	0.578227	-0.727479	1.131456
C88	C	-0.388381	-1.645570	0.464724
C89	C	-0.055048	-1.312237	0.798057
C90	C	0.278285	-0.978904	1.131391
C91	C	-0.388386	-1.752784	0.464734
C92	C	-0.055053	-1.419451	0.798067
C93	C	0.278281	-1.086118	1.131400
C94	C	-0.388377	-0.839854	0.464718
C95	C	-0.055043	-0.506521	0.798052
C96	C	0.278290	-0.173187	1.131385
C97	C	-0.388373	-0.949086	0.464702
C98	C	-0.055039	-0.615753	0.798035
C99	C	0.278294	-0.282420	1.131368
C100	C	-0.388383	-1.393965	0.214087
C101	C	-0.055049	-1.060631	0.547421
C102	C	0.278284	-0.727298	0.880754
C103	C	-0.388186	-1.394122	0.106874
C104	C	-0.054853	-1.060789	0.440207
C105	C	0.278481	-0.727456	0.773540
C106	C	-0.388214	-1.394101	1.019804
C107	C	-0.054880	-1.060768	1.353137
C108	C	0.278453	-0.727434	1.686471
C109	C	-0.388246	-1.394084	0.910571
C110	C	-0.054913	-1.060750	1.243905
C111	C	0.278420	-0.727417	1.577238
