data_functionalizedCrystal
_audit_creation_method	'MofGen! by Chris Wilmer'
_symmetry_space_group_name_H-M	'P1'
_symmetry_Int_Tables_number	1
_symmetry_cell_setting	triclinic
loop_
_symmetry_equiv_pos_as_xyz
  x,y,z
_cell_length_a	10.654550
_cell_length_b	11.792241
_cell_length_c	9.130313
_cell_angle_alpha	89.995332
_cell_angle_beta	89.999724
_cell_angle_gamma	84.339173
loop_
_atom_site_label
_atom_site_type_symbol
_atom_site_fract_x
_atom_site_fract_y
_atom_site_fract_z
O1	O	1.667388	0.159420	-0.121691
O2	O	1.301867	0.174608	-0.121718
O3	O	1.493498	0.001864	-0.121693
O4	O	1.475758	0.332164	-0.121715
O5	O	1.493485	0.001859	0.121906
O6	O	1.301854	0.174603	0.121881
O7	O	1.667375	0.159415	0.121908
Cu8	Cu	1.484613	0.167009	0.144137
Cu9	Cu	1.484629	0.167015	-0.143947
O10	O	1.475744	0.332159	0.121884
C11	C	1.255066	0.173491	0.000078
C12	C	1.115632	0.170154	0.000068
C13	C	1.035859	0.271863	0.000066
C14	C	0.904847	0.268721	0.000092
C15	C	0.933394	0.062152	0.000116
C16	C	1.064403	0.065295	0.000101
C17	C	1.492377	-0.040432	0.000106
C18	C	1.489042	-0.166453	0.000104
C19	C	1.482908	-0.397180	0.000079
C20	C	1.486316	-0.268787	0.000093
C21	C	1.714177	0.160533	0.000109
C22	C	1.853611	0.163869	0.000109
C23	C	1.476865	0.374455	0.000082
C24	C	1.480201	0.500477	0.000074
N25	N	1.484612	0.167004	0.346760
N26	N	1.484641	0.167011	-0.346569
C27	C	1.569495	0.090545	0.423422
C28	C	1.569507	0.090545	0.576759
C29	C	1.399749	0.243473	0.576757
C30	C	1.399732	0.243466	0.423423
H31	H	0.891668	-0.023220	0.000152
O32	O	1.141725	-0.033618	0.000037
C33	C	1.068420	-0.126843	0.000093
H34	H	0.970843	-0.098811	-0.046021
H35	H	1.058884	-0.158933	0.116965
C36	C	1.252881	-0.257623	-0.038792
C37	C	1.133039	-0.223196	-0.095442
H38	H	1.292743	-0.317061	-0.097716
H39	H	1.302270	-0.194817	-0.038824
H40	H	1.244919	-0.284357	0.058601
H41	H	1.141004	-0.196450	-0.192825
H42	H	1.083653	-0.286001	-0.095428
H43	H	1.077564	0.357246	0.000050
H44	H	0.839900	0.351543	0.000092
H45	H	1.330643	0.305729	0.639192
H46	H	1.330604	0.305728	0.361000
H47	H	1.638624	0.028284	0.639174
O48	O	1.651982	0.016156	0.349177
C49	C	1.726923	-0.051309	0.449731
H50	H	1.675437	-0.053017	0.559040
H51	H	1.820465	-0.013670	0.466017
C52	C	1.815210	-0.171444	0.255654
C53	C	1.751969	-0.173550	0.389907
H54	H	1.830666	-0.246846	0.218751
H55	H	1.764725	-0.125989	0.187908
H56	H	1.893155	-0.140073	0.269245
H57	H	1.674020	-0.204907	0.376312
H58	H	1.802442	-0.219013	0.457650
