data_functionalizedCrystal
_audit_creation_method	'MofGen! by Chris Wilmer'
_symmetry_space_group_name_H-M	'P1'
_symmetry_Int_Tables_number	1
_symmetry_cell_setting	triclinic
loop_
_symmetry_equiv_pos_as_xyz
  x,y,z
_cell_length_a	14.421503
_cell_length_b	15.944551
_cell_length_c	15.944551
_cell_angle_alpha	96.501262
_cell_angle_beta	89.996660
_cell_angle_gamma	89.996859
loop_
_atom_site_label
_atom_site_type_symbol
_atom_site_fract_x
_atom_site_fract_y
_atom_site_fract_z
O1	O	0.077017	-1.114529	0.108320
O2	O	0.327017	-0.864529	0.358320
O3	O	0.577017	-0.614529	0.608320
O4	O	0.827017	-0.364529	0.858320
O5	O	0.077040	-0.869980	0.121677
O6	O	0.327040	-0.619980	0.371677
O7	O	0.577040	-0.369980	0.621677
O8	O	0.827040	-0.119980	0.871677
O9	O	0.077020	-0.998933	-0.007276
O10	O	0.327020	-0.748933	0.242724
O11	O	0.577020	-0.498933	0.492724
O12	O	0.827020	-0.248933	0.742724
O13	O	0.077038	-0.985576	0.237273
O14	O	0.327038	-0.735576	0.487273
O15	O	0.577038	-0.485576	0.737273
O16	O	0.827038	-0.235576	0.987273
O17	O	-0.077204	-0.998911	-0.007257
O18	O	0.172796	-0.748911	0.242743
O19	O	0.422796	-0.498911	0.492743
O20	O	0.672796	-0.248911	0.742743
O21	O	-0.077183	-0.869958	0.121696
O22	O	0.172817	-0.619958	0.371696
O23	O	0.422817	-0.369958	0.621696
O24	O	0.672817	-0.119958	0.871696
O25	O	-0.077206	-1.114508	0.108340
O26	O	0.172794	-0.864508	0.358340
O27	O	0.422794	-0.614508	0.608340
O28	O	0.672794	-0.364508	0.858340
Cu29	Cu	-0.091277	-0.992231	0.115020
Cu30	Cu	0.158723	-0.742231	0.365020
Cu31	Cu	0.408723	-0.492231	0.615020
Cu32	Cu	0.658723	-0.242231	0.865020
Cu33	Cu	0.091110	-0.992256	0.114997
Cu34	Cu	0.341110	-0.742256	0.364997
Cu35	Cu	0.591110	-0.492256	0.614997
Cu36	Cu	0.841110	-0.242256	0.864997
O37	O	-0.077186	-0.985555	0.237293
O38	O	0.172814	-0.735555	0.487293
O39	O	0.422814	-0.485555	0.737293
O40	O	0.672814	-0.235555	0.987293
C41	C	-0.000069	-0.838675	0.121132
C42	C	0.249931	-0.588675	0.371132
C43	C	0.499931	-0.338675	0.621132
C44	C	0.749931	-0.088675	0.871132
C45	C	-0.000060	-0.745429	0.119470
C46	C	0.249940	-0.495429	0.369470
C47	C	0.499940	-0.245429	0.619470
C48	C	0.749940	0.004571	0.869470
N49	N	-0.219558	-0.992219	0.115035
N50	N	0.030442	-0.742219	0.365035
N51	N	0.280442	-0.492219	0.615035
N52	N	0.530442	-0.242219	0.865035
C53	C	-0.000092	-0.998367	-0.038561
C54	C	0.249908	-0.748367	0.211439
C55	C	0.499908	-0.498367	0.461439
C56	C	0.749908	-0.248367	0.711439
C57	C	-0.000093	-0.996705	-0.131807
C58	C	0.249907	-0.746705	0.118193
C59	C	0.499907	-0.496705	0.368193
C60	C	0.749907	-0.246705	0.618193
C61	C	-0.469202	-0.932581	0.174636
C62	C	-0.219202	-0.682581	0.424636
C63	C	0.030798	-0.432581	0.674636
C64	C	0.280798	-0.182581	0.924636
C65	C	-0.531011	-1.008481	0.190943
C66	C	-0.281011	-0.758481	0.440943
C67	C	-0.031011	-0.508481	0.690943
C68	C	0.218989	-0.258481	0.940943
C69	C	-0.408719	-0.992240	0.115015
C70	C	-0.158719	-0.742240	0.365015
C71	C	0.091281	-0.492240	0.615015
C72	C	0.341281	-0.242240	0.865015
C73	C	-0.531005	-0.916359	0.098727
C74	C	-0.281005	-0.666359	0.348727
C75	C	-0.031005	-0.416359	0.598727
C76	C	0.218995	-0.166359	0.848727
C77	C	-0.591441	-0.992253	0.114997
C78	C	-0.341441	-0.742253	0.364997
C79	C	-0.091441	-0.492253	0.614997
C80	C	0.158559	-0.242253	0.864997
C81	C	-0.469167	-1.068178	0.131360
C82	C	-0.219167	-0.818178	0.381360
C83	C	0.030833	-0.568178	0.631360
C84	C	0.280833	-0.318178	0.881360
C85	C	-0.469156	-0.976007	0.039111
C86	C	-0.219156	-0.726007	0.289111
C87	C	0.030844	-0.476007	0.539111
C88	C	0.280844	-0.226007	0.789111
C89	C	-0.530936	-1.051961	0.055386
C90	C	-0.280936	-0.801961	0.305386
C91	C	-0.030936	-0.551961	0.555386
C92	C	0.219064	-0.301961	0.805386
C93	C	-0.303458	-0.992231	0.115027
C94	C	-0.053458	-0.742231	0.365027
C95	C	0.196542	-0.492231	0.615027
C96	C	0.446542	-0.242231	0.865027
C97	C	-0.696700	-0.992270	0.114985
C98	C	-0.446700	-0.742270	0.364985
C99	C	-0.196700	-0.492270	0.614985
C100	C	0.053300	-0.242270	0.864985
N101	N	0.219392	-0.992275	0.114975
N102	N	0.469392	-0.742275	0.364975
N103	N	0.719392	-0.492275	0.614975
N104	N	0.969392	-0.242275	0.864975
C105	C	-0.000096	-1.145813	0.108885
C106	C	0.249904	-0.895813	0.358885
C107	C	0.499904	-0.645813	0.608885
C108	C	0.749904	-0.395813	0.858885
C109	C	-0.000098	-1.239059	0.110547
C110	C	0.249902	-0.989059	0.360547
C111	C	0.499902	-0.739059	0.610547
C112	C	0.749902	-0.489059	0.860547
C113	C	-0.000084	-0.530572	0.035565
C114	C	0.249916	-0.280572	0.285565
C115	C	0.499916	-0.030572	0.535565
C116	C	0.749916	0.219428	0.785565
C117	C	0.075959	-0.469563	0.074518
C118	C	0.325959	-0.219563	0.324518
C119	C	0.575959	0.030437	0.574518
C120	C	0.825959	0.280437	0.824518
C121	C	-0.000071	-0.574703	0.116462
C122	C	0.249929	-0.324703	0.366462
C123	C	0.499929	-0.074703	0.616462
C124	C	0.749929	0.175297	0.866462
C125	C	-0.076093	-0.469564	0.074556
C126	C	0.173907	-0.219564	0.324556
C127	C	0.423907	0.030436	0.574556
C128	C	0.673907	0.280436	0.824556
C129	C	-0.000086	-0.409790	0.113551
C130	C	0.249914	-0.159790	0.363551
C131	C	0.499914	0.090210	0.613551
C132	C	0.749914	0.340210	0.863551
C133	C	0.076035	-0.514922	0.155437
C134	C	0.326035	-0.264922	0.405437
C135	C	0.576035	-0.014922	0.655437
C136	C	0.826035	0.235078	0.905437
C137	C	-0.076086	-0.514929	0.155464
C138	C	0.173914	-0.264929	0.405464
C139	C	0.423914	-0.014929	0.655464
C140	C	0.673914	0.235071	0.905464
C141	C	-0.000024	-0.453937	0.194476
C142	C	0.249976	-0.203937	0.444476
C143	C	0.499976	0.046063	0.694476
C144	C	0.749976	0.296063	0.944476
C145	C	-0.000062	-0.669705	0.118137
C146	C	0.249938	-0.419705	0.368137
C147	C	0.499938	-0.169705	0.618137
C148	C	0.749938	0.080295	0.868137
C149	C	-0.000089	-0.314789	0.111883
C150	C	0.249911	-0.064789	0.361883
C151	C	0.499911	0.185211	0.611883
C152	C	0.749911	0.435211	0.861883
C153	C	-0.000072	-0.912801	-0.346663
C154	C	0.249928	-0.662801	-0.096663
C155	C	0.499928	-0.412801	0.153337
C156	C	0.749928	-0.162801	0.403337
C157	C	-0.076117	-0.951753	-0.407671
C158	C	0.173883	-0.701753	-0.157671
C159	C	0.423883	-0.451753	0.092329
C160	C	0.673883	-0.201753	0.342329
C161	C	-0.000085	-0.993698	-0.302533
C162	C	0.249915	-0.743698	-0.052533
C163	C	0.499915	-0.493698	0.197467
C164	C	0.749915	-0.243698	0.447467
C165	C	0.075935	-0.951793	-0.407674
C166	C	0.325935	-0.701793	-0.157674
C167	C	0.575935	-0.451793	0.092326
C168	C	0.825935	-0.201793	0.342326
C169	C	-0.000074	-0.990787	-0.467445
C170	C	0.249926	-0.740787	-0.217445
C171	C	0.499926	-0.490787	0.032555
C172	C	0.749926	-0.240787	0.282555
C173	C	-0.076193	-1.032672	-0.362312
C174	C	0.173807	-0.782672	-0.112312
C175	C	0.423807	-0.532672	0.137688
C176	C	0.673807	-0.282672	0.387688
C177	C	0.075927	-1.032701	-0.362308
C178	C	0.325927	-0.782701	-0.112308
C179	C	0.575927	-0.532701	0.137692
C180	C	0.825927	-0.282701	0.387692
C181	C	-0.000136	-1.071711	-0.423298
C182	C	0.249864	-0.821711	-0.173298
C183	C	0.499864	-0.571711	0.076702
C184	C	0.749864	-0.321711	0.326702
C185	C	-0.000092	-0.995372	-0.207530
C186	C	0.249908	-0.745372	0.042470
C187	C	0.499908	-0.495372	0.292470
C188	C	0.749908	-0.245372	0.542470
C189	C	-0.000073	-0.989119	-0.562446
C190	C	0.249927	-0.739119	-0.312446
C191	C	0.499927	-0.489119	-0.062446
C192	C	0.749927	-0.239119	0.187554
C193	C	-0.000072	-0.986120	0.268577
C194	C	0.249928	-0.736120	0.518577
C195	C	0.499928	-0.486120	0.768577
C196	C	0.749928	-0.236120	1.018577
C197	C	-0.000066	-0.987782	0.361823
C198	C	0.249934	-0.737782	0.611823
C199	C	0.499934	-0.487782	0.861823
C200	C	0.749934	-0.237782	1.111823
H201	H	-0.442096	-0.882181	0.225096
H202	H	-0.192096	-0.632181	0.475096
H203	H	0.057904	-0.382181	0.725096
H204	H	0.307904	-0.132181	0.975096
H205	H	0.140243	-0.449461	0.040294
H206	H	0.390243	-0.199461	0.290294
H207	H	0.640243	0.050539	0.540294
H208	H	0.890243	0.300539	0.790294
H209	H	0.140394	-0.534918	0.189620
H210	H	0.390394	-0.284918	0.439620
H211	H	0.640394	-0.034918	0.689620
H212	H	0.890394	0.215082	0.939620
Br213	Br	0.183078	-1.089699	-0.328767
Br214	Br	0.433078	-0.839699	-0.078767
Br215	Br	0.683078	-0.589699	0.171233
Br216	Br	0.933078	-0.339699	0.421233
H217	H	-0.557872	-1.102474	0.004956
H218	H	-0.307872	-0.852474	0.254956
H219	H	-0.057872	-0.602474	0.504956
H220	H	0.192128	-0.352474	0.754956
Br221	Br	0.000049	-0.398667	0.306490
Br222	Br	0.250049	-0.148667	0.556490
Br223	Br	0.500049	0.101333	0.806490
Br224	Br	0.750049	0.351333	1.056490
H225	H	-0.140554	-1.066850	-0.342314
H226	H	0.109446	-0.816850	-0.092314
H227	H	0.359446	-0.566850	0.157686
H228	H	0.609446	-0.316850	0.407686
H229	H	0.140230	-0.917575	-0.427758
H230	H	0.390230	-0.667575	-0.177758
H231	H	0.640230	-0.417575	0.072242
H232	H	0.890230	-0.167575	0.322242
H233	H	-0.140379	-0.449469	0.040333
H234	H	0.109621	-0.199469	0.290333
H235	H	0.359621	0.050531	0.540333
H236	H	0.609621	0.300531	0.790333
Br237	Br	-0.576294	-1.031390	0.297917
Br238	Br	-0.326294	-0.781390	0.547917
Br239	Br	-0.076294	-0.531390	0.797917
Br240	Br	0.173706	-0.281390	1.047917
Br241	Br	-0.576283	-0.809397	0.075777
Br242	Br	-0.326283	-0.559397	0.325777
Br243	Br	-0.076283	-0.309397	0.575777
Br244	Br	0.173717	-0.059397	0.825777
Br245	Br	-0.183236	-0.548471	0.212462
Br246	Br	0.066764	-0.298471	0.462462
Br247	Br	0.316764	-0.048471	0.712462
Br248	Br	0.566764	0.201529	0.962462
Br249	Br	-0.423832	-0.953064	-0.067833
Br250	Br	-0.173832	-0.703064	0.182167
Br251	Br	0.076168	-0.453064	0.432167
Br252	Br	0.326168	-0.203064	0.682167
H253	H	-0.442119	-1.132368	0.145205
H254	H	-0.192119	-0.882368	0.395205
H255	H	0.057881	-0.632368	0.645205
H256	H	0.307881	-0.382368	0.895205
H257	H	0.000005	-0.563905	-0.031573
H258	H	0.250005	-0.313905	0.218427
H259	H	0.500005	-0.063905	0.468427
H260	H	0.750005	0.186095	0.718427
H261	H	-0.000141	-0.845652	-0.313356
H262	H	0.249859	-0.595652	-0.063356
H263	H	0.499859	-0.345652	0.186644
H264	H	0.749859	-0.095652	0.436644
Br265	Br	-0.000212	-1.183726	-0.478568
Br266	Br	0.249788	-0.933726	-0.228568
Br267	Br	0.499788	-0.683726	0.021432
Br268	Br	0.749788	-0.433726	0.271432
Br269	Br	-0.183263	-0.894713	-0.441172
Br270	Br	0.066737	-0.644713	-0.191172
Br271	Br	0.316737	-0.394713	0.058828
Br272	Br	0.566737	-0.144713	0.308828
