data_functionalizedCrystal
_audit_creation_method	'MofGen! by Chris Wilmer'
_symmetry_space_group_name_H-M	'P1'
_symmetry_Int_Tables_number	1
_symmetry_cell_setting	triclinic
loop_
_symmetry_equiv_pos_as_xyz
  x,y,z
_cell_length_a	17.038272
_cell_length_b	14.519709
_cell_length_c	13.596369
_cell_angle_alpha	89.999709
_cell_angle_beta	89.993837
_cell_angle_gamma	92.604149
loop_
_atom_site_label
_atom_site_type_symbol
_atom_site_fract_x
_atom_site_fract_y
_atom_site_fract_z
O1	O	0.102502	-1.231711	-0.081664
O2	O	0.352502	-0.981711	0.168336
O3	O	0.602502	-0.731711	0.418336
O4	O	0.852502	-0.481711	0.668336
O5	O	0.114573	-0.964158	-0.081694
O6	O	0.364573	-0.714158	0.168306
O7	O	0.614573	-0.464158	0.418306
O8	O	0.864573	-0.214158	0.668306
O9	O	-0.005280	-1.096344	-0.081671
O10	O	0.244720	-0.846344	0.168329
O11	O	0.494720	-0.596344	0.418329
O12	O	0.744720	-0.346344	0.668329
O13	O	0.222356	-1.099525	-0.081686
O14	O	0.472356	-0.849525	0.168314
O15	O	0.722356	-0.599525	0.418314
O16	O	0.972356	-0.349525	0.668314
O17	O	-0.005286	-1.096330	0.081912
O18	O	0.244714	-0.846330	0.331912
O19	O	0.494714	-0.596330	0.581912
O20	O	0.744714	-0.346330	0.831912
O21	O	0.114567	-0.964143	0.081889
O22	O	0.364567	-0.714143	0.331889
O23	O	0.614567	-0.464143	0.581889
O24	O	0.864567	-0.214143	0.831889
O25	O	0.102496	-1.231696	0.081919
O26	O	0.352496	-0.981696	0.331919
O27	O	0.602496	-0.731696	0.581919
O28	O	0.852496	-0.481696	0.831919
Zn29	Zn	0.108530	-1.097918	0.107877
Zn30	Zn	0.358530	-0.847918	0.357877
Zn31	Zn	0.608530	-0.597918	0.607877
Zn32	Zn	0.858530	-0.347918	0.857877
Zn33	Zn	0.108539	-1.097937	-0.107651
Zn34	Zn	0.358539	-0.847937	0.142349
Zn35	Zn	0.608539	-0.597937	0.392349
Zn36	Zn	0.858539	-0.347937	0.642349
O37	O	0.222349	-1.099510	0.081897
O38	O	0.472349	-0.849510	0.331897
O39	O	0.722349	-0.599510	0.581897
O40	O	0.972349	-0.349510	0.831897
C41	C	0.114008	-0.929748	0.000094
C42	C	0.364008	-0.679748	0.250094
C43	C	0.614008	-0.429748	0.500094
C44	C	0.864008	-0.179748	0.750094
C45	C	0.112322	-0.827237	0.000083
C46	C	0.362322	-0.577237	0.250083
C47	C	0.612322	-0.327237	0.500083
C48	C	0.862322	-0.077237	0.750083
C49	C	-0.034416	-1.093444	0.000120
C50	C	0.215584	-0.843444	0.250120
C51	C	0.465584	-0.593444	0.500120
C52	C	0.715584	-0.343444	0.750120
C53	C	-0.121223	-1.084814	0.000119
C54	C	0.128777	-0.834814	0.250119
C55	C	0.378777	-0.584814	0.500119
C56	C	0.628777	-0.334814	0.750119
N57	N	0.108524	-1.097911	0.254968
N58	N	0.358524	-0.847911	0.504968
N59	N	0.608524	-0.597911	0.754968
N60	N	0.858524	-0.347911	1.004968
C61	C	-0.171209	-1.164047	0.000129
C62	C	0.078791	-0.914047	0.250129
C63	C	0.328791	-0.664047	0.500129
C64	C	0.578791	-0.414047	0.750129
C65	C	-0.252773	-1.155933	0.000118
C66	C	-0.002773	-0.905933	0.250118
C67	C	0.247227	-0.655933	0.500118
C68	C	0.497227	-0.405933	0.750118
C69	C	-0.284349	-1.068585	0.000105
C70	C	-0.034349	-0.818585	0.250105
C71	C	0.215651	-0.568585	0.500105
C72	C	0.465651	-0.318585	0.750105
C73	C	-0.234357	-0.989347	0.000092
C74	C	0.015643	-0.739347	0.250092
C75	C	0.265643	-0.489347	0.500092
C76	C	0.515643	-0.239347	0.750092
C77	C	-0.152795	-0.997462	0.000096
C78	C	0.097205	-0.747462	0.250096
C79	C	0.347205	-0.497462	0.500096
C80	C	0.597205	-0.247462	0.750096
C81	C	-0.530153	-1.039916	0.000089
C82	C	-0.280153	-0.789916	0.250089
C83	C	-0.030153	-0.539916	0.500089
C84	C	0.219847	-0.289916	0.750089
C85	C	-0.611722	-1.031807	0.000088
C86	C	-0.361722	-0.781807	0.250088
C87	C	-0.111722	-0.531807	0.500088
C88	C	0.138278	-0.281807	0.750088
C89	C	-0.630132	-1.198394	0.000112
C90	C	-0.380132	-0.948394	0.250112
C91	C	-0.130132	-0.698394	0.500112
C92	C	0.119868	-0.448394	0.750112
C93	C	-0.548568	-1.206502	0.000122
C94	C	-0.298568	-0.956502	0.250122
C95	C	-0.048568	-0.706502	0.500122
C96	C	0.201432	-0.456502	0.750122
C97	C	-0.498583	-1.127263	0.000104
C98	C	-0.248583	-0.877263	0.250104
C99	C	0.001417	-0.627263	0.500104
C100	C	0.251417	-0.377263	0.750104
C101	C	-0.367720	-1.060289	0.000098
C102	C	-0.117720	-0.810289	0.250098
C103	C	0.132280	-0.560289	0.500098
C104	C	0.382280	-0.310289	0.750098
C105	C	-0.415213	-1.135560	0.000104
C106	C	-0.165213	-0.885560	0.250104
C107	C	0.084787	-0.635560	0.500104
C108	C	0.334787	-0.385560	0.750104
C109	C	0.251486	-1.102410	0.000103
C110	C	0.501486	-0.852410	0.250103
C111	C	0.751486	-0.602410	0.500103
C112	C	1.001486	-0.352410	0.750103
C113	C	0.338292	-1.111040	0.000098
C114	C	0.588292	-0.861040	0.250098
C115	C	0.838292	-0.611040	0.500098
C116	C	1.088292	-0.361040	0.750098
C117	C	0.103062	-1.266107	0.000129
C118	C	0.353062	-1.016107	0.250129
C119	C	0.603062	-0.766107	0.500129
C120	C	0.853062	-0.516107	0.750129
C121	C	0.104748	-1.368617	0.000134
C122	C	0.354748	-1.118617	0.250134
C123	C	0.604748	-0.868617	0.500134
C124	C	0.854748	-0.618617	0.750134
C125	C	0.106116	-0.451867	0.000128
C126	C	0.356116	-0.201867	0.250128
C127	C	0.606116	0.048133	0.500128
C128	C	0.856116	0.298133	0.750128
C129	C	0.107839	-0.556307	0.000115
C130	C	0.357839	-0.306307	0.250115
C131	C	0.607839	-0.056307	0.500115
C132	C	0.857839	0.193693	0.750115
C133	C	0.109219	-0.639549	0.000104
C134	C	0.359219	-0.389549	0.250104
C135	C	0.609219	-0.139549	0.500104
C136	C	0.859219	0.110451	0.750104
C137	C	0.110942	-0.743995	0.000093
C138	C	0.360942	-0.493995	0.250093
C139	C	0.610942	-0.243995	0.500093
C140	C	0.860942	0.006005	0.750093
N141	N	0.108539	-1.097950	-0.254743
N142	N	0.358539	-0.847950	-0.004743
N143	N	0.608539	-0.597950	0.245257
N144	N	0.858539	-0.347950	0.495257
C145	C	0.108540	-1.097936	0.656259
C146	C	0.358540	-0.847936	0.906259
C147	C	0.608540	-0.597936	1.156259
C148	C	0.858540	-0.347936	1.406259
C149	C	0.108538	-1.097926	0.544608
C150	C	0.358538	-0.847926	0.794608
C151	C	0.608538	-0.597926	1.044608
C152	C	0.858538	-0.347926	1.294608
C153	C	0.108533	-1.097924	0.455617
C154	C	0.358533	-0.847924	0.705617
C155	C	0.608533	-0.597924	0.955617
C156	C	0.858533	-0.347924	1.205617
C157	C	0.108530	-1.097913	0.343959
C158	C	0.358530	-0.847913	0.593959
C159	C	0.608530	-0.597913	0.843959
C160	C	0.858530	-0.347913	1.093959
H161	H	-0.293468	-1.220453	0.000129
H162	H	-0.043468	-0.970453	0.250129
H163	H	0.206532	-0.720453	0.500129
H164	H	0.456532	-0.470453	0.750129
H165	H	-0.489465	-0.975394	0.000074
H166	H	-0.239465	-0.725394	0.250074
H167	H	0.010535	-0.475394	0.500074
H168	H	0.260535	-0.225394	0.750074
H169	H	-0.260072	-0.918226	0.000075
H170	H	-0.010072	-0.668226	0.250075
H171	H	0.239928	-0.418226	0.500075
H172	H	0.489928	-0.168226	0.750075
N173	N	-0.382948	-1.224773	0.000129
N174	N	-0.132948	-0.974773	0.250129
N175	N	0.117052	-0.724773	0.500129
N176	N	0.367052	-0.474773	0.750129
N177	N	-0.339492	-1.247863	0.069090
N178	N	-0.089492	-0.997863	0.319090
N179	N	0.160508	-0.747863	0.569090
N180	N	0.410508	-0.497863	0.819090
H181	H	-0.316697	-1.310870	0.069112
H182	H	-0.066697	-1.060870	0.319112
H183	H	0.183303	-0.810870	0.569112
H184	H	0.433303	-0.560870	0.819112
H185	H	-0.670838	-1.262906	0.000125
H186	H	-0.420838	-1.012906	0.250125
H187	H	-0.170838	-0.762906	0.500125
H188	H	0.079162	-0.512906	0.750125
N189	N	-0.101731	-0.916529	0.000064
N190	N	0.148269	-0.666529	0.250064
N191	N	0.398269	-0.416529	0.500064
N192	N	0.648269	-0.166529	0.750064
N193	N	-0.104669	-0.859867	-0.068904
N194	N	0.145331	-0.609867	0.181096
N195	N	0.395331	-0.359867	0.431096
N196	N	0.645331	-0.109867	0.681096
H197	H	-0.068605	-0.802706	-0.068934
H198	H	0.181395	-0.552706	0.181066
H199	H	0.431395	-0.302706	0.431066
H200	H	0.681395	-0.052706	0.681066
H201	H	-0.393438	-0.989170	0.000089
H202	H	-0.143438	-0.739170	0.250089
H203	H	0.106562	-0.489170	0.500089
H204	H	0.356562	-0.239170	0.750089
H205	H	-0.522865	-1.277629	0.000132
H206	H	-0.272865	-1.027629	0.250132
H207	H	-0.022865	-0.777629	0.500132
H208	H	0.227135	-0.527629	0.750132
H209	H	-0.145506	-1.235175	0.000145
H210	H	0.104494	-0.985175	0.250145
H211	H	0.354494	-0.735175	0.500145
H212	H	0.604494	-0.485175	0.750145
H213	H	-0.637427	-0.960675	0.000093
H214	H	-0.387427	-0.710675	0.250093
H215	H	-0.137427	-0.460675	0.500093
H216	H	0.112573	-0.210675	0.750093
