data_functionalizedCrystal
_audit_creation_method	'MofGen! by Chris Wilmer'
_symmetry_space_group_name_H-M	'P1'
_symmetry_Int_Tables_number	1
_symmetry_cell_setting	triclinic
loop_
_symmetry_equiv_pos_as_xyz
  x,y,z
_cell_length_a	16.109301
_cell_length_b	23.532407
_cell_length_c	15.186229
_cell_angle_alpha	89.991614
_cell_angle_beta	89.999362
_cell_angle_gamma	83.155079
loop_
_atom_site_label
_atom_site_type_symbol
_atom_site_fract_x
_atom_site_fract_y
_atom_site_fract_z
O1	O	1.102555	0.073202	-0.073182
O2	O	1.602555	0.573202	0.426818
O3	O	0.860421	0.082312	-0.073197
O4	O	1.360421	0.582312	0.426803
O5	O	0.988790	-0.005148	-0.073173
O6	O	1.488790	0.494852	0.426827
O7	O	0.974187	0.160662	-0.073206
O8	O	1.474187	0.660662	0.426794
O9	O	0.988781	-0.005149	0.073284
O10	O	1.488781	0.494851	0.573284
O11	O	0.860413	0.082311	0.073260
O12	O	1.360413	0.582311	0.573260
O13	O	1.102547	0.073201	0.073275
O14	O	1.602547	0.573201	0.573275
Zn15	Zn	0.981478	0.077755	0.096521
Zn16	Zn	1.481478	0.577755	0.596521
Zn17	Zn	0.981490	0.077757	-0.096443
Zn18	Zn	1.481490	0.577757	0.403557
O19	O	0.974178	0.160660	0.073251
O20	O	1.474178	0.660660	0.573251
C21	C	0.829445	0.081942	0.000030
C22	C	1.329445	0.581942	0.500030
C23	C	0.737159	0.080836	0.000025
C24	C	1.237159	0.580836	0.500025
C25	C	0.514498	0.130160	0.000025
C26	C	1.014498	0.630160	0.500025
C27	C	0.427786	0.129116	0.000031
C28	C	0.927786	0.629116	0.500031
C29	C	0.448476	0.025348	0.000048
C30	C	0.948476	0.525348	0.500048
C31	C	0.535187	0.026393	0.000048
C32	C	1.035187	0.526393	0.500048
C33	C	0.568195	0.078801	0.000032
C34	C	1.068195	0.578801	0.500032
C35	C	0.394773	0.076712	0.000038
C36	C	0.894773	0.576712	0.500038
C37	C	0.300755	0.075580	0.000044
C38	C	0.800755	0.575580	0.500044
C39	C	0.662218	0.079933	0.000028
C40	C	1.162218	0.579933	0.500028
C41	C	0.988414	-0.026366	0.000058
C42	C	1.488414	0.473634	0.500058
C43	C	0.987296	-0.089587	0.000064
C44	C	1.487296	0.410413	0.500064
C45	C	1.056249	-0.488436	0.000021
C46	C	1.556249	0.011564	0.500021
C47	C	1.055210	-0.547840	0.000014
C48	C	1.555210	-0.047840	0.500014
O49	O	1.119130	-0.584349	-0.000015
O50	O	1.619130	-0.084349	0.499985
N51	N	0.978895	-0.570748	0.000010
N52	N	1.478895	-0.070748	0.500010
C53	C	0.903614	-0.534248	0.000003
C54	C	1.403614	-0.034248	0.500003
O55	O	0.838607	-0.559187	-0.000002
O56	O	1.338607	-0.059187	0.499998
C57	C	0.904654	-0.474845	0.000004
C58	C	1.404654	0.025155	0.500004
C59	C	0.980973	-0.451941	0.000017
C60	C	1.480973	0.048059	0.500017
C61	C	1.132562	-0.465531	0.000033
C62	C	1.632562	0.034469	0.500033
C63	C	1.133601	-0.406131	0.000041
C64	C	1.633601	0.093869	0.500041
C65	C	1.058325	-0.369636	0.000037
C66	C	1.558325	0.130364	0.500037
C67	C	0.982012	-0.392541	0.000025
C68	C	1.482012	0.107459	0.500025
C69	C	0.829373	-0.438346	-0.000009
C70	C	1.329373	0.061654	0.499991
C71	C	0.830419	-0.378940	-0.000009
C72	C	1.330419	0.121060	0.499991
C73	C	0.906739	-0.356036	0.000004
C74	C	1.406739	0.143964	0.500004
C75	C	0.907774	-0.296645	0.000030
C76	C	1.407774	0.203355	0.500030
N77	N	0.984089	-0.273738	0.000034
N78	N	1.484089	0.226262	0.500034
C79	C	1.059365	-0.310233	0.000038
C80	C	1.559365	0.189767	0.500038
C81	C	0.901437	-0.658998	0.000001
C82	C	1.401437	-0.158998	0.500001
C83	C	0.900396	-0.718400	0.000007
C84	C	1.400396	-0.218400	0.500007
C85	C	1.051993	-0.731988	0.000016
C86	C	1.551993	-0.231988	0.500016
C87	C	1.053032	-0.672585	0.000016
C88	C	1.553032	-0.172585	0.500016
C89	C	0.977752	-0.636091	0.000005
C90	C	1.477752	-0.136091	0.500005
C91	C	1.061539	-0.185488	0.000056
C92	C	1.561539	0.314512	0.500056
C93	C	1.062571	-0.126082	0.000068
C94	C	1.562571	0.373918	0.500068
C95	C	0.910975	-0.112499	0.000055
C96	C	1.410975	0.387501	0.500055
C97	C	0.909943	-0.171900	0.000047
C98	C	1.409943	0.328100	0.500047
C99	C	0.985232	-0.208394	0.000045
C100	C	1.485232	0.291606	0.500045
O101	O	0.843888	-0.260102	0.000055
O102	O	1.343888	0.239898	0.500055
O103	O	1.124361	-0.285285	0.000031
O104	O	1.624361	0.214715	0.500031
C105	C	1.133523	0.073570	0.000046
C106	C	1.633523	0.573570	0.500046
C107	C	1.225809	0.074677	0.000046
C108	C	1.725809	0.574677	0.500046
C109	C	0.974554	0.181878	0.000018
C110	C	1.474554	0.681878	0.500018
C111	C	0.975672	0.245100	0.000006
C112	C	1.475672	0.745100	0.500006
N113	N	0.981477	0.077754	0.228214
N114	N	1.481477	0.577754	0.728214
N115	N	0.981498	0.077754	-0.228136
N116	N	1.481498	0.577754	0.271864
C117	C	1.038337	0.039040	0.453947
C118	C	1.538337	0.539040	0.953947
C119	C	1.038340	0.039039	0.546137
C120	C	1.538340	0.539039	1.046137
C121	C	0.924631	0.116470	0.546124
C122	C	1.424631	0.616470	1.046124
C123	C	0.924625	0.116468	0.453936
C124	C	1.424625	0.616468	0.953936
C125	C	0.981483	0.077754	0.407850
C126	C	1.481483	0.577754	0.907850
C127	C	0.981492	0.077754	0.592228
C128	C	1.481492	0.577754	1.092228
C129	C	0.981494	0.077753	0.692184
C130	C	1.481494	0.577753	1.192184
C131	C	0.981480	0.077754	0.307888
C132	C	1.481480	0.577754	0.807888
H133	H	1.124722	-0.107437	0.000081
H134	H	1.624722	0.392563	0.500081
H135	H	0.578910	-0.015433	0.000057
H136	H	1.078910	0.484567	0.500057
H137	H	1.122847	-0.215195	0.000051
H138	H	1.622847	0.284805	0.500051
C139	C	0.412159	-0.032297	0.000057
C140	C	0.912159	0.467703	0.500057
N141	N	0.384805	-0.075717	0.000061
N142	N	0.884805	0.424283	0.500061
H143	H	1.113286	-0.761714	0.000015
H144	H	1.613286	-0.261714	0.500015
C145	C	0.825988	-0.197095	0.000039
C146	C	1.325988	0.302905	0.500039
N147	N	0.762751	-0.216068	0.000023
N148	N	1.262751	0.283932	0.500023
H149	H	1.195748	-0.387488	0.000048
H150	H	1.695748	0.112512	0.500048
H151	H	0.840130	-0.629287	-0.000001
H152	H	1.340130	-0.129287	0.499999
H153	H	0.878323	0.147994	0.416402
H154	H	1.378323	0.647994	0.916402
C155	C	0.816439	-0.743587	0.000003
C156	C	1.316439	-0.243587	0.500003
N157	N	0.753199	-0.762556	-0.000005
N158	N	1.253199	-0.262556	0.499995
C159	C	0.862089	0.159052	0.596828
C160	C	1.362089	0.659052	1.096828
N161	N	0.814981	0.191126	0.635017
N162	N	1.314981	0.691126	1.135017
C163	C	1.215379	-0.505668	0.000046
C164	C	1.715379	-0.005668	0.500046
N165	N	1.277762	-0.535895	0.000066
N166	N	1.777762	-0.035895	0.500066
H167	H	1.115179	-0.653941	0.000026
H168	H	1.615179	-0.153941	0.500026
C169	C	0.550804	0.187810	0.000019
C170	C	1.050804	0.687810	0.500019
N171	N	0.578147	0.231234	0.000018
N172	N	1.078147	0.731234	0.500018
H173	H	1.084635	0.007514	0.583666
H174	H	1.584635	0.507514	1.083666
H175	H	0.767225	-0.456984	-0.000025
H176	H	1.267225	0.043016	0.499975
H177	H	0.849688	-0.082774	0.000055
H178	H	1.349688	0.417226	0.500055
C179	C	0.368723	0.185616	0.000027
C180	C	0.868723	0.685616	0.500027
N181	N	0.324236	0.228175	0.000026
N182	N	0.824236	0.728175	0.500026
C183	C	1.100876	-0.003552	0.403255
C184	C	1.600876	0.496448	0.903255
N185	N	1.147979	-0.035635	0.365077
N186	N	1.647979	0.464365	0.865077
H187	H	0.769115	-0.349228	-0.000019
H188	H	1.269115	0.150772	0.499981
