data_functionalizedCrystal
_audit_creation_method	'MofGen! by Chris Wilmer'
_symmetry_space_group_name_H-M	'P1'
_symmetry_Int_Tables_number	1
_symmetry_cell_setting	triclinic
loop_
_symmetry_equiv_pos_as_xyz
  x,y,z
_cell_length_a	27.732048
_cell_length_b	27.732048
_cell_length_c	26.809956
_cell_angle_alpha	90.000636
_cell_angle_beta	89.996742
_cell_angle_gamma	97.357345
loop_
_atom_site_label
_atom_site_type_symbol
_atom_site_fract_x
_atom_site_fract_y
_atom_site_fract_z
O1	O	0.640931	-0.057510	-0.041421
O2	O	0.890931	0.192490	0.208579
O3	O	1.140931	0.442490	0.458579
O4	O	1.390931	0.692490	0.708579
O5	O	0.500138	-0.066256	-0.041436
O6	O	0.750138	0.183744	0.208564
O7	O	1.000138	0.433744	0.458564
O8	O	1.250138	0.683744	0.708564
O9	O	0.574907	0.008514	-0.041419
O10	O	0.824907	0.258514	0.208581
O11	O	1.074907	0.508514	0.458581
O12	O	1.324907	0.758514	0.708581
O13	O	0.566162	-0.132280	-0.041439
O14	O	0.816162	0.117720	0.208561
O15	O	1.066162	0.367720	0.458561
O16	O	1.316162	0.617720	0.708561
O17	O	0.574893	0.008502	0.041541
O18	O	0.824893	0.258502	0.291541
O19	O	1.074893	0.508502	0.541541
O20	O	1.324893	0.758502	0.791541
O21	O	0.500123	-0.066267	0.041523
O22	O	0.750123	0.183733	0.291523
O23	O	1.000123	0.433733	0.541523
O24	O	1.250123	0.683733	0.791523
O25	O	0.640917	-0.057522	0.041539
O26	O	0.890917	0.192478	0.291539
O27	O	1.140917	0.442478	0.541539
O28	O	1.390917	0.692478	0.791539
Zn29	Zn	0.570518	-0.061896	0.054702
Zn30	Zn	0.820518	0.188104	0.304702
Zn31	Zn	1.070518	0.438104	0.554702
Zn32	Zn	1.320518	0.688104	0.804702
Zn33	Zn	0.570536	-0.061881	-0.054600
Zn34	Zn	0.820536	0.188119	0.195400
Zn35	Zn	1.070536	0.438119	0.445400
Zn36	Zn	1.320536	0.688119	0.695400
O37	O	0.566147	-0.132291	0.041521
O38	O	0.816147	0.117709	0.291521
O39	O	1.066147	0.367709	0.541521
O40	O	1.316147	0.617709	0.791521
C41	C	0.482124	-0.066078	0.000041
C42	C	0.732124	0.183922	0.250041
C43	C	0.982124	0.433922	0.500041
C44	C	1.232124	0.683922	0.750041
C45	C	0.428469	-0.065525	0.000036
C46	C	0.678469	0.184475	0.250036
C47	C	0.928469	0.434475	0.500036
C48	C	1.178469	0.684475	0.750036
C49	C	0.089654	-0.106229	0.000051
C50	C	0.339654	0.143771	0.250051
C51	C	0.589654	0.393771	0.500051
C52	C	0.839654	0.643771	0.750051
C53	C	-0.112006	-0.104178	0.000056
C54	C	0.137994	0.145822	0.250056
C55	C	0.387994	0.395822	0.500056
C56	C	0.637994	0.645822	0.750056
O57	O	-0.143262	-0.141398	0.000073
O58	O	0.106738	0.108602	0.250073
O59	O	0.356738	0.358602	0.500073
O60	O	0.606738	0.608602	0.750073
N61	N	-0.131130	-0.059843	0.000062
N62	N	0.118870	0.190157	0.250062
N63	N	0.368870	0.440157	0.500062
N64	N	0.618870	0.690157	0.750062
C65	C	-0.099835	-0.016017	0.000069
C66	C	0.150165	0.233983	0.250069
C67	C	0.400165	0.483983	0.500069
C68	C	0.650165	0.733983	0.750069
O69	O	-0.120728	0.021740	0.000079
O70	O	0.129272	0.271740	0.250079
O71	O	0.379272	0.521740	0.500079
O72	O	0.629272	0.771740	0.750079
C73	C	0.101824	-0.018068	0.000068
C74	C	0.351824	0.231932	0.250068
C75	C	0.601824	0.481932	0.500068
C76	C	0.851824	0.731932	0.750068
C77	C	0.120944	-0.062407	0.000057
C78	C	0.370944	0.187593	0.250057
C79	C	0.620944	0.437593	0.500057
C80	C	0.870944	0.687593	0.750057
C81	C	0.108775	-0.150563	0.000042
C82	C	0.358775	0.099437	0.250042
C83	C	0.608775	0.349437	0.500042
C84	C	0.858775	0.599437	0.750042
C85	C	0.159187	-0.151076	0.000038
C86	C	0.409187	0.098924	0.250038
C87	C	0.659187	0.348924	0.500038
C88	C	0.909187	0.598924	0.750038
C89	C	0.190477	-0.107253	0.000044
C90	C	0.440477	0.142747	0.250044
C91	C	0.690477	0.392747	0.500044
C92	C	0.940477	0.642747	0.750044
C93	C	0.171356	-0.062919	0.000054
C94	C	0.421356	0.187081	0.250054
C95	C	0.671356	0.437081	0.500054
C96	C	0.921356	0.687081	0.750054
C97	C	0.133117	0.025757	0.000079
C98	C	0.383117	0.275757	0.250079
C99	C	0.633117	0.525757	0.500079
C100	C	0.883117	0.775757	0.750079
C101	C	0.183535	0.025240	0.000080
C102	C	0.433535	0.275240	0.250080
C103	C	0.683535	0.525240	0.500080
C104	C	0.933535	0.775240	0.750080
C105	C	0.202655	-0.019098	0.000069
C106	C	0.452655	0.230902	0.250069
C107	C	0.702655	0.480902	0.500069
C108	C	0.952655	0.730902	0.750069
C109	C	0.253059	-0.019609	0.000056
C110	C	0.503059	0.230391	0.250056
C111	C	0.753059	0.480391	0.500056
C112	C	1.003059	0.730391	0.750056
N113	N	0.272183	-0.063944	0.000050
N114	N	0.522183	0.186056	0.250050
N115	N	0.772183	0.436056	0.500050
N116	N	1.022183	0.686056	0.750050
C117	C	0.240892	-0.107766	0.000044
C118	C	0.490892	0.142234	0.250044
C119	C	0.740892	0.392234	0.500044
C120	C	0.990892	0.642234	0.750044
C121	C	-0.205709	-0.014943	0.000069
C122	C	0.044291	0.235057	0.250069
C123	C	0.294291	0.485057	0.500069
C124	C	0.544291	0.735057	0.750069
C125	C	-0.256124	-0.014430	0.000068
C126	C	-0.006124	0.235570	0.250068
C127	C	0.243876	0.485570	0.500068
C128	C	0.493876	0.735570	0.750068
C129	C	-0.268291	-0.102591	0.000056
C130	C	-0.018291	0.147409	0.250056
C131	C	0.231709	0.397409	0.500056
C132	C	0.481709	0.647409	0.750056
C133	C	-0.217876	-0.103104	0.000053
C134	C	0.032124	0.146896	0.250053
C135	C	0.282124	0.396896	0.500053
C136	C	0.532124	0.646896	0.750053
C137	C	-0.186585	-0.059278	0.000063
C138	C	0.063415	0.190722	0.250063
C139	C	0.313415	0.440722	0.500063
C140	C	0.563415	0.690722	0.750063
C141	C	0.346761	-0.108839	0.000036
C142	C	0.596761	0.141161	0.250036
C143	C	0.846761	0.391161	0.500036
C144	C	1.096761	0.641161	0.750036
C145	C	0.397178	-0.109347	0.000030
C146	C	0.647178	0.140653	0.250030
C147	C	0.897178	0.390653	0.500030
C148	C	1.147178	0.640653	0.750030
C149	C	0.409341	-0.021186	0.000044
C150	C	0.659341	0.228814	0.250044
C151	C	0.909341	0.478814	0.500044
C152	C	1.159341	0.728814	0.750044
C153	C	0.358929	-0.020678	0.000048
C154	C	0.608929	0.229322	0.250048
C155	C	0.858929	0.479322	0.500048
C156	C	1.108929	0.729322	0.750048
C157	C	0.327639	-0.064508	0.000045
C158	C	0.577639	0.185492	0.250045
C159	C	0.827639	0.435492	0.500045
C160	C	1.077639	0.685492	0.750045
O161	O	0.284343	0.017592	0.000045
O162	O	0.534343	0.267592	0.250045
O163	O	0.784343	0.517592	0.500045
O164	O	1.034343	0.767592	0.750045
O165	O	0.261794	-0.145518	0.000045
O166	O	0.511794	0.104482	0.250045
O167	O	0.761794	0.354482	0.500045
O168	O	1.011794	0.604482	0.750045
C169	C	0.039242	-0.105716	0.000055
C170	C	0.289242	0.144284	0.250055
C171	C	0.539242	0.394284	0.500055
C172	C	0.789242	0.644284	0.750055
C173	C	0.020120	-0.061382	0.000065
C174	C	0.270120	0.188618	0.250065
C175	C	0.520120	0.438618	0.500065
C176	C	0.770120	0.688618	0.750065
C177	C	0.051411	-0.017560	0.000071
C178	C	0.301411	0.232440	0.250071
C179	C	0.551411	0.482440	0.500071
C180	C	0.801411	0.732440	0.750071
C181	C	-0.030294	-0.060869	0.000065
C182	C	0.219706	0.189131	0.250065
C183	C	0.469706	0.439131	0.500065
C184	C	0.719706	0.689131	0.750065
C185	C	-0.061585	-0.104691	0.000059
C186	C	0.188415	0.145309	0.250059
C187	C	0.438415	0.395309	0.500059
C188	C	0.688415	0.645309	0.750059
C189	C	-0.042461	-0.149026	0.000053
C190	C	0.207539	0.100974	0.250053
C191	C	0.457539	0.350974	0.500053
C192	C	0.707539	0.600974	0.750053
C193	C	0.007951	-0.149539	0.000049
C194	C	0.257951	0.100461	0.250049
C195	C	0.507951	0.350461	0.500049
C196	C	0.757951	0.600461	0.750049
C197	C	0.032287	0.026775	0.000077
C198	C	0.282287	0.276775	0.250077
C199	C	0.532287	0.526775	0.500077
C200	C	0.782287	0.776775	0.750077
C201	C	-0.018125	0.027284	0.000080
C202	C	0.231875	0.277284	0.250080
C203	C	0.481875	0.527284	0.500080
C204	C	0.731875	0.777284	0.750080
C205	C	-0.049416	-0.016538	0.000074
C206	C	0.200584	0.233462	0.250074
C207	C	0.450584	0.483462	0.500074
C208	C	0.700584	0.733462	0.750074
C209	C	0.574716	0.026515	0.000062
C210	C	0.824716	0.276515	0.250062
C211	C	1.074716	0.526515	0.500062
C212	C	1.324716	0.776515	0.750062
C213	C	0.574164	0.080170	0.000066
C214	C	0.824164	0.330170	0.250066
C215	C	1.074164	0.580170	0.500066
C216	C	1.324164	0.830170	0.750066
C217	C	0.658931	-0.057699	0.000060
C218	C	0.908931	0.192301	0.250060
C219	C	1.158931	0.442301	0.500060
C220	C	1.408931	0.692301	0.750060
C221	C	0.712586	-0.058252	0.000062
C222	C	0.962586	0.191748	0.250062
C223	C	1.212586	0.441748	0.500062
C224	C	1.462586	0.691748	0.750062
C225	C	0.566338	-0.150292	0.000039
C226	C	0.816338	0.099708	0.250039
C227	C	1.066338	0.349708	0.500039
C228	C	1.316338	0.599708	0.750039
C229	C	0.566891	-0.203947	0.000031
C230	C	0.816891	0.046053	0.250031
C231	C	1.066891	0.296053	0.500031
C232	C	1.316891	0.546053	0.750031
N233	N	0.570509	-0.061906	0.129298
N234	N	0.820509	0.188094	0.379298
N235	N	1.070509	0.438094	0.629298
N236	N	1.320509	0.688094	0.879298
C237	C	0.614867	0.418985	0.000045
C238	C	0.864867	0.668985	0.250045
C239	C	1.114867	0.918985	0.500045
C240	C	1.364867	1.168985	0.750045
C241	C	0.612816	0.620645	0.000038
C242	C	0.862816	0.870645	0.250038
C243	C	1.112816	1.120645	0.500038
C244	C	1.362816	1.370645	0.750038
O245	O	0.650037	0.651900	0.000021
O246	O	0.900037	0.901900	0.250021
O247	O	1.150037	1.151900	0.500021
O248	O	1.400037	1.401900	0.750021
N249	N	0.568481	0.639768	0.000034
N250	N	0.818481	0.889768	0.250034
N251	N	1.068481	1.139768	0.500034
N252	N	1.318481	1.389768	0.750034
C253	C	0.524656	0.608474	0.000028
C254	C	0.774656	0.858474	0.250028
C255	C	1.024656	1.108474	0.500028
C256	C	1.274656	1.358474	0.750028
O257	O	0.486899	0.629367	0.000019
O258	O	0.736899	0.879367	0.250019
O259	O	0.986899	1.129367	0.500019
O260	O	1.236899	1.379367	0.750019
C261	C	0.526707	0.406815	0.000031
C262	C	0.776707	0.656815	0.250031
C263	C	1.026707	0.906815	0.500031
C264	C	1.276707	1.156815	0.750031
C265	C	0.571045	0.387694	0.000041
C266	C	0.821045	0.637694	0.250041
C267	C	1.071045	0.887694	0.500041
C268	C	1.321045	1.137694	0.750041
C269	C	0.659202	0.399864	0.000054
C270	C	0.909202	0.649864	0.250054
C271	C	1.159202	0.899864	0.500054
C272	C	1.409202	1.149864	0.750054
C273	C	0.659714	0.349452	0.000059
C274	C	0.909714	0.599452	0.250059
C275	C	1.159714	0.849452	0.500059
C276	C	1.409714	1.099452	0.750059
C277	C	0.615892	0.318161	0.000054
C278	C	0.865892	0.568161	0.250054
C279	C	1.115892	0.818161	0.500054
C280	C	1.365892	1.068161	0.750054
C281	C	0.571557	0.337282	0.000045
C282	C	0.821557	0.587282	0.250045
C283	C	1.071557	0.837282	0.500045
C284	C	1.321557	1.087282	0.750045
C285	C	0.482882	0.375521	0.000022
C286	C	0.732882	0.625521	0.250022
C287	C	0.982882	0.875521	0.500022
C288	C	1.232882	1.125521	0.750022
C289	C	0.483399	0.325104	0.000021
C290	C	0.733399	0.575104	0.250021
C291	C	0.983399	0.825104	0.500021
C292	C	1.233399	1.075104	0.750021
C293	C	0.527737	0.305983	0.000031
C294	C	0.777737	0.555983	0.250031
C295	C	1.027737	0.805983	0.500031
C296	C	1.277737	1.055983	0.750031
C297	C	0.528247	0.255580	0.000045
C298	C	0.778247	0.505580	0.250045
C299	C	1.028247	0.755580	0.500045
C300	C	1.278247	1.005580	0.750045
N301	N	0.572583	0.236456	0.000050
N302	N	0.822583	0.486456	0.250050
N303	N	1.072583	0.736456	0.500050
N304	N	1.322583	0.986456	0.750050
C305	C	0.616405	0.267747	0.000054
C306	C	0.866405	0.517747	0.250054
C307	C	1.116405	0.767747	0.500054
C308	C	1.366405	1.017747	0.750054
C309	C	0.523582	0.714348	0.000027
C310	C	0.773582	0.964348	0.250027
C311	C	1.023582	1.214348	0.500027
C312	C	1.273582	1.464348	0.750027
C313	C	0.523069	0.764762	0.000027
C314	C	0.773069	1.014762	0.250027
C315	C	1.023069	1.264762	0.500027
C316	C	1.273069	1.514762	0.750027
C317	C	0.611230	0.776930	0.000036
C318	C	0.861230	1.026930	0.250036
C319	C	1.111230	1.276930	0.500036
C320	C	1.361230	1.526930	0.750036
C321	C	0.611742	0.726514	0.000040
C322	C	0.861742	0.976514	0.250040
C323	C	1.111742	1.226514	0.500040
C324	C	1.361742	1.476514	0.750040
C325	C	0.567917	0.695224	0.000031
C326	C	0.817917	0.945224	0.250031
C327	C	1.067917	1.195224	0.500031
C328	C	1.317917	1.445224	0.750031
C329	C	0.617477	0.161878	0.000064
C330	C	0.867477	0.411878	0.250064
C331	C	1.117477	0.661878	0.500064
C332	C	1.367477	0.911878	0.750064
C333	C	0.617986	0.111461	0.000071
C334	C	0.867986	0.361461	0.250071
C335	C	1.117986	0.611461	0.500071
C336	C	1.367986	0.861461	0.750071
C337	C	0.529825	0.099298	0.000059
C338	C	0.779825	0.349298	0.250059
C339	C	1.029825	0.599298	0.500059
C340	C	1.279825	0.849298	0.750059
C341	C	0.529316	0.149710	0.000055
C342	C	0.779316	0.399710	0.250055
C343	C	1.029316	0.649710	0.500055
C344	C	1.279316	0.899710	0.750055
C345	C	0.573147	0.180999	0.000056
C346	C	0.823147	0.430999	0.250056
C347	C	1.073147	0.680999	0.500056
C348	C	1.323147	0.930999	0.750056
O349	O	0.491047	0.224296	0.000057
O350	O	0.741047	0.474296	0.250057
O351	O	0.991047	0.724296	0.500057
O352	O	1.241047	0.974296	0.750057
O353	O	0.654156	0.246844	0.000053
O354	O	0.904156	0.496844	0.250053
O355	O	1.154156	0.746844	0.500053
O356	O	1.404156	0.996844	0.750053
C357	C	0.614355	0.469397	0.000041
C358	C	0.864355	0.719397	0.250041
C359	C	1.114355	0.969397	0.500041
C360	C	1.364355	1.219397	0.750041
C361	C	0.570021	0.488518	0.000032
C362	C	0.820021	0.738518	0.250032
C363	C	1.070021	0.988518	0.500032
C364	C	1.320021	1.238518	0.750032
C365	C	0.526198	0.457228	0.000027
C366	C	0.776198	0.707228	0.250027
C367	C	1.026198	0.957228	0.500027
C368	C	1.276198	1.207228	0.750027
C369	C	0.569508	0.538933	0.000032
C370	C	0.819508	0.788933	0.250032
C371	C	1.069508	1.038933	0.500032
C372	C	1.319508	1.288933	0.750032
C373	C	0.613330	0.570223	0.000036
C374	C	0.863330	0.820223	0.250036
C375	C	1.113330	1.070223	0.500036
C376	C	1.363330	1.320223	0.750036
C377	C	0.657665	0.551100	0.000041
C378	C	0.907665	0.801100	0.250041
C379	C	1.157665	1.051100	0.500041
C380	C	1.407665	1.301100	0.750041
C381	C	0.658177	0.500688	0.000045
C382	C	0.908177	0.750688	0.250045
C383	C	1.158177	1.000688	0.500045
C384	C	1.408177	1.250688	0.750045
C385	C	0.481863	0.476351	0.000023
C386	C	0.731863	0.726351	0.250023
C387	C	0.981863	0.976351	0.500023
C388	C	1.231863	1.226351	0.750023
C389	C	0.481355	0.526764	0.000019
C390	C	0.731355	0.776764	0.250019
C391	C	0.981355	1.026764	0.500019
C392	C	1.231355	1.276764	0.750019
C393	C	0.525177	0.558054	0.000023
C394	C	0.775177	0.808054	0.250023
C395	C	1.025177	1.058054	0.500023
C396	C	1.275177	1.308054	0.750023
N397	N	0.570549	-0.061867	-0.129196
N398	N	0.820549	0.188133	0.120804
N399	N	1.070549	0.438133	0.370804
N400	N	1.320549	0.688133	0.620804
C401	C	0.603640	-0.028781	0.473932
C402	C	0.853640	0.221219	0.723932
C403	C	1.103640	0.471219	0.973932
C404	C	1.353640	0.721219	1.223932
C405	C	0.603652	-0.028774	0.682810
C406	C	0.853652	0.221226	0.932810
C407	C	1.103652	0.471226	1.182810
C408	C	1.353652	0.721226	1.432810
O409	O	0.631801	-0.000613	0.709820
O410	O	0.881801	0.249387	0.959820
O411	O	1.131801	0.499387	1.209820
O412	O	1.381801	0.749387	1.459820
N413	N	0.570539	-0.061870	0.708925
N414	N	0.820539	0.188130	0.958925
N415	N	1.070539	0.438130	1.208925
N416	N	1.320539	0.688130	1.458925
C417	C	0.537419	-0.094969	0.682818
C418	C	0.787419	0.155031	0.932818
C419	C	1.037419	0.405031	1.182818
C420	C	1.287419	0.655031	1.432818
O421	O	0.509252	-0.123116	0.709824
O422	O	0.759252	0.126884	0.959824
O423	O	1.009252	0.376884	1.209824
O424	O	1.259252	0.626884	1.459824
C425	C	0.537406	-0.094974	0.473941
C426	C	0.787406	0.155026	0.723941
C427	C	1.037406	0.405026	0.973941
C428	C	1.287406	0.655026	1.223941
C429	C	0.570524	-0.061878	0.447829
C430	C	0.820524	0.188122	0.697829
C431	C	1.070524	0.438122	0.947829
C432	C	1.320524	0.688122	1.197829
C433	C	0.636755	0.004312	0.447819
C434	C	0.886755	0.254312	0.697819
C435	C	1.136755	0.504312	0.947819
C436	C	1.386755	0.754312	1.197819
C437	C	0.636754	0.004308	0.395603
C438	C	0.886754	0.254308	0.645603
C439	C	1.136754	0.504308	0.895603
C440	C	1.386754	0.754308	1.145603
C441	C	0.603637	-0.028789	0.369500
C442	C	0.853637	0.221211	0.619500
C443	C	1.103637	0.471211	0.869500
C444	C	1.353637	0.721211	1.119500
C445	C	0.570522	-0.061882	0.395612
C446	C	0.820522	0.188118	0.645612
C447	C	1.070522	0.438118	0.895612
C448	C	1.320522	0.688118	1.145612
C449	C	0.504284	-0.128070	0.447835
C450	C	0.754284	0.121930	0.697835
C451	C	1.004284	0.371930	0.947835
C452	C	1.254284	0.621930	1.197835
C453	C	0.504283	-0.128067	0.395613
C454	C	0.754283	0.121933	0.645613
C455	C	1.004283	0.371933	0.895613
C456	C	1.254283	0.621933	1.145613
C457	C	0.537401	-0.094972	0.369500
C458	C	0.787401	0.155028	0.619500
C459	C	1.037401	0.405028	0.869500
C460	C	1.287401	0.655028	1.119500
C461	C	0.537405	-0.094983	0.317293
C462	C	0.787405	0.155017	0.567293
C463	C	1.037405	0.405017	0.817293
C464	C	1.287405	0.655017	1.067293
N465	N	0.570517	-0.061887	0.291177
N466	N	0.820517	0.188113	0.541177
N467	N	1.070517	0.438113	0.791177
N468	N	1.320517	0.688113	1.041177
C469	C	0.603633	-0.028790	0.317281
C470	C	0.853633	0.221210	0.567281
C471	C	1.103633	0.471210	0.817281
C472	C	1.353633	0.721210	1.067281
C473	C	0.537429	-0.094965	0.792481
C474	C	0.787429	0.155035	1.042481
C475	C	1.037429	0.405035	1.292481
C476	C	1.287429	0.655035	1.542481
C477	C	0.537433	-0.094964	0.844700
C478	C	0.787433	0.155036	1.094700
C479	C	1.037433	0.405036	1.344700
C480	C	1.287433	0.655036	1.594700
C481	C	0.603665	-0.028768	0.844689
C482	C	0.853665	0.221232	1.094689
C483	C	1.103665	0.471232	1.344689
C484	C	1.353665	0.721232	1.594689
C485	C	0.603663	-0.028772	0.792469
C486	C	0.853663	0.221228	1.042469
C487	C	1.103663	0.471228	1.292469
C488	C	1.353663	0.721228	1.542469
C489	C	0.570542	-0.061868	0.766366
C490	C	0.820542	0.188132	1.016366
C491	C	1.070542	0.438132	1.266366
C492	C	1.320542	0.688132	1.516366
C493	C	0.603628	-0.028801	0.207623
C494	C	0.853628	0.221199	0.457623
C495	C	1.103628	0.471199	0.707623
C496	C	1.353628	0.721199	0.957623
C497	C	0.603625	-0.028809	0.155402
C498	C	0.853625	0.221191	0.405402
C499	C	1.103625	0.471191	0.655402
C500	C	1.353625	0.721191	0.905402
C501	C	0.537392	-0.095003	0.155418
C502	C	0.787392	0.154997	0.405418
C503	C	1.037392	0.404997	0.655418
C504	C	1.287392	0.654997	0.905418
C505	C	0.537396	-0.094997	0.207635
C506	C	0.787396	0.155003	0.457635
C507	C	1.037396	0.405003	0.707635
C508	C	1.287396	0.655003	0.957635
C509	C	0.570516	-0.061892	0.233735
C510	C	0.820516	0.188108	0.483735
C511	C	1.070516	0.438108	0.733735
C512	C	1.320516	0.688108	0.983735
O513	O	0.509266	-0.123126	0.290250
O514	O	0.759266	0.126874	0.540250
O515	O	1.009266	0.376874	0.790250
O516	O	1.259266	0.626874	1.040250
O517	O	0.631789	-0.000640	0.290266
O518	O	0.881789	0.249360	0.540266
O519	O	1.131789	0.499360	0.790266
O520	O	1.381789	0.749360	1.040266
C521	C	0.603642	-0.028777	0.526149
C522	C	0.853642	0.221223	0.776149
C523	C	1.103642	0.471223	1.026149
C524	C	1.353642	0.721223	1.276149
C525	C	0.570527	-0.061870	0.552261
C526	C	0.820527	0.188130	0.802261
C527	C	1.070527	0.438130	1.052261
C528	C	1.320527	0.688130	1.302261
C529	C	0.537410	-0.094968	0.526158
C530	C	0.787410	0.155032	0.776158
C531	C	1.037410	0.405032	1.026158
C532	C	1.287410	0.655032	1.276158
C533	C	0.570531	-0.061870	0.604480
C534	C	0.820531	0.188130	0.854480
C535	C	1.070531	0.438130	1.104480
C536	C	1.320531	0.688130	1.354480
C537	C	0.603647	-0.028773	0.630584
C538	C	0.853647	0.221227	0.880584
C539	C	1.103647	0.471227	1.130584
C540	C	1.353647	0.721227	1.380584
C541	C	0.636759	0.004324	0.604468
C542	C	0.886759	0.254324	0.854468
C543	C	1.136759	0.504324	1.104468
C544	C	1.386759	0.754324	1.354468
C545	C	0.636758	0.004320	0.552252
C546	C	0.886758	0.254320	0.802252
C547	C	1.136758	0.504320	1.052252
C548	C	1.386758	0.754320	1.302252
C549	C	0.504298	-0.128064	0.552273
C550	C	0.754298	0.121936	0.802273
C551	C	1.004298	0.371936	1.052273
C552	C	1.254298	0.621936	1.302273
C553	C	0.504303	-0.128058	0.604489
C554	C	0.754303	0.121942	0.854489
C555	C	1.004303	0.371942	1.104489
C556	C	1.254303	0.621942	1.354489
C557	C	0.537419	-0.094961	0.630593
C558	C	0.787419	0.155039	0.880593
C559	C	1.037419	0.405039	1.130593
C560	C	1.287419	0.655039	1.380593
H561	H	0.117558	0.061861	0.000088
H562	H	0.367558	0.311861	0.250088
H563	H	0.617558	0.561861	0.500088
H564	H	0.867558	0.811861	0.750088
O565	O	0.476310	0.680601	0.000021
O566	O	0.726310	0.930601	0.250021
O567	O	0.976310	1.180601	0.500021
O568	O	1.226310	1.430601	0.750021
H569	H	0.474431	0.657339	0.033832
H570	H	0.724431	0.907339	0.283832
H571	H	0.974431	1.157339	0.533832
H572	H	1.224431	1.407339	0.783832
O573	O	0.435060	0.396138	0.000010
O574	O	0.685060	0.646138	0.250010
O575	O	0.935060	0.896138	0.500010
O576	O	1.185060	1.146138	0.750010
H577	H	0.404679	0.365902	0.000000
H578	H	0.654679	0.615902	0.250000
H579	H	0.904679	0.865902	0.500000
H580	H	1.154679	1.115902	0.750000
O581	O	0.338304	0.027144	0.000056
O582	O	0.588304	0.277144	0.250056
O583	O	0.838304	0.527144	0.500056
O584	O	1.088304	0.777144	0.750056
H585	H	0.315627	0.029478	0.033872
H586	H	0.565627	0.279478	0.283872
H587	H	0.815627	0.529478	0.533872
H588	H	1.065627	0.779478	0.783872
O589	O	0.665812	0.090842	0.000076
O590	O	0.915812	0.340842	0.250076
O591	O	1.165812	0.590842	0.500076
O592	O	1.415812	0.840842	0.750076
H593	H	0.668155	0.068171	0.033893
H594	H	0.918155	0.318171	0.283893
H595	H	1.168155	0.568171	0.533893
H596	H	1.418155	0.818171	0.783893
H597	H	0.663725	0.031269	0.530995
H598	H	0.913725	0.281269	0.780995
H599	H	1.163725	0.531269	1.030995
H600	H	1.413725	0.781269	1.280995
H601	H	0.209009	0.060929	0.000089
H602	H	0.459009	0.310929	0.250089
H603	H	0.709009	0.560929	0.500089
H604	H	0.959009	0.810929	0.750089
O605	O	0.179800	-0.198901	0.000036
O606	O	0.429800	0.051099	0.250036
O607	O	0.679800	0.301099	0.500036
O608	O	0.929800	0.551099	0.750036
H609	H	0.202476	-0.201251	-0.033778
H610	H	0.452476	0.048749	0.216222
H611	H	0.702476	0.298749	0.466222
H612	H	0.952476	0.548749	0.716222
O613	O	0.066034	0.074043	0.000082
O614	O	0.316034	0.324043	0.250082
O615	O	0.566034	0.574043	0.500082
O616	O	0.816034	0.824043	0.750082
H617	H	0.044262	0.104954	0.000084
H618	H	0.294262	0.354954	0.250084
H619	H	0.544262	0.604954	0.500084
H620	H	0.794262	0.854954	0.750084
H621	H	0.630630	-0.001820	0.865951
H622	H	0.880630	0.248180	1.115951
H623	H	1.130630	0.498180	1.365951
H624	H	1.380630	0.748180	1.615951
O625	O	0.664750	0.195622	0.000073
O626	O	0.914750	0.445622	0.250073
O627	O	1.164750	0.695622	0.500073
O628	O	1.414750	0.945622	0.750073
H629	H	0.695660	0.173849	0.000086
H630	H	0.945660	0.423849	0.250086
H631	H	1.195660	0.673849	0.500086
H632	H	1.445660	0.923849	0.750086
H633	H	0.510471	-0.121919	0.865958
H634	H	0.760471	0.128081	1.115958
H635	H	1.010471	0.378081	1.365958
H636	H	1.260471	0.628081	1.615958
H637	H	0.494146	0.073812	0.000057
H638	H	0.744146	0.323812	0.250057
H639	H	0.994146	0.573812	0.500057
H640	H	1.244146	0.823812	0.750057
O641	O	0.659563	0.705891	0.000041
O642	O	0.909563	0.955891	0.250041
O643	O	1.159563	1.205891	0.500041
O644	O	1.409563	1.455891	0.750041
H645	H	0.689946	0.736124	0.000040
H646	H	0.939946	0.986124	0.250040
H647	H	1.189946	1.236124	0.500040
H648	H	1.439946	1.486124	0.750040
O649	O	0.501708	-0.130668	0.764330
O650	O	0.751708	0.119332	1.014330
O651	O	1.001708	0.369332	1.264330
O652	O	1.251708	0.619332	1.514330
H653	H	0.478691	-0.153683	0.791267
H654	H	0.728691	0.096317	1.041267
H655	H	0.978691	0.346317	1.291267
H656	H	1.228691	0.596317	1.541267
O657	O	0.468573	-0.163785	0.475981
O658	O	0.718573	0.086215	0.725981
O659	O	0.968573	0.336215	0.975981
O660	O	1.218573	0.586215	1.225981
H661	H	0.430936	-0.157892	0.465963
H662	H	0.680936	0.092108	0.715963
H663	H	0.930936	0.342108	0.965963
H664	H	1.180936	0.592108	1.215963
H665	H	0.630595	-0.001859	0.134142
H666	H	0.880595	0.248141	0.384142
H667	H	1.130595	0.498141	0.634142
H668	H	1.380595	0.748141	0.884142
H669	H	0.695819	0.333889	0.000065
H670	H	0.945819	0.583889	0.250065
H671	H	1.195819	0.833889	0.500065
H672	H	1.445819	1.083889	0.750065
H673	H	0.412743	-0.145454	0.000021
H674	H	0.662743	0.104546	0.250021
H675	H	0.912743	0.354546	0.500021
H676	H	1.162743	0.604546	0.750021
O677	O	0.434596	0.442604	0.000027
O678	O	0.684596	0.692604	0.250027
O679	O	0.934596	0.942604	0.500027
O680	O	1.184596	1.192604	0.750027
H681	H	0.403684	0.464377	0.000029
H682	H	0.653684	0.714377	0.250029
H683	H	0.903684	0.964377	0.500029
H684	H	1.153684	1.214377	0.750029
O685	O	0.639370	0.006934	0.764303
O686	O	0.889370	0.256934	1.014303
O687	O	1.139370	0.506934	1.264303
O688	O	1.389370	0.756934	1.514303
H689	H	0.662714	-0.013243	0.740505
H690	H	0.912714	0.236757	0.990505
H691	H	1.162714	0.486757	1.240505
H692	H	1.412714	0.736757	1.490505
O693	O	0.658495	0.810686	0.000042
O694	O	0.908495	1.060686	0.250042
O695	O	1.158495	1.310686	0.500042
O696	O	1.408495	1.560686	0.750042
H697	H	0.689414	0.788925	0.000047
H698	H	0.939414	1.038925	0.250047
H699	H	1.189414	1.288925	0.500047
H700	H	1.439414	1.538925	0.750047
O701	O	0.639355	0.006898	0.235771
O702	O	0.889355	0.256898	0.485771
O703	O	1.139355	0.506898	0.735771
O704	O	1.389355	0.756898	0.985771
H705	H	0.662383	0.029902	0.208834
H706	H	0.912383	0.279902	0.458834
H707	H	1.162383	0.529902	0.708834
H708	H	1.412383	0.779902	0.958834
O709	O	-0.171965	0.032330	0.000080
O710	O	0.078035	0.282330	0.250080
O711	O	0.328035	0.532330	0.500080
O712	O	0.578035	0.782330	0.750080
H713	H	-0.148699	0.034213	-0.033730
H714	H	0.101301	0.284213	0.216270
H715	H	0.351301	0.534213	0.466270
H716	H	0.601301	0.784213	0.716270
H717	H	0.693347	0.576585	0.000047
H718	H	0.943347	0.826585	0.250047
H719	H	1.193347	1.076585	0.500047
H720	H	1.443347	1.326585	0.750047
H721	H	0.663720	0.031258	0.374345
H722	H	0.913720	0.281258	0.624345
H723	H	1.163720	0.531258	0.874345
H724	H	1.413720	0.781258	1.124345
H725	H	0.434827	0.014492	0.000047
H726	H	0.684827	0.264492	0.250047
H727	H	0.934827	0.514492	0.500047
H728	H	1.184827	0.764492	0.750047
H729	H	0.486964	0.780325	0.000028
H730	H	0.736964	1.030325	0.250028
H731	H	0.986964	1.280325	0.500028
H732	H	1.236964	1.530325	0.750028
H733	H	0.477310	-0.155018	0.374362
H734	H	0.727310	0.094982	0.624362
H735	H	0.977310	0.344982	0.874362
H736	H	1.227310	0.594982	1.124362
H737	H	0.694889	0.425336	0.000056
H738	H	0.944889	0.675336	0.250056
H739	H	1.194889	0.925336	0.500056
H740	H	1.444889	1.175336	0.750056
H741	H	-0.033688	0.063392	0.000085
H742	H	0.216312	0.313392	0.250085
H743	H	0.466312	0.563392	0.500085
H744	H	0.716312	0.813392	0.750085
H745	H	0.510433	-0.121951	0.228896
H746	H	0.760433	0.128049	0.478896
H747	H	1.010433	0.378049	0.728896
H748	H	1.260433	0.628049	0.978896
O749	O	0.028572	-0.197360	0.000048
O750	O	0.278572	0.052640	0.250048
O751	O	0.528572	0.302640	0.500048
O752	O	0.778572	0.552640	0.750048
H753	H	-0.001662	-0.227742	0.000051
H754	H	0.248338	0.022258	0.250051
H755	H	0.498338	0.272258	0.500051
H756	H	0.748338	0.522258	0.750051
O757	O	0.672478	0.040024	0.632627
O758	O	0.922478	0.290024	0.882627
O759	O	1.172478	0.540024	1.132627
O760	O	1.422478	0.790024	1.382627
H761	H	0.666908	0.034465	0.673324
H762	H	0.916908	0.284465	0.923324
H763	H	1.166908	0.534465	1.173324
H764	H	1.416908	0.784465	1.423324
H765	H	0.447710	0.299629	0.000014
H766	H	0.697710	0.549629	0.250014
H767	H	0.947710	0.799629	0.500014
H768	H	1.197710	1.049629	0.750014
H769	H	0.445246	0.542327	0.000015
H770	H	0.695246	0.792327	0.250015
H771	H	0.945246	1.042327	0.500015
H772	H	1.195246	1.292327	0.750015
H773	H	0.493213	0.165279	0.000061
H774	H	0.743213	0.415279	0.250061
H775	H	0.993213	0.665279	0.500061
H776	H	1.243213	0.915279	0.750061
O777	O	0.501662	-0.130688	0.127260
O778	O	0.751662	0.119312	0.377260
O779	O	1.001662	0.369312	0.627260
O780	O	1.251662	0.619312	0.877260
H781	H	0.507220	-0.125120	0.086562
H782	H	0.757220	0.124880	0.336562
H783	H	1.007220	0.374880	0.586562
H784	H	1.257220	0.624880	0.836562
H785	H	0.694282	0.485125	0.000053
H786	H	0.944282	0.735125	0.250053
H787	H	1.194282	0.985125	0.500053
H788	H	1.444282	1.235125	0.750053
O789	O	0.468593	-0.163769	0.632653
O790	O	0.718593	0.086231	0.882653
O791	O	0.968593	0.336231	1.132653
O792	O	1.218593	0.586231	1.382653
H793	H	0.445569	-0.186783	0.605723
H794	H	0.695569	0.063217	0.855723
H795	H	0.945569	0.313217	1.105723
H796	H	1.195569	0.563217	1.355723
O797	O	0.313021	-0.156114	0.000030
O798	O	0.563021	0.093886	0.250030
O799	O	0.813021	0.343886	0.500030
O800	O	1.063021	0.593886	0.750030
H801	H	0.289763	-0.158002	0.033847
H802	H	0.539763	0.091998	0.283847
H803	H	0.789763	0.341998	0.533847
H804	H	1.039763	0.591998	0.783847
H805	H	0.477330	-0.155015	0.531024
H806	H	0.727330	0.094985	0.781024
H807	H	0.977330	0.344985	1.031024
H808	H	1.227330	0.594985	1.281024
H809	H	0.663722	0.031266	0.469068
H810	H	0.913722	0.281266	0.719068
H811	H	1.163722	0.531266	0.969068
H812	H	1.413722	0.781266	1.219068
H813	H	0.083302	-0.186251	0.000038
H814	H	0.333302	0.063749	0.250038
H815	H	0.583302	0.313749	0.500038
H816	H	0.833302	0.563749	0.750038
H817	H	-0.293777	-0.138273	0.000051
H818	H	-0.043777	0.111727	0.250051
H819	H	0.206223	0.361727	0.500051
H820	H	0.456223	0.611727	0.750051
O821	O	-0.197253	-0.150924	0.000051
O822	O	0.052747	0.099076	0.250051
O823	O	0.302747	0.349076	0.500051
O824	O	0.552747	0.599076	0.750051
H825	H	-0.227486	-0.181308	0.000051
H826	H	0.022514	0.068692	0.250051
H827	H	0.272514	0.318692	0.500051
H828	H	0.522514	0.568692	0.750051
O829	O	-0.076214	-0.196294	0.000053
O830	O	0.173786	0.053706	0.250053
O831	O	0.423786	0.303706	0.500053
O832	O	0.673786	0.553706	0.750053
H833	H	-0.114481	-0.188483	0.000062
H834	H	0.135519	0.061517	0.250062
H835	H	0.385519	0.311517	0.500062
H836	H	0.635519	0.561517	0.750062
H837	H	-0.271687	0.021674	0.000069
H838	H	-0.021687	0.271674	0.250069
H839	H	0.228313	0.521674	0.500069
H840	H	0.478313	0.771674	0.750069
