data_functionalizedCrystal
_audit_creation_method	'MofGen! by Chris Wilmer'
_symmetry_space_group_name_H-M	'P1'
_symmetry_Int_Tables_number	1
_symmetry_cell_setting	triclinic
loop_
_symmetry_equiv_pos_as_xyz
  x,y,z
_cell_length_a	15.995350
_cell_length_b	19.188930
_cell_length_c	14.472310
_cell_angle_alpha	89.993787
_cell_angle_beta	89.990621
_cell_angle_gamma	83.318578
loop_
_atom_site_label
_atom_site_type_symbol
_atom_site_fract_x
_atom_site_fract_y
_atom_site_fract_z
O1	O	1.110667	0.089991	-0.076773
O2	O	1.444000	0.423325	0.256560
O3	O	1.777334	0.756658	0.589893
O4	O	0.866851	0.101105	-0.076794
O5	O	1.200184	0.434438	0.256540
O6	O	1.533518	0.767771	0.589873
O7	O	0.995795	-0.006090	-0.076765
O8	O	1.329128	0.327244	0.256568
O9	O	1.662462	0.660577	0.589902
O10	O	0.981723	0.197186	-0.076802
O11	O	1.315056	0.530519	0.256531
O12	O	1.648390	0.863852	0.589865
O13	O	0.995762	-0.006083	0.076917
O14	O	1.329095	0.327250	0.410250
O15	O	1.662429	0.660583	0.743584
O16	O	0.866818	0.101111	0.076888
O17	O	1.200151	0.434444	0.410222
O18	O	1.533485	0.767778	0.743555
O19	O	1.110634	0.089998	0.076909
O20	O	1.443967	0.423331	0.410242
O21	O	1.777300	0.756664	0.743575
Cu22	Cu	0.988723	0.095555	0.090931
Cu23	Cu	1.322056	0.428888	0.424264
Cu24	Cu	1.655389	0.762221	0.757598
Cu25	Cu	0.988762	0.095547	-0.090816
Cu26	Cu	1.322095	0.428881	0.242517
Cu27	Cu	1.655429	0.762214	0.575851
O28	O	0.981690	0.197192	0.076880
O29	O	1.315023	0.530525	0.410213
O30	O	1.648357	0.863859	0.743547
C31	C	0.835641	0.100648	0.000045
C32	C	1.168975	0.433982	0.333378
C33	C	1.502308	0.767315	0.666712
C34	C	0.742696	0.099271	0.000038
C35	C	1.076029	0.432604	0.333371
C36	C	1.409363	0.765938	0.666705
C37	C	0.995323	-0.032099	0.000079
C38	C	1.328656	0.301235	0.333412
C39	C	1.661989	0.634568	0.666745
C40	C	0.993955	-0.109607	0.000087
C41	C	1.327288	0.223727	0.333420
C42	C	1.660621	0.557060	0.666753
C43	C	0.404967	0.094324	0.000058
C44	C	0.738300	0.427658	0.333392
C45	C	1.071633	0.760991	0.666725
C46	C	0.452680	0.017982	0.000415
C47	C	0.786014	0.351316	0.333748
C48	C	1.119347	0.684649	0.667082
C49	C	0.549365	0.019360	0.000062
C50	C	0.882699	0.352693	0.333395
C51	C	1.216032	0.686027	0.666729
C52	C	0.572518	0.096778	0.000049
C53	C	0.905852	0.430111	0.333382
C54	C	1.239185	0.763445	0.666715
C55	C	0.531312	0.134429	-0.087714
C56	C	0.864645	0.467762	0.245619
C57	C	1.197979	0.801095	0.578952
C58	C	0.434683	0.132511	-0.087781
C59	C	0.768017	0.465844	0.245552
C60	C	1.101350	0.799178	0.578885
C61	C	0.434301	0.134095	0.086984
C62	C	0.767634	0.467429	0.420317
C63	C	1.100968	0.800762	0.753650
C64	C	0.531246	0.134077	0.088137
C65	C	0.864580	0.467411	0.421471
C66	C	1.197913	0.800744	0.754804
C67	C	0.667211	0.098169	0.000040
C68	C	1.000544	0.431502	0.333374
C69	C	1.333877	0.764835	0.666707
C70	C	0.310274	0.092936	0.000060
C71	C	0.643607	0.426269	0.333394
C72	C	0.976941	0.759602	0.666727
C73	C	1.069615	-0.154338	0.000097
C74	C	1.402948	0.178995	0.333431
C75	C	1.736282	0.512329	0.666764
C76	C	1.068330	-0.227165	0.000082
C77	C	1.401663	0.106168	0.333416
C78	C	1.734996	0.439502	0.666749
C79	C	0.991380	-0.255258	0.000075
C80	C	1.324713	0.078076	0.333409
C81	C	1.658047	0.411409	0.666742
C82	C	0.915710	-0.210517	0.000059
C83	C	1.249043	0.122817	0.333393
C84	C	1.582377	0.456150	0.666726
C85	C	0.916997	-0.137691	0.000065
C86	C	1.250331	0.195642	0.333398
C87	C	1.583664	0.528976	0.666732
N88	N	0.932550	-0.363410	0.052371
N89	N	1.265883	-0.030077	0.385705
N90	N	1.599217	0.303256	0.719038
N91	N	0.931332	-0.432592	0.052368
N92	N	1.264666	-0.099259	0.385701
N93	N	1.597999	0.234075	0.719035
C94	C	0.987497	-0.474676	0.000056
C95	C	1.320830	-0.141343	0.333390
C96	C	1.654164	0.191990	0.666723
N97	N	1.044938	-0.444967	-0.052240
N98	N	1.378271	-0.111633	0.281093
N99	N	1.711605	0.221700	0.614426
N100	N	1.046158	-0.375779	-0.052233
N101	N	1.379491	-0.042445	0.281101
N102	N	1.712825	0.290888	0.614434
C103	C	0.989976	-0.334224	0.000069
C104	C	1.323309	-0.000890	0.333402
C105	C	1.656642	0.332443	0.666735
C106	C	1.061769	-0.598375	0.000050
C107	C	1.395102	-0.265042	0.333383
C108	C	1.728435	0.068291	0.666716
C109	C	1.060480	-0.671204	0.000029
C110	C	1.393814	-0.337870	0.333362
C111	C	1.727147	-0.004537	0.666696
C112	C	0.907859	-0.654553	0.000015
C113	C	1.241192	-0.321220	0.333349
C114	C	1.574525	0.012113	0.666682
C115	C	0.909149	-0.581727	0.000027
C116	C	1.242482	-0.248394	0.333360
C117	C	1.575816	0.084940	0.666693
C118	C	0.986106	-0.553643	0.000048
C119	C	1.319440	-0.220309	0.333381
C120	C	1.652773	0.113024	0.666715
C121	C	1.141843	0.090454	0.000068
C122	C	1.475177	0.423787	0.333401
C123	C	1.808510	0.757121	0.666735
C124	C	1.234789	0.091831	0.000069
C125	C	1.568122	0.425165	0.333402
C126	C	1.901455	0.758498	0.666736
C127	C	0.982162	0.223201	0.000034
C128	C	1.315495	0.556534	0.333368
C129	C	1.648829	0.889868	0.666701
C130	C	0.983530	0.300709	0.000020
C131	C	1.316863	0.634042	0.333354
C132	C	1.650197	0.967376	0.666687
N133	N	0.988701	0.095560	0.218762
N134	N	1.322035	0.428893	0.552095
N135	N	1.655368	0.762226	0.885428
N136	N	0.988790	0.095537	-0.218647
N137	N	1.322123	0.428871	0.114687
N138	N	1.655457	0.762204	0.448020
C139	C	0.988761	0.095545	0.592853
C140	C	1.322094	0.428878	0.926186
C141	C	1.655428	0.762211	1.259520
C142	C	0.919535	0.152710	0.553672
C143	C	1.252869	0.486043	0.887005
C144	C	1.586202	0.819376	1.220338
C145	C	0.919694	0.152918	0.446584
C146	C	1.253027	0.486252	0.779917
C147	C	1.586361	0.819585	1.113250
C148	C	0.988731	0.095552	0.407262
C149	C	1.322064	0.428885	0.740595
C150	C	1.655397	0.762219	1.073929
C151	C	1.076037	0.111464	0.446103
C152	C	1.409370	0.444797	0.779436
C153	C	1.742704	0.778130	1.112770
C154	C	1.075648	0.111870	0.553224
C155	C	1.408981	0.445203	0.886558
C156	C	1.742314	0.778537	1.219891
C157	C	0.971460	0.022298	0.553394
C158	C	1.304793	0.355632	0.886727
C159	C	1.638127	0.688965	1.220061
C160	C	0.969454	0.022787	0.446266
C161	C	1.302788	0.356120	0.779600
C162	C	1.636121	0.689453	1.112933
C163	C	0.988719	0.095555	0.302374
C164	C	1.322052	0.428888	0.635707
C165	C	1.655386	0.762221	0.969040
C166	C	0.988778	0.095543	0.697741
C167	C	1.322112	0.428877	1.031075
C168	C	1.655445	0.762210	1.364408
H169	H	0.577889	-0.010236	0.062975
H170	H	0.911222	0.323098	0.396308
H171	H	1.244556	0.656431	0.729642
H172	H	0.854420	0.143386	0.579456
H173	H	1.187753	0.476719	0.912790
H174	H	1.521086	0.810052	1.246123
H175	H	0.909193	0.006998	0.580460
H176	H	1.242526	0.340331	0.913793
H177	H	1.575860	0.673665	1.247126
H178	H	0.847538	-0.545305	0.000023
H179	H	1.180872	-0.211972	0.333356
H180	H	1.514205	0.121361	0.666690
H181	H	0.853057	-0.233394	0.000052
H182	H	1.186390	0.099939	0.333385
H183	H	1.519724	0.433273	0.666718
H184	H	1.091696	0.164273	0.419257
H185	H	1.425029	0.497606	0.752591
H186	H	1.758362	0.830939	1.085924
H187	H	0.559796	0.108273	-0.153020
H188	H	0.893130	0.441606	0.180313
H189	H	1.226463	0.774940	0.513646
H190	H	0.402230	0.188560	-0.091773
H191	H	0.735564	0.521893	0.241560
H192	H	1.068897	0.855226	0.574893
H193	H	1.124432	-0.575508	0.000063
H194	H	1.457765	-0.242175	0.333396
H195	H	1.791099	0.091159	0.666730
H196	H	0.558650	0.106592	0.153064
H197	H	0.891983	0.439926	0.486397
H198	H	1.225316	0.773259	0.819731
H199	H	0.416490	0.105049	-0.153377
H200	H	0.749823	0.438382	0.179957
H201	H	1.083156	0.771716	0.513290
H202	H	0.413843	0.109140	0.153506
H203	H	0.747176	0.442473	0.486839
H204	H	1.080509	0.775807	0.820172
H205	H	1.021946	-0.020242	0.578732
H206	H	1.355279	0.313091	0.912065
H207	H	1.688613	0.646425	1.245398
H208	H	0.546404	0.190533	0.093428
H209	H	0.879737	0.523866	0.426762
H210	H	1.213070	0.857200	0.760095
H211	H	0.855384	-0.101270	0.000057
H212	H	1.188717	0.232063	0.333390
H213	H	1.522050	0.565397	0.666723
H214	H	1.090934	0.165288	0.578192
H215	H	1.424268	0.498621	0.911525
H216	H	1.757601	0.831955	1.244858
H217	H	1.122095	-0.707624	0.000033
H218	H	1.455428	-0.374290	0.333366
H219	H	1.788761	-0.040957	0.666699
H220	H	0.434256	-0.012531	0.063354
H221	H	0.767590	0.320803	0.396687
H222	H	1.100923	0.654136	0.730021
H223	H	1.128755	0.071875	0.579141
H224	H	1.462088	0.405209	0.912475
H225	H	1.795422	0.738542	1.245808
H226	H	0.433211	-0.012395	-0.062166
H227	H	0.766545	0.320938	0.271167
H228	H	1.099878	0.654271	0.604501
H229	H	1.016620	-0.021746	0.419504
H230	H	1.349954	0.311587	0.752837
H231	H	1.683287	0.644921	1.086171
H232	H	0.930402	0.206759	0.580572
H233	H	1.263735	0.540092	0.913906
H234	H	1.597069	0.873425	1.247239
H235	H	0.845205	-0.677425	0.000005
H236	H	1.178538	-0.344092	0.333338
H237	H	1.511871	-0.010759	0.666672
H238	H	0.577346	-0.010441	-0.062950
H239	H	0.910679	0.322892	0.270384
H240	H	1.244013	0.656226	0.603717
H241	H	0.854789	0.143438	0.420324
H242	H	1.188122	0.476772	0.753658
H243	H	1.521456	0.810105	1.086991
H244	H	0.402333	0.190382	0.087568
H245	H	0.735667	0.523715	0.420901
H246	H	1.069000	0.857048	0.754234
H247	H	1.128770	0.070935	0.420631
H248	H	1.462103	0.404268	0.753964
H249	H	1.795436	0.737602	1.087297
H250	H	0.545229	0.191306	-0.090987
H251	H	0.878563	0.524639	0.242346
H252	H	1.211896	0.857972	0.575679
H253	H	0.930714	0.207273	0.420941
H254	H	1.264048	0.540606	0.754274
H255	H	1.597381	0.873940	1.087607
H256	H	1.132280	-0.131477	0.000112
H257	H	1.465613	0.201856	0.333445
H258	H	1.798946	0.535190	0.666778
H259	H	1.129943	-0.263592	0.000087
H260	H	1.463277	0.069741	0.333421
H261	H	1.796610	0.403074	0.666754
H262	H	0.905232	0.010711	0.420881
H263	H	1.238566	0.344045	0.754215
H264	H	1.571899	0.677378	1.087548
