data_functionalizedCrystal
_audit_creation_method	'MofGen! by Chris Wilmer'
_symmetry_space_group_name_H-M	'P1'
_symmetry_Int_Tables_number	1
_symmetry_cell_setting	triclinic
loop_
_symmetry_equiv_pos_as_xyz
  x,y,z
_cell_length_a	19.121379
_cell_length_b	16.625546
_cell_length_c	16.625539
_cell_angle_alpha	90.030397
_cell_angle_beta	87.585746
_cell_angle_gamma	92.463154
loop_
_atom_site_label
_atom_site_type_symbol
_atom_site_fract_x
_atom_site_fract_y
_atom_site_fract_z
Zn1	Zn	-1.073729	0.268438	-0.403463
Zn2	Zn	-1.073644	0.403286	-0.268629
Zn3	Zn	-0.956278	0.274216	-0.274379
Zn4	Zn	-0.956252	0.408984	-0.409152
O5	O	-1.014976	0.338731	-0.338906
O6	O	-1.172000	0.281524	-0.380790
O7	O	-1.058051	0.386198	-0.156561
O8	O	-0.971904	0.160615	-0.291528
O9	O	-1.171939	0.380595	-0.281728
O10	O	-1.058195	0.156370	-0.386365
O11	O	-0.971822	0.291371	-0.160785
O12	O	-0.857991	0.296896	-0.297044
O13	O	-0.971860	0.390307	-0.521229
O14	O	-0.857972	0.395909	-0.396061
O15	O	-1.058170	0.287049	-0.517049
O16	O	-1.058026	0.516876	-0.287245
O17	O	-0.971778	0.521062	-0.390486
C18	C	-0.832498	0.347648	-0.347795
C19	C	-0.754434	0.351483	-0.351616
C20	C	-0.717748	0.301655	-0.301944
C21	C	-0.644398	0.305265	-0.305534
C22	C	-0.607735	0.358698	-0.358802
C23	C	-0.644426	0.408531	-0.408477
C24	C	-0.717774	0.404925	-0.404882
C25	C	-0.386270	0.372173	-0.372229
C26	C	-0.312916	0.375774	-0.375822
C27	C	-0.312893	0.272509	-0.272878
C28	C	-0.386243	0.268904	-0.269291
C29	C	-0.422928	0.318739	-0.318962
C30	C	-0.532759	0.362388	-0.362476
C31	C	-0.497902	0.315054	-0.315285
C32	C	-1.014909	0.548225	-0.338875
C33	C	-1.014945	0.637844	-0.338886
C34	C	-1.015021	0.338669	-0.549213
C35	C	-1.015041	0.338642	-0.638833
C36	C	-0.198166	0.329775	-0.329975
C37	C	-0.276230	0.325947	-0.326149
C38	C	-1.015062	0.128418	-0.338953
C39	C	-1.015098	0.038795	-0.338973
C40	C	-1.015068	0.966014	-0.338964
C41	C	-1.015031	0.874707	-0.338945
C42	C	-1.015006	0.801932	-0.338925
C43	C	-1.014971	0.710620	-0.338906
C44	C	-1.015073	0.338550	-0.967007
C45	C	-1.015062	0.338578	-0.875699
C46	C	-1.015057	0.338597	-0.802923
C47	C	-1.015046	0.338624	-0.711609
C48	C	-1.014971	0.338733	-0.129415
C49	C	-1.015087	0.338526	-0.039789
H50	H	-0.527756	0.271552	-0.271911
H51	H	-0.747594	0.258138	-0.258573
N52	N	-0.425771	0.211268	-0.211830
H53	H	-0.456183	0.242486	-0.172911
H54	H	-0.456182	0.172455	-0.243229
N55	N	-0.273327	0.218777	-0.219290
H56	H	-0.221298	0.229172	-0.229642
H57	H	-0.286129	0.230641	-0.161060
N58	N	-0.273370	0.433401	-0.433285
H59	H	-0.307738	0.464424	-0.464208
H60	H	-0.242909	0.472167	-0.401893
H61	H	-0.416129	0.412753	-0.412675
N62	N	-0.604829	0.251526	-0.251956
H63	H	-0.639185	0.217126	-0.217669
H64	H	-0.574415	0.215751	-0.286335
N65	N	-0.604886	0.466170	-0.465925
H66	H	-0.552853	0.460893	-0.460668
H67	H	-0.617736	0.453064	-0.522904
H68	H	-0.747643	0.445499	-0.445330
H69	H	-0.502900	0.405892	-0.405847
