data_functionalizedCrystal
_audit_creation_method	'MofGen! by Chris Wilmer'
_symmetry_space_group_name_H-M	'P1'
_symmetry_Int_Tables_number	1
_symmetry_cell_setting	triclinic
loop_
_symmetry_equiv_pos_as_xyz
  x,y,z
_cell_length_a	19.121414
_cell_length_b	19.120786
_cell_length_c	16.625539
_cell_angle_alpha	92.471374
_cell_angle_beta	87.584190
_cell_angle_gamma	95.006361
loop_
_atom_site_label
_atom_site_type_symbol
_atom_site_fract_x
_atom_site_fract_y
_atom_site_fract_z
Zn1	Zn	1.063724	-0.234252	0.392440
Zn2	Zn	1.397057	0.099082	0.725773
Zn3	Zn	1.730390	0.432415	1.059107
Zn4	Zn	1.058613	-0.351934	0.252085
Zn5	Zn	1.391946	-0.018601	0.585419
Zn6	Zn	1.725280	0.314732	0.918752
Zn7	Zn	0.946057	-0.239296	0.263123
Zn8	Zn	1.279390	0.094037	0.596456
Zn9	Zn	1.612724	0.427371	0.929790
Zn10	Zn	0.941008	-0.356909	0.392378
Zn11	Zn	1.274341	-0.023575	0.725712
Zn12	Zn	1.607675	0.309758	1.059045
O13	O	1.002350	-0.295598	0.325007
O14	O	1.335684	0.037736	0.658340
O15	O	1.669017	0.371069	0.991673
O16	O	1.161508	-0.245670	0.369228
O17	O	1.494841	0.087664	0.702561
O18	O	1.828174	0.420997	1.035895
O19	O	1.043656	-0.337022	0.140717
O20	O	1.376990	-0.003688	0.474050
O21	O	1.710323	0.329645	0.807384
O22	O	0.965918	-0.140155	0.284922
O23	O	1.299251	0.193178	0.618256
O24	O	1.632584	0.526512	0.951589
O25	O	1.157753	-0.332131	0.266110
O26	O	1.491086	0.001203	0.599444
O27	O	1.824419	0.334536	0.932777
O28	O	1.052367	-0.136449	0.379931
O29	O	1.385700	0.196884	0.713264
O30	O	1.719033	0.530218	1.046597
O31	O	0.960962	-0.254267	0.148826
O32	O	1.294295	0.079067	0.482160
O33	O	1.627629	0.412400	0.815493
O34	O	0.846925	-0.259090	0.284863
O35	O	1.180259	0.074243	0.618196
O36	O	1.513592	0.407576	0.951529
O37	O	0.957312	-0.340609	0.505219
O38	O	1.290646	-0.007275	0.838552
O39	O	1.623979	0.326058	1.171886
O40	O	0.843216	-0.345500	0.379826
O41	O	1.176549	-0.012166	0.713159
O42	O	1.509882	0.321167	1.046493
O43	O	1.047471	-0.250493	0.505264
O44	O	1.380804	0.082840	0.838598
O45	O	1.714138	0.416173	1.171931
O46	O	1.038760	-0.451066	0.266051
O47	O	1.372094	-0.117733	0.599384
O48	O	1.705427	0.215601	0.932717
O49	O	0.952357	-0.454721	0.369123
O50	O	1.285690	-0.121387	0.702456
O51	O	1.619023	0.211946	1.035790
C52	C	0.819540	-0.303383	0.333536
C53	C	1.152874	0.029951	0.666869
C54	C	1.486207	0.363284	1.000202
C55	C	0.741333	-0.306730	0.337203
C56	C	1.074666	0.026603	0.670536
C57	C	1.408000	0.359937	1.003870
C58	C	0.706504	-0.263246	0.289571
C59	C	1.039838	0.070087	0.622905
C60	C	1.373171	0.403421	0.956238
C61	C	0.633020	-0.266397	0.293016
C62	C	0.966353	0.066936	0.626350
C63	C	1.299686	0.400269	0.959683
C64	C	0.594365	-0.313030	0.344098
C65	C	0.927698	0.020304	0.677431
C66	C	1.261032	0.353637	1.010765
C67	C	0.629198	-0.356518	0.391731
C68	C	0.962532	-0.023185	0.725065
C69	C	1.295865	0.310148	1.058398
C70	C	0.702682	-0.353370	0.388281
C71	C	1.036015	-0.020037	0.721615
C72	C	1.369348	0.313296	1.054948
C73	C	0.372398	-0.324793	0.356980
C74	C	0.705731	0.008540	0.690313
C75	C	1.039064	0.341874	1.023646
C76	C	0.298909	-0.327936	0.360428
C77	C	0.632243	0.005397	0.693761
C78	C	0.965576	0.338730	1.027094
C79	C	0.302736	-0.237816	0.261711
C80	C	0.636069	0.095517	0.595045
C81	C	0.969402	0.428851	0.928378
C82	C	0.376220	-0.234669	0.258270
C83	C	0.709554	0.098665	0.591603
C84	C	1.042887	0.431998	0.924936
C85	C	0.411047	-0.278160	0.305900
C86	C	0.744381	0.055173	0.639233
C87	C	1.077714	0.388507	0.972566
C88	C	0.519252	-0.316250	0.347622
C89	C	0.852585	0.017083	0.680956
C90	C	1.185919	0.350416	1.014289
C91	C	0.486159	-0.274942	0.302370
C92	C	0.819492	0.058391	0.635704
C93	C	1.152825	0.391724	0.969037
C94	C	0.994475	-0.478425	0.316399
C95	C	1.327809	-0.145092	0.649732
C96	C	1.661142	0.188242	0.983066
C97	C	0.991170	-0.556637	0.312741
C98	C	1.324504	-0.223303	0.646074
C99	C	1.657837	0.110030	0.979407
C100	C	1.034594	-0.591392	0.360531
C101	C	1.367927	-0.258059	0.693865
C102	C	1.701260	0.075275	1.027198
C103	C	1.031486	-0.664880	0.357095
C104	C	1.364819	-0.331547	0.690429
C105	C	1.698152	0.001786	1.023762
C106	C	0.984958	-0.703612	0.305864
C107	C	1.318291	-0.370278	0.639197
C108	C	1.651624	-0.036945	0.972531
C109	C	0.941530	-0.668851	0.258072
C110	C	1.274863	-0.335518	0.591405
C111	C	1.608196	-0.002184	0.924738
C112	C	0.944634	-0.595364	0.261512
C113	C	1.277968	-0.262031	0.594846
C114	C	1.611301	0.071302	0.928179
C115	C	0.973330	-0.925594	0.293002
C116	C	1.306663	-0.592260	0.626336
C117	C	1.639996	-0.258927	0.959669
C118	C	0.970229	-0.999085	0.289564
C119	C	1.303563	-0.665752	0.622897
C120	C	1.636896	-0.332419	0.956230
C121	C	1.060185	-0.995109	0.388589
C122	C	1.393519	-0.661776	0.721922
C123	C	1.726852	-0.328443	1.055255
C124	C	1.063289	-0.921621	0.392021
C125	C	1.396622	-0.588288	0.725355
C126	C	1.729956	-0.254955	1.058688
C127	C	1.019858	-0.886867	0.344232
C128	C	1.353192	-0.553534	0.677565
C129	C	1.686525	-0.220201	1.010899
C130	C	0.981781	-0.778728	0.302349
C131	C	1.315115	-0.445395	0.635682
C132	C	1.648448	-0.112062	0.969016
C133	C	1.023032	-0.811752	0.347752
C134	C	1.356365	-0.478419	0.681085
C135	C	1.689698	-0.145085	1.014419
C136	C	1.185874	-0.287783	0.316445
C137	C	1.519207	0.045551	0.649778
C138	C	1.852541	0.378884	0.983111
C139	C	1.264081	-0.284452	0.312796
C140	C	1.597414	0.048881	0.646130
C141	C	1.930748	0.382214	0.979463
C142	C	1.002398	-0.295543	0.535316
C143	C	1.335732	0.037790	0.868649
C144	C	1.669065	0.371123	1.201983
C145	C	1.002419	-0.295520	0.624937
C146	C	1.335752	0.037813	0.958271
C147	C	1.669086	0.371147	1.291604
C148	C	1.010276	-0.112055	0.333665
C149	C	1.343609	0.221278	0.666998
C150	C	1.676942	0.554611	1.000331
C151	C	1.013653	-0.033841	0.337354
C152	C	1.346986	0.299493	0.670687
C153	C	1.680319	0.632826	1.004021
C154	C	1.002345	-0.295599	0.115516
C155	C	1.335679	0.037734	0.448849
C156	C	1.669012	0.371067	0.782183
C157	C	1.002470	-0.295418	0.025898
C158	C	1.335803	0.037915	0.359231
C159	C	1.669136	0.371248	0.692565
C160	C	1.002455	-0.295440	0.953115
C161	C	1.335788	0.037893	1.286449
C162	C	1.669121	0.371227	1.619782
C163	C	1.002443	-0.295465	0.861806
C164	C	1.335776	0.037869	1.195140
C165	C	1.669109	0.371202	1.528473
C166	C	1.002437	-0.295481	0.789029
C167	C	1.335770	0.037853	1.122363
C168	C	1.669104	0.371186	1.455696
C169	C	1.002424	-0.295504	0.697714
C170	C	1.335758	0.037829	1.031048
C171	C	1.669091	0.371163	1.364381
H172	H	0.267439	-0.365909	0.402030
H173	H	0.600772	-0.032576	0.735363
H174	H	0.934105	0.300757	1.068696
H175	H	0.597720	-0.394491	0.433319
H176	H	0.931053	-0.061157	0.766652
H177	H	1.264386	0.272176	1.099986
H178	H	0.731038	-0.388780	0.427068
H179	H	1.064371	-0.055446	0.760401
H180	H	1.397704	0.277887	1.093735
C181	C	0.264420	-0.189983	0.209317
C182	C	0.597753	0.143350	0.542650
C183	C	0.931087	0.476684	0.875983
N184	N	0.235560	-0.153955	0.169848
N185	N	0.568894	0.179378	0.503182
N186	N	0.902227	0.512711	0.836515
C187	C	0.896866	-0.557134	0.208938
C188	C	1.230199	-0.223800	0.542272
C189	C	1.563533	0.109533	0.875605
N190	N	0.860883	-0.528340	0.169339
N191	N	1.194217	-0.195006	0.502673
N192	N	1.527550	0.138327	0.836006
C193	C	0.890391	-0.711456	0.201666
C194	C	1.223724	-0.378123	0.534999
C195	C	1.557057	-0.044790	0.868332
N196	N	0.851889	-0.743545	0.159159
N197	N	1.185223	-0.410212	0.492492
N198	N	1.518556	-0.076878	0.825825
C199	C	0.749018	-0.211947	0.233377
C200	C	1.082351	0.121387	0.566710
C201	C	1.415685	0.454720	0.900044
N202	N	0.781037	-0.173309	0.191047
N203	N	1.114371	0.160025	0.524380
N204	N	1.447704	0.493358	0.857714
H205	H	0.400745	-0.360207	0.395764
H206	H	0.734078	-0.026873	0.729097
H207	H	1.067411	0.306460	1.062430
H208	H	0.487771	-0.354218	0.389214
H209	H	0.821105	-0.020885	0.722547
H210	H	1.154438	0.312449	1.055881
H211	H	0.517634	-0.236977	0.260777
H212	H	0.850968	0.096356	0.594111
H213	H	1.184301	0.429689	0.927444
H214	H	0.604666	-0.230992	0.254225
H215	H	0.937999	0.102341	0.587558
H216	H	1.271332	0.435674	0.920891
H217	H	1.072485	-0.559862	0.402246
H218	H	1.405818	-0.226528	0.735579
H219	H	1.739152	0.106805	1.068912
H220	H	0.407688	-0.196701	0.216668
H221	H	0.741021	0.136633	0.550001
H222	H	1.074355	0.469966	0.883334
H223	H	1.060912	-0.780215	0.389468
H224	H	1.394246	-0.446882	0.722801
H225	H	1.727579	-0.113549	1.056134
C226	C	1.079265	-0.703107	0.409658
C227	C	1.412598	-0.369774	0.742991
C228	C	1.745931	-0.036441	1.076325
N229	N	1.115257	-0.731900	0.449247
N230	N	1.448590	-0.398566	0.782581
N231	N	1.781923	-0.065233	1.115914
C232	C	0.930664	-0.821337	0.245921
C233	C	1.263998	-0.488004	0.579254
C234	C	1.597331	-0.154670	0.912587
N235	N	0.892184	-0.853432	0.203394
N236	N	1.225518	-0.520098	0.536727
N237	N	1.558851	-0.186765	0.870061
H238	H	1.101176	-0.890088	0.433738
H239	H	1.434509	-0.556754	0.767071
H240	H	1.767843	-0.223421	1.100405
H241	H	1.095543	-1.023414	0.427497
H242	H	1.428876	-0.690081	0.760830
H243	H	1.762210	-0.356747	1.094164
H244	H	0.937968	-0.897303	0.254089
H245	H	1.271301	-0.563969	0.587422
H246	H	1.604635	-0.230636	0.920756
C247	C	0.919040	-1.041688	0.233206
C248	C	1.252373	-0.708355	0.566539
C249	C	1.585706	-0.375022	0.899873
N250	N	0.880486	-1.073777	0.190760
N251	N	1.213819	-0.740444	0.524093
N252	N	1.547152	-0.407111	0.857426
