data_functionalizedCrystal
_audit_creation_method	'MofGen! by Chris Wilmer'
_symmetry_space_group_name_H-M	'P1'
_symmetry_Int_Tables_number	1
_symmetry_cell_setting	triclinic
loop_
_symmetry_equiv_pos_as_xyz
  x,y,z
_cell_length_a	19.288840
_cell_length_b	27.732048
_cell_length_c	18.366186
_cell_angle_alpha	90.010100
_cell_angle_beta	90.016305
_cell_angle_gamma	82.884335
loop_
_atom_site_label
_atom_site_type_symbol
_atom_site_fract_x
_atom_site_fract_y
_atom_site_fract_z
O1	O	0.920988	0.060241	0.060679
O2	O	1.170988	0.310241	0.310679
O3	O	1.420988	0.560241	0.560679
O4	O	1.670988	0.810241	0.810679
O5	O	0.718674	0.068388	0.060655
O6	O	0.968674	0.318388	0.310655
O7	O	1.218674	0.568388	0.560655
O8	O	1.468674	0.818388	0.810655
O9	O	0.826115	-0.006063	0.060654
O10	O	1.076115	0.243937	0.310654
O11	O	1.326115	0.493937	0.560654
O12	O	1.576115	0.743937	0.810654
O13	O	0.813548	0.134693	0.060680
O14	O	1.063548	0.384693	0.310680
O15	O	1.313548	0.634693	0.560680
O16	O	1.563548	0.884693	0.810680
O17	O	0.826096	-0.006065	-0.060446
O18	O	1.076096	0.243935	0.189554
O19	O	1.326096	0.493935	0.439554
O20	O	1.576096	0.743935	0.689554
O21	O	0.718656	0.068386	-0.060445
O22	O	0.968656	0.318386	0.189555
O23	O	1.218656	0.568386	0.439555
O24	O	1.468656	0.818386	0.689555
O25	O	0.920970	0.060239	-0.060420
O26	O	1.170970	0.310239	0.189580
O27	O	1.420970	0.560239	0.439580
O28	O	1.670970	0.810239	0.689580
Zn29	Zn	0.819810	0.064312	-0.079660
Zn30	Zn	1.069810	0.314312	0.170340
Zn31	Zn	1.319810	0.564312	0.420340
Zn32	Zn	1.569810	0.814312	0.670340
Zn33	Zn	0.819834	0.064315	0.079894
Zn34	Zn	1.069834	0.314315	0.329894
Zn35	Zn	1.319834	0.564315	0.579894
Zn36	Zn	1.569834	0.814315	0.829894
O37	O	0.813529	0.134691	-0.060419
O38	O	1.063529	0.384691	0.189581
O39	O	1.313529	0.634691	0.439581
O40	O	1.563529	0.884691	0.689581
C41	C	0.692790	0.068127	0.000102
C42	C	0.942790	0.318127	0.250102
C43	C	1.192790	0.568127	0.500102
C44	C	1.442790	0.818127	0.750102
C45	C	0.615690	0.067346	0.000092
C46	C	0.865690	0.317346	0.250092
C47	C	1.115690	0.567346	0.500092
C48	C	1.365690	0.817346	0.750092
C49	C	0.579499	0.066972	0.066105
C50	C	0.829499	0.316972	0.316105
C51	C	1.079499	0.566972	0.566105
C52	C	1.329499	0.816972	0.816105
C53	C	0.507057	0.066233	0.066114
C54	C	0.757057	0.316233	0.316114
C55	C	1.007057	0.566233	0.566114
C56	C	1.257057	0.816233	0.816114
C57	C	0.470810	0.065858	0.000106
C58	C	0.720810	0.315858	0.250106
C59	C	0.970810	0.565858	0.500106
C60	C	1.220810	0.815858	0.750106
C61	C	0.507010	0.066235	-0.065916
C62	C	0.757010	0.316235	0.184084
C63	C	1.007010	0.566235	0.434084
C64	C	1.257010	0.816235	0.684084
C65	C	0.579450	0.066979	-0.065923
C66	C	0.829450	0.316979	0.184077
C67	C	1.079450	0.566979	0.434077
C68	C	1.329450	0.816979	0.684077
C69	C	0.361659	0.036366	-0.050461
C70	C	0.611659	0.286366	0.199539
C71	C	0.861659	0.536366	0.449539
C72	C	1.111659	0.786366	0.699539
C73	C	0.289221	0.035619	-0.050451
C74	C	0.539221	0.285619	0.199549
C75	C	0.789221	0.535619	0.449549
C76	C	1.039221	0.785619	0.699549
C77	C	0.247381	0.063566	0.000124
C78	C	0.497381	0.313566	0.250124
C79	C	0.747381	0.563566	0.500124
C80	C	0.997381	0.813566	0.750124
C81	C	0.277989	0.092253	0.050703
C82	C	0.527989	0.342253	0.300703
C83	C	0.777989	0.592253	0.550703
C84	C	1.027989	0.842253	0.800703
C85	C	0.350429	0.092997	0.050696
C86	C	0.600429	0.342997	0.300696
C87	C	0.850429	0.592997	0.550696
C88	C	1.100429	0.842997	0.800696
C89	C	0.392261	0.065052	0.000106
C90	C	0.642261	0.315052	0.250106
C91	C	0.892261	0.565052	0.500106
C92	C	1.142261	0.815052	0.750106
C93	C	0.132640	0.062391	0.066152
C94	C	0.382640	0.312391	0.316152
C95	C	0.632640	0.562391	0.566152
C96	C	0.882640	0.812391	0.816152
C97	C	0.060195	0.061655	0.066158
C98	C	0.310195	0.311655	0.316158
C99	C	0.560195	0.561655	0.566158
C100	C	0.810195	0.811655	0.816158
C101	C	0.060151	0.061652	-0.065874
C102	C	0.310151	0.311652	0.184126
C103	C	0.560151	0.561652	0.434126
C104	C	0.810151	0.811652	0.684126
C105	C	0.132593	0.062393	-0.065878
C106	C	0.382593	0.312393	0.184122
C107	C	0.632593	0.562393	0.434122
C108	C	0.882593	0.812393	0.684122
C109	C	0.168833	0.062760	0.000137
C110	C	0.418833	0.312760	0.250137
C111	C	0.668833	0.562760	0.500137
C112	C	0.918833	0.812760	0.750137
C113	C	0.825842	-0.024072	0.000102
C114	C	1.075842	0.225928	0.250102
C115	C	1.325842	0.475928	0.500102
C116	C	1.575842	0.725928	0.750102
C117	C	0.825047	-0.077729	0.000096
C118	C	1.075047	0.172271	0.250096
C119	C	1.325047	0.422271	0.500096
C120	C	1.575047	0.672271	0.750096
C121	C	0.883537	-0.416371	0.000140
C122	C	1.133537	-0.166371	0.250140
C123	C	1.383537	0.083629	0.500140
C124	C	1.633537	0.333629	0.750140
C125	C	0.880590	-0.618040	0.000150
C126	C	1.130590	-0.368040	0.250150
C127	C	1.380590	-0.118040	0.500150
C128	C	1.630590	0.131960	0.750150
O129	O	0.934074	-0.649137	0.000188
O130	O	1.184074	-0.399137	0.250188
O131	O	1.434074	-0.149137	0.500188
O132	O	1.684074	0.100863	0.750188
N133	N	0.816882	-0.637352	0.000142
N134	N	1.066882	-0.387352	0.250142
N135	N	1.316882	-0.137352	0.500142
N136	N	1.566882	0.112648	0.750142
C137	C	0.753907	-0.606243	0.000136
C138	C	1.003907	-0.356243	0.250136
C139	C	1.253907	-0.106243	0.500136
C140	C	1.503907	0.143757	0.750136
O141	O	0.699652	-0.627297	0.000137
O142	O	0.949652	-0.377297	0.250137
O143	O	1.199652	-0.127297	0.500137
O144	O	1.449652	0.122703	0.750137
C145	C	0.756855	-0.404576	0.000131
C146	C	1.006855	-0.154576	0.250131
C147	C	1.256855	0.095424	0.500131
C148	C	1.506855	0.345424	0.750131
C149	C	0.820566	-0.385267	0.000132
C150	C	1.070566	-0.135267	0.250132
C151	C	1.320566	0.114733	0.500132
C152	C	1.570566	0.364733	0.750132
C153	C	0.947244	-0.397062	0.000142
C154	C	1.197244	-0.147062	0.250142
C155	C	1.447244	0.102938	0.500142
C156	C	1.697244	0.352938	0.750142
C157	C	0.947980	-0.346647	0.000136
C158	C	1.197980	-0.096647	0.250136
C159	C	1.447980	0.153353	0.500136
C160	C	1.697980	0.403353	0.750136
C161	C	0.885009	-0.315543	0.000128
C162	C	1.135009	-0.065543	0.250128
C163	C	1.385009	0.184457	0.500128
C164	C	1.635009	0.434457	0.750128
C165	C	0.821302	-0.334853	0.000126
C166	C	1.071302	-0.084853	0.250126
C167	C	1.321302	0.165147	0.500126
C168	C	1.571302	0.415147	0.750126
C169	C	0.693880	-0.373469	0.000131
C170	C	0.943880	-0.123469	0.250131
C171	C	1.193880	0.126531	0.500131
C172	C	1.443880	0.376531	0.750131
C173	C	0.694623	-0.323049	0.000131
C174	C	0.944623	-0.073049	0.250131
C175	C	1.194623	0.176951	0.500131
C176	C	1.444623	0.426951	0.750131
C177	C	0.758334	-0.303740	0.000132
C178	C	1.008334	-0.053740	0.250132
C179	C	1.258334	0.196260	0.500132
C180	C	1.508334	0.446260	0.750132
C181	C	0.759068	-0.253334	0.000111
C182	C	1.009068	-0.003334	0.250111
C183	C	1.259068	0.246666	0.500111
C184	C	1.509068	0.496666	0.750111
N185	N	0.822776	-0.234022	0.000120
N186	N	1.072776	0.015978	0.250120
N187	N	1.322776	0.265978	0.500120
N188	N	1.572776	0.515978	0.750120
C189	C	0.885746	-0.265126	0.000128
C190	C	1.135746	-0.015126	0.250128
C191	C	1.385746	0.234874	0.500128
C192	C	1.635746	0.484874	0.750128
C193	C	0.752363	-0.712122	0.000137
C194	C	1.002363	-0.462122	0.250137
C195	C	1.252363	-0.212122	0.500137
C196	C	1.502363	0.037878	0.750137
C197	C	0.751626	-0.762539	0.000137
C198	C	1.001626	-0.512539	0.250137
C199	C	1.251626	-0.262539	0.500137
C200	C	1.501626	-0.012539	0.750137
C201	C	0.878310	-0.774331	0.000152
C202	C	1.128310	-0.524331	0.250152
C203	C	1.378310	-0.274331	0.500152
C204	C	1.628310	-0.024331	0.750152
C205	C	0.879046	-0.723914	0.000147
C206	C	1.129046	-0.473914	0.250147
C207	C	1.379046	-0.223914	0.500147
C208	C	1.629046	0.026086	0.750147
C209	C	0.816071	-0.692810	0.000145
C210	C	1.066071	-0.442810	0.250145
C211	C	1.316071	-0.192810	0.500145
C212	C	1.566071	0.057190	0.750145
C213	C	0.887287	-0.159253	0.000114
C214	C	1.137287	0.090747	0.250114
C215	C	1.387287	0.340747	0.500114
C216	C	1.637287	0.590747	0.750114
C217	C	0.888018	-0.108834	0.000104
C218	C	1.138018	0.141166	0.250104
C219	C	1.388018	0.391166	0.500104
C220	C	1.638018	0.641166	0.750104
C221	C	0.761335	-0.097045	0.000092
C222	C	1.011335	0.152955	0.250092
C223	C	1.261335	0.402955	0.500092
C224	C	1.511335	0.652955	0.750092
C225	C	0.760604	-0.147460	0.000098
C226	C	1.010604	0.102540	0.250098
C227	C	1.260604	0.352540	0.500098
C228	C	1.510604	0.602540	0.750098
C229	C	0.823586	-0.178563	0.000111
C230	C	1.073586	0.071437	0.250111
C231	C	1.323586	0.321437	0.500111
C232	C	1.573586	0.571437	0.750111
O233	O	0.705612	-0.222208	0.000081
O234	O	0.955612	0.027792	0.250081
O235	O	1.205612	0.277792	0.500081
O236	O	1.455612	0.527792	0.750081
O237	O	0.939993	-0.244063	0.000143
O238	O	1.189993	0.005937	0.250143
O239	O	1.439993	0.255937	0.500143
O240	O	1.689993	0.505937	0.750143
C241	C	0.882801	-0.466785	0.000147
C242	C	1.132801	-0.216785	0.250147
C243	C	1.382801	0.033215	0.500147
C244	C	1.632801	0.283215	0.750147
C245	C	0.819094	-0.486095	0.000145
C246	C	1.069094	-0.236095	0.250145
C247	C	1.319094	0.013905	0.500145
C248	C	1.569094	0.263905	0.750145
C249	C	0.756124	-0.454991	0.000137
C250	C	1.006124	-0.204991	0.250137
C251	C	1.256124	0.045009	0.500137
C252	C	1.506124	0.295009	0.750137
C253	C	0.818357	-0.536512	0.000145
C254	C	1.068357	-0.286512	0.250145
C255	C	1.318357	-0.036512	0.500145
C256	C	1.568357	0.213488	0.750145
C257	C	0.881327	-0.567616	0.000153
C258	C	1.131327	-0.317616	0.250153
C259	C	1.381327	-0.067616	0.500153
C260	C	1.631327	0.182384	0.750153
C261	C	0.945035	-0.548304	0.000161
C262	C	1.195035	-0.298304	0.250161
C263	C	1.445035	-0.048304	0.500161
C264	C	1.695035	0.201696	0.750161
C265	C	0.945771	-0.497890	0.000155
C266	C	1.195771	-0.247890	0.250155
C267	C	1.445771	0.002110	0.500155
C268	C	1.695771	0.252110	0.750155
C269	C	0.692416	-0.474303	0.000129
C270	C	0.942416	-0.224303	0.250129
C271	C	1.192416	0.025697	0.500129
C272	C	1.442416	0.275697	0.750129
C273	C	0.691685	-0.524718	0.000134
C274	C	0.941685	-0.274718	0.250134
C275	C	1.191685	-0.024718	0.500134
C276	C	1.441685	0.225282	0.750134
C277	C	0.754655	-0.555822	0.000142
C278	C	1.004655	-0.305822	0.250142
C279	C	1.254655	-0.055822	0.500142
C280	C	1.504655	0.194178	0.750142
C281	C	0.946854	0.060500	0.000134
C282	C	1.196854	0.310500	0.250134
C283	C	1.446854	0.560500	0.500134
C284	C	1.696854	0.810500	0.750134
C285	C	1.023954	0.061281	0.000149
C286	C	1.273954	0.311281	0.250149
C287	C	1.523954	0.561281	0.500149
C288	C	1.773954	0.811281	0.750149
C289	C	0.813802	0.152700	0.000134
C290	C	1.063802	0.402700	0.250134
C291	C	1.313802	0.652700	0.500134
C292	C	1.563802	0.902700	0.750134
C293	C	0.814597	0.206357	0.000145
C294	C	1.064597	0.456357	0.250145
C295	C	1.314597	0.706357	0.500145
C296	C	1.564597	0.956357	0.750145
N297	N	0.819798	0.064310	-0.188551
N298	N	1.069798	0.314310	0.061449
N299	N	1.319798	0.564310	0.311449
N300	N	1.569798	0.814310	0.561449
C301	C	0.861604	0.093553	-0.226634
C302	C	1.111604	0.343553	0.023366
C303	C	1.361604	0.593553	0.273366
C304	C	1.611604	0.843553	0.523366
C305	C	0.861615	0.093551	-0.302862
C306	C	1.111615	0.343551	-0.052862
C307	C	1.361615	0.593551	0.197138
C308	C	1.611615	0.843551	0.447138
C309	C	0.819808	0.064313	-0.341003
C310	C	1.069808	0.314313	-0.091003
C311	C	1.319808	0.564313	0.158997
C312	C	1.569808	0.814313	0.408997
C313	C	0.778000	0.035065	-0.302911
C314	C	1.028000	0.285065	-0.052911
C315	C	1.278000	0.535065	0.197089
C316	C	1.528000	0.785065	0.447089
C317	C	0.777995	0.035064	-0.226685
C318	C	1.027995	0.285064	0.023315
C319	C	1.277995	0.535064	0.273315
C320	C	1.527995	0.785064	0.523315
C321	C	0.757203	0.063095	-0.461793
C322	C	1.007203	0.313095	-0.211793
C323	C	1.257203	0.563095	0.038207
C324	C	1.507203	0.813095	0.288207
C325	C	0.757207	0.063100	-0.538018
C326	C	1.007207	0.313100	-0.288018
C327	C	1.257207	0.563100	-0.038018
C328	C	1.507207	0.813100	0.211982
C329	C	0.819824	0.064315	-0.576111
C330	C	1.069824	0.314315	-0.326111
C331	C	1.319824	0.564315	-0.076111
C332	C	1.569824	0.814315	0.173889
C333	C	0.882438	0.065535	-0.537970
C334	C	1.132438	0.315535	-0.287970
C335	C	1.382438	0.565535	-0.037970
C336	C	1.632438	0.815535	0.212030
C337	C	0.882434	0.065534	-0.461744
C338	C	1.132434	0.315534	-0.211744
C339	C	1.382434	0.565534	0.038256
C340	C	1.632434	0.815534	0.288256
C341	C	0.819809	0.064311	-0.423658
C342	C	1.069809	0.314311	-0.173658
C343	C	1.319809	0.564311	0.076342
C344	C	1.569809	0.814311	0.326342
C345	C	0.861645	0.093557	-0.696849
C346	C	1.111645	0.343557	-0.446849
C347	C	1.361645	0.593557	-0.196849
C348	C	1.611645	0.843557	0.053151
C349	C	0.861658	0.093552	-0.773078
C350	C	1.111658	0.343552	-0.523078
C351	C	1.361658	0.593552	-0.273078
C352	C	1.611658	0.843552	-0.023078
C353	C	0.778036	0.035069	-0.773126
C354	C	1.028036	0.285069	-0.523126
C355	C	1.278036	0.535069	-0.273126
C356	C	1.528036	0.785069	-0.023126
C357	C	0.778030	0.035071	-0.696898
C358	C	1.028030	0.285071	-0.446898
C359	C	1.278030	0.535071	-0.196898
C360	C	1.528030	0.785071	0.053102
C361	C	0.819833	0.064318	-0.658764
C362	C	1.069833	0.314318	-0.408764
C363	C	1.319833	0.564318	-0.158764
C364	C	1.569833	0.814318	0.091236
N365	N	0.819851	0.064313	0.188785
N366	N	1.069851	0.314313	0.438785
N367	N	1.319851	0.564313	0.688785
N368	N	1.569851	0.814313	0.938785
H369	H	0.477584	0.065929	0.119871
H370	H	0.727584	0.315929	0.369871
H371	H	0.977584	0.565929	0.619871
H372	H	1.227584	0.815929	0.869871
H373	H	0.933417	0.066527	-0.430693
H374	H	1.183417	0.316527	-0.180693
H375	H	1.433417	0.566527	0.069307
H376	H	1.683417	0.816527	0.319307
H377	H	0.609002	0.067271	0.119860
H378	H	0.859002	0.317271	0.369860
H379	H	1.109002	0.567271	0.619860
H380	H	1.359002	0.817271	0.869860
H381	H	0.701079	-0.686801	0.000135
H382	H	0.951079	-0.436801	0.250135
H383	H	1.201079	-0.186801	0.500135
H384	H	1.451079	0.063199	0.750135
H385	H	0.708725	-0.163182	0.000077
H386	H	0.958725	0.086818	0.250077
H387	H	1.208725	0.336818	0.500077
H388	H	1.458725	0.586818	0.750077
H389	H	0.030729	0.061354	0.119916
H390	H	0.280729	0.311354	0.369916
H391	H	0.530729	0.561354	0.619916
H392	H	0.780729	0.811354	0.869916
H393	H	0.375347	0.116357	0.091877
H394	H	0.625347	0.366357	0.341877
H395	H	0.875347	0.616357	0.591877
H396	H	1.125347	0.866357	0.841877
H397	H	0.743997	0.011262	-0.804180
H398	H	0.993997	0.261262	-0.554180
H399	H	1.243997	0.511262	-0.304180
H400	H	1.493997	0.761262	-0.054180
H401	H	0.706222	0.062108	-0.569066
H402	H	0.956222	0.312108	-0.319066
H403	H	1.206222	0.562108	-0.069066
H404	H	1.456222	0.812108	0.180934
H405	H	0.710066	-0.071711	0.000083
H406	H	0.960066	0.178289	0.250083
H407	H	1.210066	0.428289	0.500083
H408	H	1.460066	0.678289	0.750083
H409	H	0.996308	-0.573638	0.000165
H410	H	1.246308	-0.323638	0.250165
H411	H	1.496308	-0.073638	0.500165
H412	H	1.746308	0.176362	0.750165
H413	H	0.706208	0.062108	-0.430783
H414	H	0.956208	0.312108	-0.180783
H415	H	1.206208	0.562108	0.069217
H416	H	1.456208	0.812108	0.319217
H417	H	0.743984	0.011261	-0.665891
H418	H	0.993984	0.261261	-0.415891
H419	H	1.243984	0.511261	-0.165891
H420	H	1.493984	0.761261	0.084109
H421	H	0.933427	0.066528	-0.568984
H422	H	1.183427	0.316528	-0.318984
H423	H	1.433427	0.566528	-0.068984
H424	H	1.683427	0.816528	0.181016
H425	H	0.895685	0.117371	-0.665799
H426	H	1.145685	0.367371	-0.415799
H427	H	1.395685	0.617371	-0.165799
H428	H	1.645685	0.867371	0.084201
H429	H	0.743961	0.011259	-0.333971
H430	H	0.993961	0.261259	-0.083971
H431	H	1.243961	0.511259	0.166029
H432	H	1.493961	0.761259	0.416029
H433	H	0.743950	0.011250	-0.195678
H434	H	0.993950	0.261250	0.054322
H435	H	1.243950	0.511250	0.304322
H436	H	1.493950	0.761250	0.554322
H437	H	0.395720	0.013608	-0.091649
H438	H	0.645720	0.263608	0.158351
H439	H	0.895720	0.513608	0.408351
H440	H	1.145720	0.763608	0.658351
H441	H	0.938573	-0.184571	0.000127
H442	H	1.188573	0.065429	0.250127
H443	H	1.438573	0.315429	0.500127
H444	H	1.688573	0.565429	0.750127
H445	H	0.699746	-0.778255	0.000123
H446	H	0.949746	-0.528255	0.250123
H447	H	1.199746	-0.278255	0.500123
H448	H	1.449746	-0.028255	0.750123
H449	H	0.643339	-0.297726	0.000131
H450	H	0.893339	-0.047726	0.250131
H451	H	1.143339	0.202274	0.500131
H452	H	1.393339	0.452274	0.750131
H453	H	0.641136	-0.448982	0.000124
H454	H	0.891136	-0.198982	0.250124
H455	H	1.141136	0.051018	0.500124
H456	H	1.391136	0.301018	0.750124
H457	H	0.477493	0.065931	-0.119660
H458	H	0.727493	0.315931	0.130340
H459	H	0.977493	0.565931	0.380340
H460	H	1.227493	0.815931	0.630340
H461	H	0.243924	0.115012	0.091884
H462	H	0.493924	0.365012	0.341884
H463	H	0.743924	0.615012	0.591884
H464	H	0.993924	0.865012	0.841884
H465	H	0.639799	-0.540434	0.000127
H466	H	0.889799	-0.290434	0.250127
H467	H	1.139799	-0.040434	0.500127
H468	H	1.389799	0.209566	0.750127
H469	H	0.608916	0.067284	-0.119680
H470	H	0.858916	0.317284	0.130320
H471	H	1.108916	0.567284	0.380320
H472	H	1.358916	0.817284	0.630320
H473	H	0.162060	0.062695	-0.119633
H474	H	0.412060	0.312695	0.130367
H475	H	0.662060	0.562695	0.380367
H476	H	0.912060	0.812695	0.630367
H477	H	0.939902	-0.093115	0.000103
H478	H	1.189902	0.156885	0.250103
H479	H	1.439902	0.406885	0.500103
H480	H	1.689902	0.656885	0.750103
H481	H	0.030639	0.061350	-0.119619
H482	H	0.280639	0.311350	0.130381
H483	H	0.530639	0.561350	0.380381
H484	H	0.780639	0.811350	0.630381
H485	H	0.895706	0.117364	-0.804084
H486	H	1.145706	0.367364	-0.554084
H487	H	1.395706	0.617364	-0.304084
H488	H	1.645706	0.867364	-0.054084
H489	H	0.997652	-0.482173	0.000156
H490	H	1.247652	-0.232173	0.250156
H491	H	1.497652	0.017827	0.500156
H492	H	1.747652	0.267827	0.750156
H493	H	0.162147	0.062695	0.119905
H494	H	0.412147	0.312695	0.369905
H495	H	0.662147	0.562695	0.619905
H496	H	0.912147	0.812695	0.869905
H497	H	0.930926	-0.708196	0.000149
H498	H	1.180926	-0.458196	0.250149
H499	H	1.430926	-0.208196	0.500149
H500	H	1.680926	0.041804	0.750149
H501	H	0.264306	0.012258	-0.091632
H502	H	0.514306	0.262258	0.158368
H503	H	0.764306	0.512258	0.408368
H504	H	1.014306	0.762258	0.658368
H505	H	0.929583	-0.799665	0.000159
H506	H	1.179583	-0.549665	0.250159
H507	H	1.429583	-0.299665	0.500159
H508	H	1.679583	-0.049665	0.750159
H509	H	0.999860	-0.330931	0.000139
H510	H	1.249860	-0.080931	0.250139
H511	H	1.499860	0.169069	0.500139
H512	H	1.749860	0.419069	0.750139
H513	H	0.998525	-0.422382	0.000151
H514	H	1.248525	-0.172382	0.250151
H515	H	1.498525	0.077618	0.500151
H516	H	1.748525	0.327618	0.750151
H517	H	0.641999	-0.389181	0.000134
H518	H	0.891999	-0.139181	0.250134
H519	H	1.141999	0.110819	0.500134
H520	H	1.391999	0.360819	0.750134
H521	H	0.895659	0.117365	-0.333875
H522	H	1.145659	0.367365	-0.083875
H523	H	1.395659	0.617365	0.166125
H524	H	1.645659	0.867365	0.416125
H525	H	0.895647	0.117366	-0.195590
H526	H	1.145647	0.367366	0.054410
H527	H	1.395647	0.617366	0.304410
H528	H	1.645647	0.867366	0.554410
