data_functionalizedCrystal
_audit_creation_method	'MofGen! by Chris Wilmer'
_symmetry_space_group_name_H-M	'P1'
_symmetry_Int_Tables_number	1
_symmetry_cell_setting	triclinic
loop_
_symmetry_equiv_pos_as_xyz
  x,y,z
_cell_length_a	10.540535
_cell_length_b	10.540535
_cell_length_c	13.596369
_cell_angle_alpha	89.997073
_cell_angle_beta	89.992672
_cell_angle_gamma	84.523642
loop_
_atom_site_label
_atom_site_type_symbol
_atom_site_fract_x
_atom_site_fract_y
_atom_site_fract_z
O1	O	0.178876	1.685889	-0.081741
O2	O	0.678876	2.185889	0.418259
O3	O	0.195738	1.316475	-0.081755
O4	O	0.695738	1.816475	0.418245
O5	O	0.002600	1.509613	-0.081738
O6	O	0.502600	2.009613	0.418262
O7	O	0.372014	1.492751	-0.081758
O8	O	0.872014	1.992751	0.418242
O9	O	0.002589	1.509593	0.081845
O10	O	0.502589	2.009593	0.581845
O11	O	0.195727	1.316455	0.081828
O12	O	0.695727	1.816455	0.581828
O13	O	0.178865	1.685870	0.081842
O14	O	0.678865	2.185870	0.581842
Zn15	Zn	0.187294	1.501159	0.107807
Zn16	Zn	0.687294	2.001159	0.607807
Zn17	Zn	0.187308	1.501185	-0.107720
Zn18	Zn	0.687308	2.001185	0.392280
O19	O	0.372003	1.492732	0.081825
O20	O	0.872003	1.992732	0.581825
C21	C	0.194469	1.269162	0.000035
C22	C	0.694469	1.769162	0.500035
C23	C	0.190689	1.128214	0.000030
C24	C	0.690689	1.628214	0.500030
C25	C	-0.044709	1.508340	0.000054
C26	C	0.455291	2.008340	0.500054
C27	C	-0.185657	1.504560	0.000055
C28	C	0.314343	2.004560	0.500055
C29	C	0.049675	1.091546	0.000042
C30	C	0.549675	1.591546	0.500042
C31	C	0.045698	0.944945	0.000423
C32	C	0.545698	1.444945	0.500423
C33	C	0.255054	0.918866	0.093270
C34	C	0.755054	1.418866	0.593270
C35	C	0.258054	1.065631	0.093338
C36	C	0.758054	1.565631	0.593338
C37	C	0.260118	1.065537	-0.092693
C38	C	0.760118	1.565537	0.407307
C39	C	0.253596	0.919191	-0.093908
C40	C	0.753596	1.419191	0.406092
C41	C	-0.222325	1.363546	0.000043
C42	C	0.277675	1.863546	0.500043
C43	C	-0.368926	1.359569	-0.000346
C44	C	0.131074	1.859569	0.499654
C45	C	-0.394977	1.568942	-0.093197
C46	C	0.105023	2.068942	0.406803
C47	C	-0.248212	1.571943	-0.093257
C48	C	0.251788	2.071943	0.406743
C49	C	-0.248362	1.573972	0.092774
C50	C	0.251638	2.073972	0.592774
C51	C	-0.394708	1.567450	0.093981
C52	C	0.105292	2.067450	0.593981
C53	C	0.419311	1.494005	0.000031
C54	C	0.919311	1.994005	0.500031
C55	C	0.560260	1.497784	0.000023
C56	C	1.060260	1.997784	0.500023
C57	C	0.180134	1.733182	0.000050
C58	C	0.680134	2.233182	0.500050
C59	C	0.183913	1.874131	0.000049
C60	C	0.683913	2.374131	0.500049
N61	N	0.187284	1.501151	0.254899
N62	N	0.687284	2.001151	0.754899
N63	N	0.187308	1.501203	-0.254812
N64	N	0.687308	2.001203	0.245188
C65	C	0.187310	1.501183	0.656190
C66	C	0.687310	2.001183	1.156190
C67	C	0.187307	1.501171	0.544539
C68	C	0.687307	2.001171	1.044539
C69	C	0.187298	1.501168	0.455548
C70	C	0.687298	2.001168	0.955548
C71	C	0.187293	1.501154	0.343890
C72	C	0.687293	2.001154	0.843890
H73	H	-0.009939	0.915616	-0.066388
H74	H	0.490061	1.415616	0.433612
F75	F	-0.021103	1.146412	-0.087325
F76	F	0.478897	1.646412	0.412675
H77	H	-0.003573	1.134996	0.066800
H78	H	0.496427	1.634996	0.566800
H79	H	-0.398273	1.303907	0.066458
H80	H	0.101727	1.803907	0.566458
F81	F	-0.456873	1.701959	-0.097385
F82	F	0.043127	2.201959	0.402615
H83	H	-0.225182	1.675318	-0.097223
H84	H	0.274818	2.175318	0.402777
H85	H	0.201825	0.890598	-0.162875
H86	H	0.701825	1.390598	0.337125
H87	H	-0.009675	0.916485	0.067648
H88	H	0.490325	1.416485	0.567648
F89	F	-0.192884	1.516446	0.185167
F90	F	0.307116	2.016446	0.685167
F91	F	-0.219364	1.709580	0.093963
F92	F	0.280636	2.209580	0.593963
F93	F	0.202609	1.121043	-0.185082
F94	F	0.702609	1.621043	0.314918
F95	F	0.191248	0.878469	0.184308
F96	F	0.691248	1.378469	0.684308
H97	H	0.210002	1.105795	0.163296
H98	H	0.710002	1.605795	0.663296
H99	H	-0.208027	1.523903	-0.163212
H100	H	0.291973	2.023903	0.336788
F101	F	-0.435349	1.505155	-0.184236
F102	F	0.064651	2.005155	0.315764
F103	F	-0.165510	1.293959	-0.087211
F104	F	0.334490	1.793959	0.412789
F105	F	0.393170	1.095736	0.098527
F106	F	0.893170	1.595736	0.598527
F107	F	0.388070	0.856968	0.097454
F108	F	0.888070	1.356968	0.597454
H109	H	0.354470	0.870142	-0.099833
H110	H	0.854470	1.370142	0.400167
F111	F	0.395742	1.094487	-0.093858
F112	F	0.895742	1.594487	0.406142
H113	H	-0.397366	1.304213	-0.067575
H114	H	0.102634	1.804213	0.432425
F115	F	-0.167479	1.292749	0.087410
F116	F	0.332521	1.792749	0.587410
F117	F	-0.432108	1.499767	0.184127
F118	F	0.067892	1.999767	0.684127
F119	F	-0.458747	1.699334	0.101683
F120	F	0.041253	2.199334	0.601683
