data_functionalizedCrystal
_audit_creation_method	'MofGen! by Chris Wilmer'
_symmetry_space_group_name_H-M	'P1'
_symmetry_Int_Tables_number	1
_symmetry_cell_setting	triclinic
loop_
_symmetry_equiv_pos_as_xyz
  x,y,z
_cell_length_a	25.639239
_cell_length_b	12.645331
_cell_length_c	12.645323
_cell_angle_alpha	90.018047
_cell_angle_beta	89.968126
_cell_angle_gamma	89.960284
loop_
_atom_site_label
_atom_site_type_symbol
_atom_site_fract_x
_atom_site_fract_y
_atom_site_fract_z
Zn1	Zn	-0.208132	-1.620577	-0.599264
Zn2	Zn	0.291868	-1.120577	-0.099264
Zn3	Zn	-0.295571	-1.620393	-0.421982
Zn4	Zn	0.204429	-1.120393	0.078018
Zn5	Zn	-0.208153	-1.443291	-0.422022
Zn6	Zn	0.291847	-0.943291	0.077978
Zn7	Zn	-0.295540	-1.443208	-0.599212
Zn8	Zn	0.204460	-0.943208	-0.099212
O9	O	-0.251849	-1.531867	-0.510620
O10	O	0.248151	-1.031867	-0.010620
O11	O	-0.219736	-1.768899	-0.575752
O12	O	0.280264	-1.268899	-0.075752
O13	O	-0.283997	-1.596858	-0.273640
O14	O	0.216003	-1.096858	0.226360
O15	O	-0.134985	-1.466920	-0.445572
O16	O	0.365015	-0.966920	0.054428
O17	O	-0.283976	-1.768765	-0.445504
O18	O	0.216024	-1.268765	0.054496
O19	O	-0.134970	-1.597171	-0.575791
O20	O	0.365030	-1.097171	-0.075791
O21	O	-0.219771	-1.466742	-0.273670
O22	O	0.280229	-0.966742	0.226330
O23	O	-0.219741	-1.294933	-0.445522
O24	O	0.280259	-0.794933	0.054478
O25	O	-0.283924	-1.466778	-0.747566
O26	O	0.216076	-0.966778	-0.247566
O27	O	-0.283944	-1.294872	-0.575702
O28	O	0.216056	-0.794872	-0.075702
O29	O	-0.219705	-1.597090	-0.747604
O30	O	0.280295	-1.097090	-0.247604
O31	O	-0.368732	-1.596778	-0.445453
O32	O	0.131268	-1.096778	0.054547
O33	O	-0.368709	-1.466600	-0.575663
O34	O	0.131291	-0.966600	-0.075663
C35	C	-0.251842	-1.256438	-0.510612
C36	C	0.248158	-0.756438	-0.010612
C37	C	-0.251851	-1.138607	-0.510633
C38	C	0.248149	-0.638607	-0.010633
C39	C	-0.387692	-1.531689	-0.510572
C40	C	0.112308	-1.031689	-0.010572
C41	C	-0.445806	-1.531710	-0.510586
C42	C	0.054194	-1.031710	-0.010586
C43	C	-0.292310	-1.093723	-0.592410
C44	C	0.207690	-0.593723	-0.092410
C45	C	-0.292477	-0.971162	-0.592167
C46	C	0.207523	-0.471162	-0.092167
C47	C	-0.266568	-0.970643	-0.398773
C48	C	0.233432	-0.470643	0.101227
C49	C	-0.266853	-1.093241	-0.399246
C50	C	0.233147	-0.593241	0.100754
C51	C	-0.196590	-1.093502	-0.539739
C52	C	0.303410	-0.593502	-0.039739
C53	C	-0.196896	-0.970897	-0.542202
C54	C	0.303104	-0.470897	-0.042202
C55	C	-0.806168	-1.599827	-0.442935
C56	C	-0.306168	-1.099827	0.057065
C57	C	-0.860772	-1.599868	-0.442949
C58	C	-0.360772	-1.099868	0.057051
O59	O	-0.889009	-1.657600	-0.385377
O60	O	-0.389009	-1.157600	0.114623
N61	N	-0.888088	-1.532054	-0.510690
N62	N	-0.388088	-1.032054	-0.010690
C63	C	-0.860797	-1.464201	-0.578429
C64	C	-0.360797	-0.964201	-0.078429
O65	O	-0.889045	-1.406523	-0.636050
O66	O	-0.389045	-0.906523	-0.136050
C67	C	-0.806194	-1.464166	-0.578419
C68	C	-0.306194	-0.964166	-0.078419
C69	C	-0.778881	-1.531978	-0.510666
C70	C	-0.278881	-1.031978	-0.010666
C71	C	-0.778855	-1.667635	-0.375189
C72	C	-0.278855	-1.167635	0.124811
C73	C	-0.724255	-1.667592	-0.375173
C74	C	-0.224255	-1.167592	0.124827
C75	C	-0.696967	-1.599742	-0.442905
C76	C	-0.196967	-1.099742	0.057095
C77	C	-0.724280	-1.531935	-0.510651
C78	C	-0.224280	-1.031935	-0.010651
C79	C	-0.778903	-1.396319	-0.646163
C80	C	-0.278903	-0.896319	-0.146163
C81	C	-0.724296	-1.396290	-0.646148
C82	C	-0.224296	-0.896290	-0.146148
C83	C	-0.696983	-1.464102	-0.578395
C84	C	-0.196983	-0.964102	-0.078395
C85	C	-0.642392	-1.464042	-0.578367
C86	C	-0.142392	-0.964042	-0.078367
N87	N	-0.615076	-1.531857	-0.510626
N88	N	-0.115076	-1.031857	-0.010626
C89	C	-0.642364	-1.599707	-0.442895
C90	C	-0.142364	-1.099707	0.057105
C91	C	-0.975467	-1.464281	-0.578445
C92	C	-0.475467	-0.964281	-0.078445
C93	C	-1.030070	-1.464309	-0.578450
C94	C	-0.530070	-0.964309	-0.078450
C95	C	-1.030042	-1.599979	-0.442972
C96	C	-0.530042	-1.099979	0.057028
C97	C	-0.975438	-1.599944	-0.442962
C98	C	-0.475438	-1.099944	0.057038
C99	C	-0.948152	-1.532096	-0.510704
C100	C	-0.448152	-1.032096	-0.010704
C101	C	-0.527699	-1.599611	-0.442867
C102	C	-0.027699	-1.099611	0.057133
C103	C	-0.473093	-1.599560	-0.442855
C104	C	0.026907	-1.099560	0.057145
C105	C	-0.473126	-1.463894	-0.578337
C106	C	0.026874	-0.963894	-0.078337
C107	C	-0.527727	-1.463942	-0.578346
C108	C	-0.027727	-0.963942	-0.078346
C109	C	-0.555012	-1.531809	-0.510607
C110	C	-0.055012	-1.031809	-0.010607
O111	O	-0.614121	-1.406343	-0.635913
O112	O	-0.114121	-0.906343	-0.135913
O113	O	-0.614109	-1.657385	-0.385294
O114	O	-0.114109	-1.157385	0.114706
C115	C	-0.115476	-1.532075	-0.510692
C116	C	0.384524	-1.032075	-0.010692
C117	C	-0.057362	-1.532164	-0.510723
C118	C	0.442638	-1.032164	-0.010723
C119	C	-0.251809	-1.531945	-0.787125
C120	C	0.248191	-1.031945	-0.287125
C121	C	-0.251792	-1.531979	-0.904956
C122	C	0.248208	-1.031979	-0.404956
C123	C	-0.251859	-0.808372	-0.510629
C124	C	0.248141	-0.308372	-0.010629
C125	C	-0.251866	-0.926202	-0.510632
C126	C	0.248134	-0.426202	-0.010632
C127	C	-0.292001	-1.449747	-1.072496
C128	C	0.207999	-0.949747	-0.572496
C129	C	-0.292200	-1.449962	-0.949936
C130	C	0.207800	-0.949962	-0.449936
C131	C	-0.266744	-1.643667	-0.949463
C132	C	0.233256	-1.143667	-0.449463
C133	C	-0.266996	-1.643216	-1.072061
C134	C	0.233004	-1.143216	-0.572061
C135	C	-0.196405	-1.503578	-1.072169
C136	C	0.303595	-1.003578	-0.572169
C137	C	-0.196737	-1.501086	-0.949563
C138	C	0.303263	-1.001086	-0.449563
C139	C	-0.251852	-1.531850	-0.235190
C140	C	0.248148	-1.031850	0.264810
C141	C	-0.251722	-1.532023	-0.117361
C142	C	0.248278	-1.032023	0.382639
H143	H	-0.283306	-0.941116	-0.675095
H144	H	0.216694	-0.441116	-0.175095
H145	H	-0.166396	-1.563505	-1.101186
H146	H	0.333604	-1.063505	-0.601186
H147	H	-0.549908	-1.654878	-0.387711
H148	H	-0.049908	-1.154878	0.112289
Cl149	Cl	-0.179329	-1.374180	-0.904665
Cl150	Cl	0.320671	-0.874180	-0.404665
Cl151	Cl	-0.355708	-0.925781	-0.562381
Cl152	Cl	0.144292	-0.425781	-0.062381
H153	H	-0.183156	-1.124468	-0.619933
H154	H	0.316844	-0.624468	-0.119933
H155	H	-0.165140	-1.556637	-0.918945
H156	H	0.334860	-1.056637	-0.418945
H157	H	-0.333208	-1.468736	-0.920610
H158	H	0.166792	-0.968736	-0.420610
H159	H	-0.953253	-1.409021	-0.633606
H160	H	-0.453253	-0.909021	-0.133606
Cl161	Cl	-0.354912	-1.478385	-1.120136
Cl162	Cl	0.145088	-0.978385	-0.620136
H163	H	-0.282734	-1.366679	-1.101978
H164	H	0.217266	-0.866679	-0.601978
H165	H	-0.182776	-1.423555	-1.103083
H166	H	0.317224	-0.923555	-0.603083
H167	H	-0.307433	-1.667331	-1.100660
H168	H	0.192567	-1.167331	-0.600660
Cl169	Cl	-0.278327	-1.139340	-0.720842
Cl170	Cl	0.221673	-0.639340	-0.220842
Cl171	Cl	-0.355173	-1.141195	-0.562964
Cl172	Cl	0.144827	-0.641195	-0.062964
H173	H	-0.450900	-1.408648	-0.633480
H174	H	0.049100	-0.908648	-0.133480
H175	H	-0.238932	-1.706594	-1.101741
H176	H	0.261068	-1.206594	-0.601741
H177	H	-0.238334	-1.706611	-0.920329
H178	H	0.261666	-1.206611	-0.420329
Cl179	Cl	-0.328522	-1.681542	-0.902068
Cl180	Cl	0.171478	-1.181542	-0.402068
Cl181	Cl	-1.064356	-1.685275	-0.357822
Cl182	Cl	-0.564356	-1.185275	0.142178
H183	H	-0.549966	-1.408727	-0.633519
H184	H	-0.049966	-0.908727	-0.133519
H185	H	-1.052303	-1.409080	-0.633612
H186	H	-0.552303	-0.909080	-0.133612
Cl187	Cl	-0.147897	-0.923643	-0.457031
Cl188	Cl	0.352103	-0.423643	0.042969
H189	H	-0.282843	-1.367140	-0.919843
H190	H	0.217157	-0.867140	-0.419843
Cl191	Cl	-0.328245	-0.923150	-0.360139
Cl192	Cl	0.171755	-0.423150	0.139861
H193	H	-0.307241	-1.121775	-0.374647
H194	H	0.192759	-0.621775	0.125353
Cl195	Cl	-0.222470	-0.925684	-0.302112
Cl196	Cl	0.277530	-0.425684	0.197888
H197	H	-0.238644	-1.122933	-0.336226
H198	H	0.261356	-0.622933	0.163774
H199	H	-0.702082	-1.341041	-0.701315
H200	H	-0.202082	-0.841041	-0.201315
Cl201	Cl	-0.179769	-0.926062	-0.669302
Cl202	Cl	0.320231	-0.426062	-0.169302
H203	H	-0.166449	-1.122533	-0.480184
H204	H	0.333551	-0.622533	0.019816
Cl205	Cl	-0.689926	-1.752862	-0.290010
Cl206	Cl	-0.189926	-1.252862	0.209990
Cl207	Cl	-0.438760	-1.684815	-0.357674
Cl208	Cl	0.061240	-1.184815	0.142326
Cl209	Cl	-0.941108	-1.685197	-0.357786
Cl210	Cl	-0.441108	-1.185197	0.142214
H211	H	-0.801067	-1.722892	-0.320033
H212	H	-0.301067	-1.222892	0.179967
H213	H	-0.801132	-1.341094	-0.701329
H214	H	-0.301132	-0.841094	-0.201329
