data_functionalizedCrystal
_audit_creation_method	'MofGen! by Chris Wilmer'
_symmetry_space_group_name_H-M	'P1'
_symmetry_Int_Tables_number	1
_symmetry_cell_setting	triclinic
loop_
_symmetry_equiv_pos_as_xyz
  x,y,z
_cell_length_a	18.050590
_cell_length_b	21.395361
_cell_length_c	21.395355
_cell_angle_alpha	90.021511
_cell_angle_beta	90.006016
_cell_angle_gamma	90.017531
loop_
_atom_site_label
_atom_site_type_symbol
_atom_site_fract_x
_atom_site_fract_y
_atom_site_fract_z
Zn1	Zn	-1.135350	0.249732	-0.353938
Zn2	Zn	-0.635350	0.749732	0.146062
Zn3	Zn	-1.135235	0.354491	-0.249155
Zn4	Zn	-0.635235	0.854491	0.250845
Zn5	Zn	-1.011148	0.249708	-0.249209
Zn6	Zn	-0.511148	0.749708	0.250791
Zn7	Zn	-1.011112	0.354451	-0.353930
Zn8	Zn	-0.511112	0.854451	0.146070
O9	O	-1.073211	0.302095	-0.301558
O10	O	-0.573211	0.802095	0.198442
O11	O	-1.239259	0.263655	-0.340020
O12	O	-0.739259	0.763655	0.159980
O13	O	-1.118741	0.340598	-0.161485
O14	O	-0.618741	0.840598	0.338515
O15	O	-1.027688	0.162033	-0.263128
O16	O	-0.527688	0.662033	0.236872
O17	O	-1.239174	0.340622	-0.263036
O18	O	-0.739174	0.840622	0.236964
O19	O	-1.118938	0.162050	-0.340072
O20	O	-0.618938	0.662050	0.159928
O21	O	-1.027576	0.263614	-0.161524
O22	O	-0.527576	0.763614	0.338476
O23	O	-0.907219	0.263575	-0.263119
O24	O	-0.407219	0.763575	0.236881
O25	O	-1.027625	0.340553	-0.441609
O26	O	-0.527625	0.840553	0.058391
O27	O	-0.907192	0.340530	-0.340057
O28	O	-0.407192	0.840530	0.159943
O29	O	-1.118903	0.263616	-0.441615
O30	O	-0.618903	0.763616	0.058385
O31	O	-1.118706	0.442164	-0.263028
O32	O	-0.618706	0.942164	0.236972
O33	O	-1.027513	0.442134	-0.340005
O34	O	-0.527513	0.942134	0.159995
C35	C	-0.880259	0.302046	-0.301593
C36	C	-0.380259	0.802046	0.198407
C37	C	-0.797713	0.302040	-0.301623
C38	C	-0.297713	0.802040	0.198377
C39	C	-0.598270	0.344001	-0.343371
C40	C	-0.098270	0.844001	0.156629
C41	C	-0.548883	0.286871	-0.358795
C42	C	-0.048883	0.786871	0.141205
C43	C	-0.646583	0.302070	-0.301599
C44	C	-0.146583	0.802070	0.198401
C45	C	-0.548888	0.359227	-0.286180
C46	C	-0.048888	0.859227	0.213820
C47	C	-0.500598	0.302103	-0.301577
C48	C	-0.000598	0.802103	0.198423
C49	C	-0.598283	0.244910	-0.317053
C50	C	-0.098283	0.744910	0.182947
C51	C	-0.598293	0.317304	-0.244411
C52	C	-0.098293	0.817304	0.255589
C53	C	-0.548929	0.260135	-0.259814
C54	C	-0.048929	0.760135	0.240186
C55	C	-0.730681	0.302051	-0.301613
C56	C	-0.230681	0.802051	0.198387
C57	C	-0.416501	0.302116	-0.301562
C58	C	0.083499	0.802116	0.198438
C59	C	-1.073113	0.464883	-0.301523
C60	C	-0.573113	0.964883	0.198477
C61	C	-1.073139	0.534524	-0.301529
C62	C	-0.573139	1.034524	0.198471
C63	C	-0.266917	0.302137	-0.301534
C64	C	0.233083	0.802137	0.198466
C65	C	-0.349463	0.302132	-0.301550
C66	C	0.150537	0.802132	0.198450
C67	C	-1.073273	0.302083	-0.464981
C68	C	-0.573273	0.802083	0.035019
C69	C	-1.073299	0.302077	-0.534623
C70	C	-0.573299	0.802077	-0.034623
C71	C	-1.073330	0.138672	-0.301607
C72	C	-0.573330	0.638672	0.198393
C73	C	-1.073380	0.069031	-0.301628
C74	C	-0.573380	0.569031	0.198372
C75	C	-1.120665	0.567232	-0.261488
C76	C	-0.620665	1.067232	0.238512
C77	C	-1.120700	0.632667	-0.261502
C78	C	-0.620700	1.132667	0.238498
C79	C	-1.073195	0.665393	-0.301551
C80	C	-0.573195	1.165393	0.198449
C81	C	-1.025666	0.632677	-0.341599
C82	C	-0.525666	1.132677	0.158401
C83	C	-1.025638	0.567243	-0.341589
C84	C	-0.525638	1.067243	0.158411
C85	C	-1.006327	0.769095	-0.306479
C86	C	-0.506327	1.269095	0.193521
C87	C	-1.006353	0.834528	-0.306485
C88	C	-0.506353	1.334528	0.193515
C89	C	-1.073282	0.867213	-0.301587
C90	C	-0.573282	1.367213	0.198413
C91	C	-1.140185	0.834458	-0.296670
C92	C	-0.640185	1.334458	0.203330
C93	C	-1.140157	0.769024	-0.296659
C94	C	-0.640157	1.269024	0.203341
C95	C	-1.073220	0.736345	-0.301567
C96	C	-0.573220	1.236345	0.198433
C97	C	-1.120849	0.970874	-0.261560
C98	C	-0.620849	1.470874	0.238440
C99	C	-1.120885	1.036310	-0.261578
C100	C	-0.620885	1.536310	0.238422
C101	C	-1.025844	1.036318	-0.341672
C102	C	-0.525844	1.536318	0.158328
C103	C	-1.025815	0.970883	-0.341657
C104	C	-0.525815	1.470883	0.158343
C105	C	-1.073316	0.938165	-0.301597
C106	C	-0.573316	1.438165	0.198403
C107	C	-1.120825	0.262015	-0.567340
C108	C	-0.620825	0.762015	-0.067340
C109	C	-1.120824	0.261988	-0.632776
C110	C	-0.620824	0.761988	-0.132776
C111	C	-1.073305	0.302035	-0.665491
C112	C	-0.573305	0.802035	-0.165491
C113	C	-1.025770	0.342100	-0.632766
C114	C	-0.525770	0.842100	-0.132766
C115	C	-1.025767	0.342122	-0.567331
C116	C	-0.525767	0.842122	-0.067331
C117	C	-1.067407	0.358449	-0.769155
C118	C	-0.567407	0.858449	-0.269155
C119	C	-1.067415	0.358428	-0.834588
C120	C	-0.567415	0.858428	-0.334588
C121	C	-1.073310	0.301968	-0.867312
C122	C	-0.573310	0.801968	-0.367312
C123	C	-1.079212	0.245527	-0.834595
C124	C	-0.579212	0.745527	-0.334595
C125	C	-1.079209	0.245548	-0.769160
C126	C	-0.579209	0.745548	-0.269160
C127	C	-1.073302	0.302016	-0.736444
C128	C	-0.573302	0.802016	-0.236444
C129	C	-1.120837	0.261873	-0.970982
C130	C	-0.620837	0.761873	-0.470982
C131	C	-1.120831	0.261845	-1.036419
C132	C	-0.620831	0.761845	-0.536419
C133	C	-1.025780	0.341963	-1.036407
C134	C	-0.525780	0.841963	-0.536407
C135	C	-1.025783	0.341986	-0.970972
C136	C	-0.525783	0.841986	-0.470972
C137	C	-1.073315	0.301941	-0.938263
C138	C	-0.573315	0.801941	-0.438263
C139	C	-1.073193	0.302063	-0.138771
C140	C	-0.573193	0.802063	0.361229
C141	C	-1.073310	0.301892	-0.069130
C142	C	-0.573310	0.801892	0.430870
H143	H	-0.527179	0.273997	-0.407148
H144	H	-0.027179	0.773997	0.092852
H145	H	-0.527188	0.407549	-0.273150
H146	H	-0.027188	0.907549	0.226850
H147	H	-1.194684	0.861069	-0.292682
H148	H	-0.694684	1.361069	0.207318
N149	N	-1.085571	0.184621	-0.869873
N150	N	-0.585571	0.684621	-0.369873
H151	H	-1.131333	0.185466	-0.897027
H152	H	-0.631333	0.685466	-0.397027
H153	H	-1.040299	0.178754	-0.896980
H154	H	-0.540299	0.678754	-0.396980
H155	H	-1.062408	0.404414	-0.742517
H156	H	-0.562408	0.904414	-0.242517
N157	N	-1.172071	0.218808	-0.532064
N158	N	-0.672071	0.718808	-0.032064
H159	H	-1.164855	0.224896	-0.485646
H160	H	-0.664855	0.724896	0.014354
H161	H	-1.225107	0.228562	-0.543499
H162	H	-0.725107	0.728562	-0.043499
N163	N	-1.171909	0.531945	-0.218292
N164	N	-0.671909	1.031945	0.281708
H165	H	-1.164682	0.485529	-0.224360
H166	H	-0.664682	0.985529	0.275640
H167	H	-1.160381	0.543412	-0.173540
H168	H	-0.660381	1.043412	0.326460
N169	N	-1.171962	0.667956	-0.218315
N170	N	-0.671962	1.167956	0.281685
H171	H	-1.202050	0.637300	-0.192937
H172	H	-0.702050	1.137300	0.307063
H173	H	-1.141755	0.695137	-0.189312
H174	H	-0.641755	1.195137	0.310688
N175	N	-1.172089	0.218774	-0.668070
N176	N	-0.672089	0.718774	-0.168070
H177	H	-1.225142	0.228528	-0.656686
H178	H	-0.725142	0.728528	-0.156686
H179	H	-1.164816	0.224858	-0.714475
H180	H	-0.664816	0.724858	-0.214475
N181	N	-1.085576	0.184678	-0.733871
N182	N	-0.585576	0.684678	-0.233871
H183	H	-1.089313	0.148905	-0.764526
H184	H	-0.589313	0.648905	-0.264526
H185	H	-1.040331	0.178858	-0.706719
H186	H	-0.540331	0.678858	-0.206719
H187	H	-0.619889	0.196573	-0.330140
H188	H	-0.119889	0.696573	0.169860
N189	N	-0.974421	0.667966	-0.384791
N190	N	-0.474421	1.167966	0.115209
H191	H	-0.985924	0.656551	-0.429563
H192	H	-0.485924	1.156551	0.070437
H193	H	-0.981669	0.714371	-0.378668
H194	H	-0.481669	1.214371	0.121332
N195	N	-1.061052	0.419300	-0.869875
N196	N	-0.561052	0.919300	-0.369875
H197	H	-1.103969	0.447358	-0.858486
H198	H	-0.603969	0.947358	-0.358486
H199	H	-1.012945	0.440555	-0.858472
H200	H	-0.512945	0.940555	-0.358472
H201	H	-1.159537	0.229263	-0.944349
H202	H	-0.659537	0.729263	-0.444349
N203	N	-1.172080	0.218621	-1.071710
N204	N	-0.672080	0.718621	-0.571710
H205	H	-1.202187	0.193257	-1.041058
H206	H	-0.702187	0.693257	-0.541058
H207	H	-1.206430	0.244119	-1.098867
H208	H	-0.706430	0.744119	-0.598867
H209	H	-0.987082	0.374564	-1.063044
H210	H	-0.487082	0.874564	-0.563044
N211	N	-1.172144	1.071593	-0.218387
N212	N	-0.672144	1.571593	0.281613
H213	H	-1.206561	1.098706	-0.243869
H214	H	-0.706561	1.598706	0.256131
H215	H	-1.202178	1.040896	-0.193017
H216	H	-0.702178	1.540896	0.306983
N217	N	-1.172080	0.935578	-0.218357
N218	N	-0.672080	1.435578	0.281643
H219	H	-1.202198	0.966231	-0.192996
H220	H	-0.702198	1.466231	0.307004
H221	H	-1.206420	0.908393	-0.243873
H222	H	-0.706420	1.408393	0.256127
N223	N	-0.974510	0.385187	-0.935679
N224	N	-0.474510	0.885187	-0.435679
H225	H	-0.944401	0.410549	-0.966331
H226	H	-0.444401	0.910549	-0.466331
H227	H	-1.004703	0.414203	-0.908523
H228	H	-0.504703	0.914203	-0.408523
N229	N	-1.212310	0.733693	-0.291359
N230	N	-0.712310	1.233693	0.208641
H231	H	-1.254716	0.764324	-0.288257
H232	H	-0.754716	1.264324	0.211743
H233	H	-1.219169	0.706520	-0.329534
H234	H	-0.719169	1.206520	0.170466
H235	H	-0.527400	0.224649	-0.224479
H236	H	-0.027400	0.724649	0.275521
N237	N	-0.974504	0.385284	-0.668047
N238	N	-0.474504	0.885284	-0.168047
H239	H	-0.981716	0.379191	-0.714464
H240	H	-0.481716	0.879191	-0.214464
H241	H	-0.986018	0.430042	-0.656611
H242	H	-0.486018	0.930042	-0.156611
H243	H	-0.987062	0.374745	-0.540693
H244	H	-0.487062	0.874745	-0.040693
H245	H	-0.987168	1.062963	-0.374283
H246	H	-0.487168	1.562963	0.125717
H247	H	-0.986936	0.540612	-0.374196
H248	H	-0.486936	1.040612	0.125804
N249	N	-0.974541	0.935603	-0.384835
N250	N	-0.474541	1.435603	0.115165
H251	H	-0.981731	0.889185	-0.378751
H252	H	-0.481731	1.389185	0.121249
H253	H	-0.986076	0.947008	-0.429591
H254	H	-0.486076	1.447008	0.070409
N255	N	-0.934197	0.869854	-0.311779
N256	N	-0.434197	1.369854	0.188221
H257	H	-0.891795	0.839221	-0.314886
H258	H	-0.391795	1.339221	0.185114
H259	H	-0.935254	0.896985	-0.350387
H260	H	-0.435254	1.396985	0.149613
N261	N	-0.627059	0.334371	-0.180376
N262	N	-0.127059	0.834371	0.319624
H263	H	-0.609121	0.377563	-0.168773
H264	H	-0.109121	0.877563	0.331227
H265	H	-0.683005	0.333791	-0.180802
H266	H	-0.183005	0.833791	0.319198
H267	H	-0.951821	0.742489	-0.310470
H268	H	-0.451821	1.242489	0.189530
H269	H	-0.619937	0.379400	-0.378733
H270	H	-0.119937	0.879400	0.121267
