data_functionalizedCrystal
_audit_creation_method	'MofGen! by Chris Wilmer'
_symmetry_space_group_name_H-M	'P1'
_symmetry_Int_Tables_number	1
_symmetry_cell_setting	triclinic
loop_
_symmetry_equiv_pos_as_xyz
  x,y,z
_cell_length_a	14.560438
_cell_length_b	18.878441
_cell_length_c	18.878441
_cell_angle_alpha	90.002294
_cell_angle_beta	59.999957
_cell_angle_gamma	60.002359
loop_
_atom_site_label
_atom_site_type_symbol
_atom_site_fract_x
_atom_site_fract_y
_atom_site_fract_z
Zr1	Zr	1.005260	-0.092920	0.682396
O2	O	1.196859	-0.206026	0.569290
O3	O	0.813659	-0.058249	0.717070
O4	O	1.005254	-0.206022	0.717070
O5	O	1.005269	0.058315	0.569289
O6	O	1.005251	-0.206018	0.833641
O7	O	1.005264	-0.058252	0.569290
O8	O	0.662523	0.058321	0.833640
O9	O	1.347997	-0.206024	0.569290
O10	O	0.892466	-0.043457	0.818853
O11	O	0.892472	0.043533	0.731857
O12	O	1.118050	-0.130451	0.731857
O13	O	1.118056	-0.043461	0.644861
Zr14	Zr	1.005264	0.092998	0.868312
Zr15	Zr	1.005256	-0.092914	0.868313
Zr16	Zr	1.005268	0.092992	0.682395
Zr17	Zr	1.246308	-0.092918	0.682396
Zr18	Zr	0.764215	0.092996	0.868313
O19	O	1.196865	0.058327	0.833639
O20	O	1.196853	-0.206016	0.833640
O21	O	1.196871	0.058318	0.569289
O22	O	0.813665	0.206104	0.981418
O23	O	0.813653	-0.058240	0.981420
O24	O	0.813671	0.206094	0.717068
O25	O	1.005255	-0.058238	0.981419
O26	O	1.005270	0.206100	0.833639
O27	O	1.005273	0.206096	0.717068
O28	O	1.005260	0.058330	0.981419
O29	O	1.347994	-0.206019	0.717069
O30	O	0.662530	0.206097	0.833639
O31	O	0.662527	0.206102	0.981419
O32	O	0.662520	0.058327	0.981419
O33	O	1.348004	-0.058249	0.569289
O34	O	1.348001	-0.058243	0.717068
O35	O	0.892474	0.130529	0.818852
O36	O	0.892468	0.043539	0.905848
O37	O	1.118052	-0.043455	0.818852
O38	O	1.118058	0.043535	0.731856
C39	C	0.703747	0.000036	0.775355
C40	C	0.601415	0.000035	0.775355
C41	C	1.005267	0.000031	0.542800
C42	C	1.005269	0.000028	0.463874
C43	C	1.005273	0.232587	0.775353
C44	C	1.005276	0.311511	0.775353
C45	C	0.553338	-0.045375	0.820763
C46	C	0.457180	-0.045368	0.820765
C47	C	0.457190	0.045459	0.729944
C48	C	0.553339	0.045456	0.729948
C49	C	0.553335	-0.097816	0.873195
C50	C	0.457178	-0.097809	0.873197
C51	C	1.306777	0.000042	0.775354
C52	C	1.409109	0.000043	0.775353
C53	C	1.005251	-0.232509	0.775355
C54	C	1.005248	-0.311433	0.775356
C55	C	1.123028	0.303183	0.729943
C56	C	1.123023	0.377344	0.729939
C57	C	1.005266	0.459833	0.775350
C58	C	0.887506	0.468160	0.820761
C59	C	0.887512	0.393999	0.820759
C60	C	0.887502	0.622730	0.820762
C61	C	0.887496	0.696895	0.820765
C62	C	1.123014	0.606074	0.729942
C63	C	1.123020	0.531914	0.729941
C64	C	1.005259	0.540246	0.775353
C65	C	1.005256	0.064269	0.123916
C66	C	1.005251	0.064268	0.198078
C67	C	1.005254	0.000045	0.235153
C68	C	1.005249	-0.064178	0.198067
C69	C	1.005245	-0.064173	0.123911
C70	C	1.005261	-0.064185	0.352632
C71	C	1.005268	-0.064191	0.426792
C72	C	1.005267	0.064256	0.426798
C73	C	1.005263	0.064261	0.352642
C74	C	1.005260	0.000038	0.315561
C75	C	1.005257	0.000047	1.007908
C76	C	1.005255	0.000050	1.086835
C77	C	0.703742	0.000044	1.007909
C78	C	0.601408	0.000046	1.086836
C79	C	0.703758	0.232583	0.775354
C80	C	0.601430	0.311507	0.775354
C81	C	0.703752	0.232592	1.007908
C82	C	0.601423	0.311518	1.086834
C83	C	1.306772	-0.232514	0.542801
C84	C	1.409101	-0.311440	0.463874
C85	C	1.306782	0.000034	0.542800
C86	C	1.409116	0.000032	0.463873
C87	C	1.306766	-0.232505	0.775355
C88	C	1.409094	-0.311429	0.775355
C89	C	0.553350	-0.045372	1.078490
C90	C	0.457211	-0.045388	1.152643
C91	C	0.409124	0.000020	1.235141
C92	C	0.457192	0.045439	1.243485
C93	C	0.553336	0.045450	1.169333
C94	C	0.553377	0.393989	0.820764
C95	C	0.457242	0.468153	0.820761
C96	C	0.409156	0.459833	0.775351
C97	C	0.457219	0.377342	0.729935
C98	C	0.553358	0.303180	0.729934
C99	C	0.553364	0.303175	1.169318
C100	C	0.457228	0.377327	1.243485
C101	C	0.409146	0.459822	1.235166
C102	C	0.457213	0.468164	1.152674
C103	C	0.553354	0.394012	1.078509
C104	C	1.457171	-0.303097	0.381391
C105	C	1.553337	-0.377249	0.307224
C106	C	1.601425	-0.459744	0.315542
C107	C	1.553351	-0.468086	0.398035
C108	C	1.457193	-0.393934	0.472200
C109	C	1.457184	0.045443	0.472218
C110	C	1.553350	0.045438	0.398065
C111	C	1.601440	0.000027	0.315567
C112	C	1.553368	-0.045389	0.307223
C113	C	1.457210	-0.045389	0.381376
C114	C	1.457150	-0.303081	0.820773
C115	C	1.553285	-0.377231	0.820790
C116	C	1.601369	-0.459728	0.775384
C117	C	1.553304	-0.468074	0.729964
C118	C	1.457164	-0.393925	0.729953
H119	H	0.418035	0.082439	0.692975
H120	H	0.592471	0.400818	1.011350
N121	N	1.405374	-0.094369	0.372359
H122	H	1.365500	-0.070545	0.339591
H123	H	1.337210	-0.087473	0.431874
N124	N	1.705070	-0.539691	0.775403
H125	H	1.784867	-0.575388	0.713904
H126	H	1.671507	-0.575322	0.801290
H127	H	0.592499	0.236010	1.176107
H128	H	1.679738	0.000034	0.255195
H129	H	1.592463	-0.370440	0.240062
H130	H	0.330836	0.000005	1.295514
H131	H	1.592469	-0.535253	0.692995
H132	H	1.005270	0.116553	0.322452
H133	H	1.592537	-0.082361	0.240044
H134	H	1.418056	-0.400738	0.539359
H135	H	1.592409	-0.370418	0.857775
N136	N	0.760509	0.402978	0.869736
H137	H	0.685909	0.466487	0.898507
H138	H	0.755382	0.374189	0.915389
N139	N	1.405340	-0.402935	0.680961
H140	H	1.450398	-0.466450	0.652200
H141	H	1.422086	-0.374156	0.635300
N142	N	0.405385	-0.094380	1.143624
H143	H	0.365493	-0.070551	1.110868
H144	H	0.337237	-0.087494	1.203139
H145	H	0.418025	0.082409	1.310665
N146	N	0.507377	-0.189760	0.834370
H147	H	0.438073	-0.189785	0.834300
H148	H	0.530645	-0.225550	0.869913
N149	N	0.330307	-0.051989	0.962130
H150	H	0.339729	-0.029855	1.005101
H151	H	0.306502	-0.093890	0.980488
H152	H	0.592518	0.400780	0.857742
H153	H	1.679722	-0.520116	0.255145
H154	H	1.418014	-0.235915	0.857749
N155	N	1.405334	-0.214131	0.372395
H156	H	1.422061	-0.181336	0.401145
H157	H	1.308836	-0.181406	0.401117
H158	H	1.218919	0.236020	0.692968
N159	N	0.605173	0.094451	0.680991
H160	H	0.560124	0.123225	0.652227
H161	H	0.701693	0.052764	0.635334
N162	N	1.250031	0.597080	0.680962
H163	H	1.232164	0.656575	0.687849
H164	H	1.301462	0.564281	0.617457
N165	N	0.405411	0.557118	0.869750
H166	H	0.450456	0.551128	0.898522
H167	H	0.308891	0.589869	0.915402
H168	H	1.005269	0.116549	0.456994
H169	H	0.791626	0.535329	0.857731
N170	N	0.503228	-0.059173	0.965168
H171	H	0.572562	-0.059162	0.965206
H172	H	0.480071	-0.094840	1.000810
H173	H	0.649108	-0.164955	0.838597
N174	N	1.250026	0.368362	0.680970
H175	H	1.324624	0.304853	0.652210
H176	H	1.255136	0.397160	0.722675
H177	H	0.592502	-0.082360	1.011323
H178	H	0.592452	0.082439	1.176140
N179	N	0.760488	0.785865	0.869751
H180	H	0.778359	0.831578	0.862869
H181	H	0.709077	0.792722	0.933255
H182	H	0.418053	0.370581	0.692964
N183	N	1.005269	-0.133458	0.466784
H184	H	1.005256	-0.174138	0.432046
H185	H	0.925190	-0.105369	0.528438
H186	H	0.330873	0.520228	0.775359
N187	N	0.605249	0.214218	0.680901
H188	H	0.560213	0.220209	0.652122
H189	H	0.588553	0.181425	0.722553
H190	H	0.418101	0.370520	1.310647
H191	H	1.218908	0.464749	0.692969
N192	N	1.605222	-0.557065	0.407000
H193	H	1.673426	-0.602767	0.347496
H194	H	1.531796	-0.563941	0.439783
H195	H	1.005262	0.116564	0.093732
N196	N	0.760492	0.631713	0.869737
H197	H	0.685891	0.695222	0.898508
H198	H	0.755366	0.602923	0.915389
H199	H	1.005251	0.116560	0.228270
H200	H	1.005253	-0.116480	0.322445
H201	H	0.330861	0.520194	1.295563
N202	N	0.405345	0.557143	1.143709
H203	H	0.337145	0.602844	1.203212
H204	H	0.365511	0.564016	1.110925
H205	H	1.005244	-0.116468	0.228261
H206	H	1.418036	0.082427	0.539386
H207	H	1.005242	-0.116465	0.093721
N208	N	1.605185	0.094426	0.407076
H209	H	1.560113	0.123198	0.470591
H210	H	1.588463	0.140076	0.378283
