data_functionalizedCrystal
_audit_creation_method	'MofGen! by Chris Wilmer'
_symmetry_space_group_name_H-M	'P1'
_symmetry_Int_Tables_number	1
_symmetry_cell_setting	triclinic
loop_
_symmetry_equiv_pos_as_xyz
  x,y,z
_cell_length_a	18.050591
_cell_length_b	18.050589
_cell_length_c	13.897441
_cell_angle_alpha	89.973098
_cell_angle_beta	89.974236
_cell_angle_gamma	90.024227
loop_
_atom_site_label
_atom_site_type_symbol
_atom_site_fract_x
_atom_site_fract_y
_atom_site_fract_z
Zn1	Zn	1.135328	-0.295722	-0.545584
Zn2	Zn	1.135228	-0.419924	-0.384293
Zn3	Zn	1.011137	-0.295744	-0.384282
Zn4	Zn	1.011095	-0.419866	-0.545525
O5	O	1.073197	-0.357814	-0.464921
O6	O	1.239239	-0.312213	-0.524217
O7	O	1.118743	-0.403485	-0.249310
O8	O	1.027670	-0.191816	-0.405699
O9	O	1.239166	-0.403464	-0.405717
O10	O	1.118913	-0.191800	-0.524207
O11	O	1.027573	-0.312250	-0.249302
O12	O	0.907207	-0.312194	-0.405642
O13	O	1.027599	-0.403365	-0.680515
O14	O	0.907176	-0.403386	-0.524107
O15	O	1.118873	-0.312156	-0.680558
O16	O	1.118703	-0.523841	-0.405661
O17	O	1.027503	-0.523798	-0.524118
C18	C	0.880245	-0.357786	-0.464868
C19	C	0.797699	-0.357792	-0.464868
C20	C	0.598244	-0.308145	-0.400595
C21	C	0.548822	-0.375883	-0.376864
C22	C	0.646569	-0.357815	-0.464911
C23	C	0.548908	-0.290100	-0.488640
C24	C	0.500584	-0.357831	-0.464952
C25	C	0.598235	-0.425589	-0.441134
C26	C	0.598325	-0.339760	-0.552951
C27	C	0.548926	-0.407545	-0.529254
C28	C	0.730667	-0.357805	-0.464886
C29	C	0.416487	-0.357848	-0.464977
C30	C	1.073107	-0.550766	-0.464905
C31	C	1.073137	-0.633312	-0.464930
C32	C	1.023591	-0.832766	-0.529325
C33	C	1.005488	-0.882209	-0.441303
C34	C	1.073210	-0.784442	-0.464943
C35	C	1.091350	-0.882081	-0.552975
C36	C	1.073279	-0.930427	-0.464963
C37	C	1.055071	-0.832798	-0.376875
C38	C	1.140965	-0.832665	-0.488606
C39	C	1.122887	-0.882086	-0.400523
C40	C	1.073168	-0.700344	-0.464933
C41	C	1.073321	-1.014524	-0.464963
C42	C	1.266903	-0.357842	-0.464975
C43	C	1.349448	-0.357854	-0.464998
C44	C	1.073243	-0.357752	-0.716514
C45	C	1.073262	-0.357725	-0.823728
C46	C	1.073307	-0.164108	-0.464958
C47	C	1.073354	-0.081563	-0.464974
C48	C	1.073277	-0.357704	-0.910798
C49	C	1.073298	-0.357671	-1.020031
C50	C	1.073195	-0.357822	-0.214307
C51	C	1.073319	-0.357640	-0.107093
H52	H	0.620086	-0.324456	-0.627365
H53	H	1.106665	-0.903729	-0.627414
H54	H	1.198217	-0.810889	-0.508644
H55	H	0.527408	-0.449605	-0.583661
H56	H	0.619898	-0.266185	-0.346146
H57	H	0.527202	-0.232835	-0.508659
O58	O	0.973362	-0.806959	-0.594077
C59	C	0.902039	-0.832223	-0.568785
H60	H	0.900680	-0.846114	-0.488775
H61	H	0.888118	-0.883900	-0.612316
C62	C	0.846438	-0.754190	-0.688703
C63	C	0.844768	-0.771244	-0.590431
H64	H	0.811109	-0.716577	-0.702059
H65	H	0.894490	-0.737170	-0.705746
H66	H	0.834840	-0.797259	-0.724967
H67	H	0.856375	-0.728178	-0.554170
H68	H	0.796716	-0.788255	-0.573383
H69	H	0.527080	-0.391166	-0.302427
H70	H	0.948222	-0.903988	-0.421307
O71	O	0.624094	-0.493883	-0.417079
C72	C	0.702200	-0.493047	-0.417334
H73	H	0.722658	-0.433854	-0.406729
H74	H	0.723374	-0.515168	-0.489074
C75	C	0.706153	-0.614913	-0.348055
C76	C	0.731280	-0.542212	-0.335021
H77	H	0.724092	-0.645242	-0.297284
H78	H	0.653531	-0.615478	-0.347887
H79	H	0.723800	-0.633337	-0.407842
H80	H	0.713625	-0.523786	-0.275242
H81	H	0.783899	-0.541645	-0.335178
H82	H	1.039689	-0.811239	-0.302415
H83	H	1.164877	-0.903605	-0.346024
