data_functionalizedCrystal
_audit_creation_method	'MofGen! by Chris Wilmer'
_symmetry_space_group_name_H-M	'P1'
_symmetry_Int_Tables_number	1
_symmetry_cell_setting	triclinic
loop_
_symmetry_equiv_pos_as_xyz
  x,y,z
_cell_length_a	10.489741
_cell_length_b	10.489741
_cell_length_c	9.565339
_cell_angle_alpha	90.000516
_cell_angle_beta	89.999100
_cell_angle_gamma	84.539174
loop_
_atom_site_label
_atom_site_type_symbol
_atom_site_fract_x
_atom_site_fract_y
_atom_site_fract_z
O1	O	1.694053	0.179959	-0.116173
O2	O	1.322857	0.196852	-0.116194
O3	O	1.516901	0.002807	-0.116175
O4	O	1.500009	0.374003	-0.116192
O5	O	1.516886	0.002819	0.116345
O6	O	1.322842	0.196864	0.116326
O7	O	1.694038	0.179971	0.116347
Zn8	Zn	1.508437	0.188419	0.153254
Zn9	Zn	1.508458	0.188403	-0.153101
O10	O	1.499993	0.374015	0.116328
C11	C	1.275318	0.195582	0.000063
C12	C	1.133688	0.191765	0.000055
C13	C	1.515618	-0.044718	0.000084
C14	C	1.511801	-0.186348	0.000082
C15	C	1.065548	0.068300	0.000074
C16	C	0.973429	0.126617	-0.114571
C17	C	0.973448	0.126659	0.114676
C18	C	1.043435	0.250133	-0.114684
C19	C	1.043463	0.250157	0.114665
C20	C	0.951371	0.308564	-0.000007
C21	C	1.388336	-0.254488	0.000064
C22	C	1.446652	-0.346604	0.114712
C23	C	1.446696	-0.346591	-0.114534
C24	C	1.570168	-0.276599	0.114824
C25	C	1.570195	-0.276576	-0.114525
C26	C	1.628600	-0.368665	0.000150
C27	C	1.741577	0.181241	0.000087
C28	C	1.883206	0.185058	0.000086
C29	C	1.501277	0.421541	0.000066
C30	C	1.505094	0.563170	0.000059
N31	N	1.508433	0.188429	0.362334
N32	N	1.508472	0.188383	-0.362180
C33	C	1.418666	0.278138	0.453528
C34	C	1.534163	0.303949	0.546712
C35	C	1.392986	0.162629	0.546704
C36	C	1.623988	0.214298	0.453466
C37	C	1.482735	0.072928	0.453451
C38	C	1.598314	0.098690	0.546593
H39	H	1.115238	-0.033196	-0.000065
H40	H	0.901947	0.410168	-0.000074
H41	H	1.721659	0.236217	0.412683
H42	H	1.074269	0.302328	-0.211717
O43	O	1.080473	0.312247	0.230434
C44	C	1.045168	0.246848	0.351082
H45	H	1.033943	0.142756	0.323619
H46	H	1.122534	0.250674	0.434270
H47	H	0.950481	0.294229	0.392915
O48	O	1.328208	0.368622	0.404526
C49	C	1.328664	0.366681	0.257141
H50	H	1.371384	0.268839	0.219024
H51	H	1.226342	0.385813	0.216886
H52	H	1.388632	0.443821	0.216334
H53	H	0.942463	0.074401	0.211599
O54	O	1.267215	-0.195302	0.000434
C55	C	1.202580	-0.230809	0.121518
H56	H	1.275495	-0.263532	0.205588
H57	H	1.137750	-0.145170	0.161525
H58	H	1.142228	-0.312433	0.095355
O59	O	0.936509	0.064090	-0.230090
C60	C	0.995212	-0.062539	-0.229700
H61	H	1.022650	-0.091884	-0.118136
H62	H	0.925583	-0.129723	-0.272997
H63	H	1.084867	-0.068408	-0.297652
H64	H	1.394405	-0.377611	0.211633
H65	H	1.555926	0.401606	0.587676
O66	O	1.276555	0.136676	0.595797
C67	C	1.278547	0.135830	0.743179
H68	H	1.357198	0.194886	0.781993
H69	H	1.181996	0.178830	0.784653
H70	H	1.298054	0.033093	0.782069
H71	H	1.674328	0.022802	0.587199
H72	H	1.622356	-0.245762	0.211859
H73	H	1.730204	-0.418089	0.000220
H74	H	1.622398	-0.245536	-0.211451
H75	H	1.394447	-0.377560	-0.211470
H76	H	1.460936	-0.024699	0.412454
