data_functionalizedCrystal
_audit_creation_method	'MofGen! by Chris Wilmer'
_symmetry_space_group_name_H-M	'P1'
_symmetry_Int_Tables_number	1
_symmetry_cell_setting	triclinic
loop_
_symmetry_equiv_pos_as_xyz
  x,y,z
_cell_length_a	14.971491
_cell_length_b	16.098524
_cell_length_c	14.971486
_cell_angle_alpha	93.061856
_cell_angle_beta	83.615182
_cell_angle_gamma	93.063509
loop_
_atom_site_label
_atom_site_type_symbol
_atom_site_fract_x
_atom_site_fract_y
_atom_site_fract_z
O1	O	1.190518	0.069293	0.120160
O2	O	0.930118	0.069287	0.134114
O3	O	1.067297	0.069284	-0.003063
O4	O	1.053339	0.069296	0.257337
O5	O	1.060137	-0.069230	-0.010215
O6	O	0.922958	-0.069227	0.126962
O7	O	1.183358	-0.069221	0.113008
Zn8	Zn	1.052021	-0.091216	0.118850
Zn9	Zn	1.061455	0.091282	0.128273
O10	O	1.046179	-0.069218	0.250185
C11	C	0.893213	0.000029	0.129913
C12	C	0.793916	0.000027	0.128040
C13	C	0.370115	0.075549	0.123860
C14	C	0.463415	0.075546	0.125616
C15	C	0.506157	0.000040	0.122602
C16	C	0.455596	-0.075469	0.117821
C17	C	0.362298	-0.075465	0.116058
C18	C	0.650057	-0.075472	0.121498
C19	C	0.743361	-0.075476	0.123263
C20	C	0.751174	0.075540	0.131056
C21	C	0.657877	0.075544	0.129293
C22	C	0.607321	0.000035	0.124515
N23	N	1.045589	-0.215766	0.112418
C24	C	1.097643	-0.259344	0.164511
C25	C	1.093155	-0.346534	0.160006
C26	C	1.036609	-0.390144	0.103412
C27	C	0.984553	-0.346560	0.051314
C28	C	0.989046	-0.259372	0.055815
C29	C	1.020331	-0.653396	0.087100
C30	C	1.015840	-0.740590	0.082605
C31	C	1.124444	-0.740558	0.191296
C32	C	1.128928	-0.653368	0.195795
C33	C	1.076876	-0.609792	0.143694
C34	C	1.032018	-0.479265	0.098808
C35	C	1.081472	-0.520672	0.148294
C36	C	1.220263	0.000039	0.117209
C37	C	1.319560	0.000047	0.119082
C38	C	1.063093	0.000027	-0.039964
C39	C	1.061222	0.000028	-0.139261
N40	N	1.067894	0.215832	0.134697
C41	C	1.141811	0.000029	-0.196485
C42	C	1.140048	0.000038	-0.289784
C43	C	1.057695	0.000039	-0.325857
C44	C	0.977100	0.000040	-0.268626
C45	C	0.978864	0.000038	-0.175329
C46	C	0.973429	0.000043	-0.463089
C47	C	0.971665	0.000044	-0.556393
C48	C	1.134614	0.000043	-0.577544
C49	C	1.136378	0.000041	-0.484246
C50	C	1.055782	0.000040	-0.427021
C51	C	1.050383	0.000040	0.287086
C52	C	1.052254	0.000045	0.386384
H53	H	1.143683	-0.223843	0.210600
C54	C	1.226963	0.000041	-0.444566
H55	H	1.274711	0.000050	-0.492007
H56	H	1.228541	-0.048261	-0.411105
H57	H	1.233530	0.048351	-0.406114
H58	H	0.490405	-0.136948	0.115361
C59	C	1.223268	0.000058	-0.640486
H60	H	1.210426	0.000073	-0.701216
H61	H	1.254541	-0.048243	-0.632046
H62	H	1.259524	0.048369	-0.627035
H63	H	0.335320	0.137036	0.126321
H64	H	0.904605	0.000031	-0.585761
C65	C	1.181702	-0.788489	0.248599
H66	H	1.216017	-0.750029	0.282953
H67	H	1.221076	-0.822499	0.210261
H68	H	1.143333	-0.822502	0.287953
H69	H	0.504574	0.137028	0.129501
H70	H	0.938516	-0.382074	0.005230
H71	H	0.778159	-0.136960	0.120813
C72	C	1.150411	-0.394466	0.217311
H73	H	1.184722	-0.356006	0.251669
H74	H	1.189788	-0.428473	0.178974
H75	H	1.112040	-0.428481	0.256660
C76	C	0.953640	-0.788564	0.020349
H77	H	0.958414	-0.846731	0.025141
H78	H	0.970934	-0.774283	-0.040088
H79	H	0.893192	-0.774284	0.037604
C80	C	0.884776	0.000041	-0.400143
H81	H	0.835476	0.000034	-0.434989
H82	H	0.884572	0.048342	-0.360808
H83	H	0.879583	-0.048270	-0.365809
H84	H	0.608896	-0.136959	0.117618
H85	H	0.792341	0.137022	0.134949
H86	H	0.913240	0.000037	-0.128737
H87	H	0.623078	0.137028	0.131754
H88	H	1.174977	-0.617867	0.241877
H89	H	0.321136	-0.136947	0.112178
H90	H	0.946658	-0.223892	0.013396
H91	H	0.977947	-0.617927	0.044674
C92	C	0.969794	-0.527236	0.036583
H93	H	0.939428	-0.488798	0.006204
H94	H	0.926927	-0.561246	0.071433
H95	H	1.004642	-0.561251	-0.006287
C96	C	1.232401	0.000028	-0.156812
H97	H	1.280144	0.000038	-0.204258
H98	H	1.233982	-0.048275	-0.123353
H99	H	1.238972	0.048337	-0.118359
H100	H	1.127515	-0.485161	0.194368
H101	H	1.205672	0.000037	-0.336372
H102	H	0.910047	0.000046	-0.298004
