data_functionalizedCrystal
_audit_creation_method	'MofGen! by Chris Wilmer'
_symmetry_space_group_name_H-M	'P1'
_symmetry_Int_Tables_number	1
_symmetry_cell_setting	triclinic
loop_
_symmetry_equiv_pos_as_xyz
  x,y,z
_cell_length_a	10.654546
_cell_length_b	19.288865
_cell_length_c	9.130313
_cell_angle_alpha	89.991952
_cell_angle_beta	90.005677
_cell_angle_gamma	96.190135
loop_
_atom_site_label
_atom_site_type_symbol
_atom_site_fract_x
_atom_site_fract_y
_atom_site_fract_z
O1	O	1.665757	-0.097541	0.121850
O2	O	1.300079	-0.106838	0.121848
O3	O	1.493484	-0.001128	0.121820
O4	O	1.472351	-0.203251	0.121878
O5	O	1.493466	-0.001129	-0.121779
O6	O	1.300060	-0.106839	-0.121751
O7	O	1.665738	-0.097542	-0.121749
Cu8	Cu	1.482898	-0.102190	-0.143992
Cu9	Cu	1.482919	-0.102189	0.144092
O10	O	1.472333	-0.203251	-0.121721
C11	C	1.253286	-0.106156	0.000048
C12	C	1.113886	-0.104115	0.000046
C13	C	1.048422	-0.103149	0.132838
C14	C	0.917443	-0.101226	0.132849
C15	C	0.917403	-0.101233	-0.132736
C16	C	1.048379	-0.103161	-0.132746
C17	C	1.048444	-0.103143	0.286171
C18	C	0.917465	-0.101220	0.286183
C19	C	1.492795	0.024752	0.000016
C20	C	1.490754	0.101869	0.000003
C21	C	1.712531	-0.098224	0.000055
C22	C	1.851931	-0.100264	0.000067
C23	C	1.473022	-0.229132	0.000086
C24	C	1.475063	-0.306249	0.000109
N25	N	1.482891	-0.102190	-0.346615
C26	C	1.604235	0.145823	-0.000003
C27	C	1.602317	0.218283	0.000020
C28	C	1.486912	0.246785	0.000020
C29	C	1.373415	0.202821	0.000035
C30	C	1.375336	0.130363	0.000027
C31	C	1.396183	0.355666	-0.085308
C32	C	1.394267	0.428123	-0.085308
C33	C	1.480982	0.470270	0.000053
C34	C	1.569635	0.439952	0.085396
C35	C	1.571556	0.367494	0.085388
C36	C	1.484816	0.325353	0.000031
C37	C	1.592392	0.592793	0.000074
C38	C	1.590470	0.665254	0.000106
C39	C	1.361565	0.649791	0.000106
C40	C	1.363490	0.577332	0.000089
C41	C	1.478908	0.548838	0.000066
C42	C	1.397241	-0.148978	-0.423292
C43	C	1.397265	-0.148976	-0.576629
C44	C	1.568595	-0.055394	-0.576598
C45	C	1.568576	-0.055399	-0.423264
C46	C	1.298321	-0.203005	-0.423311
C47	C	1.298345	-0.203003	-0.576648
N48	N	1.482935	-0.102184	0.346714
H49	H	1.072218	-0.152185	0.345058
O50	O	1.337348	-0.269818	-0.639640
H51	H	1.357998	-0.305246	-0.549034
O52	O	1.298660	0.460819	-0.177363
H53	H	1.238604	0.489834	-0.105384
H54	H	1.202092	-0.191105	-0.618294
O55	O	1.712875	0.712666	0.000106
H56	H	1.717450	0.746063	-0.099168
H57	H	0.864698	-0.150683	0.333789
H58	H	1.101673	-0.103955	-0.240878
H59	H	1.325566	0.321355	-0.154827
H60	H	1.267599	0.672997	0.000114
O61	O	1.118382	-0.037627	0.349163
H62	H	1.049538	-0.001335	0.382575
H63	H	1.643738	0.342812	0.154880
O64	O	1.661014	-0.004931	-0.659269
H65	H	1.645338	0.049299	-0.629850
O66	O	1.248938	0.233556	0.000019
H67	H	1.266666	0.291326	0.000003
H68	H	0.864052	-0.100456	-0.240850
H69	H	1.638330	-0.017308	-0.360834
H70	H	0.893704	-0.052175	0.345040
O71	O	1.325202	-0.273718	-0.368141
H72	H	1.418936	-0.285270	-0.408658
O73	O	1.178011	-0.180609	-0.360328
H74	H	1.114239	-0.168735	-0.450940
O75	O	1.728721	0.115095	0.000012
H76	H	1.783236	0.132721	-0.099263
O77	O	1.724718	0.265705	-0.000007
H78	H	1.805296	0.233717	-0.000036
O79	O	1.663169	0.485397	0.177485
H80	H	1.646932	0.540874	0.163175
H81	H	1.686372	0.569592	0.000062
O82	O	1.241092	0.529917	0.000059
H83	H	1.160519	0.561907	0.000046
O84	O	1.252935	0.082948	0.000008
H85	H	1.172359	0.114938	0.000002
