data_functionalizedCrystal
_audit_creation_method	'MofGen! by Chris Wilmer'
_symmetry_space_group_name_H-M	'P1'
_symmetry_Int_Tables_number	1
_symmetry_cell_setting	triclinic
loop_
_symmetry_equiv_pos_as_xyz
  x,y,z
_cell_length_a	27.440280
_cell_length_b	20.016444
_cell_length_c	27.440280
_cell_angle_alpha	60.007398
_cell_angle_beta	90.005633
_cell_angle_gamma	59.997619
loop_
_atom_site_label
_atom_site_type_symbol
_atom_site_fract_x
_atom_site_fract_y
_atom_site_fract_z
Zr1	Zr	0.469504	0.731163	-0.063864
O2	O	0.391688	0.870536	-0.141678
O3	O	0.493359	0.591791	-0.040013
O4	O	0.493362	0.731147	-0.141671
O5	O	0.391683	0.731193	0.040173
O6	O	0.573565	0.731134	-0.141661
O7	O	0.391685	0.731180	-0.040021
O8	O	0.573560	0.481851	0.040186
O9	O	0.391688	0.980476	-0.141674
O10	O	0.563388	0.649107	-0.029829
O11	O	0.503532	0.649126	0.030011
O12	O	0.503535	0.813200	-0.089678
O13	O	0.443679	0.813220	-0.029838
Zr14	Zr	0.597415	0.731164	0.064051
Zr15	Zr	0.597419	0.731143	-0.063848
Zr16	Zr	0.469501	0.731184	0.064035
Zr17	Zr	0.469505	0.906504	-0.063858
Zr18	Zr	0.597415	0.555823	0.064045
O19	O	0.573560	0.870536	0.040200
O20	O	0.573565	0.870507	-0.141656
O21	O	0.391683	0.870565	0.040178
O22	O	0.675232	0.591791	0.141866
O23	O	0.675237	0.591762	-0.039990
O24	O	0.493354	0.591820	0.141843
O25	O	0.675237	0.731134	-0.039985
O26	O	0.573557	0.731180	0.141858
O27	O	0.493355	0.731193	0.141848
O28	O	0.675235	0.731147	0.040208
O29	O	0.493363	0.980459	-0.141662
O30	O	0.573557	0.481868	0.141849
O31	O	0.675232	0.481851	0.141862
O32	O	0.675234	0.481835	0.040199
O33	O	0.391685	0.980492	-0.040012
O34	O	0.493360	0.980476	-0.039999
O35	O	0.563384	0.649126	0.089865
O36	O	0.623240	0.649107	0.030026
O37	O	0.563388	0.813201	-0.029823
O38	O	0.503532	0.813220	0.030017
C39	C	0.533459	0.511839	0.000086
C40	C	0.533459	0.437402	0.000083
C41	C	0.564706	0.266122	-0.031143
C42	C	0.564707	0.196174	-0.031138
C43	C	0.502213	0.196208	0.031334
C44	C	0.502215	0.266149	0.031333
C45	C	0.533460	0.301108	0.000091
C46	C	0.533460	0.161219	0.000097
C47	C	0.533461	0.085379	0.000102
C48	C	0.533459	0.376952	0.000086
C49	C	0.373459	0.731189	0.000074
C50	C	0.319156	0.731198	0.000067
C51	C	0.013700	0.645493	0.031351
C52	C	-0.037318	0.645488	0.031356
O53	O	-0.037136	0.572641	0.057943
N54	N	-0.094077	0.731142	0.000115
C55	C	-0.099817	0.816807	-0.031129
O56	O	-0.152780	0.889662	-0.057701
C57	C	-0.048799	0.816811	-0.031130
C58	C	0.007959	0.731151	0.000108
C59	C	0.070456	0.559840	0.062587
C60	C	0.121471	0.559846	0.062580
C61	C	0.115730	0.645504	0.031338
C62	C	0.058974	0.731157	0.000102
C63	C	-0.054540	0.902475	-0.062370
C64	C	-0.003516	0.902472	-0.062368
C65	C	0.053243	0.816812	-0.031130
C66	C	0.104248	0.816821	-0.031147
N67	N	0.161007	0.731167	0.000094
C68	C	0.166748	0.645508	0.031336
C69	C	-0.206956	0.816791	-0.031122
C70	C	-0.257973	0.816788	-0.031125
C71	C	-0.195470	0.645469	0.031361
C72	C	-0.144452	0.645473	0.031359
C73	C	-0.150197	0.731137	0.000119
C74	C	0.273880	0.645526	0.031320
C75	C	0.324897	0.645540	0.031309
C76	C	0.262390	0.816858	-0.031174
C77	C	0.211378	0.816846	-0.031165
C78	C	0.217127	0.731172	0.000086
O79	O	0.104111	0.889630	-0.057719
O80	O	0.219712	0.572666	0.057910
C81	C	0.693461	0.731138	0.000114
C82	C	0.747764	0.731129	0.000120
C83	C	0.533464	0.731138	-0.159889
C84	C	0.533466	0.731129	-0.214185
C85	C	0.533460	0.950488	0.000102
C86	C	0.533460	1.024925	0.000104
C87	C	0.564715	0.645493	-0.417653
C88	C	0.564717	0.645488	-0.366630
O89	O	0.591304	0.572641	-0.313674
N90	N	0.533472	0.731142	-0.372354
C91	C	0.502228	0.816807	-0.429104
O92	O	0.475652	0.889661	-0.429286
C93	C	0.502230	0.816811	-0.480125
C94	C	0.533472	0.731151	-0.474397
C95	C	0.595956	0.559840	-0.411928
C96	C	0.595953	0.559846	-0.462946
C97	C	0.564710	0.645504	-0.519691
C98	C	0.533470	0.731157	-0.525416
C99	C	0.470990	0.902475	-0.536873
C100	C	0.470995	0.902472	-0.587895
C101	C	0.502238	0.816812	-0.582167
C102	C	0.502224	0.816821	-0.633179
N103	N	0.533470	0.731167	-0.627456
C104	C	0.564713	0.645508	-0.570712
C105	C	0.502226	0.816791	-0.321954
C106	C	0.502220	0.816788	-0.270934
C107	C	0.564710	0.645468	-0.208464
C108	C	0.564712	0.645473	-0.259485
C109	C	0.533471	0.731137	-0.316231
C110	C	0.564704	0.645527	-0.677857
C111	C	0.564697	0.645540	-0.728883
C112	C	0.502209	0.816859	-0.791349
C113	C	0.502214	0.816846	-0.740327
C114	C	0.533466	0.731172	-0.683580
O115	O	0.475653	0.889630	-0.686154
O116	O	0.591290	0.572666	-0.570539
C117	C	0.533455	0.731189	0.160076
C118	C	0.533454	0.731198	0.214372
C119	C	0.693461	0.511813	0.000106
C120	C	0.747763	0.437367	0.000110
C121	C	0.533455	0.511865	0.160068
C122	C	0.533453	0.437436	0.214362
C123	C	0.693456	0.511839	0.160088
C124	C	0.747757	0.437402	0.214389
C125	C	0.373463	0.950488	-0.159901
C126	C	0.319162	1.024925	-0.214201
C127	C	0.373459	0.950514	0.000082
C128	C	0.319156	1.024960	0.000078
C129	C	0.533465	0.950462	-0.159881
C130	C	0.533466	1.024890	-0.214174
C131	C	0.742022	0.402407	-0.031137
C132	C	0.793040	0.332467	-0.031146
C133	C	0.849799	0.297484	0.000097
C134	C	0.855540	0.332452	0.031345
C135	C	0.804522	0.402395	0.031350
C136	C	0.564695	0.402484	0.271108
C137	C	0.564691	0.332561	0.322127
C138	C	0.533449	0.297586	0.316400
C139	C	0.502203	0.332545	0.259648
C140	C	0.502204	0.402472	0.208629
C141	C	0.804508	0.402436	0.208653
C142	C	0.855534	0.332504	0.259669
C143	C	0.849810	0.297535	0.316421
C144	C	0.793054	0.332509	0.322155
C145	C	0.742028	0.402444	0.271139
C146	C	0.262412	1.059900	-0.208466
C147	C	0.211385	1.129853	-0.259482
C148	C	0.217110	1.164825	-0.316233
C149	C	0.273866	1.129848	-0.321968
C150	C	0.324891	1.059900	-0.270952
C151	C	0.324898	1.059927	0.031319
C152	C	0.273879	1.129886	0.031313
C153	C	0.217120	1.164872	0.000069
C154	C	0.211380	1.129901	-0.031177
C155	C	0.262398	1.059948	-0.031174
C156	C	0.564715	1.059843	-0.208428
C157	C	0.564728	1.129767	-0.259438
C158	C	0.533489	1.164742	-0.316194
C159	C	0.502239	1.129782	-0.321939
C160	C	0.502230	1.059855	-0.270930
H161	H	0.476774	0.167737	0.056770
C162	C	0.786764	0.294028	0.384583
H163	H	0.825284	0.247362	0.414140
H164	H	0.765565	0.344228	0.389070
H165	H	0.765572	0.266731	0.389057
H166	H	0.891337	0.240531	0.000090
H167	H	0.590151	0.167689	-0.056571
C168	C	0.280204	1.168332	0.065691
H169	H	0.321315	1.137461	0.084307
H170	H	0.261609	1.234360	0.038734
H171	H	0.261597	1.156873	0.095253
H172	H	0.371099	1.031424	-0.275629
H173	H	0.175583	1.221832	0.000071
H174	H	0.476771	0.294634	0.056769
H175	H	0.809205	0.430851	0.056798
H176	H	0.788355	0.304005	-0.056591
H177	H	0.901743	0.304036	0.254989
H178	H	0.167683	0.490093	0.088015
H179	H	0.533453	0.240648	0.357947
H180	H	0.476781	1.031404	-0.275617
H181	H	0.165160	1.158397	-0.056615
H182	H	0.371109	1.031448	0.056766
C183	C	0.160980	1.241761	-0.372347
H184	H	0.172513	1.257589	-0.406971
H185	H	0.137899	1.218837	-0.372348
H186	H	0.137904	1.296333	-0.372344
H187	H	0.257715	1.031479	-0.056613
H188	H	0.901760	0.303958	0.056782
H189	H	0.476767	0.304059	0.254993
H190	H	0.590153	1.031377	-0.162219
H191	H	0.165161	0.886597	-0.056610
C192	C	0.467849	0.911075	-0.853771
H193	H	0.472331	0.898803	-0.883333
H194	H	0.426743	0.946287	-0.858257
H195	H	0.483288	0.946256	-0.858236
H196	H	0.891363	0.240590	0.357956
H197	H	0.476765	0.430921	0.162426
C198	C	0.679594	0.440881	-0.065511
H199	H	0.683490	0.410043	-0.084125
H200	H	0.658386	0.429425	-0.038553
H201	H	0.658395	0.506915	-0.095074
C202	C	-0.189162	0.551245	0.065736
H203	H	-0.227677	0.563518	0.061266
H204	H	-0.167964	0.516034	0.050315
H205	H	-0.167962	0.516064	0.106838
C206	C	0.387330	0.551310	0.065677
H207	H	0.383438	0.500297	0.084289
H208	H	0.408531	0.547740	0.038713
H209	H	0.408532	0.547758	0.095241
C210	C	-0.320402	0.911013	-0.065491
H211	H	-0.316508	0.962024	-0.084093
H212	H	-0.341610	0.914575	-0.095053
H213	H	-0.341598	0.914579	-0.038520
H214	H	0.257739	1.031429	-0.162260
C215	C	0.599096	1.168220	-0.253107
H216	H	0.617688	1.137385	-0.211999
H217	H	0.628670	1.156747	-0.271697
H218	H	0.572124	1.234257	-0.271712
H219	H	0.533501	1.221681	-0.357724
H220	H	0.590137	0.430953	0.275783
C221	C	0.599065	0.551245	-0.146039
H222	H	0.594587	0.563517	-0.116477
H223	H	0.583627	0.516068	-0.141580
H224	H	0.640175	0.516029	-0.141547
H225	H	0.476805	1.158270	-0.368157
H226	H	0.278570	0.575763	0.056769
H227	H	0.695822	0.430904	0.275818
H228	H	-0.098240	0.575721	0.056802
C229	C	0.599081	0.304563	-0.065499
H230	H	0.617696	0.273698	-0.084094
H231	H	0.572120	0.370593	-0.095066
H232	H	0.628649	0.293090	-0.038525
H233	H	0.165177	1.158320	-0.254801
H234	H	0.809180	0.430897	0.162448
C235	C	0.280159	1.168311	-0.384395
H236	H	0.321265	1.137470	-0.380510
H237	H	0.261545	1.156848	-0.405590
H238	H	0.261554	1.234346	-0.405594
C239	C	0.076782	0.465608	0.096953
H240	H	0.117895	0.414605	0.115549
H241	H	0.058185	0.462033	0.126520
H242	H	0.058182	0.462040	0.069983
C243	C	0.630325	0.465622	-0.456642
H244	H	0.625852	0.477880	-0.495152
H245	H	0.671427	0.430427	-0.435439
H246	H	0.614892	0.430432	-0.435450
C247	C	0.599069	0.294110	0.384546
H248	H	0.617683	0.324946	0.380646
H249	H	0.572107	0.305586	0.405749
H250	H	0.628637	0.228073	0.405749
H251	H	0.476771	0.886541	-0.275605
H252	H	-0.100747	0.972228	-0.087807
C253	C	-0.009838	0.996705	-0.096737
H254	H	-0.050949	1.047713	-0.115342
H255	H	0.008768	1.000275	-0.069776
H256	H	0.008759	1.000266	-0.126307
C257	C	-0.213281	0.911028	-0.065499
H258	H	-0.254392	0.962033	-0.084107
H259	H	-0.194679	0.914607	-0.038541
H260	H	-0.194682	0.914586	-0.095067
C261	C	0.256084	0.911075	-0.065568
H262	H	0.294599	0.898802	-0.061099
H263	H	0.234883	0.946234	-0.106664
H264	H	0.234887	0.946308	-0.050157
C265	C	0.599066	0.551311	-0.722579
H266	H	0.617677	0.500297	-0.681475
H267	H	0.572098	0.547752	-0.741187
H268	H	0.628635	0.547745	-0.741178
H269	H	0.590152	0.575763	-0.631657
H270	H	0.621401	0.490083	-0.365727
H271	H	0.476780	0.886553	-0.368158
C272	C	0.599078	0.551248	-0.253181
H273	H	0.617684	0.500238	-0.212076
H274	H	0.572111	0.547693	-0.271792
H275	H	0.628652	0.547676	-0.271775
C276	C	0.436626	0.996702	-0.543186
H277	H	0.418029	1.047709	-0.584291
H278	H	0.407056	1.000282	-0.524591
H279	H	0.463600	1.000256	-0.524578
H280	H	0.445555	0.972231	-0.634099
H281	H	0.476765	0.886597	-0.744992
