data_functionalizedCrystal
_audit_creation_method	'MofGen! by Chris Wilmer'
_symmetry_space_group_name_H-M	'P1'
_symmetry_Int_Tables_number	1
_symmetry_cell_setting	triclinic
loop_
_symmetry_equiv_pos_as_xyz
  x,y,z
_cell_length_a	14.971486
_cell_length_b	14.971506
_cell_length_c	13.448316
_cell_angle_alpha	89.994977
_cell_angle_beta	89.998199
_cell_angle_gamma	83.618258
loop_
_atom_site_label
_atom_site_type_symbol
_atom_site_fract_x
_atom_site_fract_y
_atom_site_fract_z
O1	O	1.186956	0.116564	-0.082574
O2	O	0.926557	0.130522	-0.082601
O3	O	1.063726	-0.006656	-0.082584
O4	O	1.049786	0.253742	-0.082591
O5	O	1.063709	-0.006664	0.082800
O6	O	0.926539	0.130514	0.082783
O7	O	1.186939	0.116555	0.082810
Cu8	Cu	1.056737	0.123534	0.097897
Cu9	Cu	1.056758	0.123544	-0.097688
O10	O	1.049769	0.253733	0.082793
C11	C	0.893223	0.129894	0.000088
C12	C	0.793926	0.128023	0.000078
C13	C	1.063091	-0.039984	0.000106
C14	C	1.061213	-0.139281	0.000102
C15	C	0.736707	0.208612	0.000077
C16	C	0.643407	0.206849	0.000092
C17	C	0.607329	0.124496	0.000100
C18	C	0.664556	0.043901	0.000104
C19	C	0.757853	0.045665	0.000096
C20	C	0.470093	0.040230	0.000118
C21	C	0.376789	0.038466	0.000124
C22	C	0.355647	0.201414	0.000113
C23	C	0.448944	0.203178	0.000106
C24	C	0.506165	0.122582	0.000107
C25	C	1.220272	0.117184	0.000119
C26	C	1.319569	0.119054	0.000123
C27	C	1.134631	-0.577563	0.000110
C28	C	1.136389	-0.484263	0.000117
C29	C	1.055796	-0.427043	0.000105
C30	C	0.973441	-0.463127	0.000097
C31	C	0.971685	-0.556426	0.000097
C32	C	0.977108	-0.268664	0.000093
C33	C	0.978864	-0.175359	0.000091
C34	C	1.141812	-0.196501	0.000113
C35	C	1.140055	-0.289800	0.000113
C36	C	1.057700	-0.325878	0.000103
C37	C	1.050404	0.287062	0.000101
C38	C	1.052282	0.386358	0.000099
N39	N	1.056730	0.123526	0.235462
N40	N	1.056773	0.123544	-0.235252
C41	C	1.117487	0.062809	0.287509
C42	C	1.117493	0.062808	0.391613
C43	C	1.056744	0.123530	0.443666
C44	C	0.995980	0.184250	0.391611
C45	C	0.995971	0.184246	0.287510
C46	C	0.996005	0.184256	0.608591
C47	C	0.996015	0.184262	0.712700
C48	C	1.117527	0.062818	0.712694
C49	C	1.117518	0.062814	0.608593
C50	C	1.056754	0.123536	0.556545
H51	H	0.596822	0.272472	0.000090
O52	O	0.293933	0.288342	0.000126
H53	H	0.306757	0.327747	-0.067291
H54	H	1.166959	0.013366	0.245134
O55	O	0.487864	0.291997	0.000092
H56	H	0.529875	0.296685	0.067492
H57	H	0.910045	-0.298035	0.000098
O58	O	1.225207	-0.445346	0.000106
H59	H	1.280952	-0.500808	0.000094
O60	O	0.337877	-0.050358	0.000151
H61	H	0.263388	-0.038041	0.000148
H62	H	0.804441	-0.019958	0.000096
H63	H	0.904628	-0.585799	0.000096
H64	H	0.516680	-0.025399	0.000121
O65	O	1.226977	-0.351521	0.000134
H66	H	1.284539	-0.310762	0.000153
O67	O	1.221561	-0.639271	0.000126
H68	H	1.206508	-0.710210	0.000117
O69	O	0.930424	0.249723	0.231373
H70	H	0.940611	0.239508	0.150240
O71	O	0.625649	-0.044925	0.000121
H72	H	0.583652	-0.049632	-0.067287
H73	H	1.208869	-0.167123	0.000029
H74	H	1.166965	0.013367	0.433989
O75	O	0.891943	-0.113638	0.000091
H76	H	0.834381	-0.154397	0.000101
O77	O	0.886515	-0.401414	0.000094
H78	H	0.847113	-0.414255	-0.067313
H79	H	1.166988	0.013374	0.566211
H80	H	1.167002	0.013377	0.755077
H81	H	0.946547	0.233707	0.755077
O82	O	0.930474	0.249751	0.552448
H83	H	0.888240	0.291984	0.606131
O84	O	0.930463	0.249753	0.447748
H85	H	0.886958	0.212038	0.495200
H86	H	0.766074	0.275673	0.000069
