data_functionalizedCrystal
_audit_creation_method	'MofGen! by Chris Wilmer'
_symmetry_space_group_name_H-M	'P1'
_symmetry_Int_Tables_number	1
_symmetry_cell_setting	triclinic
loop_
_symmetry_equiv_pos_as_xyz
  x,y,z
_cell_length_a	18.426585
_cell_length_b	14.560438
_cell_length_c	14.560438
_cell_angle_alpha	60.000069
_cell_angle_beta	89.999331
_cell_angle_gamma	60.001046
loop_
_atom_site_label
_atom_site_type_symbol
_atom_site_fract_x
_atom_site_fract_y
_atom_site_fract_z
Zr1	Zr	0.699112	1.005314	-0.120530
O2	O	0.583236	1.196911	-0.267171
O3	O	0.734634	0.813715	-0.075579
O4	O	0.734634	1.005319	-0.267180
O5	O	0.583236	1.005305	0.075571
O6	O	0.854060	1.005325	-0.267183
O7	O	0.583236	1.005307	-0.075570
O8	O	0.854060	0.662581	0.075555
O9	O	0.583236	1.348049	-0.267168
O10	O	0.838910	0.892528	-0.056408
O11	O	0.749784	0.892521	0.056390
O12	O	0.749784	1.118111	-0.169195
O13	O	0.660658	1.118104	-0.056398
Zr14	Zr	0.889583	1.005320	0.120516
Zr15	Zr	0.889583	1.005325	-0.120536
Zr16	Zr	0.699112	1.005310	0.120522
Zr17	Zr	0.699112	1.246362	-0.120525
Zr18	Zr	0.889583	0.764273	0.120512
O19	O	0.854061	1.196920	0.075565
O20	O	0.854060	1.196926	-0.267180
O21	O	0.583236	1.196905	0.075574
O22	O	1.005459	0.813723	0.267158
O23	O	1.005459	0.813729	-0.075588
O24	O	0.734635	0.813709	0.267166
O25	O	1.005459	1.005330	-0.075584
O26	O	0.854061	1.005316	0.267166
O27	O	0.734635	1.005309	0.267170
O28	O	1.005459	1.005327	0.075557
O29	O	0.734635	1.348058	-0.267173
O30	O	0.854060	0.662577	0.267160
O31	O	1.005459	0.662585	0.267155
O32	O	1.005459	0.662589	0.075551
O33	O	0.583236	1.348046	-0.075564
O34	O	0.734635	1.348054	-0.075569
O35	O	0.838911	0.892524	0.169182
O36	O	0.928037	0.892531	0.056384
O37	O	0.838911	1.118113	-0.056403
O38	O	0.749785	1.118107	0.056394
C39	C	0.794347	0.703804	-0.000012
C40	C	0.794347	0.601473	-0.000014
C41	C	0.840868	0.553400	-0.058894
C42	C	0.840871	0.457241	-0.058883
C43	C	0.747826	0.457239	0.058888
C44	C	0.747828	0.553390	0.058883
C45	C	0.556098	1.005305	0.000001
C46	C	0.475238	1.005300	0.000004
C47	C	0.179123	1.005339	-0.000016
C48	C	0.261509	1.005334	-0.000014
C49	C	0.327178	1.005320	-0.000007
C50	C	0.409570	1.005314	-0.000003
C51	C	1.032597	1.005330	-0.000014
C52	C	1.113457	1.005334	-0.000017
C53	C	0.794347	1.005323	-0.301526
C54	C	0.794347	1.005325	-0.403859
C55	C	0.794348	1.306831	-0.000001
C56	C	0.794348	1.409162	0.000001
C57	C	0.860140	1.005329	-0.451937
C58	C	0.860142	1.005317	-0.548083
C59	C	0.728552	1.005302	-0.548067
C60	C	0.728554	1.005304	-0.451919
C61	C	0.794348	1.005312	0.301513
C62	C	0.794348	1.005310	0.403846
C63	C	1.032597	0.703816	-0.000020
C64	C	1.113456	0.601490	-0.000025
C65	C	0.794347	0.703798	0.301507
C66	C	0.794347	0.601465	0.403838
C67	C	1.032597	0.703811	0.301500
C68	C	1.113457	0.601482	0.403828
C69	C	0.556098	1.306824	-0.301513
C70	C	0.475238	1.409152	-0.403841
C71	C	0.556098	1.306818	0.000007
C72	C	0.475239	1.409145	0.000011
C73	C	0.794348	1.306836	-0.301521
C74	C	0.794348	1.409169	-0.403852
C75	C	1.104906	0.553434	-0.058913
C76	C	1.180875	0.457301	-0.058940
C77	C	1.265393	0.409218	-0.000071
C78	C	1.273942	0.457283	0.058819
C79	C	1.197974	0.553421	0.058839
C80	C	1.197960	0.553431	0.393003
C81	C	1.273944	0.457296	0.489143
C82	C	1.265422	0.409207	0.596105
C83	C	1.180909	0.457268	0.606928
C84	C	1.104928	0.553408	0.510790
C85	C	0.390735	1.457215	-0.393017
C86	C	0.314751	1.553380	-0.489156
C87	C	0.323273	1.601474	-0.596119
C88	C	0.407786	1.553407	-0.606941
C89	C	0.483767	1.457251	-0.510803
C90	C	0.483789	1.457210	0.058890
C91	C	0.407820	1.553370	0.058890
C92	C	0.323302	1.601457	0.000017
C93	C	0.314753	1.553388	-0.058868
C94	C	0.390721	1.457236	-0.058874
C95	C	0.840870	0.553389	0.510790
C96	C	0.840859	0.457245	0.606937
C97	C	0.747804	0.457260	0.489167
C98	C	0.747809	0.553408	0.393023
H99	H	0.709951	0.418079	0.106838
C100	C	0.670113	1.005307	-0.695459
C101	C	0.656227	1.005298	-0.600907
H102	H	0.625456	1.005316	-0.728082
H103	H	0.726902	0.929982	-0.673552
H104	H	0.667384	1.080644	-0.748874
H105	H	0.658963	0.929956	-0.547487
H106	H	0.599424	1.080631	-0.622811
H107	H	1.204948	0.592535	0.106799
C108	C	1.413383	0.270669	0.528942
C109	C	1.366838	0.404478	0.477245
H110	H	1.470733	0.238066	0.521603
H111	H	1.381821	0.254900	0.493889
H112	H	1.419173	0.228290	0.606401
H113	H	1.361042	0.446858	0.399783
H114	H	1.398407	0.420258	0.512295
H115	H	0.709944	0.592529	0.106835
H116	H	0.674977	1.005296	-0.412769
C117	C	0.631784	0.740064	0.216580
C118	C	0.696668	0.606260	0.275449
H119	H	0.600209	0.772691	0.144000
H120	H	0.659498	0.782439	0.209262
H121	H	0.591631	0.755803	0.256547
H122	H	0.736825	0.590521	0.235486
H123	H	0.668953	0.563873	0.282761
H124	H	0.878748	0.592545	-0.106849
C125	C	0.932831	0.543738	0.636860
C126	C	0.892007	0.606235	0.522677
H127	H	0.964393	0.576374	0.644198
H128	H	0.972987	0.452976	0.671908
H129	H	0.888793	0.559498	0.671906
H130	H	0.936045	0.590467	0.487632
H131	H	0.851847	0.697018	0.487614
C132	C	0.163780	1.739174	-0.669686
C133	C	0.239747	1.707161	-0.701789
H134	H	0.112213	1.804412	-0.734921
H135	H	0.163796	1.770684	-0.626195
H136	H	0.163804	1.664137	-0.626183
H137	H	0.239726	1.782197	-0.745285
H138	H	0.239730	1.675655	-0.745298
H139	H	0.878754	0.418101	-0.106826
H140	H	0.709915	0.418118	0.480375
C141	C	1.016180	0.894251	-0.366851
C142	C	0.932485	1.005311	-0.399112
H143	H	1.060850	0.894229	-0.334237
H144	H	1.025566	0.894267	-0.431000
H145	H	1.018890	0.818937	-0.313422
H146	H	0.929773	1.080625	-0.452548
H147	H	0.923096	1.005307	-0.334955
C148	C	0.980363	0.894271	-0.600681
C149	C	0.932463	1.005324	-0.600931
H150	H	1.025017	0.894272	-0.633299
H151	H	0.941183	0.894270	-0.643068
H152	H	1.007387	0.818953	-0.525499
H153	H	0.905434	1.080643	-0.676113
H154	H	0.971650	1.005336	-0.558544
H155	H	1.036093	0.592583	-0.106865
H156	H	1.342767	0.418119	0.106748
C157	C	0.265166	1.739156	0.064165
C158	C	0.239801	1.707139	0.000042
H159	H	0.213618	1.804391	0.064189
H160	H	0.299529	1.770672	0.032632
H161	H	0.299543	1.664119	0.139169
H162	H	0.205430	1.782174	-0.074965
H163	H	0.205424	1.675628	0.031571
H164	H	1.036124	0.592519	0.519619
C165	C	1.081234	0.466965	-0.175307
C166	C	1.171463	0.404469	-0.123663
H167	H	1.075425	0.434342	-0.215256
H168	H	1.053536	0.557728	-0.226119
H169	H	1.053553	0.451188	-0.119565
H170	H	1.199143	0.420253	-0.179406
H171	H	1.199173	0.313684	-0.072847
H172	H	1.327244	0.330935	-0.000095
H173	H	1.204916	0.592571	0.305917
C174	C	0.156981	1.700777	-0.111108
C175	C	0.221845	1.606243	-0.123567
H176	H	0.099624	1.733397	-0.151041
H177	H	0.163652	1.769790	-0.140192
H178	H	0.163671	1.663246	-0.033640
H179	H	0.215159	1.643777	-0.201036
H180	H	0.215171	1.537219	-0.094488
C181	C	0.291083	1.466907	-0.175243
C182	C	0.381313	1.404393	-0.123583
H183	H	0.285272	1.434280	-0.215187
H184	H	0.263396	1.557667	-0.226061
H185	H	0.263392	1.451150	-0.119509
H186	H	0.409002	1.420158	-0.179318
H187	H	0.409011	1.313612	-0.072761
H188	H	1.327298	0.330924	0.674378
C189	C	0.956876	0.270587	0.783383
C190	C	0.891997	0.404395	0.724503
H191	H	0.988441	0.237963	0.855967
H192	H	0.997030	0.254834	0.743432
H193	H	0.929151	0.228217	0.790697
H194	H	0.919722	0.446767	0.717181
H195	H	0.851837	0.420158	0.764463
C196	C	1.256095	0.309847	0.806593
C197	C	1.171552	0.404387	0.724508
H198	H	1.250317	0.277191	0.879182
H199	H	1.287644	0.347376	0.798151
H200	H	1.287653	0.240848	0.798123
H201	H	1.139996	0.473391	0.732973
H202	H	1.139989	0.366859	0.732954
H203	H	0.245945	1.592499	-0.480322
C204	C	0.463562	1.504385	-0.736899
C205	C	0.417079	1.606209	-0.724556
H206	H	0.469281	1.536963	-0.809519
H207	H	0.432001	1.466842	-0.728306
H208	H	0.520936	1.440302	-0.681251
H209	H	0.359702	1.670288	-0.780199
H210	H	0.448639	1.643771	-0.733160
C211	C	0.465882	1.309811	-0.193335
C212	C	0.381353	1.404367	-0.275449
H213	H	0.460082	1.277190	-0.120757
H214	H	0.497449	1.347314	-0.201769
H215	H	0.497436	1.240791	-0.201780
H216	H	0.349801	1.473392	-0.267010
H217	H	0.349773	1.366864	-0.267011
H218	H	0.552572	1.418119	-0.519630
H219	H	0.552602	1.418066	0.106838
H220	H	0.414798	1.592492	0.106846
