data_functionalizedCrystal
_audit_creation_method	'MofGen! by Chris Wilmer'
_symmetry_space_group_name_H-M	'P1'
_symmetry_Int_Tables_number	1
_symmetry_cell_setting	triclinic
loop_
_symmetry_equiv_pos_as_xyz
  x,y,z
_cell_length_a	10.654562
_cell_length_b	9.065218
_cell_length_c	8.140239
_cell_angle_alpha	89.989394
_cell_angle_beta	90.004288
_cell_angle_gamma	95.246973
loop_
_atom_site_label
_atom_site_type_symbol
_atom_site_fract_x
_atom_site_fract_y
_atom_site_fract_z
O1	O	1.668648	-0.207321	0.136752
O2	O	1.303250	-0.227046	0.136734
O3	O	1.493501	-0.002500	0.136701
O4	O	1.478396	-0.431867	0.136785
O5	O	1.493495	-0.002499	-0.136526
O6	O	1.303243	-0.227044	-0.136493
O7	O	1.668642	-0.207320	-0.136475
Zn8	Zn	1.485942	-0.217182	-0.179865
Zn9	Zn	1.485950	-0.217184	0.180124
O10	O	1.478390	-0.431865	-0.136442
C11	C	1.256443	-0.225593	0.000118
C12	C	1.116983	-0.221248	0.000109
C13	C	1.051441	-0.219221	-0.148814
C14	C	0.920403	-0.215150	-0.148788
C15	C	0.920460	-0.215141	0.149099
C16	C	1.051497	-0.219201	0.149071
C17	C	1.116928	-0.221268	-0.297776
C18	C	1.051386	-0.219242	-0.446712
C19	C	0.920347	-0.215172	-0.446685
C20	C	0.854851	-0.213127	-0.297723
C21	C	1.492047	0.052479	0.000081
C22	C	1.487706	0.216299	0.000059
C23	C	1.715448	-0.208773	0.000145
C24	C	1.854908	-0.213117	0.000164
N25	N	1.485945	-0.217179	-0.425547
C26	C	1.479845	0.513155	0.000137
C27	C	1.484185	0.349336	0.000035
N28	N	1.485956	-0.217174	0.425806
H29	H	0.748151	-0.209809	-0.297713
H30	H	1.223625	-0.224587	-0.297815
H31	H	0.867122	-0.213479	0.270377
H32	H	1.104722	-0.220896	-0.567991
H33	H	0.866987	-0.213511	-0.567956
H34	H	1.104862	-0.220859	0.270338
