data_functionalizedCrystal
_audit_creation_method	'MofGen! by Chris Wilmer'
_symmetry_space_group_name_H-M	'P1'
_symmetry_Int_Tables_number	1
_symmetry_cell_setting	triclinic
loop_
_symmetry_equiv_pos_as_xyz
  x,y,z
_cell_length_a	19.188930
_cell_length_b	9.130313
_cell_length_c	10.654550
_cell_angle_alpha	90.000110
_cell_angle_beta	96.185158
_cell_angle_gamma	89.985896
loop_
_atom_site_label
_atom_site_type_symbol
_atom_site_fract_x
_atom_site_fract_y
_atom_site_fract_z
O1	O	0.927166	-0.122267	-0.156774
O2	O	0.723993	-0.122166	-0.177880
O3	O	0.830251	-0.122214	0.015511
O4	O	0.820908	-0.122220	-0.350165
O5	O	0.830250	0.121385	0.015506
O6	O	0.723992	0.121433	-0.177885
O7	O	0.927165	0.121332	-0.156779
Cu8	Cu	0.825578	0.143625	-0.167333
Cu9	Cu	0.825580	-0.144459	-0.167326
O10	O	0.820907	0.121379	-0.350170
C11	C	0.697977	-0.000354	-0.177199
C12	C	0.620459	-0.000315	-0.175147
N13	N	0.825582	0.346247	-0.167336
N14	N	0.825581	-0.347082	-0.167313
C15	C	0.576277	-0.000340	-0.288622
C16	C	0.503441	-0.000356	-0.286695
C17	C	0.474789	-0.000377	-0.171286
C18	C	0.518981	-0.000344	-0.057795
C19	C	0.591816	-0.000313	-0.059726
N20	N	0.366233	-0.083342	-0.083068
N21	N	0.297042	-0.083374	-0.081241
C22	C	0.255343	-0.000466	-0.165461
N23	N	0.285446	0.082456	-0.251596
N24	N	0.354643	0.082482	-0.253426
C25	C	0.395813	-0.000409	-0.169179
C26	C	0.132183	-0.000507	-0.276855
C27	C	0.059345	-0.000514	-0.274922
C28	C	0.074887	-0.000516	-0.046020
C29	C	0.147723	-0.000494	-0.047955
C30	C	0.176366	-0.000497	-0.163376
C31	C	0.953181	-0.000484	-0.157460
C32	C	1.030699	-0.000532	-0.159512
C33	C	0.829564	-0.000416	0.062292
C34	C	0.827512	-0.000420	0.201692
C35	C	0.872645	0.422878	-0.081731
C36	C	0.872643	0.576215	-0.081716
C37	C	0.778513	0.576276	-0.252922
C38	C	0.778512	0.422942	-0.252930
C39	C	0.919716	0.346183	0.003862
C40	C	0.966783	0.422814	0.089473
C41	C	0.966781	0.576151	0.089488
C42	C	0.919712	0.652857	0.003892
C43	C	0.821594	-0.000422	-0.396951
C44	C	0.823646	-0.000428	-0.536351
C45	C	0.890075	-0.000446	0.282501
C46	C	0.888142	-0.000456	0.413481
C47	C	0.761078	-0.000405	0.382829
C48	C	0.763011	-0.000407	0.251852
C49	C	0.954575	-0.000459	0.232341
C50	C	1.017143	-0.000484	0.313152
C51	C	1.015211	-0.000494	0.444132
C52	C	0.950710	-0.000478	0.494301
H53	H	0.599593	-0.000345	-0.382607
F54	F	1.081800	-0.000535	0.530134
F55	F	0.728423	0.657916	-0.344015
F56	F	0.012323	-0.000533	-0.395705
F57	F	0.456410	-0.000379	-0.407476
F58	F	0.948656	-0.000439	0.633704
F59	F	1.016868	0.657705	0.180609
H60	H	0.708564	-0.000390	0.423688
F61	F	0.696425	-0.000379	0.165844
H62	H	0.495648	-0.000381	0.036172
H63	H	0.627789	-0.000294	0.032682
F64	F	0.919708	0.816053	0.003925
H65	H	0.051560	-0.000623	0.047949
H66	H	0.740188	0.360549	-0.322636
H67	H	0.155505	-0.000487	-0.370837
H68	H	1.005102	0.360353	0.159169
F69	F	0.956637	-0.000445	0.092943
H70	H	0.919723	0.221329	0.003855
F71	F	0.194747	-0.000475	0.072823
F72	F	1.085786	-0.000518	0.259757
