data_functionalizedCrystal
_audit_creation_method	'MofGen! by Chris Wilmer'
_symmetry_space_group_name_H-M	'P1'
_symmetry_Int_Tables_number	1
_symmetry_cell_setting	triclinic
loop_
_symmetry_equiv_pos_as_xyz
  x,y,z
_cell_length_a	13.897449
_cell_length_b	25.639239
_cell_length_c	13.897441
_cell_angle_alpha	90.034305
_cell_angle_beta	90.020733
_cell_angle_gamma	90.039966
loop_
_atom_site_label
_atom_site_type_symbol
_atom_site_fract_x
_atom_site_fract_y
_atom_site_fract_z
Zn1	Zn	1.474562	-0.208116	0.545356
Zn2	Zn	1.974562	0.291884	1.045356
Zn3	Zn	1.474397	-0.295559	0.384047
Zn4	Zn	1.974397	0.204441	0.884047
Zn5	Zn	1.313251	-0.208141	0.384075
Zn6	Zn	1.813251	0.291859	0.884075
Zn7	Zn	1.313174	-0.295524	0.545300
Zn8	Zn	1.813174	0.204476	1.045300
O9	O	1.393846	-0.251835	0.464695
O10	O	1.893846	0.248165	0.964695
O11	O	1.609522	-0.219720	0.523970
O12	O	2.109522	0.280280	1.023970
O13	O	1.452984	-0.283987	0.249069
O14	O	1.952984	0.216013	0.749069
O15	O	1.334751	-0.134973	0.405504
O16	O	1.834751	0.365027	0.905504
O17	O	1.609400	-0.283963	0.405457
O18	O	2.109400	0.216037	0.905457
O19	O	1.453265	-0.134954	0.523997
O20	O	1.953265	0.365046	1.023997
O21	O	1.334591	-0.219762	0.249089
O22	O	1.834591	0.280238	0.749089
O23	O	1.178259	-0.219729	0.405449
O24	O	1.678259	0.280271	0.905449
O25	O	1.334619	-0.283905	0.680289
O26	O	1.834619	0.216095	1.180289
O27	O	1.178202	-0.283929	0.523901
O28	O	1.678202	0.216071	1.023901
O29	O	1.453190	-0.219686	0.680331
O30	O	1.953190	0.280314	1.180331
O31	O	1.452909	-0.368719	0.405403
O32	O	1.952909	0.131281	0.905403
O33	O	1.334459	-0.368694	0.523874
O34	O	1.834459	0.131306	1.023874
C35	C	1.143232	-0.251828	0.464673
C36	C	1.643232	0.248172	0.964673
C37	C	1.036018	-0.251838	0.464686
C38	C	1.536018	0.248162	0.964686
C39	C	0.839722	-0.251840	0.464711
C40	C	1.339722	0.248160	0.964711
C41	C	0.948955	-0.251837	0.464695
C42	C	1.448955	0.248163	0.964695
C43	C	1.393684	-0.387678	0.464650
C44	C	1.893684	0.112322	0.964650
C45	C	1.393702	-0.445792	0.464664
C46	C	1.893702	0.054208	0.964664
C47	C	1.455684	-0.806155	0.403111
C48	C	1.955684	-0.306155	0.903111
C49	C	1.455721	-0.860760	0.403124
C50	C	1.955721	-0.360760	0.903124
O51	O	1.508251	-0.888997	0.350742
O52	O	2.008251	-0.388997	0.850742
N53	N	1.394015	-0.888074	0.464758
N54	N	1.894015	-0.388074	0.964758
C55	C	1.332275	-0.860782	0.526391
C56	C	1.832275	-0.360782	1.026391
O57	O	1.279794	-0.889029	0.578817
O58	O	1.779794	-0.389029	1.078817
C59	C	1.332243	-0.806178	0.526382
C60	C	1.832243	-0.306178	1.026382
C61	C	1.393946	-0.778867	0.464737
C62	C	1.893946	-0.278867	0.964737
C63	C	1.517382	-0.778844	0.341472
C64	C	2.017382	-0.278844	0.841472
C65	C	1.517343	-0.724243	0.341458
C66	C	2.017343	-0.224243	0.841458
C67	C	1.455606	-0.696954	0.403084
C68	C	1.955606	-0.196954	0.903084
C69	C	1.393907	-0.724266	0.464723
C70	C	1.893907	-0.224266	0.964723
C71	C	1.270509	-0.778887	0.588018
C72	C	1.770509	-0.278887	1.088018
C73	C	1.270483	-0.724280	0.588004
C74	C	1.770483	-0.224280	1.088004
C75	C	1.332186	-0.696968	0.526359
C76	C	1.832186	-0.196968	1.026359
C77	C	1.332131	-0.642377	0.526334
C78	C	1.832131	-0.142377	1.026334
N79	N	1.393837	-0.615062	0.464700
N80	N	1.893837	-0.115062	0.964700
C81	C	1.455574	-0.642351	0.403075
C82	C	1.955574	-0.142351	0.903075
C83	C	1.332348	-0.975452	0.526405
C84	C	1.832348	-0.475452	1.026405
C85	C	1.332374	-1.030055	0.526410
C86	C	1.832374	-0.530055	1.026410
C87	C	1.455821	-1.030029	0.403145
C88	C	1.955821	-0.530029	0.903145
C89	C	1.455790	-0.975426	0.403136
C90	C	1.955790	-0.475426	0.903136
C91	C	1.394054	-0.948138	0.464771
C92	C	1.894054	-0.448138	0.964771
C93	C	1.455487	-0.527686	0.403050
C94	C	1.955487	-0.027686	0.903050
C95	C	1.455440	-0.473081	0.403038
C96	C	1.955440	0.026919	0.903038
C97	C	1.331997	-0.473111	0.526307
C98	C	1.831997	0.026889	1.026307
C99	C	1.332040	-0.527712	0.526315
C100	C	1.832040	-0.027712	1.026315
C101	C	1.393793	-0.554998	0.464683
C102	C	1.893793	-0.054998	0.964683
O103	O	1.279630	-0.614105	0.578693
O104	O	1.779630	-0.114105	1.078693
O105	O	1.508056	-0.614097	0.350666
O106	O	2.008056	-0.114097	0.850666
C107	C	1.645439	-0.251843	0.464717
C108	C	2.145439	0.248157	0.964717
C109	C	1.752653	-0.251846	0.464727
C110	C	2.252653	0.248154	0.964727
C111	C	1.393914	-0.251789	0.716288
C112	C	1.893914	0.248211	1.216288
C113	C	1.393943	-0.251769	0.823502
C114	C	1.893943	0.248231	1.323502
C115	C	1.394035	-0.115462	0.464760
C116	C	1.894035	0.384538	0.964760
C117	C	1.394116	-0.057348	0.464788
C118	C	1.894116	0.442652	0.964788
C119	C	1.393833	-0.251843	0.214080
C120	C	1.893833	0.248157	0.714080
C121	C	1.393991	-0.251716	0.106867
C122	C	1.893991	0.248284	0.606867
C123	C	1.393970	-0.251734	1.019797
C124	C	1.893970	0.248266	1.519797
C125	C	1.393952	-0.251755	0.910564
C126	C	1.893952	0.248245	1.410564
H127	H	1.505686	-0.450845	0.352836
H128	H	2.005686	0.049155	0.852836
Cl129	Cl	1.595006	-0.813140	0.263990
Cl130	Cl	2.095006	-0.313140	0.763990
Cl131	Cl	1.254721	-0.941153	0.603890
Cl132	Cl	1.754721	-0.441153	1.103890
Cl133	Cl	1.254450	-0.562047	0.603792
Cl134	Cl	1.754450	-0.062047	1.103792
H135	H	1.506034	-0.953192	0.352940
H136	H	2.006034	-0.453192	0.852940
H137	H	1.506095	-1.052257	0.352969
H138	H	2.006095	-0.552257	0.852969
Cl139	Cl	1.254790	-1.064382	0.603899
Cl140	Cl	1.754790	-0.564382	1.103899
H141	H	1.505774	-0.549896	0.352865
H142	H	2.005774	-0.049896	0.852865
Cl143	Cl	1.192946	-0.813208	0.665531
Cl144	Cl	1.692946	-0.313208	1.165531
Cl145	Cl	1.254393	-0.438795	0.603779
Cl146	Cl	1.754393	0.061205	1.103779
Cl147	Cl	1.192868	-0.689978	0.665495
Cl148	Cl	1.692868	-0.189978	1.165495
Cl149	Cl	1.594932	-0.689917	0.263972
Cl150	Cl	2.094932	-0.189917	0.763972
