data_functionalizedCrystal
_audit_creation_method	'MofGen! by Chris Wilmer'
_symmetry_space_group_name_H-M	'P1'
_symmetry_Int_Tables_number	1
_symmetry_cell_setting	triclinic
loop_
_symmetry_equiv_pos_as_xyz
  x,y,z
_cell_length_a	17.038272
_cell_length_b	14.044220
_cell_length_c	13.101039
_cell_angle_alpha	86.332523
_cell_angle_beta	86.404528
_cell_angle_gamma	87.849783
loop_
_atom_site_label
_atom_site_type_symbol
_atom_site_fract_x
_atom_site_fract_y
_atom_site_fract_z
O1	O	1.055801	-0.202095	-0.085089
O2	O	1.305801	0.047905	0.164911
O3	O	1.555801	0.297905	0.414911
O4	O	1.805801	0.547905	0.664911
O5	O	0.827941	-0.198806	-0.085119
O6	O	1.077941	0.051194	0.164881
O7	O	1.327941	0.301194	0.414881
O8	O	1.577941	0.551194	0.664881
O9	O	0.938450	-0.062191	-0.085095
O10	O	1.188450	0.187809	0.164905
O11	O	1.438450	0.437809	0.414905
O12	O	1.688450	0.687809	0.664905
O13	O	0.945292	-0.338710	-0.085114
O14	O	1.195292	-0.088710	0.164886
O15	O	1.445292	0.161290	0.414886
O16	O	1.695292	0.411290	0.664886
O17	O	0.930523	-0.072010	0.085333
O18	O	1.180523	0.177990	0.335333
O19	O	1.430523	0.427990	0.585333
O20	O	1.680523	0.677990	0.835333
O21	O	0.820014	-0.208625	0.085309
O22	O	1.070014	0.041375	0.335309
O23	O	1.320014	0.291375	0.585309
O24	O	1.570014	0.541375	0.835309
O25	O	1.047873	-0.211914	0.085339
O26	O	1.297873	0.038086	0.335339
O27	O	1.547873	0.288086	0.585339
O28	O	1.797873	0.538086	0.835339
Zn29	Zn	0.932685	-0.211829	0.112383
Zn30	Zn	1.182685	0.038171	0.362383
Zn31	Zn	1.432685	0.288171	0.612383
Zn32	Zn	1.682685	0.538171	0.862383
Zn33	Zn	0.943130	-0.198891	-0.112163
Zn34	Zn	1.193130	0.051109	0.137837
Zn35	Zn	1.443130	0.301109	0.387837
Zn36	Zn	1.693130	0.551109	0.637837
O37	O	0.937364	-0.348530	0.085314
O38	O	1.187364	-0.098530	0.335314
O39	O	1.437364	0.151470	0.585314
O40	O	1.687364	0.401470	0.835314
C41	C	0.794640	-0.200726	0.000091
C42	C	1.044640	0.049274	0.250091
C43	C	1.294640	0.299274	0.500091
C44	C	1.544640	0.549274	0.750091
C45	C	0.707224	-0.191806	0.000080
C46	C	0.957224	0.058194	0.250080
C47	C	1.207224	0.308194	0.500080
C48	C	1.457224	0.558194	0.750080
N49	N	0.925562	-0.220658	0.265630
N50	N	1.175562	0.029342	0.515630
N51	N	1.425562	0.279342	0.765630
N52	N	1.675562	0.529342	1.015630
C53	C	0.931492	-0.031544	0.000119
C54	C	1.181492	0.218456	0.250119
C55	C	1.431492	0.468456	0.500119
C56	C	1.681492	0.718456	0.750119
C57	C	0.922561	0.074402	0.000119
C58	C	1.172561	0.324402	0.250119
C59	C	1.422561	0.574402	0.500119
C60	C	1.672561	0.824402	0.750119
C61	C	0.662839	-0.273694	0.000075
C62	C	0.912839	-0.023694	0.250075
C63	C	1.162839	0.226306	0.500075
C64	C	1.412839	0.476306	0.750075
C65	C	0.580701	-0.265309	0.000090
C66	C	0.830701	-0.015309	0.250090
C67	C	1.080701	0.234691	0.500090
C68	C	1.330701	0.484691	0.750090
C69	C	0.542950	-0.175034	0.000102
C70	C	0.792950	0.074966	0.250102
C71	C	1.042950	0.324966	0.500102
C72	C	1.292950	0.574966	0.750102
C73	C	0.587341	-0.093140	0.000110
C74	C	0.837341	0.156860	0.250110
C75	C	1.087341	0.406860	0.500110
C76	C	1.337341	0.656860	0.750110
C77	C	0.669477	-0.101527	0.000102
C78	C	0.919477	0.148473	0.250102
C79	C	1.169477	0.398473	0.500102
C80	C	1.419477	0.648473	0.750102
C81	C	0.295118	-0.145406	0.000131
C82	C	0.545118	0.104594	0.250131
C83	C	0.795118	0.354594	0.500131
C84	C	1.045118	0.604594	0.750131
C85	C	0.212976	-0.137025	0.000136
C86	C	0.462976	0.112975	0.250136
C87	C	0.712976	0.362975	0.500136
C88	C	0.962976	0.612975	0.750136
C89	C	0.206341	-0.309195	0.000117
C90	C	0.456341	-0.059195	0.250117
C91	C	0.706341	0.190805	0.500117
C92	C	0.956341	0.440805	0.750117
C93	C	0.288480	-0.317573	0.000104
C94	C	0.538480	-0.067573	0.250104
C95	C	0.788480	0.182427	0.500104
C96	C	1.038480	0.432427	0.750104
C97	C	0.332863	-0.235680	0.000117
C98	C	0.582863	0.014320	0.250117
C99	C	0.832863	0.264320	0.500117
C100	C	1.082863	0.514320	0.750117
C101	C	0.458992	-0.166461	0.000114
C102	C	0.708992	0.083539	0.250114
C103	C	0.958992	0.333539	0.500114
C104	C	1.208992	0.583539	0.750114
C105	C	0.416819	-0.244254	0.000113
C106	C	0.666819	0.005746	0.250113
C107	C	0.916819	0.255746	0.500113
C108	C	1.166819	0.505746	0.750113
C109	C	1.081174	-0.209994	0.000126
C110	C	1.331174	0.040006	0.250126
C111	C	1.581174	0.290006	0.500126
C112	C	1.831174	0.540006	0.750126
C113	C	1.168591	-0.218913	0.000131
C114	C	1.418591	0.031087	0.250131
C115	C	1.668591	0.281087	0.500131
C116	C	1.918591	0.531087	0.750131
C117	C	0.944322	-0.379176	0.000098
C118	C	1.194322	-0.129176	0.250098
C119	C	1.444322	0.120824	0.500098
C120	C	1.694322	0.370824	0.750098
C121	C	0.953254	-0.485121	0.000091
C122	C	1.203254	-0.235121	0.250091
C123	C	1.453254	0.014879	0.500091
C124	C	1.703254	0.264879	0.750091
C125	C	0.906233	0.268381	0.000103
C126	C	1.156233	0.518381	0.250103
C127	C	1.406233	0.768381	0.500103
C128	C	1.656233	1.018381	0.750103
C129	C	0.969578	0.320905	0.000108
C130	C	1.219578	0.570905	0.250108
C131	C	1.469578	0.820905	0.500108
C132	C	1.719578	1.070905	0.750108
C133	C	0.960493	0.428842	0.000098
C134	C	1.210493	0.678842	0.250098
C135	C	1.460493	0.928842	0.500098
C136	C	1.710493	1.178842	0.750098
C137	C	0.915317	0.160434	0.000112
C138	C	1.165317	0.410434	0.250112
C139	C	1.415317	0.660434	0.500112
C140	C	1.665317	0.910434	0.750112
N141	N	0.950258	-0.190055	-0.265410
N142	N	1.200258	0.059945	-0.015410
N143	N	1.450258	0.309945	0.234590
N144	N	1.700258	0.559945	0.484590
C145	C	0.915872	-0.232680	0.474670
C146	C	1.165872	0.017320	0.724670
C147	C	1.415872	0.267320	0.974670
C148	C	1.665872	0.517320	1.224670
C149	C	0.959946	-0.178037	0.525556
C150	C	1.209946	0.071963	0.775556
C151	C	1.459946	0.321963	1.025556
C152	C	1.709946	0.571963	1.275556
C153	C	0.954554	-0.184725	0.641873
C154	C	1.204554	0.065275	0.891873
C155	C	1.454554	0.315275	1.141873
C156	C	1.704554	0.565275	1.391873
C157	C	0.921263	-0.225992	0.358342
C158	C	1.171263	0.024008	0.608342
C159	C	1.421263	0.274008	0.858342
C160	C	1.671263	0.524008	1.108342
H161	H	0.693569	-0.347205	0.000064
H162	H	0.943569	-0.097205	0.250064
H163	H	1.193569	0.152795	0.500064
H164	H	1.443569	0.402795	0.750064
H165	H	0.331245	-0.078722	0.000143
H166	H	0.581245	0.171278	0.250143
H167	H	0.831245	0.421278	0.500143
H168	H	1.081245	0.671278	0.750143
H169	H	1.030636	0.284815	0.000047
H170	H	1.280636	0.534815	0.250047
H171	H	1.530636	0.784815	0.500047
H172	H	1.780636	1.034815	0.750047
O173	O	0.825361	0.316179	0.000108
O174	O	1.075361	0.566179	0.250108
O175	O	1.325361	0.816179	0.500108
O176	O	1.575361	1.066179	0.750108
H177	H	0.830827	0.394684	0.000117
H178	H	1.080827	0.644684	0.250117
H179	H	1.330827	0.894684	0.500117
H180	H	1.580827	1.144684	0.750117
O181	O	1.015293	-0.109413	0.467553
O182	O	1.265293	0.140587	0.717553
O183	O	1.515293	0.390587	0.967553
O184	O	1.765293	0.640587	1.217553
H185	H	1.076517	-0.127577	0.488077
H186	H	1.326517	0.122423	0.738077
H187	H	1.576517	0.372423	0.988077
H188	H	1.826517	0.622423	1.238077
O189	O	0.860536	-0.301311	0.532665
O190	O	1.110536	-0.051311	0.782665
O191	O	1.360536	0.198689	1.032665
O192	O	1.610536	0.448689	1.282665
H193	H	0.864942	-0.295868	0.616247
H194	H	1.114942	-0.045868	0.866247
H195	H	1.364942	0.204132	1.116247
H196	H	1.614942	0.454132	1.366247
H197	H	0.544566	-0.331991	0.000084
H198	H	0.794566	-0.081991	0.250084
H199	H	1.044566	0.168009	0.500084
H200	H	1.294566	0.418009	0.750084
H201	H	0.319211	-0.391084	0.000082
H202	H	0.569211	-0.141084	0.250082
H203	H	0.819211	0.108916	0.500082
H204	H	1.069211	0.358916	0.750082
H205	H	0.182242	-0.063509	0.000145
H206	H	0.432242	0.186491	0.250145
H207	H	0.682242	0.436491	0.500145
H208	H	0.932242	0.686491	0.750145
O209	O	0.158472	-0.397522	0.000124
O210	O	0.408472	-0.147522	0.250124
O211	O	0.658472	0.102478	0.500124
O212	O	0.908472	0.352478	0.750124
H213	H	0.095015	-0.376530	0.000144
H214	H	0.345015	-0.126530	0.250144
H215	H	0.595015	0.123470	0.500144
H216	H	0.845015	0.373470	0.750144
O217	O	0.546630	0.004231	0.000127
O218	O	0.796630	0.254231	0.250127
O219	O	1.046630	0.504231	0.500127
O220	O	1.296630	0.754231	0.750127
H221	H	0.482059	-0.003692	0.000122
H222	H	0.732059	0.246308	0.250122
H223	H	0.982059	0.496308	0.500122
H224	H	1.232059	0.746308	0.750122
H225	H	0.705615	-0.034845	0.000106
H226	H	0.955615	0.215155	0.250106
H227	H	1.205615	0.465155	0.500106
H228	H	1.455615	0.715155	0.750106
H229	H	0.447559	-0.317756	0.000108
H230	H	0.697559	-0.067756	0.250108
H231	H	0.947559	0.182244	0.500108
H232	H	1.197559	0.432244	0.750108
H233	H	0.428245	-0.092960	0.000153
H234	H	0.678245	0.157040	0.250153
H235	H	0.928245	0.407040	0.500153
H236	H	1.178245	0.657040	0.750153
