data_functionalizedCrystal
_audit_creation_method	'MofGen! by Chris Wilmer'
_symmetry_space_group_name_H-M	'P1'
_symmetry_Int_Tables_number	1
_symmetry_cell_setting	triclinic
loop_
_symmetry_equiv_pos_as_xyz
  x,y,z
_cell_length_a	6.394989
_cell_length_b	10.654554
_cell_length_c	9.730223
_cell_angle_alpha	89.999030
_cell_angle_beta	89.998443
_cell_angle_gamma	94.507723
loop_
_atom_site_label
_atom_site_type_symbol
_atom_site_fract_x
_atom_site_fract_y
_atom_site_fract_z
O1	O	-0.293480	1.670939	-0.114305
O2	O	-0.321427	1.305757	-0.114301
O3	O	-0.003464	1.493531	-0.114304
O4	O	-0.611442	1.483164	-0.114302
O5	O	-0.003472	1.493529	0.114276
O6	O	-0.321435	1.305755	0.114279
O7	O	-0.293488	1.670937	0.114275
Zn8	Zn	-0.307462	1.488345	0.150569
Zn9	Zn	-0.307452	1.488348	-0.150595
O10	O	-0.611450	1.483162	0.114278
C11	C	-0.319377	1.258936	-0.000011
C12	C	-0.313231	1.119428	-0.000010
C13	C	-0.114464	0.934761	-0.000028
C14	C	-0.120237	1.065844	-0.000014
C15	C	-0.500465	1.041922	-0.000006
C16	C	-0.494690	0.910842	-0.000010
C17	C	0.105058	0.948573	-0.000040
C18	C	0.099285	1.079656	-0.000026
C19	C	0.074383	1.491481	-0.000019
C20	C	0.310709	1.485216	-0.000020
C21	C	-0.295538	1.717757	-0.000018
C22	C	-0.301683	1.857265	-0.000028
N23	N	-0.307468	1.488353	0.356105
N24	N	-0.307429	1.488351	-0.356131
C25	C	-0.166723	1.571522	0.428030
C26	C	-0.166697	1.571518	0.571913
C27	C	-0.448182	1.405173	0.571934
C28	C	-0.448195	1.405171	0.428053
C29	C	-0.004216	1.667564	0.428019
C30	C	-0.004190	1.667560	0.571902
H31	H	0.174964	0.912206	-0.098737
C32	C	-0.117984	1.872706	0.474935
C33	C	-0.072892	1.791385	0.367760
H34	H	-0.160372	1.949149	0.437730
H35	H	-0.227831	1.834210	0.529877
H36	H	0.003688	1.889925	0.529871
H37	H	-0.194569	1.774158	0.312830
H38	H	0.036963	1.829888	0.312796
C39	C	-0.808733	1.337103	0.383785
C40	C	-0.602899	1.313743	0.348995
H41	H	-0.904241	1.280659	0.334971
H42	H	-0.828843	1.325199	0.479761
H43	H	-0.832715	1.421290	0.360193
H44	H	-0.578912	1.229558	0.372596
H45	H	-0.582781	1.325636	0.252998
C46	C	0.253541	1.046485	0.220691
C47	C	0.188837	1.140331	0.133204
H48	H	0.308828	1.083948	0.302936
H49	H	0.137049	0.988966	0.242100
H50	H	0.358655	1.002910	0.176375
H51	H	0.083711	1.183900	0.177518
H52	H	0.305342	1.197872	0.111798
C53	C	0.284379	1.037228	-0.207510
C54	C	0.210912	1.134857	-0.129166
H55	H	0.353271	1.071308	-0.287238
H56	H	0.380175	0.993713	-0.154380
H57	H	0.169504	0.980462	-0.234061
H58	H	0.325790	1.191618	-0.102606
H59	H	0.115110	1.178393	-0.182306
H60	H	-0.562756	1.337448	0.630529
C61	C	0.344037	1.617348	0.487209
C62	C	0.212551	1.636310	0.375283
H63	H	0.477849	1.598045	0.454648
H64	H	0.358791	1.691644	0.541432
H65	H	0.284655	1.549477	0.541442
H66	H	0.271926	1.704187	0.321056
H67	H	0.197803	1.562005	0.321038
H68	H	-0.647142	0.847749	0.000007
H69	H	-0.657605	1.085561	0.000011
H70	H	-0.039989	1.764451	0.610952
H71	H	0.190912	0.918300	0.095614
H72	H	0.147561	1.635440	0.616517
