data_functionalizedCrystal
_audit_creation_method	'MofGen! by Chris Wilmer'
_symmetry_space_group_name_H-M	'P1'
_symmetry_Int_Tables_number	1
_symmetry_cell_setting	triclinic
loop_
_symmetry_equiv_pos_as_xyz
  x,y,z
_cell_length_a	16.176319
_cell_length_b	17.699097
_cell_length_c	17.699104
_cell_angle_alpha	96.710041
_cell_angle_beta	90.002028
_cell_angle_gamma	89.994463
loop_
_atom_site_label
_atom_site_type_symbol
_atom_site_fract_x
_atom_site_fract_y
_atom_site_fract_z
O1	O	0.068818	-1.004073	0.095761
O2	O	0.568818	-0.504073	0.595761
O3	O	0.068801	-0.783697	0.108203
O4	O	0.568801	-0.283697	0.608203
O5	O	0.068816	-0.900103	-0.008206
O6	O	0.568816	-0.400103	0.491794
O7	O	0.068803	-0.887667	0.212170
O8	O	0.568803	-0.387667	0.712170
O9	O	-0.068677	-0.900101	-0.008216
O10	O	0.431323	-0.400101	0.491784
O11	O	-0.068693	-0.783695	0.108193
O12	O	0.431307	-0.283695	0.608193
O13	O	-0.068675	-1.004071	0.095751
O14	O	0.431325	-0.504071	0.595751
Cu15	Cu	-0.081238	-0.893882	0.101971
Cu16	Cu	0.418762	-0.393882	0.601971
Cu17	Cu	0.081364	-0.893885	0.101983
Cu18	Cu	0.581364	-0.393885	0.601983
O19	O	-0.068691	-0.887665	0.212159
O20	O	0.431309	-0.387665	0.712159
C21	C	0.000052	-0.755499	0.107750
C22	C	0.500052	-0.255499	0.607750
C23	C	0.000046	-0.671481	0.106408
C24	C	0.500046	-0.171481	0.606408
N25	N	0.195729	-0.893887	0.101987
N26	N	0.695729	-0.393887	0.601987
C27	C	0.000073	-0.899653	-0.036408
C28	C	0.500073	-0.399653	0.463592
C29	C	0.000083	-0.898308	-0.120425
C30	C	0.500083	-0.398308	0.379575
N31	N	-0.195603	-0.893886	0.101961
N32	N	0.304397	-0.393886	0.601961
C33	C	0.239000	-0.945527	0.050542
C34	C	0.739000	-0.445527	0.550542
C35	C	0.325547	-0.945530	0.050540
C36	C	0.825547	-0.445530	0.550540
C37	C	0.368821	-0.893889	0.101980
C38	C	0.868821	-0.393889	0.601980
C39	C	0.325544	-0.842246	0.153430
C40	C	0.825544	-0.342246	0.653430
C41	C	0.238999	-0.842247	0.153435
C42	C	0.738999	-0.342247	0.653435
C43	C	0.674572	-0.842241	0.153413
C44	C	1.174572	-0.342241	0.653413
C45	C	0.761124	-0.842242	0.153403
C46	C	1.261124	-0.342242	0.653403
C47	C	0.761121	-0.945523	0.050518
C48	C	1.261121	-0.445523	0.550518
C49	C	0.674575	-0.945525	0.050523
C50	C	1.174575	-0.445525	0.550523
C51	C	0.631306	-0.893885	0.101975
C52	C	1.131306	-0.393885	0.601975
C53	C	0.537461	-0.893883	0.101978
C54	C	1.037461	-0.393883	0.601978
C55	C	0.462664	-0.893886	0.101975
C56	C	0.962664	-0.393886	0.601975
C57	C	0.075020	-0.155763	0.098184
C58	C	0.575020	0.344237	0.598184
C59	C	0.075017	-0.234708	0.099441
C60	C	0.575017	0.265292	0.599441
C61	C	0.000067	-0.274172	0.100064
C62	C	0.500067	0.225828	0.600064
C63	C	-0.074885	-0.234690	0.099424
C64	C	0.425115	0.265310	0.599424
C65	C	-0.074881	-0.155748	0.098162
C66	C	0.425119	0.344252	0.598162
C67	C	-0.074903	-0.553054	0.104511
C68	C	0.425097	-0.053054	0.604511
C69	C	-0.074902	-0.632002	0.105775
C70	C	0.425098	-0.132002	0.605775
C71	C	0.074995	-0.632014	0.105790
C72	C	0.574995	-0.132014	0.605790
C73	C	0.074999	-0.553072	0.104528
C74	C	0.574999	-0.053072	0.604528
C75	C	0.000048	-0.513597	0.103884
C76	C	0.500048	-0.013597	0.603884
C77	C	0.000052	-0.427997	0.102520
C78	C	0.500052	0.072003	0.602520
C79	C	0.000062	-0.359770	0.101433
C80	C	0.500062	0.140230	0.601433
C81	C	0.000072	-0.032268	0.096204
C82	C	0.500072	0.467732	0.596204
C83	C	0.000074	-0.116286	0.097546
C84	C	0.500074	0.383714	0.597546
C85	C	0.000055	-0.888114	0.240361
C86	C	0.500055	-0.388114	0.740361
C87	C	0.000050	-0.889459	0.324379
C88	C	0.500050	-0.389459	0.824379
C89	C	0.000077	-0.828715	0.849247
C90	C	0.500077	-0.328715	1.349247
C91	C	0.000068	-0.827456	0.770303
C92	C	0.500068	-0.327456	1.270303
C93	C	0.000071	-0.895791	0.721689
C94	C	0.500071	-0.395791	1.221689
C95	C	0.000074	-0.965389	0.752022
C96	C	0.500074	-0.465389	1.252022
C97	C	0.000077	-0.966648	0.830964
C98	C	0.500077	-0.466648	1.330964
C99	C	0.000062	-0.960316	0.433656
C100	C	0.500062	-0.460316	0.933656
C101	C	0.000062	-0.959053	0.354708
C102	C	0.500062	-0.459053	0.854708
C103	C	0.000053	-0.821125	0.372994
C104	C	0.500053	-0.321125	0.872994
C105	C	0.000056	-0.822383	0.451937
C106	C	0.500056	-0.322383	0.951937
C107	C	0.000055	-0.891981	0.482263
C108	C	0.500055	-0.391981	0.982263
C109	C	0.000063	-0.893345	0.567863
C110	C	0.500063	-0.393345	1.067863
C111	C	0.000069	-0.894427	0.636090
C112	C	0.500069	-0.394427	1.136090
H113	H	0.203771	-0.987576	0.008651
H114	H	0.703771	-0.487576	0.508651
H115	H	-0.135911	-0.266829	0.099927
H116	H	0.364089	0.233171	0.599927
H117	H	0.000058	-0.766738	0.491516
H118	H	0.500058	-0.266738	0.991516
C119	C	-0.157322	-0.112322	0.097464
C120	C	0.342678	0.387678	0.597464
H121	H	-0.201961	-0.147130	0.098023
H122	H	0.298039	0.352870	0.598023
H123	H	-0.160434	-0.087376	0.052854
H124	H	0.339566	0.412624	0.552854
H125	H	-0.160438	-0.075678	0.141096
H126	H	0.339562	0.424322	0.641096
H127	H	0.000079	-0.773069	0.888824
H128	H	0.500079	-0.273069	1.388824
C129	C	0.000061	-1.036868	0.467009
C130	C	0.500061	-0.536868	0.967009
H131	H	0.000051	-1.027836	0.520986
H132	H	0.500051	-0.527836	1.020986
H133	H	0.048008	-1.065004	0.450317
H134	H	0.548008	-0.565004	0.950317
H135	H	-0.047892	-1.064991	0.450310
H136	H	0.452108	-0.564991	0.950310
H137	H	0.136046	-0.266847	0.099956
H138	H	0.636046	0.233153	0.599956
C139	C	0.373142	-1.002330	-0.006053
C140	C	0.873142	-0.502330	0.493947
H141	H	0.334974	-1.033078	-0.036694
H142	H	0.834974	-0.533078	0.463306
H143	H	0.406910	-1.033730	0.021194
H144	H	0.906910	-0.533730	0.521194
H145	H	0.406895	-0.975220	-0.037586
H146	H	0.906895	-0.475220	0.462414
C147	C	0.808719	-1.002338	-0.006067
C148	C	1.308719	-0.502338	0.493933
H149	H	0.866461	-0.994952	0.001301
H150	H	1.366461	-0.494952	0.501301
H151	H	0.794533	-0.994313	-0.056598
H152	H	1.294533	-0.494313	0.443402
H153	H	0.794536	-1.052807	0.002199
H154	H	1.294536	-0.552807	0.502199
C155	C	0.157465	-0.112355	0.097500
C156	C	0.657465	0.387645	0.597500
H157	H	0.146736	-0.059684	0.096665
H158	H	0.646736	0.440316	0.596665
H159	H	0.188264	-0.131145	0.053592
H160	H	0.688264	0.368855	0.553592
H161	H	0.188254	-0.119448	0.141834
H162	H	0.688254	0.380552	0.641834
C163	C	0.000063	-1.034222	0.301230
C164	C	0.500063	-0.534222	0.801230
H165	H	0.000071	-1.023502	0.249872
H166	H	0.500071	-0.523502	0.749872
H167	H	-0.047883	-1.062765	0.310406
H168	H	0.452117	-0.562765	0.810406
H169	H	0.048017	-1.062767	0.310413
H170	H	0.548017	-0.562767	0.810413
H171	H	-0.135934	-0.520925	0.103975
H172	H	0.364066	-0.020925	0.603975
C173	C	0.000064	-0.750904	0.736945
C174	C	0.500064	-0.250904	1.236945
H175	H	0.000073	-0.710387	0.777204
H176	H	0.500073	-0.210387	1.277204
H177	H	-0.047885	-0.747541	0.706532
H178	H	0.452115	-0.247541	1.206532
H179	H	0.048015	-0.747549	0.706529
H180	H	0.548015	-0.247549	1.206529
C181	C	0.000043	-0.744567	0.339634
C182	C	0.500043	-0.244567	0.839634
H183	H	0.000033	-0.753601	0.285656
H184	H	0.500033	-0.253601	0.785656
H185	H	0.047989	-0.716439	0.356326
H186	H	0.547989	-0.216439	0.856326
H187	H	-0.047911	-0.716437	0.356330
H188	H	0.452089	-0.216437	0.856330
C189	C	0.157444	-0.509665	0.103839
C190	C	0.657444	-0.009665	0.603839
H191	H	0.202081	-0.544484	0.104392
H192	H	0.702081	-0.044484	0.604392
H193	H	0.160561	-0.473019	0.147464
H194	H	0.660561	0.026981	0.647464
H195	H	0.160560	-0.484723	0.059222
H196	H	0.660560	0.015277	0.559222
C197	C	0.000079	-1.040556	0.698549
C198	C	0.500079	-0.540556	1.198549
H199	H	0.000085	-1.029841	0.647189
H200	H	0.500085	-0.529841	1.147189
H201	H	-0.047865	-1.069100	0.707728
H202	H	0.452135	-0.569100	1.207728
H203	H	0.048035	-1.069097	0.707733
H204	H	0.548035	-0.569097	1.207733
H205	H	0.136025	-0.664164	0.106311
H206	H	0.636025	-0.164164	0.606311
C207	C	-0.157351	-0.675414	0.106445
C208	C	0.342649	-0.175414	0.606445
H209	H	-0.201989	-0.640600	0.105871
H210	H	0.298011	-0.140600	0.605871
H211	H	-0.160481	-0.700363	0.151053
H212	H	0.339519	-0.200363	0.651053
H213	H	-0.160449	-0.712056	0.062811
H214	H	0.339551	-0.212056	0.562811
C215	C	0.000085	-1.043200	0.864325
C216	C	0.500085	-0.543200	1.364325
H217	H	0.000094	-1.083718	0.824068
H218	H	0.500094	-0.583718	1.324068
H219	H	-0.047861	-1.046556	0.894741
H220	H	0.452139	-0.546556	1.394741
H221	H	0.048039	-1.046559	0.894741
H222	H	0.548039	-0.546559	1.394741
H223	H	0.796357	-0.800188	0.195294
H224	H	1.296357	-0.300188	0.695294
C225	C	0.626974	-1.002327	-0.006060
C226	C	1.126974	-0.502327	0.493940
H227	H	0.569233	-0.994927	0.001307
H228	H	1.069233	-0.494927	0.501307
H229	H	0.641163	-1.052796	0.002193
H230	H	1.141163	-0.552796	0.502193
H231	H	0.641150	-0.994291	-0.056593
H232	H	1.141150	-0.494291	0.443407
C233	C	0.626987	-0.785455	0.210023
C234	C	1.126987	-0.285455	0.710023
H235	H	0.665157	-0.754701	0.240656
H236	H	1.165157	-0.254701	0.740656
H237	H	0.593245	-0.812575	0.241551
H238	H	1.093245	-0.312575	0.741551
H239	H	0.593207	-0.754047	0.182788
H240	H	1.093207	-0.254047	0.682788
H241	H	0.203768	-0.800198	0.195327
H242	H	0.703768	-0.300198	0.695327
C243	C	0.373144	-0.785440	0.210011
C244	C	0.873144	-0.285440	0.710011
H245	H	0.430885	-0.792828	0.202635
H246	H	0.930885	-0.292828	0.702635
H247	H	0.358970	-0.793466	0.260543
H248	H	0.858970	-0.293466	0.760543
H249	H	0.358950	-0.734970	0.201748
H250	H	0.858950	-0.234970	0.701748
