data_functionalizedCrystal
_audit_creation_method	'MofGen! by Chris Wilmer'
_symmetry_space_group_name_H-M	'P1'
_symmetry_Int_Tables_number	1
_symmetry_cell_setting	triclinic
loop_
_symmetry_equiv_pos_as_xyz
  x,y,z
_cell_length_a	18.101398
_cell_length_b	12.759399
_cell_length_c	12.759393
_cell_angle_alpha	90.032031
_cell_angle_beta	89.973031
_cell_angle_gamma	89.989617
loop_
_atom_site_label
_atom_site_type_symbol
_atom_site_fract_x
_atom_site_fract_y
_atom_site_fract_z
Zn1	Zn	1.132223	0.418336	-0.594217
Zn2	Zn	1.465556	0.751670	-0.260884
Zn3	Zn	1.798889	1.085003	0.072450
Zn4	Zn	1.132147	0.594055	-0.418536
Zn5	Zn	1.465481	0.927389	-0.085202
Zn6	Zn	1.798814	1.260722	0.248131
Zn7	Zn	1.008376	0.418377	-0.418530
Zn8	Zn	1.341709	0.751710	-0.085197
Zn9	Zn	1.675043	1.085043	0.248136
Zn10	Zn	1.008367	0.593959	-0.594151
Zn11	Zn	1.341700	0.927293	-0.260818
Zn12	Zn	1.675034	1.260626	0.072515
O13	O	1.070278	0.506182	-0.506359
O14	O	1.403612	0.839515	-0.173025
O15	O	1.736945	1.172849	0.160308
O16	O	1.235846	0.441669	-0.570942
O17	O	1.569179	0.775003	-0.237609
O18	O	1.902512	1.108336	0.095724
O19	O	1.115701	0.570808	-0.271514
O20	O	1.449034	0.904142	0.061819
O21	O	1.782368	1.237475	0.395153
O22	O	1.024840	0.271350	-0.441861
O23	O	1.358173	0.604684	-0.108527
O24	O	1.691506	0.938017	0.224806
O25	O	1.235790	0.570769	-0.441870
O26	O	1.569124	0.904103	-0.108537
O27	O	1.902457	1.237436	0.224797
O28	O	1.115829	0.271321	-0.570937
O29	O	1.449163	0.604654	-0.237604
O30	O	1.782496	0.937987	0.095730
O31	O	1.024767	0.441738	-0.271510
O32	O	1.358100	0.775071	0.061823
O33	O	1.691433	1.108404	0.395157
O34	O	0.904742	0.441645	-0.441797
O35	O	1.238075	0.774978	-0.108464
O36	O	1.571408	1.108311	0.224870
O37	O	1.024824	0.570606	-0.741181
O38	O	1.358158	0.903939	-0.407848
O39	O	1.691491	1.237272	-0.074514
O40	O	0.904735	0.570645	-0.570825
O41	O	1.238069	0.903978	-0.237492
O42	O	1.571402	1.237311	0.095842
O43	O	1.115821	0.441576	-0.741229
O44	O	1.449154	0.774909	-0.407896
O45	O	1.782487	1.108243	-0.074563
O46	O	1.115692	0.741064	-0.441806
O47	O	1.449026	1.074397	-0.108473
O48	O	1.782359	1.407730	0.224860
O49	O	1.024751	0.740993	-0.570830
O50	O	1.358085	1.074326	-0.237497
O51	O	1.691418	1.407660	0.095836
C52	C	0.877868	0.506139	-0.506304
C53	C	1.211201	0.839473	-0.172970
C54	C	1.544534	1.172806	0.160363
C55	C	0.795554	0.506146	-0.506305
C56	C	1.128887	0.839480	-0.172972
C57	C	1.462220	1.172813	0.160361
C58	C	1.070233	0.779149	-0.506335
C59	C	1.403566	1.112483	-0.173001
C60	C	1.736899	1.445816	0.160332
C61	C	1.070281	0.895926	-0.506360
C62	C	1.403614	1.229259	-0.173026
C63	C	1.736948	1.562593	0.160307
C64	C	1.070330	0.506076	-0.780392
C65	C	1.403663	0.839409	-0.447059
C66	C	1.736997	1.172742	-0.113725
C67	C	1.070352	0.506030	-0.897169
C68	C	1.403685	0.839364	-0.563835
C69	C	1.737019	1.172697	-0.230502
C70	C	0.496463	0.506212	-0.506393
C71	C	0.829796	0.839545	-0.173060
C72	C	1.163129	1.172879	0.160273
C73	C	0.527767	0.424643	-0.425609
C74	C	0.861101	0.757976	-0.092275
C75	C	1.194434	1.091309	0.241058
C76	C	0.613385	0.424862	-0.425264
C77	C	0.946719	0.758195	-0.091931
C78	C	1.280052	1.091528	0.241403
C79	C	0.644845	0.506178	-0.506350
C80	C	0.978178	0.839512	-0.173016
C81	C	1.311512	1.172845	0.160317
C82	C	0.613748	0.616855	-0.476103
C83	C	0.947081	0.950188	-0.142770
C84	C	1.280414	1.283522	0.190564
C85	C	0.528103	0.616402	-0.475541
C86	C	0.861436	0.949735	-0.142208
C87	C	1.194769	1.283068	0.191125
C88	C	0.528075	0.478067	-0.617615
C89	C	0.861409	0.811400	-0.284282
C90	C	1.194742	1.144733	0.049052
C91	C	0.613726	0.475602	-0.617008
C92	C	0.947059	0.808936	-0.283675
C93	C	1.280392	1.142269	0.049659
C94	C	0.728705	0.506166	-0.506327
C95	C	1.062038	0.839500	-0.172993
C96	C	1.395371	1.172833	0.160340
C97	C	0.412603	0.506231	-0.506414
C98	C	0.745936	0.839565	-0.173081
C99	C	1.079270	1.172898	0.160253
C100	C	1.263440	0.506225	-0.506414
C101	C	1.596773	0.839559	-0.173081
C102	C	1.930107	1.172892	0.160252
C103	C	1.345754	0.506244	-0.506438
C104	C	1.679087	0.839577	-0.173105
C105	C	2.012421	1.172911	0.160229
C106	C	1.070344	0.232149	-0.506406
C107	C	1.403677	0.565482	-0.173072
C108	C	1.737011	0.898815	0.160261
C109	C	1.070372	0.115372	-0.506426
C110	C	1.403705	0.448705	-0.173092
C111	C	1.737039	0.782039	0.160241
C112	C	1.117688	0.950790	-0.439253
C113	C	1.451021	1.284123	-0.105920
C114	C	1.784355	1.617456	0.227413
C115	C	1.117736	1.060514	-0.439289
C116	C	1.451069	1.393847	-0.105955
C117	C	1.784402	1.727180	0.227378
C118	C	1.022963	1.060501	-0.573539
C119	C	1.356296	1.393834	-0.240206
C120	C	1.689630	1.727167	0.093127
C121	C	1.022920	0.950778	-0.573509
C122	C	1.356253	1.284112	-0.240175
C123	C	1.689586	1.617445	0.093158
C124	C	1.023019	0.438811	-0.952028
C125	C	1.356353	0.772144	-0.618695
C126	C	1.689686	1.105478	-0.285362
C127	C	1.023037	0.438779	-1.061752
C128	C	1.356370	0.772112	-0.728419
C129	C	1.689703	1.105445	-0.395086
C130	C	1.117725	0.573188	-1.061748
C131	C	1.451059	0.906521	-0.728415
C132	C	1.784392	1.239855	-0.395081
C133	C	1.117704	0.573225	-0.952026
C134	C	1.451037	0.906558	-0.618693
C135	C	1.784370	1.239891	-0.285359
C136	C	1.070269	0.506212	-0.233391
C137	C	1.403603	0.839545	0.099942
C138	C	1.736936	1.172879	0.433275
C139	C	1.070391	0.505961	-0.116615
C140	C	1.403724	0.839295	0.216718
C141	C	1.737057	1.172628	0.550052
H142	H	0.507181	0.342321	-0.444358
H143	H	0.840515	0.675655	-0.111025
H144	H	1.173848	1.008988	0.222308
N145	N	0.971987	0.366272	-1.120919
N146	N	1.305321	0.699606	-0.787586
N147	N	1.638654	1.032939	-0.454253
H148	H	0.979181	0.376446	-1.198753
H149	H	1.312515	0.709779	-0.865419
H150	H	1.645848	1.043112	-0.532086
H151	H	0.919090	0.382617	-1.101716
H152	H	1.252423	0.715951	-0.768383
H153	H	1.585757	1.049284	-0.435050
H154	H	0.506219	0.443040	-0.343674
H155	H	0.839552	0.776373	-0.010341
H156	H	1.172885	1.109707	0.322993
H157	H	1.156278	0.627894	-1.106426
H158	H	1.489611	0.961228	-0.773093
H159	H	1.822945	1.294561	-0.439759
N160	N	0.641243	0.316152	-0.450366
N161	N	0.974577	0.649485	-0.117033
N162	N	1.307910	0.982818	0.216300
H163	H	0.597887	0.267656	-0.461755
H164	H	0.931221	0.600990	-0.128422
H165	H	1.264554	0.934323	0.204911
H166	H	0.672134	0.289519	-0.390103
H167	H	1.005467	0.622852	-0.056769
H168	H	1.338801	0.956186	0.276564
N169	N	0.971872	1.119660	-0.645949
N170	N	1.305205	1.452994	-0.312615
N171	N	1.638538	1.786327	0.020718
H172	H	0.983336	1.100494	-0.721027
H173	H	1.316670	1.433828	-0.387694
H174	H	1.650003	1.767161	-0.054361
H175	H	0.979112	1.197476	-0.635695
H176	H	1.312445	1.530809	-0.302362
H177	H	1.645778	1.864142	0.030972
H178	H	0.635165	0.641136	-0.395673
H179	H	0.968498	0.974469	-0.062340
H180	H	1.301831	1.307802	0.270994
N181	N	1.168754	0.645735	-0.892847
N182	N	1.502087	0.979069	-0.559514
N183	N	1.835420	1.312402	-0.226181
H184	H	1.198757	0.688292	-0.944247
H185	H	1.532091	1.021625	-0.610914
H186	H	1.865424	1.354958	-0.277581
H187	H	1.203027	0.602995	-0.847339
H188	H	1.536360	0.936328	-0.514006
H189	H	1.869694	1.269662	-0.180672
N190	N	0.640659	0.367721	-0.647217
N191	N	0.973992	0.701054	-0.313884
N192	N	1.307325	1.034388	0.019449
H193	H	0.670223	0.372285	-0.714211
H194	H	1.003556	0.705618	-0.380877
H195	H	1.336889	1.038951	-0.047544
H196	H	0.596886	0.319884	-0.658150
H197	H	0.930219	0.653217	-0.324816
H198	H	1.263552	0.986551	0.008517
H199	H	0.507832	0.537478	-0.677807
H200	H	0.841166	0.870812	-0.344474
H201	H	1.174499	1.204145	-0.011141
N202	N	0.640489	0.449501	-0.316099
N203	N	0.973822	0.782834	0.017234
N204	N	1.307155	1.116168	0.350568
H205	H	0.596800	0.460270	-0.268016
H206	H	0.930133	0.793603	0.065317
H207	H	1.263467	1.126937	0.398651
H208	H	0.671373	0.515391	-0.317835
H209	H	1.004706	0.848725	0.015498
H210	H	1.338040	1.182058	0.348832
H211	H	0.984315	0.906105	-0.628160
H212	H	1.317648	1.239439	-0.294826
H213	H	1.650982	1.572772	0.038507
H214	H	0.508093	0.640269	-0.394233
H215	H	0.841426	0.973602	-0.060900
H216	H	1.174759	1.306936	0.272433
H217	H	1.156340	1.105179	-0.384645
H218	H	1.489674	1.438512	-0.051312
H219	H	1.823007	1.771846	0.282021
H220	H	0.984462	0.384097	-0.907367
H221	H	1.317796	0.717431	-0.574033
H222	H	1.651129	1.050764	-0.240700
H223	H	0.634126	0.679259	-0.533102
H224	H	0.967460	1.012592	-0.199768
H225	H	1.300793	1.345926	0.133565
N226	N	0.500656	0.699629	-0.550070
N227	N	0.833990	1.032963	-0.216737
N228	N	1.167323	1.366296	0.116596
H229	H	0.519340	0.684203	-0.623067
H230	H	0.852673	1.017536	-0.289734
H231	H	1.186007	1.350869	0.043599
H232	H	0.519389	0.770437	-0.526703
H233	H	0.852722	1.103770	-0.193370
H234	H	1.186055	1.437104	0.139963
N235	N	0.499507	0.373021	-0.654074
N236	N	0.832840	0.706354	-0.320740
N237	N	1.166174	1.039688	0.012593
H238	H	0.443811	0.375206	-0.658272
H239	H	0.777145	0.708540	-0.324939
H240	H	1.110478	1.041873	0.008394
H241	H	0.515135	0.316998	-0.602776
H242	H	0.848468	0.650332	-0.269443
H243	H	1.181801	0.983665	0.063891
N244	N	1.168779	0.891634	-0.366840
N245	N	1.502112	1.224967	-0.033507
N246	N	1.835446	1.558300	0.299826
H247	H	1.203062	0.846039	-0.409576
H248	H	1.536396	1.179372	-0.076242
H249	H	1.869729	1.512705	0.257091
H250	H	1.138635	0.846243	-0.318106
H251	H	1.471969	1.179576	0.015228
H252	H	1.805302	1.512910	0.348561
H253	H	0.635144	0.530682	-0.680424
H254	H	0.968477	0.864016	-0.347090
H255	H	1.301810	1.197349	-0.013757
