data_functionalizedCrystal
_audit_creation_method	'MofGen! by Chris Wilmer'
_symmetry_space_group_name_H-M	'P1'
_symmetry_Int_Tables_number	1
_symmetry_cell_setting	triclinic
loop_
_symmetry_equiv_pos_as_xyz
  x,y,z
_cell_length_a	6.817900
_cell_length_b	11.168121
_cell_length_c	10.773894
_cell_angle_alpha	95.440990
_cell_angle_beta	96.645922
_cell_angle_gamma	108.508496
loop_
_atom_site_label
_atom_site_type_symbol
_atom_site_fract_x
_atom_site_fract_y
_atom_site_fract_z
V1	V	-3.973864	-0.170064	-0.388954
O2	O	-3.936042	0.012947	-0.381539
O3	O	-3.951079	-0.341801	-0.386304
O4	O	-3.890835	-0.165353	-0.558586
O5	O	-3.996703	-0.164722	-0.208065
V6	V	-4.458661	-0.148422	-0.367317
O7	O	-4.232330	-0.217540	-0.436417
O8	O	-4.650392	-0.100947	-0.319855
O9	O	-4.258240	0.023315	-0.369967
O10	O	-4.613880	-0.331433	-0.374732
O11	O	-4.553219	-0.153764	-0.548206
O12	O	-4.318484	-0.153133	-0.197685
C13	C	-3.803431	-0.383733	-0.380171
C14	C	-3.865857	-0.524116	-0.379135
C15	C	-4.066459	-0.592744	-0.384590
C16	C	-4.130983	-0.737838	-0.383519
C17	C	-3.726583	-0.158654	-0.599932
C18	C	-3.740150	-0.155939	-0.738607
C19	C	-3.918927	-0.160645	-0.806469
C20	C	-3.932953	-0.157838	-0.949797
C21	C	-4.069231	0.065240	-0.376097
C22	C	-3.986042	0.205622	-0.377141
C23	C	-4.146079	-0.159836	-0.156333
C24	C	-4.111750	-0.162545	-0.017657
H25	H	-3.814188	-0.735390	-0.372467
C26	C	-3.677615	-0.255280	-0.996139
C27	C	-3.740316	-0.149591	-1.014585
H28	H	-3.558684	-0.250181	-1.036131
H29	H	-3.788673	-0.331249	-1.031455
H30	H	-3.642932	-0.256074	-0.908317
H31	H	-3.775014	-0.148802	-1.102408
H32	H	-3.629234	-0.073602	-0.979274
C33	C	-3.702554	-0.649537	-0.263085
C34	C	-3.698474	-0.589792	-0.371756
H35	H	-3.599204	-0.690072	-0.258528
H36	H	-3.836755	-0.711390	-0.266381
H37	H	-3.674435	-0.587659	-0.190646
H38	H	-3.726609	-0.651672	-0.444196
H39	H	-3.564242	-0.527933	-0.368471
C40	C	-4.367073	-0.065095	-0.971304
C41	C	-4.304379	-0.170788	-0.952862
H42	H	-4.485983	-0.070183	-0.931294
H43	H	-4.401772	-0.064303	-1.059113
H44	H	-4.255988	0.010880	-0.935992
H45	H	-4.415460	-0.246764	-0.988183
H46	H	-4.269689	-0.171593	-0.865036
C47	C	-3.484826	-0.253381	-0.784954
C48	C	-3.547526	-0.147691	-0.803400
H49	H	-3.365895	-0.248282	-0.824946
H50	H	-3.595884	-0.329350	-0.820269
H51	H	-3.450142	-0.254175	-0.697131
H52	H	-3.582225	-0.146903	-0.891222
H53	H	-3.436444	-0.071703	-0.768089
C54	C	-4.192335	-0.435876	-0.285156
C55	C	-4.233832	-0.527061	-0.391958
H56	H	-4.295678	-0.395334	-0.289703
H57	H	-4.058135	-0.374031	-0.281886
H58	H	-4.195087	-0.476430	-0.211447
H59	H	-4.231066	-0.486505	-0.465668
H60	H	-4.368068	-0.588916	-0.395241
C61	C	-4.388948	-0.877977	-0.281895
C62	C	-4.362981	-0.817466	-0.389816
H63	H	-4.532179	-0.927142	-0.285787
H64	H	-4.345926	-0.815588	-0.208953
H65	H	-4.306373	-0.932255	-0.277768
H66	H	-4.445545	-0.763180	-0.393938
H67	H	-4.406029	-0.879863	-0.462777
H68	H	-4.061596	-0.166743	-0.758458
