data_functionalizedCrystal
_audit_creation_method	'MofGen! by Chris Wilmer'
_symmetry_space_group_name_H-M	'P1'
_symmetry_Int_Tables_number	1
_symmetry_cell_setting	triclinic
loop_
_symmetry_equiv_pos_as_xyz
  x,y,z
_cell_length_a	14.395555
_cell_length_b	31.640172
_cell_length_c	14.395555
_cell_angle_alpha	90.001724
_cell_angle_beta	59.993552
_cell_angle_gamma	59.998781
loop_
_atom_site_label
_atom_site_type_symbol
_atom_site_fract_x
_atom_site_fract_y
_atom_site_fract_z
Zr1	Zr	1.016738	0.407177	-0.121868
O2	O	1.210570	0.339687	-0.270233
O3	O	0.822925	0.427867	-0.076376
O4	O	1.016739	0.427867	-0.270192
O5	O	1.016748	0.339686	0.076458
O6	O	1.016720	0.497424	-0.270172
O7	O	1.016755	0.339687	-0.076416
O8	O	0.670021	0.497424	0.076531
O9	O	1.363447	0.339686	-0.270245
O10	O	0.902622	0.488600	-0.056971
O11	O	0.902631	0.436689	0.057102
O12	O	1.130823	0.436689	-0.171092
O13	O	1.130832	0.384779	-0.057019
Zr14	Zr	1.016697	0.518110	0.121981
Zr15	Zr	1.016708	0.518112	-0.121835
Zr16	Zr	1.016727	0.407175	0.121949
Zr17	Zr	1.260560	0.407175	-0.121887
Zr18	Zr	0.772874	0.518112	0.122000
O19	O	1.210510	0.497420	0.076489
O20	O	1.210526	0.497423	-0.270187
O21	O	1.210554	0.339684	0.076443
O22	O	0.822865	0.585600	0.270346
O23	O	0.822881	0.585603	-0.076329
O24	O	0.822909	0.427864	0.270300
O25	O	1.016687	0.585602	-0.076344
O26	O	1.016696	0.497420	0.270306
O27	O	1.016715	0.427863	0.270285
O28	O	1.016680	0.585600	0.076530
O29	O	1.363423	0.427865	-0.270219
O30	O	0.670012	0.497422	0.270332
O31	O	0.669988	0.585601	0.270358
O32	O	0.669996	0.585602	0.076557
O33	O	1.363439	0.339685	-0.076443
O34	O	1.363414	0.427864	-0.076417
O35	O	0.902612	0.488598	0.171205
O36	O	0.902602	0.540508	0.057132
O37	O	1.130804	0.488598	-0.056989
O38	O	1.130813	0.436688	0.057084
C39	C	0.711733	0.462645	0.000080
C40	C	0.608224	0.462646	0.000088
C41	C	0.485758	0.434335	0.062247
C42	C	0.471463	0.483146	0.107383
C43	C	0.623857	0.413844	-0.044995
C44	C	0.409490	0.511481	0.045223
C45	C	0.561948	0.442144	-0.107214
C46	C	0.547607	0.490984	-0.062106
C47	C	1.016756	0.323880	0.000016
C48	C	1.016769	0.276785	0.000002
C49	C	0.897586	0.011876	0.059650
C50	C	0.897564	-0.165109	0.059672
O51	O	0.796257	-0.164951	0.110376
N52	N	1.016681	-0.214336	0.000101
C53	C	1.135813	-0.219315	-0.059475
O54	O	1.237130	-0.265246	-0.110134
C55	C	1.135835	-0.042330	-0.059490
C56	C	1.016709	0.006896	0.000076
C57	C	0.778471	0.061099	0.119212
C58	C	0.778477	0.105343	0.119201
C59	C	0.897600	0.100362	0.059627
C60	C	1.016716	0.051139	0.000065
C61	C	1.254965	-0.047310	-0.119058
C62	C	1.254960	-0.003059	-0.119054
C63	C	1.135835	0.046167	-0.059488
C64	C	1.135846	0.090402	-0.059520
N65	N	1.016728	0.139628	0.000052
C66	C	0.897605	0.144608	0.059625
C67	C	1.135794	-0.312232	-0.059464
C68	C	1.135789	-0.356478	-0.059462
C69	C	0.897538	-0.302270	0.059687
C70	C	0.897545	-0.258023	0.059677
C71	C	1.016676	-0.263006	0.000107
C72	C	0.897629	0.237521	0.059596
C73	C	0.897646	0.281765	0.059576
C74	C	1.135896	0.227553	-0.059568
C75	C	1.135879	0.183312	-0.059553
C76	C	1.016735	0.188299	0.000038
O77	O	1.237099	0.090283	-0.110186
O78	O	0.796304	0.190544	0.110297
C79	C	0.897580	-0.032368	0.059661
C80	C	1.016695	-0.081591	0.000099
C81	C	1.135818	-0.086571	-0.059475
C82	C	1.016690	-0.125837	0.000101
C83	C	0.897568	-0.120857	0.059674
C84	C	0.778450	-0.071631	0.119246
C85	C	0.778457	-0.027387	0.119235
C86	C	1.254936	-0.135798	-0.119046
C87	C	1.254919	-0.180039	-0.119031
C88	C	1.135797	-0.175059	-0.059458
C89	C	1.321702	0.462642	0.000033
C90	C	1.425211	0.462641	0.000025
C91	C	1.016731	0.462646	-0.304921
C92	C	1.016736	0.462647	-0.408427
C93	C	1.016679	0.601407	0.000097
C94	C	1.016666	0.648502	0.000111
C95	C	1.141161	0.434338	-0.531240
C96	C	1.078951	0.483145	-0.562060
C97	C	1.078941	0.413842	-0.562030
C98	C	0.954525	0.511483	-0.437884
C99	C	0.954533	0.442145	-0.437857
C100	C	0.892232	0.490982	-0.468604
C101	C	1.016704	0.462641	0.305034
C102	C	1.016699	0.462640	0.408541
C103	C	0.711695	0.601409	0.000121
C104	C	0.608173	0.648504	0.000143
C105	C	0.711719	0.462643	0.305058
C106	C	0.608206	0.462643	0.408572
C107	C	0.711681	0.601406	0.305098
C108	C	0.608154	0.648501	0.408627
C109	C	1.321754	0.323881	-0.304985
C110	C	1.425281	0.276786	-0.408513
C111	C	1.321740	0.323878	-0.000008
C112	C	1.425262	0.276783	-0.000029
C113	C	1.321716	0.462644	-0.304944
C114	C	1.425229	0.462644	-0.408459
C115	C	0.559568	0.643525	-0.059418
C116	C	0.462312	0.687772	-0.059420
C117	C	0.413655	0.736998	0.000146
C118	C	0.462270	0.741976	0.059708
C119	C	0.559531	0.697730	0.059703
C120	C	0.559532	0.697719	0.397700
C121	C	0.462272	0.741974	0.494966
C122	C	0.413628	0.737010	0.603159
C123	C	0.462260	0.687787	0.614083
C124	C	0.559525	0.643533	0.516818
C125	C	1.473914	0.227568	-0.397586
C126	C	1.571205	0.183314	-0.494853
C127	C	1.619854	0.188278	-0.603045
C128	C	1.571216	0.237500	-0.613970
C129	C	1.473934	0.281754	-0.516704
C130	C	1.473877	0.281762	0.059521
C131	C	1.571160	0.237515	0.059497
C132	C	1.619820	0.188289	-0.000073
C133	C	1.571201	0.183311	-0.059631
C134	C	1.473926	0.227557	-0.059612
C135	C	0.547626	0.434339	0.406954
C136	C	0.409500	0.483151	0.500001
C137	C	0.561859	0.413847	0.499976
C138	C	0.471380	0.511484	0.500256
C139	C	0.623814	0.442145	0.500217
C140	C	0.485697	0.490986	0.593281
H141	H	0.317909	0.552769	0.083433
H142	H	0.422686	0.782049	0.486051
H143	H	0.599046	0.372580	0.500877
H144	H	0.715478	0.372575	-0.083098
Cl145	Cl	1.632325	0.121440	-0.481093
Cl146	Cl	0.443680	0.397435	0.143536
H147	H	1.434266	0.321840	0.108037
H148	H	1.699067	0.152239	-0.682236
Cl149	Cl	0.620613	0.703998	0.134597
Cl150	Cl	0.291379	0.792618	0.000143
Cl151	Cl	0.620721	0.581647	-0.134316
H152	H	0.599168	0.424791	-0.197914
Cl153	Cl	1.412776	0.221314	-0.261585
H154	H	1.699028	0.152265	-0.000078
H155	H	0.715478	0.424788	0.499219
H156	H	1.610838	0.241536	-0.702072
H157	H	1.434347	0.223496	-0.108102
H158	H	1.434337	0.321828	-0.525615
Cl159	Cl	0.413647	0.575230	0.499012
Cl160	Cl	0.589467	0.397440	0.283794
Cl161	Cl	0.747785	-0.296017	0.134580
H162	H	1.232793	-0.396557	-0.107982
Cl163	Cl	1.632255	0.243785	0.134381
H164	H	1.131531	0.500484	-0.615584
H165	H	0.800610	0.241589	0.108121
Cl166	Cl	1.285642	0.221302	-0.134437
H167	H	0.422639	0.782062	0.108204
H168	H	1.610835	0.143225	-0.108130
H169	H	0.574570	0.514957	-0.114685
Cl170	Cl	0.443950	0.527994	0.716242
Cl171	Cl	0.401211	0.681502	-0.134299
Cl172	Cl	0.620673	0.703973	0.261698
H173	H	1.246374	0.410440	-0.556698
H174	H	0.800636	0.321847	0.108085
Cl175	Cl	0.268025	0.509927	0.501460
Cl176	Cl	0.401092	0.681555	0.750106
Cl177	Cl	0.413981	0.509919	0.247443
Cl178	Cl	0.729660	0.527988	-0.428971
Cl179	Cl	0.628711	0.167222	0.194098
Cl180	Cl	0.291347	0.792649	0.725426
Cl181	Cl	0.873385	0.575232	-0.355491
H182	H	0.681461	0.065163	0.167730
H183	H	0.800542	-0.217944	0.108191
H184	H	1.232810	-0.316298	-0.107981
H185	H	1.351970	-0.087385	-0.167562
Cl186	Cl	1.404735	-0.009328	-0.193945
H187	H	1.232881	0.143229	-0.108071
Cl188	Cl	0.628697	-0.065379	0.194134
Cl189	Cl	1.404693	-0.241921	-0.193925
Cl190	Cl	0.628690	0.034492	0.194124
H191	H	1.351942	-0.139861	-0.167561
Cl192	Cl	1.160178	0.350124	-0.644657
Cl193	Cl	0.873427	0.415354	-0.355225
H194	H	0.599101	0.603459	0.525731
