data_functionalizedCrystal
_audit_creation_method	'MofGen! by Chris Wilmer'
_symmetry_space_group_name_H-M	'P1'
_symmetry_Int_Tables_number	1
_symmetry_cell_setting	triclinic
loop_
_symmetry_equiv_pos_as_xyz
  x,y,z
_cell_length_a	19.805407
_cell_length_b	19.121063
_cell_length_c	19.805399
_cell_angle_alpha	92.411105
_cell_angle_beta	89.980427
_cell_angle_gamma	92.469032
loop_
_atom_site_label
_atom_site_type_symbol
_atom_site_fract_x
_atom_site_fract_y
_atom_site_fract_z
Zn1	Zn	1.023234	-0.279631	-0.394203
Zn2	Zn	1.523234	0.220369	0.105797
Zn3	Zn	1.018317	-0.397083	-0.285838
Zn4	Zn	1.518317	0.102917	0.214162
Zn5	Zn	0.910048	-0.279650	-0.281028
Zn6	Zn	1.410048	0.220350	0.218972
Zn7	Zn	0.905182	-0.397046	-0.398983
Zn8	Zn	1.405182	0.102954	0.101017
O9	O	0.964195	-0.338352	-0.340013
O10	O	1.464195	0.161648	0.159987
O11	O	1.117298	-0.295218	-0.379840
O12	O	1.617298	0.204782	0.120160
O13	O	1.003934	-0.381529	-0.190484
O14	O	1.503934	0.118471	0.309516
O15	O	0.929156	-0.181363	-0.292028
O16	O	1.429156	0.318637	0.207972
O17	O	1.113686	-0.381510	-0.300225
O18	O	1.613686	0.118490	0.199775
O19	O	1.012313	-0.181348	-0.375177
O20	O	1.512313	0.318652	0.124823
O21	O	0.924388	-0.295251	-0.186951
O22	O	1.424388	0.204749	0.313049
O23	O	0.814686	-0.295215	-0.296663
O24	O	1.314686	0.204785	0.203337
O25	O	0.920863	-0.381447	-0.493065
O26	O	1.420863	0.118553	0.006935
O27	O	0.811111	-0.381465	-0.383324
O28	O	1.311111	0.118535	0.116676
O29	O	1.007595	-0.295182	-0.489553
O30	O	1.507595	0.204818	0.010447
O31	O	0.999216	-0.495363	-0.304860
O32	O	1.499216	0.004637	0.195140
O33	O	0.916096	-0.495335	-0.387987
O34	O	1.416096	0.004665	0.112013
C35	C	0.788340	-0.338339	-0.339991
C36	C	1.288340	0.161661	0.160009
C37	C	0.713107	-0.338350	-0.339998
C38	C	1.213107	0.161650	0.160002
C39	C	0.956613	-0.520833	-0.347479
C40	C	1.456613	-0.020833	0.152521
C41	C	0.953431	-0.598899	-0.350696
C42	C	1.453431	-0.098899	0.149304
C43	C	0.675917	-0.383328	-0.385055
C44	C	1.175917	0.116672	0.114945
C45	C	0.605228	-0.383329	-0.385064
C46	C	1.105228	0.116671	0.114936
C47	C	0.571732	-0.338356	-0.340013
C48	C	1.071732	0.161644	0.159987
C49	C	0.608927	-0.293373	-0.294954
C50	C	1.108927	0.206627	0.205046
C51	C	0.679614	-0.293368	-0.294948
C52	C	1.179614	0.206632	0.205052
C53	C	0.323853	-0.293388	-0.294977
C54	C	0.823853	0.206612	0.205023
C55	C	0.253161	-0.293397	-0.294985
C56	C	0.753161	0.206603	0.205015
C57	C	0.249467	-0.383349	-0.385093
C58	C	0.749467	0.116651	0.114907
C59	C	0.320154	-0.383345	-0.385087
C60	C	0.820154	0.116655	0.114913
C61	C	0.357344	-0.338360	-0.340031
C62	C	0.857344	0.161640	0.159969
C63	C	0.433992	-0.338358	-0.340022
C64	C	0.933992	0.161642	0.159978
C65	C	0.495084	-0.338360	-0.340018
C66	C	0.995084	0.161640	0.159982
C67	C	0.995246	-0.635566	-0.308963
C68	C	1.495246	-0.135566	0.191037
C69	C	0.992258	-0.708917	-0.311992
C70	C	1.492258	-0.208917	0.188008
C71	C	0.947451	-0.745601	-0.356752
C72	C	1.447451	-0.245601	0.143248
C73	C	0.905634	-0.708929	-0.398489
C74	C	1.405634	-0.208929	0.101511
C75	C	0.908626	-0.635579	-0.395463
C76	C	1.408626	-0.135579	0.104537
C77	C	0.936252	-0.967071	-0.368056
C78	C	1.436252	-0.467071	0.131944
C79	C	0.933262	-1.040426	-0.371078
C80	C	1.433262	-0.540426	0.128922
C81	C	1.019887	-1.040409	-0.284581
C82	C	1.519887	-0.540409	0.215419
C83	C	1.022872	-0.967058	-0.281556
C84	C	1.522872	-0.467058	0.218444
C85	C	0.981058	-0.930393	-0.323296
C86	C	1.481058	-0.430393	0.176704
C87	C	0.944394	-0.820578	-0.359848
C88	C	1.444394	-0.320578	0.140152
C89	C	0.984119	-0.855417	-0.320203
C90	C	1.484119	-0.355417	0.179797
C91	C	1.140737	-0.338366	-0.340036
C92	C	1.640737	0.161634	0.159964
C93	C	1.215969	-0.338372	-0.340046
C94	C	1.715969	0.161628	0.159954
C95	C	0.964235	-0.338308	-0.516554
C96	C	1.464235	0.161692	-0.016554
C97	C	0.964252	-0.338289	-0.591785
C98	C	1.464252	0.161711	-0.091785
C99	C	0.971825	-0.155159	-0.332532
C100	C	1.471825	0.344841	0.167468
C101	C	0.975077	-0.077093	-0.329345
C102	C	1.475077	0.422907	0.170655
C103	C	1.009414	-0.293369	-0.625302
C104	C	1.509414	0.206631	-0.125302
C105	C	1.009422	-0.293349	-0.695989
C106	C	1.509422	0.206651	-0.195989
C107	C	0.964270	-0.338253	-0.733159
C108	C	1.464270	0.161747	-0.233159
C109	C	0.919103	-0.383175	-0.699638
C110	C	1.419103	0.116825	-0.199638
C111	C	0.919093	-0.383191	-0.628952
C112	C	1.419093	0.116809	-0.128952
C113	C	0.919144	-0.383109	-0.984709
C114	C	1.419144	0.116891	-0.484709
C115	C	0.919159	-0.383091	-1.055400
C116	C	1.419159	0.116909	-0.555400
C117	C	1.009474	-0.293267	-1.051747
C118	C	1.509474	0.206733	-0.551747
C119	C	1.009463	-0.293283	-0.981060
C120	C	1.509463	0.206717	-0.481060
C121	C	0.964294	-0.338202	-0.947545
C122	C	1.464294	0.161798	-0.447545
C123	C	0.964285	-0.338223	-0.870897
C124	C	1.464285	0.161777	-0.370897
C125	C	0.964282	-0.338236	-0.809806
C126	C	1.464282	0.161764	-0.309806
C127	C	0.964197	-0.338346	-0.164157
C128	C	1.464197	0.161654	0.335843
C129	C	0.964319	-0.338167	-0.088918
C130	C	1.464319	0.161833	0.411082
H131	H	0.574951	-0.419956	-0.421754
H132	H	1.074951	0.080044	0.078246
O133	O	1.060485	-1.076135	-0.244115
O134	O	1.560485	-0.576135	0.255885
C135	C	1.048229	-1.148742	-0.256371
C136	C	1.548229	-0.648742	0.243629
H137	H	1.025615	-1.158742	-0.308994
H138	H	1.525615	-0.658742	0.191006
H139	H	1.097799	-1.176575	-0.252985
H140	H	1.597799	-0.676575	0.247015
H141	H	1.011366	-1.169620	-0.217046
H142	H	1.511366	-0.669620	0.282954
O143	O	1.053267	-0.249615	-0.728464
O144	O	1.553267	0.250385	-0.228464
C145	C	1.041378	-0.179618	-0.708334
C146	C	1.541378	0.320382	-0.208334
H147	H	1.015408	-0.178179	-0.656948
H148	H	1.515408	0.321821	-0.156948
H149	H	1.091539	-0.148131	-0.704632
H150	H	1.591539	0.351869	-0.204632
H151	H	1.007575	-0.155942	-0.747143
H152	H	1.507575	0.344058	-0.247143
H153	H	0.874577	-0.605726	-0.429447
H154	H	1.374577	-0.105726	0.070553
H155	H	1.031730	-0.605703	-0.272512
H156	H	1.531730	-0.105703	0.227488
H157	H	0.347424	-0.419970	-0.421771
H158	H	0.847424	0.080030	0.078229
H159	H	1.046232	-0.256720	-0.950800
H160	H	1.546232	0.243280	-0.450800
H161	H	0.225890	-0.256770	-0.258298
H162	H	0.725890	0.243230	0.241702
H163	H	0.219179	-0.419976	-0.421783
H164	H	0.719179	0.080024	0.078217
O165	O	1.027547	-0.819754	-0.276651
O166	O	1.527547	-0.319754	0.223349
C167	C	0.990759	-0.777375	-0.231169
C168	C	1.490759	-0.277375	0.268831
H169	H	0.936551	-0.799533	-0.227855
H170	H	1.436551	-0.299533	0.272145
H171	H	1.015299	-0.776551	-0.179067
H172	H	1.515299	-0.276551	0.320933
H173	H	0.990680	-0.721774	-0.249806
H174	H	1.490680	-0.221774	0.250194
H175	H	0.896783	-1.070292	-0.407538
H176	H	1.396783	-0.570292	0.092462
O177	O	0.895558	-0.931569	-0.408616
O178	O	1.395558	-0.431569	0.091384
C179	C	0.855377	-0.979679	-0.448775
C180	C	1.355377	-0.479679	0.051225
H181	H	0.850926	-1.031987	-0.423207
H182	H	1.350926	-0.531987	0.076793
H183	H	0.802903	-0.958531	-0.455063
H184	H	1.302903	-0.458531	0.044937
H185	H	0.879808	-0.987420	-0.500528
H186	H	1.379808	-0.487420	-0.000528
H187	H	0.869154	-0.738803	-0.434936
H188	H	1.369154	-0.238803	0.065064
O189	O	0.359869	-0.249669	-0.251147
O190	O	0.859869	0.250331	0.248853
C191	C	0.315144	-0.209964	-0.211398
C192	C	0.815144	0.290036	0.288602
H193	H	0.263564	-0.238739	-0.210187
H194	H	0.763564	0.261261	0.289813
H195	H	0.335860	-0.202390	-0.157771
H196	H	0.835860	0.297610	0.342229
H197	H	0.309843	-0.156660	-0.234093
H198	H	0.809843	0.343340	0.265907
H199	H	0.581649	-0.256751	-0.258275
H200	H	1.081649	0.243249	0.241725
H201	H	1.046250	-0.256689	-1.079043
H202	H	1.546250	0.243311	-0.579043
O203	O	0.715815	-0.249777	-0.251149
O204	O	1.215815	0.250223	0.248851
C205	C	0.755016	-0.289703	-0.208990
C206	C	1.255016	0.210297	0.291010
H207	H	0.763402	-0.342962	-0.234956
H208	H	1.263402	0.157038	0.265044
H209	H	0.805909	-0.261080	-0.198792
H210	H	1.305909	0.238920	0.301208
H211	H	0.727437	-0.297352	-0.159132
H212	H	1.227437	0.202648	0.340868
H213	H	0.907910	-0.850454	-0.396289
H214	H	1.407910	-0.350454	0.103711
O215	O	1.032901	-0.744426	-0.271382
O216	O	1.532901	-0.244426	0.228618
C217	C	1.073099	-0.696320	-0.231237
C218	C	1.573099	-0.196320	0.268763
H219	H	1.047506	-0.644060	-0.226713
H220	H	1.547506	-0.144060	0.273287
H221	H	1.079482	-0.717545	-0.178790
H222	H	1.579482	-0.217545	0.321210
H223	H	1.124812	-0.688456	-0.255743
H224	H	1.624812	-0.188456	0.244257
H225	H	1.046184	-0.256805	-0.595043
H226	H	1.546184	0.243195	-0.095043
O227	O	0.875228	-0.426732	-1.091405
O228	O	1.375228	0.073268	-0.591405
C229	C	0.835368	-0.466394	-1.046667
C230	C	1.335368	0.033606	-0.546667
H231	H	0.834213	-0.437639	-0.995104
H232	H	1.334213	0.062361	-0.495104
H233	H	0.781732	-0.473871	-1.067390
H234	H	1.281732	0.026129	-0.567390
H235	H	0.857925	-0.519743	-1.041331
H236	H	1.357925	-0.019743	-0.541331
H237	H	1.059358	-0.937192	-0.245110
H238	H	1.559358	-0.437192	0.254890
H239	H	0.882374	-0.419695	-0.957430
H240	H	1.382374	0.080305	-0.457430
H241	H	0.882337	-0.419734	-0.729907
H242	H	1.382337	0.080266	-0.229907
O243	O	0.875319	-0.426863	-0.596314
O244	O	1.375319	0.073137	-0.096314
C245	C	0.911963	-0.472246	-0.557299
C246	C	1.411963	0.027754	-0.057299
H247	H	0.964288	-0.447480	-0.545714
H248	H	1.464288	0.052520	-0.045714
H249	H	0.883999	-0.481664	-0.507967
H250	H	1.383999	0.018336	-0.007967
H251	H	0.917235	-0.524291	-0.586664
H252	H	1.417235	-0.024291	-0.086664
H253	H	0.703185	-0.419953	-0.421739
H254	H	1.203185	0.080047	0.078261
