data_functionalizedCrystal
_audit_creation_method	'MofGen! by Chris Wilmer'
_symmetry_space_group_name_H-M	'P1'
_symmetry_Int_Tables_number	1
_symmetry_cell_setting	triclinic
loop_
_symmetry_equiv_pos_as_xyz
  x,y,z
_cell_length_a	19.288864
_cell_length_b	16.109301
_cell_length_c	17.766277
_cell_angle_alpha	89.993626
_cell_angle_beta	89.976791
_cell_angle_gamma	83.298915
loop_
_atom_site_label
_atom_site_type_symbol
_atom_site_fract_x
_atom_site_fract_y
_atom_site_fract_z
O1	O	0.921601	0.103716	-0.062836
O2	O	0.719374	0.117707	-0.062784
O3	O	0.826042	-0.010338	-0.062806
O4	O	0.814932	0.231761	-0.062814
O5	O	0.826024	-0.010345	0.062382
O6	O	0.719355	0.117701	0.062404
O7	O	0.921582	0.103709	0.062353
Cu8	Cu	0.820467	0.110704	0.073809
Cu9	Cu	0.820489	0.110712	-0.074241
O10	O	0.814913	0.231755	0.062375
C11	C	0.693487	0.117254	-0.000183
C12	C	0.616380	0.115902	-0.000164
C13	C	0.571863	0.191034	-0.000178
C14	C	0.499413	0.189764	-0.000186
C15	C	0.471483	0.113359	-0.000195
C16	C	0.516010	0.038218	-0.000177
C17	C	0.588458	0.039489	-0.000161
C18	C	0.363084	0.053298	-0.044078
C19	C	0.290636	0.052029	-0.044098
C20	C	0.248028	0.109433	-0.000241
C21	C	0.277874	0.168120	0.043628
C22	C	0.350323	0.169391	0.043644
C23	C	0.392926	0.111971	-0.000212
C24	C	0.124952	0.183193	-0.000263
C25	C	0.052501	0.181920	-0.000266
C26	C	0.069099	0.030372	-0.000265
C27	C	0.141548	0.031647	-0.000254
C28	C	0.169470	0.108060	-0.000256
C29	C	0.825583	-0.041315	-0.000212
C30	C	0.824234	-0.133606	-0.000213
C31	C	0.883118	-0.442805	-0.000241
C32	C	0.884392	-0.356090	-0.000237
C33	C	0.757833	-0.335783	-0.000195
C34	C	0.756559	-0.422498	-0.000193
C35	C	0.819204	-0.476007	-0.000220
C36	C	0.821752	-0.302577	-0.000218
C37	C	0.823133	-0.208555	-0.000213
C38	C	0.817823	-0.570034	-0.000223
C39	C	0.947469	0.104163	-0.000250
C40	C	1.024576	0.105514	-0.000274
C41	C	0.815373	0.262732	-0.000221
C42	C	0.816722	0.355022	-0.000225
N43	N	0.820456	0.110699	0.177940
N44	N	0.820505	0.110711	-0.178371
C45	C	0.867704	0.054028	0.217317
C46	C	0.867708	0.054024	0.296119
C47	C	0.820471	0.110705	0.335540
C48	C	0.773214	0.167380	0.296154
C49	C	0.773206	0.167377	0.217353
C50	C	0.811353	0.186459	0.460377
C51	C	0.811365	0.186463	0.539176
C52	C	0.820489	0.110715	0.578587
C53	C	0.829616	0.034960	0.539188
C54	C	0.829609	0.034956	0.460388
C55	C	0.820473	0.110715	0.420986
C56	C	0.867745	0.054035	0.703410
C57	C	0.867744	0.054030	0.782213
C58	C	0.773252	0.167394	0.782246
C59	C	0.773250	0.167392	0.703445
C60	C	0.820500	0.110713	0.664031
H61	H	0.374621	0.217173	0.079365
Cl62	Cl	0.964745	-0.314355	-0.000266
Cl63	Cl	0.644425	-0.054970	-0.000144
H64	H	0.906185	0.007874	0.328185
Cl65	Cl	0.961870	-0.510071	-0.000271
Cl66	Cl	0.679084	-0.268510	-0.000167
H67	H	0.704510	-0.449530	-0.000173
Cl68	Cl	0.841074	-0.060274	0.410861
H69	H	0.397771	0.006551	-0.079797
H70	H	0.803938	0.248147	0.571248
Cl71	Cl	0.927099	-0.017228	0.167769
H72	H	0.046359	-0.031839	-0.000319
H73	H	0.493264	-0.023992	-0.000195
H74	H	0.837046	-0.026722	0.571274
Cl75	Cl	0.799946	0.281696	0.410841
Cl76	Cl	0.927140	-0.017221	0.653860
H77	H	0.906217	0.007878	0.814274
H78	H	0.734788	0.213542	0.814343
H79	H	0.734779	0.213542	0.671382
Cl80	Cl	0.713826	0.238634	0.345710
Cl81	Cl	0.160057	0.279253	-0.000258
H82	H	0.243183	0.214863	0.079341
Cl83	Cl	0.713804	0.238627	0.167847
Cl84	Cl	0.606961	0.287095	-0.000177
H85	H	0.016255	0.243104	-0.000273
Cl86	Cl	0.197516	-0.062810	-0.000241
Cl87	Cl	0.443438	0.284222	-0.000202
H88	H	0.266341	0.004247	-0.079822
