data_functionalizedCrystal
_audit_creation_method	'MofGen! by Chris Wilmer'
_symmetry_space_group_name_H-M	'P1'
_symmetry_Int_Tables_number	1
_symmetry_cell_setting	triclinic
loop_
_symmetry_equiv_pos_as_xyz
  x,y,z
_cell_length_a	16.992694
_cell_length_b	14.519731
_cell_length_c	16.053802
_cell_angle_alpha	92.569546
_cell_angle_beta	87.249047
_cell_angle_gamma	87.178538
loop_
_atom_site_label
_atom_site_type_symbol
_atom_site_fract_x
_atom_site_fract_y
_atom_site_fract_z
O1	O	1.043976	0.191935	-0.069328
O2	O	0.815689	0.189788	-0.069352
O3	O	0.935876	0.057059	-0.069332
O4	O	0.923789	0.324665	-0.069348
O5	O	0.929260	0.064332	0.069526
O6	O	0.809073	0.197062	0.069506
O7	O	1.037360	0.199209	0.069530
Zn8	Zn	0.922166	0.199290	0.091565
Zn9	Zn	0.930883	0.189707	-0.091386
O10	O	0.917173	0.331938	0.069510
C11	C	0.783164	0.190665	0.000074
C12	C	0.696109	0.182429	0.000065
C13	C	0.645985	0.261888	0.000060
C14	C	0.564186	0.254145	0.000072
C15	C	0.532513	0.166942	0.000083
C16	C	0.582643	0.087477	0.000089
C17	C	0.664440	0.095221	0.000083
C18	C	0.288867	0.134847	0.000107
C19	C	0.207065	0.127108	0.000110
C20	C	0.188613	0.293778	0.000095
C21	C	0.270412	0.301514	0.000084
C22	C	0.320535	0.222049	0.000095
N23	N	0.448903	0.159026	0.000092
N24	N	0.404144	0.229967	0.000091
C25	C	0.932002	0.026295	0.000097
C26	C	0.930305	-0.076207	0.000098
C27	C	0.928926	-0.159450	0.000096
C28	C	0.927203	-0.263883	0.000089
C29	C	0.925835	-0.347120	0.000084
C30	C	0.924112	-0.451559	0.000079
C31	C	1.069885	0.198332	0.000103
C32	C	1.156941	0.206568	0.000106
C33	C	0.921047	0.362701	0.000079
C34	C	0.922745	0.465203	0.000073
N35	N	0.916224	0.205830	0.216424
N36	N	0.936832	0.183160	-0.216246
C37	C	0.967382	0.149377	0.260127
C38	C	0.963232	0.153961	0.347533
C39	C	0.907927	0.215004	0.391234
C40	C	0.856763	0.271460	0.347526
C41	C	0.860910	0.266871	0.260121
C42	C	0.889814	0.235026	0.652641
C43	C	0.885673	0.239614	0.740052
C44	C	0.992142	0.122112	0.740053
C45	C	0.996287	0.117532	0.652646
C46	C	0.945120	0.173985	0.608945
N47	N	0.903686	0.219694	0.480578
N48	N	0.949358	0.169290	0.519604
H49	H	0.296194	0.372523	0.000066
C50	C	0.172222	0.031183	0.000128
H51	H	0.116328	0.037955	0.000121
H52	H	0.187114	0.000752	0.048555
H53	H	0.191718	-0.004330	-0.048296
H54	H	1.033799	0.076150	0.775642
H55	H	0.671766	0.332898	0.000051
C56	C	0.824793	0.306712	0.788122
H57	H	0.794897	0.339656	0.749578
H58	H	0.851397	0.349013	0.822230
H59	H	0.790506	0.272839	0.822207
C60	C	1.057156	0.050429	0.604577
H61	H	1.052314	0.055802	0.546262
H62	H	1.047914	-0.011025	0.618889
H63	H	1.108810	0.065143	0.618914
H64	H	0.819250	0.312840	0.224539
C65	C	0.719577	0.007816	0.000080
H66	H	0.689000	-0.045229	0.000078
H67	H	0.749572	0.009906	0.048499
H68	H	0.754166	0.004838	-0.048353
C69	C	0.547809	-0.008446	0.000100
H70	H	0.589378	-0.054660	0.000109
H71	H	0.518584	-0.017470	-0.048321
H72	H	0.513984	-0.012394	0.048531
H73	H	0.329668	0.070140	0.000117
H74	H	1.012421	0.099673	0.224550
C75	C	0.133477	0.381181	0.000093
H76	H	0.080225	0.364084	0.000106
H77	H	0.145390	0.414157	-0.048330
H78	H	0.140794	0.419222	0.048521
H79	H	0.523378	0.318850	0.000068
H80	H	0.848154	0.280994	0.617066
H81	H	1.004889	0.107991	0.383115
H82	H	0.811729	0.321160	0.383113
