data_functionalizedCrystal
_audit_creation_method	'MofGen! by Chris Wilmer'
_symmetry_space_group_name_H-M	'P1'
_symmetry_Int_Tables_number	1
_symmetry_cell_setting	triclinic
loop_
_symmetry_equiv_pos_as_xyz
  x,y,z
_cell_length_a	13.897448
_cell_length_b	18.215407
_cell_length_c	13.897441
_cell_angle_alpha	89.982568
_cell_angle_beta	89.970373
_cell_angle_gamma	90.015136
loop_
_atom_site_label
_atom_site_type_symbol
_atom_site_fract_x
_atom_site_fract_y
_atom_site_fract_z
Zn1	Zn	-0.384059	1.125109	-0.545351
Zn2	Zn	-0.134059	1.375109	-0.295351
Zn3	Zn	0.115941	1.625109	-0.045351
Zn4	Zn	0.365941	1.875109	0.204649
Zn5	Zn	-0.545378	1.125033	-0.384053
Zn6	Zn	-0.295378	1.375033	-0.134053
Zn7	Zn	-0.045378	1.625033	0.115947
Zn8	Zn	0.204622	1.875033	0.365947
Zn9	Zn	-0.384092	1.002042	-0.384073
Zn10	Zn	-0.134092	1.252042	-0.134073
Zn11	Zn	0.115908	1.502042	0.115927
Zn12	Zn	0.365908	1.752042	0.365927
Zn13	Zn	-0.545307	1.002023	-0.545308
Zn14	Zn	-0.295307	1.252023	-0.295308
Zn15	Zn	-0.045307	1.502023	-0.045308
Zn16	Zn	0.204693	1.752023	0.204692
O17	O	-0.464709	1.063552	-0.464696
O18	O	-0.214709	1.313552	-0.214696
O19	O	0.035291	1.563552	0.035304
O20	O	0.285291	1.813552	0.285304
O21	O	-0.405475	1.228083	-0.523964
O22	O	-0.155475	1.478083	-0.273964
O23	O	0.094525	1.728083	-0.023964
O24	O	0.344525	1.978083	0.226036
O25	O	-0.524027	1.108694	-0.249074
O26	O	-0.274027	1.358694	0.000926
O27	O	-0.024027	1.608694	0.250926
O28	O	0.225973	1.858694	0.500926
O29	O	-0.249106	1.018406	-0.405493
O30	O	0.000894	1.268406	-0.155493
O31	O	0.250894	1.518406	0.094507
O32	O	0.500894	1.768406	0.344507
O33	O	-0.523995	1.228027	-0.405459
O34	O	-0.273995	1.478027	-0.155459
O35	O	-0.023995	1.728027	0.094541
O36	O	0.226005	1.978027	0.344541
O37	O	-0.249082	1.108824	-0.523984
O38	O	0.000918	1.358824	-0.273984
O39	O	0.250918	1.608824	-0.023984
O40	O	0.500918	1.858824	0.226016
O41	O	-0.405530	1.018332	-0.249088
O42	O	-0.155530	1.268332	0.000912
O43	O	0.094470	1.518332	0.250912
O44	O	0.344470	1.768332	0.500912
O45	O	-0.405461	0.899055	-0.405452
O46	O	-0.155461	1.149055	-0.155452
O47	O	0.094539	1.399055	0.094548
O48	O	0.344539	1.649055	0.344548
O49	O	-0.523873	1.018375	-0.680296
O50	O	-0.273873	1.268375	-0.430296
O51	O	-0.023873	1.518375	-0.180296
O52	O	0.226127	1.768375	0.069704
O53	O	-0.523905	0.899041	-0.523911
O54	O	-0.273905	1.149041	-0.273911
O55	O	-0.023905	1.399041	-0.023911
O56	O	0.226095	1.649041	0.226089
O57	O	-0.405406	1.108806	-0.680327
O58	O	-0.155406	1.358806	-0.430327
O59	O	0.094594	1.608806	-0.180327
O60	O	0.344594	1.858806	0.069673
O61	O	-0.680350	1.108676	-0.405417
O62	O	-0.430350	1.358676	-0.155417
O63	O	-0.180350	1.608676	0.094583
O64	O	0.069650	1.858676	0.344583
O65	O	-0.680298	1.018301	-0.523891
O66	O	-0.430298	1.268301	-0.273891
O67	O	-0.180298	1.518301	-0.023891
O68	O	0.069702	1.768301	0.226109
C69	C	-0.464679	0.872345	-0.464679
C70	C	-0.214679	1.122345	-0.214679
C71	C	0.035321	1.372345	0.035321
C72	C	0.285321	1.622345	0.285321
C73	C	-0.464690	0.790547	-0.464695
C74	C	-0.214690	1.040547	-0.214695
C75	C	0.035310	1.290547	0.035305
C76	C	0.285310	1.540547	0.285305
C77	C	-0.403103	0.602381	-0.526498
C78	C	-0.153103	0.852381	-0.276498
C79	C	0.096897	1.102381	-0.026498
C80	C	0.346897	1.352381	0.223502
C81	C	-0.403112	0.525522	-0.526501
C82	C	-0.153112	0.775522	-0.276501
C83	C	0.096888	1.025522	-0.026501
C84	C	0.346888	1.275522	0.223499
C85	C	-0.526342	0.525475	-0.402911
C86	C	-0.276342	0.775475	-0.152911
C87	C	-0.026342	1.025475	0.097089
C88	C	0.223658	1.275475	0.347089
C89	C	-0.526328	0.602332	-0.402904
C90	C	-0.276328	0.852332	-0.152904
C91	C	-0.026328	1.102332	0.097096
C92	C	0.223672	1.352332	0.347096
C93	C	-0.464710	0.640783	-0.464703
C94	C	-0.214710	0.890783	-0.214703
C95	C	0.035290	1.140783	0.035297
C96	C	0.285290	1.390783	0.285297
C97	C	-0.464732	0.487067	-0.464713
C98	C	-0.214732	0.737067	-0.214713
C99	C	0.035268	0.987067	0.035287
C100	C	0.285268	1.237067	0.285287
C101	C	-0.464742	0.403733	-0.464716
C102	C	-0.214742	0.653733	-0.214716
C103	C	0.035258	0.903733	0.035284
C104	C	0.285258	1.153733	0.285284
C105	C	-0.464699	0.724122	-0.464699
C106	C	-0.214699	0.974122	-0.214699
C107	C	0.035301	1.224122	0.035301
C108	C	0.285301	1.474122	0.285301
C109	C	-0.715323	1.063498	-0.464668
C110	C	-0.465323	1.313498	-0.214668
C111	C	-0.215323	1.563498	0.035332
C112	C	0.034677	1.813498	0.285332
C113	C	-0.822537	1.063542	-0.464689
C114	C	-0.572537	1.313542	-0.214689
C115	C	-0.322537	1.563542	0.035311
C116	C	-0.072537	1.813542	0.285311
C117	C	-1.018832	1.063620	-0.464749
C118	C	-0.768832	1.313620	-0.214749
C119	C	-0.518832	1.563620	0.035251
C120	C	-0.268832	1.813620	0.285251
C121	C	-0.909600	1.063575	-0.464718
C122	C	-0.659600	1.313575	-0.214718
C123	C	-0.409600	1.563575	0.035282
C124	C	-0.159600	1.813575	0.285282
C125	C	-0.213116	1.063626	-0.464745
C126	C	0.036884	1.313626	-0.214745
C127	C	0.286884	1.563626	0.035255
C128	C	0.536884	1.813626	0.285255
C129	C	-0.105902	1.063657	-0.464766
C130	C	0.144098	1.313657	-0.214766
C131	C	0.394098	1.563657	0.035234
C132	C	0.644098	1.813657	0.285234
C133	C	-0.464739	1.255505	-0.464714
C134	C	-0.214739	1.505505	-0.214714
C135	C	0.035261	1.755505	0.035286
C136	C	0.285261	2.005505	0.285286
C137	C	-0.464752	1.337303	-0.464721
C138	C	-0.214752	1.587303	-0.214721
C139	C	0.035248	1.837303	0.035279
C140	C	0.285248	2.087303	0.285279
C141	C	-0.464628	1.063597	-0.716289
C142	C	-0.214628	1.313597	-0.466289
C143	C	0.035372	1.563597	-0.216289
C144	C	0.285372	1.813597	0.033711
C145	C	-0.464593	1.063616	-0.823503
C146	C	-0.214593	1.313616	-0.573503
C147	C	0.035407	1.563616	-0.323503
C148	C	0.285407	1.813616	-0.073503
C149	C	-0.464566	1.063631	-0.910573
C150	C	-0.214566	1.313631	-0.660573
C151	C	0.035434	1.563631	-0.410573
C152	C	0.285434	1.813631	-0.160573
C153	C	-0.464523	1.063652	-1.019806
C154	C	-0.214523	1.313652	-0.769806
C155	C	0.035477	1.563652	-0.519806
C156	C	0.285477	1.813652	-0.269806
C157	C	-0.464720	1.063549	-0.214082
C158	C	-0.214720	1.313549	0.035918
C159	C	0.035280	1.563549	0.285918
C160	C	0.285280	1.813549	0.535918
C161	C	-0.464483	1.063673	-0.106868
C162	C	-0.214483	1.313673	0.143132
C163	C	0.035517	1.563673	0.393132
C164	C	0.285517	1.813673	0.643132
H165	H	-0.576509	0.494158	-0.352598
H166	H	-0.326509	0.744158	-0.102598
H167	H	-0.076509	0.994158	0.147402
H168	H	0.173491	1.244158	0.397402
H169	H	-0.576496	0.633600	-0.352577
H170	H	-0.326496	0.883600	-0.102577
H171	H	-0.076496	1.133600	0.147423
H172	H	0.173504	1.383600	0.397423
H173	H	-0.352927	0.633685	-0.576816
H174	H	-0.102927	0.883685	-0.326816
H175	H	0.147073	1.133685	-0.076816
H176	H	0.397073	1.383685	0.173184
H177	H	-0.352944	0.494258	-0.576820
H178	H	-0.102944	0.744258	-0.326820
H179	H	0.147056	0.994258	-0.076820
H180	H	0.397056	1.244258	0.173180
