data_functionalizedCrystal
_audit_creation_method	'MofGen! by Chris Wilmer'
_symmetry_space_group_name_H-M	'P1'
_symmetry_Int_Tables_number	1
_symmetry_cell_setting	triclinic
loop_
_symmetry_equiv_pos_as_xyz
  x,y,z
_cell_length_a	16.109301
_cell_length_b	16.109304
_cell_length_c	14.586319
_cell_angle_alpha	89.999019
_cell_angle_beta	89.998857
_cell_angle_gamma	83.462111
loop_
_atom_site_label
_atom_site_type_symbol
_atom_site_fract_x
_atom_site_fract_y
_atom_site_fract_z
O1	O	1.103132	0.106867	-0.076184
O2	O	1.603132	0.606867	0.423816
O3	O	0.861070	0.120166	-0.076196
O4	O	1.361070	0.620166	0.423804
O5	O	0.988749	-0.007514	-0.076190
O6	O	1.488749	0.492486	0.423810
O7	O	0.975452	0.234547	-0.076190
O8	O	1.475452	0.734547	0.423810
O9	O	0.988740	-0.007516	0.076290
O10	O	1.488740	0.492484	0.576290
O11	O	0.861061	0.120164	0.076284
O12	O	1.361061	0.620164	0.576284
O13	O	1.103123	0.106865	0.076297
O14	O	1.603123	0.606865	0.576297
Cu15	Cu	0.982091	0.113514	0.090213
Cu16	Cu	1.482091	0.613514	0.590213
Cu17	Cu	0.982102	0.113517	-0.090113
Cu18	Cu	1.482102	0.613517	0.409887
O19	O	0.975444	0.234545	0.076291
O20	O	1.475444	0.734545	0.576291
C21	C	0.830091	0.119626	0.000042
C22	C	1.330091	0.619626	0.500042
C23	C	0.737795	0.118011	0.000038
C24	C	1.237795	0.618011	0.500038
C25	C	0.428798	0.188494	0.000054
C26	C	0.928798	0.688494	0.500054
C27	C	0.515518	0.190020	0.000048
C28	C	1.015518	0.690020	0.500048
C29	C	0.535390	0.038531	0.000036
C30	C	1.035390	0.538531	0.500036
C31	C	0.448671	0.037007	0.000035
C32	C	0.948671	0.537007	0.500035
C33	C	0.395377	0.111991	0.000048
C34	C	0.895377	0.611991	0.500048
C35	C	0.568816	0.115040	0.000044
C36	C	1.068816	0.615040	0.500044
C37	C	0.662842	0.116694	0.000038
C38	C	1.162842	0.616694	0.500038
C39	C	0.301345	0.110338	0.000052
C40	C	0.801345	0.610338	0.500052
C41	C	0.988206	-0.038490	0.000048
C42	C	1.488206	0.461510	0.500048
C43	C	0.986590	-0.130785	0.000042
C44	C	1.486590	0.369215	0.500042
C45	C	0.982861	-0.343122	-0.083073
C46	C	1.482861	0.156878	0.416927
C47	C	0.981335	-0.429842	-0.083072
C48	C	1.481335	0.070158	0.416928
C49	C	0.981329	-0.429841	0.083171
C50	C	1.481329	0.070159	0.583171
C51	C	0.982850	-0.343122	0.083169
C52	C	1.482850	0.156878	0.583169
C53	C	0.983620	-0.299765	0.000045
C54	C	1.483620	0.200235	0.500045
C55	C	0.980573	-0.473204	0.000047
C56	C	1.480573	0.026796	0.500047
C57	C	0.978919	-0.567230	0.000049
C58	C	1.478919	-0.067230	0.500049
C59	C	0.985273	-0.205733	0.000043
C60	C	1.485273	0.294267	0.500043
C61	C	1.134102	0.107405	0.000056
C62	C	1.634102	0.607405	0.500056
C63	C	1.226398	0.109020	0.000055
C64	C	1.726398	0.609020	0.500055
C65	C	0.975987	0.265521	0.000050
C66	C	1.475987	0.765521	0.500050
C67	C	0.977603	0.357816	0.000051
C68	C	1.477603	0.857816	0.500051
N69	N	0.982090	0.113512	0.217045
N70	N	1.482090	0.613512	0.717045
N71	N	0.982110	0.113512	-0.216945
N72	N	1.482110	0.613512	0.283055
C73	C	1.038645	0.056994	0.452054
C74	C	1.538645	0.556994	0.952054
C75	C	1.038647	0.056992	0.548035
C76	C	1.538647	0.556992	1.048035
C77	C	0.925548	0.170033	0.548040
C78	C	1.425548	0.670033	1.048040
C79	C	0.925543	0.170030	0.452060
C80	C	1.425543	0.670030	0.952060
C81	C	0.982096	0.113512	0.404070
C82	C	1.482096	0.613512	0.904070
C83	C	0.982104	0.113513	0.596031
C84	C	1.482104	0.613513	1.096031
C85	C	0.982106	0.113511	0.700098
C86	C	1.482106	0.613511	1.200098
C87	C	0.982093	0.113512	0.299996
C88	C	1.482093	0.613512	0.799996
H89	H	0.578792	-0.022518	0.000027
H90	H	1.078792	0.477482	0.500027
F91	F	0.865349	0.230183	0.400988
F92	F	1.365349	0.730183	0.900988
F93	F	0.372081	0.268299	0.000065
F94	F	0.872081	0.768299	0.500065
H95	H	1.084693	0.010973	0.412983
H96	H	1.584693	0.510973	0.912983
H97	H	0.879505	0.216050	0.587123
H98	H	1.379505	0.716050	1.087123
H99	H	0.983462	-0.307819	0.150858
H100	H	1.483462	0.192181	0.650858
F101	F	0.551083	0.271445	0.000051
F102	F	1.051083	0.771445	0.500051
H103	H	1.084694	0.010970	0.587102
H104	H	1.584694	0.510970	1.087102
H105	H	0.421460	-0.025296	0.000027
H106	H	0.921460	0.474704	0.500027
H107	H	0.983486	-0.307823	-0.150758
H108	H	1.483486	0.192177	0.349242
H109	H	0.980715	-0.465139	-0.150754
H110	H	1.480715	0.034861	0.349246
F111	F	0.980510	-0.475991	0.171633
F112	F	1.480510	0.024009	0.671633
