data_functionalizedCrystal
_audit_creation_method	'MofGen! by Chris Wilmer'
_symmetry_space_group_name_H-M	'P1'
_symmetry_Int_Tables_number	1
_symmetry_cell_setting	triclinic
loop_
_symmetry_equiv_pos_as_xyz
  x,y,z
_cell_length_a	12.759401
_cell_length_b	13.897447
_cell_length_c	12.759393
_cell_angle_alpha	90.031000
_cell_angle_beta	90.020938
_cell_angle_gamma	90.021055
loop_
_atom_site_label
_atom_site_type_symbol
_atom_site_fract_x
_atom_site_fract_y
_atom_site_fract_z
Zn1	Zn	1.606231	-0.383929	0.594016
Zn2	Zn	1.606107	-0.545255	0.418335
Zn3	Zn	1.430530	-0.383980	0.418352
Zn4	Zn	1.430507	-0.545188	0.593972
O5	O	1.518344	-0.464588	0.506169
O6	O	1.753236	-0.405336	0.570723
O7	O	1.582774	-0.523912	0.271316
O8	O	1.453898	-0.248992	0.441679
O9	O	1.753145	-0.523862	0.441651
O10	O	1.582985	-0.248954	0.570740
O11	O	1.453778	-0.405423	0.271328
O12	O	1.283506	-0.405358	0.441636
O13	O	1.453859	-0.523747	0.740999
O14	O	1.283489	-0.523797	0.570664
O15	O	1.582963	-0.405271	0.741032
O16	O	1.582752	-0.680228	0.441608
O17	O	1.453739	-0.680179	0.570648
C18	C	1.245376	-0.464576	0.506148
C19	C	1.128600	-0.464595	0.506164
C20	C	1.073757	-0.526359	0.573243
C21	C	0.964033	-0.526363	0.573264
C22	C	0.964005	-0.402834	0.439118
C23	C	1.073727	-0.402827	0.439103
C24	C	0.814133	-0.560974	0.697124
C25	C	0.759286	-0.622754	0.764194
C26	C	0.794875	-0.716889	0.780141
C27	C	0.885310	-0.749263	0.729002
C28	C	0.940151	-0.687488	0.661925
C29	C	0.904564	-0.593340	0.645998
C30	C	1.223628	-0.368225	0.315241
C31	C	1.278471	-0.306455	0.248158
C32	C	1.242884	-0.212318	0.232200
C33	C	1.152446	-0.179948	0.283320
C34	C	1.097603	-0.241718	0.350403
C35	C	1.133198	-0.335854	0.366363
C36	C	1.518258	-0.715203	0.506144
C37	C	1.518318	-0.822416	0.506169
C38	C	1.518369	-0.909486	0.506193
C39	C	1.518442	-1.018719	0.506220
C40	C	1.792377	-0.464601	0.506190
C41	C	1.909154	-0.464606	0.506200
C42	C	1.518422	-0.464496	0.780202
C43	C	1.518456	-0.464456	0.896979
C44	C	1.518458	-0.212995	0.506216
C45	C	1.518507	-0.105781	0.506236
C46	C	1.518326	-0.464611	0.233201
C47	C	1.518496	-0.464379	0.116425
C48	C	1.585685	-0.402756	0.951860
C49	C	1.585703	-0.402714	1.061584
C50	C	1.451259	-0.526082	1.061537
C51	C	1.451237	-0.526118	0.951815
C52	C	1.623326	-0.288908	1.211563
C53	C	1.690571	-0.227216	1.266447
C54	C	1.793085	-0.212425	1.230856
C55	C	1.828375	-0.259340	1.140382
C56	C	1.761135	-0.321039	1.085504
C57	C	1.658606	-0.335812	1.121093
C58	C	1.413625	-0.639925	0.801834
C59	C	1.346390	-0.701630	0.746953
C60	C	1.243874	-0.716431	0.782542
C61	C	1.208588	-0.669533	0.873019
C62	C	1.275824	-0.607828	0.927900
C63	C	1.378339	-0.593026	0.892303
H64	H	1.287543	-0.162028	0.177566
H65	H	1.125113	-0.681588	0.902000
F66	F	0.736503	-0.782636	0.851527
F67	F	1.261435	-0.468457	0.332118
F68	F	0.663045	-0.588295	0.818620
H69	H	1.640416	-0.352544	0.907215
H70	H	1.247086	-0.569642	1.001572
H71	H	1.118431	-0.576652	0.627851
H72	H	0.785155	-0.484319	0.684157
H73	H	1.352110	-0.332819	0.206533
H74	H	1.661829	-0.189018	1.340111
H75	H	1.847837	-0.162193	1.275551
F76	F	1.798686	-0.370968	0.989222
H77	H	1.189135	-0.766685	0.737854
F78	F	1.383951	-0.751551	0.650664
F79	F	0.905596	-0.337102	0.367749
F80	F	1.937492	-0.243606	1.102519
F81	F	1.514212	-0.304634	1.249441
F82	F	1.379728	-0.591706	1.119906
F83	F	1.522726	-0.624151	0.763930
H84	H	0.914273	-0.825921	0.741983
F85	F	1.001346	-0.207266	0.404805
F86	F	1.114563	-0.079759	0.266330
F87	F	1.036390	-0.721938	0.607500
