data_functionalizedCrystal
_audit_creation_method	'MofGen! by Chris Wilmer'
_symmetry_space_group_name_H-M	'P1'
_symmetry_Int_Tables_number	1
_symmetry_cell_setting	triclinic
loop_
_symmetry_equiv_pos_as_xyz
  x,y,z
_cell_length_a	6.817900
_cell_length_b	11.102188
_cell_length_c	9.170709
_cell_angle_alpha	83.690542
_cell_angle_beta	112.460645
_cell_angle_gamma	108.603875
loop_
_atom_site_label
_atom_site_type_symbol
_atom_site_fract_x
_atom_site_fract_y
_atom_site_fract_z
V1	V	-4.127247	-0.121300	-0.486358
O2	O	-4.085991	0.061951	-0.477100
O3	O	-4.103907	-0.294493	-0.483032
O4	O	-4.110887	-0.094809	-0.698476
O5	O	-4.078962	-0.139116	-0.260165
V6	V	-4.603476	-0.102291	-0.459304
O7	O	-4.404506	-0.162998	-0.545705
O8	O	-4.776415	-0.060592	-0.399957
O9	O	-4.403610	0.070902	-0.462630
O10	O	-4.762130	-0.285541	-0.468562
O11	O	-4.769158	-0.084475	-0.685497
O12	O	-4.396630	-0.128782	-0.247186
C13	C	-3.953968	-0.337483	-0.475360
C14	C	-4.016385	-0.478912	-0.474054
C15	C	-3.980921	-0.543225	-0.330592
C16	C	-4.039593	-0.676113	-0.329372
C17	C	-4.169185	-0.680364	-0.615087
C18	C	-4.110528	-0.547478	-0.616306
C19	C	-3.962870	-0.082765	-0.750178
C20	C	-4.030943	-0.062251	-0.923585
C21	C	-4.216892	0.113885	-0.470298
C22	C	-4.133714	0.255314	-0.471614
C23	C	-4.207989	-0.140831	-0.195476
C24	C	-4.119153	-0.161338	-0.022068
H25	H	-4.245838	-0.736207	-0.730903
H26	H	-4.139423	-0.495114	-0.733137
H27	H	-4.007509	0.038285	-0.971937
H28	H	-4.142607	-0.261868	-0.973722
H29	H	-3.904267	-0.487402	-0.214761
O30	O	-4.005301	-0.738447	-0.189921
C31	C	-4.126654	-0.710007	-0.110727
H32	H	-4.160852	-0.615901	-0.154711
H33	H	-4.291241	-0.788810	-0.135010
C34	C	-3.948685	-0.815193	0.122018
C35	C	-3.990671	-0.699605	0.068006
H36	H	-3.864812	-0.808783	0.232269
H37	H	-3.866932	-0.834358	0.068663
H38	H	-4.085853	-0.880851	0.101768
H39	H	-3.853506	-0.633954	0.088238
H40	H	-4.072398	-0.680429	0.121369
