data_functionalizedCrystal
_audit_creation_method	'MofGen! by Chris Wilmer'
_symmetry_space_group_name_H-M	'P1'
_symmetry_Int_Tables_number	1
_symmetry_cell_setting	triclinic
loop_
_symmetry_equiv_pos_as_xyz
  x,y,z
_cell_length_a	11.169417
_cell_length_b	13.031981
_cell_length_c	11.169409
_cell_angle_alpha	82.780222
_cell_angle_beta	89.980487
_cell_angle_gamma	97.193279
loop_
_atom_site_label
_atom_site_type_symbol
_atom_site_fract_x
_atom_site_fract_y
_atom_site_fract_z
Zn1	Zn	1.774262	-0.416001	-0.617782
Zn2	Zn	2.107595	-0.082668	-0.284449
Zn3	Zn	2.440928	0.250666	0.048884
Zn4	Zn	1.748641	-0.590825	-0.391569
Zn5	Zn	2.081975	-0.257492	-0.058235
Zn6	Zn	2.415308	0.075841	0.275098
Zn7	Zn	1.573538	-0.416066	-0.417108
Zn8	Zn	1.906871	-0.082733	-0.083775
Zn9	Zn	2.240205	0.250601	0.249558
Zn10	Zn	1.548058	-0.590741	-0.592227
Zn11	Zn	1.881391	-0.257408	-0.258894
Zn12	Zn	2.214724	0.075925	0.074440
O13	O	1.661125	-0.503409	-0.504672
O14	O	1.994458	-0.170075	-0.171338
O15	O	2.327791	0.163258	0.161995
O16	O	1.938811	-0.439200	-0.587781
O17	O	2.272145	-0.105867	-0.254448
O18	O	2.605478	0.227467	0.078886
O19	O	1.725355	-0.567705	-0.226998
O20	O	2.058688	-0.234372	0.106336
O21	O	2.392022	0.098961	0.439669
O22	O	1.621550	-0.269791	-0.465111
O23	O	1.954883	0.063543	-0.131778
O24	O	2.288217	0.396876	0.201555
O25	O	1.919988	-0.567643	-0.421583
O26	O	2.253322	-0.234309	-0.088250
O27	O	2.586655	0.099024	0.245084
O28	O	1.769021	-0.269743	-0.612546
O29	O	2.102354	0.063590	-0.279212
O30	O	2.435687	0.396924	0.054121
O31	O	1.596707	-0.439310	-0.245761
O32	O	1.930041	-0.105977	0.087572
O33	O	2.263374	0.227356	0.420905
O34	O	1.402209	-0.439229	-0.440331
O35	O	1.735543	-0.105896	-0.106998
O36	O	2.068876	0.227438	0.226335
O37	O	1.578123	-0.567500	-0.763576
O38	O	1.911456	-0.234166	-0.430243
O39	O	2.244789	0.099167	-0.096909
O40	O	1.383489	-0.567562	-0.568990
O41	O	1.716822	-0.234229	-0.235657
O42	O	2.050156	0.099104	0.097676
O43	O	1.744314	-0.439119	-0.782351
O44	O	2.077647	-0.105785	-0.449018
O45	O	2.410980	0.227548	-0.115685
O46	O	1.700648	-0.737081	-0.396803
O47	O	2.033981	-0.403748	-0.063470
O48	O	2.367315	-0.070414	0.269863
O49	O	1.553280	-0.737019	-0.544226
O50	O	1.886613	-0.403686	-0.210893
O51	O	2.219947	-0.070353	0.122441
C52	C	1.349302	-0.503394	-0.504660
C53	C	1.682635	-0.170061	-0.171327
C54	C	2.015969	0.163272	0.162007
C55	C	1.215899	-0.503414	-0.504680
C56	C	1.549233	-0.170080	-0.171346
C57	C	1.882566	0.163253	0.161987
C58	C	1.621451	-0.774976	-0.464996
C59	C	1.954785	-0.441642	-0.131663
C60	C	2.288118	-0.108309	0.201670
C61	C	1.604589	-0.891153	-0.448063
C62	C	1.937922	-0.557820	-0.114730
C63	C	2.271255	-0.224486	0.218604
C64	C	1.669989	-0.942842	-0.513533
C65	C	2.003322	-0.609508	-0.180200
C66	C	2.336656	-0.276175	0.153134
C67	C	1.652562	-1.062917	-0.496033
C68	C	1.985896	-0.729584	-0.162700
C69	C	2.319229	-0.396251	0.170633
C70	C	1.974165	-0.503423	-0.504684
C71	C	2.307498	-0.170090	-0.171351
C72	C	2.640831	0.163243	0.161983
C73	C	2.107564	-0.503430	-0.504689
C74	C	2.440897	-0.170096	-0.171356
C75	C	2.774230	0.163237	0.161978
C76	C	1.661234	-0.503292	-0.817731
C77	C	1.994567	-0.169959	-0.484398
C78	C	2.327900	0.163374	-0.151064
C79	C	1.661280	-0.503243	-0.951138
C80	C	1.994614	-0.169910	-0.617805
C81	C	2.327947	0.163424	-0.284472
C82	C	1.700986	-0.230781	-0.544528
C83	C	2.034319	0.102552	-0.211195
C84	C	2.367652	0.435886	0.122139
C85	C	1.717972	-0.114603	-0.561512
C86	C	2.051305	0.218730	-0.228179
C87	C	2.384639	0.552063	0.105154
C88	C	1.661096	-0.503449	-0.192841
C89	C	1.994429	-0.170115	0.140492
C90	C	2.327763	0.163218	0.473826
C91	C	1.661325	-0.503204	-0.059477
C92	C	1.994658	-0.169870	0.273856
C93	C	2.327992	0.163463	0.607189
H94	H	1.738878	-0.898201	-0.582545
H95	H	2.072212	-0.564868	-0.249212
H96	H	2.405545	-0.231535	0.084122
Cl97	Cl	1.546181	-1.131830	-0.389490
Cl98	Cl	1.879515	-0.798496	-0.056157
Cl99	Cl	2.212848	-0.465163	0.277176
H100	H	1.786866	-1.069966	-0.630529
H101	H	2.120199	-0.736632	-0.297195
H102	H	2.453532	-0.403299	0.036138
Cl103	Cl	1.498213	-0.960069	-0.341525
Cl104	Cl	1.831546	-0.626736	-0.008192
Cl105	Cl	2.164879	-0.293403	0.325142
