data_functionalizedCrystal
_audit_creation_method	'MofGen! by Chris Wilmer'
_symmetry_space_group_name_H-M	'P1'
_symmetry_Int_Tables_number	1
_symmetry_cell_setting	triclinic
loop_
_symmetry_equiv_pos_as_xyz
  x,y,z
_cell_length_a	16.120490
_cell_length_b	11.169416
_cell_length_c	11.169409
_cell_angle_alpha	89.969126
_cell_angle_beta	87.080796
_cell_angle_gamma	87.103007
loop_
_atom_site_label
_atom_site_type_symbol
_atom_site_fract_x
_atom_site_fract_y
_atom_site_fract_z
Zn1	Zn	1.274675	-0.570970	-0.771562
Zn2	Zn	1.274598	-0.771705	-0.570878
Zn3	Zn	1.135247	-0.560839	-0.560723
Zn4	Zn	1.135252	-0.761409	-0.761355
O5	O	1.204943	-0.666231	-0.666129
O6	O	1.391333	-0.606147	-0.753462
O7	O	1.256079	-0.743803	-0.401579
O8	O	1.153773	-0.394236	-0.588712
O9	O	1.391277	-0.753626	-0.606020
O10	O	1.256210	-0.401679	-0.743615
O11	O	1.153698	-0.588880	-0.394117
O12	O	1.018580	-0.578897	-0.578816
O13	O	1.153781	-0.736078	-0.930662
O14	O	1.018584	-0.726255	-0.726220
O15	O	1.256215	-0.596164	-0.938160
O16	O	1.256084	-0.938287	-0.596124
O17	O	1.153707	-0.930723	-0.736067
C18	C	1.204910	-0.978053	-0.666118
C19	C	1.204972	-1.111458	-0.666159
C20	C	0.988331	-0.650360	-0.650309
C21	C	0.895663	-0.643599	-0.643569
C22	C	0.684734	-0.701292	-0.701091
C23	C	0.726004	-0.631266	-0.631263
C24	C	0.820411	-0.638130	-0.638112
C25	C	0.590318	-0.694429	-0.694243
C26	C	1.422401	-0.682165	-0.682012
C27	C	1.515069	-0.688955	-0.688781
C28	C	1.205007	-0.666103	-0.979177
C29	C	1.205035	-0.666048	-1.112579
C30	C	1.204999	-0.353193	-0.666169
C31	C	1.205023	-0.219795	-0.666186
C32	C	1.204927	-0.666276	-0.354303
C33	C	1.205062	-0.666005	-0.220914
H34	H	0.720301	-0.766393	-0.766011
H35	H	0.690434	-0.566161	-0.566337
