data_functionalizedCrystal
_audit_creation_method	'MofGen! by Chris Wilmer'
_symmetry_space_group_name_H-M	'P1'
_symmetry_Int_Tables_number	1
_symmetry_cell_setting	triclinic
loop_
_symmetry_equiv_pos_as_xyz
  x,y,z
_cell_length_a	11.026607
_cell_length_b	10.908878
_cell_length_c	10.065875
_cell_angle_alpha	83.443480
_cell_angle_beta	79.267366
_cell_angle_gamma	95.664596
loop_
_atom_site_label
_atom_site_type_symbol
_atom_site_fract_x
_atom_site_fract_y
_atom_site_fract_z
O1	O	0.199737	1.676468	-0.113474
O2	O	0.109198	1.323534	-0.113479
O3	O	0.325217	1.470750	-0.113475
O4	O	-0.016282	1.529252	-0.113478
O5	O	0.283889	1.442709	0.113513
O6	O	0.067870	1.295493	0.113509
O7	O	0.158409	1.648427	0.113514
Zn8	Zn	0.106578	1.467508	0.149550
Zn9	Zn	0.161029	1.504453	-0.149516
O10	O	-0.057610	1.501211	0.113510
C11	C	0.080072	1.263628	0.000014
C12	C	0.054874	1.126901	0.000012
C13	C	0.146819	1.056638	0.000012
C14	C	0.120777	0.915323	0.000010
C15	C	-0.079979	1.526024	0.000015
C16	C	-0.208200	1.558198	0.000014
C17	C	-0.299933	1.469363	0.000012
C18	C	-0.432457	1.502613	0.000010
C19	C	0.347587	1.445937	0.000016
C20	C	0.475809	1.413765	0.000008
C21	C	0.187535	1.708334	0.000017
C22	C	0.212735	1.845062	0.000010
N23	N	0.069418	1.442303	0.353655
N24	N	0.198200	1.529666	-0.353621
C25	C	0.148106	1.495674	0.421436
C26	C	0.119500	1.476287	0.578602
H27	H	-0.043121	1.082436	0.000005
C28	C	0.267431	1.697530	0.377209
C29	C	0.267644	1.576760	0.342752
H30	H	0.341235	1.747592	0.328651
H31	H	0.197076	1.731805	0.353834
H32	H	0.263859	1.695094	0.472510
H33	H	0.271206	1.579194	0.247452
H34	H	0.338018	1.542476	0.366117
C35	C	0.383870	0.853752	0.116696
C36	C	0.345040	0.905065	0.000012
H37	H	0.465551	0.890792	0.116689
H38	H	0.328695	0.869004	0.195836
H39	H	0.383717	0.766658	0.116682
H40	H	0.345184	0.992158	0.000031
H41	H	0.400230	0.889822	-0.079149
C42	C	0.000138	1.274430	0.622912
C43	C	-0.000039	1.395217	0.657323
H44	H	-0.073655	1.224382	0.671520
H45	H	0.003671	1.276833	0.527633
H46	H	0.070512	1.240154	0.646268
H47	H	-0.070409	1.429497	0.633957
H48	H	-0.003585	1.392819	0.752624
H49	H	-0.280356	1.368693	0.000004
C50	C	-0.049938	1.240451	0.397970
C51	C	-0.050115	1.361237	0.432382
H52	H	-0.123731	1.190402	0.446578
H53	H	-0.046405	1.242853	0.302691
H54	H	0.020436	1.206174	0.421327
H55	H	-0.120485	1.395518	0.409016
H56	H	-0.053661	1.358839	0.527682
H57	H	-0.452017	1.603296	-0.000038
C58	C	-0.280460	1.732435	-0.116672
C59	C	-0.234615	1.694103	0.000014
H60	H	-0.296771	1.816337	-0.116665
H61	H	-0.220533	1.725974	-0.195811
H62	H	-0.355183	1.680999	-0.116660
H63	H	-0.159887	1.745534	-0.000003
H64	H	-0.294547	1.700575	0.079173
H65	H	-0.504623	1.313088	0.000001
H66	H	0.286754	1.589710	0.588060
C67	C	0.360432	1.094177	-0.116683
C68	C	0.279115	1.116656	0.000006
H69	H	0.442106	1.131236	-0.116689
H70	H	0.360289	1.007093	-0.116669
H71	H	0.334057	1.128977	-0.195828
H72	H	0.305485	1.081848	0.079152
H73	H	0.279263	1.203758	0.000005
C74	C	-0.092849	0.877802	0.116688
C75	C	-0.011527	0.855319	0.000005
H76	H	-0.174526	0.840763	0.116677
H77	H	-0.066494	0.842996	0.195829
H78	H	-0.092693	0.964899	0.116677
H79	H	-0.011676	0.768222	0.000021
H80	H	-0.037889	0.890120	-0.079156
