data_functionalizedCrystal
_audit_creation_method	'MofGen! by Chris Wilmer'
_symmetry_space_group_name_H-M	'P1'
_symmetry_Int_Tables_number	1
_symmetry_cell_setting	triclinic
loop_
_symmetry_equiv_pos_as_xyz
  x,y,z
_cell_length_a	16.992694
_cell_length_b	11.026607
_cell_length_c	16.053802
_cell_angle_alpha	93.134017
_cell_angle_beta	87.249047
_cell_angle_gamma	99.627120
loop_
_atom_site_label
_atom_site_type_symbol
_atom_site_fract_x
_atom_site_fract_y
_atom_site_fract_z
O1	O	1.079834	0.256038	-0.069317
O2	O	1.579834	0.756038	0.430683
O3	O	0.851145	0.253175	-0.069342
O4	O	1.351145	0.753175	0.430658
O5	O	0.946536	0.076115	-0.069328
O6	O	1.446536	0.576115	0.430672
O7	O	0.984443	0.433098	-0.069330
O8	O	1.484443	0.933098	0.430670
O9	O	0.941279	0.085818	0.069530
O10	O	1.441279	0.585818	0.569530
O11	O	0.845889	0.262878	0.069516
O12	O	1.345889	0.762878	0.569516
O13	O	1.074577	0.265741	0.069541
O14	O	1.574577	0.765741	0.569541
Zn15	Zn	0.959398	0.265850	0.091575
Zn16	Zn	1.459398	0.765850	0.591575
Zn17	Zn	0.966324	0.253066	-0.091376
Zn18	Zn	1.466324	0.753066	0.408624
O19	O	0.979186	0.442801	0.069528
O20	O	1.479186	0.942801	0.569528
C21	C	0.818785	0.254344	0.000084
C22	C	1.318785	0.754344	0.500084
C23	C	0.730190	0.243357	0.000075
C24	C	1.230190	0.743357	0.500075
C25	C	0.694911	0.349355	0.000075
C26	C	1.194911	0.849355	0.500075
C27	C	0.611666	0.339026	0.000086
C28	C	1.111666	0.839026	0.500086
C29	C	0.563702	0.222698	0.000092
C30	C	1.063702	0.722698	0.500092
C31	C	0.598986	0.116693	0.000094
C32	C	1.098986	0.616693	0.500094
C33	C	0.682229	0.127024	0.000089
C34	C	1.182229	0.627024	0.500089
C35	C	0.314060	0.179883	0.000114
C36	C	0.814060	0.679883	0.500114
C37	C	0.230811	0.169561	0.000117
C38	C	0.730811	0.669561	0.500117
C39	C	0.243497	0.391895	0.000111
C40	C	0.743497	0.891895	0.500111
C41	C	0.326741	0.402215	0.000100
C42	C	0.826741	0.902215	0.500100
C43	C	0.362018	0.296210	0.000107
C44	C	0.862018	0.796210	0.500107
N45	N	0.478612	0.212138	0.000101
N46	N	0.978612	0.712138	0.500101
N47	N	0.447107	0.306772	0.000104
N48	N	0.947107	0.806772	0.500104
C49	C	0.936914	0.035078	0.000099
C50	C	1.436914	0.535078	0.500099
C51	C	0.916068	-0.101658	0.000094
C52	C	1.416068	0.398342	0.500094
C53	C	0.973629	-0.169881	0.000099
C54	C	1.473629	0.330119	0.500099
C55	C	0.952085	-0.311205	0.000093
C56	C	1.452085	0.188795	0.500093
C57	C	1.106937	0.264572	0.000113
C58	C	1.606937	0.764572	0.500113
C59	C	1.195532	0.275558	0.000117
C60	C	1.695532	0.775558	0.500117
C61	C	0.988808	0.483838	0.000099
C62	C	1.488808	0.983838	0.500099
C63	C	1.009655	0.620574	0.000098
C64	C	1.509655	1.120574	0.500098
N65	N	0.954677	0.274575	0.216435
N66	N	1.454677	0.774575	0.716435
N67	N	0.971050	0.244332	-0.216236
N68	N	1.471050	0.744332	0.283764
C69	C	0.995289	0.199266	0.260135
C70	C	1.495289	0.699266	0.760135
C71	C	0.991996	0.205382	0.347541
C72	C	1.491996	0.705382	0.847541
C73	C	0.948095	0.286813	0.391246
C74	C	1.448095	0.786813	0.891246
C75	C	0.907478	0.362124	0.347540
C76	C	1.407478	0.862124	0.847540
C77	C	0.910767	0.356002	0.260136
C78	C	1.410767	0.856002	0.760136
C79	C	0.933722	0.313521	0.652654
C80	C	1.433722	0.813521	1.152654
C81	C	0.930438	0.319641	0.740065
C82	C	1.430438	0.819641	1.240065
C83	C	1.014955	0.162896	0.740059
C84	C	1.514955	0.662896	1.240059
C85	C	1.018244	0.156786	0.652653
C86	C	1.518244	0.656786	1.152653
C87	C	0.977624	0.232093	0.608955
C88	C	1.477624	0.732093	1.108955
N89	N	0.944729	0.293068	0.480589
N90	N	1.444729	0.793068	0.980589
N91	N	0.980985	0.225830	0.519613
N92	N	1.480985	0.725830	1.019613
H93	H	0.214765	0.478198	0.000107
H94	H	0.714765	0.978198	0.500107
C95	C	0.352853	0.063273	0.000116
C96	C	0.852853	0.563273	0.500116
N97	N	0.382075	-0.024564	0.000117
N98	N	0.882075	0.475436	0.500117
C99	C	0.379496	0.530185	0.000107
C100	C	0.879496	1.030185	0.500107
N101	N	0.419231	0.626574	0.000115
N102	N	0.919231	1.126574	0.500115
H103	H	0.900649	0.374842	0.617082
H104	H	1.400649	0.874842	1.117082
H105	H	1.053992	0.090478	0.617070
H106	H	1.553992	0.590478	1.117070
H107	H	0.191760	0.074828	0.000121
H108	H	0.691760	0.574828	0.500121
C109	C	0.863954	-0.373632	0.000085
C110	C	1.363954	0.126368	0.500085
N111	N	0.797575	-0.420654	0.000081
N112	N	1.297575	0.079346	0.500081
C113	C	0.546222	-0.011269	0.000102
C114	C	1.046222	0.488731	0.500102
N115	N	0.506481	-0.107653	0.000104
N116	N	1.006481	0.392347	0.500104
C117	C	0.827941	-0.164090	0.000085
C118	C	1.327941	0.335910	0.500085
N119	N	0.761562	-0.211112	0.000081
N120	N	1.261562	0.288888	0.500081
C121	C	0.866098	0.438857	0.212067
C122	C	1.366098	0.938857	0.712067
N123	N	0.832453	0.501268	0.175862
N124	N	1.332453	1.001268	0.675862
H125	H	0.871728	0.428423	0.383130
H126	H	1.371728	0.928423	0.883130
C127	C	0.721035	0.010417	0.000086
C128	C	1.221035	0.510417	0.500086
N129	N	0.750263	-0.077414	0.000086
N130	N	1.250263	0.422586	0.500086
C131	C	1.061755	-0.107449	0.000114
C132	C	1.561755	0.392551	0.500114
N133	N	1.128134	-0.060426	0.000129
N134	N	1.628134	0.439574	0.500129
H135	H	0.894687	0.385957	0.775645
H136	H	1.394687	0.885957	1.275645
C137	C	1.043583	0.109684	0.212067
C138	C	1.543583	0.609684	0.712067
N139	N	1.079957	0.042204	0.175865
N140	N	1.579957	0.542204	0.675865
H141	H	1.074893	-0.333220	0.000043
H142	H	1.574893	0.166780	0.500043
H143	H	1.025064	0.144059	0.383121
H144	H	1.525064	0.644059	0.883121
C145	C	0.572863	0.455634	0.000101
C146	C	1.072863	0.955634	0.500101
N147	N	0.543637	0.543469	0.000119
N148	N	1.043637	1.043469	0.500119
H149	H	1.048025	0.101583	0.775646
H150	H	1.548025	0.601583	1.275646
H151	H	0.733959	0.444081	0.000069
H152	H	1.233959	0.944081	0.500069
