data_functionalizedCrystal
_audit_creation_method	'MofGen! by Chris Wilmer'
_symmetry_space_group_name_H-M	'P1'
_symmetry_Int_Tables_number	1
_symmetry_cell_setting	triclinic
loop_
_symmetry_equiv_pos_as_xyz
  x,y,z
_cell_length_a	18.101398
_cell_length_b	18.101395
_cell_length_c	18.101389
_cell_angle_alpha	89.983159
_cell_angle_beta	89.975673
_cell_angle_gamma	90.026371
loop_
_atom_site_label
_atom_site_type_symbol
_atom_site_fract_x
_atom_site_fract_y
_atom_site_fract_z
Zn1	Zn	1.132121	-0.295001	-0.418847
Zn2	Zn	1.382121	-0.045001	-0.168847
Zn3	Zn	1.632121	0.204999	0.081153
Zn4	Zn	1.882121	0.454999	0.331153
Zn5	Zn	1.132017	-0.418826	-0.295009
Zn6	Zn	1.382017	-0.168826	-0.045009
Zn7	Zn	1.632017	0.081174	0.204991
Zn8	Zn	1.882017	0.331174	0.454991
Zn9	Zn	1.008280	-0.294993	-0.295008
Zn10	Zn	1.258280	-0.044993	-0.045008
Zn11	Zn	1.508280	0.205007	0.204992
Zn12	Zn	1.758280	0.455007	0.454992
Zn13	Zn	1.008231	-0.418795	-0.418797
Zn14	Zn	1.258231	-0.168795	-0.168797
Zn15	Zn	1.508231	0.081205	0.081203
Zn16	Zn	1.758231	0.331205	0.331203
O17	O	1.070162	-0.356904	-0.356915
O18	O	1.320162	-0.106904	-0.106915
O19	O	1.570162	0.143096	0.143085
O20	O	1.820162	0.393096	0.393085
O21	O	1.235740	-0.311443	-0.402440
O22	O	1.485740	-0.061443	-0.152440
O23	O	1.735740	0.188557	0.097560
O24	O	1.985740	0.438557	0.347560
O25	O	1.115580	-0.402410	-0.191376
O26	O	1.365580	-0.152410	0.058624
O27	O	1.615580	0.097590	0.308624
O28	O	1.865580	0.347590	0.558624
O29	O	1.024772	-0.191361	-0.311456
O30	O	1.274772	0.058639	-0.061456
O31	O	1.524772	0.308639	0.188544
O32	O	1.774772	0.558639	0.438544
O33	O	1.235664	-0.402417	-0.311457
O34	O	1.485664	-0.152417	-0.061457
O35	O	1.735664	0.097583	0.188543
O36	O	1.985664	0.347583	0.438543
O37	O	1.115757	-0.191367	-0.402440
O38	O	1.365757	0.058633	-0.152440
O39	O	1.615757	0.308633	0.097560
O40	O	1.865757	0.558633	0.347560
O41	O	1.024671	-0.311430	-0.191375
O42	O	1.274671	-0.061430	0.058625
O43	O	1.524671	0.188570	0.308625
O44	O	1.774671	0.438570	0.558625
O45	O	0.904641	-0.311399	-0.311408
O46	O	1.154641	-0.061399	-0.061408
O47	O	1.404641	0.188601	0.188592
O48	O	1.654641	0.438601	0.438592
O49	O	1.024688	-0.402363	-0.522437
O50	O	1.274688	-0.152363	-0.272437
O51	O	1.524688	0.097637	-0.022437
O52	O	1.774688	0.347637	0.227563
O53	O	0.904604	-0.402356	-0.402355
O54	O	1.154604	-0.152356	-0.152355
O55	O	1.404604	0.097644	0.097645
O56	O	1.654604	0.347644	0.347645
O57	O	1.115710	-0.311412	-0.522473
O58	O	1.365710	-0.061412	-0.272473
O59	O	1.615710	0.188588	-0.022473
O60	O	1.865710	0.438588	0.227527
O61	O	1.115532	-0.522455	-0.311409
O62	O	1.365532	-0.272455	-0.061409
O63	O	1.615532	-0.022455	0.188591
O64	O	1.865532	0.227545	0.438591
O65	O	1.024587	-0.522432	-0.402356
O66	O	1.274587	-0.272432	-0.152356
O67	O	1.524587	-0.022432	0.097644
O68	O	1.774587	0.227568	0.347644
C69	C	0.877752	-0.356874	-0.356877
C70	C	1.127752	-0.106874	-0.106877
C71	C	1.377752	0.143126	0.143123
C72	C	1.627752	0.393126	0.393123
C73	C	0.795437	-0.356879	-0.356878
C74	C	1.045437	-0.106879	-0.106878
C75	C	1.295437	0.143121	0.143122
C76	C	1.545437	0.393121	0.393122
C77	C	0.496347	-0.356925	-0.356940
C78	C	0.746347	-0.106925	-0.106940
C79	C	0.996347	0.143075	0.143060
C80	C	1.246347	0.393075	0.393060
C81	C	0.527670	-0.299412	-0.299997
C82	C	0.777670	-0.049412	-0.049997
C83	C	1.027670	0.200588	0.200003
C84	C	1.277670	0.450588	0.450003
C85	C	0.613288	-0.299566	-0.299754
C86	C	0.863288	-0.049566	-0.049754
C87	C	1.113288	0.200434	0.200246
C88	C	1.363288	0.450434	0.450246
C89	C	0.644729	-0.356901	-0.356909
C90	C	0.894729	-0.106901	-0.106909
C91	C	1.144729	0.143099	0.143091
C92	C	1.394729	0.393099	0.393091
C93	C	0.613611	-0.434909	-0.335587
C94	C	0.863611	-0.184909	-0.085587
C95	C	1.113611	0.065091	0.164413
C96	C	1.363611	0.315091	0.414413
C97	C	0.527966	-0.434590	-0.335191
C98	C	0.777966	-0.184590	-0.085191
C99	C	1.027966	0.065410	0.164809
C100	C	1.277966	0.315410	0.414809
C101	C	0.527961	-0.337109	-0.435339
C102	C	0.777961	-0.087109	-0.185339
C103	C	1.027961	0.162891	0.064661
C104	C	1.277961	0.412891	0.314661
C105	C	0.613612	-0.335371	-0.434911
C106	C	0.863612	-0.085371	-0.184911
C107	C	1.113612	0.164629	0.065089
C108	C	1.363612	0.414629	0.315089
C109	C	0.728589	-0.356893	-0.356893
C110	C	0.978589	-0.106893	-0.106893
C111	C	1.228589	0.143107	0.143107
C112	C	1.478589	0.393107	0.393107
C113	C	0.412487	-0.356939	-0.356954
C114	C	0.662487	-0.106939	-0.106954
C115	C	0.912487	0.143061	0.143046
C116	C	1.162487	0.393061	0.393046
C117	C	1.070063	-0.549314	-0.356893
C118	C	1.320063	-0.299314	-0.106893
C119	C	1.570063	-0.049314	0.143107
C120	C	1.820063	0.200686	0.393107
C121	C	1.070088	-0.631628	-0.356909
C122	C	1.320088	-0.381628	-0.106909
C123	C	1.570088	-0.131628	0.143091
C124	C	1.820088	0.118372	0.393091
C125	C	1.070251	-0.930719	-0.356949
C126	C	1.320251	-0.680719	-0.106949
C127	C	1.570251	-0.430719	0.143051
C128	C	1.820251	-0.180719	0.393051
C129	C	1.013163	-0.899410	-0.414312
C130	C	1.263163	-0.649410	-0.164312
C131	C	1.513163	-0.399410	0.085688
C132	C	1.763163	-0.149410	0.335688
C133	C	1.012892	-0.813792	-0.414133
C134	C	1.262892	-0.563792	-0.164133
C135	C	1.512892	-0.313792	0.085867
C136	C	1.762892	-0.063792	0.335867
C137	C	1.070170	-0.782337	-0.356930
C138	C	1.320170	-0.532337	-0.106930
C139	C	1.570170	-0.282337	0.143070
C140	C	1.820170	-0.032337	0.393070
C141	C	1.049041	-0.813472	-0.278878
C142	C	1.299041	-0.563472	-0.028878
C143	C	1.549041	-0.313472	0.221122
C144	C	1.799041	-0.063472	0.471122
C145	C	1.048673	-0.899117	-0.279221
C146	C	1.298673	-0.649117	-0.029221
C147	C	1.548673	-0.399117	0.220779
C148	C	1.798673	-0.149117	0.470779
C149	C	1.148593	-0.899073	-0.376950
C150	C	1.398593	-0.649073	-0.126950
C151	C	1.648593	-0.399073	0.123050
C152	C	1.898593	-0.149073	0.373050
C153	C	1.148132	-0.813422	-0.378661
C154	C	1.398132	-0.563422	-0.128661
C155	C	1.648132	-0.313422	0.121339
C156	C	1.898132	-0.063422	0.371339
C157	C	1.070126	-0.698477	-0.356914
C158	C	1.320126	-0.448477	-0.106914
C159	C	1.570126	-0.198477	0.143086
C160	C	1.820126	0.051523	0.393086
C161	C	1.070293	-1.014579	-0.356959
C162	C	1.320293	-0.764579	-0.106959
C163	C	1.570293	-0.514579	0.143041
C164	C	1.820293	-0.264579	0.393041
C165	C	1.263324	-0.356934	-0.356954
C166	C	1.513324	-0.106934	-0.106954
C167	C	1.763324	0.143066	0.143046
C168	C	2.013324	0.393066	0.393046
C169	C	1.345638	-0.356948	-0.356971
C170	C	1.595638	-0.106948	-0.106971
C171	C	1.845638	0.143052	0.143029
C172	C	2.095638	0.393052	0.393029
C173	C	1.070205	-0.356885	-0.550077
C174	C	1.320205	-0.106885	-0.300077
C175	C	1.570205	0.143115	-0.050077
C176	C	1.820205	0.393115	0.199923
C177	C	1.070223	-0.356877	-0.632391
C178	C	1.320223	-0.106877	-0.382391
C179	C	1.570223	0.143123	-0.132391
C180	C	1.820223	0.393123	0.117609
C181	C	1.070282	-0.163742	-0.356953
C182	C	1.320282	0.086258	-0.106953
C183	C	1.570282	0.336258	0.143047
C184	C	1.820282	0.586258	0.393047
C185	C	1.070333	-0.081428	-0.356970
C186	C	1.320333	0.168572	-0.106970
C187	C	1.570333	0.418572	0.143030
C188	C	1.820333	0.668572	0.393030
C189	C	1.070266	-0.356738	-0.931482
C190	C	1.320266	-0.106738	-0.681482
C191	C	1.570266	0.143262	-0.431482
C192	C	1.820266	0.393262	-0.181482
C193	C	1.012801	-0.413780	-0.900134
C194	C	1.262801	-0.163780	-0.650134
C195	C	1.512801	0.086220	-0.400134
C196	C	1.762801	0.336220	-0.150134
C197	C	1.012956	-0.414045	-0.814516
C198	C	1.262956	-0.164045	-0.564516
C199	C	1.512956	0.085955	-0.314516
C200	C	1.762956	0.335955	-0.064516
C201	C	1.070244	-0.356807	-0.783100
C202	C	1.320244	-0.106807	-0.533100
C203	C	1.570244	0.143193	-0.283100
C204	C	1.820244	0.393193	-0.033100
C205	C	1.148270	-0.377998	-0.814206
C206	C	1.398270	-0.127998	-0.564206
C207	C	1.648270	0.122002	-0.314206
C208	C	1.898270	0.372002	-0.064206
C209	C	1.147949	-0.378372	-0.899851
C210	C	1.397949	-0.128372	-0.649851
C211	C	1.647949	0.121628	-0.399851
C212	C	1.897949	0.371628	-0.149851
C213	C	1.050385	-0.278379	-0.899905
C214	C	1.300385	-0.028379	-0.649905
C215	C	1.550385	0.221621	-0.399905
C216	C	1.800385	0.471621	-0.149905
C217	C	1.048649	-0.278832	-0.814254
C218	C	1.298649	-0.028832	-0.564254
C219	C	1.548649	0.221168	-0.314254
C220	C	1.798649	0.471168	-0.064254
C221	C	1.070237	-0.356845	-0.699240
C222	C	1.320237	-0.106845	-0.449240
C223	C	1.570237	0.143155	-0.199240
C224	C	1.820237	0.393155	0.050760
C225	C	1.070279	-0.356702	-1.015342
C226	C	1.320279	-0.106702	-0.765342
C227	C	1.570279	0.143298	-0.515342
C228	C	1.820279	0.393298	-0.265342
C229	C	1.070162	-0.356869	-0.164505
C230	C	1.320162	-0.106869	0.085495
C231	C	1.570162	0.143131	0.335495
C232	C	1.820162	0.393131	0.585495
C233	C	1.070287	-0.356668	-0.082191
C234	C	1.320287	-0.106668	0.167809
C235	C	1.570287	0.143332	0.417809
C236	C	1.820287	0.393332	0.667809
H237	H	0.507705	-0.378999	-0.477766
H238	H	0.757705	-0.128999	-0.227766
H239	H	1.007705	0.121001	0.022234
H240	H	1.257705	0.371001	0.272234
H241	H	0.507954	-0.451397	-0.277877
H242	H	0.757954	-0.201397	-0.027877
H243	H	1.007954	0.048603	0.222123
H244	H	1.257954	0.298603	0.472123
N245	N	0.935930	-0.396388	-0.927400
N246	N	1.185930	-0.146388	-0.677400
N247	N	1.435930	0.103612	-0.427400
N248	N	1.685930	0.353612	-0.177400
H249	H	0.916139	-0.439817	-0.956297
H250	H	1.166139	-0.189817	-0.706297
H251	H	1.416139	0.060183	-0.456297
H252	H	1.666139	0.310183	-0.206297
H253	H	0.902590	-0.386307	-0.883805
H254	H	1.152590	-0.136307	-0.633805
H255	H	1.402590	0.113693	-0.383805
H256	H	1.652590	0.363693	-0.133805
H257	H	0.633975	-0.478909	-0.375763
H258	H	0.883975	-0.228909	-0.125763
H259	H	1.133975	0.021091	0.124237
H260	H	1.383975	0.271091	0.374237
N261	N	0.500502	-0.493279	-0.387716
N262	N	0.750502	-0.243279	-0.137716
N263	N	1.000502	0.006721	0.112284
N264	N	1.250502	0.256721	0.362284
H265	H	0.469521	-0.469565	-0.427589
H266	H	0.719521	-0.219565	-0.177589
H267	H	0.969521	0.030435	0.072411
H268	H	1.219521	0.280435	0.322411
H269	H	0.544070	-0.519228	-0.410974
H270	H	0.794070	-0.269228	-0.160974
H271	H	1.044070	-0.019228	0.089026
H272	H	1.294070	0.230772	0.339026
N273	N	0.972595	-0.257655	-0.787315
N274	N	1.222595	-0.007655	-0.537315
N275	N	1.472595	0.242345	-0.287315
N276	N	1.722595	0.492345	-0.037315
H277	H	0.959012	-0.207457	-0.807530
H278	H	1.209012	0.042543	-0.557530
H279	H	1.459012	0.292543	-0.307530
H280	H	1.709012	0.542543	-0.057530
H281	H	0.935482	-0.295464	-0.804824
H282	H	1.185482	-0.045464	-0.554824
H283	H	1.435482	0.204536	-0.304824
H284	H	1.685482	0.454536	-0.054824
H285	H	1.025796	-0.471508	-0.921661
H286	H	1.275796	-0.221508	-0.671661
H287	H	1.525796	0.028492	-0.421661
H288	H	1.775796	0.278492	-0.171661
N289	N	1.030338	-0.490979	-0.787378
N290	N	1.280338	-0.240979	-0.537378
N291	N	1.530338	0.009021	-0.287378
N292	N	1.780338	0.259021	-0.037378
H293	H	1.037937	-0.524852	-0.831051
H294	H	1.287937	-0.274852	-0.581051
H295	H	1.537937	-0.024852	-0.331051
H296	H	1.787937	0.225148	-0.081051
H297	H	1.076778	-0.489715	-0.756498
H298	H	1.326778	-0.239715	-0.506498
H299	H	1.576778	0.010285	-0.256498
H300	H	1.826778	0.260285	-0.006498
H301	H	1.164804	-0.435654	-0.919836
H302	H	1.414804	-0.185654	-0.669836
H303	H	1.664804	0.064346	-0.419836
H304	H	1.914804	0.314346	-0.169836
N305	N	1.206594	-0.325743	-0.927331
N306	N	1.456594	-0.075743	-0.677331
N307	N	1.706594	0.174257	-0.427331
N308	N	1.956594	0.424257	-0.177331
H309	H	1.232541	-0.302405	-0.883806
H310	H	1.482541	-0.052405	-0.633806
H311	H	1.732541	0.197595	-0.383806
H312	H	1.982541	0.447595	-0.133806
H313	H	1.243638	-0.353721	-0.958274
H314	H	1.493638	-0.103721	-0.708274
H315	H	1.743638	0.146279	-0.458274
H316	H	1.993638	0.396279	-0.208274
N317	N	1.206512	-0.324692	-0.787270
N318	N	1.456512	-0.074692	-0.537270
N319	N	1.706512	0.175308	-0.287270
N320	N	1.956512	0.425308	-0.037270
H321	H	1.182822	-0.286203	-0.754563
H322	H	1.432822	-0.036203	-0.504563
H323	H	1.682822	0.213797	-0.254563
H324	H	1.932822	0.463797	-0.004563
H325	H	1.245159	-0.352541	-0.758247
H326	H	1.495159	-0.102541	-0.508247
H327	H	1.745159	0.147459	-0.258247
H328	H	1.995159	0.397459	-0.008247
H329	H	1.165415	-0.434671	-0.792765
H330	H	1.415415	-0.184671	-0.542765
H331	H	1.665415	0.065329	-0.292765
H332	H	1.915415	0.315329	-0.042765
N333	N	1.100046	-0.219545	-0.785931
N334	N	1.350046	0.030455	-0.535931
N335	N	1.600046	0.280455	-0.285931
N336	N	1.850046	0.530455	-0.035931
H337	H	1.125598	-0.194878	-0.828989
H338	H	1.375598	0.055122	-0.578989
H339	H	1.625598	0.305122	-0.328989
H340	H	1.875598	0.555122	-0.078989
H341	H	1.070701	-0.181590	-0.757464
H342	H	1.320701	0.068410	-0.507464
H343	H	1.570701	0.318410	-0.257464
H344	H	1.820701	0.568410	-0.007464
H345	H	1.026252	-0.919970	-0.472374
H346	H	1.276252	-0.669970	-0.222374
H347	H	1.526252	-0.419970	0.027626
H348	H	1.776252	-0.169970	0.277626
N349	N	0.976330	-0.252802	-0.928492
N350	N	1.226330	-0.002802	-0.678492
N351	N	1.476330	0.247198	-0.428492
N352	N	1.726330	0.497198	-0.178492
H353	H	0.954918	-0.291756	-0.962207
H354	H	1.204918	-0.041756	-0.712207
H355	H	1.454918	0.208244	-0.462207
H356	H	1.704918	0.458244	-0.212207
H357	H	0.941749	-0.244340	-0.885523
H358	H	1.191749	0.005660	-0.635523
H359	H	1.441749	0.255660	-0.385523
H360	H	1.691749	0.505660	-0.135523
N361	N	0.499406	-0.263054	-0.460985
N362	N	0.749406	-0.013054	-0.210985
N363	N	0.999406	0.236946	0.039015
N364	N	1.249406	0.486946	0.289015
H365	H	0.542352	-0.228436	-0.469486
H366	H	0.792352	0.021564	-0.219486
H367	H	1.042352	0.271564	0.030514
H368	H	1.292352	0.521564	0.280514
H369	H	0.471043	-0.269547	-0.508580
H370	H	0.721043	-0.019547	-0.258580
H371	H	0.971043	0.230453	-0.008580
H372	H	1.221043	0.480453	0.241420
H373	H	1.026111	-0.792740	-0.472007
H374	H	1.276111	-0.542740	-0.222007
H375	H	1.526111	-0.292740	0.027993
H376	H	1.776111	-0.042740	0.277993
H377	H	0.955448	-0.920990	-0.401230
H378	H	1.205448	-0.670990	-0.151230
H379	H	1.455448	-0.420990	0.098770
H380	H	1.705448	-0.170990	0.348770
H381	H	0.633956	-0.277966	-0.450989
H382	H	0.883956	-0.027966	-0.200989
H383	H	1.133956	0.222034	0.049011
H384	H	1.383956	0.472034	0.299011
H385	H	0.635017	-0.374209	-0.479611
H386	H	0.885017	-0.124209	-0.229611
H387	H	1.135017	0.125791	0.020389
H388	H	1.385017	0.375791	0.270389
H389	H	1.092240	-0.235880	-0.920179
H390	H	1.342240	0.014120	-0.670179
H391	H	1.592240	0.264120	-0.420179
H392	H	1.842240	0.514120	-0.170179
N393	N	0.641971	-0.457565	-0.260489
N394	N	0.891971	-0.207565	-0.010489
N395	N	1.141971	0.042435	0.239511
N396	N	1.391971	0.292435	0.489511
H397	H	0.674969	-0.417418	-0.240173
H398	H	0.924969	-0.167418	0.009827
H399	H	1.174969	0.082582	0.259827
H400	H	1.424969	0.332582	0.509827
H401	H	0.598855	-0.465514	-0.225956
H402	H	0.848855	-0.215514	0.024044
H403	H	1.098855	0.034486	0.274044
H404	H	1.348855	0.284486	0.524044
N405	N	0.641163	-0.222941	-0.317447
N406	N	0.891163	0.027059	-0.067447
N407	N	1.141163	0.277059	0.182553
N408	N	1.391163	0.527059	0.432553
H409	H	0.696960	-0.222895	-0.317320
H410	H	0.946960	0.027105	-0.067320
H411	H	1.196960	0.277105	0.182680
H412	H	1.446960	0.527105	0.432680
H413	H	0.622674	-0.207611	-0.367802
H414	H	0.872674	0.042389	-0.117802
H415	H	1.122674	0.292389	0.132198
H416	H	1.372674	0.542389	0.382198
N417	N	0.499139	-0.316395	-0.223452
N418	N	0.749139	-0.066395	0.026548
N419	N	0.999139	0.183605	0.276548
N420	N	1.249139	0.433605	0.526548
H421	H	0.470212	-0.272714	-0.204289
H422	H	0.720212	-0.022714	0.045711
H423	H	0.970212	0.227286	0.295711
H424	H	1.220212	0.477286	0.545711
H425	H	0.465993	-0.361247	-0.225437
H426	H	0.715993	-0.111247	0.024563
H427	H	0.965993	0.138753	0.274563
H428	H	1.215993	0.388753	0.524563
H429	H	0.992380	-0.792080	-0.261633
H430	H	1.242380	-0.542080	-0.011633
H431	H	1.492380	-0.292080	0.238367
H432	H	1.742380	-0.042080	0.488367
H433	H	0.633741	-0.312665	-0.241661
H434	H	0.883741	-0.062665	0.008339
H435	H	1.133741	0.187335	0.258339
H436	H	1.383741	0.437335	0.508339
N437	N	0.935977	-0.786721	-0.396577
N438	N	1.185977	-0.536721	-0.146577
N439	N	1.435977	-0.286721	0.103423
N440	N	1.685977	-0.036721	0.353423
H441	H	0.902118	-0.830424	-0.388921
H442	H	1.152118	-0.580424	-0.138921
H443	H	1.402118	-0.330424	0.111079
H444	H	1.652118	-0.080424	0.361079
H445	H	0.937308	-0.755858	-0.350125
H446	H	1.187308	-0.505858	-0.100125
H447	H	1.437308	-0.255858	0.149875
H448	H	1.687308	-0.005858	0.399875
N449	N	1.174116	-0.927629	-0.451054
N450	N	1.424116	-0.677629	-0.201054
N451	N	1.674116	-0.427629	0.048946
N452	N	1.924116	-0.177629	0.298946
H453	H	1.135149	-0.961374	-0.472412
H454	H	1.385149	-0.711374	-0.222412
H455	H	1.635149	-0.461374	0.027588
H456	H	1.885149	-0.211374	0.277588
H457	H	1.182549	-0.884648	-0.485638
H458	H	1.432549	-0.634648	-0.235638
H459	H	1.682549	-0.384648	0.014362
H460	H	1.932549	-0.134648	0.264362
H461	H	0.991406	-0.919153	-0.262279
H462	H	1.241406	-0.669153	-0.012279
H463	H	1.491406	-0.419153	0.237721
H464	H	1.741406	-0.169153	0.487721
N465	N	1.169246	-0.786468	-0.454748
N466	N	1.419246	-0.536468	-0.204748
N467	N	1.669246	-0.286468	0.045252
N468	N	1.919246	-0.036468	0.295252
H469	H	1.128487	-0.754252	-0.475061
H470	H	1.378487	-0.504252	-0.225061
H471	H	1.628487	-0.254252	0.024939
H472	H	1.878487	-0.004252	0.274939
H473	H	1.216483	-0.756925	-0.451572
H474	H	1.466483	-0.506925	-0.201572
H475	H	1.716483	-0.256925	0.048428
H476	H	1.966483	-0.006925	0.298428
H477	H	0.507099	-0.241388	-0.313215
H478	H	0.757099	0.008612	-0.063215
H479	H	1.007099	0.258612	0.186785
H480	H	1.257099	0.508612	0.436785
N481	N	1.101355	-0.926561	-0.220677
N482	N	1.351355	-0.676561	0.029323
N483	N	1.601355	-0.426561	0.279323
N484	N	1.851355	-0.176561	0.529323
H485	H	1.124712	-0.883022	-0.194759
H486	H	1.374712	-0.633022	0.055241
H487	H	1.624712	-0.383022	0.305241
H488	H	1.874712	-0.133022	0.555241
H489	H	1.073415	-0.957536	-0.183593
H490	H	1.323415	-0.707536	0.066407
H491	H	1.573415	-0.457536	0.316407
H492	H	1.823415	-0.207536	0.566407
N493	N	1.102381	-0.786489	-0.220714
N494	N	1.352381	-0.536489	0.029286
N495	N	1.602381	-0.286489	0.279286
N496	N	1.852381	-0.036489	0.529286
H497	H	1.140847	-0.753743	-0.244457
H498	H	1.390847	-0.503743	0.005543
H499	H	1.640847	-0.253743	0.255543
H500	H	1.890847	-0.003743	0.505543
H501	H	1.074549	-0.757495	-0.182019
H502	H	1.324549	-0.507495	0.067981
H503	H	1.574549	-0.257495	0.317981
H504	H	1.824549	-0.007495	0.567981
N505	N	1.207459	-0.785054	-0.327361
N506	N	1.457459	-0.535054	-0.077361
N507	N	1.707459	-0.285054	0.172639
N508	N	1.957459	-0.035054	0.422639
H509	H	1.184537	-0.751503	-0.289132
H510	H	1.434537	-0.501503	-0.039132
H511	H	1.684537	-0.251503	0.210868
H512	H	1.934537	-0.001503	0.460868
H513	H	1.232132	-0.828133	-0.301911
H514	H	1.482132	-0.578133	-0.051911
H515	H	1.732132	-0.328133	0.198089
H516	H	1.982132	-0.078133	0.448089
H517	H	1.191125	-0.919319	-0.335170
H518	H	1.441125	-0.669319	-0.085170
H519	H	1.691125	-0.419319	0.164830
H520	H	1.941125	-0.169319	0.414830
N521	N	0.936317	-0.396455	-0.786666
N522	N	1.186317	-0.146455	-0.536666
N523	N	1.436317	0.103545	-0.286666
N524	N	1.686317	0.353545	-0.036666
H525	H	0.900421	-0.434880	-0.805335
H526	H	1.150421	-0.184880	-0.555335
H527	H	1.400421	0.065120	-0.305335
H528	H	1.650421	0.315120	-0.055335
H529	H	0.936326	-0.396574	-0.730871
H530	H	1.186326	-0.146574	-0.480871
H531	H	1.436326	0.103426	-0.230871
H532	H	1.686326	0.353426	0.019129
