data_functionalizedCrystal
_audit_creation_method	'MofGen! by Chris Wilmer'
_symmetry_space_group_name_H-M	'P1'
_symmetry_Int_Tables_number	1
_symmetry_cell_setting	triclinic
loop_
_symmetry_equiv_pos_as_xyz
  x,y,z
_cell_length_a	15.297327
_cell_length_b	19.077241
_cell_length_c	19.076919
_cell_angle_alpha	90.113904
_cell_angle_beta	101.510342
_cell_angle_gamma	77.647063
loop_
_atom_site_label
_atom_site_type_symbol
_atom_site_fract_x
_atom_site_fract_y
_atom_site_fract_z
Zn1	Zn	-0.332118	-1.011713	-0.483504
Zn2	Zn	-0.478730	-0.995791	-0.384952
Zn3	Zn	-0.331635	-0.898996	-0.361219
Zn4	Zn	-0.490932	-0.871899	-0.499265
O5	O	-0.408354	-0.944600	-0.432235
O6	O	-0.346661	-1.108622	-0.473767
O7	O	-0.453909	-0.987628	-0.282787
O8	O	-0.203675	-0.931952	-0.360911
O9	O	-0.454376	-1.096925	-0.401361
O10	O	-0.204030	-1.014764	-0.450754
O11	O	-0.345839	-0.916513	-0.265350
O12	O	-0.357672	-0.796380	-0.376195
O13	O	-0.475174	-0.885769	-0.596191
O14	O	-0.474706	-0.776472	-0.477617
O15	O	-0.358493	-0.988489	-0.584611
O16	O	-0.608372	-0.961354	-0.416645
O17	O	-0.617338	-0.870331	-0.500630
C18	C	-0.417461	-0.760751	-0.426041
C19	C	-0.421381	-0.682096	-0.423411
C20	C	-0.367237	-0.651218	-0.459954
C21	C	-0.370915	-0.577314	-0.457477
C22	C	-0.428742	-0.534288	-0.418459
C23	C	-0.482888	-0.565171	-0.381912
C24	C	-0.479204	-0.639074	-0.384386
C25	C	-0.445756	-0.312608	-0.407005
C26	C	-0.449438	-0.238700	-0.404535
C27	C	-0.337463	-0.250848	-0.480099
C28	C	-0.333789	-0.324752	-0.482573
C29	C	-0.387931	-0.355629	-0.446023
N30	N	-0.432505	-0.458745	-0.415927
N31	N	-0.384163	-0.431171	-0.448551
C32	C	-0.646050	-0.911193	-0.462939
C33	C	-0.747736	-0.896964	-0.476100
C34	C	-1.015573	-1.046571	-0.338421
C35	C	-0.920034	-1.059939	-0.326051
C36	C	-0.876955	-1.019197	-0.363563
C37	C	-0.929424	-0.965084	-0.413445
C38	C	-1.024972	-0.951711	-0.425812
C39	C	-0.886354	-0.924336	-0.450954
C40	C	-0.938822	-0.870223	-0.500836
C41	C	-1.034361	-0.856853	-0.513201
C42	C	-1.077440	-0.897596	-0.475689
C43	C	-0.790805	-0.937709	-0.438587
C44	C	-0.800204	-0.842849	-0.525978
C45	C	-0.895743	-0.829481	-0.538347
C46	C	-0.169729	-0.978156	-0.401427
C47	C	-0.068042	-0.992456	-0.388298
C48	C	-0.418248	-0.935883	-0.616793
C49	C	-0.422465	-0.932168	-0.695441
C50	C	-0.399206	-0.129168	-0.438447
C51	C	-0.395294	-0.207822	-0.441078
C52	C	-0.363699	-0.983901	-0.726362
C53	C	-0.367658	-0.980402	-0.800260
C54	C	-0.430388	-0.925173	-0.843235
C55	C	-0.489156	-0.873435	-0.812309
C56	C	-0.485192	-0.876931	-0.738412
C57	C	-0.448753	-0.908979	-1.064888
C58	C	-0.452714	-0.905488	-1.138790
C59	C	-0.331215	-1.012455	-1.126736
C60	C	-0.327260	-1.015949	-1.052839
C61	C	-0.386025	-0.964209	-1.021918
N62	N	-0.434438	-0.921597	-0.918770
N63	N	-0.381970	-0.967783	-0.946384
C64	C	-0.398430	-0.953333	-0.248387
C65	C	-0.393948	-0.957221	-0.169711
H66	H	-0.489844	-0.337739	-0.377244
H67	H	-0.319807	-1.022530	-0.825432
H68	H	-0.533036	-0.834799	-0.713236
O69	O	-0.753761	-0.798894	-0.566443
H70	H	-0.710549	-0.834930	-0.597902
O71	O	-0.556808	-0.813862	-0.858660
H72	H	-0.627250	-0.816563	-0.854152
O73	O	-0.279056	-0.217545	-0.519506
H74	H	-0.323673	-0.176415	-0.559623
H75	H	-0.276182	-1.060924	-1.017853
O76	O	-0.267808	-1.068242	-1.160079
H77	H	-0.281088	-1.056528	-1.218682
H78	H	-0.320150	-0.686244	-0.491729
O79	O	-0.863442	-1.118305	-0.272261
H80	H	-0.909446	-1.144396	-0.248261
O81	O	-0.545254	-0.518765	-0.339825
H82	H	-0.582277	-0.552655	-0.314824
O83	O	-0.520369	-0.845913	-1.185146
H84	H	-0.560560	-0.810517	-1.151230
H85	H	-0.496616	-0.866857	-1.039724
H86	H	-0.326827	-0.552176	-0.487235
H87	H	-1.077079	-0.812783	-0.553810
H88	H	-0.312621	-1.028877	-0.691377
H89	H	-1.050657	-1.079734	-0.307880
H90	H	-0.799162	-1.030084	-0.353488
O91	O	-0.271404	-0.371162	-0.524643
H92	H	-0.234362	-0.337275	-0.549630
H93	H	-0.496532	-0.203669	-0.372763
H94	H	-0.523293	-0.664214	-0.354628
H95	H	-1.155236	-0.886716	-0.485760
O96	O	-0.734215	-0.996079	-0.384800
H97	H	-0.750215	-0.984048	-0.331227
H98	H	-0.938477	-0.785421	-0.578962
