data_functionalizedCrystal
_audit_creation_method	'MofGen! by Chris Wilmer'
_symmetry_space_group_name_H-M	'P1'
_symmetry_Int_Tables_number	1
_symmetry_cell_setting	triclinic
loop_
_symmetry_equiv_pos_as_xyz
  x,y,z
_cell_length_a	19.288840
_cell_length_b	13.339070
_cell_length_c	17.766277
_cell_angle_alpha	89.997794
_cell_angle_beta	89.983415
_cell_angle_gamma	99.377655
loop_
_atom_site_label
_atom_site_type_symbol
_atom_site_fract_x
_atom_site_fract_y
_atom_site_fract_z
O1	O	0.945911	0.125963	-0.062721
O2	O	1.445911	0.625963	0.437279
O3	O	0.746967	0.142998	-0.062695
O4	O	1.246967	0.642998	0.437305
O5	O	0.823607	-0.012676	-0.062703
O6	O	1.323607	0.487324	0.437297
O7	O	0.869271	0.281637	-0.062713
O8	O	1.369271	0.781637	0.437287
O9	O	0.823587	-0.012684	0.062486
O10	O	1.323587	0.487316	0.562486
O11	O	0.746947	0.142990	0.062494
O12	O	1.246947	0.642990	0.562494
O13	O	0.945891	0.125955	0.062468
O14	O	1.445891	0.625955	0.562468
Cu15	Cu	0.846417	0.134472	0.073911
Cu16	Cu	1.346417	0.634472	0.573911
Cu17	Cu	0.846441	0.134481	-0.074139
Cu18	Cu	1.346441	0.634481	0.425861
O19	O	0.869251	0.281629	0.062475
O20	O	1.369251	0.781629	0.562475
C21	C	0.720974	0.142450	-0.000097
C22	C	1.220974	0.642450	0.499903
C23	C	0.643552	0.140817	-0.000087
C24	C	1.143552	0.640817	0.499913
C25	C	0.607206	0.140037	-0.068329
C26	C	1.107206	0.640037	0.431671
C27	C	0.534458	0.138492	-0.068338
C28	C	1.034458	0.638492	0.431662
C29	C	0.498056	0.137706	-0.000102
C30	C	0.998056	0.637706	0.499898
C31	C	0.534411	0.138492	0.068150
C32	C	1.034411	0.638492	0.568150
C33	C	0.607159	0.140048	0.068157
C34	C	1.107159	0.640048	0.568157
C35	C	0.376704	0.076038	0.052169
C36	C	0.876704	0.576038	0.552169
C37	C	0.303957	0.074477	0.052159
C38	C	0.803957	0.574477	0.552159
C39	C	0.273679	0.132913	-0.000121
C40	C	0.773679	0.632913	0.499879
C41	C	0.316155	0.192898	-0.052404
C42	C	0.816155	0.692898	0.447596
C43	C	0.388903	0.194453	-0.052397
C44	C	0.888903	0.694453	0.447603
C45	C	0.419174	0.136020	-0.000102
C46	C	0.919174	0.636020	0.499898
C47	C	0.158452	0.130459	-0.068378
C48	C	0.658452	0.630459	0.431622
C49	C	0.085703	0.128919	-0.068384
C50	C	0.585703	0.628919	0.431616
C51	C	0.085656	0.128910	0.068106
C52	C	0.585656	0.628910	0.568106
C53	C	0.158404	0.130459	0.068110
C54	C	0.658404	0.630459	0.568110
C55	C	0.194797	0.131228	-0.000134
C56	C	0.694797	0.631228	0.499866
C57	C	0.815883	-0.050333	-0.000108
C58	C	1.315883	0.449667	0.499892
C59	C	0.792890	-0.162527	-0.000108
C60	C	1.292890	0.337473	0.499892
C61	C	0.971668	-0.528158	-0.000131
C62	C	1.471668	-0.028158	0.499869
C63	C	0.993273	-0.422747	-0.000127
C64	C	1.493273	0.077253	0.499873
C65	C	0.943179	-0.357687	-0.000123
C66	C	1.443179	0.142313	0.499877
C67	C	0.871477	-0.398048	-0.000122
C68	C	1.371477	0.101952	0.499878
C69	C	0.849870	-0.503470	-0.000120
C70	C	1.349870	-0.003470	0.499880
C71	C	0.821381	-0.332999	-0.000112
C72	C	1.321381	0.167001	0.499888
C73	C	0.749679	-0.373360	-0.000111
C74	C	1.249679	0.126640	0.499889
C75	C	0.728075	-0.478772	-0.000110
C76	C	1.228075	0.021228	0.499890
C77	C	0.778169	-0.543832	-0.000114
C78	C	1.278169	-0.043832	0.499886
C79	C	0.842988	-0.227577	-0.000113
C80	C	1.342988	0.272423	0.499887
C81	C	0.721190	-0.202889	-0.000102
C82	C	1.221190	0.297111	0.499898
C83	C	0.699585	-0.308300	-0.000107
C84	C	1.199585	0.191700	0.499893
C85	C	0.971883	0.126503	-0.000132
C86	C	1.471883	0.626503	0.499868
C87	C	1.049306	0.128136	-0.000147
C88	C	1.549306	0.628136	0.499853
C89	C	0.876975	0.319286	-0.000120
C90	C	1.376975	0.819286	0.499880
C91	C	0.899967	0.431480	-0.000125
C92	C	1.399967	0.931480	0.499875
N93	N	0.846405	0.134465	0.178042
N94	N	1.346405	0.634465	0.678042
N95	N	0.846457	0.134480	-0.178269
N96	N	1.346457	0.634480	0.321731
C97	C	0.880363	0.065566	0.217425
C98	C	1.380363	0.565566	0.717425
C99	C	0.880366	0.065561	0.296227
C100	C	1.380366	0.565561	0.796227
C101	C	0.846421	0.134473	0.335642
C102	C	1.346421	0.634473	0.835642
C103	C	0.812456	0.203377	0.296249
C104	C	1.312456	0.703377	0.796249
C105	C	0.812448	0.203373	0.217449
C106	C	1.312448	0.703373	0.717449
C107	C	0.855068	0.226564	0.460478
C108	C	1.355068	0.726564	0.960478
C109	C	0.855082	0.226570	0.539277
C110	C	1.355082	0.726570	1.039277
C111	C	0.846442	0.134485	0.578689
C112	C	1.346442	0.634485	1.078689
C113	C	0.837803	0.042390	0.539292
C114	C	1.337803	0.542390	1.039292
C115	C	0.837795	0.042386	0.460492
C116	C	1.337795	0.542386	0.960492
C117	C	0.846426	0.134484	0.421088
C118	C	1.346426	0.634484	0.921088
C119	C	0.880405	0.065575	0.703518
C120	C	1.380405	0.565575	1.203518
C121	C	0.880403	0.065569	0.782321
C122	C	1.380403	0.565569	1.282321
C123	C	0.812498	0.203393	0.782342
C124	C	1.312498	0.703393	1.282342
C125	C	0.812495	0.203391	0.703540
C126	C	1.312495	0.703391	1.203540
C127	C	0.846452	0.134483	0.664133
C128	C	1.346452	0.634483	1.164133
H129	H	0.291506	0.240486	-0.094973
H130	H	0.791506	0.740486	0.405027
H131	H	0.056019	0.128276	0.123666
H132	H	0.556019	0.628276	0.623666
H133	H	0.401349	0.028450	0.094746
H134	H	0.901349	0.528450	0.594746
H135	H	0.960774	-0.271857	-0.000119
H136	H	1.460774	0.228143	0.499881
Cl137	Cl	0.204207	0.131436	-0.154168
Cl138	Cl	0.704207	0.631436	0.345832
Cl139	Cl	0.865947	0.342344	0.588795
Cl140	Cl	1.365947	0.842344	1.088795
Cl141	Cl	0.658210	-0.121107	-0.000092
Cl142	Cl	1.158210	0.378893	0.499908
H143	H	0.784846	0.259499	0.671472
H144	H	1.284846	0.759499	1.171472
Cl145	Cl	0.488650	0.137511	0.153933
Cl146	Cl	0.988650	0.637511	0.653933
Cl147	Cl	0.652852	0.141027	0.153954
Cl148	Cl	1.152852	0.641027	0.653954
Cl149	Cl	0.933124	-0.176850	-0.000114
Cl150	Cl	1.433124	0.323150	0.499886
H151	H	0.187996	0.131087	0.123680
H152	H	0.687996	0.631087	0.623680
H153	H	0.908052	0.009458	0.814388
H154	H	1.408052	0.509458	1.314388
H155	H	1.051653	-0.389892	-0.000127
H156	H	1.551653	0.110108	0.499873
H157	H	0.908011	0.009455	0.185342
H158	H	1.408011	0.509455	0.685342
H159	H	0.636833	0.140664	-0.123899
H160	H	1.136833	0.640664	0.376101
H161	H	0.908052	0.009463	0.671431
H162	H	1.408052	0.509463	1.171431
Cl163	Cl	0.923060	-0.021062	0.345746
Cl164	Cl	1.423060	0.478938	0.845746
H165	H	0.269377	0.025628	0.094727
H166	H	0.769377	0.525628	0.594727
Cl167	Cl	0.826928	-0.073383	0.410967
Cl168	Cl	1.326928	0.426617	0.910967
Cl169	Cl	0.637935	-0.529510	-0.000098
Cl170	Cl	1.137935	-0.029510	0.499902
Cl171	Cl	0.826947	-0.073382	0.588830
Cl172	Cl	1.326947	0.426618	1.088830
H173	H	0.056112	0.128290	-0.123957
H174	H	0.556112	0.628290	0.376043
Cl175	Cl	1.034634	-0.609950	-0.000123
Cl176	Cl	1.534634	-0.109950	0.499877
H177	H	0.760582	-0.629668	-0.000121
H178	H	1.260582	-0.129668	0.499879
Cl179	Cl	0.609447	-0.359054	-0.000107
Cl180	Cl	1.109447	0.140946	0.499893
Cl181	Cl	0.769818	0.290018	0.831887
Cl182	Cl	1.269818	0.790018	1.331887
Cl183	Cl	0.865996	0.342342	0.410939
Cl184	Cl	1.365996	0.842342	0.910939
H185	H	0.784816	0.259484	0.328345
H186	H	1.284816	0.759484	0.828345
H187	H	0.784794	0.259479	0.185382
H188	H	1.284794	0.759479	0.685382
H189	H	0.423485	0.243298	-0.094965
H190	H	0.923485	0.743298	0.405035
Cl191	Cl	0.488757	0.137510	-0.154135
Cl192	Cl	0.988757	0.637510	0.345865
