data_functionalizedCrystal
_audit_creation_method	'MofGen! by Chris Wilmer'
_symmetry_space_group_name_H-M	'P1'
_symmetry_Int_Tables_number	1
_symmetry_cell_setting	triclinic
loop_
_symmetry_equiv_pos_as_xyz
  x,y,z
_cell_length_a	19.077212
_cell_length_b	12.594509
_cell_length_c	19.077068
_cell_angle_alpha	87.734314
_cell_angle_beta	85.291979
_cell_angle_gamma	87.674881
loop_
_atom_site_label
_atom_site_type_symbol
_atom_site_fract_x
_atom_site_fract_y
_atom_site_fract_z
Zn1	Zn	1.066475	-0.681199	0.237446
Zn2	Zn	1.061642	-0.510067	0.355346
Zn3	Zn	0.948580	-0.496335	0.242198
Zn4	Zn	0.943811	-0.681103	0.360024
O5	O	1.005127	-0.592176	0.298754
O6	O	1.164487	-0.664285	0.249139
O7	O	1.046617	-0.359299	0.340368
O8	O	0.968237	-0.515151	0.142916
O9	O	1.160936	-0.538555	0.335760
O10	O	1.054854	-0.650970	0.139424
O11	O	0.963551	-0.349211	0.257239
O12	O	0.849295	-0.515058	0.261775
O13	O	0.960110	-0.830061	0.343732
O14	O	0.845791	-0.650806	0.348340
O15	O	1.050231	-0.830132	0.253675
O16	O	1.041994	-0.538462	0.454619
O17	O	0.955424	-0.664121	0.458055
C18	C	0.821964	-0.581432	0.306081
C19	C	0.743605	-0.576862	0.309233
C20	C	0.302328	-0.544132	0.331809
C21	C	0.375955	-0.548418	0.328843
C22	C	0.414616	-0.616137	0.282336
C23	C	0.379647	-0.679566	0.238785
C24	C	0.306022	-0.675274	0.241747
C25	C	0.635010	-0.635999	0.268645
C26	C	0.708641	-0.640289	0.265688
C27	C	0.704943	-0.509138	0.355745
C28	C	0.631317	-0.504857	0.358706
C29	C	0.596354	-0.568282	0.315153
N30	N	0.489874	-0.620522	0.279305
N31	N	0.521098	-0.563891	0.318181
C32	C	1.005178	-0.869796	0.298695
C33	C	1.005199	-0.988102	0.298670
C34	C	0.956214	-1.128078	0.347592
C35	C	0.941574	-1.052533	0.283994
C36	C	1.019808	-1.062073	0.362262
C37	C	0.990571	-1.123336	0.234949
C38	C	1.068833	-1.132886	0.313260
C39	C	1.054219	-1.057372	0.249617
C40	C	1.189006	-0.602963	0.291398
C41	C	1.267364	-0.607559	0.288263
C42	C	0.997686	-0.602795	0.481916
C43	C	0.994567	-0.607378	0.560270
C44	C	1.005120	-0.315635	0.298760
C45	C	1.005243	-0.197327	0.298580
C46	C	1.012617	-0.581540	0.114876
C47	C	1.015808	-0.577007	0.036518
C48	C	1.038209	-0.544165	0.595268
C49	C	1.035280	-0.548481	0.668890
C50	C	0.988704	-0.616006	0.707515
C51	C	0.945061	-0.679226	0.672512
C52	C	0.947994	-0.674914	0.598891
C53	C	0.975098	-0.635915	0.927894
C54	C	0.972166	-0.640220	1.001520
C55	C	1.062387	-0.509476	0.997894
C56	C	1.065313	-0.505166	0.924271
C57	C	1.021672	-0.568390	0.889275
N58	N	0.985708	-0.620417	0.782769
N59	N	1.024673	-0.563984	0.814022
H60	H	0.411131	-0.734700	0.200915
H61	H	0.606553	-0.687650	0.233184
H62	H	1.095664	-1.026521	0.208162
H63	H	0.599844	-0.449711	0.396577
H64	H	1.122612	-1.168048	0.325662
O65	O	1.034450	-1.029909	0.426521
C66	C	0.999293	-1.029291	0.550750
C67	C	0.982644	-1.065798	0.478021
H68	H	0.957410	-1.058273	0.592405
H69	H	1.053100	-1.063736	0.563682
H70	H	0.999673	-0.938761	0.549995
H71	H	0.982227	-1.156320	0.478722
H72	H	0.928849	-1.031275	0.465118
H73	H	1.076133	-0.489174	0.563825
O74	O	0.927001	-0.705977	1.039009
C75	C	0.891806	-0.886288	1.062834
C76	C	0.943007	-0.811950	1.020343
H77	H	0.904719	-0.971980	1.047747
H78	H	0.897211	-0.878593	1.121471
H79	H	0.835543	-0.863306	1.050703
H80	H	0.999291	-0.834882	1.032414
H81	H	0.937541	-0.819656	0.961718
H82	H	0.887779	-1.017395	0.271612
H83	H	0.277555	-0.726920	0.206285
O84	O	0.932801	-0.697440	0.893873
C85	C	0.926563	-0.835671	0.811053
C86	C	0.974550	-0.766078	0.849547
H87	H	0.960297	-0.891166	0.775196
H88	H	0.892784	-0.884739	0.851279
H89	H	0.891072	-0.782564	0.778148
H90	H	1.010083	-0.819106	0.882451
H91	H	1.008280	-0.717001	0.809285
O92	O	1.077698	-0.486967	0.702777
C93	C	1.167519	-0.356872	0.691409
C94	C	1.119505	-0.426463	0.652945
H95	H	1.201342	-0.307954	0.651137
H96	H	1.133831	-0.301236	0.727208
H97	H	1.202965	-0.409974	0.724364
H98	H	1.084050	-0.373445	0.619952
H99	H	1.153235	-0.482108	0.617189
H100	H	0.907141	-0.734210	0.703966
H101	H	0.914743	-1.159120	0.388952
H102	H	0.978171	-1.150270	0.181119
H103	H	0.912457	-0.726390	0.570397
H104	H	1.103238	-0.450182	0.892824
O105	O	0.738984	-0.447679	0.398077
C106	C	0.818215	-0.443476	0.489929
C107	C	0.779720	-0.513209	0.442020
H108	H	0.851147	-0.496430	0.525480
H109	H	0.854024	-0.388056	0.456165
H110	H	0.777924	-0.394311	0.523646
H111	H	0.819960	-0.562440	0.408296
H112	H	0.743898	-0.568562	0.475825
O113	O	0.264884	-0.478257	0.377006
C114	C	0.268995	-0.348672	0.466046
C115	C	0.311484	-0.423213	0.414881
H116	H	0.306653	-0.304165	0.496692
H117	H	0.235838	-0.289141	0.435054
H118	H	0.233030	-0.397591	0.504307
H119	H	0.347488	-0.374382	0.376608
H120	H	0.344596	-0.482747	0.445919
O121	O	0.409992	-0.486962	0.371180
C122	C	0.489218	-0.482772	0.463037
C123	C	0.450729	-0.552498	0.415120
H124	H	0.522151	-0.535729	0.498585
H125	H	0.525027	-0.427341	0.429280
H126	H	0.448924	-0.433616	0.496756
H127	H	0.490972	-0.601719	0.381392
H128	H	0.414908	-0.607860	0.448918
H129	H	0.740117	-0.695432	0.227810
O130	O	1.104759	-0.448184	1.031999
C131	C	1.140212	-0.396851	1.143810
C132	C	1.092190	-0.466335	1.105276
H133	H	1.130057	-0.411485	1.203061
H134	H	1.197640	-0.418114	1.127048
H135	H	1.128455	-0.309449	1.129842
H136	H	1.103884	-0.553757	1.119224
H137	H	1.034777	-0.444982	1.122041
