data_functionalizedCrystal
_audit_creation_method	'MofGen! by Chris Wilmer'
_symmetry_space_group_name_H-M	'P1'
_symmetry_Int_Tables_number	1
_symmetry_cell_setting	triclinic
loop_
_symmetry_equiv_pos_as_xyz
  x,y,z
_cell_length_a	21.395364
_cell_length_b	11.169416
_cell_length_c	21.395355
_cell_angle_alpha	89.988582
_cell_angle_beta	89.975448
_cell_angle_gamma	90.025100
loop_
_atom_site_label
_atom_site_type_symbol
_atom_site_fract_x
_atom_site_fract_y
_atom_site_fract_z
Zn1	Zn	0.957949	-0.477467	-0.354292
Zn2	Zn	1.457949	0.022533	0.145708
Zn3	Zn	0.957889	-0.678138	-0.249528
Zn4	Zn	1.457889	-0.178138	0.250472
Zn5	Zn	0.853164	-0.477520	-0.249529
Zn6	Zn	1.353164	0.022480	0.250471
Zn7	Zn	0.853170	-0.678159	-0.354268
Zn8	Zn	1.353170	-0.178159	0.145732
O9	O	0.905543	-0.577821	-0.301904
O10	O	1.405543	-0.077821	0.198096
O11	O	1.045619	-0.504056	-0.340405
O12	O	1.545619	-0.004056	0.159595
O13	O	0.943969	-0.651539	-0.161850
O14	O	1.443969	-0.151539	0.338150
O15	O	0.867086	-0.309563	-0.263437
O16	O	1.367086	0.190437	0.236563
O17	O	1.045575	-0.651488	-0.263435
O18	O	1.545575	-0.151488	0.236565
O19	O	0.944071	-0.309525	-0.340406
O20	O	1.444071	0.190475	0.159594
O21	O	0.867028	-0.504145	-0.161851
O22	O	1.367028	-0.004145	0.338149
O23	O	0.765487	-0.504166	-0.263413
O24	O	1.265487	-0.004166	0.236587
O25	O	0.867097	-0.651524	-0.441949
O26	O	1.367097	-0.151524	0.058051
O27	O	0.765492	-0.651575	-0.340365
O28	O	1.265492	-0.151575	0.159635
O29	O	0.944078	-0.504077	-0.441967
O30	O	1.444078	-0.004077	0.058033
O31	O	0.943975	-0.846091	-0.263411
O32	O	1.443975	-0.346091	0.236589
O33	O	0.867039	-0.846106	-0.340363
O34	O	1.367039	-0.346106	0.159637
C35	C	0.742755	-0.577880	-0.301887
C36	C	1.242755	-0.077880	0.198113
C37	C	0.673114	-0.577933	-0.301894
C38	C	1.173114	-0.077933	0.198106
C39	C	0.640446	-0.501291	-0.342034
C40	C	1.140446	-0.001291	0.157966
C41	C	0.575011	-0.501259	-0.342037
C42	C	1.075011	-0.001259	0.157963
C43	C	0.542246	-0.577891	-0.301906
C44	C	1.042246	-0.077891	0.198094
C45	C	0.574921	-0.654539	-0.261757
C46	C	1.074921	-0.154539	0.238243
C47	C	0.640356	-0.654560	-0.261752
C48	C	1.140356	-0.154560	0.238248
C49	C	0.438542	-0.685974	-0.296875
C50	C	0.938542	-0.185974	0.203125
C51	C	0.373109	-0.685955	-0.296885
C52	C	0.873109	-0.185955	0.203115
C53	C	0.340425	-0.577825	-0.301919
C54	C	0.840425	-0.077825	0.198081
C55	C	0.373182	-0.469711	-0.306957
C56	C	0.873182	0.030289	0.193043
C57	C	0.438616	-0.469732	-0.306951
C58	C	0.938616	0.030268	0.193049
C59	C	0.471293	-0.577876	-0.301907
C60	C	0.971293	-0.077876	0.198093
C61	C	0.236805	-0.501142	-0.342064
C62	C	0.736805	-0.001142	0.157936
C63	C	0.171368	-0.501108	-0.342062
C64	C	0.671368	-0.001108	0.157938
C65	C	0.171280	-0.654398	-0.261786
C66	C	0.671280	-0.154398	0.238214
C67	C	0.236715	-0.654421	-0.261785
C68	C	0.736715	-0.154421	0.238215
C69	C	0.269474	-0.577795	-0.301928
C70	C	0.769474	-0.077795	0.198072
C71	C	0.905519	-0.889646	-0.301898
C72	C	1.405519	-0.389646	0.198102
C73	C	0.905566	-1.023046	-0.301917
C74	C	1.405566	-0.523046	0.198083
C75	C	1.068966	-0.577763	-0.301922
C76	C	1.568966	-0.077763	0.198078
C77	C	1.138607	-0.577739	-0.301930
C78	C	1.638607	-0.077739	0.198070
C79	C	0.905595	-0.577797	-0.465328
C80	C	1.405595	-0.077797	0.034672
C81	C	0.905617	-0.577786	-0.534969
C82	C	1.405617	-0.077786	-0.034969
C83	C	0.905584	-0.264779	-0.301924
C84	C	1.405584	0.235221	0.198076
C85	C	0.905602	-0.131379	-0.301933
C86	C	1.405602	0.368621	0.198067
C87	C	0.945699	-0.501007	-0.567692
C88	C	1.445699	-0.001007	-0.067692
C89	C	0.945698	-0.500956	-0.633128
C90	C	1.445698	-0.000956	-0.133128
C91	C	0.905622	-0.577705	-0.665837
C92	C	1.405622	-0.077705	-0.165837
C93	C	0.865532	-0.654489	-0.633106
C94	C	1.365532	-0.154489	-0.133106
C95	C	0.865530	-0.654530	-0.567672
C96	C	1.365530	-0.154530	-0.067672
C97	C	0.900666	-0.685772	-0.769510
C98	C	1.400666	-0.185772	-0.269510
C99	C	0.900673	-0.685734	-0.834943
C100	C	1.400673	-0.185734	-0.334943
C101	C	0.905626	-0.577578	-0.867658
C102	C	1.405626	-0.077578	-0.367658
C103	C	0.910585	-0.469458	-0.834933
C104	C	1.410585	0.030542	-0.334933
C105	C	0.910582	-0.469499	-0.769498
C106	C	1.410582	0.030501	-0.269498
C107	C	0.905620	-0.577668	-0.736790
C108	C	1.405620	-0.077668	-0.236790
C109	C	0.945709	-0.500736	-0.971334
C110	C	1.445709	-0.000736	-0.471334
C111	C	0.945704	-0.500683	-1.036771
C112	C	1.445704	-0.000683	-0.536771
C113	C	0.865541	-0.654227	-1.036748
C114	C	1.365541	-0.154227	-0.536748
C115	C	0.865543	-0.654270	-0.971312
C116	C	1.365543	-0.154270	-0.471312
C117	C	0.905630	-0.577526	-0.938610
C118	C	1.405630	-0.077526	-0.438610
C119	C	0.905527	-0.577759	-0.139117
C120	C	1.405527	-0.077759	0.360883
C121	C	0.905626	-0.577431	-0.069476
C122	C	1.405626	-0.077431	0.430524
H123	H	0.144771	-0.438689	-0.374748
H124	H	0.644771	0.061311	0.125252
H125	H	0.263314	-0.716836	-0.229101
H126	H	0.763314	-0.216836	0.270899
H127	H	0.832908	-0.716799	-0.944669
H128	H	1.332908	-0.216799	-0.444669
C129	C	0.676477	-0.416985	-0.386184
C130	C	1.176477	0.083015	0.113816
N131	N	0.703616	-0.353479	-0.419436
N132	N	1.203616	0.146521	0.080564
C133	C	0.337082	-0.804881	-0.291337
C134	C	0.837082	-0.304881	0.208663
N135	N	0.309948	-0.894459	-0.287154
N136	N	0.809948	-0.394459	0.212846
C137	C	0.895218	-0.804667	-0.870935
C138	C	1.395218	-0.304667	-0.370935
N139	N	0.891107	-0.894251	-0.898043
N140	N	1.391107	-0.394251	-0.398043
H141	H	0.144603	-0.716792	-0.229111
H142	H	0.644603	-0.216792	0.270889
H143	H	0.896465	-0.773823	-0.742879
H144	H	1.396465	-0.273823	-0.242879
C145	C	0.474487	-0.804934	-0.291340
C146	C	0.974487	-0.304934	0.208660
N147	N	0.501560	-0.894533	-0.287172
N148	N	1.001560	-0.394533	0.212828
H149	H	0.978342	-0.438153	-1.063413
H150	H	1.478342	0.061847	-0.563413
C151	C	0.474647	-0.350808	-0.312484
C152	C	0.974647	0.149192	0.187516
N153	N	0.501785	-0.261232	-0.316648
N154	N	1.001785	0.238768	0.183352
H155	H	0.666953	-0.716973	-0.229064
H156	H	1.166953	-0.216973	0.270936
C157	C	0.821446	-0.738908	-0.669088
C158	C	1.321446	-0.238908	-0.169088
N159	N	0.788236	-0.802490	-0.696189
N160	N	1.288236	-0.302490	-0.196189
H161	H	0.978336	-0.438426	-0.659776
H162	H	1.478336	0.061574	-0.159776
C163	C	0.916032	-0.350476	-0.870914
C164	C	1.416032	0.149524	-0.370914
N165	N	0.920135	-0.260863	-0.898019
N166	N	1.420135	0.239137	-0.398019
C167	C	0.821436	-0.739000	-0.531675
C168	C	1.321436	-0.239000	-0.031675
N169	N	0.788225	-0.802626	-0.504561
N170	N	1.288225	-0.302626	-0.004561
C171	C	0.821457	-0.738653	-1.072725
C172	C	1.321457	-0.238653	-0.572725
N173	N	0.788252	-0.802245	-1.099825
N174	N	1.288252	-0.302245	-0.599825
C175	C	0.538879	-0.738834	-0.217613
C176	C	1.038879	-0.238834	0.282387
N177	N	0.511731	-0.802326	-0.184361
N178	N	1.011731	-0.302326	0.315639
H179	H	0.978340	-0.438515	-0.541070
H180	H	1.478340	0.061485	-0.041070
C181	C	0.916029	-0.350568	-0.733503
C182	C	1.416029	0.149432	-0.233503
N183	N	0.920127	-0.260987	-0.706391
N184	N	1.420127	0.239013	-0.206391
H185	H	0.548407	-0.438842	-0.374723
H186	H	1.048407	0.061158	0.125277
C187	C	0.989799	-0.416307	-0.935359
C188	C	1.489799	0.083693	-0.435359
N189	N	1.023008	-0.352712	-0.908264
N190	N	1.523008	0.147288	-0.408264
C191	C	0.272841	-0.416841	-0.386216
C192	C	0.772841	0.083159	0.113784
N193	N	0.299982	-0.353343	-0.419470
N194	N	0.799982	0.146657	0.080530
H195	H	0.346573	-0.381661	-0.311057
H196	H	0.846573	0.118339	0.188943
