data_functionalizedCrystal
_audit_creation_method	'MofGen! by Chris Wilmer'
_symmetry_space_group_name_H-M	'P1'
_symmetry_Int_Tables_number	1
_symmetry_cell_setting	triclinic
loop_
_symmetry_equiv_pos_as_xyz
  x,y,z
_cell_length_a	12.503552
_cell_length_b	9.065218
_cell_length_c	9.065218
_cell_angle_alpha	94.984115
_cell_angle_beta	93.573739
_cell_angle_gamma	93.575569
loop_
_atom_site_label
_atom_site_type_symbol
_atom_site_fract_x
_atom_site_fract_y
_atom_site_fract_z
O1	O	-0.089319	-1.968806	0.207941
O2	O	0.244014	-1.635473	0.541275
O3	O	0.577348	-1.302139	0.874608
O4	O	-0.089320	-1.539521	0.225688
O5	O	0.244013	-1.206188	0.559021
O6	O	0.577346	-0.872855	0.892354
O7	O	-0.089317	-1.763037	0.002172
O8	O	0.244016	-1.429703	0.335506
O9	O	0.577349	-1.096370	0.668839
O10	O	-0.089322	-1.745291	0.431457
O11	O	0.244012	-1.411957	0.764790
O12	O	0.577345	-1.078624	1.098123
O13	O	0.089325	-1.746208	0.018997
O14	O	0.422658	-1.412874	0.352330
O15	O	0.755992	-1.079541	0.685663
O16	O	0.089322	-1.522692	0.242512
O17	O	0.422655	-1.189359	0.575845
O18	O	0.755989	-0.856026	0.909179
O19	O	0.089323	-1.951977	0.224766
O20	O	0.422657	-1.618644	0.558099
O21	O	0.755990	-1.285310	0.891432
Cu22	Cu	0.105634	-1.735798	0.235175
Cu23	Cu	0.438967	-1.402465	0.568508
Cu24	Cu	0.772301	-1.069131	0.901842
Cu25	Cu	-0.105631	-1.755700	0.215278
Cu26	Cu	0.227702	-1.422367	0.548612
Cu27	Cu	0.561036	-1.089034	0.881945
O28	O	0.089320	-1.728462	0.448281
O29	O	0.422654	-1.395128	0.781614
O30	O	0.755987	-1.061795	1.114948
C31	C	0.000001	-1.476120	0.232394
C32	C	0.333334	-1.142787	0.565728
C33	C	0.666667	-0.809454	0.899061
C34	C	0.000000	-1.312277	0.227294
C35	C	0.333334	-0.978944	0.560628
C36	C	0.666667	-0.645611	0.893961
N37	N	0.254227	-1.721810	0.249168
N38	N	0.587560	-1.388477	0.582502
N39	N	0.920893	-1.055144	0.915835
N40	N	-0.254224	-1.769699	0.201273
N41	N	0.079110	-1.436366	0.534606
N42	N	0.412443	-1.103033	0.867940
C43	C	0.526661	-1.790268	0.180683
C44	C	0.859994	-1.456935	0.514017
C45	C	1.193327	-1.123601	0.847350
C46	C	0.473335	-1.701247	0.269754
C47	C	0.806669	-1.367913	0.603087
C48	C	1.140002	-1.034580	0.936420
C49	C	0.351412	-1.712691	0.258297
C50	C	0.684745	-1.379358	0.591630
C51	C	1.018079	-1.046025	0.924964
C52	C	0.648595	-1.778825	0.192138
C53	C	0.981928	-1.445492	0.525471
C54	C	1.315262	-1.112158	0.858805
C55	C	-0.000000	-2.015378	0.218059
C56	C	0.333333	-1.682045	0.551392
C57	C	0.666667	-1.348712	0.884725
C58	C	-0.000007	-2.179222	0.223158
C59	C	0.333327	-1.845889	0.556491
C60	C	0.666660	-1.512555	0.889824
C61	C	0.000002	-1.752917	-0.044402
C62	C	0.333335	-1.419583	0.288931
C63	C	0.666669	-1.086250	0.622264
C64	C	-0.000003	-1.747818	-0.208246
C65	C	0.333330	-1.414484	0.125088
C66	C	0.666664	-1.081151	0.458421
C67	C	-0.000001	-1.738582	0.494855
C68	C	0.333332	-1.405248	0.828189
C69	C	0.666665	-1.071915	1.161522
C70	C	-0.000003	-1.743682	0.658698
C71	C	0.333330	-1.410348	0.992031
C72	C	0.666663	-1.077015	1.325365
H73	H	0.519250	-1.616439	0.354614
H74	H	0.852584	-1.283106	0.687947
H75	H	1.185917	-0.949773	1.021281
H76	H	0.480751	-1.875072	0.095830
H77	H	0.814085	-1.541738	0.429164
H78	H	1.147418	-1.208405	0.762497
