data_functionalizedCrystal
_audit_creation_method	'MofGen! by Chris Wilmer'
_symmetry_space_group_name_H-M	'P1'
_symmetry_Int_Tables_number	1
_symmetry_cell_setting	triclinic
loop_
_symmetry_equiv_pos_as_xyz
  x,y,z
_cell_length_a	18.101398
_cell_length_b	25.639239
_cell_length_c	18.101389
_cell_angle_alpha	89.979551
_cell_angle_beta	89.975673
_cell_angle_gamma	90.033952
loop_
_atom_site_label
_atom_site_type_symbol
_atom_site_fract_x
_atom_site_fract_y
_atom_site_fract_z
Zn1	Zn	1.132082	-0.208272	-0.418828
Zn2	Zn	1.465415	0.125062	-0.085495
Zn3	Zn	1.798749	0.458395	0.247838
Zn4	Zn	1.131961	-0.295693	-0.294982
Zn5	Zn	1.465295	0.037640	0.038351
Zn6	Zn	1.798628	0.370974	0.371684
Zn7	Zn	1.008241	-0.208266	-0.294989
Zn8	Zn	1.341574	0.125067	0.038344
Zn9	Zn	1.674908	0.458400	0.371677
Zn10	Zn	1.008175	-0.295671	-0.418771
Zn11	Zn	1.341509	0.037663	-0.085438
Zn12	Zn	1.674842	0.370996	0.247896
O13	O	1.070115	-0.251975	-0.356893
O14	O	1.403448	0.081358	-0.023559
O15	O	1.736782	0.414691	0.309774
O16	O	1.235699	-0.219880	-0.402421
O17	O	1.569032	0.113453	-0.069088
O18	O	1.902366	0.446787	0.264246
O19	O	1.115527	-0.284103	-0.191350
O20	O	1.448860	0.049231	0.141983
O21	O	1.782193	0.382564	0.475316
O22	O	1.024747	-0.135102	-0.311444
O23	O	1.358080	0.198232	0.021889
O24	O	1.691413	0.531565	0.355223
O25	O	1.235610	-0.284108	-0.311432
O26	O	1.568944	0.049225	0.021902
O27	O	1.902277	0.382559	0.355235
O28	O	1.115732	-0.135106	-0.402428
O29	O	1.449065	0.198228	-0.069094
O30	O	1.782399	0.531561	0.264239
O31	O	1.024630	-0.219871	-0.191356
O32	O	1.357963	0.113463	0.141978
O33	O	1.691296	0.446796	0.475311
O34	O	0.904599	-0.219849	-0.311388
O35	O	1.237933	0.113484	0.021945
O36	O	1.571266	0.446818	0.355278
O37	O	1.024635	-0.284070	-0.522411
O38	O	1.357968	0.049263	-0.189078
O39	O	1.691301	0.382597	0.144255
O40	O	0.904551	-0.284065	-0.402330
O41	O	1.237884	0.049269	-0.068997
O42	O	1.571218	0.382602	0.264337
O43	O	1.115668	-0.219858	-0.522454
O44	O	1.449002	0.113475	-0.189120
O45	O	1.782335	0.446808	0.144213
O46	O	1.115463	-0.368855	-0.311376
O47	O	1.448796	-0.035522	0.021957
O48	O	1.782130	0.297811	0.355290
O49	O	1.024518	-0.368839	-0.402323
O50	O	1.357851	-0.035505	-0.068990
O51	O	1.691185	0.297828	0.264344
C52	C	0.877704	-0.251954	-0.356854
C53	C	1.211038	0.081379	-0.023521
C54	C	1.544371	0.414713	0.309813
C55	C	0.795390	-0.251958	-0.356855
C56	C	1.128724	0.081376	-0.023522
C57	C	1.462057	0.414709	0.309812
C58	C	0.496299	-0.251990	-0.356917
C59	C	0.829633	0.081343	-0.023584
C60	C	1.162966	0.414676	0.309749
C61	C	0.527630	-0.211386	-0.299978
C62	C	0.860963	0.121948	0.033355
C63	C	1.194297	0.455281	0.366688
C64	C	0.613248	-0.211495	-0.299735
C65	C	0.946582	0.121839	0.033598
C66	C	1.279915	0.455172	0.366931
C67	C	0.644682	-0.251974	-0.356886
C68	C	0.978015	0.081360	-0.023553
C69	C	1.311348	0.414693	0.309780
C70	C	0.613553	-0.307048	-0.335559
C71	C	0.946887	0.026286	-0.002226
C72	C	1.280220	0.359619	0.331107
C73	C	0.527908	-0.306822	-0.335163
C74	C	0.861242	0.026511	-0.001830
C75	C	1.194575	0.359845	0.331503
C76	C	0.527917	-0.238000	-0.435317
C77	C	0.861250	0.095333	-0.101984
C78	C	1.194583	0.428667	0.231349
C79	C	0.613568	-0.236773	-0.434890
C80	C	0.946901	0.096560	-0.101556
C81	C	1.280234	0.429893	0.231777
C82	C	0.728541	-0.251968	-0.356870
C83	C	1.061875	0.081366	-0.023537
C84	C	1.395208	0.414699	0.309796
C85	C	0.412440	-0.252000	-0.356932
C86	C	0.745773	0.081333	-0.023598
C87	C	1.079106	0.414667	0.309735
C88	C	1.069990	-0.387818	-0.356859
C89	C	1.403324	-0.054485	-0.023525
C90	C	1.736657	0.278849	0.309808
C91	C	1.070005	-0.445932	-0.356869
C92	C	1.403338	-0.112599	-0.023536
C93	C	1.736671	0.220735	0.309798
C94	C	1.117594	-0.806291	-0.309617
C95	C	1.450927	-0.472958	0.023716
C96	C	1.784260	-0.139624	0.357049
C97	C	1.117622	-0.860895	-0.309627
C98	C	1.450956	-0.527562	0.023706
C99	C	1.784289	-0.194229	0.357039
O100	O	1.157955	-0.889129	-0.269415
O101	O	1.491288	-0.555795	0.063918
O102	O	1.824621	-0.222462	0.397252
N103	N	1.070245	-0.888214	-0.356942
N104	N	1.403578	-0.554881	-0.023608
N105	N	1.736912	-0.221548	0.309725
C106	C	1.022841	-0.860926	-0.404255
C107	C	1.356175	-0.527593	-0.070921
C108	C	1.689508	-0.194260	0.262412
O109	O	0.982546	-0.889177	-0.444501
O110	O	1.315880	-0.555844	-0.111168
O111	O	1.649213	-0.222511	0.222166
C112	C	1.022817	-0.806323	-0.404248
C113	C	1.356150	-0.472990	-0.070915
C114	C	1.689484	-0.139656	0.262419
C115	C	1.070192	-0.779007	-0.356925
C116	C	1.403525	-0.445673	-0.023592
C117	C	1.736859	-0.112340	0.309741
C118	C	1.164965	-0.778975	-0.262299
C119	C	1.498299	-0.445641	0.071034
C120	C	1.831632	-0.112308	0.404368
C121	C	1.164936	-0.724374	-0.262288
C122	C	1.498269	-0.391041	0.071045
C123	C	1.831602	-0.057707	0.404378
C124	C	1.117534	-0.697090	-0.309596
C125	C	1.450867	-0.363757	0.023737
C126	C	1.784201	-0.030423	0.357071
C127	C	1.070162	-0.724406	-0.356914
C128	C	1.403495	-0.391073	-0.023581
C129	C	1.736829	-0.057740	0.309752
C130	C	0.975417	-0.779036	-0.451564
C131	C	1.308751	-0.445703	-0.118231
C132	C	1.642084	-0.112369	0.215102
C133	C	0.975397	-0.724429	-0.451554
C134	C	1.308731	-0.391096	-0.118221
C135	C	1.642064	-0.057762	0.215113
C136	C	1.022773	-0.697113	-0.404231
C137	C	1.356106	-0.363779	-0.070898
C138	C	1.689439	-0.030446	0.262436
C139	C	1.022731	-0.642522	-0.404212
C140	C	1.356064	-0.309188	-0.070878
C141	C	1.689397	0.024145	0.262455
N142	N	1.070108	-0.615202	-0.356897
N143	N	1.403441	-0.281869	-0.023564
N144	N	1.736774	0.051464	0.309770
C145	C	1.117509	-0.642487	-0.309589
C146	C	1.450843	-0.309153	0.023744
C147	C	1.784176	0.024180	0.357077
C148	C	1.022897	-0.975597	-0.404266
C149	C	1.356230	-0.642264	-0.070933
C150	C	1.689564	-0.308930	0.262400
C151	C	1.022917	-1.030199	-0.404270
C152	C	1.356251	-0.696866	-0.070936
C153	C	1.689584	-0.363533	0.262397
C154	C	1.117699	-1.030164	-0.309643
C155	C	1.451033	-0.696831	0.023690
C156	C	1.784366	-0.363498	0.357024
C157	C	1.117675	-0.975561	-0.309636
C158	C	1.451008	-0.642228	0.023697
C159	C	1.784342	-0.308894	0.357030
C160	C	1.070274	-0.948278	-0.356952
C161	C	1.403608	-0.614945	-0.023618
C162	C	1.736941	-0.281611	0.309715
C163	C	1.117443	-0.527822	-0.309570
C164	C	1.450776	-0.194488	0.023763
C165	C	1.784109	0.138845	0.357097
C166	C	1.117406	-0.473216	-0.309561
C167	C	1.450740	-0.139883	0.023772
C168	C	1.784073	0.193450	0.357105
C169	C	1.022627	-0.473256	-0.404190
C170	C	1.355961	-0.139922	-0.070857
C171	C	1.689294	0.193411	0.262476
C172	C	1.022661	-0.527856	-0.404197
C173	C	1.355994	-0.194523	-0.070863
C174	C	1.689327	0.138810	0.262470
C175	C	1.070074	-0.555138	-0.356884
C176	C	1.403408	-0.221805	-0.023551
C177	C	1.736741	0.111529	0.309783
O178	O	0.982421	-0.614254	-0.444405
O179	O	1.315754	-0.280920	-0.111072
O180	O	1.649087	0.052413	0.222261
O181	O	1.157804	-0.614229	-0.269357
O182	O	1.491138	-0.280896	0.063977
O183	O	1.824471	0.052438	0.397310
C184	C	1.263277	-0.251997	-0.356932
C185	C	1.596610	0.081336	-0.023599
C186	C	1.929943	0.414670	0.309735
C187	C	1.345591	-0.252006	-0.356949
C188	C	1.678924	0.081327	-0.023615
C189	C	2.012257	0.414660	0.309718
C190	C	1.070158	-0.251962	-0.550055
C191	C	1.403491	0.081371	-0.216721
C192	C	1.736824	0.414705	0.116612
C193	C	1.070176	-0.251957	-0.632369
C194	C	1.403509	0.081377	-0.299036
C195	C	1.736843	0.414710	0.034298
C196	C	1.070260	-0.115602	-0.356943
C197	C	1.403593	0.217731	-0.023610
C198	C	1.736927	0.551064	0.309724
C199	C	1.070322	-0.057488	-0.356964
C200	C	1.403655	0.275845	-0.023631
C201	C	1.736989	0.609178	0.309702
C202	C	1.070219	-0.251859	-0.931460
C203	C	1.403552	0.081475	-0.598127
C204	C	1.736886	0.414808	-0.264793
C205	C	1.012746	-0.292130	-0.900108
C206	C	1.346079	0.041203	-0.566775
C207	C	1.679413	0.374536	-0.233442
C208	C	1.012901	-0.292317	-0.814490
C209	C	1.346235	0.041016	-0.481157
C210	C	1.679568	0.374350	-0.147823
C211	C	1.070197	-0.251907	-0.783077
C212	C	1.403530	0.081426	-0.449744
C213	C	1.736864	0.414760	-0.116411
C214	C	1.148220	-0.266868	-0.814182
C215	C	1.481553	0.066466	-0.480849
C216	C	1.814886	0.399799	-0.147516
C217	C	1.147899	-0.267132	-0.899827
C218	C	1.481233	0.066201	-0.566494
C219	C	1.814566	0.399535	-0.233161
C220	C	1.050348	-0.196537	-0.899887
C221	C	1.383681	0.136797	-0.566554
C222	C	1.717015	0.470130	-0.233220
C223	C	1.048612	-0.196856	-0.814236
C224	C	1.381945	0.136477	-0.480903
C225	C	1.715279	0.469811	-0.147569
C226	C	1.070189	-0.251934	-0.699218
C227	C	1.403523	0.081400	-0.365885
C228	C	1.736856	0.414733	-0.032551
C229	C	1.070232	-0.251833	-1.015320
C230	C	1.403565	0.081500	-0.681986
C231	C	1.736899	0.414833	-0.348653
C232	C	1.070115	-0.251951	-0.164482
C233	C	1.403448	0.081383	0.168851
C234	C	1.736782	0.414716	0.502184
C235	C	1.070240	-0.251809	-0.082169
C236	C	1.403574	0.081524	0.251165
C237	C	1.736907	0.414857	0.584498
H238	H	0.634297	-0.170655	-0.313104
H239	H	0.967630	0.162679	0.020229
H240	H	1.300963	0.496012	0.353563
Br241	Br	0.916017	-0.276684	-0.934410
Br242	Br	1.249350	0.056650	-0.601077
Br243	Br	1.582683	0.389983	-0.267743
H244	H	1.156053	-0.550028	-0.271045
H245	H	1.489386	-0.216694	0.062288
H246	H	1.822720	0.116639	0.395622
H247	H	1.092209	-0.166532	-0.920164
H248	H	1.425542	0.166801	-0.586831
H249	H	1.758876	0.500135	-0.253498
Br250	Br	1.229307	-0.815993	-0.198088
Br251	Br	1.562640	-0.482660	0.135245
Br252	Br	1.895974	-0.149326	0.468579
Br253	Br	1.229245	-0.687311	-0.198071
Br254	Br	1.562578	-0.353977	0.135262
Br255	Br	1.895911	-0.020644	0.468595
Br256	Br	0.493360	-0.143105	-0.322012
Br257	Br	0.826694	0.190228	0.011321
Br258	Br	1.160027	0.523562	0.344655
H259	H	1.164746	-0.307573	-0.919809
H260	H	1.498080	0.025760	-0.586475
H261	H	1.831413	0.359094	-0.253142
Br262	Br	0.958348	-0.564930	-0.468403
Br263	Br	1.291681	-0.231596	-0.135070
Br264	Br	1.625014	0.101737	0.198264
H265	H	0.634966	-0.319119	-0.278864
H266	H	0.968299	0.014214	0.054470
H267	H	1.301633	0.347547	0.387803
H268	H	0.634968	-0.264193	-0.479587
H269	H	0.968301	0.069140	-0.146254
H270	H	1.301634	0.402473	0.187080
H271	H	1.025734	-0.332886	-0.921632
H272	H	1.359067	0.000447	-0.588298
H273	H	1.692400	0.333780	-0.254965
Br274	Br	0.916470	-0.276709	-0.779431
Br275	Br	1.249803	0.056625	-0.446097
Br276	Br	1.583136	0.389958	-0.112764
H277	H	0.633700	-0.220743	-0.241642
H278	H	0.967033	0.112591	0.091692
H279	H	1.300367	0.445924	0.425025
H280	H	1.192172	-0.239073	-0.920569
H281	H	1.525505	0.094260	-0.587236
H282	H	1.858839	0.427593	-0.253902
H283	H	0.984031	-0.451032	-0.442706
H284	H	1.317364	-0.117699	-0.109372
H285	H	1.650698	0.215634	0.223961
Br286	Br	1.221512	-0.219516	-0.780279
Br287	Br	1.554846	0.113817	-0.446946
Br288	Br	1.888179	0.447151	-0.113613
H289	H	1.026019	-0.333323	-0.794005
H290	H	1.359353	0.000010	-0.460672
H291	H	1.692686	0.333343	-0.127339
H292	H	0.506079	-0.220529	-0.242223
H293	H	0.839412	0.112804	0.091111
H294	H	1.172746	0.446138	0.424444
Br295	Br	0.494546	-0.326598	-0.239636
Br296	Br	0.827879	0.006735	0.093697
Br297	Br	1.161212	0.340069	0.427031
Br298	Br	1.182028	-1.067204	-0.245436
Br299	Br	1.515361	-0.733870	0.087898
Br300	Br	1.848695	-0.400537	0.421231
Br301	Br	1.176789	-0.333556	-0.778443
Br302	Br	1.510123	-0.000222	-0.445109
Br303	Br	1.843456	0.333111	-0.111776
Br304	Br	1.113300	-0.144189	-0.778610
Br305	Br	1.446634	0.189144	-0.445276
Br306	Br	1.779967	0.522478	-0.111943
H307	H	0.507654	-0.267575	-0.477742
H308	H	0.840988	0.065758	-0.144409
H309	H	1.174321	0.399092	0.188924
Br310	Br	0.957169	-0.173820	-0.935863
Br311	Br	1.290502	0.159513	-0.602530
Br312	Br	1.623835	0.492847	-0.269196
H313	H	0.991194	-0.185574	-0.793905
H314	H	1.324528	0.147759	-0.460571
H315	H	1.657861	0.481092	-0.127238
Br316	Br	1.181704	-0.436147	-0.245331
Br317	Br	1.515037	-0.102814	0.088002
Br318	Br	1.848371	0.230519	0.421335
Br319	Br	0.493356	-0.358954	-0.401265
Br320	Br	0.826689	-0.025621	-0.067931
Br321	Br	1.160022	0.307713	0.265402
H322	H	0.936836	-0.801268	-0.490096
H323	H	1.270169	-0.467934	-0.156763
H324	H	1.603503	-0.134601	0.176570
Br325	Br	1.181971	-0.938495	-0.245410
Br326	Br	1.515304	-0.605162	0.087924
Br327	Br	1.848638	-0.271828	0.421257
H328	H	0.633912	-0.338111	-0.375733
H329	H	0.967245	-0.004778	-0.042399
H330	H	1.300579	0.328555	0.290934
Br331	Br	0.647500	-0.169228	-0.461705
Br332	Br	0.980834	0.164105	-0.128372
Br333	Br	1.314167	0.497439	0.204961
Br334	Br	0.958609	-1.067265	-0.468485
Br335	Br	1.291942	-0.733931	-0.135152
Br336	Br	1.625276	-0.400598	0.198181
Br337	Br	0.491978	-0.172229	-0.467636
Br338	Br	0.825311	0.161104	-0.134302
Br339	Br	1.158644	0.494438	0.199031
Br340	Br	0.958557	-0.938575	-0.468482
Br341	Br	1.291890	-0.605242	-0.135148
Br342	Br	1.625223	-0.271908	0.198185
H343	H	0.936799	-0.702218	-0.490086
H344	H	1.270132	-0.368884	-0.156753
H345	H	1.603466	-0.035551	0.176580
