data_functionalizedCrystal
_audit_creation_method	'MofGen! by Chris Wilmer'
_symmetry_space_group_name_H-M	'P1'
_symmetry_Int_Tables_number	1
_symmetry_cell_setting	triclinic
loop_
_symmetry_equiv_pos_as_xyz
  x,y,z
_cell_length_a	12.759401
_cell_length_b	12.645330
_cell_length_c	12.759393
_cell_angle_alpha	90.031109
_cell_angle_beta	90.020938
_cell_angle_gamma	90.014171
loop_
_atom_site_label
_atom_site_type_symbol
_atom_site_fract_x
_atom_site_fract_y
_atom_site_fract_z
Zn1	Zn	1.606281	-0.421945	0.594016
Zn2	Zn	1.606179	-0.599246	0.418334
Zn3	Zn	1.430580	-0.422001	0.418351
Zn4	Zn	1.430578	-0.599171	0.593971
O5	O	1.518405	-0.510591	0.506168
O6	O	1.753289	-0.445472	0.570723
O7	O	1.582843	-0.575788	0.271315
O8	O	1.453931	-0.273647	0.441679
O9	O	1.753213	-0.575734	0.441650
O10	O	1.583018	-0.273605	0.570739
O11	O	1.453831	-0.445568	0.271327
O12	O	1.283559	-0.445496	0.441636
O13	O	1.453928	-0.575607	0.740998
O14	O	1.283557	-0.575662	0.570663
O15	O	1.583016	-0.445400	0.741031
O16	O	1.582841	-0.747583	0.441607
O17	O	1.453828	-0.747529	0.570647
C18	C	1.245437	-0.510578	0.506147
C19	C	1.128661	-0.510598	0.506163
C20	C	1.073825	-0.578479	0.573242
C21	C	0.964101	-0.578483	0.573263
C22	C	0.964057	-0.442722	0.439117
C23	C	1.073779	-0.442714	0.439102
C24	C	1.518352	-0.786021	0.506143
C25	C	1.518426	-0.903851	0.506168
C26	C	1.599457	-1.071405	0.424824
C27	C	1.599721	-0.948844	0.425023
C28	C	1.548455	-0.948224	0.616912
C29	C	1.549098	-1.070822	0.616481
C30	C	1.407332	-1.071183	0.477858
C31	C	1.407865	-0.948579	0.475374
C32	C	1.792438	-0.510605	0.506189
C33	C	1.909215	-0.510610	0.506199
C34	C	1.518483	-0.510489	0.780201
C35	C	1.518517	-0.510446	0.896978
C36	C	1.518486	-0.234086	0.506216
C37	C	1.518521	-0.116255	0.506236
C38	C	1.518387	-0.510616	0.233200
C39	C	1.518557	-0.510360	0.116424
C40	C	1.585738	-0.442636	0.951859
C41	C	1.585756	-0.442590	1.061583
C42	C	1.451328	-0.578173	1.061536
C43	C	1.451306	-0.578213	0.951814
H44	H	1.580932	-0.918848	0.342907
N45	N	1.382650	-0.647496	0.895746
N46	N	1.419581	-0.715071	0.834510
H47	H	1.371093	-0.763997	0.794910
H48	H	1.396610	-0.633349	1.106197
N49	N	1.129903	-0.647811	0.641733
N50	N	1.191099	-0.715314	0.604642
H51	H	1.230703	-0.764281	0.653016
H52	H	0.919460	-0.633756	0.627887
N53	N	1.654425	-0.373341	1.117658
N54	N	1.654437	-0.373310	1.215623
H55	H	1.702936	-0.324400	1.255228
H56	H	0.919360	-0.387455	0.384517
N57	N	1.702505	-1.109093	0.448191
N58	N	1.751796	-1.162411	0.382043
H59	H	1.824681	-1.188709	0.398587
N60	N	1.476769	-0.911675	0.695067
N61	N	1.424338	-0.976642	0.747016
H62	H	1.373709	-0.950829	0.802214
N63	N	1.703037	-0.911955	0.448567
N64	N	1.775170	-0.976755	0.464912
H65	H	1.848141	-0.950704	0.481543
N66	N	1.129783	-0.373357	0.370580
N67	N	1.080773	-0.312756	0.310706
H68	H	1.120325	-0.263770	0.262317
H69	H	1.580903	-1.100964	0.342468
H70	H	1.630372	-1.099331	0.640519
N71	N	1.478349	-1.108050	0.695156
N72	N	1.383423	-1.084056	0.690723
H73	H	1.333459	-1.110346	0.746289
N74	N	1.654365	-0.373392	0.895845
N75	N	1.617403	-0.305858	0.834630
H76	H	1.665869	-0.256948	0.795071
N77	N	1.649258	-0.909588	0.647566
N78	N	1.699156	-0.849385	0.588042
H79	H	1.770350	-0.822097	0.609686
N80	N	1.373085	-1.110096	0.378315
N81	N	1.430218	-1.171530	0.327075
H82	H	1.406042	-1.199014	0.256769
N83	N	1.331685	-1.107591	0.552236
N84	N	1.315974	-1.204501	0.563433
H85	H	1.262556	-1.230221	0.615965
H86	H	1.385222	-0.919589	0.393875
N87	N	1.328114	-0.910193	0.544299
N88	N	1.234963	-0.937876	0.531267
H89	H	1.178639	-0.910768	0.579953
