data_functionalizedCrystal
_audit_creation_method	'MofGen! by Chris Wilmer'
_symmetry_space_group_name_H-M	'P1'
_symmetry_Int_Tables_number	1
_symmetry_cell_setting	triclinic
loop_
_symmetry_equiv_pos_as_xyz
  x,y,z
_cell_length_a	19.188930
_cell_length_b	19.188930
_cell_length_c	18.266242
_cell_angle_alpha	89.993204
_cell_angle_beta	89.979776
_cell_angle_gamma	83.144779
loop_
_atom_site_label
_atom_site_type_symbol
_atom_site_fract_x
_atom_site_fract_y
_atom_site_fract_z
O1	O	0.926147	0.087164	-0.061124
O2	O	1.426147	0.587164	0.438876
O3	O	0.722836	0.098898	-0.061075
O4	O	1.222836	0.598898	0.438925
O5	O	0.830359	-0.008624	-0.061087
O6	O	1.330359	0.491376	0.438913
O7	O	0.818624	0.194687	-0.061113
O8	O	1.318624	0.694687	0.438887
O9	O	0.830345	-0.008621	0.060675
O10	O	1.330345	0.491379	0.560675
O11	O	0.722822	0.098902	0.060687
O12	O	1.222822	0.598902	0.560687
O13	O	0.926133	0.087168	0.060638
O14	O	1.426133	0.587168	0.560638
Zn15	Zn	0.824475	0.093035	0.079994
Zn16	Zn	1.324475	0.593035	0.579994
Zn17	Zn	0.824494	0.093031	-0.080432
Zn18	Zn	1.324494	0.593031	0.419568
O19	O	0.818611	0.194690	0.060649
O20	O	1.318611	0.694690	0.560649
C21	C	0.696818	0.098520	-0.000188
C22	C	1.196818	0.598520	0.499812
C23	C	0.619313	0.097380	-0.000169
C24	C	1.119313	0.597380	0.499831
C25	C	0.574389	0.160470	-0.000188
C26	C	1.074389	0.660470	0.499812
C27	C	0.501566	0.159399	-0.000196
C28	C	1.001566	0.659399	0.499804
C29	C	0.473669	0.095233	-0.000199
C30	C	0.973669	0.595233	0.499801
C31	C	0.518603	0.032133	-0.000175
C32	C	1.018603	0.532133	0.499825
C33	C	0.591425	0.033207	-0.000160
C34	C	1.091425	0.533207	0.499840
N35	N	0.365694	0.046184	-0.041663
N36	N	0.865694	0.546184	0.458337
N37	N	0.296515	0.045169	-0.041679
N38	N	0.796515	0.545169	0.458321
C39	C	0.254260	0.091994	-0.000243
C40	C	0.754260	0.591994	0.499757
N41	N	0.283796	0.139884	0.041200
N42	N	0.783796	0.639884	0.541200
N43	N	0.352981	0.140902	0.041213
N44	N	0.852981	0.640902	0.541213
C45	C	0.394707	0.094062	-0.000215
C46	C	0.894707	0.594062	0.499785
C47	C	0.130372	0.153928	-0.000270
C48	C	0.630372	0.653928	0.499730
C49	C	0.057547	0.152853	-0.000274
C50	C	0.557547	0.652853	0.499726
C51	C	0.074586	0.025586	-0.000261
C52	C	0.574586	0.525586	0.499739
C53	C	0.147409	0.026662	-0.000250
C54	C	0.647409	0.526662	0.499750
C55	C	0.175298	0.090835	-0.000258
C56	C	0.675298	0.590835	0.499742
C57	C	0.829972	-0.034634	-0.000204
C58	C	1.329972	0.465366	0.499796
C59	C	0.828831	-0.112138	-0.000197
C60	C	1.328831	0.387862	0.499803
C61	C	0.891922	-0.157062	-0.000209
C62	C	1.391922	0.342938	0.499791
C63	C	0.890850	-0.229886	-0.000220
C64	C	1.390850	0.270114	0.499780
C65	C	0.826684	-0.257782	-0.000206
C66	C	1.326684	0.242218	0.499794
C67	C	0.763585	-0.212849	-0.000198
C68	C	1.263585	0.287151	0.499802
C69	C	0.764658	-0.140026	-0.000194
C70	C	1.264658	0.359974	0.499806
N71	N	0.777632	-0.365786	0.041244
N72	N	1.277632	0.134214	0.541244
N73	N	0.776617	-0.434965	0.041242
N74	N	1.276617	0.065035	0.541242
C75	C	0.823446	-0.477191	-0.000220
C76	C	1.323446	0.022809	0.499780
N77	N	0.871340	-0.447627	-0.041669
N78	N	1.371340	0.052373	0.458331
N79	N	0.872357	-0.378442	-0.041664
N80	N	1.372357	0.121558	0.458336
C81	C	0.825513	-0.336745	-0.000210
C82	C	1.325513	0.163255	0.499790
C83	C	0.885379	-0.601079	-0.000245
C84	C	1.385379	-0.101079	0.499755
C85	C	0.884305	-0.673904	-0.000261
C86	C	1.384305	-0.173904	0.499739
C87	C	0.757038	-0.656865	-0.000231
C88	C	1.257038	-0.156865	0.499769
C89	C	0.758114	-0.584042	-0.000222
C90	C	1.258114	-0.084042	0.499778
C91	C	0.822286	-0.556154	-0.000226
C92	C	1.322286	-0.056154	0.499774
C93	C	0.952151	0.087546	-0.000252
C94	C	1.452151	0.587546	0.499748
C95	C	1.029656	0.088687	-0.000276
C96	C	1.529656	0.588687	0.499724
C97	C	0.818997	0.220700	-0.000236
C98	C	1.318997	0.720700	0.499764
C99	C	0.820138	0.298204	-0.000247
C100	C	1.320138	0.798204	0.499753
N101	N	0.824468	0.093038	0.189481
N102	N	1.324468	0.593038	0.689481
N103	N	0.824506	0.093023	-0.189919
N104	N	1.324506	0.593023	0.310081
C105	C	0.866721	0.135258	0.771741
C106	C	1.366721	0.635258	1.271741
C107	C	0.866713	0.135265	0.695096
C108	C	1.366713	0.635265	1.195096
C109	C	0.824500	0.093024	0.656794
C110	C	1.324500	0.593024	1.156794
C111	C	0.782277	0.050785	0.695143
C112	C	1.282277	0.550785	1.195143
C113	C	0.782281	0.050785	0.771786
C114	C	1.282281	0.550785	1.271786
N115	N	0.822809	0.031863	0.536465
N116	N	1.322809	0.531863	1.036465
N117	N	0.822810	0.031866	0.463657
N118	N	1.322810	0.531866	0.963657
C119	C	0.824487	0.093024	0.425872
C120	C	1.324487	0.593024	0.925872
N121	N	0.826176	0.154180	0.463645
N122	N	1.326176	0.654180	0.963645
N123	N	0.826179	0.154177	0.536460
N124	N	1.326179	0.654177	1.036460
C125	C	0.824492	0.093020	0.573687
C126	C	1.324492	0.593020	1.073687
C127	C	0.866695	0.135271	0.304425
C128	C	1.366695	0.635271	0.804425
C129	C	0.866683	0.135279	0.227779
C130	C	1.366683	0.635279	0.727779
C131	C	0.782251	0.050793	0.227826
C132	C	1.282251	0.550793	0.727826
C133	C	0.782259	0.050791	0.304471
C134	C	1.282259	0.550791	0.804471
C135	C	0.824485	0.093029	0.342766
C136	C	1.324485	0.593029	0.842766
H137	H	0.183988	-0.024713	-0.000238
H138	H	0.683988	0.475287	0.499762
H139	H	0.935683	-0.710481	-0.000274
H140	H	1.435683	-0.210481	0.499726
H141	H	0.713281	-0.103449	-0.000184
H142	H	1.213281	0.396551	0.499816
H143	H	0.937632	-0.578372	-0.000251
H144	H	1.437632	-0.078372	0.499749
H145	H	0.942228	-0.266470	-0.000233
H146	H	1.442228	0.233530	0.499767
H147	H	0.704792	-0.679578	-0.000222
H148	H	1.204792	-0.179578	0.499778
H149	H	0.901088	0.169662	0.663874
H150	H	1.401088	0.669662	1.163874
C151	C	0.487923	-0.038449	-0.000180
C152	C	0.987923	0.461551	0.499820
H153	H	0.525111	-0.075872	-0.000161
H154	H	1.025111	0.424128	0.499839
H155	H	0.459893	-0.041516	-0.042647
H156	H	0.959893	0.458484	0.457353
H157	H	0.459846	-0.041510	0.042280
H158	H	0.959846	0.458490	0.542280
C159	C	0.688713	-0.534624	-0.000197
C160	C	1.188713	-0.034624	0.499803
H161	H	0.650343	-0.561666	-0.000183
H162	H	1.150343	-0.061666	0.499817
H163	H	0.686489	-0.505852	-0.042654
H164	H	1.186489	-0.005852	0.457346
H165	H	0.686485	-0.505872	0.042274
H166	H	1.186485	-0.005872	0.542274
C167	C	0.735830	0.004327	0.346650
C168	C	1.235830	0.504327	0.846650
H169	H	0.741874	0.010380	0.397781
H170	H	1.241874	0.510380	0.897781
H171	H	0.748946	-0.043479	0.334090
H172	H	1.248946	0.456521	0.834090
H173	H	0.688017	0.017425	0.334108
H174	H	1.188017	0.517425	0.834108
H175	H	0.747906	0.016394	0.663952
H176	H	1.247906	0.516394	1.163952
H177	H	0.901103	0.169653	0.802916
H178	H	1.401103	0.669653	1.302916
H179	H	0.628003	-0.018171	-0.000145
H180	H	1.128003	0.481829	0.499855
H181	H	0.747903	0.016391	0.803002
H182	H	1.247903	0.516391	1.303002
C183	C	0.043912	-0.044997	-0.000261
C184	C	0.543912	0.455003	0.499739
H185	H	0.081101	-0.082419	-0.000244
H186	H	0.581101	0.417581	0.499756
H187	H	0.015878	-0.048065	-0.042725
H188	H	0.515878	0.451935	0.457275
H189	H	0.015839	-0.048058	0.042203
H190	H	0.515839	0.451942	0.542203
C191	C	0.605063	0.231057	-0.000184
C192	C	1.105063	0.731057	0.499816
H193	H	0.567874	0.268479	-0.000189
H194	H	1.067874	0.768479	0.499811
H195	H	0.633143	0.234124	-0.042636
H196	H	1.133143	0.734124	0.457364
H197	H	0.633090	0.234120	0.042291
H198	H	1.133090	0.734120	0.542291
C199	C	0.913130	0.181739	0.346552
C200	C	1.413130	0.681739	0.846552
H201	H	0.938262	0.206904	0.312738
H202	H	1.438262	0.706904	0.812738
H203	H	0.945353	0.153050	0.376441
H204	H	1.445353	0.653050	0.876441
H205	H	0.884415	0.213944	0.376458
H206	H	1.384415	0.713944	0.876458
C207	C	0.913121	0.181741	0.185605
C208	C	1.413121	0.681741	0.685605
H209	H	0.938272	0.206889	0.219392
H210	H	1.438272	0.706889	0.719392
H211	H	0.884414	0.213950	0.155716
H212	H	1.384414	0.713950	0.655716
H213	H	0.945338	0.153042	0.155696
H214	H	1.445338	0.653042	0.655696
C215	C	0.161053	0.224513	-0.000272
C216	C	0.661053	0.724513	0.499728
H217	H	0.123865	0.261936	-0.000274
H218	H	0.623865	0.761936	0.499726
H219	H	0.189127	0.227577	-0.042729
H220	H	0.689127	0.727577	0.457271
H221	H	0.189086	0.227577	0.042198
H222	H	0.689086	0.727577	0.542198
H223	H	0.747876	0.016403	0.196641
H224	H	1.247876	0.516403	0.696641
C225	C	0.962507	-0.126385	-0.000216
C226	C	1.462507	0.373615	0.499784
H227	H	0.954112	-0.076580	-0.000205
H228	H	1.454112	0.423420	0.499795
H229	H	0.988486	-0.141813	-0.042680
H230	H	1.488486	0.358187	0.457320
H231	H	0.988464	-0.141826	0.042247
H232	H	1.488464	0.358174	0.542247
C233	C	0.452138	0.228799	-0.000221
C234	C	0.952138	0.728799	0.499779
H235	H	0.404773	0.218967	-0.000225
H236	H	0.904773	0.718967	0.499775
H237	H	0.460594	0.255116	-0.042684
H238	H	0.960594	0.755116	0.457316
H239	H	0.460546	0.255124	0.042243
H240	H	0.960546	0.755124	0.542243
C241	C	0.008130	0.222257	-0.000295
C242	C	0.508130	0.722257	0.499705
H243	H	0.035172	0.260626	-0.000305
H244	H	0.535172	0.760626	0.499695
H245	H	-0.020654	0.224490	0.042160
H246	H	0.479346	0.724490	0.542160
H247	H	-0.020609	0.224477	-0.042768
H248	H	0.479391	0.724477	0.457232
H249	H	0.711340	-0.235567	-0.000187
H250	H	1.211340	0.264433	0.499813
