data_functionalizedCrystal
_audit_creation_method	'MofGen! by Chris Wilmer'
_symmetry_space_group_name_H-M	'P1'
_symmetry_Int_Tables_number	1
_symmetry_cell_setting	triclinic
loop_
_symmetry_equiv_pos_as_xyz
  x,y,z
_cell_length_a	14.519731
_cell_length_b	14.519731
_cell_length_c	12.996460
_cell_angle_alpha	90.007128
_cell_angle_beta	90.006690
_cell_angle_gamma	83.688853
loop_
_atom_site_label
_atom_site_type_symbol
_atom_site_fract_x
_atom_site_fract_y
_atom_site_fract_z
O1	O	-1.223866	-0.120985	-0.085596
O2	O	-0.955393	-0.135201	-0.085592
O3	O	-1.096737	0.006143	-0.085585
O4	O	-1.082521	-0.262330	-0.085603
O5	O	-1.096723	0.006151	0.085549
O6	O	-0.955378	-0.135193	0.085542
O7	O	-1.223851	-0.120977	0.085538
Cu8	Cu	-1.089613	-0.128085	0.101166
Cu9	Cu	-1.089631	-0.128094	-0.101220
O10	O	-1.082507	-0.262322	0.085531
C11	C	-0.921026	-0.134531	-0.000025
C12	C	-0.818645	-0.132535	-0.000023
C13	C	-0.735501	-0.130913	-0.000026
C14	C	-0.631192	-0.128887	-0.000024
C15	C	-0.548053	-0.127278	-0.000022
C16	C	-0.443738	-0.125252	-0.000022
C17	C	-1.096064	0.040507	-0.000018
C18	C	-1.094068	0.142887	-0.000017
C19	C	-0.258218	-0.121648	-0.000027
C20	C	-0.360598	-0.123644	-0.000020
C21	C	-1.083180	-0.296685	-0.000039
C22	C	-1.085176	-0.399066	-0.000046
C23	C	-1.092446	0.226031	-0.000019
C24	C	-1.090419	0.330340	-0.000027
C25	C	-1.088811	0.413479	-0.000034
C26	C	-1.086785	0.517795	-0.000040
N27	N	-1.089608	-0.128078	0.243513
N28	N	-1.089644	-0.128094	-0.243567
C29	C	-1.089629	-0.128095	0.663327
C30	C	-1.089621	-0.128093	0.546522
C31	C	-1.089619	-0.128087	0.453424
C32	C	-1.089609	-0.128084	0.336611
