data_functionalizedCrystal
_audit_creation_method	'MofGen! by Chris Wilmer'
_symmetry_space_group_name_H-M	'P1'
_symmetry_Int_Tables_number	1
_symmetry_cell_setting	triclinic
loop_
_symmetry_equiv_pos_as_xyz
  x,y,z
_cell_length_a	11.792241
_cell_length_b	13.596369
_cell_length_c	11.792254
_cell_angle_alpha	90.000552
_cell_angle_beta	84.196007
_cell_angle_gamma	90.001745
loop_
_atom_site_label
_atom_site_type_symbol
_atom_site_fract_x
_atom_site_fract_y
_atom_site_fract_z
O1	O	1.506919	0.081696	0.155559
O2	O	2.006919	0.581696	0.655559
O3	O	1.176579	0.081719	0.171592
O4	O	1.676579	0.581719	0.671592
O5	O	1.349758	0.081700	-0.001594
O6	O	1.849758	0.581700	0.498406
O7	O	1.333740	0.081715	0.328745
O8	O	1.833740	0.581715	0.828745
O9	O	1.349736	-0.081883	-0.001584
O10	O	1.849736	0.418117	0.498416
O11	O	1.176557	-0.081864	0.171602
O12	O	1.676557	0.418136	0.671602
O13	O	1.506898	-0.081887	0.155569
O14	O	2.006898	0.418113	0.655569
Zn15	Zn	1.341724	-0.107847	0.163587
Zn16	Zn	1.841724	0.392153	0.663587
Zn17	Zn	1.341752	0.107680	0.163574
Zn18	Zn	1.841752	0.607680	0.663574
O19	O	1.333718	-0.081868	0.328755
O20	O	1.833718	0.418132	0.828755
C21	C	1.134277	-0.000069	0.170590
C22	C	1.634277	0.499931	0.670590
C23	C	1.008263	-0.000061	0.167576
C24	C	1.508263	0.499939	0.667576
N25	N	1.341713	-0.254939	0.163595
N26	N	1.841713	0.245061	0.663595
C27	C	0.777551	-0.000089	0.162033
C28	C	1.277551	0.499911	0.662033
C29	C	0.905936	-0.000074	0.165112
C30	C	1.405936	0.499926	0.665112
C31	C	1.341719	-0.343937	0.163597
C32	C	1.841719	0.156063	0.663597
C33	C	1.341730	-0.455588	0.163590
C34	C	1.841730	0.044412	0.663590
C35	C	1.341745	-0.544579	0.163577
C36	C	1.841745	-0.044579	0.663577
C37	C	1.341757	-0.656237	0.163570
C38	C	1.841757	-0.156237	0.663570
C39	C	1.549199	-0.000096	0.156571
C40	C	2.049199	0.499904	0.656571
C41	C	1.675213	-0.000098	0.159586
C42	C	2.175213	0.499902	0.659586
C43	C	1.348738	-0.000091	-0.043880
C44	C	1.848738	0.499909	0.456120
C45	C	1.345718	-0.000090	-0.169893
C46	C	1.845718	0.499910	0.330107
N47	N	1.341772	0.254772	0.163557
N48	N	1.841772	0.754772	0.663557
C49	C	1.343264	-0.000086	-0.272229
C50	C	1.843264	0.499914	0.227771
C51	C	1.340196	-0.000077	-0.400616
C52	C	1.840196	0.499923	0.099384
C53	C	1.334738	-0.000074	0.371041
C54	C	1.834738	0.499926	0.871041
C55	C	1.337758	-0.000069	0.497054
C56	C	1.837758	0.499931	0.997054
