data_functionalizedCrystal
_audit_creation_method	'MofGen! by Chris Wilmer'
_symmetry_space_group_name_H-M	'P1'
_symmetry_Int_Tables_number	1
_symmetry_cell_setting	triclinic
loop_
_symmetry_equiv_pos_as_xyz
  x,y,z
_cell_length_a	17.699077
_cell_length_b	14.044220
_cell_length_c	16.776229
_cell_angle_alpha	89.992645
_cell_angle_beta	89.993415
_cell_angle_gamma	88.234727
loop_
_atom_site_label
_atom_site_type_symbol
_atom_site_fract_x
_atom_site_fract_y
_atom_site_fract_z
O1	O	1.012347	0.119823	-0.066280
O2	O	1.512347	0.619823	0.433720
O3	O	0.793044	0.135422	-0.066284
O4	O	1.293044	0.635422	0.433716
O5	O	0.899404	-0.010355	-0.066274
O6	O	1.399404	0.489645	0.433726
O7	O	0.905987	0.265599	-0.066290
O8	O	1.405987	0.765599	0.433710
O9	O	0.899388	-0.010364	0.066302
O10	O	1.399388	0.489636	0.566302
O11	O	0.793028	0.135413	0.066293
O12	O	1.293028	0.635413	0.566293
O13	O	1.012331	0.119814	0.066297
O14	O	1.512331	0.619814	0.566297
Zn15	Zn	0.902677	0.127612	0.087344
Zn16	Zn	1.402677	0.627612	0.587344
Zn17	Zn	0.902698	0.127624	-0.087331
Zn18	Zn	1.402698	0.627624	0.412669
O19	O	0.905971	0.265590	0.066287
O20	O	1.405971	0.765590	0.566287
C21	C	0.764800	0.134859	0.000004
C22	C	1.264800	0.634859	0.500004
C23	C	0.680667	0.133185	0.000002
C24	C	1.180667	0.633185	0.500002
C25	C	0.896514	-0.045667	0.000014
C26	C	1.396514	0.454333	0.500014
C27	C	0.887918	-0.150873	0.000015
C28	C	1.387918	0.349127	0.500015
C29	C	0.641136	0.132392	0.072271
C30	C	1.141136	0.632392	0.572271
C31	C	0.562084	0.130804	0.072272
C32	C	1.062084	0.630804	0.572272
C33	C	0.522564	0.130016	0.000004
C34	C	1.022564	0.630016	0.500004
C35	C	0.562100	0.130807	-0.072270
C36	C	1.062100	0.630807	0.427730
C37	C	0.641151	0.132388	-0.072271
C38	C	1.141151	0.632388	0.427729
C39	C	0.243297	0.124429	-0.072272
C40	C	0.743297	0.624429	0.427728
C41	C	0.164240	0.122851	-0.072266
C42	C	0.664240	0.622851	0.427734
C43	C	0.164230	0.122845	0.072271
C44	C	0.664230	0.622845	0.572271
C45	C	0.243281	0.124426	0.072271
C46	C	0.743281	0.624426	0.572271
C47	C	0.282810	0.125212	-0.000003
C48	C	0.782810	0.625212	0.499997
C49	C	0.368528	0.126932	-0.000003
C50	C	0.868528	0.626932	0.499997
C51	C	0.436848	0.128303	0.000003
C52	C	0.936848	0.628303	0.500003
C53	C	0.872203	-0.343497	0.000004
C54	C	1.372203	0.156503	0.500004
C55	C	0.933169	-0.401273	0.000002
C56	C	1.433169	0.098727	0.500002
C57	C	0.924425	-0.508456	-0.000004
C58	C	1.424425	-0.008456	0.499996
C59	C	0.880946	-0.236304	0.000010
C60	C	1.380946	0.263696	0.500010
C61	C	1.040575	0.120376	0.000007
C62	C	1.540575	0.620376	0.500007
C63	C	1.124708	0.122050	0.000003
C64	C	1.624708	0.622050	0.500003
C65	C	0.908861	0.300903	-0.000003
C66	C	1.408861	0.800903	0.499997
C67	C	0.917457	0.406108	-0.000010
C68	C	1.417457	0.906108	0.499990
N69	N	0.902668	0.127603	0.206555
N70	N	1.402668	0.627603	0.706555
N71	N	0.902712	0.127625	-0.206542
N72	N	1.402712	0.627625	0.293458
C73	C	0.949782	0.063080	0.248277
C74	C	1.449782	0.563080	0.748277
C75	C	0.949786	0.063079	0.331729
C76	C	1.449786	0.563079	0.831729
C77	C	0.902680	0.127607	0.373458
C78	C	1.402680	0.627607	0.873458
C79	C	0.855561	0.192133	0.331731
C80	C	1.355561	0.692133	0.831731
C81	C	0.855553	0.192129	0.248280
C82	C	1.355553	0.692129	0.748280
C83	C	0.855589	0.192152	0.668278
C84	C	1.355589	0.692152	1.168278
C85	C	0.855602	0.192153	0.751735
C86	C	1.355602	0.692153	1.251735
C87	C	0.949822	0.063102	0.751727
C88	C	1.449822	0.563102	1.251727
C89	C	0.949814	0.063098	0.668276
C90	C	1.449814	0.563098	1.168276
C91	C	0.902693	0.127620	0.626556
C92	C	1.402693	0.627620	1.126556
C93	C	0.902688	0.127619	0.536068
C94	C	1.402688	0.627619	1.036068
C95	C	0.902688	0.127613	0.463945
C96	C	1.402688	0.627613	0.963945
H97	H	0.673308	0.133041	0.131120
H98	H	1.173308	0.633041	0.631120
Cl99	Cl	0.796378	0.273279	0.804193
Cl100	Cl	1.296378	0.773279	1.304193
H101	H	0.991931	-0.370238	-0.000050
H102	H	1.491931	0.129762	0.499950
Cl103	Cl	0.781484	-0.391409	-0.000002
Cl104	Cl	1.281484	0.108591	0.499998
H105	H	0.529902	0.130142	0.131120
H106	H	1.029902	0.630142	0.631120
H107	H	0.132065	0.122209	-0.131119
H108	H	0.632065	0.622209	0.368881
H109	H	0.988144	0.010538	0.214306
H110	H	1.488144	0.510538	0.714306
Cl111	Cl	0.796319	0.273245	0.195831
Cl112	Cl	1.296319	0.773245	0.695831
H113	H	0.817202	0.244670	0.365712
H114	H	1.317202	0.744670	0.865712
Cl115	Cl	1.009014	-0.018038	0.384180
Cl116	Cl	1.509014	0.481962	0.884180
H117	H	0.988175	0.010557	0.634303
H118	H	1.488175	0.510557	1.134303
Cl119	Cl	0.796356	0.273267	0.615835
Cl120	Cl	1.296356	0.773267	1.115835
H121	H	0.988188	0.010561	0.785704
H122	H	1.488188	0.510561	1.285704
H123	H	0.529916	0.130159	-0.131112
H124	H	1.029916	0.630159	0.368888
Cl125	Cl	0.292959	0.125421	0.163126
Cl126	Cl	0.792959	0.625421	0.663126
Cl127	Cl	0.292980	0.125419	-0.163130
Cl128	Cl	0.792980	0.625419	0.336870
Cl129	Cl	0.114531	0.121852	0.163131
Cl130	Cl	0.614531	0.621852	0.663131
H131	H	0.673335	0.133036	-0.131119
H132	H	1.173335	0.633036	0.368881
