data_functionalizedCrystal
_audit_creation_method	'MofGen! by Chris Wilmer'
_symmetry_space_group_name_H-M	'P1'
_symmetry_Int_Tables_number	1
_symmetry_cell_setting	triclinic
loop_
_symmetry_equiv_pos_as_xyz
  x,y,z
_cell_length_a	19.805405
_cell_length_b	19.805407
_cell_length_c	19.805399
_cell_angle_alpha	90.019573
_cell_angle_beta	89.970699
_cell_angle_gamma	89.973590
loop_
_atom_site_label
_atom_site_type_symbol
_atom_site_fract_x
_atom_site_fract_y
_atom_site_fract_z
Zn1	Zn	-0.269479	-1.034736	-0.382712
Zn2	Zn	0.063854	-0.701402	-0.049378
Zn3	Zn	0.397188	-0.368069	0.283955
Zn4	Zn	-0.382667	-1.034651	-0.269520
Zn5	Zn	-0.049334	-0.701317	0.063813
Zn6	Zn	0.283999	-0.367984	0.397147
Zn7	Zn	-0.269498	-0.921550	-0.269536
Zn8	Zn	0.063836	-0.588217	0.063797
Zn9	Zn	0.397169	-0.254884	0.397131
Zn10	Zn	-0.382631	-0.921514	-0.382667
Zn11	Zn	-0.049298	-0.588180	-0.049333
Zn12	Zn	0.284035	-0.254847	0.284000
O13	O	-0.326069	-0.978113	-0.326109
O14	O	0.007265	-0.644779	0.007225
O15	O	0.340598	-0.311446	0.340558
O16	O	-0.284501	-1.129441	-0.367708
O17	O	0.048833	-0.796108	-0.034375
O18	O	0.382166	-0.462774	0.298958
O19	O	-0.367678	-1.019627	-0.174805
O20	O	-0.034345	-0.686294	0.158528
O21	O	0.298989	-0.352960	0.491861
O22	O	-0.174778	-0.936616	-0.284575
O23	O	0.158555	-0.603282	0.048759
O24	O	0.491888	-0.269949	0.382092
O25	O	-0.367660	-1.129378	-0.284547
O26	O	-0.034326	-0.796045	0.048786
O27	O	0.299007	-0.462712	0.382120
O28	O	-0.174765	-1.019772	-0.367724
O29	O	0.158569	-0.686439	-0.034391
O30	O	0.491902	-0.353106	0.298942
O31	O	-0.284533	-0.936533	-0.174817
O32	O	0.048801	-0.603200	0.158516
O33	O	0.382134	-0.269866	0.491849
O34	O	-0.284498	-0.826829	-0.284531
O35	O	0.048836	-0.493496	0.048802
O36	O	0.382169	-0.160162	0.382136
O37	O	-0.367598	-0.936553	-0.477389
O38	O	-0.034265	-0.603220	-0.144056
O39	O	0.299068	-0.269887	0.189277
O40	O	-0.367617	-0.826802	-0.367648
O41	O	-0.034283	-0.493469	-0.034314
O42	O	0.299050	-0.160135	0.299019
O43	O	-0.284466	-1.019737	-0.477422
O44	O	0.048867	-0.686404	-0.144089
O45	O	0.382201	-0.353070	0.189244
O46	O	-0.477379	-1.019592	-0.284503
O47	O	-0.144046	-0.686258	0.048830
O48	O	0.189288	-0.352925	0.382163
O49	O	-0.477353	-0.936471	-0.367632
O50	O	-0.144019	-0.603137	-0.034299
O51	O	0.189314	-0.269804	0.299035
C52	C	-0.326056	-0.802257	-0.326087
C53	C	0.007278	-0.468923	0.007247
C54	C	0.340611	-0.135590	0.340580
C55	C	-0.326067	-0.727025	-0.326093
C56	C	0.007267	-0.393691	0.007240
C57	C	0.340600	-0.060358	0.340573
C58	C	-0.501925	-0.978036	-0.326076
C59	C	-0.168591	-0.644703	0.007258
C60	C	0.164742	-0.311370	0.340591
C61	C	-0.577157	-0.978066	-0.326084
C62	C	-0.243823	-0.644732	0.007249
C63	C	0.089510	-0.311399	0.340582
C64	C	-0.326026	-0.978151	-0.502651
C65	C	0.007307	-0.644817	-0.169318
C66	C	0.340641	-0.311484	0.164015
C67	C	-0.326008	-0.978167	-0.577883
C68	C	0.007325	-0.644833	-0.244550
C69	C	0.340659	-0.311500	0.088783
C70	C	-0.612492	-1.021389	-0.282845
C71	C	-0.279159	-0.688056	0.050489
C72	C	0.054174	-0.354722	0.383822
C73	C	-0.683181	-1.021418	-0.282860
C74	C	-0.349847	-0.688084	0.050474
C75	C	-0.016514	-0.354751	0.383807
C76	C	-0.718532	-0.978119	-0.326111
C77	C	-0.385199	-0.644786	0.007222
C78	C	-0.051866	-0.311453	0.340555
C79	C	-0.683192	-0.934794	-0.369356
C80	C	-0.349859	-0.601461	-0.036023
C81	C	-0.016525	-0.268128	0.297311
C82	C	-0.612505	-0.934769	-0.369344
C83	C	-0.279171	-0.601436	-0.036010
C84	C	0.054162	-0.268103	0.297323
C85	C	-0.968265	-0.934894	-0.369406
C86	C	-0.634932	-0.601561	-0.036073
C87	C	-0.301598	-0.268227	0.297261
C88	C	-1.038957	-0.934921	-0.369413
C89	C	-0.705624	-0.601588	-0.036080
C90	C	-0.372291	-0.268254	0.297253
C91	C	-1.038941	-1.021542	-0.282922
C92	C	-0.705608	-0.688209	0.050411
C93	C	-0.372274	-0.354876	0.383745
C94	C	-0.968254	-1.021517	-0.282910
C95	C	-0.634921	-0.688184	0.050423
C96	C	-0.301587	-0.354851	0.383757
C97	C	-0.932920	-0.978195	-0.326157
C98	C	-0.599586	-0.644862	0.007177
C99	C	-0.266253	-0.311529	0.340510
C100	C	-0.856271	-0.978166	-0.326141
C101	C	-0.522938	-0.644832	0.007193
C102	C	-0.189605	-0.311499	0.340526
C103	C	-0.795179	-0.978145	-0.326124
C104	C	-0.461846	-0.644812	0.007209
C105	C	-0.128513	-0.311478	0.340542
C106	C	-0.149526	-0.978207	-0.326156
C107	C	0.183807	-0.644874	0.007177
C108	C	0.517141	-0.311541	0.340510
C109	C	-0.074294	-0.978248	-0.326177
C110	C	0.259039	-0.644915	0.007157
C111	C	0.592373	-0.311581	0.340490
C112	C	-0.326082	-1.154655	-0.326131
C113	C	0.007251	-0.821322	0.007202
C114	C	0.340584	-0.487989	0.340536
C115	C	-0.326088	-1.229887	-0.326140
C116	C	0.007245	-0.896554	0.007193
C117	C	0.340579	-0.563221	0.340526
C118	C	-0.369412	-0.691684	-0.369302
C119	C	-0.036078	-0.358351	-0.035969
C120	C	0.297255	-0.025018	0.297365
C121	C	-0.369413	-0.620996	-0.369312
C122	C	-0.036080	-0.287662	-0.035978
C123	C	0.297254	0.045671	0.297355
C124	C	-0.326072	-0.585649	-0.326109
C125	C	0.007262	-0.252316	0.007225
C126	C	0.340595	0.081018	0.340558
C127	C	-0.282722	-0.620994	-0.282898
C128	C	0.050611	-0.287661	0.050435
C129	C	0.383945	0.045672	0.383769
C130	C	-0.282718	-0.691681	-0.282892
C131	C	0.050616	-0.358348	0.050441
C132	C	0.383949	-0.025015	0.383774
C133	C	-0.282737	-0.335921	-0.282920
C134	C	0.050596	-0.002588	0.050413
C135	C	0.383930	0.330746	0.383746
C136	C	-0.282746	-0.265229	-0.282928
C137	C	0.050588	0.068104	0.050406
C138	C	0.383921	0.401438	0.383739
C139	C	-0.369432	-0.265235	-0.369340
C140	C	-0.036099	0.068098	-0.036006
C141	C	0.297235	0.401431	0.297327
C142	C	-0.369428	-0.335922	-0.369334
C143	C	-0.036094	-0.002589	-0.036001
C144	C	0.297239	0.330744	0.297333
C145	C	-0.326076	-0.371262	-0.326126
C146	C	0.007258	-0.037928	0.007207
C147	C	0.340591	0.295405	0.340540
C148	C	-0.326074	-0.447910	-0.326117
C149	C	0.007259	-0.114577	0.007216
C150	C	0.340593	0.218757	0.340549
C151	C	-0.326076	-0.509002	-0.326114
C152	C	0.007257	-0.175669	0.007220
C153	C	0.340590	0.157665	0.340553
C154	C	-0.282719	-1.021481	-0.613246
C155	C	0.050615	-0.688148	-0.279912
C156	C	0.383948	-0.354815	0.053421
C157	C	-0.282699	-1.021488	-0.683934
C158	C	0.050634	-0.688155	-0.350601
C159	C	0.383968	-0.354822	-0.017268
C160	C	-0.325973	-0.978184	-0.719259
C161	C	0.007361	-0.644850	-0.385926
C162	C	0.340694	-0.311517	-0.052592
C163	C	-0.369264	-0.934864	-0.683892
C164	C	-0.035930	-0.601531	-0.350558
C165	C	0.297403	-0.268197	-0.017225
C166	C	-0.369279	-0.934854	-0.613204
C167	C	-0.035946	-0.601521	-0.279871
C168	C	0.297387	-0.268188	0.053462
C169	C	-0.369201	-0.934902	-0.968965
C170	C	-0.035867	-0.601569	-0.635632
C171	C	0.297466	-0.268236	-0.302298
C172	C	-0.369183	-0.934917	-1.039657
C173	C	-0.035850	-0.601584	-0.706324
C174	C	0.297484	-0.268250	-0.372991
C175	C	-0.282620	-1.021536	-1.039695
C176	C	0.050713	-0.688203	-0.706362
C177	C	0.384046	-0.354870	-0.373028
C178	C	-0.282636	-1.021527	-0.969008
C179	C	0.050697	-0.688193	-0.635674
C180	C	0.384031	-0.354860	-0.302341
C181	C	-0.325924	-0.978205	-0.933647
C182	C	0.007409	-0.644872	-0.600313
C183	C	0.340742	-0.311538	-0.266980
C184	C	-0.325944	-0.978197	-0.856998
C185	C	0.007389	-0.644864	-0.523665
C186	C	0.340723	-0.311530	-0.190331
C187	C	-0.325957	-0.978194	-0.795906
C188	C	0.007377	-0.644861	-0.462573
C189	C	0.340710	-0.311528	-0.129240
C190	C	-0.326062	-0.978114	-0.150253
C191	C	0.007271	-0.644780	0.183081
C192	C	0.340604	-0.311447	0.516414
C193	C	-0.325890	-0.978229	-0.075021
C194	C	0.007443	-0.644895	0.258312
C195	C	0.340777	-0.311562	0.591646
H196	H	-0.583713	-1.056644	-0.247621
H197	H	-0.250380	-0.723311	0.085712
H198	H	0.082953	-0.389978	0.419045
H199	H	-0.404523	-0.899576	-0.584413
H200	H	-0.071190	-0.566243	-0.251080
H201	H	0.262143	-0.232909	0.082253
H202	H	-0.404423	-0.899650	-1.068417
H203	H	-0.071090	-0.566317	-0.735083
H204	H	0.262244	-0.232983	-0.401750
H205	H	-0.404729	-0.236454	-0.404524
H206	H	-0.071395	0.096880	-0.071191
H207	H	0.261938	0.430213	0.262143
H208	H	-0.404459	-0.899637	-0.940183
H209	H	-0.071125	-0.566304	-0.606849
H210	H	0.262208	-0.232970	-0.273516
Cl211	Cl	-0.423663	-0.880421	-0.728300
Cl212	Cl	-0.090330	-0.547088	-0.394967
Cl213	Cl	0.243004	-0.213754	-0.061633
H214	H	-1.067719	-1.056820	-0.247711
H215	H	-0.734385	-0.723487	0.085622
H216	H	-0.401052	-0.390153	0.418956
Cl217	Cl	-0.228197	-1.075996	-1.084153
Cl218	Cl	0.105136	-0.742663	-0.750820
Cl219	Cl	0.438470	-0.409330	-0.417487
Cl220	Cl	-0.727599	-1.075886	-0.228501
Cl221	Cl	-0.394266	-0.742552	0.104832
Cl222	Cl	-0.060933	-0.409219	0.438166
Cl223	Cl	-0.228223	-0.736110	-0.228572
Cl224	Cl	0.105111	-0.402776	0.104761
Cl225	Cl	0.438444	-0.069443	0.438095
Cl226	Cl	-0.423907	-0.576571	-0.423634
Cl227	Cl	-0.090573	-0.243237	-0.090300
Cl228	Cl	0.242760	0.090096	0.243033
H229	H	-0.404723	-0.364698	-0.404512
H230	H	-0.071390	-0.031365	-0.071179
H231	H	0.261944	0.301968	0.262155
Cl232	Cl	-0.228318	-1.075928	-0.568845
Cl233	Cl	0.105016	-0.742595	-0.235511
Cl234	Cl	0.438349	-0.409262	0.097822
Cl235	Cl	-0.228306	-1.075974	-0.728387
Cl236	Cl	0.105028	-0.742640	-0.395054
Cl237	Cl	0.438361	-0.409307	-0.061720
Cl238	Cl	-0.228235	-1.075971	-0.924603
Cl239	Cl	0.105099	-0.742638	-0.591270
Cl240	Cl	0.438432	-0.409304	-0.257937
H241	H	-0.247448	-0.236452	-0.247747
H242	H	0.085885	0.096882	0.085587
H243	H	0.419219	0.430215	0.418920
H244	H	-0.247442	-0.364686	-0.247733
H245	H	0.085891	-0.031352	0.085601
H246	H	0.419225	0.301981	0.418934
H247	H	-0.939473	-1.056773	-0.247688
H248	H	-0.606139	-0.723439	0.085645
H249	H	-0.272806	-0.390106	0.418979
H250	H	-0.939502	-0.899618	-0.404618
H251	H	-0.606168	-0.566285	-0.071284
H252	H	-0.272835	-0.232952	0.262049
Cl253	Cl	-0.727634	-0.880366	-0.423734
Cl254	Cl	-0.394301	-0.547032	-0.090400
Cl255	Cl	-0.060968	-0.213699	0.242933
Cl256	Cl	-0.568083	-0.880306	-0.423707
Cl257	Cl	-0.234750	-0.546973	-0.090374
Cl258	Cl	0.098584	-0.213639	0.242960
Cl259	Cl	-0.423904	-0.736113	-0.423615
Cl260	Cl	-0.090571	-0.402780	-0.090281
Cl261	Cl	0.242762	-0.069446	0.243052
Cl262	Cl	-1.083399	-0.880486	-0.423793
Cl263	Cl	-0.750065	-0.547152	-0.090459
Cl264	Cl	-0.416732	-0.213819	0.242874
Cl265	Cl	-0.228231	-0.576558	-0.228590
Cl266	Cl	0.105102	-0.243225	0.104744
Cl267	Cl	0.438436	0.090108	0.438077
