data_functionalizedCrystal
_audit_creation_method	'MofGen! by Chris Wilmer'
_symmetry_space_group_name_H-M	'P1'
_symmetry_Int_Tables_number	1
_symmetry_cell_setting	triclinic
loop_
_symmetry_equiv_pos_as_xyz
  x,y,z
_cell_length_a	8.559649
_cell_length_b	23.532407
_cell_length_c	7.088929
_cell_angle_alpha	83.810936
_cell_angle_beta	95.325015
_cell_angle_gamma	76.313671
loop_
_atom_site_label
_atom_site_type_symbol
_atom_site_fract_x
_atom_site_fract_y
_atom_site_fract_z
O1	O	2.103931	-0.012759	-0.158953
O2	O	1.638258	0.016674	-0.158972
O3	O	1.885141	-0.081561	-0.158927
O4	O	1.857049	0.085477	-0.158998
O5	O	1.918135	-0.094716	0.159054
O6	O	1.671252	0.003519	0.159009
O7	O	2.136925	-0.025913	0.159028
Cu8	Cu	1.907101	-0.012398	0.188053
Cu9	Cu	1.868082	0.003159	-0.187997
O10	O	1.890043	0.072322	0.158983
C11	C	1.595190	0.012327	0.000017
C12	C	1.417704	0.018967	0.000011
C13	C	1.900923	-0.109325	0.000069
C14	C	1.898774	-0.172453	0.000083
C15	C	2.031375	-0.577085	-0.000016
C16	C	2.029376	-0.636401	-0.000031
O17	O	2.152300	-0.678272	-0.000096
N18	N	1.882606	-0.652904	-0.000035
C19	C	1.737825	-0.610085	-0.000045
O20	O	1.612802	-0.629568	-0.000052
C21	C	1.739824	-0.550769	-0.000044
C22	C	1.886605	-0.534272	-0.000020
C23	C	2.178143	-0.560586	0.000006
C24	C	2.180142	-0.501274	0.000024
C25	C	2.035372	-0.458461	0.000020
C26	C	1.888603	-0.474960	-0.000002
C27	C	1.595042	-0.507952	-0.000067
C28	C	1.597054	-0.448633	-0.000067
C29	C	1.743835	-0.432135	-0.000043
C30	C	1.745832	-0.372834	0.000013
N31	N	1.892601	-0.356332	0.000017
C32	C	2.037371	-0.399145	0.000021
C33	C	1.733637	-0.734653	-0.000050
C34	C	1.731637	-0.793968	-0.000037
C35	C	2.023189	-0.820279	-0.000027
C36	C	2.025188	-0.760964	-0.000026
C37	C	1.880406	-0.718150	-0.000045
C38	C	2.041558	-0.274584	0.000061
C39	C	2.043544	-0.215266	0.000087
C40	C	1.751993	-0.188959	0.000066
C41	C	1.750006	-0.248272	0.000050
C42	C	1.894801	-0.291084	0.000041
O43	O	1.622971	-0.330931	0.000071
O44	O	2.162371	-0.379652	0.000003
C45	C	2.179993	-0.021566	0.000035
C46	C	2.357478	-0.028205	0.000029
C47	C	1.874260	0.100086	-0.000016
C48	C	1.876407	0.163214	-0.000044
N49	N	1.934557	-0.023341	0.452546
N50	N	1.840639	0.014096	-0.452490
H51	H	1.333473	0.064435	-0.000018
O52	O	2.050601	-0.069694	0.549759
C53	C	2.020231	-0.122945	0.501053
H54	H	1.943600	-0.114191	0.355675
H55	H	2.140083	-0.156023	0.494399
H56	H	1.952454	-0.141681	0.613694
H57	H	1.743305	0.052893	0.465846
O58	O	1.611378	-0.147328	-0.000281
C59	C	1.586777	-0.105405	-0.164942
H60	H	1.656958	-0.125986	-0.280033
H61	H	1.452140	-0.090798	-0.220246
H62	H	1.631337	-0.065532	-0.127698
O63	O	1.457705	-0.082487	-0.000032
C64	C	1.366086	-0.125014	0.000033
H65	H	1.235101	-0.102665	-0.060176
H66	H	1.418717	-0.159874	-0.092269
H67	H	1.370355	-0.146892	0.152591
H68	H	2.163076	-0.201838	0.000111
H69	H	2.159463	-0.309436	0.000046
H70	H	2.296039	-0.595440	0.000002
O71	O	2.322731	-0.485268	-0.000311
C72	C	2.393837	-0.500965	-0.164975
H73	H	2.296036	-0.504799	-0.280079
H74	H	2.455560	-0.465643	-0.220255
H75	H	2.487414	-0.545147	-0.127745
O76	O	2.163666	-0.861945	-0.000131
C77	C	2.130414	-0.917835	-0.000101
H78	H	1.998607	-0.912128	-0.060293
H79	H	2.213153	-0.944958	-0.092436
H80	H	2.152593	-0.941613	0.152444
O81	O	2.167899	-0.745037	-0.000107
C82	C	2.295242	-0.795553	-0.000050
H83	H	2.244821	-0.831483	-0.060242
H84	H	2.388196	-0.783800	-0.092371
H85	H	2.355682	-0.812223	0.152504
O86	O	1.588980	-0.809947	-0.000379
C87	C	1.483691	-0.780610	-0.165041
H88	H	1.557597	-0.767239	-0.280137
H89	H	1.410503	-0.811355	-0.220335
H90	H	1.397835	-0.739516	-0.127802
H91	H	1.475517	-0.521372	-0.000098
O92	O	1.593119	-0.693023	0.000213
C93	C	1.602616	-0.664755	0.164925
H94	H	1.735175	-0.669560	0.219831
H95	H	1.538464	-0.615943	0.127890
H96	H	1.541888	-0.685903	0.280242
O97	O	1.456416	-0.407009	-0.000420
C98	C	1.431783	-0.365080	-0.165073
H99	H	1.501968	-0.385652	-0.280174
H100	H	1.297143	-0.350483	-0.220365
H101	H	1.476315	-0.325202	-0.127823
H102	H	1.630491	-0.261707	0.000084
