data_functionalizedCrystal
_audit_creation_method	'MofGen! by Chris Wilmer'
_symmetry_space_group_name_H-M	'P1'
_symmetry_Int_Tables_number	1
_symmetry_cell_setting	triclinic
loop_
_symmetry_equiv_pos_as_xyz
  x,y,z
_cell_length_a	6.817900
_cell_length_b	11.102188
_cell_length_c	17.982856
_cell_angle_alpha	94.236166
_cell_angle_beta	102.449936
_cell_angle_gamma	108.603875
loop_
_atom_site_label
_atom_site_type_symbol
_atom_site_fract_x
_atom_site_fract_y
_atom_site_fract_z
V1	V	-4.041349	-0.177045	-0.237550
O2	O	-4.001727	0.007267	-0.233028
O3	O	-4.018597	-0.349856	-0.235925
O4	O	-3.987526	-0.174866	-0.341153
O5	O	-4.033013	-0.168935	-0.127071
V6	V	-4.522356	-0.154935	-0.224335
O7	O	-4.308126	-0.225545	-0.266536
O8	O	-4.705777	-0.106434	-0.195349
O9	O	-4.321902	0.017877	-0.225960
O10	O	-4.679375	-0.339246	-0.228857
O11	O	-4.648089	-0.163044	-0.334814
O12	O	-4.352973	-0.157113	-0.120732
C13	C	-3.870012	-0.391967	-0.232178
C14	C	-3.932660	-0.533247	-0.231540
C15	C	-3.922534	-0.581116	-0.161470
C16	C	-3.981421	-0.713865	-0.160873
C17	C	-4.060551	-0.750863	-0.300424
C18	C	-4.001679	-0.618117	-0.301019
C19	C	-3.830377	-0.168748	-0.366406
C20	C	-3.867824	-0.168110	-0.451102
C21	C	-3.942359	-0.284250	-0.501773
C22	C	-3.977552	-0.283649	-0.581354
C23	C	-3.938194	-0.166905	-0.610263
C24	C	-3.863659	-0.050755	-0.559586
C25	C	-3.828481	-0.051359	-0.480006
C26	C	-4.005526	-0.048320	-0.880520
C27	C	-4.040704	-0.047725	-0.960106
C28	C	-4.154597	-0.280609	-0.981868
C29	C	-4.119420	-0.281213	-0.902288
C30	C	-4.044898	-0.165065	-0.851619
C31	C	-4.006742	-0.165718	-0.765328
C32	C	-3.976335	-0.166249	-0.696552
C33	C	-4.133830	0.059981	-0.229705
C34	C	-4.050420	0.201259	-0.230348
C35	C	-4.173464	-0.163236	-0.095475
C36	C	-4.115255	-0.163867	-0.010778
H37	H	-3.974398	-0.379316	-0.478242
C38	C	-4.185910	-0.970781	-0.361474
C39	C	-4.136388	-0.844156	-0.376793
H40	H	-4.232709	-1.028372	-0.408623
H41	H	-4.296300	-0.989083	-0.335147
H42	H	-4.062287	-0.980768	-0.330274
H43	H	-4.260015	-0.834167	-0.407989
H44	H	-4.025989	-0.825848	-0.403132
C45	C	-3.829304	-0.835593	-0.075665
C46	C	-3.970315	-0.766496	-0.083854
H47	H	-3.822471	-0.868093	-0.028118
H48	H	-3.690991	-0.780433	-0.076356
H49	H	-3.878845	-0.905130	-0.116964
H50	H	-3.920765	-0.696954	-0.042558
H51	H	-4.108656	-0.821661	-0.083156
H52	H	-4.038252	-0.378222	-0.622608
C53	C	-4.085786	-0.668012	-0.438905
C54	C	-4.012801	-0.565490	-0.378047
H55	H	-4.092642	-0.635518	-0.486455
H56	H	-4.224095	-0.723166	-0.438204
H57	H	-3.990093	-0.714870	-0.433335
H58	H	-4.108504	-0.518638	-0.383614
H59	H	-3.874472	-0.510314	-0.378749
C60	C	-4.235575	-0.511359	-0.931796
C61	C	-4.162703	-0.409541	-0.870514
H62	H	-4.262317	-0.590584	-0.912179
H63	H	-4.129943	-0.502220	-0.959896
H64	H	-4.363910	-0.510334	-0.964868
H65	H	-4.034358	-0.410561	-0.837445
H66	H	-4.268342	-0.418684	-0.842402
C67	C	-4.259135	-0.383114	-1.113524
C68	C	-4.236547	-0.408287	-1.037568
H69	H	-4.309734	-0.461936	-1.147907
H70	H	-4.124527	-0.331110	-1.119611
H71	H	-4.358495	-0.339243	-1.124568
H72	H	-4.137175	-0.452150	-1.026522
H73	H	-4.371175	-0.460312	-1.031478
C74	C	-4.126966	0.144953	-0.969731
C75	C	-3.997468	0.080607	-0.991886
H76	H	-4.100283	0.224169	-0.989357
H77	H	-4.095338	0.161223	-0.915091
H78	H	-4.273107	0.093109	-0.989732
H79	H	-3.851326	0.132446	-0.971881
H80	H	-4.029081	0.064341	-1.046537
H81	H	-3.866336	-0.512017	-0.104895
H82	H	-3.944848	0.046256	-0.839273
C83	C	-3.866987	0.053581	-0.671910
C84	C	-3.820387	0.077574	-0.591360
H85	H	-3.840252	0.132810	-0.691522
H86	H	-4.013126	0.001776	-0.691903
H87	H	-3.779154	0.009903	-0.686930
H88	H	-3.908232	0.121244	-0.576339
H89	H	-3.674224	0.129399	-0.571359
C90	C	-3.719411	0.178906	-0.466482
C91	C	-3.746540	0.076307	-0.424305
H92	H	-3.668818	0.257722	-0.432093
H93	H	-3.852479	0.170227	-0.500456
H94	H	-3.618507	0.178360	-0.495492
H95	H	-3.847456	0.076847	-0.395300
H96	H	-3.613453	0.084989	-0.390318
