data_functionalizedCrystal
_audit_creation_method	'MofGen! by Chris Wilmer'
_symmetry_space_group_name_H-M	'P1'
_symmetry_Int_Tables_number	1
_symmetry_cell_setting	triclinic
loop_
_symmetry_equiv_pos_as_xyz
  x,y,z
_cell_length_a	15.712078
_cell_length_b	15.538191
_cell_length_c	9.482900
_cell_angle_alpha	95.622696
_cell_angle_beta	77.881830
_cell_angle_gamma	83.426622
loop_
_atom_site_label
_atom_site_type_symbol
_atom_site_fract_x
_atom_site_fract_y
_atom_site_fract_z
O1	O	1.017007	0.457038	-0.121149
O2	O	0.785647	0.392327	-0.121089
O3	O	0.946364	0.303068	-0.121138
O4	O	0.856290	0.546297	-0.121101
O5	O	0.913686	0.321305	0.120665
O6	O	0.752969	0.410564	0.120713
O7	O	0.984329	0.475275	0.120653
Cu8	Cu	0.865665	0.444585	0.142762
Cu9	Cu	0.904311	0.423017	-0.143198
O10	O	0.823612	0.564534	0.120702
C11	C	0.740421	0.390874	-0.000181
C12	C	0.654350	0.359364	-0.000160
C13	C	0.203321	0.626904	-0.000219
C14	C	0.122461	0.597271	-0.000260
C15	C	0.189661	0.448801	-0.000286
C16	C	0.270530	0.478421	-0.000252
C17	C	0.277352	0.567474	-0.000217
C18	C	0.344560	0.418991	-0.000250
C19	C	0.425421	0.448609	-0.000209
C20	C	0.432250	0.537659	-0.000170
C21	C	0.358212	0.597092	-0.000176
C22	C	0.337735	0.329939	-0.000275
C23	C	0.411766	0.270509	-0.000273
C24	C	0.492629	0.300126	-0.000242
C25	C	0.499459	0.389176	-0.000203
C26	C	0.566668	0.240693	-0.000236
C27	C	0.647528	0.270311	-0.000195
C28	C	0.580319	0.418794	-0.000162
C29	C	0.939450	0.280337	-0.000244
C30	C	0.967522	0.185433	-0.000265
C31	C	0.688643	-0.198430	-0.000163
C32	C	0.715038	-0.287601	-0.000166
C33	C	0.863512	-0.258894	-0.000205
C34	C	0.837130	-0.169719	-0.000209
C35	C	0.749694	-0.139494	-0.000186
C36	C	0.898181	-0.110783	-0.000232
C37	C	0.871799	-0.021615	-0.000228
C38	C	0.784366	0.008618	-0.000200
C39	C	0.723312	-0.050326	-0.000182
C40	C	0.985615	-0.141009	-0.000244
C41	C	1.046666	-0.082073	-0.000267
C42	C	1.020286	0.007096	-0.000274
C43	C	0.932853	0.037329	-0.000246
C44	C	1.081340	0.066039	-0.000292
C45	C	1.054959	0.155208	-0.000288
C46	C	0.906471	0.126497	-0.000242
C47	C	1.029555	0.476728	-0.000258
C48	C	1.115628	0.508237	-0.000289
C49	C	0.830527	0.587265	-0.000196
C50	C	0.802455	0.682168	-0.000183
N51	N	0.838489	0.459756	0.343890
N52	N	0.931495	0.407842	-0.344326
C53	C	0.896291	0.427486	0.416072
C54	C	0.873684	0.440117	0.583496
H55	H	0.271889	0.305828	-0.000290
F56	F	1.119933	0.217936	-0.000291
F57	F	0.587585	0.513573	-0.000142
F58	F	0.518302	0.569186	-0.000073
H59	H	0.997721	0.370857	0.593530
H60	H	0.807455	0.477093	0.645640
F61	F	0.982760	0.378953	0.334843
F62	F	1.174390	0.033861	-0.000293
F63	F	0.751926	0.508085	0.425119
F64	F	0.365478	0.691872	-0.000156
H65	H	0.406197	0.198003	-0.000284
F66	F	0.756286	0.103521	-0.000184
H67	H	0.208874	0.699420	-0.000189
H68	H	0.062181	0.645674	-0.000254
F69	F	0.559392	0.145921	-0.000254
F70	F	0.182390	0.354028	-0.000318
H71	H	1.117856	-0.106695	-0.000280
H72	H	0.707808	0.221916	-0.000197
H73	H	0.652114	-0.025716	-0.000174
F74	F	0.595584	-0.166259	-0.000152
F75	F	0.813413	0.158668	-0.000232
F76	F	0.650051	-0.350324	-0.000134
H77	H	0.934702	-0.283516	-0.000218
F78	F	1.013690	-0.235911	-0.000239
