data_functionalizedCrystal
_audit_creation_method	'MofGen! by Chris Wilmer'
_symmetry_space_group_name_H-M	'P1'
_symmetry_Int_Tables_number	1
_symmetry_cell_setting	triclinic
loop_
_symmetry_equiv_pos_as_xyz
  x,y,z
_cell_length_a	15.625950
_cell_length_b	19.188930
_cell_length_c	14.185569
_cell_angle_alpha	76.885558
_cell_angle_beta	120.545593
_cell_angle_gamma	83.723680
loop_
_atom_site_label
_atom_site_type_symbol
_atom_site_fract_x
_atom_site_fract_y
_atom_site_fract_z
O1	O	1.290584	0.018083	0.385884
O2	O	1.002323	0.048796	0.281056
O3	O	1.154778	-0.068768	0.336517
O4	O	1.138130	0.135647	0.330423
O5	O	1.199814	-0.103494	0.519735
O6	O	1.047360	0.014070	0.464274
O7	O	1.335621	-0.016643	0.569102
Cu8	Cu	1.195602	-0.004457	0.533417
Cu9	Cu	1.142342	0.036610	0.316741
O10	O	1.183166	0.100921	0.513641
C11	C	0.987962	0.033481	0.359254
C12	C	0.878074	0.039575	0.319293
C13	C	0.639286	-0.034965	0.687093
C14	C	0.536014	-0.029215	0.649492
C15	C	0.486969	0.008639	0.449773
C16	C	0.590238	0.002896	0.487357
C17	C	0.666389	-0.018907	0.606018
C18	C	0.617341	0.018953	0.406283
C19	C	0.720602	0.013207	0.443865
C20	C	0.796759	-0.008597	0.562521
C21	C	0.769650	-0.024654	0.643600
C22	C	0.541189	0.040751	0.287623
C23	C	0.568292	0.056809	0.206548
C24	C	0.671553	0.051067	0.244129
C25	C	0.747710	0.029263	0.362785
C26	C	0.698662	0.067124	0.163050
C27	C	0.801923	0.061378	0.200632
C28	C	0.850971	0.023517	0.400367
C29	C	1.176758	-0.112107	0.427933
C30	C	1.175143	-0.189507	0.427354
C31	C	1.264596	-0.240321	0.459889
C32	C	1.263073	-0.313042	0.459319
C33	C	1.172096	-0.334948	0.426234
C34	C	1.082629	-0.284122	0.393688
C35	C	1.084153	-0.211402	0.394248
N36	N	1.117882	-0.450193	0.463298
N37	N	1.116441	-0.519276	0.462770
C38	C	1.167499	-0.554050	0.424542
N39	N	1.220071	-0.517137	0.386881
N40	N	1.221516	-0.448049	0.387414
C41	C	1.170433	-0.413800	0.425622
C42	C	1.255306	-0.683717	0.456460
C43	C	1.253777	-0.756437	0.455881
C44	C	1.073333	-0.727518	0.390261
C45	C	1.074863	-0.654798	0.390829
C46	C	1.165853	-0.632903	0.423935
C47	C	1.349981	-0.001327	0.490902
C48	C	1.459867	-0.007420	0.530855
C49	C	1.161186	0.144260	0.422223
C50	C	1.162799	0.221662	0.422794
N51	N	1.233070	-0.033343	0.685819
N52	N	1.104882	0.065490	0.164342
C53	C	0.994801	0.150325	0.966789
C54	C	1.023189	0.128449	1.082138
C55	C	1.158215	0.024380	1.131220
C56	C	1.129834	0.046245	1.015872
C57	C	1.048128	0.109219	0.933665
C58	C	1.183161	0.005139	0.982747
C59	C	1.154786	0.027005	0.867410
C60	C	1.073085	0.089977	0.785198
C61	C	1.019753	0.131085	0.818328
C62	C	1.264872	-0.057832	1.064957
C63	C	1.318199	-0.098938	1.031833
C64	C	1.289820	-0.077075	0.916492
C65	C	1.208118	-0.014103	0.834280
C66	C	1.343152	-0.118183	0.883362
C67	C	1.314777	-0.096316	0.768026
C68	C	1.179744	0.007764	0.718943
H69	H	0.513952	-0.042277	0.715520
H70	H	1.002021	-0.613424	0.364341
H71	H	1.329395	-0.665889	0.483412
O72	O	0.915536	0.211576	0.887006
C73	C	0.938232	0.274287	0.920922
H74	H	1.025276	0.263270	0.981433
H75	H	0.899739	0.285817	0.967887
C76	C	0.790530	0.355628	0.738468
C77	C	0.897440	0.342099	0.812781
H78	H	0.765364	0.397459	0.671763
H79	H	0.775237	0.313379	0.715619
H80	H	0.758466	0.365232	0.777619
H81	H	0.929503	0.332486	0.773635
H82	H	0.912738	0.384348	0.835622
O83	O	0.494387	0.078094	0.091249
C84	C	0.493225	0.149427	0.035517
H85	H	0.571354	0.160277	0.089809
H86	H	0.430488	0.192897	0.025296
C87	C	0.375204	0.140646	-0.151577
C88	C	0.471167	0.153969	-0.084900
H89	H	0.361593	0.143450	-0.225858
H90	H	0.375983	0.092588	-0.114030
H91	H	0.322935	0.176873	-0.160082
H92	H	0.523435	0.117737	-0.076384
H93	H	0.470396	0.202021	-0.122449
O94	O	1.045595	0.111326	0.673186
C95	C	1.055912	0.183578	0.641841
H96	H	1.113199	0.195496	0.723178
H97	H	0.977783	0.225659	0.594816
C98	C	1.024975	0.174923	0.461350
C99	C	1.095343	0.189558	0.561249
H100	H	1.049293	0.178614	0.411633
H101	H	1.018020	0.126247	0.482465
H102	H	0.959873	0.209992	0.422177
H103	H	1.160439	0.154484	0.600428
H104	H	1.102309	0.238230	0.540139
O105	O	0.971230	0.168326	1.114218
C106	C	0.866360	0.168946	1.050425
H107	H	0.858326	0.119073	1.018635
H108	H	0.820644	0.222316	0.972849
C109	C	0.834281	0.226152	1.167526
C110	C	0.824415	0.164894	1.128488
H111	H	0.808405	0.223657	1.215675
H112	H	0.904933	0.225738	1.210502
H113	H	0.796184	0.270621	1.102870
H114	H	0.862522	0.120427	1.193142
H115	H	0.753768	0.165301	1.085524
H116	H	1.326622	-0.797810	0.482371
H117	H	0.457108	0.045433	0.257027
H118	H	1.338687	-0.222499	0.486843
O119	O	1.349945	-0.362508	0.491056
C120	C	1.377788	-0.423421	0.587603
H121	H	1.306998	-0.427756	0.590655
H122	H	1.439224	-0.415130	0.670458
C123	C	1.507785	-0.489978	0.573269
C124	C	1.420837	-0.495306	0.577012
H125	H	1.534344	-0.534320	0.566741
H126	H	1.489030	-0.448939	0.508227
H127	H	1.558970	-0.483067	0.642317
H128	H	1.369649	-0.502208	0.507959
H129	H	1.439584	-0.536348	0.642043
O130	O	0.940266	0.192175	0.738378
C131	C	0.862973	0.171540	0.649524
H132	H	0.870104	0.109981	0.683775
H133	H	0.872466	0.182359	0.573379
C134	C	0.747329	0.293146	0.566992
C135	C	0.756082	0.217540	0.609062
H136	H	0.681393	0.321523	0.542028
H137	H	0.799404	0.307050	0.626851
H138	H	0.755245	0.302152	0.503543
H139	H	0.748179	0.208535	0.672519
H140	H	0.704003	0.203636	0.549212
O141	O	0.624819	0.088281	0.047747
C142	C	0.670880	0.101245	-0.015756
H143	H	0.755867	0.069225	0.041833
H144	H	0.663703	0.163157	-0.046333
C145	C	0.511704	0.114351	-0.192347
C146	C	0.616085	0.075019	-0.121617
H147	H	0.477902	0.098177	-0.257651
H148	H	0.480670	0.105620	-0.149565
H149	H	0.505737	0.165941	-0.217815
H150	H	0.622050	0.023431	-0.096139
H151	H	0.647119	0.083740	-0.164398
H152	H	0.999257	-0.745353	0.363317
O153	O	1.237503	-0.036864	1.210944
C154	C	1.214756	-0.099572	1.177041
H155	H	1.156005	-0.081029	1.079432
H156	H	1.181539	-0.130140	1.224078
C157	C	1.386303	-0.174604	1.328206
C158	C	1.314150	-0.151829	1.208319
H159	H	1.447614	-0.206840	1.347504
H160	H	1.401628	-0.132357	1.351050
H161	H	1.358609	-0.200072	1.367389
H162	H	1.341840	-0.126353	1.169139
H163	H	1.298833	-0.194072	1.185469
H164	H	1.008554	-0.301963	0.366748
H165	H	1.113203	0.059039	0.652003
H166	H	1.287975	-0.075630	1.158872
H167	H	1.409685	-0.169452	0.950312
H168	H	1.011307	-0.170027	0.367754
O169	O	1.397438	-0.160179	1.111694
C170	C	1.361027	-0.212320	1.159238
H171	H	1.274421	-0.201633	1.096112
H172	H	1.377247	-0.206680	1.244725
C173	C	1.522707	-0.304461	1.258501
C174	C	1.416337	-0.291338	1.180963
H175	H	1.556827	-0.353204	1.271907
H176	H	1.547239	-0.269332	1.226473
H177	H	1.536208	-0.299756	1.329731
H178	H	1.402836	-0.296035	1.109731
H179	H	1.391803	-0.326470	1.212979
O180	O	1.366478	-0.136315	0.735813
C181	C	1.357675	-0.209724	0.758247
H182	H	1.286251	-0.210763	0.761189
H183	H	1.429120	-0.246648	0.845138
C184	C	1.435752	-0.237357	0.657787
C185	C	1.348024	-0.238631	0.661391
H186	H	1.429804	-0.255190	0.598046
H187	H	1.441687	-0.187900	0.642676
H188	H	1.495281	-0.268126	0.730202
H189	H	1.288498	-0.207855	0.588982
H190	H	1.342079	-0.288083	0.676487
O191	O	0.925064	0.002255	0.515611
C192	C	0.997706	-0.063424	0.547509
H193	H	0.995694	-0.068261	0.467822
H194	H	0.978044	-0.113413	0.585246
C195	C	1.108807	-0.055164	0.736894
C196	C	1.106342	-0.061102	0.639022
H197	H	1.175818	-0.053734	0.793347
H198	H	1.059865	-0.010916	0.715406
H199	H	1.092416	-0.096823	0.768327
H200	H	1.122719	-0.019439	0.607583
H201	H	1.155289	-0.105343	0.660507
O202	O	0.843620	-0.045960	0.758889
C203	C	0.844754	-0.117275	0.814651
H204	H	0.810021	-0.147405	0.748811
H205	H	0.797525	-0.111902	0.854172
C206	C	0.999369	-0.124726	0.991981
C207	C	0.956718	-0.161735	0.911117
H208	H	1.068432	-0.152151	1.051489
H209	H	0.998604	-0.076679	0.954415
H210	H	0.960002	-0.120251	1.024902
H211	H	0.996077	-0.166201	0.878187
H212	H	0.957492	-0.209784	0.948679
O213	O	0.713256	-0.056271	0.802382
C214	C	0.714390	-0.127586	0.858143
H215	H	0.679657	-0.157716	0.792303
H216	H	0.667161	-0.122213	0.897664
C217	C	0.869005	-0.135037	1.035473
C218	C	0.826354	-0.172046	0.954609
H219	H	0.938069	-0.162462	1.094982
H220	H	0.868240	-0.086990	0.997908
H221	H	0.829638	-0.130562	1.068395
H222	H	0.865713	-0.176512	0.921679
H223	H	0.827128	-0.220095	0.992172
O224	O	0.412930	0.029942	0.334515
C225	C	0.340260	0.095598	0.302639
H226	H	0.377289	0.125904	0.367721
H227	H	0.271182	0.081026	0.301933
C228	C	0.258695	0.108841	0.100923
C229	C	0.304177	0.146067	0.180852
H230	H	0.236433	0.139971	0.025797
H231	H	0.307651	0.064606	0.122397
H232	H	0.201136	0.096699	0.100348
H233	H	0.361742	0.158199	0.181436
H234	H	0.255230	0.190305	0.159374
H235	H	0.880839	-0.013276	0.593118
H236	H	0.823988	0.074457	0.134612
