data_functionalizedCrystal
_audit_creation_method	'MofGen! by Chris Wilmer'
_symmetry_space_group_name_H-M	'P1'
_symmetry_Int_Tables_number	1
_symmetry_cell_setting	triclinic
loop_
_symmetry_equiv_pos_as_xyz
  x,y,z
_cell_length_a	14.519709
_cell_length_b	19.288864
_cell_length_c	17.766277
_cell_angle_alpha	90.023209
_cell_angle_beta	89.992699
_cell_angle_gamma	96.591805
loop_
_atom_site_label
_atom_site_type_symbol
_atom_site_fract_x
_atom_site_fract_y
_atom_site_fract_z
O1	O	0.115045	-0.921767	-0.062837
O2	O	0.130564	-0.719562	-0.062786
O3	O	-0.011468	-0.826026	-0.062806
O4	O	0.257077	-0.815304	-0.062817
O5	O	-0.011475	-0.826007	0.062382
O6	O	0.130557	-0.719544	0.062402
O7	O	0.115038	-0.921748	0.062351
Cu8	Cu	0.122797	-0.820644	0.073808
Cu9	Cu	0.122805	-0.820666	-0.074242
O10	O	0.257070	-0.815285	0.062371
C11	C	0.130061	-0.693675	-0.000185
C12	C	0.128562	-0.616566	-0.000165
C13	C	-0.045828	-0.825517	-0.000212
C14	C	-0.148200	-0.824019	-0.000211
C15	C	0.115541	-0.947636	-0.000251
C16	C	0.117040	-1.024745	-0.000276
C17	C	-0.523061	-0.818507	-0.000229
C18	C	-0.418762	-0.820037	-0.000224
C19	C	-0.335633	-0.821263	-0.000219
C20	C	-0.231329	-0.822794	-0.000215
C21	C	0.291430	-0.815794	-0.000225
C22	C	0.393802	-0.817291	-0.000230
N23	N	0.122790	-0.820634	0.177938
C24	C	0.211900	-0.572169	-0.000181
C25	C	0.210492	-0.499717	-0.000189
C26	C	0.125741	-0.471665	-0.000197
C27	C	0.042392	-0.516071	-0.000178
C28	C	0.043803	-0.588521	-0.000162
C29	C	0.059120	-0.363169	-0.044079
C30	C	0.057713	-0.290720	-0.044099
C31	C	0.121387	-0.248203	-0.000242
C32	C	0.186483	-0.278144	0.043625
C33	C	0.187894	-0.350594	0.043641
C34	C	0.124202	-0.393105	-0.000214
C35	C	0.203203	-0.125246	-0.000265
C36	C	0.201792	-0.052792	-0.000269
C37	C	0.033689	-0.069148	-0.000265
C38	C	0.035103	-0.141599	-0.000254
C39	C	0.119863	-0.169644	-0.000258
N40	N	0.122805	-0.820682	-0.178373
C41	C	0.059929	-0.867791	0.217316
C42	C	0.059925	-0.867795	0.296118
C43	C	0.122798	-0.820648	0.335538
C44	C	0.185664	-0.773482	0.296151
C45	C	0.185660	-0.773475	0.217351
C46	C	0.206826	-0.811652	0.460375
C47	C	0.206831	-0.811664	0.539173
C48	C	0.122809	-0.820667	0.578585
C49	C	0.038778	-0.829672	0.539188
C50	C	0.038775	-0.829665	0.460387
C51	C	0.122808	-0.820651	0.420984
C52	C	0.059938	-0.867831	0.703409
C53	C	0.059932	-0.867830	0.782212
C54	C	0.185679	-0.773521	0.782244
C55	C	0.185676	-0.773518	0.703442
C56	C	0.122807	-0.820677	0.664029
H57	H	0.280918	-0.594998	-0.000185
C58	C	0.302174	-0.450872	-0.000214
N59	N	0.371229	-0.414084	-0.000238
C60	C	0.254841	-0.721659	0.825602
N61	N	0.306935	-0.682595	0.858263
H62	H	0.008738	-0.906230	0.814274
C63	C	-0.009238	-0.919661	0.173966
N64	N	-0.061339	-0.958727	0.141314
C65	C	0.259490	-0.383527	0.091902
N66	N	0.313414	-0.408332	0.128257
C67	C	0.293475	-0.003955	-0.000275
N68	N	0.362533	0.032829	-0.000277
C69	C	0.256528	-0.231381	0.091874
N70	N	0.309284	-0.196156	0.128214
C71	C	-0.009228	-0.919700	0.660052
N72	N	-0.061326	-0.958767	0.627398
C73	C	-0.047880	-0.637360	-0.000150
N74	N	-0.116936	-0.674146	-0.000144
C75	C	-0.009221	-0.919681	0.339442
N76	N	-0.061298	-0.958764	0.372072
H77	H	0.004711	-0.266348	-0.079822
C78	C	-0.059538	-0.038294	-0.000273
N79	N	-0.129760	-0.015052	-0.000278
H80	H	0.236850	-0.735073	0.185288
C81	C	-0.010928	-0.409931	-0.092331
N82	N	-0.063685	-0.445150	-0.128675
H83	H	0.236854	-0.735093	0.328251
C84	C	-0.056576	-0.190438	-0.000246
N85	N	-0.125634	-0.227223	-0.000239
H86	H	0.272220	-0.148080	-0.000257
H87	H	-0.029646	-0.836996	0.428314
C88	C	-0.050834	-0.485212	-0.000187
N89	N	-0.121055	-0.461969	-0.000193
H90	H	0.236867	-0.735121	0.671378
H91	H	-0.029641	-0.837003	0.571275
H92	H	0.275253	-0.804336	0.571244
C93	C	0.299263	-0.801748	0.417030
N94	N	0.368884	-0.794288	0.384384
