data_functionalizedCrystal
_audit_creation_method	'MofGen! by Chris Wilmer'
_symmetry_space_group_name_H-M	'P1'
_symmetry_Int_Tables_number	1
_symmetry_cell_setting	triclinic
loop_
_symmetry_equiv_pos_as_xyz
  x,y,z
_cell_length_a	12.759394
_cell_length_b	12.759401
_cell_length_c	12.759393
_cell_angle_alpha	90.022497
_cell_angle_beta	89.968780
_cell_angle_gamma	89.984341
loop_
_atom_site_label
_atom_site_type_symbol
_atom_site_fract_x
_atom_site_fract_y
_atom_site_fract_z
Zn1	Zn	-0.418193	-1.606265	-0.594059
Zn2	Zn	0.081807	-1.106265	-0.094059
Zn3	Zn	-0.593908	-1.606156	-0.418376
Zn4	Zn	-0.093908	-1.106156	0.081624
Zn5	Zn	-0.418246	-1.430564	-0.418389
Zn6	Zn	0.081754	-0.930564	0.081611
Zn7	Zn	-0.593833	-1.430556	-0.594009
Zn8	Zn	-0.093833	-0.930556	-0.094009
O9	O	-0.506045	-1.518385	-0.506208
O10	O	-0.006045	-1.018385	-0.006208
O11	O	-0.441511	-1.753272	-0.570769
O12	O	0.058489	-1.253272	-0.070769
O13	O	-0.570660	-1.582821	-0.271357
O14	O	-0.070660	-1.082821	0.228643
O15	O	-0.271218	-1.453921	-0.441718
O16	O	0.228782	-0.953921	0.058282
O17	O	-0.570608	-1.753192	-0.441697
O18	O	-0.070608	-1.253192	0.058303
O19	O	-0.271179	-1.583008	-0.570782
O20	O	0.228821	-1.083008	-0.070782
O21	O	-0.441602	-1.453815	-0.271366
O22	O	0.058398	-0.953815	0.228634
O23	O	-0.441529	-1.283542	-0.441670
O24	O	0.058471	-0.783542	0.058330
O25	O	-0.570480	-1.453906	-0.741037
O26	O	-0.070480	-0.953906	-0.241037
O27	O	-0.570532	-1.283536	-0.570697
O28	O	-0.070532	-0.783536	-0.070697
O29	O	-0.441438	-1.582999	-0.741073
O30	O	0.058562	-1.082999	-0.241073
O31	O	-0.740919	-1.582813	-0.441648
O32	O	-0.240919	-1.082813	0.058352
O33	O	-0.740864	-1.453800	-0.570685
O34	O	-0.240864	-0.953800	-0.070685
C35	C	-0.506029	-1.245418	-0.506180
C36	C	-0.006029	-0.745418	-0.006180
C37	C	-0.506047	-1.128641	-0.506193
C38	C	-0.006047	-0.628641	-0.006193
C39	C	-0.573320	-1.073804	-0.573270
C40	C	-0.073320	-0.573804	-0.073270
C41	C	-0.573323	-0.964080	-0.573288
C42	C	-0.073323	-0.464080	-0.073288
C43	C	-0.438776	-0.964041	-0.439142
C44	C	0.061224	-0.464041	0.060858
C45	C	-0.438769	-1.073763	-0.439130
C46	C	0.061231	-0.573763	0.060870
C47	C	-0.779012	-1.518322	-0.506183
C48	C	-0.279012	-1.018322	-0.006183
C49	C	-0.895789	-1.518391	-0.506207
C50	C	-0.395789	-1.018391	-0.006207
C51	C	-0.895794	-1.652833	-0.371942
C52	C	-0.395794	-1.152833	0.128058
C53	C	-0.950657	-1.720082	-0.304822
C54	C	-0.450657	-1.220082	0.195178
C55	C	-1.060378	-1.720143	-0.304851
C56	C	-0.560378	-1.220143	0.195149
C57	C	-1.115239	-1.652951	-0.372009
C58	C	-0.615239	-1.152951	0.127991
C59	C	-1.060376	-1.585703	-0.439129
C60	C	-0.560376	-1.085703	0.060871
C61	C	-0.950652	-1.585647	-0.439091
C62	C	-0.450652	-1.085647	0.060909
C63	C	-1.060372	-1.451268	-0.573397
C64	C	-0.560372	-0.951268	-0.073397
C65	C	-0.950650	-1.451200	-0.573365
C66	C	-0.450650	-0.951200	-0.073365
C67	C	-1.115233	-1.384076	-0.640556
C68	C	-0.615233	-0.884076	-0.140556
C69	C	-1.060370	-1.316821	-0.707672
C70	C	-0.560370	-0.816821	-0.207672
C71	C	-0.950642	-1.316761	-0.707640
C72	C	-0.450642	-0.816761	-0.207640
C73	C	-0.895787	-1.383951	-0.640485
C74	C	-0.395787	-0.883951	-0.140485
C75	C	-0.232012	-1.518477	-0.506257
C76	C	0.267988	-1.018477	-0.006257
C77	C	-0.115235	-1.518516	-0.506277
C78	C	0.384765	-1.018516	-0.006277
C79	C	-0.505944	-1.518464	-0.780242
C80	C	-0.005944	-1.018464	-0.280242
C81	C	-0.505901	-1.518497	-0.897018
C82	C	-0.005901	-1.018497	-0.397018
C83	C	-0.506059	-0.792419	-0.506230
C84	C	-0.006059	-0.292419	-0.006230
C85	C	-0.506057	-0.909195	-0.506222
C86	C	-0.006057	-0.409195	-0.006222
C87	C	-0.438698	-1.585721	-0.951901
C88	C	0.061302	-1.085721	-0.451901
C89	C	-0.438653	-1.585739	-1.061625
C90	C	0.061347	-1.085739	-0.561625
C91	C	-0.573023	-1.451306	-1.061574
C92	C	-0.073023	-0.951306	-0.561574
C93	C	-0.573062	-1.451284	-0.951852
C94	C	-0.073062	-0.951284	-0.451852
C95	C	-0.506070	-1.518367	-0.233241
C96	C	-0.006070	-1.018367	0.266759
C97	C	-0.505817	-1.518537	-0.116465
C98	C	-0.005817	-1.018537	0.383535
H99	H	-0.384003	-0.919345	-0.384541
H100	H	0.115997	-0.419345	0.115459
C101	C	-1.120723	-1.242917	-0.781536
C102	C	-0.620723	-0.742917	-0.281536
N103	N	-1.166186	-1.187247	-0.837168
N104	N	-0.666186	-0.687247	-0.337168
H105	H	-0.627705	-1.396586	-1.106233
H106	H	-0.127705	-0.896586	-0.606233
C107	C	-1.235936	-1.653029	-0.372041
C108	C	-0.735936	-1.153029	0.127959
N109	N	-1.326846	-1.653084	-0.372065
N110	N	-0.826846	-1.153084	0.127935
H111	H	-0.905978	-1.262004	-0.762301
H112	H	-0.405978	-0.762004	-0.262301
C113	C	-0.364727	-1.659693	-1.121991
C114	C	0.135273	-1.159693	-0.621991
N115	N	-0.309042	-1.715399	-1.167458
N116	N	0.190958	-1.215399	-0.667458
C117	C	-0.646991	-1.377325	-0.891478
C118	C	-0.146991	-0.877325	-0.391478
N119	N	-0.702669	-1.321619	-0.846004
N120	N	-0.202669	-0.821619	-0.346004
C121	C	-0.647320	-1.134166	-0.647048
C122	C	-0.147320	-0.634166	-0.147048
N123	N	-0.703056	-1.179628	-0.702623
N124	N	-0.203056	-0.679628	-0.202623
H125	H	-1.204574	-1.384136	-0.640579
H126	H	-0.704574	-0.884136	-0.140579
H127	H	-0.384009	-1.640448	-0.907259
H128	H	0.115991	-1.140448	-0.407259
C129	C	-0.647339	-0.903763	-0.647068
C130	C	-0.147339	-0.403763	-0.147068
N131	N	-0.703093	-0.858333	-0.702641
N132	N	-0.203093	-0.358333	-0.202641
C133	C	-0.364760	-1.134088	-0.365336
C134	C	0.135240	-0.634088	0.134664
N135	N	-0.309017	-1.179524	-0.309758
N136	N	0.190983	-0.679524	0.190242
C137	C	-1.120729	-1.794119	-0.231015
C138	C	-0.620729	-1.294119	0.268985
N139	N	-1.166185	-1.849836	-0.175401
N140	N	-0.666185	-1.349836	0.324599
H141	H	-0.806453	-1.652776	-0.371899
H142	H	-0.306453	-1.152776	0.128101
C143	C	-0.890302	-1.793986	-0.230949
C144	C	-0.390302	-1.293986	0.269051
N145	N	-0.844845	-1.849651	-0.175307
N146	N	-0.344845	-1.349651	0.324693
H147	H	-0.806446	-1.383902	-0.640446
H148	H	-0.306446	-0.883902	-0.140446
