data_functionalizedCrystal
_audit_creation_method	'MofGen! by Chris Wilmer'
_symmetry_space_group_name_H-M	'P1'
_symmetry_Int_Tables_number	1
_symmetry_cell_setting	triclinic
loop_
_symmetry_equiv_pos_as_xyz
  x,y,z
_cell_length_a	19.121063
_cell_length_b	12.645331
_cell_length_c	12.645323
_cell_angle_alpha	89.977324
_cell_angle_beta	87.591876
_cell_angle_gamma	87.532020
loop_
_atom_site_label
_atom_site_type_symbol
_atom_site_fract_x
_atom_site_fract_y
_atom_site_fract_z
Zn1	Zn	-0.279627	-1.602654	0.617388
Zn2	Zn	-0.397086	-1.594942	0.447665
Zn3	Zn	-0.279651	-1.425367	0.440134
Zn4	Zn	-0.397040	-1.417760	0.624877
O5	O	-0.338351	-1.510181	0.532516
O6	O	-0.295217	-1.749978	0.594892
O7	O	-0.381537	-1.572404	0.298321
O8	O	-0.181363	-1.455295	0.457361
O9	O	-0.381514	-1.744312	0.470197
O10	O	-0.181346	-1.585547	0.587589
O11	O	-0.295258	-1.447818	0.292788
O12	O	-0.295213	-1.276011	0.464623
O13	O	-0.381436	-1.442330	0.772230
O14	O	-0.381459	-1.270422	0.600353
O15	O	-0.295173	-1.578171	0.766727
O16	O	-0.495364	-1.565027	0.477459
O17	O	-0.495330	-1.434852	0.607656
C18	C	-0.338334	-1.234752	0.532485
C19	C	-0.338344	-1.116921	0.532497
C20	C	-0.520831	-1.498306	0.544210
C21	C	-0.598897	-1.493323	0.549248
C22	C	-0.338296	-1.510262	0.809018
C23	C	-0.338273	-1.510297	0.926847
C24	C	-0.635567	-1.558810	0.483885
C25	C	-0.708918	-1.554130	0.488629
C26	C	-0.745598	-1.483957	0.558733
C27	C	-0.708923	-1.418467	0.624104
C28	C	-0.635573	-1.423154	0.619364
C29	C	-0.967067	-1.466419	0.576438
C30	C	-1.040422	-1.461736	0.581171
C31	C	-1.040412	-1.597400	0.445697
C32	C	-0.967061	-1.602076	0.440959
C33	C	-0.930392	-1.536590	0.506334
C34	C	-0.820575	-1.479169	0.563582
C35	C	-0.855417	-1.541384	0.501489
C36	C	-0.155158	-1.522130	0.520800
C37	C	-0.077092	-1.527222	0.515807
C38	C	-0.338368	-1.786685	0.532549
C39	C	-0.338375	-1.904514	0.532563
C40	C	-0.283838	-0.952854	0.447545
C41	C	-0.283979	-1.075405	0.447195
C42	C	-0.412331	-1.067618	0.506730
C43	C	-0.412033	-0.945039	0.506155
C44	C	-0.319567	-0.950986	0.643576
C45	C	-0.317914	-1.073698	0.642847
C46	C	-0.338354	-1.510164	0.257087
C47	C	-0.338179	-1.510347	0.139246
C48	C	-0.392285	-1.424603	1.097856
C49	C	-0.392553	-1.424801	0.975313
C50	C	-0.358362	-1.620698	0.972656
C51	C	-0.358700	-1.620225	1.095276
C52	C	-0.263871	-1.486666	1.089271
C53	C	-0.264317	-1.484145	0.966693
H54	H	-0.605707	-1.615948	0.426794
Br55	Br	-0.758682	-1.643016	0.399924
Br56	Br	-0.231213	-0.905206	0.684162
Br57	Br	-0.483519	-1.449667	1.155164
Br58	Br	-0.484361	-1.450270	0.932335
Br59	Br	-0.917285	-1.697328	0.345828
H60	H	-1.070275	-1.650716	0.392474
Br61	Br	-0.482055	-0.891095	0.605284
Br62	Br	-0.481871	-1.111719	0.607054
H63	H	-1.070285	-1.404605	0.638276
Br64	Br	-0.196683	-1.590853	1.133313
Br65	Br	-0.227173	-1.128091	0.675393
H66	H	-0.937218	-1.413096	0.629667
Br67	Br	-0.439376	-1.116958	0.373195
H68	H	-0.413021	-1.640858	1.127372
Br69	Br	-0.233352	-1.355243	1.138817
Br70	Br	-0.438617	-0.895569	0.371124
H71	H	-0.249167	-1.402923	0.936622
H72	H	-0.738794	-1.361335	0.681188
Br73	Br	-0.585806	-1.334282	0.708082
H74	H	-0.320200	-1.686088	0.941072
Br75	Br	-0.870361	-1.383938	0.658722
Br76	Br	-0.193573	-1.581279	0.911134
H77	H	-0.412113	-1.641782	0.945416
Br78	Br	-0.192534	-1.131493	0.473206
H79	H	-0.321003	-1.686020	1.122535
Br80	Br	-0.192113	-0.909679	0.473192
H81	H	-0.296131	-0.921211	0.365663
H82	H	-0.825550	-1.598523	0.444415
Br83	Br	-0.379294	-1.120820	0.753437
H84	H	-0.296410	-1.103879	0.364833
Br85	Br	-0.371596	-1.288104	0.923790
Br86	Br	-0.385774	-0.898408	0.749059
H87	H	-0.379835	-1.342333	1.126531
