data_functionalizedCrystal
_audit_creation_method	'MofGen! by Chris Wilmer'
_symmetry_space_group_name_H-M	'P1'
_symmetry_Int_Tables_number	1
_symmetry_cell_setting	triclinic
loop_
_symmetry_equiv_pos_as_xyz
  x,y,z
_cell_length_a	19.805407
_cell_length_b	25.639240
_cell_length_c	19.805399
_cell_angle_alpha	89.969206
_cell_angle_beta	90.019573
_cell_angle_gamma	89.956837
loop_
_atom_site_label
_atom_site_type_symbol
_atom_site_fract_x
_atom_site_fract_y
_atom_site_fract_z
Zn1	Zn	1.034657	0.208163	0.382705
Zn2	Zn	1.284657	0.458163	0.632705
Zn3	Zn	1.534657	0.708163	0.882705
Zn4	Zn	1.784657	0.958163	1.132705
Zn5	Zn	1.034539	0.295597	0.269510
Zn6	Zn	1.284539	0.545597	0.519510
Zn7	Zn	1.534539	0.795597	0.769510
Zn8	Zn	1.784539	1.045597	1.019510
Zn9	Zn	0.921472	0.208177	0.269529
Zn10	Zn	1.171472	0.458177	0.519529
Zn11	Zn	1.421472	0.708177	0.769529
Zn12	Zn	1.671472	0.958177	1.019529
Zn13	Zn	0.921402	0.295569	0.382657
Zn14	Zn	1.171402	0.545569	0.632657
Zn15	Zn	1.421402	0.795569	0.882657
Zn16	Zn	1.671402	1.045569	1.132657
O17	O	0.978017	0.251877	0.326100
O18	O	1.228017	0.501877	0.576100
O19	O	1.478017	0.751877	0.826100
O20	O	1.728017	1.001877	1.076100
O21	O	1.129358	0.219767	0.367701
O22	O	1.379358	0.469767	0.617701
O23	O	1.629358	0.719767	0.867701
O24	O	1.879358	0.969767	1.117701
O25	O	1.019520	0.284018	0.174796
O26	O	1.269520	0.534018	0.424796
O27	O	1.519520	0.784018	0.674796
O28	O	1.769520	1.034018	0.924796
O29	O	0.936564	0.135010	0.284570
O30	O	1.186564	0.385010	0.534570
O31	O	1.436564	0.635010	0.784570
O32	O	1.686564	0.885010	1.034570
O33	O	1.129271	0.284004	0.284537
O34	O	1.379271	0.534004	0.534537
O35	O	1.629271	0.784004	0.784537
O36	O	1.879271	1.034004	1.034537
O37	O	1.019721	0.135000	0.367720
O38	O	1.269721	0.385000	0.617720
O39	O	1.519721	0.635000	0.867720
O40	O	1.769721	0.885000	1.117720
O41	O	0.936450	0.219791	0.174810
O42	O	1.186450	0.469791	0.424810
O43	O	1.436450	0.719791	0.674810
O44	O	1.686450	0.969791	0.924810
O45	O	0.826746	0.219764	0.284524
O46	O	1.076746	0.469764	0.534524
O47	O	1.326746	0.719764	0.784524
O48	O	1.576746	0.969764	1.034524
O49	O	0.936446	0.283957	0.477380
O50	O	1.186446	0.533957	0.727380
O51	O	1.436446	0.783957	0.977380
O52	O	1.686446	1.033957	1.227380
O53	O	0.826695	0.283971	0.367638
O54	O	1.076695	0.533971	0.617638
O55	O	1.326695	0.783971	0.867638
O56	O	1.576695	1.033971	1.117638
O57	O	1.019654	0.219740	0.477415
O58	O	1.269654	0.469740	0.727415
O59	O	1.519654	0.719740	0.977415
O60	O	1.769654	0.969740	1.227415
O61	O	1.019452	0.368758	0.284491
O62	O	1.269452	0.618758	0.534491
O63	O	1.519452	0.868758	0.784491
O64	O	1.769452	1.118758	1.034491
O65	O	0.936331	0.368738	0.367619
O66	O	1.186331	0.618738	0.617619
O67	O	1.436331	0.868738	0.867619
O68	O	1.686331	1.118738	1.117619
C69	C	0.802161	0.251867	0.326078
C70	C	1.052161	0.501867	0.576078
C71	C	1.302161	0.751867	0.826078
C72	C	1.552161	1.001867	1.076078
C73	C	0.726929	0.251875	0.326085
C74	C	0.976929	0.501875	0.576085
C75	C	1.226929	0.751875	0.826085
C76	C	1.476929	1.001875	1.076085
C77	C	0.691576	0.285357	0.369292
C78	C	0.941576	0.535357	0.619292
C79	C	1.191576	0.785357	0.869292
C80	C	1.441576	1.035357	1.119292
C81	C	0.620888	0.285358	0.369302
C82	C	0.870888	0.535358	0.619302
C83	C	1.120888	0.785358	0.869302
C84	C	1.370888	1.035358	1.119302
C85	C	0.585554	0.251879	0.326100
C86	C	0.835554	0.501879	0.576100
C87	C	1.085554	0.751879	0.826100
C88	C	1.335554	1.001879	1.076100
C89	C	0.620912	0.218393	0.282891
C90	C	0.870912	0.468393	0.532891
C91	C	1.120912	0.718393	0.782891
C92	C	1.370912	0.968393	1.032891
C93	C	0.691599	0.218390	0.282885
C94	C	0.941599	0.468390	0.532885
C95	C	1.191599	0.718390	0.782885
C96	C	1.441599	0.968390	1.032885
C97	C	0.335838	0.218404	0.282913
C98	C	0.585838	0.468404	0.532913
C99	C	0.835838	0.718404	0.782913
C100	C	1.085838	0.968404	1.032913
C101	C	0.265146	0.218411	0.282920
C102	C	0.515146	0.468411	0.532920
C103	C	0.765146	0.718411	0.782920
C104	C	1.015146	0.968411	1.032920
C105	C	0.265127	0.285373	0.369330
C106	C	0.515127	0.535373	0.619330
C107	C	0.765127	0.785373	0.869330
C108	C	1.015127	1.035373	1.119330
C109	C	0.335814	0.285370	0.369324
C110	C	0.585814	0.535370	0.619324
C111	C	0.835814	0.785370	0.869324
C112	C	1.085814	1.035370	1.119324
C113	C	0.371166	0.251882	0.326118
C114	C	0.621166	0.501882	0.576118
C115	C	0.871166	0.751882	0.826118
C116	C	1.121166	1.001882	1.076118
C117	C	0.447815	0.251881	0.326109
C118	C	0.697815	0.501881	0.576109
C119	C	0.947815	0.751881	0.826109
C120	C	1.197815	1.001881	1.076109
C121	C	0.508907	0.251883	0.326105
C122	C	0.758907	0.501883	0.576105
C123	C	1.008907	0.751883	0.826105
C124	C	1.258907	1.001883	1.076105
C125	C	0.977890	0.387719	0.326063
C126	C	1.227890	0.637719	0.576063
C127	C	1.477890	0.887719	0.826063
C128	C	1.727890	1.137719	1.076063
C129	C	0.977897	0.445833	0.326069
C130	C	1.227897	0.695833	0.576069
C131	C	1.477897	0.945833	0.826069
C132	C	1.727897	1.195833	1.076069
C133	C	1.021355	0.806194	0.282863
C134	C	1.271355	1.056194	0.532863
C135	C	1.521355	1.306194	0.782863
C136	C	1.771355	1.556194	1.032863
C137	C	1.021376	0.860799	0.282869
C138	C	1.271376	1.110799	0.532869
C139	C	1.521376	1.360799	0.782869
C140	C	1.771376	1.610799	1.032869
O141	O	1.058236	0.889034	0.246113
O142	O	1.308236	1.139034	0.496113
O143	O	1.558236	1.389034	0.746113
O144	O	1.808236	1.639034	0.996113
N145	N	0.978072	0.888116	0.326115
N146	N	1.228072	1.138116	0.576115
N147	N	1.478072	1.388116	0.826115
N148	N	1.728072	1.638116	1.076115
C149	C	0.934749	0.860826	0.369362
C150	C	1.184749	1.110826	0.619362
C151	C	1.434749	1.360826	0.869362
C152	C	1.684749	1.610826	1.119362
O153	O	0.897918	0.889075	0.406147
O154	O	1.147918	1.139075	0.656147
O155	O	1.397918	1.389075	0.906147
O156	O	1.647918	1.639075	1.156147
C157	C	0.934732	0.806222	0.369358
C158	C	1.184732	1.056222	0.619358
C159	C	1.434732	1.306222	0.869358
C160	C	1.684732	1.556222	1.119358
C161	C	0.978034	0.778908	0.326105
C162	C	1.228034	1.028908	0.576105
C163	C	1.478034	1.278908	0.826105
C164	C	1.728034	1.528908	1.076105
C165	C	1.064654	0.778880	0.239614
C166	C	1.314654	1.028880	0.489614
C167	C	1.564654	1.278880	0.739614
C168	C	1.814654	1.528880	0.989614
C169	C	1.064633	0.724280	0.239606
C170	C	1.314633	0.974280	0.489606
C171	C	1.564633	1.224280	0.739606
C172	C	1.814633	1.474280	0.989606
C173	C	1.021312	0.696993	0.282848
C174	C	1.271312	0.946993	0.532848
C175	C	1.521312	1.196993	0.782848
C176	C	1.771312	1.446993	1.032848
C177	C	0.978013	0.724307	0.326098
C178	C	1.228013	0.974307	0.576098
C179	C	1.478013	1.224307	0.826098
C180	C	1.728013	1.474307	1.076098
C181	C	0.891413	0.778933	0.412608
C182	C	1.141413	1.028933	0.662608
C183	C	1.391413	1.278933	0.912608
C184	C	1.641413	1.528933	1.162608
C185	C	0.891401	0.724326	0.412601
C186	C	1.141401	0.974326	0.662601
C187	C	1.391401	1.224326	0.912601
C188	C	1.641401	1.474326	1.162601
C189	C	0.934703	0.697012	0.369348
C190	C	1.184703	0.947012	0.619348
C191	C	1.434703	1.197012	0.869348
C192	C	1.684703	1.447012	1.119348
C193	C	0.934670	0.642421	0.369333
C194	C	1.184670	0.892421	0.619333
C195	C	1.434670	1.142421	0.869333
C196	C	1.684670	1.392421	1.119333
N197	N	0.977974	0.615104	0.326087
N198	N	1.227974	0.865104	0.576087
N199	N	1.477974	1.115104	0.826087
N200	N	1.727974	1.365104	1.076087
C201	C	1.021295	0.642390	0.282845
C202	C	1.271295	0.892390	0.532845
C203	C	1.521295	1.142390	0.782845
C204	C	1.771295	1.392390	1.032845
C205	C	0.934788	0.975496	0.369367
C206	C	1.184788	1.225496	0.619367
C207	C	1.434788	1.475496	0.869367
C208	C	1.684788	1.725496	1.119367
C209	C	0.934801	1.030098	0.369368
C210	C	1.184801	1.280098	0.619368
C211	C	1.434801	1.530098	0.869368
C212	C	1.684801	1.780098	1.119368
C213	C	1.021429	1.030068	0.282876
C214	C	1.271429	1.280068	0.532876
C215	C	1.521429	1.530068	0.782876
C216	C	1.771429	1.780068	1.032876
C217	C	1.021412	0.975464	0.282872
C218	C	1.271412	1.225464	0.532872
C219	C	1.521412	1.475464	0.782872
C220	C	1.771412	1.725464	1.032872
C221	C	0.978093	0.948179	0.326121
C222	C	1.228093	1.198179	0.576121
C223	C	1.478093	1.448179	0.826121
C224	C	1.728093	1.698179	1.076121
C225	C	1.021245	0.527725	0.282833
C226	C	1.271245	0.777725	0.532833
C227	C	1.521245	1.027725	0.782833
C228	C	1.771245	1.277725	1.032833
C229	C	1.021218	0.473120	0.282827
C230	C	1.271218	0.723120	0.532827
C231	C	1.521218	0.973120	0.782827
C232	C	1.771218	1.223120	1.032827
C233	C	0.934593	0.473155	0.369321
C234	C	1.184593	0.723155	0.619321
C235	C	1.434593	0.973155	0.869321
C236	C	1.684593	1.223155	1.119321
C237	C	0.934618	0.527756	0.369324
C238	C	1.184618	0.777756	0.619324
C239	C	1.434618	1.027756	0.869324
C240	C	1.684618	1.277756	1.119324
C241	C	0.977949	0.555039	0.326078
C242	C	1.227949	0.805039	0.576078
C243	C	1.477949	1.055039	0.826078
C244	C	1.727949	1.305039	1.076078
O245	O	0.897831	0.614151	0.406073
O246	O	1.147831	0.864151	0.656073
O247	O	1.397831	1.114151	0.906073
O248	O	1.647831	1.364151	1.156073
O249	O	1.058126	0.614134	0.246072
O250	O	1.308126	0.864134	0.496072
O251	O	1.558126	1.114134	0.746072
O252	O	1.808126	1.364134	0.996072
C253	C	1.154560	0.251887	0.326122
C254	C	1.404560	0.501887	0.576122
C255	C	1.654560	0.751887	0.826122
C256	C	1.904560	1.001887	1.076122
C257	C	1.229792	0.251891	0.326132
C258	C	1.479792	0.501891	0.576132
C259	C	1.729792	0.751891	0.826132
C260	C	1.979792	1.001891	1.076132
C261	C	0.978055	0.251844	0.502643
C262	C	1.228055	0.501844	0.752643
C263	C	1.478055	0.751844	1.002643
C264	C	1.728055	1.001844	1.252643
C265	C	0.978071	0.251830	0.577875
C266	C	1.228071	0.501830	0.827875
C267	C	1.478071	0.751830	1.077875
C268	C	1.728071	1.001830	1.327875
C269	C	0.978138	1.115504	0.326141
C270	C	1.228138	1.365504	0.576141
C271	C	1.478138	1.615504	0.826141
C272	C	1.728138	1.865504	1.076141
C273	C	0.978125	1.057390	0.326128
C274	C	1.228125	1.307390	0.576128
C275	C	1.478125	1.557390	0.826128
C276	C	1.728125	1.807390	1.076128
C277	C	0.978018	0.251872	0.150244
C278	C	1.228018	0.501872	0.400244
C279	C	1.478018	0.751872	0.650244
C280	C	1.728018	1.001872	0.900244
C281	C	0.978133	0.251738	0.075012
C282	C	1.228133	0.501738	0.325012
C283	C	1.478133	0.751738	0.575012
C284	C	1.728133	1.001738	0.825012
C285	C	1.021399	0.218390	0.613238
C286	C	1.271399	0.468390	0.863238
C287	C	1.521399	0.718390	1.113238
C288	C	1.771399	0.968390	1.363238
C289	C	1.021406	0.218375	0.683927
C290	C	1.271406	0.468375	0.933927
C291	C	1.521406	0.718375	1.183927
C292	C	1.771406	0.968375	1.433927
C293	C	0.978088	0.251802	0.719251
C294	C	1.228088	0.501802	0.969251
C295	C	1.478088	0.751802	1.219251
C296	C	1.728088	1.001802	1.469251
C297	C	0.934756	0.285243	0.683882
C298	C	1.184756	0.535243	0.933882
C299	C	1.434756	0.785243	1.183882
C300	C	1.684756	1.035243	1.433882
C301	C	0.934746	0.285255	0.613195
C302	C	1.184746	0.535255	0.863195
C303	C	1.434746	0.785255	1.113195
C304	C	1.684746	1.035255	1.363195
C305	C	0.934794	0.285195	0.968955
C306	C	1.184794	0.535195	1.218955
C307	C	1.434794	0.785195	1.468955
C308	C	1.684794	1.035195	1.718955
C309	C	0.934809	0.285181	1.039648
C310	C	1.184809	0.535181	1.289648
C311	C	1.434809	0.785181	1.539648
C312	C	1.684809	1.035181	1.789648
C313	C	1.021454	0.218314	1.039688
C314	C	1.271454	0.468314	1.289688
C315	C	1.521454	0.718314	1.539688
C316	C	1.771454	0.968314	1.789688
C317	C	1.021444	0.218326	0.969000
C318	C	1.271444	0.468326	1.219000
C319	C	1.521444	0.718326	1.469000
C320	C	1.771444	0.968326	1.719000
C321	C	0.978110	0.251765	0.933638
C322	C	1.228110	0.501765	1.183638
C323	C	1.478110	0.751765	1.433638
C324	C	1.728110	1.001765	1.683638
C325	C	0.978102	0.251780	0.856990
C326	C	1.228102	0.501780	1.106990
C327	C	1.478102	0.751780	1.356990
C328	C	1.728102	1.001780	1.606990
C329	C	0.978099	0.251790	0.795898
C330	C	1.228099	0.501790	1.045898
C331	C	1.478099	0.751790	1.295898
C332	C	1.728099	1.001790	1.545898
H333	H	0.720382	0.191122	0.247704
H334	H	0.970382	0.441122	0.497704
H335	H	1.220382	0.691122	0.747704
H336	H	1.470382	0.941122	0.997704
Br337	Br	0.875806	0.436113	0.428007
Br338	Br	1.125806	0.686113	0.678007
Br339	Br	1.375806	0.936113	0.928007
Br340	Br	1.625806	1.186113	1.178007
Br341	Br	1.080238	0.172962	0.921065
Br342	Br	1.330238	0.422962	1.171065
Br343	Br	1.580238	0.672962	1.421065
Br344	Br	1.830238	0.922962	1.671065
Br345	Br	1.080265	0.172931	1.087683
Br346	Br	1.330265	0.422931	1.337683
Br347	Br	1.580265	0.672931	1.587683
Br348	Br	1.830265	0.922931	1.837683
Br349	Br	0.383807	0.172953	0.224279
Br350	Br	0.633807	0.422953	0.474279
Br351	Br	0.883807	0.672953	0.724279
Br352	Br	1.133807	0.922953	0.974279
Br353	Br	0.875982	0.330575	0.920972
Br354	Br	1.125982	0.580575	1.170972
Br355	Br	1.375982	0.830575	1.420972
Br356	Br	1.625982	1.080575	1.670972
H357	H	1.099935	0.801091	0.204400
H358	H	1.349935	1.051091	0.454400
H359	H	1.599935	1.301091	0.704400
H360	H	1.849935	1.551091	0.954400
H361	H	0.592137	0.191131	0.247718
H362	H	0.842137	0.441131	0.497718
H363	H	1.092137	0.691131	0.747718
H364	H	1.342137	0.941131	0.997718
H365	H	0.236379	0.191145	0.247740
H366	H	0.486379	0.441145	0.497740
H367	H	0.736379	0.691145	0.747740
H368	H	0.986379	0.941145	0.997740
H369	H	1.099895	0.702043	0.204388
H370	H	1.349895	0.952043	0.454388
H371	H	1.599895	1.202043	0.704388
H372	H	1.849895	1.452043	0.954388
H373	H	1.056689	0.191146	0.712717
H374	H	1.306689	0.441146	0.962717
H375	H	1.556689	0.691146	1.212717
H376	H	1.806689	0.941146	1.462717
H377	H	1.056480	0.450882	0.247603
H378	H	1.306480	0.700882	0.497603
H379	H	1.556480	0.950882	0.747603
H380	H	1.806480	1.200882	0.997603
H381	H	0.856125	0.702113	0.447822
H382	H	1.106125	0.952113	0.697822
H383	H	1.356125	1.202113	0.947822
H384	H	1.606125	1.452113	1.197822
H385	H	1.056673	0.953228	0.247652
H386	H	1.306673	1.203228	0.497652
H387	H	1.556673	1.453228	0.747652
H388	H	1.806673	1.703228	0.997652
H389	H	0.899360	0.549996	0.404547
H390	H	1.149360	0.799996	0.654547
H391	H	1.399360	1.049996	0.904547
H392	H	1.649360	1.299996	1.154547
Br393	Br	0.876018	0.330550	1.087587
Br394	Br	1.126018	0.580550	1.337587
Br395	Br	1.376018	0.830550	1.587587
Br396	Br	1.626018	1.080550	1.837587
H397	H	1.056675	0.191171	0.584483
H398	H	1.306675	0.441171	0.834483
H399	H	1.556675	0.691171	1.084483
H400	H	1.806675	0.941171	1.334483
Br401	Br	0.572911	0.330800	0.427945
Br402	Br	0.822911	0.580800	0.677945
Br403	Br	1.072911	0.830800	0.927945
Br404	Br	1.322911	1.080800	1.177945
Br405	Br	0.383764	0.330811	0.427953
Br406	Br	0.633764	0.580811	0.677953
Br407	Br	0.883764	0.830811	0.927953
Br408	Br	1.133764	1.080811	1.177953
H409	H	0.236335	0.312639	0.404513
H410	H	0.486335	0.562639	0.654513
H411	H	0.736335	0.812639	0.904513
H412	H	0.986335	1.062639	1.154513
H413	H	1.056532	0.549933	0.247619
H414	H	1.306532	0.799933	0.497619
H415	H	1.556532	1.049933	0.747619
H416	H	1.806532	1.299933	0.997619
H417	H	1.056706	1.052294	0.247668
H418	H	1.306706	1.302294	0.497668
H419	H	1.556706	1.552294	0.747668
H420	H	1.806706	1.802294	0.997668
Br421	Br	0.876022	1.067161	0.428061
Br422	Br	1.126022	1.317161	0.678061
Br423	Br	1.376022	1.567161	0.928061
Br424	Br	1.626022	1.817161	1.178061
Br425	Br	0.875963	0.330606	0.731820
Br426	Br	1.125963	0.580606	0.981820
Br427	Br	1.375963	0.830606	1.231820
Br428	Br	1.625963	1.080606	1.481820
Br429	Br	0.875987	0.938472	0.428064
Br430	Br	1.125987	1.188472	0.678064
Br431	Br	1.375987	1.438472	0.928064
Br432	Br	1.625987	1.688472	1.178064
Br433	Br	0.832650	0.815989	0.471320
Br434	Br	1.082650	1.065989	0.721320
Br435	Br	1.332650	1.315989	0.971320
Br436	Br	1.582650	1.565989	1.221320
H437	H	0.899458	0.312480	0.584403
H438	H	1.149458	0.562480	0.834403
H439	H	1.399458	0.812480	1.084403
H440	H	1.649458	1.062480	1.334403
H441	H	0.720340	0.312622	0.404470
H442	H	0.970340	0.562622	0.654470
H443	H	1.220340	0.812622	0.904470
H444	H	1.470340	1.062622	1.154470
