data_functionalizedCrystal
_audit_creation_method	'MofGen! by Chris Wilmer'
_symmetry_space_group_name_H-M	'P1'
_symmetry_Int_Tables_number	1
_symmetry_cell_setting	triclinic
loop_
_symmetry_equiv_pos_as_xyz
  x,y,z
_cell_length_a	17.019383
_cell_length_b	17.038272
_cell_length_c	18.366186
_cell_angle_alpha	89.993834
_cell_angle_beta	86.114979
_cell_angle_gamma	87.246883
loop_
_atom_site_label
_atom_site_type_symbol
_atom_site_fract_x
_atom_site_fract_y
_atom_site_fract_z
O1	O	1.053365	0.099661	-0.126533
O2	O	0.824553	0.112349	-0.112202
O3	O	0.937599	-0.007809	-0.119277
O4	O	0.940319	0.219820	-0.119458
O5	O	0.937578	-0.007815	0.001824
O6	O	0.824532	0.112343	0.008899
O7	O	1.053344	0.099655	-0.005432
Zn8	Zn	0.938935	0.105998	0.020961
Zn9	Zn	0.938962	0.106006	-0.138595
O10	O	0.940298	0.219814	0.001642
C11	C	0.795121	0.111863	-0.049809
C12	C	0.707454	0.110414	-0.044318
C13	C	0.666273	0.109738	-0.107745
C14	C	0.583899	0.108389	-0.102575
C15	C	0.542710	0.107710	-0.033977
C16	C	0.583897	0.108388	0.029455
C17	C	0.666269	0.109743	0.024284
C18	C	0.294001	0.103624	-0.015062
C19	C	0.211624	0.102267	-0.009896
C20	C	0.211632	0.102269	-0.141926
C21	C	0.294005	0.103619	-0.147091
C22	C	0.335185	0.104301	-0.083659
C23	C	0.458512	0.106328	-0.028691
C24	C	0.419382	0.105689	-0.088946
C25	C	0.935115	-0.036938	-0.058571
C26	C	0.927735	-0.123725	-0.058109
C27	C	0.995494	-0.173894	-0.062353
C28	C	0.988555	-0.255439	-0.061925
C29	C	0.913855	-0.286814	-0.057249
C30	C	0.846090	-0.236639	-0.053007
C31	C	0.853030	-0.155095	-0.053440
C32	C	0.889338	-0.532552	-0.055723
C33	C	0.882403	-0.614102	-0.055288
C34	C	1.024868	-0.632896	-0.064207
C35	C	1.031802	-0.551350	-0.064635
C36	C	0.964037	-0.501183	-0.060398
C37	C	0.906760	-0.370165	-0.056809
C38	C	0.971132	-0.417832	-0.060843
C39	C	1.082776	0.100142	-0.067827
C40	C	1.170443	0.101591	-0.073323
C41	C	0.942782	0.248943	-0.059065
C42	C	0.950162	0.335730	-0.059531
N43	N	0.938922	0.105993	0.129853
N44	N	0.938981	0.106006	-0.247487
C45	C	0.988998	0.052813	0.164819
C46	C	0.989002	0.052809	0.241047
C47	C	0.938939	0.105999	0.282304
C48	C	0.888854	0.159183	0.247329
C49	C	0.888845	0.159180	0.171103
C50	C	0.933383	0.177212	0.403409
C51	C	0.933398	0.177216	0.479633
C52	C	0.938963	0.106009	0.517410
C53	C	0.944529	0.034795	0.478953
C54	C	0.944520	0.034791	0.402727
C55	C	0.938943	0.106008	0.364959
C56	C	0.989047	0.052821	0.635031
C57	C	0.989046	0.052816	0.711260
C58	C	0.888901	0.159197	0.717541
C59	C	0.888898	0.159195	0.641314
C60	C	0.938975	0.106007	0.600063
H61	H	0.550373	0.107839	-0.154224
Cl62	Cl	1.065037	-0.378388	-0.066725
H63	H	1.043733	-0.296283	-0.065379
H64	H	0.699803	0.110289	-0.163604
Cl65	Cl	0.951509	-0.054730	0.354384
Cl66	Cl	0.767843	-0.092025	-0.048108
Cl67	Cl	0.825913	0.226048	0.299194
Cl68	Cl	0.825946	0.226057	0.597351
H69	H	1.029771	0.009503	0.131235
H70	H	0.848066	0.202486	0.142633
Cl71	Cl	0.812855	-0.409615	-0.050934
Cl72	Cl	1.051962	-0.014051	0.285012
H73	H	0.327536	0.104167	-0.202950
H74	H	0.949060	-0.023189	0.509710
H75	H	1.029820	0.009510	0.601444
Cl76	Cl	0.532116	0.107541	0.115693
H77	H	0.452921	0.106246	-0.144798
H78	H	0.821570	-0.639643	-0.051468
H79	H	1.029821	0.009507	0.739731
Cl80	Cl	0.825958	0.226059	0.769403
Cl81	Cl	0.159859	0.101403	-0.221663
H82	H	0.178089	0.101736	0.045967
H83	H	0.928870	0.235203	0.510939
H84	H	0.834158	-0.491714	-0.052272
Cl85	Cl	0.406724	0.105473	0.057544
Cl86	Cl	0.718040	0.110596	0.104024
H87	H	0.928839	0.235201	0.372658
Cl88	Cl	1.089408	-0.134460	-0.068224
Cl89	Cl	1.125714	-0.511914	-0.070538
Cl90	Cl	0.345760	0.104480	0.064682
H91	H	0.785268	-0.262190	-0.049204
H92	H	1.080038	-0.673751	-0.067658
