data_functionalizedCrystal
_audit_creation_method	'MofGen! by Chris Wilmer'
_symmetry_space_group_name_H-M	'P1'
_symmetry_Int_Tables_number	1
_symmetry_cell_setting	triclinic
loop_
_symmetry_equiv_pos_as_xyz
  x,y,z
_cell_length_a	19.805407
_cell_length_b	29.839133
_cell_length_c	29.839125
_cell_angle_alpha	89.992589
_cell_angle_beta	89.988572
_cell_angle_gamma	90.026918
loop_
_atom_site_label
_atom_site_type_symbol
_atom_site_fract_x
_atom_site_fract_y
_atom_site_fract_z
Zn1	Zn	1.034678	-0.178948	-0.254031
Zn2	Zn	1.034599	-0.254060	-0.178914
Zn3	Zn	0.921505	-0.178942	-0.178914
Zn4	Zn	0.921450	-0.254049	-0.254016
O5	O	0.978058	-0.216500	-0.216469
O6	O	1.129384	-0.188920	-0.244072
O7	O	1.019587	-0.244098	-0.116047
O8	O	0.936574	-0.116076	-0.188884
O9	O	1.129326	-0.244104	-0.188885
O10	O	1.019722	-0.116080	-0.244072
O11	O	0.936498	-0.188909	-0.116047
O12	O	0.826781	-0.188897	-0.188871
O13	O	0.936480	-0.244084	-0.316885
O14	O	0.826741	-0.244078	-0.244048
O15	O	1.019668	-0.188908	-0.316896
O16	O	1.019533	-0.316926	-0.188871
O17	O	0.936403	-0.316917	-0.244048
C18	C	0.802202	-0.216486	-0.216458
C19	C	0.726970	-0.216491	-0.216464
C20	C	0.691657	-0.187807	-0.245244
C21	C	0.620968	-0.187809	-0.245246
C22	C	0.585594	-0.216498	-0.216469
C23	C	0.620913	-0.245183	-0.187686
C24	C	0.691600	-0.245178	-0.187683
C25	C	0.335839	-0.245203	-0.187700
C26	C	0.265147	-0.245207	-0.187707
C27	C	0.265208	-0.187834	-0.245263
C28	C	0.335895	-0.187829	-0.245259
C29	C	0.371207	-0.216513	-0.216475
C30	C	0.447856	-0.216509	-0.216473
C31	C	0.508947	-0.216504	-0.216473
C32	C	0.977972	-0.333222	-0.216468
C33	C	0.977997	-0.383157	-0.216482
C34	C	1.021378	-0.739712	-0.245238
C35	C	1.021314	-0.552039	-0.245238
O36	O	1.058110	-0.527746	-0.269680
N37	N	0.978051	-0.528602	-0.216481
C38	C	0.934804	-0.552087	-0.187720
O39	O	0.898009	-0.527846	-0.163258
C40	C	0.934872	-0.739759	-0.187719
C41	C	0.978133	-0.763193	-0.216481
C42	C	1.064636	-0.763146	-0.273997
C43	C	1.064649	-0.810061	-0.273999
C44	C	1.021404	-0.833542	-0.245241
C45	C	0.978146	-0.810108	-0.216482
C46	C	0.891629	-0.763242	-0.158956
C47	C	0.891651	-0.810164	-0.158958
C48	C	0.934912	-0.833598	-0.187720
C49	C	0.934914	-0.880505	-0.187726
N50	N	0.978177	-0.903942	-0.216483
C51	C	1.021422	-0.880460	-0.245240
C52	C	0.934770	-0.453556	-0.187724
C53	C	0.934752	-0.406638	-0.187725
C54	C	1.021263	-0.406593	-0.245241
C55	C	1.021277	-0.453512	-0.245242
C56	C	0.978033	-0.476992	-0.216480
C57	C	1.021445	-0.978986	-0.245242
C58	C	1.021452	-1.025906	-0.245242
C59	C	0.934944	-1.025946	-0.187724
C60	C	0.934934	-0.979031	-0.187725
C61	C	0.978190	-0.955552	-0.216486
O62	O	0.898142	-0.904826	-0.163293
O63	O	1.058221	-0.904709	-0.269692
C64	C	1.021365	-0.692796	-0.245237
C65	C	0.978107	-0.669362	-0.216478
C66	C	0.934862	-0.692843	-0.187720
C67	C	0.978089	-0.622444	-0.216478
C68	C	1.021334	-0.598963	-0.245236
C69	C	1.064597	-0.622399	-0.273992
C70	C	1.064610	-0.669315	-0.273994
C71	C	0.891599	-0.669407	-0.158963
C72	C	0.891589	-0.622491	-0.158965
C73	C	0.934834	-0.599010	-0.187722
C74	C	1.154601	-0.216514	-0.216480
C75	C	1.229833	-0.216520	-0.216485
C76	C	0.978076	-0.216496	-0.333647
C77	C	0.978084	-0.216494	-0.383582
C78	C	0.978163	-0.099321	-0.216480
C79	C	0.978207	-0.049387	-0.216485
C80	C	1.021446	-0.187689	-0.693234
C81	C	1.021479	-0.187651	-0.880907
O82	O	1.058297	-0.163202	-0.905179
N83	N	0.978174	-0.216374	-0.904367
C84	C	0.934854	-0.245107	-0.880906
O85	O	0.898016	-0.269533	-0.905167
C86	C	0.934817	-0.245142	-0.693234
C87	C	0.978131	-0.216420	-0.669776
C88	C	1.064755	-0.158969	-0.669776
C89	C	1.064749	-0.158980	-0.622860
C90	C	1.021433	-0.187712	-0.599403
C91	C	0.978124	-0.216432	-0.622860
C92	C	0.891494	-0.273872	-0.669774
C93	C	0.891488	-0.273878	-0.622853
C94	C	0.934801	-0.245156	-0.599395
C95	C	0.934803	-0.245175	-0.552487
N96	N	0.978108	-0.216452	-0.529027
C97	C	1.021424	-0.187720	-0.552485
C98	C	0.934877	-0.245086	-0.979437
C99	C	0.934887	-0.245078	-1.026354
C100	C	1.021512	-0.187621	-1.026352
C101	C	1.021505	-0.187632	-0.979433
C102	C	0.978182	-0.216363	-0.955976
C103	C	1.021408	-0.187747	-0.453959
C104	C	1.021400	-0.187763	-0.407039
C105	C	0.934772	-0.245217	-0.407046
C106	C	0.934783	-0.245204	-0.453961
C107	C	0.978103	-0.216465	-0.477417
O108	O	0.897999	-0.269607	-0.528186
O109	O	1.058246	-0.163290	-0.528216
C110	C	1.021452	-0.187677	-0.740149
C111	C	0.978143	-0.216397	-0.763607
C112	C	0.934828	-0.245129	-0.740149
C113	C	0.978153	-0.216389	-0.810525
C114	C	1.021468	-0.187657	-0.833982
C115	C	1.064774	-0.158934	-0.810522
C116	C	1.064767	-0.158946	-0.763607
C117	C	0.891522	-0.273852	-0.763609
C118	C	0.891532	-0.273838	-0.810525
C119	C	0.934848	-0.245107	-0.833983
C120	C	0.978079	-0.216471	-0.099746
C121	C	0.978202	-0.216347	-0.049812
H122	H	1.056669	-0.959875	-0.268661
O123	O	0.230979	-0.159905	-0.273201
C124	C	0.209379	-0.083521	-0.295123
C125	C	0.248193	-0.115097	-0.263463
H126	H	0.223271	-0.047286	-0.287256
H127	H	0.223302	-0.091430	-0.331341
H128	H	0.152784	-0.088472	-0.290192
H129	H	0.304797	-0.110163	-0.268355
H130	H	0.234214	-0.107180	-0.227257
O131	O	0.230889	-0.273089	-0.159707
C132	C	0.238284	-0.330011	-0.102631
C133	C	0.277166	-0.298452	-0.134307
H134	H	0.275682	-0.350532	-0.082093
H135	H	0.205208	-0.309371	-0.079150
H136	H	0.205169	-0.353517	-0.123227
H137	H	0.310317	-0.274939	-0.113747
H138	H	0.310199	-0.319120	-0.157789
O139	O	1.063457	-0.159770	-0.476690
C140	C	1.096368	-0.083349	-0.491048
C141	C	1.048713	-0.114980	-0.465271
H142	H	1.084455	-0.047130	-0.481832
H143	H	1.150945	-0.091212	-0.481814
H144	H	1.088954	-0.088293	-0.528610
H145	H	1.056067	-0.110054	-0.427703
H146	H	0.994153	-0.107109	-0.474541
O147	O	0.586448	-0.273037	-0.159774
C148	C	0.477527	-0.298455	-0.134252
C149	C	0.516471	-0.266893	-0.165892
H150	H	0.420943	-0.293492	-0.139181
H151	H	0.491359	-0.334701	-0.142081
H152	H	0.491454	-0.290514	-0.098045
H153	H	0.502565	-0.274794	-0.202111
H154	H	0.502635	-0.230657	-0.158025
O155	O	1.063445	-1.048620	-0.273244
C156	C	1.096191	-1.062965	-0.349686
C157	C	1.048605	-1.037208	-0.318026
H158	H	1.084201	-1.053755	-0.385899
H159	H	1.150786	-1.053709	-0.341868
H160	H	1.088786	-1.100531	-0.344727
H161	H	1.055951	-0.999637	-0.322968
H162	H	0.994028	-1.046502	-0.325852
O163	O	0.726010	-0.273000	-0.159741
C164	C	0.834883	-0.298438	-0.134244
C165	C	0.795999	-0.266901	-0.165906
H166	H	0.891476	-0.293525	-0.139224
H167	H	0.821024	-0.290494	-0.098023
H168	H	0.820929	-0.334672	-0.142069
H169	H	0.809933	-0.230657	-0.158121
H170	H	0.809862	-0.274884	-0.202117
H171	H	1.056501	-0.472589	-0.268665
H172	H	0.720453	-0.164446	-0.268678
H173	H	1.099837	-0.688391	-0.297415
O174	O	1.063539	-0.159921	-0.384231
C175	C	1.154885	-0.153883	-0.331240
C176	C	1.107223	-0.185466	-0.357050
H177	H	1.190205	-0.174523	-0.309251
H178	H	1.185891	-0.133350	-0.356045
H179	H	1.123804	-0.130389	-0.309292
H180	H	1.138251	-0.208987	-0.378998
H181	H	1.076214	-0.205967	-0.332220
O182	O	1.106747	-0.832752	-0.301945
C183	C	1.192542	-0.827738	-0.359000
C184	C	1.144902	-0.801989	-0.327368
H185	H	1.223391	-0.802878	-0.379570
H186	H	1.228009	-0.849674	-0.338413
H187	H	1.161452	-0.849731	-0.382457
H188	H	1.175937	-0.779972	-0.303905
H189	H	1.109432	-0.780082	-0.347983
O190	O	1.063644	-0.159793	-0.956627
C191	C	1.154992	-0.153754	-0.903638
C192	C	1.107324	-0.185336	-0.929444
H193	H	1.190310	-0.174393	-0.881647
H194	H	1.186000	-0.133226	-0.928447
H195	H	1.123916	-0.130254	-0.881693
H196	H	1.138348	-0.208863	-0.951389
H197	H	1.076313	-0.205833	-0.904611
H198	H	1.099854	-0.744031	-0.297415
O199	O	0.586770	-0.159932	-0.273245
C200	C	0.594289	-0.103005	-0.330317
C201	C	0.633102	-0.134563	-0.298637
H202	H	0.631732	-0.082480	-0.350848
H203	H	0.561209	-0.123647	-0.353804
H204	H	0.561184	-0.079503	-0.309724
H205	H	0.666244	-0.158072	-0.319194
H206	H	0.666140	-0.113894	-0.275149
O207	O	0.849391	-0.301756	-0.833239
C208	C	0.763490	-0.358758	-0.828277
C209	C	0.811172	-0.327162	-0.802499
H210	H	0.732588	-0.379314	-0.803435
H211	H	0.728074	-0.338144	-0.850223
H212	H	0.794550	-0.382230	-0.850262
H213	H	0.780167	-0.303684	-0.780490
H214	H	0.846591	-0.347804	-0.780582
O215	O	0.892851	-0.273046	-1.049088
C216	C	0.859954	-0.349462	-1.063455
C217	C	0.907596	-0.317840	-1.037677
H218	H	0.871868	-0.385685	-1.054246
H219	H	0.805372	-0.341606	-1.054214
H220	H	0.867382	-0.344503	-1.101017
H221	H	0.900228	-0.322781	-1.000109
H222	H	0.962160	-0.325704	-1.046954
H223	H	0.364693	-0.164470	-0.268694
H224	H	1.056474	-0.387467	-0.268658
O225	O	0.892692	-0.476292	-0.159770
C226	C	0.806909	-0.471373	-0.102706
C227	C	0.854519	-0.445571	-0.134346
H228	H	0.776044	-0.446546	-0.082136
H229	H	0.771455	-0.493340	-0.123287
H230	H	0.838023	-0.493339	-0.079250
H231	H	0.823459	-0.423581	-0.157808
H232	H	0.889975	-0.423632	-0.113737
H233	H	0.899518	-0.387561	-0.164309
O234	O	0.849589	-0.740555	-0.130971
C235	C	0.763776	-0.745572	-0.073929
C236	C	0.811363	-0.771320	-0.105597
H237	H	0.732847	-0.770434	-0.053412
H238	H	0.794843	-0.723611	-0.050427
H239	H	0.728373	-0.723605	-0.094529
H240	H	0.846775	-0.793311	-0.085032
H241	H	0.780254	-0.793253	-0.129099
O242	O	0.892687	-0.273175	-0.384324
C243	C	0.806754	-0.330155	-0.389265
C244	C	0.854390	-0.298522	-0.415054
H245	H	0.775769	-0.350649	-0.414099
H246	H	0.837786	-0.353679	-0.367320
H247	H	0.771407	-0.309529	-0.367277
H248	H	0.889746	-0.319111	-0.437066
H249	H	0.823316	-0.274996	-0.436971
O250	O	0.849607	-0.833021	-0.131081
C251	C	0.758214	-0.886009	-0.124978
C252	C	0.805798	-0.860160	-0.156596
H253	H	0.722773	-0.907950	-0.145595
H254	H	0.789284	-0.907995	-0.101514
H255	H	0.727326	-0.861189	-0.104414
H256	H	0.836695	-0.884948	-0.177190
H257	H	0.774689	-0.838167	-0.180031
H258	H	0.899700	-0.959951	-0.164309
H259	H	0.364582	-0.268559	-0.164262
O260	O	1.106584	-0.599516	-0.301885
C261	C	1.144864	-0.527209	-0.327383
C262	C	1.097291	-0.553072	-0.295770
H263	H	1.137356	-0.489655	-0.322457
H264	H	1.199469	-0.536374	-0.319528
H265	H	1.132952	-0.536457	-0.363598
H266	H	1.109142	-0.543838	-0.259544
H267	H	1.042700	-0.543904	-0.303664
O268	O	1.106840	-0.131034	-0.600146
C269	C	1.192782	-0.074059	-0.605113
C270	C	1.145137	-0.105682	-0.630888
H271	H	1.223768	-0.053561	-0.629957
H272	H	1.161756	-0.050539	-0.583158
H273	H	1.228128	-0.094694	-0.583138
H274	H	1.109782	-0.085083	-0.652888
H275	H	1.176205	-0.129204	-0.652815
O276	O	1.106738	-0.131008	-0.692577
C277	C	1.115931	-0.070353	-0.745554
C278	C	1.068300	-0.101984	-0.719757
H279	H	1.084873	-0.046886	-0.767542
H280	H	1.146864	-0.049798	-0.720740
H281	H	1.151328	-0.090984	-0.767501
H282	H	1.032862	-0.081388	-0.697809
H283	H	1.037415	-0.122540	-0.744595
H284	H	0.899734	-1.045073	-0.164311
O285	O	0.849539	-0.599800	-0.130981
C286	C	0.763716	-0.604809	-0.073946
C287	C	0.811305	-0.630560	-0.105609
H288	H	0.732781	-0.629668	-0.053430
H289	H	0.794781	-0.582848	-0.050443
H290	H	0.728319	-0.582841	-0.094550
H291	H	0.846711	-0.652552	-0.085040
H292	H	0.780198	-0.652493	-0.129113
O293	O	1.063519	-0.159721	-1.049213
C294	C	1.101926	-0.134260	-1.121498
C295	C	1.054318	-0.165874	-1.095662
H296	H	1.094514	-0.139230	-1.159056
H297	H	1.090059	-0.098027	-1.112304
H298	H	1.156493	-0.142141	-1.112255
H299	H	0.999736	-0.158034	-1.104891
H300	H	1.066244	-0.202097	-1.104858
H301	H	0.856384	-0.688520	-0.135544
H302	H	0.899599	-0.268486	-0.960342
O303	O	0.849352	-0.301785	-0.692484
C304	C	0.763446	-0.358784	-0.687514
C305	C	0.811132	-0.327187	-0.661740
H306	H	0.732543	-0.379336	-0.662669
H307	H	0.728030	-0.338170	-0.709461
H308	H	0.794502	-0.382259	-0.709497
H309	H	0.780130	-0.303706	-0.639733
H310	H	0.846550	-0.347828	-0.639821
O311	O	0.849502	-0.301812	-0.600015
C312	C	0.840340	-0.362496	-0.547071
C313	C	0.887960	-0.330883	-0.572898
H314	H	0.871415	-0.386014	-0.525147
H315	H	0.804976	-0.341898	-0.525069
H316	H	0.809372	-0.383002	-0.571905
H317	H	0.918972	-0.310370	-0.548096
H318	H	0.923279	-0.351507	-0.594906
H319	H	0.899520	-0.268596	-0.473062
H320	H	1.100037	-0.135557	-0.744512
O321	O	1.106752	-0.130975	-0.833333
C322	C	1.115903	-0.070331	-0.886326
C323	C	1.068293	-0.101960	-0.860510
H324	H	1.084828	-0.046871	-0.908312
H325	H	1.146846	-0.049768	-0.861524
H326	H	1.151291	-0.090964	-0.908278
H327	H	1.032864	-0.081362	-0.838558
H328	H	1.037397	-0.122525	-0.885336
H329	H	0.856250	-0.297250	-0.744515
