data_functionalizedCrystal
_audit_creation_method	'MofGen! by Chris Wilmer'
_symmetry_space_group_name_H-M	'P1'
_symmetry_Int_Tables_number	1
_symmetry_cell_setting	triclinic
loop_
_symmetry_equiv_pos_as_xyz
  x,y,z
_cell_length_a	18.101398
_cell_length_b	21.295417
_cell_length_c	18.101389
_cell_angle_alpha	90.021518
_cell_angle_beta	90.024327
_cell_angle_gamma	90.024968
loop_
_atom_site_label
_atom_site_type_symbol
_atom_site_fract_x
_atom_site_fract_y
_atom_site_fract_z
Zn1	Zn	1.132128	-0.250755	0.418823
Zn2	Zn	1.132027	-0.356008	0.294975
Zn3	Zn	1.008287	-0.250748	0.294984
Zn4	Zn	1.008241	-0.355981	0.418763
O5	O	1.070171	-0.303373	0.356886
O6	O	1.235748	-0.264731	0.402415
O7	O	1.115590	-0.342054	0.191343
O8	O	1.024777	-0.162660	0.311440
O9	O	1.235673	-0.342060	0.311424
O10	O	1.115762	-0.162664	0.402424
O11	O	1.024679	-0.264720	0.191350
O12	O	0.904648	-0.264694	0.311382
O13	O	1.024698	-0.342014	0.522404
O14	O	0.904614	-0.342008	0.402322
O15	O	1.115717	-0.264705	0.522448
O16	O	1.115545	-0.444094	0.311366
O17	O	1.024600	-0.444074	0.402313
C18	C	0.877760	-0.303348	0.356847
C19	C	0.795446	-0.303352	0.356848
C20	C	0.496355	-0.303391	0.356911
C21	C	0.527677	-0.254504	0.299973
C22	C	0.613295	-0.254635	0.299730
C23	C	0.644738	-0.303371	0.356880
C24	C	0.613622	-0.369679	0.335551
C25	C	0.527976	-0.369407	0.335155
C26	C	0.527969	-0.286547	0.435311
C27	C	0.613620	-0.285070	0.434883
C28	C	0.728597	-0.303364	0.356864
C29	C	0.412496	-0.303403	0.356925
C30	C	1.070076	-0.466925	0.356849
C31	C	1.070104	-0.536893	0.356857
C32	C	1.117453	-0.569705	0.404266
C33	C	1.117479	-0.635447	0.404285
C34	C	1.070164	-0.668375	0.356881
C35	C	1.022806	-0.635555	0.309468
C36	C	1.022776	-0.569814	0.309456
N37	N	1.064571	-0.771628	0.292068
N38	N	1.064604	-0.834080	0.292081
C39	C	1.070250	-0.866450	0.356914
N40	N	1.075877	-0.834010	0.421735
N41	N	1.075848	-0.771553	0.421721
C42	C	1.070191	-0.739661	0.356888
C43	C	1.117630	-0.970547	0.404347
C44	C	1.117651	-1.036291	0.404367
C45	C	1.022982	-1.036398	0.309543
C46	C	1.022957	-0.970656	0.309530
C47	C	1.070285	-0.937734	0.356931
C48	C	1.263333	-0.303399	0.356925
C49	C	1.345647	-0.303410	0.356942
C50	C	1.070214	-0.303357	0.550048
C51	C	1.070232	-0.303350	0.632362
C52	C	1.070286	-0.139183	0.356940
C53	C	1.070335	-0.069215	0.356963
C54	C	1.070171	-0.303344	0.164476
C55	C	1.070296	-0.303173	0.082162
C56	C	1.070275	-0.303232	0.931453
C57	C	1.012811	-0.351719	0.900101
C58	C	1.012966	-0.351944	0.814482
C59	C	1.070253	-0.303291	0.783071
C60	C	1.148279	-0.321303	0.814175
C61	C	1.147959	-0.321621	0.899820
C62	C	1.050392	-0.236626	0.899882
C63	C	1.048656	-0.237011	0.814231
C64	C	1.070245	-0.303323	0.699211
C65	C	1.070288	-0.303202	1.015313
H66	H	0.507965	-0.383693	0.277840
O67	O	0.971707	-0.534418	0.258318
H68	H	1.004865	-0.504459	0.220673
H69	H	0.635026	-0.318083	0.479580
H70	H	0.635037	-0.384213	0.278855
H71	H	0.506396	-0.239037	0.454702
H72	H	0.984452	-1.063207	0.270951
O73	O	0.501136	-0.333704	0.491514
H74	H	0.465456	-0.368971	0.463792
O75	O	1.168667	-0.935032	0.455474
H76	H	1.201589	-0.968896	0.488454
O77	O	0.500519	-0.419282	0.387694
H78	H	0.548415	-0.443493	0.413265
O79	O	0.500431	-0.189164	0.317454
H80	H	0.468683	-0.170722	0.269693
O81	O	0.499158	-0.269091	0.223461
H82	H	0.462771	-0.311008	0.225809
O83	O	1.206580	-0.276879	0.927338
H84	H	1.261444	-0.292182	0.906743
O85	O	0.640400	-0.269354	0.222773
H86	H	0.592335	-0.276417	0.185588
H87	H	1.025808	-0.400788	0.921623
H88	H	0.633987	-0.407079	0.375724
H89	H	1.156208	-1.063006	0.442976
O90	O	1.105831	-0.188774	0.926741
H91	H	1.091425	-0.141880	0.904213
H92	H	0.633963	-0.236275	0.450966
O93	O	1.170272	-0.386119	0.926292
H94	H	1.226480	-0.397246	0.905608
O95	O	0.971779	-0.671073	0.258338
H96	H	0.913641	-0.658500	0.270981
H97	H	1.165426	-0.369476	0.792730
O98	O	1.030259	-0.417357	0.787336
H99	H	1.038566	-0.448948	0.835380
O100	O	0.971902	-0.935259	0.258382
H101	H	0.939010	-0.969198	0.225414
H102	H	0.955107	-0.340671	0.793450
O103	O	0.935932	-0.336942	0.927357
H104	H	0.937855	-0.294886	0.963546
H105	H	1.192244	-0.287098	0.793832
O106	O	0.976328	-0.214895	0.928461
H107	H	0.978111	-0.212152	0.989670
O108	O	0.972603	-0.219011	0.787288
H109	H	0.931824	-0.254326	0.806551
O110	O	0.641174	-0.189501	0.317414
H111	H	0.593483	-0.157624	0.326217
O112	O	1.168510	-0.534195	0.455376
H113	H	1.201442	-0.568061	0.488344
O114	O	1.168555	-0.670850	0.455415
H115	H	1.201464	-0.636913	0.488369
H116	H	1.087456	-0.198968	0.792849
