data_functionalizedCrystal
_audit_creation_method	'MofGen! by Chris Wilmer'
_symmetry_space_group_name_H-M	'P1'
_symmetry_Int_Tables_number	1
_symmetry_cell_setting	triclinic
loop_
_symmetry_equiv_pos_as_xyz
  x,y,z
_cell_length_a	10.489746
_cell_length_b	14.421503
_cell_length_c	10.489741
_cell_angle_alpha	90.004618
_cell_angle_beta	95.459762
_cell_angle_gamma	90.004787
loop_
_atom_site_label
_atom_site_type_symbol
_atom_site_fract_x
_atom_site_fract_y
_atom_site_fract_z
O1	O	1.694057	0.077049	-0.179982
O2	O	1.322863	0.077064	-0.196868
O3	O	1.516906	0.077051	-0.002827
O4	O	1.500014	0.077062	-0.374023
O5	O	1.516874	-0.077173	-0.002856
O6	O	1.322830	-0.077159	-0.196897
O7	O	1.694025	-0.077175	-0.180011
Cu8	Cu	1.508425	-0.091249	-0.188456
Cu9	Cu	1.508463	0.091138	-0.188422
O10	O	1.499981	-0.077161	-0.374052
C11	C	1.275315	-0.000046	-0.195606
C12	C	1.133686	-0.000040	-0.191786
N13	N	1.508407	-0.219530	-0.188480
C14	C	0.980828	-0.000057	-0.066062
C15	C	1.058206	-0.076092	-0.128933
C16	C	1.058193	0.075960	-0.128934
C17	C	0.958714	-0.076161	-0.247915
C18	C	0.958696	0.075960	-0.247898
C19	C	1.036025	-0.000095	-0.310856
C20	C	1.418665	-0.469177	-0.278163
C21	C	1.534155	-0.530984	-0.303983
C22	C	1.508438	-0.408691	-0.188450
C23	C	1.392978	-0.530979	-0.162660
C24	C	1.508458	-0.591413	-0.188423
C25	C	1.623987	-0.469137	-0.214327
C26	C	1.482734	-0.469126	-0.072954
C27	C	1.598306	-0.530905	-0.098725
C28	C	1.508425	-0.303430	-0.188468
C29	C	1.508484	-0.696672	-0.188404
C30	C	1.741573	-0.000063	-0.181273
C31	C	1.883202	-0.000063	-0.185093
N32	N	1.508491	0.219420	-0.188389
C33	C	1.515614	-0.000060	0.044690
C34	C	1.511797	-0.000059	0.186320
C35	C	1.501273	-0.000048	-0.421569
C36	C	1.505091	-0.000044	-0.563198
C37	C	1.388333	-0.000047	0.254462
C38	C	1.446640	-0.076089	0.346569
C39	C	1.446701	0.075963	0.346572
C40	C	1.570156	-0.076164	0.276561
C41	C	1.570199	0.075957	0.276555
C42	C	1.628597	-0.000105	0.368635
H43	H	0.956107	-0.000137	0.037439
N44	N	1.698978	-0.566600	0.001786
H45	H	1.680338	-0.543101	0.088799
H46	H	1.786072	-0.543975	-0.017965
H47	H	0.915422	-0.140518	-0.298141
N48	N	1.115777	-0.161242	-0.062375
H49	H	1.211626	-0.160918	-0.066161
H50	H	1.078072	-0.218629	-0.106429
N51	N	1.453877	-0.433106	0.056372
H52	H	1.366586	-0.455562	0.075766
H53	H	1.454991	-0.363083	0.055553
H54	H	1.342826	-0.442074	-0.354093
H55	H	0.915209	0.140250	-0.298090
H56	H	1.060501	-0.000133	-0.414436
N57	N	1.639361	0.161105	0.235425
H58	H	1.729605	0.161711	0.278649
H59	H	1.592561	0.218473	0.260614
H60	H	1.101650	0.140244	-0.078651
N61	N	1.562990	-0.566977	-0.433338
H62	H	1.495125	-0.544529	-0.501061
H63	H	1.563637	-0.637000	-0.432003
H64	H	1.721660	-0.442087	-0.236244
N65	N	1.263637	-0.566971	-0.133776
H66	H	1.195892	-0.544518	-0.201615
H67	H	1.243627	-0.543499	-0.047181
H68	H	1.286821	-0.000119	0.204813
H69	H	1.394386	-0.140374	0.377570
H70	H	1.622337	-0.140524	0.245716
N71	N	1.763176	-0.000157	0.434107
H72	H	1.809616	-0.057619	0.408657
H73	H	1.759763	0.000425	0.530000
N74	N	1.377501	0.161116	0.387639
H75	H	1.286749	0.161047	0.345700
H76	H	1.423329	0.218502	0.360941
