data_functionalizedCrystal
_audit_creation_method	'MofGen! by Chris Wilmer'
_symmetry_space_group_name_H-M	'P1'
_symmetry_Int_Tables_number	1
_symmetry_cell_setting	triclinic
loop_
_symmetry_equiv_pos_as_xyz
  x,y,z
_cell_length_a	17.077404
_cell_length_b	16.120484
_cell_length_c	17.077396
_cell_angle_alpha	87.131254
_cell_angle_beta	90.019501
_cell_angle_gamma	92.925780
loop_
_atom_site_label
_atom_site_type_symbol
_atom_site_fract_x
_atom_site_fract_y
_atom_site_fract_z
Zn1	Zn	1.184194	-0.331902	0.459673
Zn2	Zn	1.684194	0.168098	0.959673
Zn3	Zn	1.177439	-0.471326	0.335057
Zn4	Zn	1.677439	0.028674	0.835057
Zn5	Zn	1.052925	-0.331932	0.328422
Zn6	Zn	1.552925	0.168068	0.828422
Zn7	Zn	1.046234	-0.471277	0.466278
Zn8	Zn	1.546234	0.028723	0.966278
O9	O	1.115198	-0.401609	0.397358
O10	O	1.615198	0.098391	0.897358
O11	O	1.293145	-0.350406	0.443155
O12	O	1.793145	0.149594	0.943155
O13	O	1.160895	-0.452868	0.224331
O14	O	1.660895	0.047132	0.724331
O15	O	1.075965	-0.215262	0.340292
O16	O	1.575965	0.284738	0.840292
O17	O	1.288181	-0.452840	0.351600
O18	O	1.788181	0.047160	0.851600
O19	O	1.172408	-0.215241	0.436721
O20	O	1.672408	0.284759	0.936721
O21	O	1.069415	-0.350456	0.219457
O22	O	1.569415	0.149544	0.719457
O23	O	0.942191	-0.350408	0.346697
O24	O	1.442191	0.149592	0.846697
O25	O	1.064562	-0.452756	0.575247
O26	O	1.564562	0.047244	1.075247
O27	O	0.937275	-0.452784	0.447979
O28	O	1.437275	0.047216	0.947979
O29	O	1.165921	-0.350358	0.570395
O30	O	1.665921	0.149642	1.070395
O31	O	1.154407	-0.587986	0.358004
O32	O	1.654407	-0.087986	0.858004
O33	O	1.058011	-0.587949	0.454412
O34	O	1.558011	-0.087949	0.954412
C35	C	0.911251	-0.401594	0.397335
C36	C	1.411251	0.098406	0.897335
C37	C	0.824000	-0.401608	0.397345
C38	C	1.324000	0.098392	0.897345
C39	C	0.780467	-0.454996	0.450006
C40	C	1.280467	0.045004	0.950006
C41	C	0.698487	-0.454997	0.450019
C42	C	1.198487	0.045003	0.950019
C43	C	0.660041	-0.401615	0.397366
C44	C	1.160041	0.098385	0.897366
C45	C	0.703580	-0.348221	0.344703
C46	C	1.203580	0.151779	0.844703
C47	C	0.785559	-0.348216	0.344694
C48	C	1.285559	0.151784	0.844694
C49	C	0.532709	-0.348238	0.344722
C50	C	1.032709	0.151762	0.844722
C51	C	0.450724	-0.348244	0.344729
C52	C	0.950724	0.151756	0.844729
C53	C	0.445637	-0.455019	0.450047
C54	C	0.945637	0.044981	0.950047
C55	C	0.527616	-0.455014	0.450038
C56	C	1.027616	0.044986	0.950038
C57	C	0.571149	-0.401621	0.397374
C58	C	1.071149	0.098379	0.897374
C59	C	1.104771	-0.618218	0.407662
C60	C	1.604771	-0.118218	0.907662
C61	C	1.100383	-0.710884	0.412097
C62	C	1.600383	-0.210884	0.912097
C63	C	1.092374	-0.880545	0.420209
C64	C	1.592374	-0.380545	0.920209
C65	C	1.138162	-0.921833	0.374519
C66	C	1.638162	-0.421833	0.874519
C67	C	1.133706	-1.016239	0.379033
C68	C	1.633706	-0.516239	0.879033
C69	C	1.096829	-0.786131	0.415696
C70	C	1.596829	-0.286131	0.915696
C71	C	1.319941	-0.401625	0.397381
C72	C	1.819941	0.098375	0.897381
C73	C	1.407191	-0.401632	0.397390
C74	C	1.907191	0.098368	0.897390
C75	C	1.115248	-0.401548	0.602099
C76	C	1.615248	0.098452	1.102099
C77	C	1.115270	-0.401522	0.689348
C78	C	1.615270	0.098478	1.189348
C79	C	1.125687	-0.184155	0.387030
C80	C	1.625687	0.315845	0.887030
C81	C	1.130156	-0.091489	0.382629
C82	C	1.630156	0.408511	0.882629
C83	C	1.115196	-0.401610	0.193410
C84	C	1.615196	0.098390	0.693410
C85	C	1.115338	-0.401402	0.106150
C86	C	1.615338	0.098598	0.606150
C87	C	1.168049	-0.348199	0.727812
C88	C	1.668049	0.151801	1.227812
C89	C	1.168060	-0.348171	0.809791
C90	C	1.668060	0.151829	1.309791
C91	C	1.115295	-0.401471	0.853305
C92	C	1.615295	0.098529	1.353305
C93	C	1.062509	-0.454796	0.814835
C94	C	1.562509	0.045204	1.314835
C95	C	1.062495	-0.454819	0.732857
C96	C	1.562495	0.045181	1.232857
C97	C	1.062543	-0.454746	0.985702
C98	C	1.562543	0.045254	1.485702
C99	C	1.062558	-0.454725	1.067686
C100	C	1.562558	0.045275	1.567686
C101	C	1.168108	-0.348098	1.062637
C102	C	1.668108	0.151902	1.562637
C103	C	1.168094	-0.348121	0.980659
C104	C	1.668094	0.151879	1.480659
C105	C	1.115310	-0.401448	0.942195
C106	C	1.615310	0.098552	1.442195
H107	H	0.663045	-0.498472	0.492900
H108	H	1.163045	0.001528	0.992900
H109	H	1.211040	-0.304752	0.841105
H110	H	1.711040	0.195248	1.341105
C111	C	1.226135	-0.289493	0.932795
C112	C	1.726135	0.210507	1.432795
H113	H	1.257569	-0.257725	0.967442
H114	H	1.757569	0.242275	1.467442
H115	H	1.258791	-0.321397	0.902335
H116	H	1.758791	0.178603	1.402335
H117	H	1.197847	-0.253173	0.899087
H118	H	1.697847	0.246827	1.399087
H119	H	0.558916	-0.498487	0.492909
H120	H	1.058916	0.001513	0.992909
H121	H	1.049831	-0.916096	0.462712
H122	H	1.549831	-0.416096	0.962712
H123	H	0.811764	-0.498469	0.492880
H124	H	1.311764	0.001531	0.992880
H125	H	1.211020	-0.304798	0.692389
H126	H	1.711020	0.195202	1.192389
C127	C	1.226178	-0.289449	1.104944
C128	C	1.726178	0.210551	1.604944
H129	H	1.218629	-0.297064	1.159999
H130	H	1.718629	0.202936	1.659999
H131	H	1.278324	-0.301673	1.092094
H132	H	1.778324	0.198327	1.592094
H133	H	1.217400	-0.233429	1.088851
H134	H	1.717400	0.266571	1.588851
C135	C	1.004513	-0.513348	1.115550
C136	C	1.504513	-0.013348	1.615550
H137	H	0.973067	-0.545103	1.080902
H138	H	1.473067	-0.045103	1.580902
H139	H	1.032791	-0.549669	1.149259
H140	H	1.532791	-0.049669	1.649259
H141	H	0.971858	-0.481434	1.146008
H142	H	1.471858	0.018566	1.646008
C143	C	0.833449	-0.289491	0.286769
C144	C	1.333449	0.210509	0.786769
H145	H	0.887779	-0.297127	0.294310
H146	H	1.387779	0.202873	0.794310
H147	H	0.819410	-0.301618	0.234586
H148	H	1.319410	0.198382	0.734586
H149	H	0.822711	-0.233490	0.295689
H150	H	1.322711	0.266510	0.795689
C151	C	0.397754	-0.513745	0.507981
C152	C	0.897754	-0.013745	1.007981
H153	H	0.343424	-0.506098	0.500453
H154	H	0.843424	-0.006098	1.000453
H155	H	0.408488	-0.569745	0.499068
H156	H	0.908488	-0.069745	0.999068
H157	H	0.411800	-0.501610	0.560165
H158	H	0.911800	-0.001610	1.060165
C159	C	1.004506	-0.513432	0.943394
C160	C	1.504506	-0.013432	1.443394
H161	H	0.973095	-0.545187	0.981050
H162	H	1.473095	-0.045187	1.481050
H163	H	0.971827	-0.481574	0.909881
H164	H	1.471827	0.018426	1.409881
H165	H	1.032807	-0.549762	0.913160
H166	H	1.532807	-0.049762	1.413160
H167	H	1.019544	-0.498191	0.850270
H168	H	1.519544	0.001809	1.350270
C169	C	1.195617	-0.873810	0.317073
C170	C	1.695617	-0.373810	0.817073
H171	H	1.191099	-0.815739	0.321523
H172	H	1.691099	-0.315739	0.821523
H173	H	1.247705	-0.887958	0.329249
H174	H	1.747705	-0.387958	0.829249
H175	H	1.183471	-0.888094	0.264995
H176	H	1.683471	-0.388094	0.764995
H177	H	0.568152	-0.304752	0.301844
H178	H	1.068152	0.195248	0.801844
C179	C	0.408435	-0.289517	0.286821
C180	C	0.908435	0.210483	0.786821
H181	H	0.446102	-0.257708	0.255463
H182	H	0.946102	0.242292	0.755463
H183	H	0.374906	-0.321359	0.254084
H184	H	0.874906	0.178641	0.754084
H185	H	0.378215	-0.253239	0.315195
H186	H	0.878215	0.246761	0.815195
C187	C	0.661295	-0.289499	0.286786
C188	C	1.161295	0.210501	0.786786
H189	H	0.698966	-0.257696	0.255427
H190	H	1.198966	0.242304	0.755427
H191	H	0.627768	-0.321344	0.254052
H192	H	1.127768	0.178656	0.754052
H193	H	0.631075	-0.253214	0.315153
H194	H	1.131075	0.246786	0.815153
C195	C	1.004456	-0.513495	0.690547
C196	C	1.504456	-0.013495	1.190547
H197	H	0.973042	-0.545247	0.728202
H198	H	1.473042	-0.045247	1.228202
H199	H	0.971781	-0.481627	0.657038
H200	H	1.471781	0.018373	1.157038
H201	H	1.032747	-0.549829	0.660307
H202	H	1.532747	-0.049829	1.160307
