data_functionalizedCrystal
_audit_creation_method	'MofGen! by Chris Wilmer'
_symmetry_space_group_name_H-M	'P1'
_symmetry_Int_Tables_number	1
_symmetry_cell_setting	triclinic
loop_
_symmetry_equiv_pos_as_xyz
  x,y,z
_cell_length_a	18.050589
_cell_length_b	12.645331
_cell_length_c	12.645323
_cell_angle_alpha	90.026382
_cell_angle_beta	89.974557
_cell_angle_gamma	89.977525
loop_
_atom_site_label
_atom_site_type_symbol
_atom_site_fract_x
_atom_site_fract_y
_atom_site_fract_z
Zn1	Zn	-0.295767	-1.620654	-0.599547
Zn2	Zn	-0.419966	-1.620503	-0.422285
Zn3	Zn	-0.295782	-1.443368	-0.422280
Zn4	Zn	-0.419908	-1.443317	-0.599489
O5	O	-0.357856	-1.531961	-0.510900
O6	O	-0.312261	-1.768981	-0.576059
O7	O	-0.403524	-1.596964	-0.273937
O8	O	-0.191856	-1.466970	-0.445817
O9	O	-0.403509	-1.768870	-0.445826
O10	O	-0.191845	-1.597221	-0.576054
O11	O	-0.312286	-1.466824	-0.273933
O12	O	-0.312229	-1.295014	-0.445760
O13	O	-0.403409	-1.466883	-0.747844
O14	O	-0.403424	-1.294977	-0.575955
O15	O	-0.312204	-1.597172	-0.747887
O16	O	-0.523883	-1.596914	-0.445770
O17	O	-0.523840	-1.466737	-0.575961
C18	C	-0.357822	-1.256531	-0.510852
C19	C	-0.357826	-1.138701	-0.510856
C20	C	-0.300182	-0.971125	-0.429391
C21	C	-0.300338	-1.093685	-0.429041
C22	C	-0.436057	-1.094160	-0.480337
C23	C	-0.435735	-0.971562	-0.479774
C24	C	-0.337962	-0.971557	-0.623130
C25	C	-0.336221	-1.094163	-0.622514
C26	C	-0.550808	-1.531833	-0.510883
C27	C	-0.633354	-1.531875	-0.510910
C28	C	-0.832808	-1.461154	-0.581684
C29	C	-0.882249	-1.435307	-0.484947
C30	C	-0.784484	-1.531979	-0.510924
C31	C	-0.882125	-1.557878	-0.607672
C32	C	-0.930469	-1.532078	-0.510946
C33	C	-0.832838	-1.506082	-0.414137
C34	C	-0.832710	-1.628697	-0.536926
C35	C	-0.882128	-1.602887	-0.440123
C36	C	-0.700386	-1.531919	-0.510913
C37	C	-1.014566	-1.532137	-0.510946
C38	C	-0.164150	-1.532118	-0.510941
C39	C	-0.081605	-1.532185	-0.510958
C40	C	-0.357798	-1.532039	-0.787406
C41	C	-0.357774	-1.532072	-0.905236
C42	C	-0.357876	-0.808466	-0.510933
C43	C	-0.357847	-0.926296	-0.510906
C44	C	-0.414881	-1.449855	-1.072773
C45	C	-0.415164	-1.450070	-0.950213
C46	C	-0.379021	-1.643766	-0.949763
C47	C	-0.379380	-1.643315	-1.072361
C48	C	-0.279101	-1.503651	-1.072433
C49	C	-0.279572	-1.501159	-0.949826
C50	C	-0.357860	-1.531944	-0.235470
C51	C	-0.357675	-1.532116	-0.117641
H52	H	-0.242327	-1.123801	-0.448170
N53	N	-0.909562	-1.332762	-0.457367
N54	N	-0.977791	-1.316609	-0.452203
H55	H	-0.997080	-1.244185	-0.432730
N56	N	-0.488235	-1.473678	-0.913447
N57	N	-0.539181	-1.490055	-0.978332
H58	H	-0.590791	-1.506731	-0.952368
H59	H	-0.903647	-1.662823	-0.380225
H60	H	-0.338673	-1.706699	-0.920632
H61	H	-0.810935	-1.710423	-0.558946
N62	N	-0.805785	-1.478519	-0.311487
N63	N	-0.737596	-1.473982	-0.294924
H64	H	-0.718487	-1.454506	-0.222432
N65	N	-0.909288	-1.585294	-0.710302
N66	N	-0.893473	-1.528982	-0.788321
H67	H	-0.912655	-1.548336	-0.860806
H68	H	-0.263548	-1.418962	-0.920722
H69	H	-0.436819	-1.667445	-1.100972
N70	N	-0.227183	-0.934163	-0.453094
N71	N	-0.192267	-0.880854	-0.386436
H72	H	-0.140709	-0.854742	-0.403173
H73	H	-0.339523	-1.706683	-1.102044
N74	N	-0.398479	-1.346164	-0.912453
N75	N	-0.386546	-1.272980	-0.976645
H76	H	-0.374766	-1.199590	-0.949983
H77	H	-0.401712	-1.366784	-1.102242
N78	N	-0.487495	-1.473196	-1.111449
N79	N	-0.497297	-1.550151	-1.171913
H80	H	-0.548580	-1.566639	-1.199231
H81	H	-0.452598	-0.942912	-0.397733
N82	N	-0.491463	-0.934367	-0.551001
N83	N	-0.530473	-0.998956	-0.600963
H84	H	-0.569835	-0.972693	-0.651262
H85	H	-0.259734	-1.423623	-1.103332
N86	N	-0.316483	-0.932403	-0.325686
N87	N	-0.370386	-0.871934	-0.311550
H88	H	-0.381901	-0.844584	-0.238308
N89	N	-0.316831	-1.130402	-0.324716
N90	N	-0.328268	-1.065482	-0.251941
H91	H	-0.339918	-1.091412	-0.178256
N92	N	-0.491396	-1.130739	-0.552491
N93	N	-0.473753	-1.190187	-0.627389
H94	H	-0.512835	-1.216023	-0.678351
N95	N	-0.457574	-1.132615	-0.378527
N96	N	-0.415430	-1.192811	-0.328270
H97	H	-0.430622	-1.219969	-0.256364
H98	H	-0.435859	-1.668310	-0.919075
N99	N	-0.223279	-1.570835	-0.911410
N100	N	-0.239956	-1.644745	-0.850274
H101	H	-0.200201	-1.693963	-0.823142
N102	N	-0.225636	-1.578808	-1.108854
N103	N	-0.214459	-1.590118	-1.205762
H104	H	-0.176706	-1.643201	-1.231490
N105	N	-0.267646	-0.932802	-0.657937
N106	N	-0.231332	-0.871345	-0.600447
H107	H	-0.181669	-0.843972	-0.625019
H108	H	-0.278652	-1.123282	-0.645526
N109	N	-0.385108	-1.132580	-0.702754
N110	N	-0.390450	-1.229740	-0.719297
H111	H	-0.424999	-1.256858	-0.775950
H112	H	-0.379963	-0.942567	-0.683865
H113	H	-0.811152	-1.401172	-0.641438
