data_functionalizedCrystal
_audit_creation_method	'MofGen! by Chris Wilmer'
_symmetry_space_group_name_H-M	'P1'
_symmetry_Int_Tables_number	1
_symmetry_cell_setting	triclinic
loop_
_symmetry_equiv_pos_as_xyz
  x,y,z
_cell_length_a	16.109301
_cell_length_b	22.610064
_cell_length_c	16.109301
_cell_angle_alpha	90.002647
_cell_angle_beta	96.538519
_cell_angle_gamma	90.005509
loop_
_atom_site_label
_atom_site_type_symbol
_atom_site_fract_x
_atom_site_fract_y
_atom_site_fract_z
O1	O	1.103138	0.049149	-0.106856
O2	O	0.861076	0.049159	-0.120155
O3	O	0.988756	0.049148	0.007525
O4	O	0.975457	0.049160	-0.234536
O5	O	0.988734	-0.049222	0.007507
O6	O	0.861053	-0.049211	-0.120174
O7	O	1.103115	-0.049220	-0.106874
Zn8	Zn	0.982080	-0.064834	-0.113527
Zn9	Zn	0.982110	0.064772	-0.113503
O10	O	0.975434	-0.049209	-0.234555
C11	C	0.830090	-0.000025	-0.119626
C12	C	0.737794	-0.000021	-0.118011
N13	N	0.982066	-0.153286	-0.113543
C14	C	0.515522	-0.000024	-0.190018
C15	C	0.428801	-0.000028	-0.188494
C16	C	0.448676	-0.000034	-0.037006
C17	C	0.535394	-0.000034	-0.038530
C18	C	0.568815	-0.000026	-0.115039
C19	C	0.395376	-0.000030	-0.111990
C20	C	0.301350	-0.000034	-0.110337
C21	C	0.662847	-0.000023	-0.116693
C22	C	1.038650	-0.561932	-0.056974
C23	C	1.038654	-0.623852	-0.056968
O24	O	1.086728	-0.655875	-0.008883
N25	N	0.982110	-0.654823	-0.113485
C26	C	0.925552	-0.623871	-0.170006
O27	O	0.877456	-0.655900	-0.218078
C28	C	0.925544	-0.561952	-0.170008
C29	C	0.982098	-0.530984	-0.113493
C30	C	1.095198	-0.530965	-0.000463
C31	C	1.095195	-0.469049	-0.000470
C32	C	1.038643	-0.438101	-0.056989
C33	C	0.982094	-0.469069	-0.113500
C34	C	0.868983	-0.531001	-0.226524
C35	C	0.868980	-0.469078	-0.226520
C36	C	0.925533	-0.438110	-0.170005
C37	C	0.925539	-0.376205	-0.170026
N38	N	0.982083	-0.345234	-0.113509
C39	C	1.038635	-0.376182	-0.056990
C40	C	0.925571	-0.753905	-0.169998
C41	C	0.925582	-0.815822	-0.170002
C42	C	1.038683	-0.815799	-0.056962
C43	C	1.038676	-0.753880	-0.056963
C44	C	0.982115	-0.722934	-0.113481
C45	C	1.038624	-0.246155	-0.057010
C46	C	1.038618	-0.184234	-0.057025
C47	C	0.925514	-0.184262	-0.170061
C48	C	0.925523	-0.246178	-0.170050
C49	C	0.982081	-0.277123	-0.113517
O50	O	0.877487	-0.344143	-0.218084
O51	O	1.086716	-0.344146	-0.008920
C52	C	1.134101	-0.000035	-0.107404
C53	C	1.226397	-0.000035	-0.109019
C54	C	0.988206	-0.000037	0.038491
C55	C	0.986591	-0.000038	0.130786
N56	N	0.982131	0.153225	-0.113480
C57	C	0.975984	-0.000023	-0.265521
C58	C	0.977600	-0.000018	-0.357816
C59	C	1.058599	-0.000032	0.353059
C60	C	1.057075	-0.000027	0.439779
C61	C	0.905586	-0.000023	0.419905
C62	C	0.907111	-0.000024	0.333186
C63	C	0.983620	-0.000031	0.299766
C64	C	0.980571	-0.000025	0.473205
C65	C	0.978918	-0.000020	0.567231
C66	C	0.985273	-0.000035	0.205734
H67	H	0.385413	-0.000028	-0.249550
H68	H	0.421454	-0.000043	0.025285
H69	H	0.542730	-0.000023	-0.252317
H70	H	0.578788	-0.000037	0.022530
O71	O	1.137948	-0.000030	0.497256
H72	H	1.124039	-0.000022	0.563173
O73	O	1.099663	-0.720480	0.003999
H74	H	1.138982	-0.752409	0.043300
O75	O	1.099612	-0.150831	0.003938
H76	H	1.138927	-0.182758	0.043246
O77	O	1.099683	-0.849189	0.003995
H78	H	1.139013	-0.817256	0.043292
H79	H	1.084678	-0.271343	-0.010975
O80	O	1.156181	-0.435651	0.060497
H81	H	1.195493	-0.467582	0.099800
O82	O	0.864562	-0.720535	-0.230970
H83	H	0.824153	-0.692335	-0.195963
H84	H	0.879472	-0.159055	-0.216080
O85	O	1.156210	-0.564340	0.060490
H86	H	1.195530	-0.532394	0.099772
O87	O	0.864612	-0.849221	-0.230984
H88	H	0.825295	-0.817293	-0.270286
H89	H	0.843295	-0.000018	0.447127
H90	H	0.846050	-0.000021	0.289792
H91	H	0.822931	-0.556206	-0.272544
H92	H	1.120897	-0.000036	0.325851
O93	O	0.864536	-0.279584	-0.231012
H94	H	0.824146	-0.307796	-0.195996
O95	O	0.807978	-0.435698	-0.287485
H96	H	0.768664	-0.467639	-0.326783
