data_functionalizedCrystal
_audit_creation_method	'MofGen! by Chris Wilmer'
_symmetry_space_group_name_H-M	'P1'
_symmetry_Int_Tables_number	1
_symmetry_cell_setting	triclinic
loop_
_symmetry_equiv_pos_as_xyz
  x,y,z
_cell_length_a	10.540510
_cell_length_b	15.995292
_cell_length_c	9.016244
_cell_angle_alpha	90.000954
_cell_angle_beta	89.992396
_cell_angle_gamma	83.990964
loop_
_atom_site_label
_atom_site_type_symbol
_atom_site_fract_x
_atom_site_fract_y
_atom_site_fract_z
O1	O	1.684258	0.117879	-0.123338
O2	O	1.314683	0.129023	-0.123338
O3	O	1.509611	0.001620	-0.123340
O4	O	1.489329	0.245282	-0.123336
O5	O	1.509583	0.001622	0.123341
O6	O	1.314655	0.129025	0.123343
O7	O	1.684229	0.117881	0.123343
Cu8	Cu	1.499439	0.123454	0.145867
Cu9	Cu	1.499473	0.123450	-0.145862
O10	O	1.489301	0.245284	0.123345
C11	C	1.267377	0.128194	0.000002
C12	C	1.126462	0.125709	0.000002
C13	C	0.907762	0.214215	-0.000563
C14	C	1.054320	0.216866	0.000002
C15	C	1.082342	0.079047	0.140864
C16	C	0.935609	0.077043	0.140973
C17	C	0.935862	0.075141	-0.139549
C18	C	1.082143	0.079465	-0.141401
C19	C	1.508772	-0.029579	-0.000004
C20	C	1.506297	-0.122547	-0.000015
C21	C	1.497199	-0.460339	-0.000001
C22	C	1.637893	-0.436196	0.000550
C23	C	1.640567	-0.339504	-0.000011
C24	C	1.501713	-0.292757	-0.000007
C25	C	1.431389	-0.322275	-0.140869
C26	C	1.429696	-0.419075	-0.140982
C27	C	1.426790	-0.418946	0.139540
C28	C	1.432004	-0.322423	0.141397
C29	C	1.504257	-0.198045	-0.000015
C30	C	1.494651	-0.555050	-0.000003
C31	C	1.731535	0.118711	-0.000001
C32	C	1.872450	0.121195	-0.000010
C33	C	1.490141	0.276484	0.000005
C34	C	1.492615	0.369451	0.000007
N35	N	1.499425	0.123456	0.351053
N36	N	1.499497	0.123442	-0.351048
C37	C	1.394837	0.191379	0.586087
C38	C	1.395063	0.191634	0.414196
C39	C	1.631870	0.143322	0.413392
C40	C	1.631298	0.143803	0.585337
C41	C	1.472888	0.035443	0.585595
C42	C	1.469835	0.036014	0.413641
H43	H	1.112729	0.111455	0.245696
F44	F	1.090763	0.264868	0.132214
F45	F	1.092025	0.264584	-0.131981
F46	F	1.563002	-0.033241	0.357483
H47	H	1.695992	-0.320773	-0.101163
H48	H	1.296076	0.179611	0.627480
H49	H	1.130675	0.011940	0.146102
F50	F	0.879760	0.112727	-0.279103
F51	F	1.118985	0.123819	-0.277615
F52	F	0.882437	0.118729	0.278602
H53	H	0.863747	0.249526	0.099886
H54	H	0.913572	0.008863	0.147371
H55	H	1.132147	0.012914	-0.149909
H56	H	1.412045	0.256921	0.373050
H57	H	0.914670	0.006701	-0.140502
F58	F	1.297837	-0.281409	-0.147720
H59	H	1.695644	-0.320152	0.100962
H60	H	1.326538	-0.434235	-0.147361
H61	H	1.549212	-0.015123	0.626246
F62	F	0.852289	0.260636	-0.132605
F63	F	1.708765	-0.472368	0.132590
H64	H	1.483210	-0.303554	0.245606
F65	F	1.708401	-0.473707	-0.130747
H66	H	1.478423	-0.445605	-0.246282
F67	F	1.299529	-0.280114	0.152523
F68	F	1.416747	0.276235	0.642519
F69	F	1.495251	-0.295683	-0.277895
H70	H	1.323229	-0.433549	0.140493
F71	F	1.484311	-0.455589	0.279093
H72	H	1.296613	0.179681	0.372051
F73	F	1.661950	0.227718	0.637742
H74	H	1.372407	0.020955	0.372898
H75	H	1.711609	0.096314	0.626918
F76	F	1.736090	0.080410	0.359933
H77	H	1.378416	0.016533	0.629042
F78	F	1.663252	0.226289	0.357090
