data_functionalizedCrystal
_audit_creation_method	'MofGen! by Chris Wilmer'
_symmetry_space_group_name_H-M	'P1'
_symmetry_Int_Tables_number	1
_symmetry_cell_setting	triclinic
loop_
_symmetry_equiv_pos_as_xyz
  x,y,z
_cell_length_a	16.120490
_cell_length_b	16.120297
_cell_length_c	16.120484
_cell_angle_alpha	95.614431
_cell_angle_beta	90.164100
_cell_angle_gamma	90.129683
loop_
_atom_site_label
_atom_site_type_symbol
_atom_site_fract_x
_atom_site_fract_y
_atom_site_fract_z
Zn1	Zn	1.224990	-0.554787	-0.422331
Zn2	Zn	1.558323	-0.221453	-0.088997
Zn3	Zn	1.891657	0.111880	0.244336
Zn4	Zn	1.224886	-0.422092	-0.555015
Zn5	Zn	1.558219	-0.088758	-0.221681
Zn6	Zn	1.891552	0.244575	0.111652
Zn7	Zn	1.093729	-0.408032	-0.408239
Zn8	Zn	1.427062	-0.074699	-0.074906
Zn9	Zn	1.760396	0.258634	0.258427
Zn10	Zn	1.078882	-0.554027	-0.554239
Zn11	Zn	1.412216	-0.220694	-0.220906
Zn12	Zn	1.745549	0.112639	0.112427
O13	O	1.155622	-0.484735	-0.484956
O14	O	1.488955	-0.151401	-0.151623
O15	O	1.822288	0.181932	0.181711
O16	O	1.341012	-0.543386	-0.446153
O17	O	1.674346	-0.210053	-0.112820
O18	O	2.007679	0.123280	0.220513
O19	O	1.213657	-0.303594	-0.529972
O20	O	1.546990	0.029739	-0.196639
O21	O	1.880324	0.363073	0.136695
O22	O	1.117398	-0.421933	-0.293478
O23	O	1.450731	-0.088600	0.039855
O24	O	1.784065	0.244733	0.373188
O25	O	1.340936	-0.445896	-0.543636
O26	O	1.674269	-0.112562	-0.210303
O27	O	2.007602	0.220771	0.123031
O28	O	1.213835	-0.529753	-0.303831
O29	O	1.547168	-0.196420	0.029502
O30	O	1.880502	0.136913	0.362835
O31	O	1.117297	-0.293264	-0.422137
O32	O	1.450630	0.040069	-0.088803
O33	O	1.783963	0.373402	0.244530
O34	O	0.975724	-0.421197	-0.421385
O35	O	1.309057	-0.087864	-0.088051
O36	O	1.642390	0.245470	0.245282
O37	O	1.092094	-0.670761	-0.542314
O38	O	1.425428	-0.337428	-0.208981
O39	O	1.758761	-0.004094	0.124353
O40	O	0.964816	-0.528459	-0.528650
O41	O	1.298149	-0.195126	-0.195317
O42	O	1.631483	0.138208	0.138016
O43	O	1.199439	-0.671319	-0.445401
O44	O	1.532772	-0.337986	-0.112068
O45	O	1.866106	-0.004652	0.221265
O46	O	1.199261	-0.445159	-0.671542
O47	O	1.532594	-0.111826	-0.338209
O48	O	1.865928	0.221507	-0.004876
O49	O	1.091993	-0.542092	-0.670972
O50	O	1.425326	-0.208759	-0.337639
O51	O	1.758660	0.124575	-0.004306
C52	C	0.940183	-0.473221	-0.473405
C53	C	1.273516	-0.139887	-0.140072
C54	C	1.606849	0.193446	0.193262
C55	C	0.848015	-0.468316	-0.468484
C56	C	1.181348	-0.134982	-0.135151
C57	C	1.514682	0.198351	0.198182
C58	C	0.632820	-0.510179	-0.510474
C59	C	0.966154	-0.176845	-0.177140
C60	C	1.299487	0.156488	0.156193
C61	C	0.679267	-0.459359	-0.459508
C62	C	1.012601	-0.126026	-0.126175
C63	C	1.345934	0.207307	0.207159
C64	C	0.773167	-0.464344	-0.464504
C65	C	1.106501	-0.131011	-0.131171
C66	C	1.439834	0.202323	0.202163
C67	C	0.538912	-0.505195	-0.505479
C68	C	0.872245	-0.171862	-0.172146
C69	C	1.205579	0.161471	0.161188
C70	C	1.144122	-0.702127	-0.495343
C71	C	1.477456	-0.368794	-0.162010
C72	C	1.810789	-0.035460	0.171324
C73	C	1.139222	-0.794767	-0.499770
C74	C	1.472555	-0.461433	-0.166436
C75	C	1.805889	-0.128100	0.166897
C76	C	1.130245	-0.964378	-0.507831
C77	C	1.463579	-0.631045	-0.174497
C78	C	1.796912	-0.297712	0.158836
C79	C	1.181175	-1.005939	-0.461840
C80	C	1.514508	-0.672606	-0.128507
C81	C	1.847841	-0.339273	0.204826
C82	C	1.176180	-1.100317	-0.466326
C83	C	1.509514	-0.766984	-0.132992
C84	C	1.842847	-0.433650	0.200341
C85	C	1.135239	-0.869992	-0.503346
C86	C	1.468572	-0.536659	-0.170013
C87	C	1.801905	-0.203325	0.163320
C88	C	1.371902	-0.496294	-0.496553
C89	C	1.705235	-0.162961	-0.163220
C90	C	2.038569	0.170373	0.170114
C91	C	1.464068	-0.501220	-0.501495
C92	C	1.797401	-0.167887	-0.168162
C93	C	2.130734	0.165447	0.165172
C94	C	1.144026	-0.495088	-0.701500
C95	C	1.477359	-0.161755	-0.368167
C96	C	1.810693	0.171578	-0.034834
C97	C	1.139140	-0.499550	-0.794144
C98	C	1.472473	-0.166216	-0.460811
C99	C	1.805806	0.167117	-0.127478
C100	C	1.167128	-0.268187	-0.474552
C101	C	1.500461	0.065146	-0.141218
C102	C	1.833794	0.398479	0.192115
C103	C	1.172201	-0.175545	-0.469899
C104	C	1.505534	0.157788	-0.136566
C105	C	1.838868	0.491121	0.196767
C106	C	1.130223	-0.507712	-0.963767
C107	C	1.463556	-0.174379	-0.630434
C108	C	1.796889	0.158955	-0.297100
C109	C	1.181169	-0.461779	-1.005313
C110	C	1.514502	-0.128445	-0.671980
C111	C	1.847835	0.204888	-0.338647
C112	C	1.176207	-0.466320	-1.099697
C113	C	1.509541	-0.132987	-0.766364
C114	C	1.842874	0.200346	-0.433030
C115	C	1.135183	-0.503171	-0.869375
C116	C	1.468516	-0.169838	-0.536041
C117	C	1.801850	0.163495	-0.202708
C118	C	1.167284	-0.474360	-0.267568
C119	C	1.500618	-0.141027	0.065765
C120	C	1.833951	0.192307	0.399098
C121	C	1.172254	-0.469939	-0.174931
C122	C	1.505588	-0.136605	0.158403
C123	C	1.838921	0.196728	0.491736
H124	H	1.228527	-0.970641	-0.419097
H125	H	1.561860	-0.637308	-0.085764
H126	H	1.895194	-0.303974	0.247569
H127	H	0.663575	-0.557426	-0.557856
H128	H	0.996908	-0.224092	-0.224522
H129	H	1.330241	0.109241	0.108811
O130	O	1.073872	-1.006529	-0.558921
O131	O	1.407206	-0.673196	-0.225588
O132	O	1.740539	-0.339863	0.107745
C133	C	1.115591	-1.062005	-0.617609
C134	C	1.448925	-0.728672	-0.284276
C135	C	1.782258	-0.395339	0.049058
H136	H	1.181985	-1.039447	-0.625028
H137	H	1.515318	-0.706114	-0.291695
H138	H	1.848652	-0.372780	0.041638
H139	H	1.082110	-1.064567	-0.680197
H140	H	1.415443	-0.731234	-0.346863
H141	H	1.748776	-0.397900	-0.013530
H142	H	1.116414	-1.126859	-0.595061
H143	H	1.449747	-0.793526	-0.261728
H144	H	1.783080	-0.460193	0.071606
H145	H	0.648511	-0.412108	-0.412123
H146	H	0.981845	-0.078775	-0.078790
H147	H	1.315178	0.254559	0.254544
H148	H	1.228511	-0.419042	-0.969997
H149	H	1.561844	-0.085709	-0.636664
H150	H	1.895178	0.247624	-0.303331
O151	O	1.073765	-0.558617	-1.006016
O152	O	1.407098	-0.225284	-0.672683
O153	O	1.740432	0.108050	-0.339349
C154	C	1.081329	-0.551878	-1.092213
C155	C	1.414662	-0.218545	-0.758879
C156	C	1.747996	0.114788	-0.425546
H157	H	1.111341	-0.489592	-1.102382
H158	H	1.444674	-0.156259	-0.769049
H159	H	1.778008	0.177075	-0.435716
H160	H	1.017207	-0.555717	-1.122370
H161	H	1.350540	-0.222383	-0.789036
H162	H	1.683873	0.110950	-0.455703
H163	H	1.121554	-0.604875	-1.121587
H164	H	1.454887	-0.271542	-0.788254
H165	H	1.788220	0.061792	-0.454921
