data_functionalizedCrystal
_audit_creation_method	'MofGen! by Chris Wilmer'
_symmetry_space_group_name_H-M	'P1'
_symmetry_Int_Tables_number	1
_symmetry_cell_setting	triclinic
loop_
_symmetry_equiv_pos_as_xyz
  x,y,z
_cell_length_a	19.288864
_cell_length_b	10.654550
_cell_length_c	18.366186
_cell_angle_alpha	89.994973
_cell_angle_beta	89.977106
_cell_angle_gamma	83.810575
loop_
_atom_site_label
_atom_site_type_symbol
_atom_site_fract_x
_atom_site_fract_y
_atom_site_fract_z
O1	O	0.922379	0.156657	-0.060782
O2	O	0.720256	0.177789	-0.060732
O3	O	0.825965	-0.015616	-0.060755
O4	O	0.816670	0.350062	-0.060758
O5	O	0.825946	-0.015625	0.060344
O6	O	0.720238	0.177780	0.060368
O7	O	0.922360	0.156647	0.060318
Zn8	Zn	0.821296	0.167212	0.079570
Zn9	Zn	0.821320	0.167224	-0.079984
O10	O	0.816652	0.350052	0.060341
C11	C	0.694366	0.177105	-0.000176
C12	C	0.617249	0.175063	-0.000156
C13	C	0.573296	0.288545	-0.000169
C14	C	0.500836	0.286627	-0.000177
C15	C	0.472333	0.171222	-0.000187
C16	C	0.516296	0.057725	-0.000171
C17	C	0.588754	0.059646	-0.000155
C18	C	0.363484	0.080503	-0.042637
C19	C	0.291027	0.078587	-0.042657
C20	C	0.248849	0.165292	-0.000231
C21	C	0.279136	0.253935	0.042205
C22	C	0.351594	0.255855	0.042221
C23	C	0.393766	0.169126	-0.000203
C24	C	0.126326	0.276702	-0.000251
C25	C	0.053865	0.274779	-0.000255
C26	C	0.069327	0.045875	-0.000256
C27	C	0.141786	0.047800	-0.000245
C28	C	0.170281	0.163217	-0.000246
C29	C	0.825273	-0.062404	-0.000206
C30	C	0.823231	-0.201803	-0.000208
C31	C	0.885471	-0.282621	-0.000221
C32	C	0.883548	-0.413601	-0.000226
C33	C	0.757141	-0.382932	-0.000201
C34	C	0.759065	-0.251955	-0.000202
C35	C	0.958451	-0.300329	-0.000232
C36	C	0.956528	-0.431309	-0.000237
C37	C	0.948250	0.157332	-0.000240
C38	C	1.025367	0.159373	-0.000264
C39	C	0.817344	0.396840	-0.000209
C40	C	0.819385	0.536240	-0.000212
N41	N	0.821285	0.167203	0.188461
N42	N	0.821337	0.167224	-0.188875
C43	C	0.868108	0.081605	0.226551
C44	C	0.868113	0.081599	0.302779
C45	C	0.821300	0.167213	0.340914
C46	C	0.774468	0.252817	0.302815
C47	C	0.774461	0.252812	0.226588
C48	C	0.812752	0.281634	0.461675
C49	C	0.812764	0.281641	0.537899
C50	C	0.821320	0.167229	0.576021
C51	C	0.829879	0.052804	0.537909
C52	C	0.829871	0.052799	0.461682
C53	C	0.821303	0.167228	0.423569
C54	C	0.868151	0.081618	0.696766
C55	C	0.868151	0.081610	0.772995
C56	C	0.774509	0.252840	0.773030
C57	C	0.774507	0.252836	0.696802
C58	C	0.821331	0.167226	0.658675
H59	H	0.046120	-0.048091	-0.000309
H60	H	0.736391	0.322543	0.804079
N61	N	0.724008	0.345179	0.655722
H62	H	0.750811	0.400659	0.624077
H63	H	0.693032	0.297244	0.624158
N64	N	0.803528	0.405048	0.579003
H65	H	0.842378	0.457242	0.565711
H66	H	0.757161	0.452789	0.565740
H67	H	0.984018	-0.473662	0.050435
N68	N	0.485563	-0.066753	-0.000187
H69	H	0.501525	-0.116455	0.044709
H70	H	0.432996	-0.050653	-0.000228
N71	N	0.723953	0.345142	0.185506
H72	H	0.732377	0.434236	0.198762
H73	H	0.731075	0.332043	0.131444
N74	N	0.408970	-0.013018	-0.088403
H75	H	0.459467	0.001644	-0.081953
H76	H	0.402259	-0.101669	-0.072545
H77	H	0.018079	0.367194	-0.000261
N78	N	0.989209	-0.253727	0.069010
H79	H	0.953611	-0.191711	0.093963
H80	H	1.002674	-0.327607	0.102440
H81	H	0.624542	-0.032767	-0.000146
N82	N	0.918659	-0.010707	0.814085
H83	H	0.949633	0.037164	0.845692
H84	H	0.891810	-0.066171	0.845688
H85	H	0.704899	-0.423782	-0.000196
H86	H	0.805772	0.374809	0.430642
N87	N	0.233647	0.347445	0.087972
H88	H	0.247022	0.336075	0.140913
H89	H	0.240309	0.436099	0.072078
H90	H	0.177574	-0.044609	-0.000239
N91	N	0.691936	-0.164784	-0.000201
H92	H	0.650997	-0.216433	-0.000195
H93	H	0.689967	-0.109775	0.044692
N94	N	0.985764	-0.492393	-0.069498
H95	H	0.948637	-0.536765	-0.094475
H96	H	1.001304	-0.425498	-0.102900
N97	N	0.996273	-0.262227	-0.067362
H98	H	0.971027	-0.287664	-0.112283
H99	H	0.997670	-0.167742	-0.067313
H100	H	0.906234	0.011894	0.195510
H101	H	0.736352	0.322524	0.333868
N102	N	0.258362	-0.017011	-0.088427
H103	H	0.296075	-0.071658	-0.115293
H104	H	0.231916	-0.071649	-0.055886
H105	H	0.465043	0.379040	-0.000185
N106	N	0.604030	0.413024	-0.000175
H107	H	0.565186	0.484624	-0.000186
H108	H	0.633733	0.418817	0.044722
N109	N	0.918639	-0.010756	0.655652
H110	H	0.891821	-0.066233	0.624049
H111	H	0.949618	0.037148	0.624044
H112	H	0.906243	0.011892	0.333797
H113	H	0.836846	-0.040361	0.568946
N114	N	0.384262	0.351448	0.087990
H115	H	0.346553	0.406088	0.114867
H116	H	0.417425	0.306024	0.124233
N117	N	0.839099	-0.070603	0.420574
H118	H	0.844521	-0.143088	0.456285
H119	H	0.796866	-0.077739	0.388971
H120	H	0.149528	0.370681	-0.000241
