data_functionalizedCrystal
_audit_creation_method	'MofGen! by Chris Wilmer'
_symmetry_space_group_name_H-M	'P1'
_symmetry_Int_Tables_number	1
_symmetry_cell_setting	triclinic
loop_
_symmetry_equiv_pos_as_xyz
  x,y,z
_cell_length_a	19.805405
_cell_length_b	11.169417
_cell_length_c	11.169409
_cell_angle_alpha	90.021683
_cell_angle_beta	89.960143
_cell_angle_gamma	89.974651
loop_
_atom_site_label
_atom_site_type_symbol
_atom_site_fract_x
_atom_site_fract_y
_atom_site_fract_z
Zn1	Zn	-0.269428	-1.834828	-0.678539
Zn2	Zn	-0.382637	-1.834661	-0.477830
Zn3	Zn	-0.269465	-1.634114	-0.477867
Zn4	Zn	-0.382578	-1.634065	-0.678468
O5	O	-0.326027	-1.734417	-0.578176
O6	O	-0.284454	-2.002756	-0.651929
O7	O	-0.367665	-1.808009	-0.309885
O8	O	-0.174743	-1.660830	-0.504532
O9	O	-0.367628	-2.002633	-0.504469
O10	O	-0.174716	-1.808293	-0.651965
O11	O	-0.284518	-1.660668	-0.309913
O12	O	-0.284461	-1.466158	-0.504463
O13	O	-0.367528	-1.660746	-0.846428
O14	O	-0.367564	-1.466122	-0.651844
O15	O	-0.284397	-1.808246	-0.846480
O16	O	-0.477346	-1.807962	-0.504400
O17	O	-0.477302	-1.660585	-0.651808
C18	C	-0.326011	-1.422593	-0.578151
C19	C	-0.326020	-1.289193	-0.578168
C20	C	-0.501883	-1.734282	-0.578118
C21	C	-0.577115	-1.734334	-0.578134
C22	C	-0.612459	-1.811148	-0.501459
C23	C	-0.683147	-1.811199	-0.501485
C24	C	-0.718490	-1.734429	-0.578181
C25	C	-0.683141	-1.657612	-0.654865
C26	C	-0.612454	-1.657568	-0.654844
C27	C	-0.968214	-1.657789	-0.654954
C28	C	-1.038907	-1.657837	-0.654967
C29	C	-1.038908	-1.811420	-0.501595
C30	C	-0.968221	-1.811376	-0.501574
C31	C	-0.932878	-1.734564	-0.578261
C32	C	-0.856229	-1.734511	-0.578233
C33	C	-0.795137	-1.734475	-0.578204
C34	C	-0.149484	-1.734586	-0.578261
C35	C	-0.074252	-1.734657	-0.578297
C36	C	-0.325952	-1.734509	-0.891219
C37	C	-0.325920	-1.734549	-1.024619
C38	C	-0.326038	-1.047460	-0.578193
C39	C	-0.326028	-1.180860	-0.578176
C40	C	-0.326053	-1.734395	-0.266352
C41	C	-0.325894	-1.734588	-0.132952
H42	H	-0.711922	-1.873748	-0.439048
H43	H	-1.067693	-1.873969	-0.439157
H44	H	-1.067681	-1.595323	-0.717431
O45	O	-0.933993	-1.583047	-0.729465
C46	C	-0.980348	-1.515312	-0.797172
H47	H	-1.030762	-1.511232	-0.748023
H48	H	-0.959966	-1.420726	-0.809866
H49	H	-0.987799	-1.559205	-0.888372
H50	H	-0.711923	-1.595110	-0.717318
O51	O	-0.933785	-1.885837	-0.427110
C52	C	-0.863815	-1.869347	-0.443554
H53	H	-0.854185	-1.776698	-0.482774
H54	H	-0.836989	-1.877519	-0.353657
H55	H	-0.843693	-1.940489	-0.507528
O56	O	-0.578234	-1.885834	-0.426913
C57	C	-0.624592	-1.953620	-0.359223
H58	H	-0.674954	-1.957783	-0.408404
H59	H	-0.604132	-2.048175	-0.346495
H60	H	-0.632176	-1.909719	-0.268036
O61	O	-0.578223	-1.582841	-0.729368
C62	C	-0.624573	-1.515115	-0.797091
H63	H	-0.674986	-1.511004	-0.747940
H64	H	-0.604183	-1.420538	-0.809817
H65	H	-0.632031	-1.559033	-0.888278
