data_functionalizedCrystal
_audit_creation_method	'MofGen! by Chris Wilmer'
_symmetry_space_group_name_H-M	'P1'
_symmetry_Int_Tables_number	1
_symmetry_cell_setting	triclinic
loop_
_symmetry_equiv_pos_as_xyz
  x,y,z
_cell_length_a	10.967916
_cell_length_b	22.010155
_cell_length_c	23.532357
_cell_angle_alpha	90.001303
_cell_angle_beta	96.208076
_cell_angle_gamma	102.120453
loop_
_atom_site_label
_atom_site_type_symbol
_atom_site_fract_x
_atom_site_fract_y
_atom_site_fract_z
O1	O	-1.654612	-0.122707	0.079885
O2	O	-1.154612	0.377293	0.579885
O3	O	-1.291233	-0.084659	0.087526
O4	O	-0.791233	0.415341	0.587526
O5	O	-1.483913	-0.104846	0.000843
O6	O	-0.983913	0.395154	0.500843
O7	O	-1.461932	-0.102520	0.166568
O8	O	-0.961932	0.397480	0.666568
O9	O	-1.483878	-0.205893	0.000856
O10	O	-0.983878	0.294107	0.500856
O11	O	-1.291198	-0.185706	0.087539
O12	O	-0.791198	0.314294	0.587539
O13	O	-1.654577	-0.223754	0.079898
O14	O	-1.154577	0.276246	0.579898
Cu15	Cu	-1.472884	-0.213956	0.083720
Cu16	Cu	-0.972884	0.286044	0.583720
Cu17	Cu	-1.472926	-0.094457	0.083704
Cu18	Cu	-0.972926	0.405543	0.583704
O19	O	-1.461897	-0.203567	0.166581
O20	O	-0.961897	0.296433	0.666581
C21	C	-1.244735	-0.130316	0.086976
C22	C	-0.744735	0.369684	0.586976
C23	C	-1.106239	-0.115815	0.085310
C24	C	-0.606239	0.384185	0.585310
C25	C	-1.044475	-0.161695	0.084573
C26	C	-0.544475	0.338305	0.584573
C27	C	-0.901332	-0.146708	0.082851
C28	C	-0.401332	0.353292	0.582851
N29	N	-1.472864	-0.298007	0.083730
N30	N	-0.972864	0.201993	0.583730
C31	C	-1.558249	-0.726732	0.045327
C32	C	-1.058249	-0.226732	0.545327
C33	C	-1.558255	-0.790340	0.045323
C34	C	-1.058255	-0.290340	0.545323
O35	O	-1.630802	-0.830832	0.012678
O36	O	-1.130802	-0.330832	0.512678
N37	N	-1.472925	-0.813220	0.083693
N38	N	-0.972925	-0.313220	0.583693
C39	C	-1.387575	-0.772487	0.122065
C40	C	-0.887575	-0.272487	0.622065
O41	O	-1.314995	-0.797789	0.154700
O42	O	-0.814995	-0.297789	0.654700
C43	C	-1.387564	-0.708879	0.122065
C44	C	-0.887564	-0.208879	0.622065
C45	C	-1.472908	-0.686004	0.083697
C46	C	-0.972908	-0.186004	0.583697
C47	C	-1.643585	-0.703856	0.006961
C48	C	-1.143585	-0.203856	0.506961
C49	C	-1.643580	-0.640252	0.006966
C50	C	-1.143580	-0.140252	0.506966
C51	C	-1.558240	-0.599524	0.045336
C52	C	-1.058240	-0.099524	0.545336
C53	C	-1.472904	-0.622401	0.083702
C54	C	-0.972904	-0.122401	0.583702
C55	C	-1.302210	-0.668147	0.160434
C56	C	-0.802210	-0.168147	0.660434
C57	C	-1.302206	-0.604536	0.160431
C58	C	-0.802206	-0.104536	0.660431
C59	C	-1.387550	-0.581661	0.122063
C60	C	-0.887550	-0.081661	0.622063
C61	C	-1.387559	-0.518069	0.122077
C62	C	-0.887559	-0.018069	0.622077
N63	N	-1.472888	-0.495189	0.083707
N64	N	-0.972888	0.004811	0.583707
C65	C	-1.558229	-0.535917	0.045337
C66	C	-1.058229	-0.035917	0.545337
C67	C	-1.387603	-0.906068	0.122060
C68	C	-0.887603	-0.406068	0.622060
C69	C	-1.387619	-0.969675	0.122062
C70	C	-0.887619	-0.469675	0.622062
C71	C	-1.558297	-0.987523	0.045319
C72	C	-1.058297	-0.487523	0.545319
C73	C	-1.558286	-0.923916	0.045320
C74	C	-1.058286	-0.423916	0.545320
C75	C	-1.472933	-0.883188	0.083690
C76	C	-0.972933	-0.383188	0.583690
C77	C	-1.558214	-0.402344	0.045350
C78	C	-1.058214	0.097656	0.545350
C79	C	-1.558205	-0.338734	0.045360
C80	C	-1.058205	0.161266	0.545360
C81	C	-1.387523	-0.320891	0.122100
C82	C	-0.887523	0.179109	0.622100
C83	C	-1.387535	-0.384495	0.122093
C84	C	-0.887535	0.115505	0.622093
C85	C	-1.472886	-0.425221	0.083713
C86	C	-0.972886	0.074779	0.583713
O87	O	-1.315045	-0.477540	0.154703
O88	O	-0.815045	0.022460	0.654703
O89	O	-1.630786	-0.510605	0.012702
O90	O	-1.130786	-0.010605	0.512702
C91	C	-0.701075	-0.178096	0.080449
C92	C	-0.201075	0.321904	0.580449
C93	C	-0.839571	-0.192595	0.082115
C94	C	-0.339571	0.307405	0.582115
C95	C	-1.483345	-0.155314	-0.020370
C96	C	-0.983345	0.344686	0.479630
C97	C	-1.481692	-0.155147	-0.083600
C98	C	-0.981692	0.344853	0.416400
N99	N	-1.472955	-0.010407	0.083689
N100	N	-0.972955	0.489593	0.583689
C101	C	-1.471334	-0.098947	-0.475685
C102	C	-0.971334	0.401053	0.024315
C103	C	-1.469763	-0.098779	-0.535095
C104	C	-0.969763	0.401221	-0.035095
O105	O	-1.468924	-0.051845	-0.565823
O106	O	-0.968924	0.448155	-0.065823
N107	N	-1.468964	-0.153777	-0.564804
N108	N	-0.968964	0.346223	-0.064804
C109	C	-1.469725	-0.208945	-0.535100
C110	C	-0.969725	0.291055	-0.035100
O111	O	-1.468900	-0.255710	-0.565825
O112	O	-0.968900	0.244290	-0.065825
C113	C	-1.471287	-0.209112	-0.475691
C114	C	-0.971287	0.290888	0.024309
C115	C	-1.472098	-0.154111	-0.445986
C116	C	-0.972098	0.345889	0.054014
C117	C	-1.472144	-0.043951	-0.445980
C118	C	-0.972144	0.456049	0.054020
C119	C	-1.473717	-0.044119	-0.386574
C120	C	-0.973717	0.455881	0.113426
C121	C	-1.474481	-0.099284	-0.356875
C122	C	-0.974481	0.400716	0.143125
C123	C	-1.473672	-0.154280	-0.386580
C124	C	-0.973672	0.345720	0.113420
C125	C	-1.472039	-0.264279	-0.445987
C126	C	-0.972039	0.235721	0.054013
C127	C	-1.473600	-0.264440	-0.386574
C128	C	-0.973600	0.235560	0.113426
C129	C	-1.474411	-0.209440	-0.356869
C130	C	-0.974411	0.290560	0.143131
C131	C	-1.476009	-0.209613	-0.297475
C132	C	-0.976009	0.290387	0.202525
N133	N	-1.476808	-0.154615	-0.267766
N134	N	-0.976808	0.345385	0.232234
C135	C	-1.476044	-0.099450	-0.297466
C136	C	-0.976044	0.400550	0.202534
C137	C	-1.466442	-0.208591	-0.659863
C138	C	-0.966442	0.291409	-0.159863
C139	C	-1.464888	-0.208427	-0.719271
C140	C	-0.964888	0.291573	-0.219271
C141	C	-1.464924	-0.098259	-0.719262
C142	C	-0.964924	0.401741	-0.219262
C143	C	-1.466486	-0.098426	-0.659853
C144	C	-0.966486	0.401574	-0.159853
C145	C	-1.467240	-0.153593	-0.630154
C146	C	-0.967240	0.346407	-0.130154
C147	C	-1.479349	-0.099808	-0.172710
C148	C	-0.979349	0.400192	0.327290
C149	C	-1.480928	-0.099982	-0.113300
C150	C	-0.980928	0.400018	0.386700
C151	C	-1.480886	-0.210148	-0.113314
C152	C	-0.980886	0.289852	0.386686
C153	C	-1.479314	-0.209975	-0.172719
C154	C	-0.979314	0.290025	0.327281
C155	C	-1.478541	-0.154800	-0.202416
C156	C	-0.978541	0.345200	0.297584
O157	O	-1.476844	-0.256522	-0.266709
O158	O	-0.976844	0.243478	0.233291
O159	O	-1.476852	-0.052692	-0.266732
O160	O	-0.976852	0.447308	0.233268
C161	C	-1.462464	-0.153098	0.187794
C162	C	-0.962464	0.346902	0.687794
C163	C	-1.464117	-0.153261	0.251024
C164	C	-0.964117	0.346739	0.751024
H165	H	-1.627706	-0.320113	0.014116
H166	H	-1.127706	0.179887	0.514116
F167	F	-1.467347	-0.039887	-0.628244
F168	F	-0.967347	0.460113	-0.128244
F169	F	-1.464048	-0.266968	-0.750881
F170	F	-0.964048	0.233032	-0.250881
F171	F	-1.474572	0.014421	-0.354967
F172	F	-0.974572	0.514421	0.145033
F173	F	-1.296760	-0.862727	0.162904
F174	F	-0.796760	-0.362727	0.662904
F175	F	-0.831946	-0.080861	0.082005
F176	F	-0.331946	0.419139	0.582005
F177	F	-1.734422	-0.747194	-0.033882
F178	F	-1.234422	-0.247194	0.466118
H179	H	-1.467059	-0.253519	-0.635686
H180	H	-0.967059	0.246481	-0.135686
F181	F	-1.296703	-0.277536	0.162936
F182	F	-0.796703	0.222464	0.662936
F183	F	-1.481795	-0.041441	-0.081688
F184	F	-0.981795	0.458559	0.418312
H185	H	-1.318053	-0.403121	0.153341
H186	H	-0.818053	0.096879	0.653341
F187	F	-1.211355	-0.561193	0.201270
F188	F	-0.711355	-0.061193	0.701270
F189	F	-1.113867	-0.227539	0.085414
F190	F	-0.613867	0.272461	0.585414
F191	F	-1.296800	-0.994015	0.162906
F192	F	-0.796800	-0.494015	0.662906
H193	H	-1.471517	0.000974	-0.470155
H194	H	-0.971517	0.500974	0.029845
F195	F	-0.908957	-0.258444	0.082951
F196	F	-0.408957	0.241556	0.582951
F197	F	-1.036849	-0.049970	0.084463
F198	F	-0.536849	0.450030	0.584463
F199	F	-1.478527	-0.041084	-0.204307
F200	F	-0.978527	0.458916	0.295693
F201	F	-1.464103	-0.039547	-0.750881
F202	F	-0.964103	0.460453	-0.250881
F203	F	-1.649053	-0.445678	0.004502
F204	F	-1.149053	0.054322	0.504502
H205	H	-1.471380	-0.309066	-0.470163
H206	H	-0.971380	0.190934	0.029837
F207	F	-1.211374	-0.692480	0.201270
F208	F	-0.711374	-0.192480	0.701270
H209	H	-1.474195	-0.309363	-0.362395
H210	H	-0.974195	0.190637	0.137605
F211	F	-1.734408	-0.615912	-0.033873
F212	F	-1.234408	-0.115912	0.466127
H213	H	-1.478665	-0.254762	-0.196907
H214	H	-0.978665	0.245238	0.303093
F215	F	-1.481702	-0.268855	-0.081694
F216	F	-0.981702	0.231145	0.418306
H217	H	-1.627784	-1.020695	0.014075
H218	H	-1.127784	-0.520695	0.514075
F219	F	-1.649119	-0.899576	0.004483
F220	F	-1.149119	-0.399576	0.504483
