data_functionalizedCrystal
_audit_creation_method	'MofGen! by Chris Wilmer'
_symmetry_space_group_name_H-M	'P1'
_symmetry_Int_Tables_number	1
_symmetry_cell_setting	triclinic
loop_
_symmetry_equiv_pos_as_xyz
  x,y,z
_cell_length_a	21.395364
_cell_length_b	18.050590
_cell_length_c	21.395356
_cell_angle_alpha	90.027706
_cell_angle_beta	90.016491
_cell_angle_gamma	90.033504
loop_
_atom_site_label
_atom_site_type_symbol
_atom_site_fract_x
_atom_site_fract_y
_atom_site_fract_z
Zn1	Zn	0.957862	-0.295378	0.354264
Zn2	Zn	0.957802	-0.419571	0.249487
Zn3	Zn	0.853092	-0.295432	0.249500
Zn4	Zn	0.853069	-0.419563	0.354227
O5	O	0.905456	-0.357486	0.301870
O6	O	1.045532	-0.311834	0.340374
O7	O	0.943896	-0.403129	0.161811
O8	O	0.867025	-0.191500	0.263418
O9	O	1.045488	-0.403077	0.263396
O10	O	0.943999	-0.191461	0.340387
O11	O	0.866966	-0.311925	0.161821
O12	O	0.765411	-0.311917	0.263383
O13	O	0.866985	-0.403064	0.441910
O14	O	0.765394	-0.403116	0.340325
O15	O	0.943977	-0.311826	0.441937
O16	O	0.943874	-0.523495	0.263360
O17	O	0.866927	-0.523489	0.340312
C18	C	0.742669	-0.357522	0.301852
C19	C	0.673027	-0.357556	0.301859
C20	C	0.640360	-0.310123	0.342004
C21	C	0.574924	-0.310103	0.342007
C22	C	0.542159	-0.357529	0.301871
C23	C	0.574834	-0.404966	0.261718
C24	C	0.640269	-0.404979	0.261712
C25	C	0.438447	-0.424411	0.296834
C26	C	0.373014	-0.424399	0.296844
C27	C	0.340338	-0.357489	0.301885
C28	C	0.373103	-0.290588	0.306929
C29	C	0.438537	-0.290601	0.306923
C30	C	0.471207	-0.357520	0.301872
C31	C	0.236718	-0.310030	0.342034
C32	C	0.171282	-0.310009	0.342032
C33	C	0.171193	-0.404878	0.261747
C34	C	0.236628	-0.404893	0.261746
C35	C	0.269387	-0.357470	0.301893
C36	C	0.905408	-0.550438	0.301845
C37	C	0.905445	-0.632984	0.301855
C38	C	0.947376	-0.832411	0.260067
C39	C	0.962677	-0.881739	0.317251
C40	C	0.905480	-0.784114	0.301880
C41	C	0.890242	-0.881867	0.244722
C42	C	0.905516	-0.930099	0.301899
C43	C	0.920812	-0.832356	0.359094
C44	C	0.848350	-0.832479	0.286526
C45	C	0.863630	-0.881786	0.343750
C46	C	0.905461	-0.700016	0.301868
C47	C	0.905535	-1.014196	0.301917
C48	C	1.068879	-0.357450	0.301888
C49	C	1.138521	-0.357435	0.301895
C50	C	0.905485	-0.357438	0.465293
C51	C	0.905498	-0.357418	0.534934
C52	C	0.905522	-0.163781	0.301908
C53	C	0.905549	-0.081235	0.301925
C54	C	0.905463	-0.357480	0.139082
C55	C	0.905572	-0.357291	0.069441
C56	C	0.945646	-0.309792	1.036745
C57	C	0.945641	-0.309810	0.971310
C58	C	0.905551	-0.357319	0.938573
C59	C	0.865475	-0.404828	0.971276
C60	C	0.865485	-0.404814	1.036710
C61	C	0.849083	-0.363218	0.834897
C62	C	0.849072	-0.363227	0.769464
C63	C	0.905519	-0.357367	0.736752
C64	C	0.961980	-0.351482	0.769481
C65	C	0.961990	-0.351468	0.834915
C66	C	0.905536	-0.357340	0.867620
C67	C	0.945591	-0.309884	0.633104
C68	C	0.945587	-0.309907	0.567667
C69	C	0.865415	-0.404921	0.567634
C70	C	0.865425	-0.404902	0.633070
C71	C	0.905512	-0.357380	0.665800
H72	H	0.667028	-0.271506	0.374694
H73	H	1.007945	-0.346708	0.742848
Cl74	Cl	0.331831	-0.508502	0.290513
H75	H	0.465047	-0.478901	0.292728
H76	H	0.548153	-0.443580	0.229039
Cl77	Cl	0.681339	-0.464612	0.211239
Cl78	Cl	0.773751	-0.799046	0.266434
H79	H	0.982817	-0.810731	0.224743
Cl80	Cl	0.808953	-0.915051	0.398416
Cl81	Cl	0.995974	-0.250131	0.674254
Cl82	Cl	1.037296	-0.915134	0.337331
H83	H	0.263392	-0.271411	0.374720
H84	H	0.144516	-0.443494	0.229067
Cl85	Cl	0.815078	-0.464556	0.930122
H86	H	0.933667	-0.810700	0.407481
H87	H	0.263227	-0.443521	0.229058
Cl88	Cl	0.130213	-0.250370	0.392502
Cl89	Cl	0.533848	-0.250468	0.392478
Cl90	Cl	0.479725	-0.206502	0.313260
Cl91	Cl	0.870320	-0.915445	0.170081
H92	H	0.346500	-0.236103	0.311034
Cl93	Cl	0.995974	-0.250193	0.526563
H94	H	0.978291	-0.271099	1.063391
H95	H	0.978273	-0.271128	0.944684
H96	H	1.007963	-0.346679	0.861561
Cl97	Cl	0.815023	-0.464656	0.526485
Cl98	Cl	0.815042	-0.464617	0.674175
Cl99	Cl	0.778093	-0.370617	0.728325
H100	H	0.832852	-0.443494	1.063331
Cl101	Cl	0.778113	-0.370575	0.876013
