data_functionalizedCrystal
_audit_creation_method	'MofGen! by Chris Wilmer'
_symmetry_space_group_name_H-M	'P1'
_symmetry_Int_Tables_number	1
_symmetry_cell_setting	triclinic
loop_
_symmetry_equiv_pos_as_xyz
  x,y,z
_cell_length_a	11.169417
_cell_length_b	19.121449
_cell_length_c	11.169409
_cell_angle_alpha	87.522733
_cell_angle_beta	89.980487
_cell_angle_gamma	87.586540
loop_
_atom_site_label
_atom_site_type_symbol
_atom_site_fract_x
_atom_site_fract_y
_atom_site_fract_z
Zn1	Zn	1.855204	-0.279531	-0.658125
Zn2	Zn	2.355204	0.220469	-0.158125
Zn3	Zn	1.863599	-0.397003	-0.448866
Zn4	Zn	2.363599	0.102997	0.051134
Zn5	Zn	1.654493	-0.279574	-0.457458
Zn6	Zn	2.154493	0.220426	0.042542
Zn7	Zn	1.662999	-0.396947	-0.649516
Zn8	Zn	2.162999	0.103053	-0.149516
O9	O	1.759074	-0.338264	-0.553491
O10	O	2.259074	0.161736	-0.053491
O11	O	2.024267	-0.295119	-0.630374
O12	O	2.524267	0.204881	-0.130374
O13	O	1.835814	-0.381468	-0.282053
O14	O	2.335814	0.118532	0.217947
O15	O	1.674044	-0.181285	-0.491275
O16	O	2.174044	0.318715	0.008725
O17	O	2.030436	-0.381426	-0.476632
O18	O	2.530436	0.118574	0.023368
O19	O	1.821505	-0.181253	-0.638705
O20	O	2.321505	0.318747	-0.138705
O21	O	1.682185	-0.295193	-0.288365
O22	O	2.182185	0.204807	0.211635
O23	O	1.487671	-0.295139	-0.482927
O24	O	1.987671	0.204861	0.017073
O25	O	1.688542	-0.381329	-0.818611
O26	O	2.188542	0.118671	-0.318611
O27	O	1.493921	-0.381372	-0.624032
O28	O	1.993921	0.118628	-0.124032
O29	O	1.829754	-0.295064	-0.824936
O30	O	2.329754	0.204936	-0.324936
O31	O	1.844063	-0.495279	-0.468284
O32	O	2.344063	0.004721	0.031716
O33	O	1.696683	-0.495238	-0.615701
O34	O	2.196683	0.004762	-0.115701
C35	C	1.447248	-0.338254	-0.553478
C36	C	1.947248	0.161746	-0.053478
C37	C	1.313849	-0.338267	-0.553500
C38	C	1.813849	0.161733	-0.053500
C39	C	1.772240	-0.520742	-0.540152
C40	C	2.272240	-0.020742	-0.040152
C41	C	1.777982	-0.598808	-0.534486
C42	C	2.277982	-0.098808	-0.034486
C43	C	1.703894	-0.635487	-0.608512
C44	C	2.203894	-0.135487	-0.108512
C45	C	1.709295	-0.708837	-0.603183
C46	C	2.209295	-0.208837	-0.103183
C47	C	1.788790	-0.745507	-0.523833
C48	C	2.288790	-0.245507	-0.023833
C49	C	1.862881	-0.708823	-0.449798
C50	C	2.362881	-0.208823	0.050202
C51	C	1.857473	-0.635474	-0.455122
C52	C	2.357473	-0.135474	0.044878
C53	C	1.808954	-0.966974	-0.503916
C54	C	2.308954	-0.466974	-0.003916
C55	C	1.814358	-1.040328	-0.498600
C56	C	2.314358	-0.540328	0.001400
C57	C	1.660770	-1.040337	-0.651984
C58	C	2.160770	-0.540337	-0.151984
C59	C	1.655375	-0.966987	-0.657306
C60	C	2.155375	-0.466987	-0.157306
C61	C	1.729461	-0.930309	-0.583267
C62	C	2.229461	-0.430309	-0.083267
C63	C	1.794315	-0.820483	-0.518386
C64	C	2.294315	-0.320483	-0.018386
C65	C	1.723929	-0.855334	-0.588708
C66	C	2.223929	-0.355334	-0.088708
C67	C	2.072117	-0.338274	-0.553505
C68	C	2.572117	0.161726	-0.053505
C69	C	2.205517	-0.338278	-0.553511
C70	C	2.705517	0.161722	-0.053511
C71	C	1.759160	-0.338186	-0.866539
C72	C	2.259160	0.161814	-0.366539
C73	C	1.759197	-0.338153	-0.999942
C74	C	2.259197	0.161847	-0.499942
C75	C	1.745889	-0.155073	-0.566909
C76	C	2.245889	0.344927	-0.066909
C77	C	1.740270	-0.077007	-0.572626
C78	C	2.240270	0.422993	-0.072626
C79	C	1.759053	-0.338291	-0.241664
C80	C	2.259053	0.161709	0.258336
C81	C	1.759234	-0.338126	-0.108277
C82	C	2.259234	0.161874	0.391723
H83	H	1.639166	-0.605635	-0.673133
H84	H	2.139166	-0.105635	-0.173133
H85	H	1.869280	-0.937117	-0.443633
H86	H	2.369280	-0.437117	0.056367
Cl87	Cl	1.894261	-0.866589	-0.418647
Cl88	Cl	2.394261	-0.366589	0.081353
Cl89	Cl	1.567635	-1.086451	-0.745051
Cl90	Cl	2.067635	-0.586451	-0.245051
Cl91	Cl	1.555438	-0.920893	-0.757069
Cl92	Cl	2.055438	-0.420893	-0.257069
Cl93	Cl	1.914302	-1.086427	-0.398838
Cl94	Cl	2.414302	-0.586427	0.101162
Cl95	Cl	1.962818	-0.754922	-0.350043
Cl96	Cl	2.462818	-0.254922	0.149957
Cl97	Cl	1.616165	-0.754945	-0.696263
Cl98	Cl	2.116165	-0.254945	-0.196263
H99	H	1.917802	-0.605610	-0.394840
H100	H	2.417802	-0.105610	0.105160
H101	H	1.659199	-0.825476	-0.653311
H102	H	2.159199	-0.325476	-0.153311
