data_functionalizedCrystal
_audit_creation_method	'MofGen! by Chris Wilmer'
_symmetry_space_group_name_H-M	'P1'
_symmetry_Int_Tables_number	1
_symmetry_cell_setting	triclinic
loop_
_symmetry_equiv_pos_as_xyz
  x,y,z
_cell_length_a	15.297475
_cell_length_b	19.805405
_cell_length_c	19.805399
_cell_angle_alpha	90.029301
_cell_angle_beta	80.316777
_cell_angle_gamma	99.671656
loop_
_atom_site_label
_atom_site_type_symbol
_atom_site_fract_x
_atom_site_fract_y
_atom_site_fract_z
Zn1	Zn	1.379175	0.448830	-0.561444
Zn2	Zn	1.712509	0.782163	-0.228111
Zn3	Zn	2.045842	1.115497	0.105223
Zn4	Zn	1.379062	0.562004	-0.448238
Zn5	Zn	1.712395	0.895337	-0.114904
Zn6	Zn	2.045728	1.228670	0.218429
Zn7	Zn	1.228313	0.429230	-0.428718
Zn8	Zn	1.561646	0.762563	-0.095384
Zn9	Zn	1.894980	1.095897	0.237949
Zn10	Zn	1.228265	0.542358	-0.541842
Zn11	Zn	1.561598	0.875691	-0.208509
Zn12	Zn	1.894931	1.209024	0.124825
O13	O	1.303704	0.495605	-0.495060
O14	O	1.637037	0.828939	-0.161727
O15	O	1.970370	1.162272	0.171606
O16	O	1.505406	0.480267	-0.562799
O17	O	1.838739	0.813600	-0.229466
O18	O	2.172072	1.146934	0.103867
O19	O	1.359038	0.544410	-0.350928
O20	O	1.692371	0.877744	-0.017595
O21	O	2.025704	1.211077	0.315739
O22	O	1.248393	0.337122	-0.446358
O23	O	1.581727	0.670456	-0.113025
O24	O	1.915060	1.003789	0.220308
O25	O	1.505322	0.563415	-0.479627
O26	O	1.838656	0.896749	-0.146294
O27	O	2.171989	1.230082	0.187039
O28	O	1.359231	0.351522	-0.543872
O29	O	1.692564	0.684856	-0.210539
O30	O	2.025898	1.018189	0.122795
O31	O	1.248283	0.446862	-0.336587
O32	O	1.581616	0.780195	-0.003254
O33	O	1.914950	1.113529	0.330080
O34	O	1.102061	0.427812	-0.427351
O35	O	1.435395	0.761146	-0.094018
O36	O	1.768728	1.094479	0.239315
O37	O	1.248310	0.529932	-0.639162
O38	O	1.581644	0.863265	-0.305829
O39	O	1.914977	1.196598	0.027504
O40	O	1.102025	0.510926	-0.510463
O41	O	1.435359	0.844260	-0.177130
O42	O	1.768692	1.177593	0.156204
O43	O	1.359184	0.461217	-0.653564
O44	O	1.692517	0.794551	-0.320230
O45	O	2.025850	1.127884	0.013103
O46	O	1.358990	0.654105	-0.460620
O47	O	1.692324	0.987439	-0.127287
O48	O	2.025657	1.320772	0.206047
O49	O	1.248200	0.639671	-0.529391
O50	O	1.581534	0.973005	-0.196057
O51	O	1.914867	1.306338	0.137276
C52	C	1.069309	0.465111	-0.464662
C53	C	1.402643	0.798444	-0.131329
C54	C	1.735976	1.131778	0.202004
C55	C	0.969034	0.452082	-0.451674
C56	C	1.302368	0.785415	-0.118341
C57	C	1.635701	1.118749	0.214993
C58	C	1.303602	0.671448	-0.495014
C59	C	1.636936	1.004781	-0.161681
C60	C	1.970269	1.338115	0.171652
C61	C	1.303641	0.746685	-0.495028
C62	C	1.636975	1.080019	-0.161695
C63	C	1.970308	1.413352	0.171639
C64	C	1.303754	0.495569	-0.671610
C65	C	1.637088	0.828903	-0.338276
C66	C	1.970421	1.162236	-0.004943
C67	C	1.303776	0.495554	-0.746844
C68	C	1.637109	0.828887	-0.413511
C69	C	1.970443	1.162221	-0.080178
C70	C	0.686401	0.588732	-0.587891
C71	C	1.019735	0.922065	-0.254558
C72	C	1.353068	1.255399	0.078775
C73	C	0.780615	0.600979	-0.600093
C74	C	1.113948	0.934312	-0.266759
C75	C	1.447281	1.267645	0.066574
C76	C	0.827724	0.563755	-0.562989
C77	C	1.161058	0.897089	-0.229656
C78	C	1.494391	1.230422	0.103677
C79	C	0.780611	0.514284	-0.513682
C80	C	1.113945	0.847617	-0.180349
C81	C	1.447278	1.180950	0.152985
C82	C	0.686389	0.502040	-0.501476
C83	C	1.019722	0.835373	-0.168142
C84	C	1.353055	1.168706	0.165191
C85	C	0.827711	0.477063	-0.476574
C86	C	1.161045	0.810396	-0.143240
C87	C	1.494378	1.143730	0.190093
C88	C	0.780598	0.427591	-0.427267
C89	C	1.113932	0.760925	-0.093933
C90	C	1.447265	1.094258	0.239400
C91	C	0.686385	0.415349	-0.415063
C92	C	1.019718	0.748682	-0.081730
C93	C	1.353052	1.082016	0.251604
C94	C	0.639276	0.452572	-0.452166
C95	C	0.972609	0.785906	-0.118833
C96	C	1.305942	1.119239	0.214500
C97	C	0.921934	0.489307	-0.488780
C98	C	1.255267	0.822640	-0.155447
C99	C	1.588601	1.155974	0.177887
C100	C	0.921921	0.402615	-0.402365
C101	C	1.255255	0.735948	-0.069031
C102	C	1.588588	1.069281	0.264302
C103	C	0.827708	0.390368	-0.390163
C104	C	1.161041	0.723701	-0.056830
C105	C	1.494375	1.057035	0.276503
C106	C	1.539013	0.526219	-0.525577
C107	C	1.872347	0.859552	-0.192244
C108	C	2.205680	1.192886	0.141089
C109	C	1.639288	0.539265	-0.538582
C110	C	1.972622	0.872598	-0.205248
C111	C	2.305955	1.205931	0.128085
C112	C	1.303830	0.319079	-0.495124
C113	C	1.637164	0.652412	-0.161791
C114	C	1.970497	0.985746	0.171542
C115	C	1.303884	0.243854	-0.495152
C116	C	1.637217	0.577187	-0.161818
C117	C	1.970551	0.910521	0.171515
C118	C	1.361386	0.789530	-0.459272
C119	C	1.694719	1.122863	-0.125938
C120	C	2.028052	1.456196	0.207395
C121	C	1.361424	0.860223	-0.459292
C122	C	1.694757	1.193557	-0.125958
C123	C	2.028091	1.526890	0.207375
C124	C	1.303713	0.888070	-0.495064
C125	C	1.637046	1.221403	-0.161731
C126	C	1.970379	1.554737	0.171602
C127	C	1.245966	0.845220	-0.530825
C128	C	1.579299	1.178553	-0.197492
C129	C	1.912632	1.511887	0.135842
C130	C	1.245933	0.774529	-0.530809
C131	C	1.579266	1.107862	-0.197475
C132	C	1.912599	1.441195	0.135858
C133	C	1.246099	1.130311	-0.530892
C134	C	1.579432	1.463644	-0.197559
C135	C	1.912765	1.796977	0.135774
C136	C	1.246134	1.201007	-0.530904
C137	C	1.579468	1.534341	-0.197571
C138	C	1.912801	1.867674	0.135762
C139	C	1.361590	1.216005	-0.459375
C140	C	1.694924	1.549339	-0.126042
C141	C	2.028257	1.882672	0.207291
C142	C	1.361557	1.145314	-0.459359
C143	C	1.694890	1.478647	-0.126026
C144	C	2.028224	1.811980	0.207308
C145	C	1.303814	1.102470	-0.495122
C146	C	1.637147	1.435804	-0.161789
C147	C	1.970481	1.769137	0.171544
C148	C	1.303774	1.025817	-0.495102
C149	C	1.637108	1.359150	-0.161768
C150	C	1.970441	1.692484	0.171565
C151	C	1.303747	0.964722	-0.495082
C152	C	1.637080	1.298055	-0.161748
C153	C	1.970414	1.631388	0.171585
C154	C	1.361509	0.459772	-0.789689
C155	C	1.694842	0.793106	-0.456355
C156	C	2.028176	1.126439	-0.123022
C157	C	1.361518	0.459754	-0.860378
C158	C	1.694852	0.793087	-0.527045
C159	C	2.028185	1.126421	-0.193712
C160	C	1.303798	0.495521	-0.888223
C161	C	1.637132	0.828855	-0.554890
C162	C	1.970465	1.162188	-0.221556
C163	C	1.246059	0.531304	-0.845373
C164	C	1.579392	0.864637	-0.512040
C165	C	1.912725	1.197971	-0.178706
C166	C	1.246046	0.531318	-0.774684
C167	C	1.579379	0.864651	-0.441351
C168	C	1.912712	1.197985	-0.108017
C169	C	1.246110	0.531248	-1.130453
C170	C	1.579443	0.864581	-0.797120
C171	C	1.912776	1.197914	-0.463786
C172	C	1.246129	0.531232	-1.201148
C173	C	1.579463	0.864566	-0.867814
C174	C	1.912796	1.197899	-0.534481
C175	C	1.361582	0.459683	-1.216147
C176	C	1.694916	0.793017	-0.882814
C177	C	2.028249	1.126350	-0.549481
C178	C	1.361569	0.459697	-1.145458
C179	C	1.694902	0.793031	-0.812125
C180	C	2.028236	1.126364	-0.478792
C181	C	1.303827	0.495477	-1.102614
C182	C	1.637160	0.828810	-0.769281
C183	C	1.970493	1.162143	-0.435948
C184	C	1.303816	0.495495	-1.025964
C185	C	1.637150	0.828829	-0.692631
C186	C	1.970483	1.162162	-0.359298
C187	C	1.303813	0.495507	-0.964872
C188	C	1.637146	0.828841	-0.631539
C189	C	1.970479	1.162174	-0.298205
C190	C	1.303705	0.495599	-0.319204
C191	C	1.637039	0.828932	0.014129
C192	C	1.970372	1.162266	0.347462
C193	C	1.303858	0.495447	-0.243993
C194	C	1.637192	0.828780	0.089341
C195	C	1.970525	1.162113	0.422674
H196	H	0.960284	0.529587	-0.528927
H197	H	1.293618	0.862920	-0.195593
H198	H	1.626951	1.196254	0.137740
H199	H	0.562559	0.442602	-0.442236
H200	H	0.895893	0.775936	-0.108903
H201	H	1.229226	1.109269	0.224431
F202	F	1.423035	0.421601	-1.261751
F203	F	1.756368	0.754934	-0.928417
F204	F	2.089701	1.088267	-0.595084
F205	F	1.423006	0.421632	-1.115829
F206	F	1.756339	0.754965	-0.782495
F207	F	2.089672	1.088298	-0.449162
H208	H	1.199024	0.560447	-0.739799
H209	H	1.532358	0.893780	-0.406466
H210	H	1.865691	1.227114	-0.073133
F211	F	1.184692	0.569303	-1.230780
F212	F	1.518025	0.902636	-0.897446
F213	F	1.851359	1.235969	-0.564113
F214	F	1.184642	1.084722	-0.568954
F215	F	1.517976	1.418056	-0.235621
F216	F	1.851309	1.751389	0.097712
H217	H	0.818967	0.641260	-0.640237
H218	H	1.152301	0.974593	-0.306904
H219	H	1.485634	1.307927	0.026430
H220	H	1.408514	0.430649	-0.767024
H221	H	1.741848	0.763982	-0.433691
H222	H	2.075181	1.097315	-0.100357
H223	H	0.904437	0.573729	-0.572927
H224	H	1.237770	0.907063	-0.239593
H225	H	1.571104	1.240396	0.093740
H226	H	0.789335	0.350088	-0.350017
H227	H	1.122669	0.683421	-0.016683
H228	H	1.456002	1.016755	0.316650
F229	F	1.422997	0.421697	-0.905978
F230	F	1.756330	0.755031	-0.572645
F231	F	2.089664	1.088364	-0.239311
H232	H	0.648036	0.619038	-0.618091
H233	H	0.981370	0.952371	-0.284758
H234	H	1.314703	1.285704	0.048575
F235	F	0.636246	0.362702	-0.362581
F236	F	0.969580	0.696035	-0.029247
F237	F	1.302913	1.029368	0.304086
H238	H	0.960278	0.372305	-0.372151
H239	H	1.293611	0.705639	-0.038817
H240	H	1.626944	1.038972	0.294516
H241	H	1.408377	0.766862	-0.430138
H242	H	1.741710	1.100195	-0.096805
H243	H	2.075044	1.433529	0.236529
H244	H	1.199105	0.560393	-1.095579
H245	H	1.532439	0.893726	-0.762246
H246	H	1.865772	1.227060	-0.428912
F247	F	1.422886	0.905819	-0.421237
F248	F	1.756220	1.239153	-0.087904
F249	F	2.089553	1.572486	0.245430
F250	F	1.422980	1.115681	-0.421284
F251	F	1.756314	1.449015	-0.087951
F252	F	2.089647	1.782348	0.245382
H253	H	1.199140	1.223677	-0.560040
H254	H	1.532473	1.557011	-0.226707
H255	H	1.865807	1.890344	0.106627
F256	F	1.423050	1.261608	-0.421316
F257	F	1.756384	1.594942	-0.087983
F258	F	2.089717	1.928275	0.245351
F259	F	1.184550	0.874859	-0.568902
F260	F	1.517883	1.208193	-0.235568
F261	F	1.851216	1.541526	0.097765
H262	H	1.198912	0.739645	-0.559926
H263	H	1.532246	1.072978	-0.226593
H264	H	1.865579	1.406311	0.106740
H265	H	1.199059	0.560424	-0.868049
H266	H	1.532392	0.893757	-0.534716
H267	H	1.865726	1.227090	-0.201382
