data_functionalizedCrystal
_audit_creation_method	'MofGen! by Chris Wilmer'
_symmetry_space_group_name_H-M	'P1'
_symmetry_Int_Tables_number	1
_symmetry_cell_setting	triclinic
loop_
_symmetry_equiv_pos_as_xyz
  x,y,z
_cell_length_a	10.654541
_cell_length_b	18.266242
_cell_length_c	10.654545
_cell_angle_alpha	90.003955
_cell_angle_beta	84.484678
_cell_angle_gamma	90.007675
loop_
_atom_site_label
_atom_site_type_symbol
_atom_site_fract_x
_atom_site_fract_y
_atom_site_fract_z
O1	O	1.667853	0.060854	0.176386
O2	O	1.302374	0.060860	0.193196
O3	O	1.493515	0.060857	0.002052
O4	O	1.476711	0.060858	0.367530
O5	O	1.493483	-0.060905	0.002042
O6	O	1.302341	-0.060902	0.193185
O7	O	1.667820	-0.060908	0.176376
Zn8	Zn	1.485075	-0.080237	0.184779
Zn9	Zn	1.485118	0.080190	0.184793
O10	O	1.476678	-0.060904	0.367520
C11	C	1.255559	-0.000020	0.191957
C12	C	1.116116	-0.000017	0.188266
N13	N	1.485055	-0.189724	0.184769
C14	C	1.088146	-0.000007	0.416831
C15	C	1.008652	0.000001	0.529374
C16	C	0.877634	0.000001	0.525898
C17	C	0.826108	-0.000008	0.409867
C18	C	0.905602	-0.000016	0.297324
C19	C	1.036622	-0.000015	0.300812
C20	C	0.933572	-0.000031	0.068763
C21	C	1.064590	-0.000027	0.072235
C22	C	0.882046	-0.000041	-0.047269
C23	C	0.961540	-0.000044	-0.159814
C24	C	1.092565	-0.000043	-0.156334
C25	C	1.144084	-0.000035	-0.040308
C26	C	1.569721	-0.228034	0.100173
C27	C	1.569729	-0.304679	0.100167
C28	C	1.485083	-0.343011	0.184780
C29	C	1.400401	-0.304691	0.269382
C30	C	1.400387	-0.228048	0.269377
N31	N	1.470066	-0.463343	0.295770
N32	N	1.470086	-0.536151	0.295771
C33	C	1.485118	-0.573933	0.184798
N34	N	1.500153	-0.536157	0.073821
N35	N	1.500139	-0.463342	0.073821
C36	C	1.485088	-0.426118	0.184794
C37	C	1.569798	-0.695351	0.100188
C38	C	1.569797	-0.771997	0.100181
C39	C	1.400475	-0.772007	0.269407
C40	C	1.400470	-0.695363	0.269404
C41	C	1.485138	-0.657039	0.184796
C42	C	1.714634	-0.000026	0.177615
C43	C	1.854078	-0.000023	0.181306
C44	C	1.492265	-0.000023	-0.044751
C45	C	1.488572	-0.000019	-0.184195
N46	N	1.485149	0.189677	0.184793
C47	C	1.488623	0.132730	-0.184192
C48	C	1.486919	0.199104	-0.249700
C49	C	1.483449	0.199105	-0.380719
C50	C	1.481681	0.132725	-0.446232
C51	C	1.483386	0.066351	-0.380723
C52	C	1.486859	0.066357	-0.249702
C53	C	1.483326	-0.066396	-0.380725
C54	C	1.486804	-0.066399	-0.249707
C55	C	1.481558	-0.132777	-0.446238
C56	C	1.483271	-0.199152	-0.380730
C57	C	1.486742	-0.199150	-0.249704
C58	C	1.488509	-0.132773	-0.184199
C59	C	1.477929	-0.000023	0.414323
C60	C	1.481621	-0.000022	0.553766
H61	H	1.194826	0.000008	0.419672
H62	H	0.812909	0.000003	0.617541
Cl63	Cl	1.492879	-0.132765	-0.019489
Cl64	Cl	1.481296	0.282547	-0.463075
Cl65	Cl	1.073433	0.000013	0.675234
Cl66	Cl	1.294034	-0.647196	0.375765
Cl67	Cl	1.294054	-0.820190	0.375768
Cl68	Cl	0.661398	-0.000020	0.405502
Cl69	Cl	1.192490	-0.000059	-0.297826
Cl70	Cl	1.493009	0.132734	-0.019484
Cl71	Cl	1.676151	-0.179857	-0.006195
H72	H	1.250764	-0.000026	-0.037463
H73	H	1.478726	-0.132771	-0.552919
H74	H	1.481823	-0.253194	-0.434080
H75	H	1.331440	-0.196855	0.338267
H76	H	1.638736	-0.664146	0.031292
H77	H	1.638738	-0.803190	0.031286
H78	H	1.478841	0.132731	-0.552912
H79	H	0.775363	-0.000044	-0.050090
Cl80	Cl	0.896758	-0.000061	-0.305665
H81	H	1.638676	-0.335877	0.031276
H82	H	1.331479	-0.335904	0.338273
H83	H	1.488357	0.253150	-0.196345
H84	H	1.488111	-0.253200	-0.196372
