data_functionalizedCrystal
_audit_creation_method	'MofGen! by Chris Wilmer'
_symmetry_space_group_name_H-M	'P1'
_symmetry_Int_Tables_number	1
_symmetry_cell_setting	triclinic
loop_
_symmetry_equiv_pos_as_xyz
  x,y,z
_cell_length_a	16.625546
_cell_length_b	16.625547
_cell_length_c	16.625539
_cell_angle_alpha	90.027058
_cell_angle_beta	89.969603
_cell_angle_gamma	89.978346
loop_
_atom_site_label
_atom_site_type_symbol
_atom_site_fract_x
_atom_site_fract_y
_atom_site_fract_z
Zn1	Zn	-0.321018	-1.232681	-0.456037
Zn2	Zn	-0.455861	-1.232584	-0.321200
Zn3	Zn	-0.321044	-1.097842	-0.321202
Zn4	Zn	-0.455810	-1.097813	-0.455974
O5	O	-0.388433	-1.165230	-0.388603
O6	O	-0.338915	-1.345500	-0.438176
O7	O	-0.438009	-1.214682	-0.208367
O8	O	-0.208208	-1.115782	-0.339116
O9	O	-0.437984	-1.345429	-0.339111
O10	O	-0.208189	-1.214847	-0.438179
O11	O	-0.338960	-1.115688	-0.208370
O12	O	-0.338911	-0.985006	-0.339055
O13	O	-0.437897	-1.115731	-0.568815
O14	O	-0.437923	-0.984984	-0.438071
O15	O	-0.338866	-1.214818	-0.568861
O16	O	-0.568686	-1.214653	-0.339050
O17	O	-0.568649	-1.115638	-0.438068
C18	C	-0.388415	-0.955739	-0.388557
C19	C	-0.388426	-0.866118	-0.388556
C20	C	-0.388427	-0.793335	-0.388564
C21	C	-0.388430	-0.702027	-0.388580
C22	C	-0.388436	-0.629251	-0.388598
C23	C	-0.388441	-0.537936	-0.388614
C24	C	-0.597924	-1.165154	-0.388570
C25	C	-0.687545	-1.165195	-0.388582
C26	C	-1.015721	-1.165335	-0.388666
C27	C	-0.924412	-1.165294	-0.388645
C28	C	-0.851636	-1.165264	-0.388624
C29	C	-0.760321	-1.165224	-0.388603
C30	C	-0.178124	-1.165328	-0.388655
C31	C	-0.088503	-1.165370	-0.388677
C32	C	-0.388373	-1.165282	-0.598912
C33	C	-0.388347	-1.165305	-0.688534
C34	C	-0.388449	-0.375539	-0.388640
C35	C	-0.388447	-0.465160	-0.388631
C36	C	-0.388257	-1.165342	-1.016709
C37	C	-0.388285	-1.165329	-0.925401
C38	C	-0.388303	-1.165324	-0.852624
C39	C	-0.388329	-1.165310	-0.761310
C40	C	-0.388435	-1.165224	-0.179113
C41	C	-0.388233	-1.165358	-0.089492
