data_functionalizedCrystal
_audit_creation_method	'MofGen! by Chris Wilmer'
_symmetry_space_group_name_H-M	'P1'
_symmetry_Int_Tables_number	1
_symmetry_cell_setting	triclinic
loop_
_symmetry_equiv_pos_as_xyz
  x,y,z
_cell_length_a	11.792241
_cell_length_b	14.853558
_cell_length_c	13.930277
_cell_angle_alpha	90.006822
_cell_angle_beta	90.002535
_cell_angle_gamma	83.912275
loop_
_atom_site_label
_atom_site_type_symbol
_atom_site_fract_x
_atom_site_fract_y
_atom_site_fract_z
O1	O	0.148127	1.196951	0.079819
O2	O	0.165790	0.934559	0.079824
O3	O	-0.008251	1.072122	0.079815
O4	O	0.322169	1.059387	0.079829
O5	O	-0.008248	1.072102	-0.079847
O6	O	0.165794	0.934539	-0.079838
O7	O	0.148131	1.196931	-0.079842
Zn8	Zn	0.156963	1.065731	-0.105190
Zn9	Zn	0.156958	1.065758	0.105172
O10	O	0.322172	1.059367	-0.079833
C11	C	0.164994	0.900957	-0.000006
C12	C	0.162601	0.800863	-0.000005
C13	C	0.161477	0.753850	0.087030
C14	C	0.161467	0.753826	-0.087039
C15	C	0.159213	0.659784	-0.087041
C16	C	0.158089	0.612770	-0.000005
C17	C	0.159219	0.659799	0.087032
C18	C	0.158072	0.612749	-0.174076
C19	C	0.155816	0.518701	-0.174081
C20	C	0.154700	0.471685	-0.087045
C21	C	0.155832	0.518719	-0.000004
C22	C	0.154708	0.471706	0.087031
C23	C	0.155847	0.518738	0.174072
C24	C	0.158104	0.612783	0.174068
C25	C	0.152444	0.377640	-0.087040
C26	C	0.152450	0.377655	0.087032
C27	C	-0.050535	1.071312	-0.000016
C28	C	-0.176534	1.068918	-0.000015
C29	C	-0.407219	1.064515	0.000001
C30	C	-0.278849	1.066961	-0.000007
C31	C	0.364457	1.060177	-0.000001
C32	C	0.490455	1.062572	0.000005
C33	C	0.148927	1.230533	-0.000010
C34	C	0.151320	1.330626	-0.000005
N35	N	0.156965	1.065720	-0.248756
C36	C	0.088004	1.010711	-0.299021
C37	C	0.225921	1.120740	-0.298996
C38	C	0.225920	1.120751	-0.399492
C39	C	0.156959	1.065743	-0.449757
C40	C	0.087998	1.010722	-0.399526
C41	C	0.294871	1.175777	-0.449730
C42	C	0.294872	1.175791	-0.550232
C43	C	0.225916	1.120777	-0.600498
C44	C	0.156953	1.065754	-0.550262
C45	C	0.087992	1.010745	-0.600527
C46	C	0.019034	0.955717	-0.550292
C47	C	0.019042	0.955708	-0.449793
C48	C	0.225909	1.120786	-0.700997
C49	C	0.087986	1.010757	-0.701032
N50	N	0.156947	1.065777	0.248738
H51	H	0.151527	0.339349	-0.157908
C52	C	0.154969	0.466930	-0.269817
H53	H	0.153581	0.404175	-0.257354
H54	H	0.221592	0.475892	-0.305363
H55	H	0.089312	0.488763	-0.305792
H56	H	0.351008	1.220569	-0.408796
C57	C	0.159309	0.664463	-0.269805
H58	H	0.160832	0.727207	-0.257338
H59	H	0.092803	0.655608	-0.305568
H60	H	0.225079	0.642488	-0.305565
C61	C	0.151217	0.325943	0.182770
H62	H	0.149715	0.263196	0.170308
H63	H	0.085460	0.347917	0.218536
H64	H	0.217735	0.334801	0.218524
H65	H	0.282060	1.165531	-0.258064
H66	H	-0.037119	0.910932	-0.591231
C67	C	0.159339	0.664521	0.269802
H68	H	0.160828	0.727265	0.257334
H69	H	0.225101	0.642565	0.305570
H70	H	0.092826	0.655665	0.305556
H71	H	0.351022	1.220598	-0.591124
C72	C	0.162705	0.805538	-0.182769
H73	H	0.164217	0.868283	-0.170304
H74	H	0.096203	0.796676	-0.218535
H75	H	0.228479	0.783567	-0.218526
C76	C	0.162726	0.805579	0.182769
H77	H	0.164225	0.868324	0.170308
H78	H	0.228488	0.783612	0.218531
H79	H	0.096213	0.796727	0.218526
C80	C	0.012133	0.950241	-0.756316
H81	H	-0.028934	0.917473	-0.712003
H82	H	0.058553	0.908987	-0.795533
H83	H	-0.040034	0.986934	-0.795509
C84	C	-0.056826	0.895203	-0.394534
H85	H	-0.046959	0.903088	-0.327482
H86	H	-0.035893	0.833621	-0.411007
H87	H	-0.134447	0.911594	-0.411009
C88	C	0.301746	1.181309	-0.756256
H89	H	0.291863	1.173442	-0.823309
H90	H	0.379369	1.164946	-0.739788
H91	H	0.280777	1.242890	-0.739772
C92	C	0.012153	0.950187	-0.243769
H93	H	0.022025	0.958059	-0.176716
H94	H	0.033102	0.888611	-0.260259
H95	H	-0.065473	0.966568	-0.260236
H96	H	0.154926	0.480448	0.244936
