data_functionalizedCrystal
_audit_creation_method	'MofGen! by Chris Wilmer'
_symmetry_space_group_name_H-M	'P1'
_symmetry_Int_Tables_number	1
_symmetry_cell_setting	triclinic
loop_
_symmetry_equiv_pos_as_xyz
  x,y,z
_cell_length_a	14.044220
_cell_length_b	14.044191
_cell_length_c	12.503572
_cell_angle_alpha	86.162165
_cell_angle_beta	86.154684
_cell_angle_gamma	86.809673
loop_
_atom_site_label
_atom_site_type_symbol
_atom_site_fract_x
_atom_site_fract_y
_atom_site_fract_z
O1	O	-0.225146	1.282208	-0.089264
O2	O	0.108188	1.615541	0.244070
O3	O	0.441521	1.948874	0.577403
O4	O	-0.216832	1.005536	-0.089277
O5	O	0.116501	1.338869	0.244056
O6	O	0.449834	1.672203	0.577389
O7	O	-0.082653	1.139719	-0.089266
O8	O	0.250680	1.473052	0.244067
O9	O	0.584013	1.806385	0.577401
O10	O	-0.359324	1.148025	-0.089275
O11	O	-0.025991	1.481358	0.244058
O12	O	0.307342	1.814692	0.577392
O13	O	-0.092763	1.129629	0.089375
O14	O	0.240571	1.462962	0.422709
O15	O	0.573904	1.796296	0.756042
O16	O	-0.226941	0.995446	0.089364
O17	O	0.106392	1.328779	0.422697
O18	O	0.439725	1.662113	0.756030
O19	O	-0.235255	1.272118	0.089378
O20	O	0.098078	1.605451	0.422711
O21	O	0.431412	1.938785	0.756044
Cu22	Cu	-0.232021	1.132861	0.105682
Cu23	Cu	0.101312	1.466194	0.439015
Cu24	Cu	0.434645	1.799527	0.772349
Cu25	Cu	-0.220066	1.144793	-0.105582
Cu26	Cu	0.113267	1.478126	0.227752
Cu27	Cu	0.446601	1.811460	0.561085
O28	O	-0.369434	1.137935	0.089366
O29	O	-0.036100	1.471268	0.422699
O30	O	0.297233	1.804602	0.756033
C31	C	-0.218250	0.964869	0.000041
C32	C	0.115083	1.298203	0.333375
C33	C	0.448416	1.631536	0.666708
C34	C	-0.207403	0.858726	0.000036
C35	C	0.125931	1.192060	0.333370
C36	C	0.459264	1.525393	0.666703
C37	C	-0.264504	0.613267	0.000045
C38	C	0.068830	0.946601	0.333378
C39	C	0.402163	1.279934	0.666712
C40	C	-0.187587	0.664393	0.000046
C41	C	0.145746	0.997726	0.333379
C42	C	0.479079	1.331060	0.666712
C43	C	-0.198615	0.772530	0.000040
C44	C	0.134718	1.105863	0.333374
C45	C	0.468051	1.439197	0.666707
C46	C	-0.253477	0.505120	0.000050
C47	C	0.079856	0.838454	0.333384
C48	C	0.413190	1.171787	0.666717
C49	C	-0.400001	1.146616	0.000044
C50	C	-0.066668	1.479949	0.333378
C51	C	0.266666	1.813282	0.666711
C52	C	-0.506144	1.157461	0.000041
C53	C	-0.172810	1.490794	0.333374
C54	C	0.160523	1.824127	0.666708
C55	C	-0.700482	1.177287	0.000047
C56	C	-0.367149	1.510620	0.333380
C57	C	-0.033816	1.843953	0.666713
C58	C	-0.751610	1.100372	0.000044
C59	C	-0.418277	1.433705	0.333377
C60	C	-0.084943	1.767039	0.666711
C61	C	-0.859747	1.111404	0.000047
C62	C	-0.526413	1.444737	0.333380
C63	C	-0.193080	1.778070	0.666714
C64	C	-0.592336	1.166257	0.000044
C65	C	-0.259003	1.499590	0.333377
C66	C	0.074331	1.832923	0.666710
C67	C	-0.052086	1.131038	0.000053
C68	C	0.281247	1.464372	0.333387
C69	C	0.614581	1.797705	0.666720
C70	C	0.054057	1.120194	0.000050
C71	C	0.387391	1.453527	0.333383
C72	C	0.720724	1.786860	0.666716
C73	C	-0.233837	1.312785	0.000056
C74	C	0.099497	1.646118	0.333390
C75	C	0.432830	1.979451	0.666723
C76	C	-0.244684	1.418928	0.000055
C77	C	0.088649	1.752261	0.333388
C78	C	0.421983	2.085595	0.666721
N79	N	-0.240430	1.124475	0.254274
N80	N	0.092903	1.457808	0.587607
N81	N	0.426237	1.791142	0.920940
N82	N	-0.211650	1.153186	-0.254173
N83	N	0.121683	1.486519	0.079160
N84	N	0.455017	1.819852	0.412493
C85	C	-0.252808	1.112140	0.473388
C86	C	0.080526	1.445473	0.806721
C87	C	0.413859	1.778807	1.140054
C88	C	-0.199275	1.165518	0.526719
C89	C	0.134058	1.498851	0.860053
C90	C	0.467391	1.832184	1.193386
C91	C	-0.206162	1.158654	0.648642
C92	C	0.127171	1.491988	0.981975
C93	C	0.460504	1.825321	1.315309
C94	C	-0.245922	1.119002	0.351454
C95	C	0.087412	1.452336	0.684787
C96	C	0.420745	1.785669	1.018121
H97	H	-0.338630	0.650709	0.000039
H98	H	-0.005296	0.984042	0.333373
H99	H	0.328037	1.317376	0.666706
H100	H	-0.737922	1.251414	0.000055
H101	H	-0.404588	1.584747	0.333388
H102	H	-0.071255	1.918081	0.666721
H103	H	-0.148273	1.216371	0.480811
H104	H	0.185060	1.549704	0.814144
H105	H	0.518394	1.883038	1.147477
C106	C	-0.315250	1.049913	0.645889
C107	C	0.018083	1.383246	0.979223
C108	C	0.351417	1.716579	1.312556
C109	C	-0.321666	1.043503	0.535354
C110	C	0.011667	1.376836	0.868687
C111	C	0.345000	1.710169	1.202020
H112	H	-0.357767	1.007546	0.684151
H113	H	-0.024434	1.340879	1.017484
H114	H	0.308900	1.674212	1.350818
H115	H	-0.251701	1.033023	0.664250
H116	H	0.081633	1.366357	0.997584
H117	H	0.414966	1.699690	1.330917
H118	H	-0.331948	1.113516	0.664231
H119	H	0.001386	1.446850	0.997565
H120	H	0.334719	1.780183	1.330898
H121	H	-0.304962	0.979900	0.517010
H122	H	0.028372	1.313234	0.850343
H123	H	0.361705	1.646567	1.183677
H124	H	-0.385230	1.060386	0.516985
H125	H	-0.051896	1.393720	0.850318
H126	H	0.281437	1.727053	1.183652
H127	H	-0.113451	0.626954	-0.000027
H128	H	0.219883	0.960287	0.333306
H129	H	0.553216	1.293620	0.666639
H130	H	-0.714169	1.026238	0.000041
H131	H	-0.380836	1.359572	0.333374
H132	H	-0.047502	1.692905	0.666708
