data_functionalizedCrystal
_audit_creation_method	'MofGen! by Chris Wilmer'
_symmetry_space_group_name_H-M	'P1'
_symmetry_Int_Tables_number	1
_symmetry_cell_setting	triclinic
loop_
_symmetry_equiv_pos_as_xyz
  x,y,z
_cell_length_a	19.188925
_cell_length_b	18.266242
_cell_length_c	10.654559
_cell_angle_alpha	89.997519
_cell_angle_beta	96.184383
_cell_angle_gamma	90.009890
loop_
_atom_site_label
_atom_site_type_symbol
_atom_site_fract_x
_atom_site_fract_y
_atom_site_fract_z
O1	O	0.927180	0.060893	-0.156746
O2	O	1.427180	0.560893	0.343254
O3	O	0.724006	0.060890	-0.177859
O4	O	1.224006	0.560890	0.322141
O5	O	0.830261	0.060891	0.015535
O6	O	1.330261	0.560891	0.515535
O7	O	0.820925	0.060891	-0.350140
O8	O	1.320925	0.560891	0.149860
O9	O	0.830243	-0.060871	0.015540
O10	O	1.330243	0.439129	0.515540
O11	O	0.723988	-0.060872	-0.177853
O12	O	1.223988	0.439128	0.322147
O13	O	0.927161	-0.060869	-0.156741
O14	O	1.427161	0.439131	0.343259
Zn15	Zn	0.825572	-0.080203	-0.167296
Zn16	Zn	1.325572	0.419797	0.332704
Zn17	Zn	0.825596	0.080224	-0.167303
Zn18	Zn	1.325596	0.580224	0.332697
O19	O	0.820907	-0.060871	-0.350134
O20	O	1.320907	0.439129	0.149866
C21	C	0.697982	0.000009	-0.177173
C22	C	1.197982	0.500009	0.322827
C23	C	0.620464	0.000008	-0.175124
C24	C	1.120464	0.500008	0.324876
N25	N	0.825560	-0.189690	-0.167290
N26	N	1.325560	0.310310	0.332710
C27	C	0.059348	0.000010	-0.274882
C28	C	0.559348	0.500010	0.225118
C29	C	0.132183	0.000014	-0.276818
C30	C	0.632183	0.500014	0.223182
C31	C	0.176374	0.000012	-0.163341
C32	C	0.676374	0.500012	0.336659
C33	C	0.147723	0.000026	-0.047919
C34	C	0.647723	0.500026	0.452081
C35	C	0.074888	0.000029	-0.045986
C36	C	0.574888	0.500029	0.454014
N37	N	0.296506	-0.041436	-0.081186
N38	N	0.796506	0.458564	0.418814
N39	N	0.365695	-0.041441	-0.083030
N40	N	0.865695	0.458559	0.416970
C41	C	0.395821	0.000004	-0.169157
C42	C	0.895821	0.500004	0.330843
N43	N	0.354142	0.041444	-0.253391
N44	N	0.854142	0.541444	0.246609
N45	N	0.284946	0.041446	-0.251550
N46	N	0.784946	0.541446	0.248450
C47	C	0.255352	0.000009	-0.165424
C48	C	0.755352	0.500009	0.334576
C49	C	0.503441	-0.000000	-0.286671
C50	C	1.003441	0.500000	0.213329
C51	C	0.576278	0.000008	-0.288603
C52	C	1.076278	0.500008	0.211397
C53	C	0.591816	0.000013	-0.059700
C54	C	1.091816	0.500013	0.440300
C55	C	0.518980	0.000012	-0.057772
C56	C	1.018980	0.500012	0.442228
C57	C	0.474796	0.000002	-0.171261
C58	C	0.974796	0.500002	0.328739
C59	C	0.868268	-0.227992	-0.243271
C60	C	1.368268	0.272008	0.256729
C61	C	0.868280	-0.304637	-0.243268
C62	C	1.368280	0.195363	0.256732
C63	C	0.825571	-0.342977	-0.167298
C64	C	1.325571	0.157023	0.332702
C65	C	0.782860	-0.304665	-0.091302
C66	C	1.282860	0.195335	0.408698
C67	C	0.782855	-0.228022	-0.091298
C68	C	1.282855	0.271978	0.408702
N69	N	0.764403	-0.463330	-0.164207
N70	N	1.264403	0.036670	0.335793
N71	N	0.764409	-0.536138	-0.164217
N72	N	1.264409	-0.036138	0.335783
C73	C	0.825585	-0.573899	-0.167303
C74	C	1.325585	-0.073899	0.332697
N75	N	0.886754	-0.536102	-0.170401
N76	N	1.386754	-0.036102	0.329599
N77	N	0.886746	-0.463287	-0.170397
N78	N	1.386746	0.036713	0.329603
C79	C	0.825572	-0.426084	-0.167293
C80	C	1.325572	0.073916	0.332707
C81	C	0.868308	-0.695309	-0.243284
C82	C	1.368308	-0.195309	0.256716
C83	C	0.868321	-0.771955	-0.243271
C84	C	1.368321	-0.271955	0.256729
C85	C	0.782896	-0.771982	-0.091312
C86	C	1.282896	-0.271982	0.408688
C87	C	0.782889	-0.695337	-0.091317
C88	C	1.282889	-0.195337	0.408683
C89	C	0.825594	-0.657005	-0.167310
C90	C	1.325594	-0.157005	0.332690
C91	C	0.953186	0.000014	-0.157426
C92	C	1.453186	0.500014	0.342574
C93	C	1.030704	0.000019	-0.159475
C94	C	1.530704	0.500019	0.340525
C95	C	0.829565	0.000012	0.062321
C96	C	1.329565	0.500012	0.562321
C97	C	0.827510	0.000017	0.201720
C98	C	1.327510	0.500017	0.701720
N99	N	0.825613	0.189711	-0.167299
N100	N	1.325613	0.689711	0.332701
C101	C	0.821603	0.000010	-0.396920
C102	C	1.321603	0.500010	0.103080
C103	C	0.823658	0.000011	-0.536319
C104	C	1.323658	0.500011	-0.036319
C105	C	0.763018	0.000018	0.251893
C106	C	1.263018	0.500018	0.751893
C107	C	0.761091	0.000012	0.382874
C108	C	1.261091	0.500012	0.882874
C109	C	0.888155	0.000007	0.413500
C110	C	1.388155	0.500007	0.913500
C111	C	0.890081	0.000008	0.282521
C112	C	1.390081	0.500008	0.782521
C113	C	0.700447	0.000026	0.171093
C114	C	1.200447	0.500026	0.671093
C115	C	0.635949	0.000028	0.221264
C116	C	1.135949	0.500028	0.721264
C117	C	0.634022	0.000023	0.352246
C118	C	1.134022	0.500023	0.852246
C119	C	0.696593	0.000015	0.433055
C120	C	1.196593	0.500015	0.933055
H121	H	0.023377	0.000005	-0.367294
H122	H	0.523377	0.500005	0.132706
H123	H	0.903104	-0.803139	-0.305140
H124	H	1.403104	-0.303139	0.194860
H125	H	0.155510	-0.000001	-0.370799
H126	H	0.655510	0.499999	0.129201
H127	H	0.183707	0.000027	0.044475
H128	H	0.683707	0.500027	0.544475
H129	H	0.467464	-0.000007	-0.379081
H130	H	0.967464	0.499993	0.120919
H131	H	0.599597	0.000007	-0.382584
H132	H	1.099597	0.500007	0.117416
H133	H	0.627795	0.000018	0.032695
H134	H	1.127795	0.500018	0.532695
C135	C	0.915263	-0.346778	-0.326857
C136	C	1.415263	0.153222	0.173143
N137	N	0.950651	-0.378516	-0.389817
N138	N	1.450651	0.121484	0.110183
C139	C	0.702560	0.000028	0.027009
C140	C	1.202560	0.500028	0.527009
N141	N	0.704153	0.000029	-0.081514
N142	N	1.204153	0.500029	0.418486
C143	C	0.487471	0.000007	0.069186
C144	C	0.987471	0.500007	0.569186
N145	N	0.463740	0.000001	0.164817
N146	N	0.963740	0.500001	0.664817
C147	C	0.735916	-0.814151	-0.007742
C148	C	1.235916	-0.314151	0.492258
N149	N	0.700531	-0.845917	0.055208
N150	N	1.200531	-0.345917	0.555208
H151	H	0.903045	-0.196787	-0.305146
H152	H	1.403045	0.303213	0.194854
C153	C	0.735878	-0.346841	-0.007738
C154	C	1.235878	0.153159	0.492262
N155	N	0.700491	-0.378607	0.055206
N156	N	1.200491	0.121393	0.555206
C157	C	0.735867	-0.185888	-0.007717
C158	C	1.235867	0.314112	0.492283
N159	N	0.700473	-0.154152	0.055234
N160	N	1.200473	0.345848	0.555234
H161	H	0.903082	-0.664097	-0.305161
H162	H	1.403082	-0.164097	0.194839
C163	C	0.735899	-0.653203	-0.007745
C164	C	1.235899	-0.153203	0.492255
N165	N	0.700504	-0.621468	0.055207
N166	N	1.200504	-0.121468	0.555207
C167	C	0.563075	0.000021	0.407431
C168	C	1.063075	0.500021	0.907431
N169	N	0.509634	0.000024	0.448993
N170	N	1.009634	0.500024	0.948993
C171	C	0.694470	0.000007	0.577138
C172	C	1.194470	0.500007	1.077138
N173	N	0.692870	0.000004	0.685660
N174	N	1.192870	0.500004	1.185660
C175	C	0.961026	0.000010	0.227327
C176	C	1.461026	0.500010	0.727327
N177	N	1.014464	0.000011	0.185756
N178	N	1.514464	0.500011	0.685756
H179	H	0.051568	0.000037	0.047995
H180	H	0.551568	0.500037	0.547995
H181	H	0.585006	0.000028	0.155461
H182	H	1.085006	0.500028	0.655461
H183	H	0.939097	0.000003	0.479305
H184	H	1.439097	0.500003	0.979305
