data_functionalizedCrystal
_audit_creation_method	'MofGen! by Chris Wilmer'
_symmetry_space_group_name_H-M	'P1'
_symmetry_Int_Tables_number	1
_symmetry_cell_setting	triclinic
loop_
_symmetry_equiv_pos_as_xyz
  x,y,z
_cell_length_a	14.044220
_cell_length_b	16.109301
_cell_length_c	15.186229
_cell_angle_alpha	90.005167
_cell_angle_beta	89.998463
_cell_angle_gamma	88.325179
loop_
_atom_site_label
_atom_site_type_symbol
_atom_site_fract_x
_atom_site_fract_y
_atom_site_fract_z
O1	O	-1.257643	-0.200436	-0.073140
O2	O	-0.757643	0.299564	0.426860
O3	O	-0.981676	-0.193203	-0.073163
O4	O	-0.481676	0.306797	0.426837
O5	O	-1.127241	-0.076352	-0.073142
O6	O	-0.627241	0.423648	0.426858
O7	O	-1.112079	-0.317286	-0.073161
O8	O	-0.612079	0.182714	0.426839
O9	O	-1.127231	-0.076350	0.073315
O10	O	-0.627231	0.423650	0.573315
O11	O	-0.981667	-0.193200	0.073295
O12	O	-0.481667	0.306800	0.573295
O13	O	-1.257634	-0.200433	0.073317
O14	O	-0.757634	0.299567	0.573317
Zn15	Zn	-1.119649	-0.196816	0.096559
Zn16	Zn	-0.619649	0.303184	0.596559
Zn17	Zn	-1.119661	-0.196820	-0.096405
Zn18	Zn	-0.619661	0.303180	0.403595
O19	O	-1.112069	-0.317284	0.073296
O20	O	-0.612069	0.182716	0.573296
C21	C	-1.126622	-0.045330	0.000087
C22	C	-0.626622	0.454670	0.500087
C23	C	-1.124781	0.047102	0.000088
C24	C	-0.624781	0.547102	0.500088
C25	C	-0.946358	-0.190036	0.000063
C26	C	-0.446358	0.309964	0.500063
C27	C	-0.841135	-0.180592	0.000055
C28	C	-0.341135	0.319408	0.500055
C29	C	-1.292952	-0.203600	0.000089
C30	C	-0.792952	0.296400	0.500089
C31	C	-1.398175	-0.213044	0.000091
C32	C	-0.898175	0.286956	0.500091
C33	C	-0.648479	-0.163326	0.000074
C34	C	-0.148479	0.336674	0.500074
C35	C	-0.590825	-0.230306	0.000072
C36	C	-0.090825	0.269694	0.500072
C37	C	-0.483625	-0.220699	0.000083
C38	C	0.016375	0.279301	0.500083
C39	C	-0.755690	-0.172932	0.000064
C40	C	-0.255690	0.327068	0.500064
C41	C	-1.112688	-0.348306	0.000065
C42	C	-0.612688	0.151694	0.500065
C43	C	-1.114529	-0.440738	0.000058
C44	C	-0.614529	0.059262	0.500058
N45	N	-1.119647	-0.196814	0.228252
N46	N	-0.619647	0.303186	0.728252
C47	C	-1.206874	0.263266	0.000081
C48	C	-0.706874	0.763266	0.500081
C49	C	-1.205137	0.350116	0.000073
C50	C	-0.705137	0.850116	0.500073
C51	C	-1.032429	0.343091	0.000063
C52	C	-0.532429	0.843091	0.500063
C53	C	-1.034168	0.256243	0.000064
C54	C	-0.534168	0.756243	0.500064
C55	C	-1.121393	0.216333	0.000078
C56	C	-0.621393	0.716333	0.500078
C57	C	-1.117917	0.390031	0.000069
C58	C	-0.617917	0.890031	0.500069
C59	C	-1.116032	0.484197	0.000061
C60	C	-0.616032	0.984197	0.500061
C61	C	-1.123278	0.122161	0.000084
C62	C	-0.623278	0.622161	0.500084
N63	N	-1.119671	-0.196816	-0.228097
N64	N	-0.619671	0.303184	0.271903
C65	C	-1.184125	-0.145093	0.453984
C66	C	-0.684125	0.354907	0.953984
C67	C	-1.184128	-0.145092	0.546173
C68	C	-0.684128	0.354908	1.046173
C69	C	-1.055186	-0.248539	0.546164
C70	C	-0.555186	0.251461	1.046164
C71	C	-1.055179	-0.248536	0.453976
C72	C	-0.555179	0.251464	0.953976
C73	C	-1.119654	-0.196814	0.407888
C74	C	-0.619654	0.303186	0.907888
C75	C	-1.119664	-0.196816	0.592266
C76	C	-0.619664	0.303184	1.092266
C77	C	-1.119666	-0.196814	0.692222
C78	C	-0.619666	0.303186	1.192222
C79	C	-1.119650	-0.196814	0.307926
C80	C	-0.619650	0.303186	0.807926
H81	H	-0.621976	-0.294863	0.000063
H82	H	-0.121976	0.205137	0.500063
C83	C	-0.550255	-0.066594	-0.075212
C84	C	-0.050255	0.433406	0.424788
C85	C	-0.606435	-0.076179	0.000075
C86	C	-0.106435	0.423821	0.500075
H87	H	-0.524295	-0.012792	-0.075215
H88	H	-0.024295	0.487208	0.424785
H89	H	-0.500002	-0.107355	-0.075200
H90	H	-0.000002	0.392645	0.424800
H91	H	-0.588373	-0.073122	-0.126280
H92	H	-0.088373	0.426878	0.373720
H93	H	-0.568315	-0.069657	0.051144
H94	H	-0.068315	0.430343	0.551144
H95	H	-0.656694	-0.035407	0.000072
H96	H	-0.156694	0.464593	0.500072
H97	H	-0.961413	0.375597	0.000054
H98	H	-0.461413	0.875597	0.500054
C99	C	-0.891089	-0.285104	0.574559
C100	C	-0.391089	0.214896	1.074559
C101	C	-0.984322	-0.305390	0.596831
C102	C	-0.484322	0.194610	1.096831
H103	H	-0.847342	-0.320200	0.605843
H104	H	-0.347342	0.179800	1.105843
H105	H	-0.881862	-0.292510	0.513067
H106	H	-0.381862	0.207490	1.013067
H107	H	-0.880831	-0.228846	0.589679
H108	H	-0.380831	0.271154	1.089679
H109	H	-0.994582	-0.361646	0.581705
H110	H	-0.494582	0.138354	1.081705
H111	H	-0.993553	-0.297991	0.658337
H112	H	-0.493553	0.202009	1.158337
C113	C	-0.935929	0.154495	0.075343
C114	C	-0.435929	0.654495	0.575343
C115	C	-0.940202	0.204644	0.000059
C116	C	-0.440202	0.704644	0.500059
H117	H	-0.877923	0.122637	0.075332
H118	H	-0.377923	0.622637	0.575332
H119	H	-0.938828	0.188525	0.126408
H120	H	-0.438828	0.688525	0.626408
H121	H	-0.988131	0.118304	0.075337
H122	H	-0.488131	0.618304	0.575337
H123	H	-0.888003	0.240840	0.000068
H124	H	-0.388003	0.740840	0.500068
H125	H	-0.937293	0.170611	-0.051019
H126	H	-0.437293	0.670611	0.448981
H127	H	-1.236623	-0.102977	0.416461
H128	H	-0.736623	0.397023	0.916461
H129	H	-1.277898	0.230774	0.000090
H130	H	-0.777898	0.730774	0.500090
C131	C	-1.279160	0.486365	0.000063
C132	C	-0.779160	0.986365	0.500063
C133	C	-1.299100	0.401706	0.000075
C134	C	-0.799100	0.901706	0.500075
H135	H	-1.337173	0.518212	0.000056
H136	H	-0.837173	1.018212	0.500056
H137	H	-1.243402	0.499159	0.051130
H138	H	-0.743402	0.999159	0.551130
H139	H	-1.243394	0.499138	-0.051016
H140	H	-0.743394	0.999138	0.448984
H141	H	-1.334859	0.388932	0.051157
H142	H	-0.834859	0.888932	0.551157
H143	H	-1.334873	0.388906	-0.050998
H144	H	-0.834873	0.888906	0.449002
C145	C	-0.999473	-0.388314	0.425566
C146	C	-0.499473	0.111686	0.925566
C147	C	-0.984310	-0.305395	0.403301
C148	C	-0.484310	0.194605	0.903301
H149	H	-0.955725	-0.423412	0.394277
H150	H	-0.455725	0.076588	0.894277
H151	H	-0.990246	-0.395715	0.487058
H152	H	-0.490246	0.104285	0.987058
H153	H	-1.062729	-0.402053	0.410450
H154	H	-0.562729	0.097947	0.910450
H155	H	-0.921056	-0.291654	0.418424
H156	H	-0.421056	0.208346	0.918424
H157	H	-0.993529	-0.297990	0.341796
H158	H	-0.493529	0.202010	0.841796
C159	C	-1.311587	-0.042848	0.536916
C160	C	-0.811587	0.457152	1.036916
C161	C	-1.255000	-0.088242	0.596841
C162	C	-0.755000	0.411758	1.096841
H163	H	-1.355345	-0.007754	0.568198
H164	H	-0.855345	0.492246	1.068198
H165	H	-1.272144	-0.009997	0.500966
H166	H	-0.772144	0.490003	1.000966
H167	H	-1.345662	-0.080012	0.500953
H168	H	-0.845662	0.419988	1.000953
H169	H	-1.220920	-0.051078	0.632800
H170	H	-0.720920	0.448922	1.132800
H171	H	-1.294449	-0.121096	0.632806
H172	H	-0.794449	0.378904	1.132806
