data_functionalizedCrystal
_audit_creation_method	'MofGen! by Chris Wilmer'
_symmetry_space_group_name_H-M	'P1'
_symmetry_Int_Tables_number	1
_symmetry_cell_setting	triclinic
loop_
_symmetry_equiv_pos_as_xyz
  x,y,z
_cell_length_a	16.109302
_cell_length_b	19.188924
_cell_length_c	15.186229
_cell_angle_alpha	89.994194
_cell_angle_beta	89.994701
_cell_angle_gamma	83.301872
loop_
_atom_site_label
_atom_site_type_symbol
_atom_site_fract_x
_atom_site_fract_y
_atom_site_fract_z
O1	O	1.102830	0.089747	-0.073272
O2	O	1.602830	0.589747	0.426728
O3	O	0.860731	0.100915	-0.073266
O4	O	1.360731	0.600915	0.426734
O5	O	0.988770	-0.006309	-0.073259
O6	O	1.488770	0.493691	0.426741
O7	O	0.974791	0.196970	-0.073279
O8	O	1.474791	0.696970	0.426721
O9	O	0.988762	-0.006311	0.073199
O10	O	1.488762	0.493689	0.573199
O11	O	0.860722	0.100913	0.073192
O12	O	1.360722	0.600913	0.573192
O13	O	1.102822	0.089745	0.073185
O14	O	1.602822	0.589745	0.573185
Zn15	Zn	0.981771	0.095329	0.096442
Zn16	Zn	1.481771	0.595329	0.596442
Zn17	Zn	0.981782	0.095331	-0.096522
Zn18	Zn	1.481782	0.595331	0.403478
O19	O	0.974783	0.196969	0.073178
O20	O	1.474783	0.696969	0.573178
C21	C	0.829753	0.100461	-0.000036
C22	C	1.329753	0.600461	0.499964
C23	C	0.737463	0.099105	-0.000033
C24	C	1.237463	0.599105	0.499967
C25	C	0.525128	0.095967	0.079792
C26	C	1.025128	0.595967	0.579792
C27	C	0.438412	0.094685	0.079789
C28	C	0.938412	0.594685	0.579789
C29	C	0.438432	0.094690	-0.079887
C30	C	0.938432	0.594690	0.420113
C31	C	0.525147	0.095968	-0.079883
C32	C	1.025147	0.595968	0.420117
C33	C	0.568492	0.096609	-0.000041
C34	C	1.068492	0.596609	0.499959
C35	C	0.395061	0.094050	-0.000048
C36	C	0.895061	0.594050	0.499952
C37	C	0.301040	0.092660	-0.000051
C38	C	0.801040	0.592660	0.499949
C39	C	0.662519	0.097998	-0.000037
C40	C	1.162519	0.597998	0.499963
C41	C	0.988314	-0.032322	-0.000029
C42	C	1.488314	0.467678	0.499971
C43	C	0.986958	-0.109830	-0.000027
C44	C	1.486958	0.390170	0.499973
C45	C	0.986330	-0.146229	-0.079861
C46	C	1.486330	0.353771	0.420139
C47	C	0.985044	-0.219055	-0.079868
C48	C	1.485044	0.280945	0.420132
C49	C	0.984403	-0.255480	-0.000036
C50	C	1.484403	0.244520	0.499964
C51	C	0.985027	-0.219071	0.079809
C52	C	1.485027	0.280929	0.579809
C53	C	0.986304	-0.146246	0.079813
C54	C	1.486304	0.353754	0.579813
N55	N	1.029706	-0.375038	0.059380
N56	N	1.529706	0.124962	0.559380
N57	N	1.028494	-0.444219	0.059371
N58	N	1.528494	0.055781	0.559371
C59	C	0.980552	-0.474898	-0.000044
C60	C	1.480552	0.025102	0.499956
N61	N	0.933878	-0.433784	-0.059462
N62	N	1.433878	0.066216	0.440538
N63	N	0.935093	-0.364597	-0.059455
N64	N	1.435093	0.135403	0.440545
C65	C	0.983017	-0.334447	-0.000032
C66	C	1.483017	0.165553	0.499968
C67	C	0.978528	-0.590264	-0.079891
C68	C	1.478528	-0.090264	0.420109
C69	C	0.977237	-0.663090	-0.079894
C70	C	1.477237	-0.163090	0.420106
C71	C	0.977228	-0.663106	0.079785
C72	C	1.477228	-0.163106	0.579785
C73	C	0.978511	-0.590280	0.079786
C74	C	1.478511	-0.090280	0.579786
C75	C	0.979165	-0.553864	-0.000055
C76	C	1.479165	-0.053864	0.499945
C77	C	1.133799	0.090198	-0.000046
C78	C	1.633799	0.590198	0.499954
C79	C	1.226090	0.091555	-0.000055
C80	C	1.726090	0.591555	0.499945
C81	C	0.975239	0.222982	-0.000053
C82	C	1.475239	0.722982	0.499947
C83	C	0.976595	0.300490	-0.000061
C84	C	1.476595	0.800490	0.499939
N85	N	0.981769	0.095327	0.228134
N86	N	1.481769	0.595327	0.728134
N87	N	0.981790	0.095327	-0.228215
N88	N	1.481790	0.595327	0.271785
C89	C	1.038484	0.047864	0.453860
C90	C	1.538484	0.547864	0.953860
C91	C	1.038487	0.047863	0.546050
C92	C	1.538487	0.547863	1.046050
C93	C	0.925069	0.142792	0.546053
C94	C	1.425069	0.642792	1.046053
C95	C	0.925063	0.142790	0.453865
C96	C	1.425063	0.642790	0.953865
C97	C	0.981775	0.095327	0.407771
C98	C	1.481775	0.595327	0.907771
C99	C	0.981784	0.095327	0.592148
C100	C	1.481784	0.595327	1.092148
C101	C	0.981786	0.095326	0.692105
C102	C	1.481786	0.595326	1.192105
C103	C	0.981772	0.095327	0.307808
C104	C	1.481772	0.595327	0.807808
H105	H	0.984527	-0.248697	-0.144880
H106	H	1.484527	0.251303	0.355120
H107	H	0.403109	0.094162	0.144797
H108	H	0.903109	0.594162	0.644797
N109	N	0.394165	0.094047	-0.161447
N110	N	0.894165	0.594047	0.338553
N111	N	0.432896	0.094620	-0.232721
N112	N	0.932896	0.594620	0.267279
H113	H	0.401635	0.094167	-0.290326
H114	H	0.901635	0.594167	0.209674
H115	H	0.560455	0.096489	-0.144896
H116	H	1.060455	0.596489	0.355104
N117	N	0.986942	-0.109072	0.161374
N118	N	1.486942	0.390928	0.661374
N119	N	0.986361	-0.141597	0.232649
N120	N	1.486361	0.358403	0.732649
H121	H	0.986812	-0.115342	0.290253
H122	H	1.486812	0.384658	0.790253
N123	N	1.096394	-0.000621	0.406762
N124	N	1.596394	0.499379	0.906762
N125	N	1.096381	-0.000620	0.324452
N126	N	1.596381	0.499380	0.824452
H127	H	1.137279	-0.034866	0.291190
H128	H	1.637279	0.465134	0.791190
N129	N	0.979175	-0.553047	-0.161433
N130	N	1.479175	-0.053047	0.338567
N131	N	0.980316	-0.488025	-0.161419
N132	N	1.480316	0.011975	0.338581
H133	H	0.980771	-0.461741	-0.219008
H134	H	1.480771	0.038259	0.280992
N135	N	1.096401	-0.000620	0.593142
N136	N	1.596401	0.499380	1.093142
N137	N	1.096390	-0.000623	0.675452
N138	N	1.596390	0.499377	1.175452
H139	H	1.137288	-0.034871	0.708712
H140	H	1.637288	0.465129	1.208712
N141	N	0.867147	0.191267	0.593152
N142	N	1.367147	0.691267	1.093152
N143	N	0.867160	0.191263	0.675462
N144	N	1.367160	0.691263	1.175462
H145	H	0.826252	0.225500	0.708726
H146	H	1.326252	0.725500	1.208726
N147	N	0.986995	-0.109043	-0.161421
N148	N	1.486995	0.390957	0.338579
N149	N	0.986432	-0.141557	-0.232697
N150	N	1.486432	0.358443	0.267303
H151	H	0.986901	-0.115293	-0.290300
H152	H	1.486901	0.384707	0.209700
N153	N	0.867122	0.191274	0.406793
N154	N	1.367122	0.691274	0.906793
N155	N	0.816494	0.233650	0.447956
N156	N	1.316494	0.733650	0.947956
H157	H	0.775572	0.267889	0.414712
H158	H	1.275572	0.767889	0.914712
N159	N	0.984364	-0.256285	0.161348
N160	N	1.484364	0.243715	0.661348
N161	N	0.983224	-0.321307	0.161334
N162	N	1.483224	0.178693	0.661334
H163	H	0.982751	-0.347590	0.218923
H164	H	1.482751	0.152410	0.718923
H165	H	0.976721	-0.692725	-0.144907
H166	H	1.476721	-0.192725	0.355093
N167	N	0.976561	-0.700314	0.161325
N168	N	1.476561	-0.200314	0.661325
N169	N	0.975414	-0.765335	0.161312
N170	N	1.475414	-0.265335	0.661312
H171	H	0.974938	-0.791617	0.218901
H172	H	1.474938	-0.291617	0.718901
H173	H	0.560417	0.096490	0.144805
H174	H	1.060417	0.596490	0.644805
N175	N	0.979155	-0.553106	0.161343
N176	N	1.479155	-0.053106	0.661343
N177	N	0.978579	-0.585633	0.232618
N178	N	1.478579	-0.085633	0.732618
H179	H	0.979031	-0.559379	0.290223
H180	H	1.479031	-0.059379	0.790223
