data_functionalizedCrystal
_audit_creation_method	'MofGen! by Chris Wilmer'
_symmetry_space_group_name_H-M	'P1'
_symmetry_Int_Tables_number	1
_symmetry_cell_setting	triclinic
loop_
_symmetry_equiv_pos_as_xyz
  x,y,z
_cell_length_a	16.120531
_cell_length_b	14.908783
_cell_length_c	14.908308
_cell_angle_alpha	96.759523
_cell_angle_beta	84.017827
_cell_angle_gamma	90.528115
loop_
_atom_site_label
_atom_site_type_symbol
_atom_site_fract_x
_atom_site_fract_y
_atom_site_fract_z
Zn1	Zn	0.427080	1.329258	-0.456616
Zn2	Zn	0.927080	1.829258	0.043384
Zn3	Zn	0.558895	1.330191	-0.312922
Zn4	Zn	1.058895	1.830191	0.187078
Zn5	Zn	0.411908	1.187520	-0.313139
Zn6	Zn	0.911908	1.687520	0.186861
Zn7	Zn	0.558848	1.170167	-0.472979
Zn8	Zn	1.058848	1.670167	0.027021
O9	O	0.489183	1.254284	-0.388914
O10	O	0.989183	1.754284	0.111086
O11	O	0.450934	1.455670	-0.430616
O12	O	0.950934	1.955670	0.069384
O13	O	0.533067	1.318918	-0.185920
O14	O	1.033067	1.818918	0.314080
O15	O	0.297261	1.213194	-0.325415
O16	O	0.797261	1.713194	0.174585
O17	O	0.547778	1.456356	-0.325044
O18	O	1.047778	1.956356	0.174956
O19	O	0.308408	1.317328	-0.430827
O20	O	0.808408	1.817328	0.069173
O21	O	0.425076	1.214099	-0.186080
O22	O	0.925076	1.714099	0.313920
O23	O	0.425031	1.058930	-0.341281
O24	O	0.925031	1.558930	0.158719
O25	O	0.547699	1.183618	-0.597839
O26	O	1.047699	1.683618	-0.097839
O27	O	0.532987	1.046181	-0.458715
O28	O	1.032987	1.546181	0.041285
O29	O	0.450889	1.300501	-0.585817
O30	O	0.950889	1.800501	-0.085817
O31	O	0.675548	1.302092	-0.340911
O32	O	1.175548	1.802092	0.159089
O33	O	0.675514	1.184523	-0.458504
O34	O	1.175514	1.684523	0.041496
C35	C	0.705782	1.241549	-0.401478
C36	C	1.205782	1.741549	0.098522
C37	C	0.798450	1.236182	-0.406879
C38	C	1.298450	1.736182	0.093121
C39	C	0.477359	1.019810	-0.401798
C40	C	0.977359	1.519810	0.098202
C41	C	0.472321	0.919499	-0.407332
C42	C	0.972321	1.419499	0.092668
C43	C	0.500981	1.240020	-0.625686
C44	C	1.000981	1.740020	-0.125686
C45	C	0.506009	1.233941	-0.726585
C46	C	1.006009	1.733941	-0.226585
C47	C	0.968116	1.226386	-0.416757
C48	C	1.468116	1.726386	0.083243
C49	C	1.009408	1.282219	-0.361017
C50	C	1.509408	1.782219	0.138983
C51	C	1.103816	1.276769	-0.366514
C52	C	1.603816	1.776769	0.133486
C53	C	0.873699	1.231835	-0.411262
C54	C	1.373699	1.731835	0.088738
C55	C	1.271738	1.267061	-0.376305
C56	C	1.771738	1.767061	0.123695
C57	C	1.179069	1.272427	-0.370893
C58	C	1.679069	1.772427	0.129107
C59	C	0.501054	1.489674	-0.375981
C60	C	1.001054	1.989674	0.124019
C61	C	0.506112	1.589983	-0.370469
C62	C	1.006112	2.089983	0.129531
C63	C	0.414778	1.777760	-0.470065
C64	C	0.914778	2.277760	0.029935
C65	C	0.419529	1.872010	-0.464890
C66	C	0.919529	2.372010	0.035110
C67	C	0.520368	1.872732	-0.354948
C68	C	1.020368	2.372732	0.145052
C69	C	0.515618	1.778482	-0.360123
C70	C	1.015618	2.278482	0.139877
C71	C	0.462820	1.731000	-0.417683
C72	C	0.962820	2.231000	0.082317
C73	C	0.458065	1.636750	-0.422853
C74	C	0.958065	2.136750	0.077147
C75	C	0.558909	1.637473	-0.312917
C76	C	1.058909	2.137473	0.187083
C77	C	0.563659	1.731722	-0.307741
C78	C	1.063659	2.231722	0.192259
C79	C	0.414629	1.344228	-0.903666
C80	C	0.914629	1.844228	-0.403666
C81	C	0.419351	1.338520	-0.998468
C82	C	0.919351	1.838520	-0.498468
C83	C	0.520168	1.216813	-1.010994
C84	C	1.020168	1.716813	-0.510994
C85	C	0.515447	1.222521	-0.916191
C86	C	1.015447	1.722521	-0.416191
C87	C	0.462676	1.286232	-0.862530
C88	C	0.962676	1.786232	-0.362530
C89	C	0.457960	1.291944	-0.767726
C90	C	0.957960	1.791944	-0.267726
C91	C	0.558772	1.170233	-0.780254
C92	C	1.058772	1.670233	-0.280254
C93	C	0.563494	1.164525	-0.875056
C94	C	1.063494	1.664525	-0.375056
C95	C	0.477373	1.268548	-0.153056
C96	C	0.977373	1.768548	0.346944
C97	C	0.472119	1.274815	-0.052135
C98	C	0.972119	1.774815	0.447865
H99	H	0.973857	1.334111	-0.309168
H100	H	1.473857	1.834111	0.190832
C101	C	1.016136	1.156280	-0.486788
C102	C	1.516136	1.656280	0.013212
H103	H	1.074207	1.161765	-0.481330
H104	H	1.574207	1.661765	0.018670
H105	H	1.005587	1.166558	-0.546259
H106	H	1.505587	1.666558	-0.046259
H107	H	0.998253	1.097259	-0.475962
H108	H	1.498253	1.597259	0.024038
H109	H	0.371780	1.739101	-0.516924
H110	H	0.871780	2.239101	-0.016924
C111	C	0.611626	1.106434	-0.735003
C112	C	1.111626	1.606434	-0.235003
H113	H	0.601255	1.118953	-0.670857
H114	H	1.101255	1.618953	-0.170857
H115	H	0.669077	1.115409	-0.753063
H116	H	1.169077	1.615409	-0.253063
H117	H	0.597138	1.045576	-0.753164
H118	H	1.097138	1.545576	-0.253164
C119	C	0.621539	1.094449	-0.934083
C120	C	1.121539	1.594449	-0.434083
H121	H	0.649475	1.060724	-0.896004
H122	H	1.149475	1.560724	-0.396004
H123	H	0.661441	1.124608	-0.971275
H124	H	1.161441	1.624608	-0.471275
H125	H	0.589506	1.054771	-0.971377
H126	H	1.089506	1.554771	-0.471377
C127	C	0.399997	1.584519	-0.486171
C128	C	0.899997	2.084519	0.013829
H129	H	0.372074	1.625870	-0.516635
H130	H	0.872074	2.125870	-0.016635
H131	H	0.360085	1.551981	-0.451371
H132	H	0.860085	2.051981	0.048629
H133	H	0.432017	1.543494	-0.529589
H134	H	0.932017	2.043494	-0.029589
C135	C	0.366507	1.402320	-1.043719
C136	C	0.866507	1.902320	-0.543719
H137	H	0.376872	1.389795	-1.107865
H138	H	0.876872	1.889795	-0.607865
H139	H	0.380990	1.463172	-1.025553
H140	H	0.880990	1.963172	-0.525553
H141	H	0.309051	1.393341	-1.025664
H142	H	0.809051	1.893341	-0.525664
C143	C	0.578440	1.924972	-0.291641
C144	C	1.078440	2.424972	0.208359
H145	H	0.574384	1.987800	-0.296061
H146	H	1.074384	2.487800	0.203939
H147	H	0.634337	1.905428	-0.309011
H148	H	1.134337	2.405428	0.190989
H149	H	0.562412	1.913928	-0.230785
H150	H	1.062412	2.413928	0.269215
C151	C	0.366685	1.923447	-0.522509
C152	C	0.866685	2.423447	-0.022509
H153	H	0.377080	1.986379	-0.511190
H154	H	0.877080	2.486379	-0.011190
H155	H	0.309231	1.912100	-0.506835
H156	H	0.809231	2.412100	-0.006835
H157	H	0.381159	1.903604	-0.585058
H158	H	0.881159	2.403604	-0.085058
C159	C	0.621728	1.783958	-0.244427
C160	C	1.121728	2.283958	0.255573
H161	H	0.617673	1.846787	-0.248841
H162	H	1.117673	2.346787	0.251159
H163	H	0.677626	1.764414	-0.261793
H164	H	1.177626	2.264414	0.238207
H165	H	0.605695	1.772907	-0.183574
H166	H	1.105695	2.272907	0.316426
H167	H	0.598029	1.599391	-0.270265
H168	H	1.098029	2.099391	0.229735
H169	H	0.414993	1.343822	-0.724036
H170	H	0.914993	1.843822	-0.224036
H171	H	0.371666	1.396108	-0.859974
H172	H	0.871666	1.896108	-0.359974
H173	H	0.563130	1.164942	-1.054701
H174	H	1.063130	1.664942	-0.554701
