data_functionalizedCrystal
_audit_creation_method	'MofGen! by Chris Wilmer'
_symmetry_space_group_name_H-M	'P1'
_symmetry_Int_Tables_number	1
_symmetry_cell_setting	triclinic
loop_
_symmetry_equiv_pos_as_xyz
  x,y,z
_cell_length_a	15.995343
_cell_length_b	17.699083
_cell_length_c	16.176319
_cell_angle_alpha	90.007696
_cell_angle_beta	89.996905
_cell_angle_gamma	96.613901
loop_
_atom_site_label
_atom_site_type_symbol
_atom_site_fract_x
_atom_site_fract_y
_atom_site_fract_z
O1	O	1.110794	-0.097532	-0.068665
O2	O	0.866994	-0.109585	-0.068685
O3	O	0.995782	0.006620	-0.068667
O4	O	0.982006	-0.213736	-0.068683
O5	O	0.995764	0.006627	0.068826
O6	O	0.866976	-0.109578	0.068808
O7	O	1.110777	-0.097524	0.068828
Cu8	Cu	0.988875	-0.103550	0.081372
Cu9	Cu	0.988896	-0.103559	-0.081230
O10	O	0.981988	-0.213729	0.068810
C11	C	0.835791	-0.109084	0.000059
C12	C	0.742843	-0.107593	0.000051
C13	C	0.572662	-0.104887	0.000063
C14	C	0.549488	-0.021005	0.000068
C15	C	0.452813	-0.019427	0.000385
C16	C	0.405108	-0.102222	0.000073
C17	C	0.434104	-0.144395	0.078429
C18	C	0.530894	-0.145390	0.078490
C19	C	0.530822	-0.146626	-0.077871
C20	C	0.434334	-0.143530	-0.078896
C21	C	0.310413	-0.100720	0.000081
C22	C	0.667357	-0.106392	0.000060
C23	C	0.995280	0.034821	0.000079
C24	C	0.993799	0.118842	0.000079
C25	C	1.141979	-0.098025	0.000082
C26	C	1.234927	-0.099516	0.000084
C27	C	0.982491	-0.241930	0.000062
C28	C	0.983972	-0.325951	0.000056
N29	N	0.988866	-0.103544	0.195737
C30	C	1.069395	0.167339	0.000087
C31	C	1.067998	0.246284	0.000079
C32	C	0.991005	0.276731	0.000071
C33	C	0.915403	0.228228	0.000061
C34	C	0.916801	0.149284	0.000062
C35	C	0.909766	0.546600	0.000053
C36	C	0.908375	0.625550	0.000054
C37	C	1.060964	0.643601	0.000071
C38	C	1.062362	0.564657	0.000072
C39	C	0.986760	0.516160	0.000058
C40	C	0.988275	0.430559	0.000064
C41	C	0.989489	0.362331	0.000070
N42	N	0.988911	-0.103560	-0.195595
C43	C	1.045911	-0.052109	0.239009
C44	C	1.045915	-0.052108	0.325557
C45	C	0.988878	-0.103546	0.368830
C46	C	0.931827	-0.154983	0.325552
C47	C	0.931820	-0.154980	0.239006
C48	C	0.931856	-0.154997	0.674580
C49	C	0.931870	-0.154998	0.761132
C50	C	1.045951	-0.052126	0.761130
C51	C	1.045944	-0.052123	0.674585
C52	C	0.988891	-0.103556	0.631314
C53	C	0.988886	-0.103556	0.537470
C54	C	0.988886	-0.103551	0.462673
H55	H	0.402133	-0.205329	0.081119
H56	H	0.885367	-0.196862	0.203775
O57	O	0.835264	0.096973	0.000055
H58	H	0.832247	0.060576	0.056092
H59	H	1.122523	0.683096	0.000078
H60	H	0.544710	-0.208369	-0.078631
O61	O	0.409838	-0.102864	-0.155691
H62	H	0.377453	-0.053157	-0.137691
O63	O	0.828230	0.494296	0.000042
H64	H	0.825214	0.457898	0.056078
H65	H	0.852714	0.253024	0.000048
H66	H	0.414063	-0.115453	0.136967
H67	H	0.433868	0.013586	-0.055772
H68	H	0.559154	-0.120165	-0.137282
O69	O	1.149537	0.298589	0.000086
H70	H	1.135634	0.358599	0.000071
H71	H	0.401255	-0.203942	-0.083875
H72	H	1.132092	0.142556	0.000099
H73	H	0.885420	-0.196887	0.796363
H74	H	0.885383	-0.196862	0.360790
O75	O	0.566446	-0.107146	0.156375
H76	H	0.635790	-0.107479	0.157194
O77	O	0.870328	-0.210479	0.627920
H78	H	0.879894	-0.201834	0.560469
H79	H	1.125057	0.539872	0.000084
H80	H	0.577568	0.011505	-0.056113
H81	H	1.092360	-0.010226	0.203782
H82	H	0.845674	0.650337	0.000049
H83	H	1.092364	-0.010226	0.360788
O84	O	1.107457	0.003360	0.627909
H85	H	1.147119	0.039133	0.672540
O86	O	0.587954	0.021368	0.074393
H87	H	0.571214	0.080507	0.073796
O88	O	0.428456	0.024093	0.075234
H89	H	0.485760	0.044087	0.111349
O90	O	0.550044	-0.226866	0.082920
H91	H	0.490195	-0.265382	0.085016
O92	O	1.107484	0.003360	0.807799
H93	H	1.097904	-0.005275	0.875250
