data_functionalizedCrystal
_audit_creation_method	'MofGen! by Chris Wilmer'
_symmetry_space_group_name_H-M	'P1'
_symmetry_Int_Tables_number	1
_symmetry_cell_setting	triclinic
loop_
_symmetry_equiv_pos_as_xyz
  x,y,z
_cell_length_a	16.120444
_cell_length_b	21.295420
_cell_length_c	16.120256
_cell_angle_alpha	87.122604
_cell_angle_beta	95.616860
_cell_angle_gamma	87.075933
loop_
_atom_site_label
_atom_site_type_symbol
_atom_site_fract_x
_atom_site_fract_y
_atom_site_fract_z
Zn1	Zn	-0.356822	-0.929939	-0.489488
Zn2	Zn	0.143178	-0.429939	0.010512
Zn3	Zn	-0.489508	-0.929858	-0.356800
Zn4	Zn	0.010492	-0.429858	0.143200
Zn5	Zn	-0.349747	-0.830293	-0.349730
Zn6	Zn	0.150253	-0.330293	0.150270
Zn7	Zn	-0.496547	-0.819020	-0.496520
Zn8	Zn	0.003453	-0.319020	0.003480
O9	O	-0.423156	-0.877278	-0.423135
O10	O	0.076844	-0.377278	0.076865
O11	O	-0.374438	-1.018017	-0.471902
O12	O	0.125562	-0.518017	0.028098
O13	O	-0.465062	-0.921335	-0.238899
O14	O	0.034938	-0.421335	0.261101
O15	O	-0.233720	-0.848263	-0.362368
O16	O	0.266280	-0.348263	0.137632
O17	O	-0.471922	-1.017957	-0.374417
O18	O	0.028078	-0.517957	0.125583
O19	O	-0.238918	-0.921473	-0.465048
O20	O	0.261082	-0.421473	0.034952
O21	O	-0.362380	-0.848185	-0.233706
O22	O	0.137620	-0.348185	0.266294
O23	O	-0.369206	-0.740710	-0.369187
O24	O	0.130794	-0.240710	0.130813
O25	O	-0.483918	-0.829050	-0.612550
O26	O	0.016082	-0.329050	-0.112550
O27	O	-0.477058	-0.732428	-0.477032
O28	O	0.022942	-0.232428	0.022968
O29	O	-0.381263	-0.910542	-0.607383
O30	O	0.118737	-0.410542	-0.107383
O31	O	-0.607407	-0.910404	-0.381235
O32	O	-0.107407	-0.410404	0.118765
O33	O	-0.612579	-0.828972	-0.483887
O34	O	-0.112579	-0.328972	0.016113
C35	C	-0.423129	-0.713728	-0.423106
C36	C	0.076871	-0.213728	0.076894
C37	C	-0.423138	-0.643760	-0.423114
C38	C	0.076862	-0.143760	0.076886
C39	C	-0.479396	-0.140003	-0.479227
C40	C	0.020604	0.359997	0.020773
C41	C	-0.479397	-0.205746	-0.479220
C42	C	0.020603	0.294254	0.020780
C43	C	-0.423163	-0.242918	-0.423148
C44	C	0.076837	0.257082	0.076852
C45	C	-0.366939	-0.214342	-0.367065
C46	C	0.133061	0.285658	0.132935
C47	C	-0.366945	-0.148600	-0.367069
C48	C	0.133055	0.351400	0.132931
N49	N	-0.349661	-0.349352	-0.413152
N50	N	0.150339	0.150648	0.086848
N51	N	-0.349658	-0.411804	-0.413154
N52	N	0.150342	0.088196	0.086846
C53	C	-0.423143	-0.440994	-0.423133
C54	C	0.076857	0.059006	0.076867
N55	N	-0.496633	-0.405373	-0.433127
N56	N	0.003367	0.094627	0.066873
N57	N	-0.496636	-0.342915	-0.433130
N58	N	0.003364	0.157085	0.066870
C59	C	-0.423151	-0.314204	-0.423138
C60	C	0.076849	0.185796	0.076862
C61	C	-0.479369	-0.540848	-0.479201
C62	C	0.020631	-0.040848	0.020799
C63	C	-0.479371	-0.606592	-0.479188
C64	C	0.020629	-0.106592	0.020812
C65	C	-0.366906	-0.615187	-0.367037
C66	C	0.133094	-0.115187	0.132963
C67	C	-0.366911	-0.549444	-0.367046
C68	C	0.133089	-0.049444	0.132954
C69	C	-0.423142	-0.512278	-0.423133
C70	C	0.076858	-0.012278	0.076867
C71	C	-0.640322	-0.868472	-0.434109
C72	C	-0.140322	-0.368472	0.065891
C73	C	-0.733228	-0.864761	-0.438832
C74	C	-0.233228	-0.364761	0.061168
C75	C	-0.942138	-0.896674	-0.398814
C76	C	-0.442138	-0.396674	0.101186
C77	C	-0.903323	-0.857998	-0.447464
C78	C	-0.403323	-0.357998	0.052536
C79	C	-0.808673	-0.861762	-0.442660
C80	C	-0.308673	-0.361762	0.057340
C81	C	-1.036797	-0.892911	-0.403617
C82	C	-0.536797	-0.392911	0.096383
C83	C	-0.205143	-0.886135	-0.412135
C84	C	0.294857	-0.386135	0.087865
C85	C	-0.112239	-0.889909	-0.407448
C86	C	0.387761	-0.389909	0.092552
C87	C	-0.434165	-0.868547	-0.641142
C88	C	0.065835	-0.368547	-0.141142
C89	C	-0.438856	-0.864827	-0.734043
C90	C	0.061144	-0.364827	-0.234043
C91	C	-0.423179	-0.041466	-0.423158
C92	C	0.076821	0.458534	0.076842
C93	C	-0.423175	-0.111435	-0.423155
C94	C	0.076825	0.388565	0.076845
C95	C	-0.398670	-0.896679	-0.942969
C96	C	0.101330	-0.396679	-0.442969
C97	C	-0.447387	-0.858015	-0.904128
C98	C	0.052613	-0.358015	-0.404128
C99	C	-0.442639	-0.861806	-0.809484
C100	C	0.057361	-0.361806	-0.309484
C101	C	-0.403416	-0.892888	-1.037622
C102	C	0.096584	-0.392888	-0.537622
C103	C	-0.412129	-0.886013	-0.205973
C104	C	0.087871	-0.386013	0.294027
C105	C	-0.407203	-0.889865	-0.113060
C106	C	0.092797	-0.389865	0.386940
H107	H	-0.525186	-0.109747	-0.524894
H108	H	-0.025186	0.390253	-0.024894
H109	H	-0.904289	-0.932611	-0.353557
H110	H	-0.404289	-0.432611	0.146443
H111	H	-0.492656	-0.822063	-0.941955
H112	H	0.007344	-0.322063	-0.441955
Cl113	Cl	-0.961761	-0.802507	-0.517338
Cl114	Cl	-0.461761	-0.302507	-0.017338
H115	H	-0.321161	-0.125340	-0.321407
H116	H	0.178839	0.374660	0.178593
Cl117	Cl	-0.328764	-0.952170	-0.884570
Cl118	Cl	0.171236	-0.452170	-0.384570
H119	H	-0.525178	-0.229011	-0.524883
H120	H	-0.025178	0.270989	-0.024883
H121	H	-0.525156	-0.510586	-0.524869
H122	H	-0.025156	-0.010586	-0.024869
Cl123	Cl	-0.296248	-0.261071	-0.296572
Cl124	Cl	0.203752	0.238929	0.203428
H125	H	-0.525159	-0.629851	-0.524846
H126	H	-0.025159	-0.129851	-0.024846
H127	H	-0.321127	-0.526183	-0.321389
H128	H	0.178873	-0.026183	0.178611
Cl129	Cl	-0.296219	-0.661911	-0.296539
Cl130	Cl	0.203781	-0.161911	0.203461
