data_functionalizedCrystal
_audit_creation_method	'MofGen! by Chris Wilmer'
_symmetry_space_group_name_H-M	'P1'
_symmetry_Int_Tables_number	1
_symmetry_cell_setting	triclinic
loop_
_symmetry_equiv_pos_as_xyz
  x,y,z
_cell_length_a	26.374263
_cell_length_b	26.373608
_cell_length_c	26.370205
_cell_angle_alpha	60.005297
_cell_angle_beta	60.010839
_cell_angle_gamma	59.993700
loop_
_atom_site_label
_atom_site_type_symbol
_atom_site_fract_x
_atom_site_fract_y
_atom_site_fract_z
O1	O	0.070152	-0.740800	0.619517
O2	O	0.570152	-0.240800	1.119517
O3	O	0.026377	-0.576764	0.499159
O4	O	0.526377	-0.076764	0.999159
O5	O	0.130245	-0.680560	0.499088
O6	O	0.630245	-0.180560	0.999088
O7	O	-0.033715	-0.637003	0.619589
O8	O	0.466285	-0.137003	1.119589
O9	O	0.164701	-0.646107	0.533470
O10	O	0.664701	-0.146107	1.033470
O11	O	0.060833	-0.542310	0.533541
O12	O	0.560833	-0.042310	1.033541
O13	O	0.104608	-0.706346	0.653899
O14	O	0.604608	-0.206346	1.153899
Cu15	Cu	0.085867	-0.621182	0.596859
Cu16	Cu	0.585867	-0.121182	1.096859
Cu17	Cu	0.045119	-0.661927	0.556199
Cu18	Cu	0.545119	-0.161927	1.056199
O19	O	0.000741	-0.602549	0.653971
O20	O	0.500741	-0.102549	1.153971
N21	N	0.114528	-0.592529	0.625461
N22	N	0.614528	-0.092529	1.125461
N23	N	0.016463	-0.690587	0.527598
N24	N	0.516463	-0.190587	1.027598
C25	C	0.181428	-0.355400	0.692330
C26	C	0.681428	0.144600	1.192330
C27	C	0.181530	-0.525690	0.862573
C28	C	0.681530	-0.025690	1.362573
C29	C	0.181440	-0.525667	0.692313
C30	C	0.681440	-0.025667	1.192313
C31	C	0.351736	-0.525673	0.692271
C32	C	0.851736	-0.025673	1.192271
C33	C	0.200174	-0.411588	0.711047
C34	C	0.700174	0.088412	1.211047
C35	C	0.200232	-0.506954	0.806384
C36	C	0.700232	-0.006954	1.306384
C37	C	0.295546	-0.506943	0.711016
C38	C	0.795546	-0.006943	1.211016
C39	C	0.200182	-0.506940	0.711037
C40	C	0.700182	-0.006940	1.211037
C41	C	0.157567	-0.283881	0.668507
C42	C	0.657567	0.216119	1.168507
C43	C	0.157587	-0.549500	0.668479
C44	C	0.657587	-0.049500	1.168479
C45	C	0.224035	-0.483107	0.734871
C46	C	0.724035	0.016893	1.234871
C47	C	0.455739	-0.507754	0.637520
C48	C	0.955739	-0.007754	1.137520
C49	C	0.520749	-0.529425	0.615835
C50	C	1.020749	-0.029425	1.115835
C51	C	0.520768	-0.634611	0.655947
C52	C	1.020768	-0.134611	1.155947
C53	C	0.455759	-0.612939	0.677633
C54	C	0.955759	-0.112939	1.177633
C55	C	0.173240	-0.251367	0.604595
C56	C	0.673240	0.248633	1.104595
C57	C	0.151546	-0.186351	0.582941
C58	C	0.651546	0.313649	1.082941
C59	C	0.098512	-0.186369	0.689113
C60	C	0.598512	0.313631	1.189113
C61	C	0.120206	-0.251385	0.710768
C62	C	0.620206	0.248615	1.210768
C63	C	0.093669	-0.533798	0.684205
C64	C	0.593669	-0.033798	1.184205
C65	C	0.071992	-0.555464	0.662532
C66	C	0.571992	-0.055464	1.162532
C67	C	0.178144	-0.608536	0.609422
C68	C	0.678144	-0.108536	1.109422
C69	C	0.199825	-0.586869	0.631088
C70	C	0.699825	-0.086869	1.131088
C71	C	0.093821	-0.533842	0.966616
C72	C	0.593821	-0.033842	1.466616
C73	C	0.072187	-0.555526	1.031630
C74	C	0.572187	-0.055526	1.531630
C75	C	0.178370	-0.608608	1.031591
C76	C	0.678370	-0.108608	1.531591
C77	C	0.200004	-0.586926	0.966576
C78	C	0.700004	-0.086926	1.466576
C79	C	0.157728	-0.549541	0.934090
C80	C	0.657728	-0.049541	1.434090
C81	C	0.423247	-0.549509	0.668416
C82	C	0.923247	-0.049509	1.168416
C83	C	-0.097522	-0.709158	0.508557
C84	C	0.402478	-0.209158	1.008557
C85	C	-0.002050	-0.709295	0.413344
C86	C	0.497950	-0.209295	0.913344
C87	C	-0.002241	-0.804604	0.508735
C88	C	0.497759	-0.304604	1.008735
C89	C	-0.002225	-0.709288	0.508793
C90	C	0.497775	-0.209288	1.008793
C91	C	-0.026009	-0.733087	0.484858
C92	C	0.473991	-0.233087	0.984858
N93	N	0.552340	-0.592538	0.625346
N94	N	1.052340	-0.092538	1.125346
O95	O	0.750867	-0.598274	0.477076
O96	O	1.250867	-0.098274	0.977076
O97	O	0.751048	-0.718989	0.640960
O98	O	1.251048	-0.218989	1.140960
O99	O	0.750981	-0.718715	0.537020
O100	O	1.250981	-0.218715	1.037020
O101	O	0.750934	-0.598547	0.581017
O102	O	1.250934	-0.098547	1.081017
O103	O	0.647701	-0.684348	0.571512
O104	O	1.147701	-0.184348	1.071512
O105	O	0.647768	-0.684622	0.675452
O106	O	1.147768	-0.184622	1.175452
O107	O	0.647587	-0.563907	0.511569
O108	O	1.147587	-0.063907	1.011569
Cu109	Cu	0.638247	-0.621127	0.596660
Cu110	Cu	1.138247	-0.121127	1.096660
Cu111	Cu	0.760388	-0.661769	0.555869
Cu112	Cu	1.260388	-0.161769	1.055869
O113	O	0.647654	-0.564181	0.615509
O114	O	1.147654	-0.064181	1.115509
N115	N	0.846295	-0.690358	0.527176
N116	N	1.346295	-0.190358	1.027176
N117	N	0.114503	-0.154778	0.625499
N118	N	0.614503	0.345222	1.125499
O119	O	-0.033701	0.043855	0.619632
O120	O	0.466299	0.543855	1.119632
O121	O	0.130190	0.043858	0.498933
O122	O	0.630190	0.543858	0.998933
O123	O	0.026233	0.043841	0.499224
O124	O	0.526233	0.543841	0.999224
O125	O	0.070257	0.043872	0.619341
O126	O	0.570257	0.543872	1.119341
O127	O	0.060690	-0.059448	0.533654
O128	O	0.560690	0.440552	1.033654
O129	O	0.164647	-0.059431	0.533363
O130	O	0.664647	0.440569	1.033363
O131	O	0.000756	-0.059434	0.654062
O132	O	0.500756	0.440566	1.154062
Cu133	Cu	0.085848	-0.068863	0.596857
Cu134	Cu	0.585848	0.431137	1.096857
Cu135	Cu	0.045099	0.053287	0.556138
Cu136	Cu	0.545099	0.553287	1.056138
O137	O	0.104714	-0.059417	0.653771
O138	O	0.604714	0.440583	1.153771
N139	N	0.016435	0.139202	0.527497
N140	N	0.516435	0.639202	1.027497
N141	N	0.114760	-0.592585	1.063190
N142	N	0.614760	-0.092585	1.563190
O143	O	0.108896	-0.740779	1.261808
O144	O	0.608896	-0.240779	1.761808
O145	O	-0.011787	-0.576838	1.261822
O146	O	0.488213	-0.076838	1.761822
O147	O	-0.011509	-0.680779	1.261780
O148	O	0.488491	-0.180779	1.761780
O149	O	0.108618	-0.636838	1.261850
O150	O	0.608618	-0.136838	1.761850
O151	O	0.022916	-0.646341	1.158496
O152	O	0.522916	-0.146341	1.658496
O153	O	0.022638	-0.542399	1.158538
O154	O	0.522638	-0.042399	1.658538
O155	O	0.143321	-0.706341	1.158524
O156	O	0.643321	-0.206341	1.658524
Cu157	Cu	0.086123	-0.621225	1.149100
Cu158	Cu	0.586123	-0.121225	1.649100
Cu159	Cu	0.045411	-0.661953	1.271246
Cu160	Cu	0.545411	-0.161953	1.771246
O161	O	0.143044	-0.602399	1.158566
O162	O	0.643044	-0.102399	1.658566
N163	N	0.016774	-0.690600	1.357156
N164	N	0.516774	-0.190600	1.857156
C165	C	0.039504	-0.538867	0.499769
C166	C	0.539504	-0.038867	0.999769
C167	C	0.168130	-0.667407	0.499680
C168	C	0.668130	-0.167407	0.999680
C169	C	0.091482	-0.744243	0.653289
C170	C	0.591482	-0.244243	1.153289
C171	C	-0.037145	-0.615703	0.653378
C172	C	0.462855	-0.115703	1.153378
C173	C	0.699429	-0.718429	0.678853
C174	C	1.199429	-0.218429	1.178853
C175	C	0.699348	-0.718091	0.550135
C176	C	1.199348	-0.218091	1.050135
C177	C	0.699202	-0.564465	0.473677
C178	C	1.199202	-0.064465	0.973677
C179	C	0.699287	-0.564805	0.602393
C180	C	1.199287	-0.064805	1.102393
C181	C	0.168023	-0.007659	0.499484
C182	C	0.668023	0.492341	0.999484
C183	C	0.039327	-0.007807	0.499887
C184	C	0.539327	0.492193	0.999887
C185	C	-0.037119	-0.007789	0.653468
C186	C	0.462881	0.492211	1.153468
C187	C	0.091620	-0.007770	0.653109
C188	C	0.591620	0.492230	1.153109
C189	C	-0.011194	-0.538964	1.210181
C190	C	0.488806	-0.038964	1.710181
C191	C	-0.010843	-0.667676	1.210109
C192	C	0.489157	-0.167676	1.710109
C193	C	0.142729	-0.744214	1.210165
C194	C	0.642729	-0.244214	1.710165
C195	C	0.142386	-0.615494	1.210214
C196	C	0.642386	-0.115494	1.710214
H197	H	0.059391	-0.503396	0.940172
H198	H	0.559391	-0.003396	1.440172
H199	H	0.180620	-0.791296	1.210154
H200	H	0.680620	-0.291296	1.710154
C201	C	-0.040238	-0.436957	1.210212
C202	C	0.459762	0.063043	1.710212
C203	C	-0.062346	-0.475404	1.210186
C204	C	0.437654	0.024596	1.710186
H205	H	-0.071820	-0.397719	1.210219
H206	H	0.428180	0.102281	1.710219
H207	H	-0.004954	-0.431524	1.174204
H208	H	0.495046	0.068476	1.674204
H209	H	-0.028957	-0.455549	1.246239
H210	H	0.471043	0.044451	1.746239
H211	H	-0.073623	-0.456814	1.174157
H212	H	0.426377	0.043186	1.674157
H213	H	-0.097642	-0.480835	1.246198
H214	H	0.402358	0.019165	1.746198
H215	H	-0.048566	-0.677061	1.210046
H216	H	0.451434	-0.177061	1.710046
H217	H	0.030155	-0.491745	0.461969
H218	H	0.530155	0.008255	0.961969
C219	C	0.068864	-0.060924	0.432282
C220	C	0.568864	0.439076	0.932282
C221	C	0.026622	-0.007823	0.448937
C222	C	0.526622	0.492177	0.948937
H223	H	0.061026	-0.060932	0.400824
H224	H	0.561026	0.439068	0.900824
H225	H	0.064238	-0.096932	0.467601
H226	H	0.564238	0.403068	0.967601
H227	H	0.109977	-0.060913	0.417116
H228	H	0.609977	0.439087	0.917116
H229	H	-0.014491	-0.007836	0.464107
H230	H	0.485509	0.492164	0.964107
H231	H	0.031243	0.028195	0.413610
H232	H	0.531243	0.528195	0.913610
H233	H	0.180125	-0.606093	1.210228
H234	H	0.680125	-0.106093	1.710228
C235	C	0.699531	-0.822738	0.742460
C236	C	1.199531	-0.322738	1.242460
C237	C	0.699498	-0.769594	0.742390
C238	C	1.199498	-0.269594	1.242390
H239	H	0.699571	-0.854323	0.781686
H240	H	1.199571	-0.354323	1.281686
H241	H	0.735534	-0.836953	0.710850
H242	H	1.235534	-0.336953	1.210850
H243	H	0.663501	-0.812980	0.734900
H244	H	1.163501	-0.312980	1.234900
H245	H	0.735530	-0.779352	0.749945
H246	H	1.235530	-0.279352	1.249945
H247	H	0.663491	-0.755378	0.774009
H248	H	1.163491	-0.255378	1.274009
C249	C	-0.030596	-0.500857	1.025129
C250	C	0.469404	-0.000857	1.525129
C251	C	0.001936	-0.538255	1.067377
C252	C	0.501936	-0.038255	1.567377
H253	H	-0.073965	-0.490194	1.047199
H254	H	0.426035	0.009806	1.547199
H255	H	-0.019952	-0.522909	0.999769
H256	H	0.480048	-0.022909	1.499769
H257	H	-0.019940	-0.464100	0.999773
H258	H	0.480060	0.035900	1.499773
H259	H	-0.008717	-0.575014	1.092730
H260	H	0.491283	-0.075014	1.592730
H261	H	-0.008713	-0.516203	1.092747
H262	H	0.491287	-0.016203	1.592747
C263	C	0.065605	-0.244867	0.813539
C264	C	0.565605	0.255133	1.313539
C265	C	0.102979	-0.287123	0.781022
C266	C	0.602979	0.212877	1.281022
H267	H	0.054973	-0.266933	0.856912
H268	H	0.554973	0.233067	1.356912
H269	H	0.028839	-0.219512	0.802891
H270	H	0.528839	0.280488	1.302891
H271	H	0.087661	-0.219506	0.802872
H272	H	0.587661	0.280494	1.302872
H273	H	0.080921	-0.312482	0.791685
H274	H	0.580921	0.187518	1.291685
H275	H	0.139751	-0.312490	0.791675
H276	H	0.639751	0.187510	1.291675
C277	C	0.051439	-0.007759	0.757327
C278	C	0.551439	0.492241	1.257327
C279	C	0.104337	-0.007760	0.704054
C280	C	0.604337	0.492240	1.204054
H281	H	0.059290	-0.007749	0.788776
H282	H	0.559290	0.492251	1.288776
H283	H	0.041594	-0.043779	0.771674
H284	H	0.541594	0.456221	1.271674
H285	H	0.017559	0.028260	0.747659
H286	H	0.517559	0.528260	1.247659
H287	H	0.138215	-0.043782	0.713720
H288	H	0.638215	0.456218	1.213720
H289	H	0.114190	0.028263	0.689705
H290	H	0.614190	0.528263	1.189705
C291	C	0.285504	-0.658904	1.025021
C292	C	0.785504	-0.158904	1.525021
C293	C	0.224841	-0.649701	1.067299
C294	C	0.724841	-0.149701	1.567299
H295	H	0.314191	-0.684281	1.047067
H296	H	0.814191	-0.184281	1.547067
H297	H	0.291734	-0.619939	0.999674
H298	H	0.791734	-0.119939	1.499674
H299	H	0.291729	-0.678743	0.999655
H300	H	0.791729	-0.178743	1.499655
H301	H	0.218614	-0.629858	1.092662
H302	H	0.718614	-0.129858	1.592662
H303	H	0.218609	-0.688674	1.092657
H304	H	0.718609	-0.188674	1.592657
C305	C	0.223091	0.045925	0.396341
C306	C	0.723091	0.545925	0.896341
C307	C	0.231431	-0.007279	0.448195
C308	C	0.731431	0.492721	0.948195
H309	H	0.262237	0.046153	0.364676
H310	H	0.762237	0.546153	0.864676
H311	H	0.204379	0.081862	0.407782
H312	H	0.704379	0.581862	0.907782
H313	H	0.197007	0.045835	0.381390
H314	H	0.697007	0.545835	0.881390
H315	H	0.257511	-0.007186	0.463148
H316	H	0.757511	0.492814	0.963148
H317	H	0.250152	-0.043226	0.436752
H318	H	0.750152	0.456774	0.936752
C319	C	0.097251	-0.799908	0.756347
C320	C	0.597251	-0.299908	1.256347
C321	C	0.104098	-0.807854	0.704321
C322	C	0.604098	-0.307854	1.204321
H323	H	0.105044	-0.839180	0.787850
H324	H	0.605044	-0.339180	1.287850
H325	H	0.056147	-0.773901	0.771452
H326	H	0.556147	-0.273901	1.271452
H327	H	0.125929	-0.781265	0.745024
H328	H	0.625929	-0.281265	1.245024
H329	H	0.075417	-0.826493	0.715644
H330	H	0.575417	-0.326493	1.215644
H331	H	0.145209	-0.833871	0.689214
H332	H	0.645209	-0.333871	1.189214
H333	H	0.699142	-0.526565	0.426612
H334	H	1.199142	-0.026565	0.926612
C335	C	0.242821	-0.729844	0.434283
C336	C	0.742821	-0.229844	0.934283
C337	C	0.231702	-0.679938	0.448593
C338	C	0.731702	-0.179938	0.948593
H339	H	0.282069	-0.737582	0.402747
H340	H	0.782069	-0.237582	0.902747
H341	H	0.211239	-0.720013	0.420021
H342	H	0.711239	-0.220013	0.920021
H343	H	0.242706	-0.765787	0.470376
H344	H	0.742706	-0.265787	0.970376
H345	H	0.231812	-0.643994	0.412500
H346	H	0.731812	-0.143994	0.912500
H347	H	0.263292	-0.689767	0.462853
H348	H	0.763292	-0.189767	0.962853
H349	H	0.252044	-0.599714	0.940097
H350	H	0.752044	-0.099714	1.440097
H351	H	-0.084187	-0.007791	0.691362
H352	H	0.415813	0.492209	1.191362
C353	C	0.699210	-0.460562	0.562196
C354	C	1.199210	0.039438	1.062196
C355	C	0.699273	-0.513843	0.615096
C356	C	1.199273	-0.013843	1.115096
H357	H	0.699206	-0.429102	0.570037
H358	H	1.199206	0.070898	1.070037
H359	H	0.663178	-0.446233	0.552369
H360	H	1.163178	0.053767	1.052369
H361	H	0.735210	-0.470214	0.528307
H362	H	1.235210	0.029786	1.028307
H363	H	0.663270	-0.504192	0.648983
H364	H	1.163270	-0.004192	1.148983
H365	H	0.735309	-0.528174	0.624930
H366	H	1.235309	-0.028174	1.124930
C367	C	0.009843	-0.438526	0.692787
C368	C	0.509843	0.061474	1.192787
C369	C	0.047240	-0.492715	0.725297
C370	C	0.547240	0.007285	1.225297
H371	H	-0.018818	-0.413162	0.718156
H372	H	0.481182	0.086838	1.218156
H373	H	-0.012211	-0.449186	0.682135
H374	H	0.487789	0.050814	1.182135
H375	H	0.035199	-0.416475	0.656026
H376	H	0.535199	0.083525	1.156026
H377	H	0.021885	-0.514768	0.762056
H378	H	0.521885	-0.014768	1.262056
H379	H	0.069296	-0.482055	0.735958
H380	H	0.569296	0.017945	1.235958
C381	C	-0.025135	-0.560282	0.744477
C382	C	0.474865	-0.060282	1.244477
C383	C	0.001733	-0.538216	0.679816
C384	C	0.501733	-0.038216	1.179816
H385	H	-0.068508	-0.549638	0.755146
H386	H	0.431492	-0.049638	1.255146
H387	H	-0.018275	-0.542027	0.762732
H388	H	0.481725	-0.042027	1.262732
H389	H	-0.006848	-0.604149	0.759403
H390	H	0.493152	-0.104149	1.259403
H391	H	-0.016551	-0.494348	0.664890
H392	H	0.483449	0.005652	1.164890
H393	H	-0.005132	-0.556468	0.661554
H394	H	0.494868	-0.056468	1.161554
H395	H	0.699366	-0.755841	0.540718
H396	H	1.199366	-0.255841	1.040718
H397	H	0.212545	-0.638970	0.578981
H398	H	0.712545	-0.138970	1.078981
H399	H	0.429307	-0.646943	0.702793
H400	H	0.929307	-0.146943	1.202793
C401	C	0.302579	-0.641491	0.576397
C402	C	0.802579	-0.141491	1.076397
C403	C	0.270085	-0.604119	0.613796
C404	C	0.770085	-0.104119	1.113796
H405	H	0.345954	-0.652140	0.565723
H406	H	0.845954	-0.152140	1.065723
H407	H	0.291889	-0.619427	0.539655
H408	H	0.791889	-0.119427	1.039655
H409	H	0.291938	-0.678256	0.598457
H410	H	0.791938	-0.178256	1.098457
H411	H	0.280723	-0.567350	0.591734
H412	H	0.780723	-0.067350	1.091734
H413	H	0.280780	-0.626183	0.650545
H414	H	0.780780	-0.126183	1.150545
H415	H	0.547206	-0.495421	0.590679
H416	H	1.047206	0.004579	1.090679
C417	C	0.540776	-0.724144	0.637116
C418	C	1.040776	-0.224144	1.137116
C419	C	0.556507	-0.704333	0.666073
C420	C	1.056507	-0.204333	1.166073
H421	H	0.562839	-0.767188	0.643371
H422	H	1.062839	-0.267188	1.143371
H423	H	0.551412	-0.701477	0.593890
H424	H	1.051412	-0.201477	1.093890
H425	H	0.497407	-0.717210	0.654458
H426	H	0.997407	-0.217210	1.154458
H427	H	0.599875	-0.711262	0.648728
H428	H	1.099875	-0.211262	1.148728
H429	H	0.545874	-0.727007	0.709308
H430	H	1.045874	-0.227007	1.209308
C431	C	0.462252	-0.405959	0.595697
C432	C	0.962252	0.094041	1.095697
C433	C	0.419999	-0.438029	0.627393
C434	C	0.919999	0.061971	1.127393
H435	H	0.440188	-0.362915	0.589447
H436	H	0.940188	0.137085	1.089447
H437	H	0.487593	-0.411990	0.556639
H438	H	0.987593	0.088010	1.056639
H439	H	0.487624	-0.421216	0.619516
H440	H	0.987624	0.078784	1.119516
H441	H	0.394630	-0.422775	0.603571
H442	H	0.894630	0.077225	1.103571
H443	H	0.394648	-0.431994	0.666457
H444	H	0.894648	0.068006	1.166457
H445	H	-0.084239	-0.606419	0.691217
H446	H	0.415761	-0.106419	1.191217
H447	H	0.203661	-0.277820	0.570179
H448	H	0.703661	0.222180	1.070179
H449	H	0.164306	-0.159876	0.530897
H450	H	0.664306	0.340124	1.030897
H451	H	0.068098	-0.159910	0.723527
H452	H	0.568098	0.340090	1.223527
