data_functionalizedCrystal
_audit_creation_method	'MofGen! by Chris Wilmer'
_symmetry_space_group_name_H-M	'P1'
_symmetry_Int_Tables_number	1
_symmetry_cell_setting	triclinic
loop_
_symmetry_equiv_pos_as_xyz
  x,y,z
_cell_length_a	19.805407
_cell_length_b	19.805399
_cell_length_c	19.805405
_cell_angle_alpha	90.026615
_cell_angle_beta	89.971334
_cell_angle_gamma	89.979591
loop_
_atom_site_label
_atom_site_type_symbol
_atom_site_fract_x
_atom_site_fract_y
_atom_site_fract_z
Zn1	Zn	1.034734	-0.382739	0.269444
Zn2	Zn	1.034648	-0.269553	0.382632
Zn3	Zn	0.921549	-0.269562	0.269466
Zn4	Zn	0.921512	-0.382698	0.382600
O5	O	0.978111	-0.326138	0.326036
O6	O	1.129439	-0.367738	0.284463
O7	O	1.019625	-0.174838	0.367643
O8	O	0.936615	-0.284597	0.174747
O9	O	1.129376	-0.284581	0.367622
O10	O	1.019771	-0.367747	0.174730
O11	O	0.936531	-0.174844	0.284501
O12	O	0.826827	-0.284557	0.284470
O13	O	0.936551	-0.477420	0.367567
O14	O	0.826800	-0.367677	0.367589
O15	O	1.019735	-0.477450	0.284431
O16	O	1.019589	-0.284541	0.477345
O17	O	0.936468	-0.367668	0.477321
C18	C	0.802255	-0.326114	0.326029
C19	C	0.727023	-0.326119	0.326042
C20	C	0.978149	-0.502681	0.325993
C21	C	0.978165	-0.577913	0.325975
C22	C	0.265268	-0.369531	0.282816
C23	C	0.335957	-0.369526	0.282817
C24	C	0.371261	-0.326160	0.326046
C25	C	0.335874	-0.282801	0.369281
C26	C	0.265186	-0.282810	0.369283
C27	C	0.620947	-0.282765	0.369276
C28	C	0.691639	-0.282758	0.369270
C29	C	0.691717	-0.369481	0.282810
C30	C	0.621030	-0.369490	0.282812
C31	C	0.585648	-0.326134	0.326049
C32	C	0.509000	-0.326141	0.326048
C33	C	0.447908	-0.326149	0.326044
C34	C	1.021480	-0.613274	0.282684
C35	C	1.021487	-0.683962	0.282664
C36	C	0.978182	-0.719289	0.325939
C37	C	0.934862	-0.683923	0.369232
C38	C	0.934852	-0.613235	0.369248
C39	C	0.934900	-0.968996	0.369169
C40	C	0.934915	-1.039688	0.369151
C41	C	1.021535	-1.039723	0.282586
C42	C	1.021525	-0.969036	0.282601
C43	C	0.978203	-0.933676	0.325891
C44	C	0.978195	-0.857028	0.325911
C45	C	0.978193	-0.795936	0.325923
C46	C	1.154654	-0.326163	0.326043
C47	C	1.229885	-0.326174	0.326046
C48	C	0.978034	-0.326114	0.501892
C49	C	0.978063	-0.326126	0.577124
C50	C	0.978112	-0.150282	0.326029
C51	C	0.978227	-0.075051	0.325857
C52	C	0.978207	-0.326178	0.149493
C53	C	0.978248	-0.326194	0.074261
C54	C	1.021337	-0.369456	0.612401
C55	C	1.021361	-0.369469	0.683089
C56	C	0.978114	-0.326147	0.718499
C57	C	0.934835	-0.282815	0.683217
C58	C	0.934808	-0.282806	0.612530
C59	C	0.934944	-0.282849	0.968290
C60	C	0.934976	-0.282860	1.038982
C61	C	1.021497	-0.369512	1.038850
C62	C	1.021470	-0.369504	0.968163
C63	C	0.978189	-0.326174	0.932887
C64	C	0.978162	-0.326162	0.856238
C65	C	0.978144	-0.326155	0.795146
H66	H	0.236528	-0.404840	0.247609
C67	C	0.888071	-0.235764	0.929906
C68	C	0.926405	-0.192427	0.889302
C69	C	0.883248	-0.149047	0.853922
H70	H	0.862305	-0.209898	0.961040
H71	H	0.858563	-0.261606	0.902304
H72	H	0.955901	-0.166588	0.916902
H73	H	0.952169	-0.218275	0.858155
H74	H	0.853740	-0.174888	0.826320
H75	H	0.857484	-0.123185	0.885061
H76	H	0.909250	-0.119641	0.826363
H77	H	0.364624	-0.247494	0.404482
H78	H	0.899648	-1.068449	0.404392
H79	H	0.899600	-0.712691	0.404465
C80	C	0.374250	-0.416620	0.235800
C81	C	0.328202	-0.454582	0.197925
C82	C	0.363453	-0.497966	0.154597
H83	H	0.401830	-0.446126	0.261649
H84	H	0.401811	-0.390787	0.206241
H85	H	0.300652	-0.480413	0.227480
H86	H	0.300621	-0.425093	0.172063
H87	H	0.391014	-0.472133	0.125039
H88	H	0.391032	-0.527468	0.180451
H89	H	0.332215	-0.523724	0.128890
C90	C	0.582822	-0.416648	0.235852
C91	C	0.628939	-0.454632	0.198005
C92	C	0.593768	-0.498090	0.154747
H93	H	0.555245	-0.390889	0.206268
H94	H	0.555264	-0.446132	0.261771
H95	H	0.656485	-0.425152	0.172088
H96	H	0.656517	-0.480405	0.227571
H97	H	0.566210	-0.527575	0.180665
H98	H	0.566192	-0.472326	0.125167
H99	H	0.625053	-0.523872	0.129067
H100	H	0.592148	-0.247460	0.404481
C101	C	0.888087	-0.235854	1.077551
C102	C	0.897391	-0.245125	1.147006
C103	C	0.854217	-0.201832	1.182556
H104	H	0.842573	-0.245678	1.066085
H105	H	0.898015	-0.190368	1.066025
H106	H	0.887459	-0.290601	1.158527
H107	H	0.942896	-0.235296	1.158491
H108	H	0.864145	-0.156346	1.171030
H109	H	0.808706	-0.211660	1.171085
H110	H	0.860528	-0.208112	1.229684
C111	C	0.730254	-0.416536	0.235944
C112	C	0.799716	-0.407265	0.245206
C113	C	0.835235	-0.450603	0.202051
H114	H	0.718769	-0.406753	0.190427
H115	H	0.718723	-0.462011	0.245915
H116	H	0.811243	-0.361800	0.235230
H117	H	0.811222	-0.417053	0.290714
H118	H	0.823704	-0.496078	0.212022
H119	H	0.823744	-0.440816	0.156537
H120	H	0.882368	-0.444323	0.208334
C121	C	1.068552	-0.416596	1.077029
C122	C	1.106431	-0.454520	1.030887
C123	C	1.149788	-0.497893	1.066031
H124	H	1.042725	-0.446126	1.104607
H125	H	1.098107	-0.390756	1.104583
H126	H	1.076879	-0.480357	1.003345
H127	H	1.132272	-0.425007	1.003307
H128	H	1.179343	-0.472054	1.093585
H129	H	1.123956	-0.527419	1.093608
H130	H	1.175498	-0.523625	1.034729
C131	C	1.068504	-0.930560	0.235678
C132	C	1.059232	-0.861087	0.244965
C133	C	1.102497	-0.825624	0.201750
H134	H	1.058656	-0.942078	0.190174
H135	H	1.113997	-0.942106	0.245578
H136	H	1.013749	-0.849546	0.235061
H137	H	1.069085	-0.849549	0.290460
H138	H	1.147990	-0.837169	0.211650
H139	H	1.092645	-0.837147	0.156249
H140	H	1.096216	-0.778483	0.208050
H141	H	0.236379	-0.247505	0.404487
H142	H	0.720382	-0.247443	0.404475
C143	C	0.887742	-0.574810	0.416143
C144	C	0.844359	-0.534242	0.377829
C145	C	0.800943	-0.498844	0.421005
H146	H	0.913534	-0.547178	0.445656
H147	H	0.861916	-0.605954	0.441901
H148	H	0.870182	-0.503101	0.352082
H149	H	0.818552	-0.561856	0.348317
H150	H	0.775117	-0.529989	0.446764
H151	H	0.826740	-0.471216	0.450517
H152	H	0.771498	-0.471320	0.395016
C153	C	1.068414	-0.574960	0.235584
C154	C	1.053700	-0.592157	0.168611
C155	C	1.096915	-0.556872	0.125200
H156	H	1.113912	-0.586524	0.245398
H157	H	1.062202	-0.527790	0.241745
H158	H	1.059918	-0.639317	0.162453
H159	H	1.008210	-0.580591	0.158776
H160	H	1.090703	-0.509702	0.131362
H161	H	1.142410	-0.568439	0.135020
H162	H	1.086933	-0.568531	0.079755
C163	C	0.887768	-0.235863	0.721625
C164	C	0.820783	-0.250547	0.704497
C165	C	0.777406	-0.207313	0.739870
H166	H	0.897606	-0.190369	0.710087
H167	H	0.893937	-0.242078	0.768783
H168	H	0.814616	-0.244326	0.657350
H169	H	0.810924	-0.296033	0.716037
H170	H	0.783575	-0.213528	0.787028
H171	H	0.787250	-0.161822	0.728329
H172	H	0.731951	-0.217274	0.728259
H173	H	1.056556	-0.404731	0.583575
C174	C	1.068432	-0.416527	0.721268
C175	C	1.106321	-0.454443	0.675129
C176	C	1.149703	-0.497790	0.710274
H177	H	1.042622	-0.446064	0.748856
H178	H	1.097980	-0.390669	0.748813
H179	H	1.076777	-0.480298	0.647595
H180	H	1.132145	-0.424924	0.647539
H181	H	1.179250	-0.471933	0.737818
H182	H	1.123887	-0.527323	0.737860
H183	H	1.175419	-0.523517	0.678973
H184	H	0.899569	-0.247523	0.583808
H185	H	0.899635	-0.940215	0.404428
H186	H	1.056688	-0.404778	0.939334
C187	C	1.068453	-1.078150	0.235492
C188	C	1.030159	-1.118718	0.192083
C189	C	1.073356	-1.154117	0.148689
H190	H	1.097947	-1.105783	0.261299
H191	H	1.094231	-1.047007	0.209685
H192	H	1.004392	-1.149857	0.217888
H193	H	1.000666	-1.091102	0.166262
H194	H	1.099134	-1.122974	0.122881
H195	H	1.102848	-1.181746	0.174501
H196	H	1.047379	-1.181641	0.119226
H197	H	1.056760	-0.712750	0.247414
