data_functionalizedCrystal
_audit_creation_method	'MofGen! by Chris Wilmer'
_symmetry_space_group_name_H-M	'P1'
_symmetry_Int_Tables_number	1
_symmetry_cell_setting	triclinic
loop_
_symmetry_equiv_pos_as_xyz
  x,y,z
_cell_length_a	12.759401
_cell_length_b	21.295417
_cell_length_c	12.759393
_cell_angle_alpha	89.961880
_cell_angle_beta	89.981287
_cell_angle_gamma	90.032032
loop_
_atom_site_label
_atom_site_type_symbol
_atom_site_fract_x
_atom_site_fract_y
_atom_site_fract_z
Zn1	Zn	1.606128	-0.250553	-0.593965
Zn2	Zn	1.605977	-0.355835	-0.418261
Zn3	Zn	1.430433	-0.250587	-0.418300
Zn4	Zn	1.430370	-0.355791	-0.593899
O5	O	1.518227	-0.303191	-0.506106
O6	O	1.753129	-0.264523	-0.570669
O7	O	1.582655	-0.341906	-0.271245
O8	O	1.453829	-0.162493	-0.441646
O9	O	1.753018	-0.341874	-0.441580
O10	O	1.582911	-0.162468	-0.570706
O11	O	1.453683	-0.264580	-0.271274
O12	O	1.283404	-0.264538	-0.441582
O13	O	1.453721	-0.341799	-0.740929
O14	O	1.283357	-0.341831	-0.570594
O15	O	1.582850	-0.264481	-0.740977
O16	O	1.582593	-0.443919	-0.441516
O17	O	1.453575	-0.443886	-0.570556
C18	C	1.245260	-0.303184	-0.506085
C19	C	1.128483	-0.303196	-0.506101
C20	C	1.518089	-0.466743	-0.506048
C21	C	1.518127	-0.536711	-0.506058
C22	C	1.073624	-0.343503	-0.573172
C23	C	0.963900	-0.343506	-0.573193
C24	C	0.963903	-0.262891	-0.439063
C25	C	1.073626	-0.262886	-0.439048
C26	C	0.813989	-0.366093	-0.697048
C27	C	0.759127	-0.406411	-0.764110
C28	C	0.794696	-0.467844	-0.780044
C29	C	0.885125	-0.488971	-0.728901
C30	C	0.939982	-0.448657	-0.661832
C31	C	0.904415	-0.387215	-0.645918
C32	C	1.223539	-0.240305	-0.315192
C33	C	1.278397	-0.199993	-0.248116
C34	C	1.242831	-0.138559	-0.232171
C35	C	1.152398	-0.117434	-0.283295
C36	C	1.097539	-0.157746	-0.350371
C37	C	1.133113	-0.219179	-0.366317
C38	C	1.585366	-0.569574	-0.438936
C39	C	1.585415	-0.635316	-0.438960
C40	C	1.518206	-0.668194	-0.506094
C41	C	1.450962	-0.635323	-0.573230
C42	C	1.450922	-0.569582	-0.573212
N43	N	1.426299	-0.771460	-0.514097
N44	N	1.426340	-0.833912	-0.514108
C45	C	1.518324	-0.866268	-0.506155
N46	N	1.610268	-0.833814	-0.498169
N47	N	1.610226	-0.771357	-0.498153
C48	C	1.518243	-0.739479	-0.506122
C49	C	1.585622	-0.970416	-0.439054
C50	C	1.585673	-1.036160	-0.439085
C51	C	1.451211	-1.036166	-0.573350
C52	C	1.451170	-0.970423	-0.573325
C53	C	1.518374	-0.937553	-0.506171
C54	C	1.792260	-0.303200	-0.506128
C55	C	1.909037	-0.303203	-0.506137
C56	C	1.518295	-0.303131	-0.780140
C57	C	1.518324	-0.303105	-0.896916
C58	C	1.518394	-0.139001	-0.506188
C59	C	1.518465	-0.069033	-0.506222
C60	C	1.451110	-0.343346	-0.951755
C61	C	1.451147	-0.343322	-1.061479
C62	C	1.585617	-0.262812	-1.061517
C63	C	1.585584	-0.262839	-0.951794
C64	C	1.413576	-0.417523	-1.211397
C65	C	1.346345	-0.457758	-1.266239
C66	C	1.243810	-0.467428	-1.230621
C67	C	1.208485	-0.436853	-1.140163
C68	C	1.275710	-0.396613	-1.085327
C69	C	1.378260	-0.386956	-1.120943
C70	C	1.623144	-0.188638	-0.801875
C71	C	1.690365	-0.148394	-0.747036
C72	C	1.792901	-0.138718	-0.782652
C73	C	1.828223	-0.169282	-0.873113
C74	C	1.761002	-0.209526	-0.927952
C75	C	1.658466	-0.219202	-0.892329
C76	C	1.518220	-0.303206	-0.233139
C77	C	1.518395	-0.303055	-0.116363
H78	H	1.013607	-0.465858	-0.620192
C79	C	1.659264	-0.533417	-0.365051
H80	H	1.649598	-0.489556	-0.374637
H81	H	1.729862	-0.544136	-0.380460
H82	H	1.643896	-0.544243	-0.294456
C83	C	1.377033	-0.671485	-0.647074
H84	H	1.386678	-0.715346	-0.637464
H85	H	1.392361	-0.660670	-0.717676
H86	H	1.306441	-0.660756	-0.631626
C87	C	1.526371	-0.406894	-1.250568
H88	H	1.561357	-0.378558	-1.204947
H89	H	1.524613	-0.389767	-1.319306
H90	H	1.562739	-0.445803	-1.251599
H91	H	1.640348	-0.943652	-0.384377
H92	H	1.396493	-1.062934	-0.628017
C93	C	1.510359	-0.199296	-0.762682
H94	H	1.475391	-0.227650	-0.808285
H95	H	1.473961	-0.160400	-0.761635
H96	H	1.512152	-0.216427	-0.693941
C97	C	1.133970	-0.387840	-0.646926
H98	H	1.207174	-0.382071	-0.637305
H99	H	1.116031	-0.378683	-0.717549
H100	H	1.115942	-0.430126	-0.631409
C101	C	0.903562	-0.218556	-0.365304
H102	H	0.951951	-0.194545	-0.325364
H103	H	0.860718	-0.242604	-0.319457
H104	H	0.860801	-0.191157	-0.405592
H105	H	1.396336	-0.376129	-0.907076
C106	C	1.659373	-0.671473	-0.365114
H107	H	1.699385	-0.642480	-0.325113
H108	H	1.705145	-0.697077	-0.405342
H109	H	1.619205	-0.697160	-0.319311
C110	C	1.169856	-0.511686	-1.290940
H111	H	1.103724	-0.513062	-1.256779
H112	H	1.199172	-0.552664	-1.292778
H113	H	1.161036	-0.496627	-1.360480
C114	C	1.377192	-0.934273	-0.647147
H115	H	1.337164	-0.963267	-0.687128
H116	H	1.417335	-0.908580	-0.692953
H117	H	1.331420	-0.908675	-0.606898
C118	C	1.659640	-1.072309	-0.365246
H119	H	1.699648	-1.043314	-0.325246
H120	H	1.705415	-1.097909	-0.405478
H121	H	1.619480	-1.098000	-0.319443
H122	H	1.352033	-0.217199	-0.206488
H123	H	1.123426	-0.067414	-0.270296
H124	H	0.685499	-0.389203	-0.805751
C125	C	0.998070	-0.134507	-0.406616
H126	H	0.984746	-0.092144	-0.387522
H127	H	0.940180	-0.159936	-0.386746
H128	H	1.007932	-0.137095	-0.480289
H129	H	1.396167	-0.542825	-0.627872
C130	C	0.924243	-0.556550	-0.746425
H131	H	0.878626	-0.577532	-0.793700
H132	H	0.925246	-0.578322	-0.681431
H133	H	0.992992	-0.555485	-0.774981
C134	C	1.651504	-0.114761	-0.647544
H135	H	1.580810	-0.126289	-0.634180
H136	H	1.655787	-0.070615	-0.657398
H137	H	1.693934	-0.126639	-0.589671
H138	H	1.246948	-0.371717	-1.011680
H139	H	1.124986	-0.444723	-1.111178
H140	H	1.375116	-0.482652	-1.339890
C141	C	0.734353	-0.512190	-0.853815
H142	H	0.675409	-0.490809	-0.881994
H143	H	0.711338	-0.547973	-0.815717
H144	H	0.779086	-0.525135	-0.909265
C145	C	1.659584	-0.218517	-1.121886
H146	H	1.649970	-0.224258	-1.195087
H147	H	1.730161	-0.227733	-1.103906
H148	H	1.644236	-0.176224	-1.103917
H149	H	1.789767	-0.234410	-1.001614
H150	H	1.911714	-0.161400	-0.902117
H151	H	0.785027	-0.316068	-0.684091
H152	H	1.287502	-0.105740	-0.177544
H153	H	1.252513	-0.290327	-0.328178
H154	H	1.847627	-0.105941	-0.738000
