data_functionalizedCrystal
_audit_creation_method	'MofGen! by Chris Wilmer'
_symmetry_space_group_name_H-M	'P1'
_symmetry_Int_Tables_number	1
_symmetry_cell_setting	triclinic
loop_
_symmetry_equiv_pos_as_xyz
  x,y,z
_cell_length_a	19.288864
_cell_length_b	19.188930
_cell_length_c	18.366186
_cell_angle_alpha	89.988632
_cell_angle_beta	89.977106
_cell_angle_gamma	83.140512
loop_
_atom_site_label
_atom_site_type_symbol
_atom_site_fract_x
_atom_site_fract_y
_atom_site_fract_z
O1	O	0.921359	0.087099	-0.060791
O2	O	1.254693	0.420432	0.272542
O3	O	1.588026	0.753766	0.605875
O4	O	0.719099	0.098849	-0.060743
O5	O	1.052433	0.432182	0.272591
O6	O	1.385766	0.765515	0.605924
O7	O	0.826066	-0.008682	-0.060754
O8	O	1.159400	0.324651	0.272579
O9	O	1.492733	0.657984	0.605913
O10	O	0.814393	0.194630	-0.060780
O11	O	1.147726	0.527963	0.272554
O12	O	1.481059	0.861297	0.605887
O13	O	0.826048	-0.008687	0.060345
O14	O	1.159381	0.324646	0.393679
O15	O	1.492715	0.657979	0.727012
O16	O	0.719081	0.098843	0.060357
O17	O	1.052415	0.432177	0.393690
O18	O	1.385748	0.765510	0.727023
O19	O	0.921341	0.087094	0.060308
O20	O	1.254674	0.420427	0.393641
O21	O	1.588008	0.753761	0.726975
Zn22	Zn	0.820208	0.092968	0.079560
Zn23	Zn	1.153542	0.426301	0.412893
Zn24	Zn	1.486875	0.759634	0.746226
Zn25	Zn	0.820232	0.092975	-0.079994
Zn26	Zn	1.153566	0.426308	0.253339
Zn27	Zn	1.486899	0.759641	0.586673
O28	O	0.814374	0.194625	0.060320
O29	O	1.147708	0.527958	0.393653
O30	O	1.481041	0.861291	0.726986
C31	C	0.693214	0.098468	-0.000186
C32	C	1.026547	0.431801	0.333147
C33	C	1.359881	0.765135	0.666480
C34	C	0.616110	0.097333	-0.000167
C35	C	0.949444	0.430666	0.333166
C36	C	1.282777	0.764000	0.666499
C37	C	0.571419	0.160427	-0.000187
C38	C	0.904752	0.493761	0.333147
C39	C	1.238085	0.827094	0.666480
C40	C	0.498972	0.159361	-0.000195
C41	C	0.832305	0.492694	0.333139
C42	C	1.165638	0.826028	0.666472
C43	C	0.471219	0.095197	-0.000198
C44	C	0.804553	0.428530	0.333136
C45	C	1.137886	0.761864	0.666469
C46	C	0.515921	0.032095	-0.000174
C47	C	0.849254	0.365428	0.333159
C48	C	1.182587	0.698761	0.666493
C49	C	0.588366	0.033163	-0.000159
C50	C	0.921700	0.366496	0.333174
C51	C	1.255033	0.699829	0.666508
C52	C	0.362960	0.044759	-0.042642
C53	C	0.696293	0.378092	0.290691
C54	C	1.029626	0.711426	0.624024
C55	C	0.290515	0.043694	-0.042662
C56	C	0.623849	0.377027	0.290671
C57	C	0.957182	0.710360	0.624005
C58	C	0.247773	0.091900	-0.000241
C59	C	0.581107	0.425234	0.333092
C60	C	0.914440	0.758567	0.666425
C61	C	0.277483	0.141184	0.042190
C62	C	0.610817	0.474518	0.375523
C63	C	0.944150	0.807851	0.708856
C64	C	0.349929	0.142253	0.042205
C65	C	0.683262	0.475586	0.375538
C66	C	1.016596	0.808919	0.708872
C67	C	0.392665	0.094032	-0.000214
C68	C	0.725998	0.427365	0.333120
C69	C	1.059332	0.760699	0.666453
C70	C	0.124526	0.153843	-0.000268
C71	C	0.457859	0.487176	0.333065
C72	C	0.791192	0.820510	0.666398
C73	C	0.052078	0.152774	-0.000272
C74	C	0.385411	0.486107	0.333062
C75	C	0.718744	0.819441	0.666395
C76	C	0.069028	0.025506	-0.000259
C77	C	0.402362	0.358839	0.333075
C78	C	0.735695	0.692172	0.666408
C79	C	0.141475	0.026576	-0.000248
C80	C	0.474808	0.359910	0.333085
C81	C	0.808142	0.693243	0.666419
C82	C	0.169219	0.090747	-0.000256
C83	C	0.502552	0.424080	0.333077
C84	C	0.835886	0.757414	0.666410
C85	C	0.825679	-0.034696	-0.000202
C86	C	1.159012	0.298638	0.333131
C87	C	1.492346	0.631971	0.666464
C88	C	0.824544	-0.112200	-0.000196
C89	C	1.157878	0.221133	0.333138
C90	C	1.491211	0.554466	0.666471
C91	C	0.887309	-0.157129	-0.000207
C92	C	1.220642	0.176204	0.333126
C93	C	1.553975	0.509538	0.666459
C94	C	0.886243	-0.229953	-0.000219
C95	C	1.219576	0.103381	0.333115
C96	C	1.552909	0.436714	0.666448
C97	C	0.822408	-0.257844	-0.000204
C98	C	1.155742	0.075489	0.333129
C99	C	1.489075	0.408822	0.666463
C100	C	0.759636	-0.212906	-0.000196
C101	C	1.092969	0.120427	0.333137
C102	C	1.426302	0.453761	0.666470
C103	C	0.760704	-0.140084	-0.000192
C104	C	1.094037	0.193250	0.333141
C105	C	1.427370	0.526583	0.666474
N106	N	0.773609	-0.365847	0.041020
N107	N	1.106942	-0.032514	0.374354
N108	N	1.440275	0.300819	0.707687
N109	N	0.772598	-0.435026	0.041018
N110	N	1.105932	-0.101693	0.374351
N111	N	1.439265	0.231641	0.707685
C112	C	0.819187	-0.477253	-0.000218
C113	C	1.152520	-0.143919	0.333116
C114	C	1.485854	0.189414	0.666449
N115	N	0.866835	-0.447689	-0.041442
N116	N	1.200168	-0.114356	0.291891
N117	N	1.533501	0.218978	0.625225
N118	N	0.867847	-0.378504	-0.041436
N119	N	1.201180	-0.045171	0.291897
N120	N	1.534514	0.288162	0.625230
C121	C	0.821243	-0.336807	-0.000209
C122	C	1.154577	-0.003473	0.333125
C123	C	1.487910	0.329860	0.666458
C124	C	0.880800	-0.601146	-0.000243
C125	C	1.214133	-0.267813	0.333090
C126	C	1.547467	0.065521	0.666424
C127	C	0.879731	-0.673971	-0.000259
C128	C	1.213065	-0.340637	0.333075
C129	C	1.546398	-0.007304	0.666408
C130	C	0.753122	-0.656922	-0.000229
C131	C	1.086456	-0.323589	0.333104
C132	C	1.419789	0.009745	0.666438
C133	C	0.754193	-0.584099	-0.000220
C134	C	1.087526	-0.250766	0.333113
C135	C	1.420860	0.082568	0.666446
C136	C	0.818034	-0.556216	-0.000224
C137	C	1.151367	-0.222882	0.333109
C138	C	1.484700	0.110451	0.666443
C139	C	0.947227	0.087475	-0.000250
C140	C	1.280560	0.420808	0.333084
C141	C	1.613893	0.754141	0.666417
C142	C	1.024330	0.088609	-0.000274
C143	C	1.357664	0.421943	0.333060
C144	C	1.690997	0.755276	0.666393
C145	C	0.814762	0.220638	-0.000234
C146	C	1.148095	0.553972	0.333100
C147	C	1.481428	0.887305	0.666433
C148	C	0.815896	0.298143	-0.000245
C149	C	1.149230	0.631476	0.333088
C150	C	1.482563	0.964809	0.666422
N151	N	0.820197	0.092963	0.188451
N152	N	1.153530	0.426296	0.521784
N153	N	1.486864	0.759629	0.855117
N154	N	0.820249	0.092974	-0.188885
N155	N	1.153582	0.426308	0.144448
N156	N	1.486916	0.759641	0.477781
C157	C	0.867577	0.045371	0.226546
C158	C	1.200911	0.378705	0.559879
C159	C	1.534244	0.712038	0.893213
C160	C	0.867582	0.045368	0.302774
C161	C	1.200915	0.378701	0.636107
C162	C	1.534249	0.712035	0.969441
C163	C	0.820213	0.092968	0.340903
C164	C	1.153546	0.426302	0.674237
C165	C	1.486879	0.759635	1.007570
C166	C	0.772823	0.140563	0.302799
C167	C	1.106157	0.473897	0.636132
C168	C	1.439490	0.807230	0.969466
C169	C	0.772816	0.140560	0.226573
C170	C	1.106149	0.473894	0.559906
C171	C	1.439482	0.807227	0.893239
C172	C	0.810919	0.156585	0.461657
C173	C	1.144252	0.489919	0.794990
C174	C	1.477586	0.823252	1.128324
C175	C	0.810932	0.156589	0.537882
C176	C	1.144265	0.489922	0.871215
C177	C	1.477598	0.823256	1.204549
C178	C	0.820232	0.092977	0.576011
C179	C	1.153566	0.426310	0.909344
C180	C	1.486899	0.759644	1.242678
C181	C	0.829535	0.029359	0.537906
C182	C	1.162868	0.362692	0.871239
C183	C	1.496202	0.696025	1.204572
C184	C	0.829527	0.029356	0.461679
C185	C	1.162861	0.362689	0.795013
C186	C	1.496194	0.696022	1.128346
C187	C	0.820215	0.092977	0.423558
C188	C	1.153549	0.426310	0.756892
C189	C	1.486882	0.759643	1.090225
C190	C	0.867620	0.045378	0.696761
C191	C	1.200953	0.378712	1.030095
C192	C	1.534287	0.712045	1.363428
C193	C	0.867620	0.045374	0.772990
C194	C	1.200953	0.378708	1.106324
C195	C	1.534286	0.712041	1.439657
C196	C	0.772864	0.140576	0.773014
C197	C	1.106198	0.473909	1.106347
C198	C	1.439531	0.807242	1.439681
C199	C	0.772862	0.140574	0.696786
C200	C	1.106195	0.473907	1.030120
C201	C	1.439528	0.807240	1.363453
C202	C	0.820243	0.092976	0.658664
C203	C	1.153576	0.426309	0.991998
C204	C	1.486910	0.759642	1.325331
H205	H	0.177864	-0.024802	-0.000236
H206	H	0.511197	0.308531	0.333097
H207	H	0.844531	0.641865	0.666431
N208	N	0.918675	-0.005967	0.185428
N209	N	1.252008	0.327366	0.518761
N210	N	1.585342	0.660699	0.852095
H211	H	0.967945	0.001951	0.198667
H212	H	1.301279	0.335284	0.532000
H213	H	1.634612	0.668617	0.865334
H214	H	0.910771	-0.055478	0.198729
H215	H	1.244105	0.277855	0.532063
H216	H	1.577438	0.611188	0.865396
N217	N	0.721708	0.191891	0.185479
N218	N	1.055042	0.525224	0.518812
N219	N	1.388375	0.858557	0.852145
H220	H	0.691697	0.222044	0.221197
H221	H	1.025030	0.555377	0.554531
H222	H	1.358364	0.888711	0.887864
H223	H	0.748198	0.222691	0.153830
H224	H	1.081532	0.556024	0.487164
H225	H	1.414865	0.889358	0.820497
N226	N	0.485985	-0.037107	-0.000180
N227	N	0.819318	0.296226	0.333154
N228	N	1.152652	0.629559	0.666487
H229	H	0.502324	-0.064741	-0.045064
H230	H	0.835657	0.268593	0.288269
H231	H	1.168990	0.601926	0.621603
H232	H	0.502276	-0.064686	0.044749
H233	H	0.835609	0.268647	0.378082
H234	H	1.168942	0.601980	0.711416
H235	H	0.939293	-0.134431	-0.000213
H236	H	1.272626	0.198902	0.333121
H237	H	1.605960	0.532235	0.666454
H238	H	0.937355	-0.266541	-0.000231
H239	H	1.270688	0.066793	0.333102
H240	H	1.604021	0.400126	0.666436
N241	N	0.686498	-0.535632	-0.000193
N242	N	1.019831	-0.202299	0.333140
N243	N	1.353165	0.131034	0.666474
H244	H	0.684125	-0.505027	-0.045082
H245	H	1.017458	-0.171694	0.288252
H246	H	1.350791	0.161639	0.621585
H247	H	0.645934	-0.564397	-0.000156
H248	H	0.979267	-0.231063	0.333177
H249	H	1.312601	0.102270	0.666510
N250	N	0.039104	-0.043700	-0.000265
N251	N	0.372437	0.289633	0.333068
N252	N	0.705770	0.622966	0.666402
H253	H	0.078413	-0.083510	-0.000253
H254	H	0.411746	0.249824	0.333080
H255	H	0.745079	0.583157	0.666414
H256	H	0.009391	-0.046917	0.044623
H257	H	0.342724	0.286416	0.377957
H258	H	0.676058	0.619750	0.711290
H259	H	0.932783	-0.578442	-0.000249
H260	H	1.266116	-0.245109	0.333084
H261	H	1.599450	0.088225	0.666418
H262	H	0.624755	-0.018218	-0.000144
H263	H	0.958088	0.315115	0.333190
H264	H	1.291422	0.648449	0.666523
H265	H	0.707661	-0.235620	-0.000186
H266	H	1.040995	0.097713	0.333147
H267	H	1.374328	0.431047	0.666481
N268	N	0.918719	-0.005957	0.655637
N269	N	1.252052	0.327376	0.988970
N270	N	1.585385	0.660709	1.322304
H271	H	0.948732	-0.036112	0.691341
H272	H	1.282065	0.297221	1.024674
H273	H	1.615399	0.630555	1.358007
H274	H	0.892222	-0.036756	0.624029
H275	H	1.225555	0.296577	0.957362
H276	H	1.558889	0.629911	1.290696
H277	H	0.906166	0.006612	0.333797
H278	H	1.239499	0.339945	0.667130
H279	H	1.572832	0.673279	1.000463
N280	N	0.693005	-0.091619	-0.000180
N281	N	1.026338	0.241714	0.333153
N282	N	1.359672	0.575047	0.666487
H283	H	0.652402	-0.120336	-0.000175
H284	H	0.985736	0.212998	0.333158
H285	H	1.319069	0.546331	0.666492
H286	H	0.690683	-0.061046	0.044717
H287	H	1.024017	0.272287	0.378050
H288	H	1.357350	0.605621	0.711383
H289	H	0.837100	-0.022445	0.430657
H290	H	1.170434	0.310889	0.763990
H291	H	1.503767	0.644222	1.097323
N292	N	0.409058	-0.007237	-0.088401
N293	N	0.742391	0.326097	0.244932
N294	N	1.075724	0.659430	0.578266
H295	H	0.443090	-0.036784	-0.055894
H296	H	0.776423	0.296549	0.277439
H297	H	1.109756	0.629883	0.610772
H298	H	0.379195	-0.038567	-0.115281
H299	H	0.712528	0.294766	0.218053
H300	H	1.045862	0.628100	0.551386
N301	N	0.154452	0.223053	-0.000272
N302	N	0.487786	0.556386	0.333061
N303	N	0.821119	0.889720	0.666394
H304	H	0.138118	0.250683	0.044616
H305	H	0.471451	0.584016	0.377949
H306	H	0.804785	0.917349	0.711282
H307	H	0.207124	0.214099	-0.000293
H308	H	0.540457	0.547433	0.333040
H309	H	0.873790	0.880766	0.666374
H310	H	0.734293	0.179330	0.804059
H311	H	1.067626	0.512663	1.137392
H312	H	1.400959	0.845997	1.470725
H313	H	0.930844	-0.710552	-0.000272
H314	H	1.264177	-0.377218	0.333061
H315	H	1.597510	-0.043885	0.666394
N316	N	0.684271	-0.686994	-0.000221
N317	N	1.017604	-0.353661	0.333112
N318	N	1.350937	-0.020328	0.666445
H319	H	0.693117	-0.739945	-0.000228
H320	H	1.026450	-0.406612	0.333105
H321	H	1.359784	-0.073278	0.666439
H322	H	0.656806	-0.670555	0.044678
H323	H	0.990139	-0.337222	0.378012
H324	H	1.323472	-0.003889	0.711345
H325	H	0.837108	-0.022440	0.568948
H326	H	1.170442	0.310893	0.902282
H327	H	1.503775	0.644226	1.235615
N328	N	0.918737	-0.005947	0.814083
N329	N	1.252070	0.327386	1.147416
N330	N	1.585403	0.660719	1.480750
H331	H	0.948755	-0.036092	0.778363
H332	H	1.282088	0.297241	1.111697
H333	H	1.615422	0.630575	1.445030
H334	H	0.949351	0.020726	0.845680
H335	H	1.282684	0.354059	1.179013
H336	H	1.616017	0.687392	1.512346
N337	N	0.721758	0.191904	0.655692
N338	N	1.055091	0.525238	0.989025
N339	N	1.388424	0.858571	1.322359
H340	H	0.691748	0.222059	0.691411
H341	H	1.025082	0.555392	1.024745
H342	H	1.358415	0.888725	1.358078
H343	H	0.748246	0.222704	0.624041
H344	H	1.081580	0.556037	0.957374
H345	H	1.414913	0.889370	1.290708
N346	N	0.800893	0.225202	0.578978
N347	N	1.134226	0.558535	0.912312
N348	N	1.467559	0.891868	1.245645
H349	H	0.839403	0.254221	0.565683
H350	H	1.172736	0.587554	0.899017
H351	H	1.506070	0.920888	1.232350
H352	H	0.754215	0.251745	0.565712
H353	H	1.087549	0.585078	0.899045
H354	H	1.420882	0.918412	1.232379
H355	H	0.803333	0.208389	0.430619
H356	H	1.136667	0.541722	0.763952
H357	H	1.470000	0.875056	1.097286
N358	N	0.601340	0.229638	-0.000179
N359	N	0.934674	0.562971	0.333155
N360	N	1.268007	0.896305	0.666488
H361	H	0.654016	0.220743	-0.000165
H362	H	0.987350	0.554076	0.333169
H363	H	1.320683	0.887410	0.666502
H364	H	0.585004	0.257242	-0.045077
H365	H	0.918337	0.590575	0.288256
H366	H	1.251670	0.923909	0.621590
N367	N	0.721730	0.191900	0.343924
N368	N	1.055064	0.525233	0.677257
N369	N	1.388397	0.858566	1.010590
H370	H	0.748178	0.222750	0.375526
H371	H	1.081511	0.556084	0.708860
H372	H	1.414844	0.889417	1.042193
H373	H	0.691724	0.222002	0.308176
H374	H	1.025057	0.555335	0.641509
H375	H	1.358390	0.888668	0.974842
N376	N	0.450756	0.227415	-0.000217
N377	N	0.784090	0.560748	0.333116
N378	N	1.117423	0.894081	0.666450
H379	H	0.479325	0.268228	-0.000220
H380	H	0.812659	0.601561	0.333114
H381	H	1.145992	0.934894	0.666447
H382	H	0.420358	0.229737	-0.045119
H383	H	0.753691	0.563070	0.288214
H384	H	1.087024	0.896403	0.621548
H385	H	0.374116	0.182379	0.076756
H386	H	0.707449	0.515712	0.410089
H387	H	1.040783	0.849046	0.743423
N388	N	0.003870	0.220829	-0.000235
N389	N	0.337204	0.554162	0.333099
N390	N	0.670537	0.887496	0.666432
H391	H	0.032442	0.261639	-0.000222
H392	H	0.365776	0.594973	0.333112
H393	H	0.699109	0.928306	0.666445
H394	H	-0.026559	0.223191	-0.045115
H395	H	0.306774	0.556524	0.288218
H396	H	0.640108	0.889858	0.621552
H397	H	0.266331	0.003566	-0.077215
H398	H	0.599664	0.336900	0.256119
H399	H	0.932998	0.670233	0.589452
N400	N	0.231394	0.193188	0.087944
N401	N	0.564728	0.526521	0.421277
N402	N	0.898061	0.859855	0.754610
H403	H	0.180992	0.185034	0.081500
H404	H	0.514326	0.518367	0.414833
H405	H	0.847659	0.851700	0.748167
H406	H	0.244900	0.186846	0.140866
H407	H	0.578233	0.520180	0.474200
H408	H	0.911566	0.853513	0.807533
