data_functionalizedCrystal
_audit_creation_method	'MofGen! by Chris Wilmer'
_symmetry_space_group_name_H-M	'P1'
_symmetry_Int_Tables_number	1
_symmetry_cell_setting	triclinic
loop_
_symmetry_equiv_pos_as_xyz
  x,y,z
_cell_length_a	15.537862
_cell_length_b	10.489741
_cell_length_c	14.185569
_cell_angle_alpha	76.708603
_cell_angle_beta	97.877082
_cell_angle_gamma	65.901804
loop_
_atom_site_label
_atom_site_type_symbol
_atom_site_fract_x
_atom_site_fract_y
_atom_site_fract_z
O1	O	1.226081	-0.374434	-0.083365
O2	O	0.952800	-0.227583	-0.083378
O3	O	1.095660	-0.489566	-0.083365
O4	O	1.083221	-0.112451	-0.083378
O5	O	1.137863	-0.566952	0.083473
O6	O	0.995003	-0.304969	0.083460
O7	O	1.268283	-0.451819	0.083474
Cu8	Cu	1.135496	-0.385460	0.098701
Cu9	Cu	1.085587	-0.293942	-0.098605
O10	O	1.125423	-0.189836	0.083461
C11	C	0.938908	-0.250911	0.000039
C12	C	0.834638	-0.205143	0.000034
C13	C	0.677265	-0.019630	0.000024
C14	C	0.775244	-0.062650	0.000028
C15	C	0.796071	-0.304675	0.000041
C16	C	0.698093	-0.261677	0.000041
C17	C	0.638697	-0.119152	0.000032
C18	C	0.659526	-0.361200	0.000049
C19	C	0.561555	-0.318203	0.000045
C20	C	0.502153	-0.175683	0.000032
C21	C	0.540727	-0.076155	0.000027
C22	C	0.718922	-0.503720	0.000052
C23	C	0.680354	-0.603243	0.000060
C24	C	0.582384	-0.560250	0.000062
C25	C	0.522981	-0.417730	0.000050
C26	C	0.543809	-0.659777	0.000067
C27	C	0.445839	-0.616780	0.000062
C28	C	0.425011	-0.374733	0.000045
C29	C	1.115822	-0.575344	0.000053
C30	C	1.113011	-0.715636	0.000051
C31	C	1.022113	-0.740547	0.000040
C32	C	1.085859	-0.891244	0.082302
C33	C	1.044273	-0.814933	-0.082188
C34	C	1.176813	-0.864517	0.082382
C35	C	1.135195	-0.788156	-0.082182
C36	C	1.199012	-0.938866	0.000100
C37	C	1.282175	-0.428491	0.000054
C38	C	1.386443	-0.474256	0.000053
N39	N	1.170606	-0.449833	0.237475
C40	C	1.105261	-0.104058	0.000040
C41	C	1.108070	0.036238	0.000035
N42	N	1.050485	-0.229583	-0.237379
C43	C	0.947331	-0.040512	0.605104
C44	C	0.973932	-0.089268	0.710128
C45	C	1.100461	-0.321201	0.710101
C46	C	1.073867	-0.272468	0.605075
C47	C	0.997302	-0.132121	0.552585
C48	C	1.123838	-0.364077	0.552555
C49	C	1.097249	-0.315344	0.447538
C50	C	1.020688	-0.175001	0.395041
C51	C	0.970712	-0.083388	0.447568
C52	C	1.200407	-0.504419	0.605047
C53	C	1.250379	-0.596028	0.552528
C54	C	1.223785	-0.547299	0.447509
C55	C	1.147225	-0.406957	0.395011
C56	C	1.273761	-0.638913	0.394982
C57	C	1.247172	-0.590179	0.289965
C58	C	1.120635	-0.358223	0.289994
H59	H	0.844443	-0.420717	0.000045
O60	O	0.925248	-0.000115	0.760991
C61	C	0.851985	0.134216	0.692138
H62	H	0.831626	0.117314	0.617275
H63	H	0.784805	0.174185	0.722492
H64	H	0.880280	0.219770	0.680969
H65	H	1.162804	-0.435471	0.752850
O66	O	1.060798	-0.944725	0.165191
C67	C	0.967502	-0.841560	0.164911
H68	H	0.925644	-0.766714	0.084860
H69	H	0.925902	-0.902080	0.195981
H70	H	0.975517	-0.772466	0.213664
H71	H	1.312721	-0.710298	0.595277
H72	H	0.492367	0.039896	0.000033
H73	H	1.232851	-0.884252	0.152006
H74	H	0.376650	-0.258682	0.000051
H75	H	1.273826	-1.023883	0.000150
H76	H	1.336107	-0.753179	0.437733
H77	H	0.884977	0.073767	0.562365
H78	H	1.058281	-0.243945	0.247255
O79	O	1.295617	-0.679260	0.238949
C80	C	1.286045	-0.810024	0.264573
H81	H	1.218190	-0.789371	0.293485
H82	H	1.278908	-0.846697	0.195471
H83	H	1.353294	-0.899743	0.325482
H84	H	1.156030	-0.743126	-0.151729
H85	H	0.798690	-0.538715	0.000037
O86	O	0.738201	-0.741651	0.000116
C87	C	0.832936	-0.758252	0.000091
H88	H	0.845356	-0.674760	0.031664
H89	H	0.889074	-0.874345	0.048539
H90	H	0.840985	-0.739076	-0.079949
H91	H	0.908358	0.030891	0.404828
O92	O	0.406964	-0.134014	-0.000107
C93	C	0.358079	-0.145917	-0.086525
H94	H	0.413328	-0.228005	-0.115325
H95	H	0.302566	-0.185650	-0.067092
H96	H	0.318813	-0.033724	-0.147036
H97	H	0.628904	0.096422	0.000029
H98	H	0.988208	-0.795341	-0.151741
H99	H	0.947399	-0.655394	0.000119
H100	H	0.414437	-0.697821	0.000067
H101	H	0.999043	-0.135321	0.309529
H102	H	1.222057	-0.544089	0.690559
H103	H	0.592181	-0.775816	0.000065
O104	O	0.812570	0.034219	-0.000107
C105	C	0.760460	0.158409	-0.086532
H106	H	0.684999	0.168586	-0.115343
H107	H	0.752502	0.261577	-0.067105
H108	H	0.801739	0.145488	-0.147033
