data_functionalizedCrystal
_audit_creation_method	'MofGen! by Chris Wilmer'
_symmetry_space_group_name_H-M	'P1'
_symmetry_Int_Tables_number	1
_symmetry_cell_setting	triclinic
loop_
_symmetry_equiv_pos_as_xyz
  x,y,z
_cell_length_a	16.992697
_cell_length_b	27.732048
_cell_length_c	15.455313
_cell_angle_alpha	92.637842
_cell_angle_beta	92.856959
_cell_angle_gamma	93.344446
loop_
_atom_site_label
_atom_site_type_symbol
_atom_site_fract_x
_atom_site_fract_y
_atom_site_fract_z
O1	O	-1.042605	0.100469	-0.072021
O2	O	-0.814335	0.099344	-0.072050
O3	O	-0.935559	0.029816	-0.072018
O4	O	-0.921381	0.169996	-0.072053
O5	O	-0.928627	0.033775	0.072242
O6	O	-0.807403	0.103302	0.072210
O7	O	-1.035673	0.104427	0.072240
Cu8	Cu	-0.920905	0.104226	0.085397
Cu9	Cu	-0.929103	0.099545	-0.085207
O10	O	-0.914449	0.173954	0.072208
C11	C	-0.781674	0.099877	0.000077
C12	C	-0.694683	0.095563	0.000066
C13	C	-0.931795	0.013776	0.000115
C14	C	-0.930899	-0.039917	0.000122
C15	C	-0.643939	0.137186	0.000056
C16	C	-0.562201	0.133130	0.000068
C17	C	-0.531209	0.087450	0.000084
C18	C	-0.581959	0.045824	0.000097
C19	C	-0.663695	0.049881	0.000091
C20	C	-0.287814	0.070637	0.000107
C21	C	-0.206071	0.066583	0.000110
C22	C	-0.186318	0.153889	0.000083
C23	C	-0.268057	0.157942	0.000072
C24	C	-0.318800	0.116316	0.000089
N25	N	-0.447660	0.083303	0.000093
N26	N	-0.402347	0.120464	0.000087
C27	C	-0.996894	-0.375880	0.000086
C28	C	-0.993570	-0.577684	0.000073
O29	O	-1.053918	-0.606331	0.000043
N30	N	-0.921688	-0.599916	0.000065
C31	C	-0.850633	-0.571694	0.000054
O32	O	-0.789418	-0.595234	0.000037
C33	C	-0.853959	-0.369891	0.000060
C34	C	-0.925845	-0.347662	0.000077
C35	C	-1.068774	-0.353651	0.000102
C36	C	-1.069604	-0.303203	0.000110
C37	C	-0.998555	-0.274984	0.000101
C38	C	-0.926675	-0.297214	0.000085
C39	C	-0.782906	-0.341670	0.000043
C40	C	-0.783743	-0.291216	0.000042
C41	C	-0.855629	-0.268987	0.000059
C42	C	-0.856456	-0.218547	0.000085
N43	N	-0.928337	-0.196315	0.000093
C44	C	-0.999386	-0.224534	0.000101
C45	C	-0.848892	-0.677643	0.000052
C46	C	-0.848061	-0.728093	0.000052
C47	C	-0.990997	-0.734080	0.000070
C48	C	-0.991828	-0.683629	0.000076
C49	C	-0.920774	-0.655411	0.000060
C50	C	-1.001124	-0.118589	0.000118
C51	C	-1.001948	-0.068136	0.000130
C52	C	-0.859012	-0.062154	0.000108
C53	C	-0.858188	-0.112602	0.000101
C54	C	-0.929251	-0.140819	0.000103
O55	O	-0.796140	-0.189870	0.000105
O56	O	-1.060594	-0.200985	0.000098
C57	C	-0.996064	-0.426328	0.000078
C58	C	-0.924184	-0.448558	0.000061
C59	C	-0.853135	-0.420339	0.000053
C60	C	-0.923353	-0.499008	0.000061
C61	C	-0.994402	-0.527227	0.000070
C62	C	-1.066283	-0.504995	0.000078
C63	C	-1.067114	-0.454547	0.000086
C64	C	-0.781254	-0.442571	0.000045
C65	C	-0.780429	-0.493020	0.000038
C66	C	-0.851479	-0.521238	0.000046
C67	C	-0.068335	0.103893	0.000107
C68	C	-0.155327	0.108206	0.000099
C69	C	-0.918213	0.189995	0.000073
C70	C	-0.919110	0.243688	0.000060
N71	N	-0.915145	0.107519	0.205391
N72	N	-0.934869	0.096249	-0.205201
C73	C	-0.966663	0.077993	0.250799
C74	C	-0.962314	0.080488	0.341606
C75	C	-0.906450	0.112511	0.387003
C76	C	-0.854927	0.142037	0.341589
C77	C	-0.859273	0.139540	0.250784
C78	C	-0.887692	0.123278	0.658579
C79	C	-0.883352	0.125774	0.749391
C80	C	-0.990738	0.064224	0.749401
C81	C	-0.995082	0.061731	0.658594
C82	C	-0.943556	0.091256	0.613188
N83	N	-0.902005	0.115063	0.479822
N84	N	-0.947998	0.088701	0.520371
H85	H	-0.520887	0.167023	0.000058
H86	H	-0.293284	0.195139	0.000049
H87	H	-0.723395	-0.419601	0.000036
H88	H	-0.721887	-0.511114	0.000032
O89	O	-0.803709	0.171381	0.201793
H90	H	-0.812401	0.209915	0.219188
H91	H	-0.801166	-0.039169	0.000104
O92	O	-0.548534	-0.003445	0.000122
H93	H	-0.571781	-0.025216	-0.058665
O94	O	-0.172643	0.017312	0.000141
H95	H	-0.138700	0.011757	-0.058658
H96	H	-1.058991	-0.141557	0.000117
H97	H	-0.809438	0.168109	0.378557
O98	O	-1.026903	0.043442	0.201842
H99	H	-1.021271	0.046664	0.131070
O100	O	-1.055328	0.027188	0.609629
H101	H	-1.090417	0.007072	0.656461
H102	H	-1.004263	0.056446	0.378576
H103	H	-0.845739	0.147319	0.621617
O104	O	-1.046305	0.032376	0.798372
H105	H	-1.033896	0.039488	0.869142
H106	H	-0.837858	0.151853	0.786349
H107	H	-0.669165	0.174383	0.000043
H108	H	-1.060488	-0.050039	0.000146
H109	H	-1.125650	-0.436452	0.000100
H110	H	-0.144994	0.187779	0.000070
H111	H	-0.329120	0.036742	0.000122
H112	H	-0.705012	0.015987	0.000099
H113	H	-1.128141	-0.285108	0.000120
H114	H	-1.126635	-0.376621	0.000105
H115	H	-1.048848	-0.757064	0.000077
O116	O	-1.069360	-0.659654	0.000078
H117	H	-1.118622	-0.687757	0.000077
O118	O	-0.770527	-0.752068	0.000045
H119	H	-0.721267	-0.723965	0.000031
H120	H	-1.124134	-0.527979	0.000089
H121	H	-0.725881	-0.268244	0.000028
O122	O	-0.772250	-0.647210	0.000054
H123	H	-0.722133	-0.671149	0.000061
H124	H	-0.799652	-0.130701	0.000111
O125	O	-0.705372	-0.365639	0.000021
H126	H	-0.656115	-0.337534	0.000005
