data_functionalizedCrystal
_audit_creation_method	'MofGen! by Chris Wilmer'
_symmetry_space_group_name_H-M	'P1'
_symmetry_Int_Tables_number	1
_symmetry_cell_setting	triclinic
loop_
_symmetry_equiv_pos_as_xyz
  x,y,z
_cell_length_a	27.732048
_cell_length_b	27.732064
_cell_length_c	15.072220
_cell_angle_alpha	90.005274
_cell_angle_beta	89.998491
_cell_angle_gamma	82.646039
loop_
_atom_site_label
_atom_site_type_symbol
_atom_site_fract_x
_atom_site_fract_y
_atom_site_fract_z
O1	O	0.640930	0.057520	0.073661
O2	O	0.500137	0.066265	0.073687
O3	O	0.574902	-0.008504	0.073676
O4	O	0.566165	0.132289	0.073671
O5	O	0.574897	-0.008513	-0.073889
O6	O	0.500132	0.066256	-0.073879
O7	O	0.640925	0.057511	-0.073904
Zn8	Zn	0.570528	0.061882	-0.097320
Zn9	Zn	0.570534	0.061894	0.097103
O10	O	0.566160	0.132280	-0.073894
C11	C	0.574715	-0.026515	-0.000103
C12	C	0.574159	-0.080169	-0.000095
C13	C	0.482127	0.066077	-0.000093
C14	C	0.428473	0.065524	-0.000082
C15	C	0.526192	-0.457242	-0.000083
C16	C	0.528238	-0.255582	-0.000082
O17	O	0.491017	-0.224329	-0.000040
N18	N	0.572572	-0.236454	-0.000090
C19	C	0.616398	-0.267745	-0.000092
O20	O	0.654154	-0.246849	-0.000090
C21	C	0.614351	-0.469405	-0.000087
C22	C	0.570014	-0.488529	-0.000088
C23	C	0.481858	-0.476367	-0.000083
C24	C	0.481347	-0.526779	-0.000088
C25	C	0.525169	-0.558066	-0.000093
C26	C	0.569503	-0.538941	-0.000093
C27	C	0.658177	-0.500695	-0.000083
C28	C	0.657661	-0.551112	-0.000079
C29	C	0.613324	-0.570237	-0.000080
C30	C	0.612814	-0.620640	-0.000103
N31	N	0.568480	-0.639768	-0.000095
C32	C	0.524658	-0.608481	-0.000090
C33	C	0.617469	-0.161871	-0.000097
C34	C	0.617981	-0.111456	-0.000100
C35	C	0.529821	-0.099296	-0.000088
C36	C	0.529310	-0.149712	-0.000091
C37	C	0.573135	-0.180998	-0.000089
C38	C	0.523588	-0.714350	-0.000101
C39	C	0.523080	-0.764767	-0.000110
C40	C	0.611241	-0.776923	-0.000117
C41	C	0.611748	-0.726511	-0.000113
C42	C	0.567918	-0.695225	-0.000102
O43	O	0.650016	-0.651921	-0.000135
O44	O	0.486907	-0.629387	-0.000072
C45	C	0.526703	-0.406830	-0.000078
C46	C	0.571036	-0.387705	-0.000078
C47	C	0.614859	-0.418992	-0.000083
C48	C	0.571548	-0.337290	-0.000081
C49	C	0.527726	-0.306003	-0.000076
C50	C	0.483391	-0.325131	-0.000068
C51	C	0.482880	-0.375543	-0.000073
C52	C	0.659193	-0.399865	-0.000091
C53	C	0.659701	-0.349452	-0.000087
C54	C	0.615878	-0.318165	-0.000082
C55	C	0.089660	0.106228	-0.000122
C56	C	-0.112000	0.104177	-0.000130
O57	O	-0.143253	0.141397	-0.000170
N58	N	-0.131126	0.059842	-0.000127
C59	C	-0.099834	0.016017	-0.000128
O60	O	-0.120729	-0.021740	-0.000134
C61	C	0.101825	0.018068	-0.000126
C62	C	0.120948	0.062406	-0.000120
C63	C	0.108784	0.150562	-0.000118
C64	C	0.159196	0.151074	-0.000111
C65	C	0.190484	0.107252	-0.000109
C66	C	0.171360	0.062918	-0.000114
C67	C	0.133116	-0.025756	-0.000133
C68	C	0.183533	-0.025240	-0.000135
C69	C	0.202656	0.019098	-0.000129
C70	C	0.253060	0.019609	-0.000105
N71	N	0.272186	0.063944	-0.000108
C72	C	0.240898	0.107765	-0.000110
C73	C	-0.205708	0.014943	-0.000127
C74	C	-0.256123	0.014430	-0.000125
C75	C	-0.268285	0.102590	-0.000130
C76	C	-0.217870	0.103103	-0.000125
C77	C	-0.186582	0.059278	-0.000130
C78	C	0.346768	0.108838	-0.000095
C79	C	0.397185	0.109346	-0.000084
C80	C	0.409342	0.021186	-0.000085
C81	C	0.358930	0.020678	-0.000091
C82	C	0.327643	0.064507	-0.000099
O83	O	0.284342	-0.017592	-0.000075
O84	O	0.261803	0.145516	-0.000123
C85	C	0.039248	0.105716	-0.000129
C86	C	0.020124	0.061381	-0.000134
C87	C	0.051412	0.017560	-0.000132
C88	C	-0.030290	0.060868	-0.000133
C89	C	-0.061578	0.104690	-0.000135
C90	C	-0.042452	0.149025	-0.000138
C91	C	0.007960	0.149537	-0.000131
C92	C	0.032286	-0.026775	-0.000129
C93	C	-0.018127	-0.027284	-0.000134
C94	C	-0.049415	0.016538	-0.000136
C95	C	0.658934	0.057699	-0.000123
C96	C	0.712589	0.058252	-0.000127
C97	C	0.566347	0.150291	-0.000112
C98	C	0.566903	0.203945	-0.000115
N99	N	0.570527	0.061874	-0.230009
C100	C	0.570534	0.061890	-0.589211
C101	C	0.610668	0.022015	-0.551582
C102	C	0.610565	0.021869	-0.448756
C103	C	0.570531	0.061882	-0.411007
C104	C	0.520180	0.051243	-0.448340
C105	C	0.520418	0.050962	-0.551198
C106	C	0.580297	0.112525	-0.551292
C107	C	0.581445	0.112176	-0.448428
C108	C	0.570526	0.061878	-0.310293
C109	C	0.570536	0.061893	-0.689924
N110	N	0.570539	0.061898	0.229792
H111	H	0.486974	-0.780335	-0.000115
C112	C	0.661056	0.030415	-0.321770
C113	C	0.661069	0.030474	-0.414672
H114	H	0.692226	0.035767	-0.300733
H115	H	0.653637	-0.000092	-0.300847
H116	H	0.637301	0.055537	-0.300726
H117	H	0.684822	0.005350	-0.435716
H118	H	0.668494	0.060985	-0.435603
C119	C	0.501575	-0.028195	-0.510357
C120	C	0.508728	0.001127	-0.583599
H121	H	0.494361	-0.058962	-0.530360
H122	H	0.475263	-0.013031	-0.475787
H123	H	0.530256	-0.032484	-0.475261
H124	H	0.480046	0.005419	-0.618693
H125	H	0.535042	-0.014040	-0.618184
H126	H	0.174761	0.187179	-0.000106
H127	H	0.648234	0.028187	-0.576318
C128	C	0.477588	-0.199342	0.075777
C129	C	0.480574	-0.170733	-0.000084
H130	H	0.447500	-0.212320	0.075779
H131	H	0.479620	-0.179923	0.127223
H132	H	0.503614	-0.225193	0.075767
H133	H	0.454550	-0.144880	-0.000070
H134	H	0.478537	-0.190153	-0.051543
H135	H	0.694281	-0.485133	-0.000081
C136	C	-0.234967	0.190191	-0.000130
C137	C	-0.196852	0.151840	-0.000129
H138	H	-0.221992	0.220280	-0.000139
H139	H	-0.254375	0.188159	0.051329
H140	H	-0.254378	0.188148	-0.051590
H141	H	-0.177443	0.153881	0.051335
H142	H	-0.177436	0.153873	-0.051592
H143	H	0.551027	0.142195	-0.575631
C144	C	0.431274	-0.412617	0.075777
C145	C	0.433682	-0.441982	-0.000079
H146	H	0.401528	-0.391395	0.075775
H147	H	0.457742	-0.394006	0.075768
H148	H	0.432911	-0.432539	0.127232
H149	H	0.432049	-0.422061	-0.051534
H150	H	0.407207	-0.460595	-0.000078
H151	H	0.511296	0.014750	-0.422585
H152	H	0.646920	-0.802406	-0.000125
C153	C	0.436393	-0.707408	-0.000101
C154	C	0.475409	-0.679966	-0.000096
H155	H	0.406651	-0.686180	-0.000108
H156	H	0.438029	-0.727321	0.051354
H157	H	0.438036	-0.727329	-0.051565
H158	H	0.473768	-0.660048	0.051371
H159	H	0.473772	-0.660045	-0.051557
H160	H	0.117555	-0.061861	-0.000138
C161	C	0.595058	-0.058794	-0.514822
C162	C	0.602423	-0.028438	-0.586469
H163	H	0.589969	-0.089941	-0.536362
H164	H	0.567363	-0.045129	-0.482103
H165	H	0.622853	-0.061905	-0.477420
H166	H	0.574626	-0.025325	-0.623867
H167	H	0.630121	-0.042107	-0.619203
H168	H	0.647851	-0.710939	-0.000125
H169	H	0.209006	-0.060928	-0.000140
H170	H	0.445243	-0.542345	-0.000081
C171	C	0.408407	-0.299234	0.075802
C172	C	0.435220	-0.290734	-0.000059
H173	H	0.378669	-0.277999	0.075807
H174	H	0.426606	-0.293470	0.127248
H175	H	0.401756	-0.331995	0.075790
H176	H	0.441874	-0.257973	-0.000043
H177	H	0.417017	-0.296494	-0.051518
H178	H	-0.293769	0.138272	-0.000132
H179	H	0.494139	-0.073813	-0.000088
H180	H	-0.271688	-0.021674	-0.000116
H181	H	0.695808	-0.333886	-0.000093
H182	H	0.604366	-0.015715	-0.424156
C183	C	0.696030	-0.633794	-0.000077
C184	C	0.705836	-0.585503	-0.000077
H185	H	0.725772	-0.655023	-0.000072
H186	H	0.677841	-0.639558	-0.051534
H187	H	0.677834	-0.639551	0.051385
H188	H	0.724030	-0.579744	-0.051543
H189	H	0.724034	-0.579736	0.051385
C190	C	0.746384	-0.406810	-0.000115
C191	C	0.707367	-0.434251	-0.000106
H192	H	0.776126	-0.428038	-0.000134
H193	H	0.744750	-0.386896	0.051345
H194	H	0.744738	-0.386890	-0.051573
H195	H	0.709010	-0.454168	0.051356
H196	H	0.709001	-0.454174	-0.051572
C197	C	0.555520	0.198169	-0.448618
C198	C	0.544504	0.154075	-0.413741
H199	H	0.532713	0.224034	-0.427198
H200	H	0.553979	0.197151	-0.511534
H201	H	0.587338	0.203228	-0.430762
H202	H	0.512687	0.149014	-0.431603
H203	H	0.546040	0.155093	-0.350812
C204	C	0.453935	0.111449	-0.512287
C205	C	0.478908	0.088691	-0.584809
H206	H	0.428304	0.134735	-0.533037
H207	H	0.475727	0.127261	-0.477379
H208	H	0.440831	0.087785	-0.477271
H209	H	0.492016	0.112355	-0.619822
H210	H	0.457112	0.072879	-0.619732
H211	H	0.654085	-0.095890	-0.000113
H212	H	0.653160	-0.187341	-0.000097
C213	C	0.380091	0.196440	-0.000094
C214	C	0.418204	0.158086	-0.000084
H215	H	0.393067	0.226527	-0.000101
H216	H	0.360679	0.194409	0.051360
H217	H	0.360683	0.194397	-0.051559
H218	H	0.437610	0.160126	0.051384
H219	H	0.437624	0.160117	-0.051544
C220	C	0.283019	0.159417	0.075758
C221	C	0.312381	0.157015	-0.000096
H222	H	0.261788	0.189157	0.075758
H223	H	0.302937	0.157784	0.127208
H224	H	0.264411	0.132940	0.075744
H225	H	0.330991	0.183489	-0.000078
H226	H	0.292460	0.158652	-0.051560
H227	H	0.489611	0.079529	-0.423888
H228	H	0.618483	0.120258	-0.424028
C229	C	0.101840	0.237752	-0.000106
C230	C	0.074397	0.198737	-0.000112
H231	H	0.080612	0.267495	-0.000091
H232	H	0.121754	0.236115	-0.051565
H233	H	0.121760	0.236110	0.051354
H234	H	0.054480	0.200377	-0.051575
H235	H	0.054475	0.200375	0.051353
C236	C	0.376018	-0.066413	-0.000080
C237	C	0.337906	-0.028058	-0.000087
H238	H	0.363041	-0.096501	-0.000088
H239	H	0.395422	-0.064376	0.051381
H240	H	0.395434	-0.064379	-0.051537
H241	H	0.318492	-0.030091	0.051374
H242	H	0.318494	-0.030097	-0.051554
C243	C	-0.198761	-0.072251	-0.000113
C244	C	-0.171320	-0.033234	-0.000122
H245	H	-0.177532	-0.101993	-0.000102
H246	H	-0.218675	-0.070619	-0.051570
H247	H	-0.218681	-0.070605	0.051349
H248	H	-0.151403	-0.034878	-0.051588
H249	H	-0.151398	-0.034867	0.051340
H250	H	0.023525	0.185642	-0.000128
C251	C	0.473101	-0.029371	0.075768
C252	C	0.443743	-0.026980	-0.000087
H253	H	0.494341	-0.059106	0.075758
H254	H	0.453181	-0.027746	0.127218
H255	H	0.491699	-0.002887	0.075764
H256	H	0.425142	-0.053462	-0.000079
H257	H	0.463666	-0.028610	-0.051550
H258	H	-0.067936	0.184706	-0.000136
C259	C	-0.001028	-0.114377	-0.000146
C260	C	-0.039143	-0.076025	-0.000143
H261	H	-0.014003	-0.144466	-0.000163
H262	H	0.018376	-0.112342	0.051316
H263	H	0.018387	-0.112336	-0.051603
H264	H	-0.058556	-0.078063	0.051317
H265	H	-0.058555	-0.078061	-0.051610
C266	C	0.096039	-0.077360	-0.075971
C267	C	0.066674	-0.074948	-0.000120
H268	H	0.117265	-0.107103	-0.075962
H269	H	0.114647	-0.050889	-0.075966
H270	H	0.076118	-0.075730	-0.127429
H271	H	0.086594	-0.076574	0.051338
H272	H	0.048064	-0.101426	-0.000118
C273	C	0.650524	0.089702	-0.642429
C274	C	0.628780	0.126453	-0.586295
H275	H	0.680459	0.098296	-0.664032
H276	H	0.629484	0.085853	-0.690929
H277	H	0.656384	0.060034	-0.610387
H278	H	0.622916	0.156120	-0.618339
H279	H	0.649824	0.130308	-0.537788
H280	H	0.446776	-0.391109	-0.000074
