data_functionalizedCrystal
_audit_creation_method	'MofGen! by Chris Wilmer'
_symmetry_space_group_name_H-M	'P1'
_symmetry_Int_Tables_number	1
_symmetry_cell_setting	triclinic
loop_
_symmetry_equiv_pos_as_xyz
  x,y,z
_cell_length_a	12.759395
_cell_length_b	12.594516
_cell_length_c	12.759387
_cell_angle_alpha	89.970353
_cell_angle_beta	89.981185
_cell_angle_gamma	90.017589
loop_
_atom_site_label
_atom_site_type_symbol
_atom_site_fract_x
_atom_site_fract_y
_atom_site_fract_z
Zn1	Zn	1.606241	-0.423630	-0.594022
Zn2	Zn	1.606133	-0.601651	-0.418349
Zn3	Zn	1.430545	-0.423692	-0.418359
Zn4	Zn	1.430528	-0.601572	-0.593989
O5	O	1.518362	-0.512636	-0.506180
O6	O	1.753248	-0.447252	-0.570729
O7	O	1.582803	-0.578103	-0.271330
O8	O	1.453904	-0.274738	-0.441679
O9	O	1.753168	-0.578044	-0.441663
O10	O	1.582987	-0.274693	-0.570738
O11	O	1.453799	-0.447357	-0.271336
O12	O	1.283521	-0.447281	-0.441646
O13	O	1.453875	-0.577909	-0.741014
O14	O	1.283509	-0.577968	-0.570681
O15	O	1.582971	-0.447176	-0.741039
O16	O	1.582786	-0.750586	-0.441631
O17	O	1.453770	-0.750528	-0.570672
C18	C	1.245394	-0.512623	-0.506162
C19	C	1.128617	-0.512643	-0.506179
C20	C	1.518293	-0.789177	-0.506169
C21	C	1.518359	-0.907483	-0.506200
C22	C	1.128643	-0.648949	-0.640325
C23	C	1.073795	-0.717110	-0.707401
C24	C	0.964073	-0.717123	-0.707414
C25	C	0.909197	-0.648965	-0.640346
C26	C	0.964045	-0.580804	-0.573270
C27	C	1.073769	-0.580801	-0.573262
C28	C	0.964020	-0.444495	-0.439130
C29	C	1.073741	-0.444486	-0.439111
C30	C	0.909144	-0.376337	-0.372062
C31	C	0.963992	-0.308180	-0.304979
C32	C	1.073720	-0.308171	-0.304968
C33	C	1.128589	-0.376325	-0.372034
C34	C	1.448181	-0.976743	-0.576336
C35	C	1.422582	-1.047615	-0.480469
C36	C	1.544054	-1.047410	-0.602083
C37	C	1.492710	-0.976796	-0.410282
C38	C	1.614226	-0.976585	-0.531961
C39	C	1.588664	-1.047425	-0.436028
C40	C	1.792395	-0.512650	-0.506198
C41	C	1.909172	-0.512656	-0.506206
C42	C	1.518433	-0.512526	-0.780213
C43	C	1.518463	-0.512479	-0.896990
C44	C	1.518459	-0.235015	-0.506213
C45	C	1.518501	-0.116710	-0.506227
C46	C	1.384140	-0.376325	-0.897016
C47	C	1.316998	-0.308226	-0.951890
C48	C	1.317029	-0.308187	-1.061612
C49	C	1.384208	-0.376257	-1.116462
C50	C	1.451351	-0.444356	-1.061588
C51	C	1.451314	-0.444385	-0.951864
C52	C	1.585667	-0.580515	-1.061562
C53	C	1.585642	-0.580549	-0.951840
C54	C	1.652845	-0.648584	-1.116413
C55	C	1.719995	-0.716679	-1.061539
C56	C	1.719961	-0.716714	-0.951810
C57	C	1.652784	-0.648648	-0.896967
C58	C	1.518351	-0.512669	-0.233212
C59	C	1.518524	-0.512416	-0.116436
H60	H	1.217984	-0.648953	-0.640314
N61	N	1.320950	-1.086742	-0.453147
N62	N	1.243508	-1.064118	-0.508813
H63	H	1.171728	-1.091747	-0.489524
H64	H	1.118487	-0.772600	-0.762008
H65	H	1.565729	-1.078428	-0.683160
H66	H	1.648073	-1.078265	-0.376659
H67	H	1.217930	-0.376327	-0.372029
H68	H	0.919416	-0.772620	-0.762038
N69	N	0.797120	-0.648975	-0.640386
N70	N	0.748162	-0.709829	-0.700289
H71	H	0.669005	-0.709835	-0.700319
N72	N	1.788628	-0.786178	-1.117571
N73	N	1.885573	-0.779119	-1.105332
H74	H	1.934052	-0.828198	-1.144911
H75	H	1.470941	-0.945906	-0.329184
H76	H	0.819802	-0.376348	-0.372082
H77	H	0.919303	-0.252687	-0.250383
N78	N	1.248379	-0.238711	-0.895845
N79	N	1.248355	-0.238751	-0.797880
H80	H	1.199891	-0.189659	-0.758300
N81	N	1.788546	-0.786292	-0.895778
N82	N	1.848511	-0.847060	-0.944768
H83	H	1.896950	-0.896203	-0.905200
H84	H	1.384116	-0.376341	-0.807675
H85	H	1.118371	-0.252658	-0.250354
N86	N	1.248433	-0.238629	-1.117653
N87	N	1.188454	-0.177864	-1.068675
H88	H	1.140006	-0.128739	-1.108254
H89	H	1.384218	-0.376229	-1.205803
N90	N	1.715827	-0.937428	-0.559333
N91	N	1.754916	-0.959971	-0.646360
H92	H	1.826673	-0.932316	-0.665703
N93	N	1.652849	-0.648433	-1.228490
N94	N	1.674846	-0.565329	-1.277380
H95	H	1.674842	-0.565184	-1.356536
N96	N	1.652749	-0.648656	-0.784889
N97	N	1.592771	-0.587872	-0.735934
H98	H	1.592743	-0.587873	-0.656777
H99	H	1.388727	-0.945706	-0.635562
