data_functionalizedCrystal
_audit_creation_method	'MofGen! by Chris Wilmer'
_symmetry_space_group_name_H-M	'P1'
_symmetry_Int_Tables_number	1
_symmetry_cell_setting	triclinic
loop_
_symmetry_equiv_pos_as_xyz
  x,y,z
_cell_length_a	14.971486
_cell_length_b	14.519709
_cell_length_c	14.048226
_cell_angle_alpha	89.992623
_cell_angle_beta	89.998499
_cell_angle_gamma	83.647137
loop_
_atom_site_label
_atom_site_type_symbol
_atom_site_fract_x
_atom_site_fract_y
_atom_site_fract_z
O1	O	1.187015	0.120184	-0.079053
O2	O	0.926623	0.134576	-0.079079
O3	O	1.063722	-0.006863	-0.079057
O4	O	1.049915	0.261622	-0.079076
O5	O	1.063706	-0.006871	0.079264
O6	O	0.926606	0.134568	0.079242
O7	O	1.186998	0.120175	0.079268
Zn8	Zn	1.056799	0.127370	0.104392
Zn9	Zn	1.056821	0.127381	-0.104203
O10	O	1.049898	0.261614	0.079246
C11	C	0.893289	0.133928	0.000078
C12	C	0.793991	0.131999	0.000068
C13	C	0.736812	0.215091	0.000064
C14	C	0.643512	0.213273	0.000078
C15	C	0.607392	0.128363	0.000090
C16	C	0.664578	0.045265	0.000097
C17	C	0.757876	0.047084	0.000090
C18	C	0.470113	0.041480	0.000111
C19	C	0.376808	0.039661	0.000116
C20	C	0.355749	0.207669	0.000099
C21	C	0.449047	0.209488	0.000092
C22	C	0.506227	0.126390	0.000097
C23	C	1.063071	-0.041226	0.000104
C24	C	1.061142	-0.143606	0.000104
C25	C	1.054043	-0.518498	0.000079
C26	C	1.056015	-0.414191	0.000086
C27	C	1.057593	-0.331055	0.000092
C28	C	1.059564	-0.226742	0.000098
C29	C	1.220331	0.120823	0.000109
C30	C	1.319630	0.122752	0.000112
C31	C	1.050550	0.295978	0.000083
C32	C	1.052478	0.398358	0.000076
N33	N	1.056791	0.127362	0.246753
N34	N	1.056837	0.127382	-0.246564
C35	C	1.117518	0.064759	0.296581
C36	C	1.117524	0.064758	0.396238
C37	C	1.056807	0.127366	0.446066
C38	C	0.996073	0.189972	0.396231
C39	C	0.996064	0.189968	0.296575
C40	C	0.996099	0.189979	0.603945
C41	C	0.996110	0.189985	0.703608
C42	C	1.117560	0.064770	0.703608
C43	C	1.117550	0.064765	0.603952
C44	C	1.056817	0.127373	0.554124
H45	H	0.309188	0.275331	0.000099
C46	C	0.929313	0.258849	0.758416
C47	C	0.964367	0.329452	0.826905
C48	C	0.897568	0.398317	0.881711
C49	C	0.795716	0.396580	0.868028
C50	C	0.760657	0.325974	0.799535
C51	C	0.827455	0.257109	0.744730
H52	H	1.039769	0.330740	0.837037
H53	H	0.923522	0.450584	0.932414
H54	H	0.746267	0.447558	0.908598
H55	H	0.685255	0.324686	0.789403
H56	H	0.801502	0.204842	0.694027
C57	C	0.929264	0.258834	0.241762
C58	C	0.862507	0.327735	0.296567
C59	C	0.795702	0.396600	0.241755
C60	C	0.795654	0.396566	0.132137
C61	C	0.862414	0.327663	0.077326
C62	C	0.929219	0.258797	0.132138
H63	H	0.862540	0.327763	0.377718
H64	H	0.746282	0.447607	0.282330
H65	H	0.746201	0.447544	0.091562
H66	H	0.862381	0.327635	-0.003825
H67	H	0.978639	0.207791	0.091562
H68	H	0.347403	-0.029481	0.000127
H69	H	0.766213	0.284234	0.000054
C70	C	1.184362	-0.004102	0.758417
C71	C	1.286214	-0.002375	0.744708
C72	C	1.353017	-0.071240	0.799523
C73	C	1.317969	-0.141833	0.868048
C74	C	1.216112	-0.143563	0.881761
C75	C	1.149309	-0.074698	0.826946
H76	H	1.312163	0.049885	0.693978
H77	H	1.428418	-0.069958	0.789371
H78	H	1.367420	-0.192811	0.908625
H79	H	1.190163	-0.195823	0.932490
H80	H	1.073908	-0.075980	0.837097
C81	C	0.533014	-0.049927	0.000115
C82	C	0.528882	-0.119487	0.082330
C83	C	0.591784	-0.210890	0.082329
C84	C	0.658818	-0.232734	0.000113
C85	C	0.662953	-0.163172	-0.082108
C86	C	0.600051	-0.071769	-0.082107
H87	H	0.479257	-0.103319	0.143196
H88	H	0.588723	-0.262384	0.143194
H89	H	0.705382	-0.300396	0.000112
H90	H	0.712578	-0.179340	-0.142975
H91	H	0.603112	-0.020275	-0.142973
H92	H	0.946641	0.240958	0.563379
C93	C	0.820778	-0.044318	0.000091
C94	C	0.887816	-0.066173	0.082303
C95	C	0.950717	-0.157577	0.082309
C96	C	0.946579	-0.227126	0.000104
C97	C	0.879538	-0.205272	-0.082114
C98	C	0.816637	-0.113868	-0.082120
H99	H	0.890882	-0.014687	0.143162
H100	H	1.000345	-0.173754	0.143173
H101	H	0.993142	-0.294789	0.000109
H102	H	0.876473	-0.256758	-0.142973
H103	H	0.767009	-0.097691	-0.142984
C104	C	0.580619	0.304678	0.000074
C105	C	0.584753	0.374230	-0.082148
C106	C	0.521863	0.465640	-0.082148
C107	C	0.454837	0.487499	0.000073
C108	C	0.450701	0.417945	0.082300
C109	C	0.513591	0.326535	0.082301
H110	H	0.634372	0.358050	-0.143018
H111	H	0.524925	0.517129	-0.143019
H112	H	0.408282	0.555167	0.000072
H113	H	0.401082	0.434125	0.143171
H114	H	0.510529	0.275047	0.143172
C115	C	1.184310	-0.004112	0.241775
C116	C	1.251104	-0.072978	0.296591
C117	C	1.317895	-0.141854	0.241789
C118	C	1.317892	-0.141864	0.132171
C119	C	1.251096	-0.072996	0.077349
C120	C	1.184304	-0.004120	0.132151
H121	H	1.251108	-0.072973	0.377742
H122	H	1.367342	-0.192835	0.282372
H123	H	1.367335	-0.192850	0.091603
H124	H	1.251091	-0.073001	-0.003802
H125	H	1.134857	0.046861	0.091568
H126	H	1.166972	0.013782	0.436808
H127	H	0.946632	0.240946	0.436807
C128	C	1.184338	-0.004101	0.549137
C129	C	1.149269	-0.074688	0.480640
C130	C	1.216056	-0.143556	0.425823
C131	C	1.317911	-0.141837	0.439502
C132	C	1.352985	-0.071247	0.508001
C133	C	1.286199	-0.002379	0.562819
H134	H	1.073865	-0.075963	0.470511
H135	H	1.190091	-0.195812	0.375115
H136	H	1.367351	-0.192817	0.398923
H137	H	1.428389	-0.069972	0.518130
H138	H	1.312163	0.049877	0.613527
H139	H	0.478453	0.278629	0.000073
H140	H	0.635162	-0.023871	0.000121
