data_functionalizedCrystal
_audit_creation_method	'MofGen! by Chris Wilmer'
_symmetry_space_group_name_H-M	'P1'
_symmetry_Int_Tables_number	1
_symmetry_cell_setting	triclinic
loop_
_symmetry_equiv_pos_as_xyz
  x,y,z
_cell_length_a	10.686220
_cell_length_b	12.645330
_cell_length_c	10.685986
_cell_angle_alpha	85.592370
_cell_angle_beta	80.968697
_cell_angle_gamma	85.592391
loop_
_atom_site_label
_atom_site_type_symbol
_atom_site_fract_x
_atom_site_fract_y
_atom_site_fract_z
Zn1	Zn	1.885460	0.263615	0.569045
Zn2	Zn	1.901547	0.453567	0.356822
Zn3	Zn	1.689454	0.288956	0.373077
Zn4	Zn	1.673144	0.453491	0.585266
O5	O	1.787401	0.364907	0.471053
O6	O	2.065210	0.278239	0.527302
O7	O	1.886970	0.442367	0.181360
O8	O	1.715547	0.137240	0.399087
O9	O	2.077030	0.417796	0.371382
O10	O	1.859552	0.118622	0.543064
O11	O	1.731146	0.321428	0.193303
O12	O	1.509673	0.321355	0.414816
O13	O	1.687750	0.417667	0.760732
O14	O	1.497691	0.442239	0.570710
O15	O	1.843738	0.278166	0.748815
O16	O	1.871156	0.601911	0.387111
O17	O	1.703349	0.601856	0.554948
C18	C	1.457628	0.384539	0.496288
C19	C	1.316547	0.392962	0.507113
C20	C	1.787261	0.640346	0.471051
C21	C	1.787313	0.758171	0.471084
C22	C	1.682097	0.925703	0.576947
C23	C	1.681644	0.803191	0.576665
C24	C	1.761341	0.812898	0.340091
C25	C	1.760677	0.935498	0.340738
C26	C	1.919114	0.915204	0.495095
C27	C	1.918088	0.792471	0.498079
C28	C	2.118462	0.345199	0.445720
C29	C	2.259540	0.336801	0.434924
C30	C	1.762130	0.345082	0.802116
C31	C	1.751361	0.336633	0.943195
C32	C	1.787530	1.088391	0.471088
C33	C	1.787470	0.970563	0.471123
C34	C	1.812647	0.384575	0.141272
C35	C	1.823662	0.392710	0.000174
H36	H	1.318665	0.282277	0.364837
N37	N	2.017446	0.951456	0.398242
N38	N	2.013676	0.937066	0.284504
H39	H	2.083115	0.962672	0.216097
N40	N	1.663385	0.268291	1.017410
N41	N	1.654471	0.261292	1.135754
H42	H	1.592340	0.213024	1.188170
N43	N	1.242402	0.461388	0.595038
N44	N	1.257741	0.558845	0.585309
H45	H	1.205378	0.607172	0.647405
N46	N	1.911670	0.461039	0.926005
N47	N	2.027683	0.446164	0.931759
H48	H	2.089844	0.494423	0.879372
H49	H	1.696917	0.947845	0.674741
H50	H	1.584895	0.963834	0.562119
H51	H	1.696707	0.765774	0.674116
H52	H	1.834651	0.965610	0.259755
H53	H	1.583853	0.781241	0.561593
H54	H	1.664749	0.971768	0.319236
H55	H	1.836120	0.784115	0.259539
H56	H	1.666487	0.789836	0.317984
H57	H	1.944796	0.938363	0.588450
H58	H	1.937861	0.755823	0.594432
H59	H	1.999921	0.761206	0.425796
