data_functionalizedCrystal
_audit_creation_method	'MofGen! by Chris Wilmer'
_symmetry_space_group_name_H-M	'P1'
_symmetry_Int_Tables_number	1
_symmetry_cell_setting	triclinic
loop_
_symmetry_equiv_pos_as_xyz
  x,y,z
_cell_length_a	19.377369
_cell_length_b	21.606444
_cell_length_c	21.606444
_cell_angle_alpha	90.000308
_cell_angle_beta	48.638144
_cell_angle_gamma	72.128172
loop_
_atom_site_label
_atom_site_type_symbol
_atom_site_fract_x
_atom_site_fract_y
_atom_site_fract_z
Zr1	Zr	0.779890	0.042828	0.472758
O2	O	0.928519	-0.032346	0.350406
O3	O	0.631255	0.049476	0.526583
O4	O	0.779887	-0.055996	0.503053
O5	O	0.779892	0.174976	0.373935
O6	O	0.779892	-0.055999	0.604902
O7	O	0.779887	0.073126	0.373936
O8	O	0.514016	0.132671	0.646992
O9	O	1.045768	-0.013694	0.331845
O10	O	0.692397	0.072119	0.605833
O11	O	0.692397	0.148132	0.529823
O12	O	0.867392	0.023952	0.502120
O13	O	0.867392	0.099964	0.426111
Zr14	Zr	0.779907	0.205263	0.635194
Zr15	Zr	0.779899	0.042823	0.635195
Zr16	Zr	0.779899	0.205268	0.472756
Zr17	Zr	0.966889	0.072577	0.443155
Zr18	Zr	0.592908	0.175515	0.664797
O19	O	0.928542	0.198616	0.581369
O20	O	0.928531	-0.032353	0.581371
O21	O	0.928531	0.198622	0.350404
O22	O	0.631278	0.280438	0.757545
O23	O	0.631266	0.049469	0.757548
O24	O	0.631266	0.280444	0.526581
O25	O	0.779905	0.073115	0.734017
O26	O	0.779910	0.304088	0.604899
O27	O	0.779905	0.304090	0.503050
O28	O	0.779910	0.174966	0.734016
O29	O	1.045774	-0.013697	0.460961
O30	O	0.514023	0.261789	0.646991
O31	O	0.514029	0.261785	0.776107
O32	O	0.514023	0.132667	0.776108
O33	O	1.045774	0.115424	0.331844
O34	O	1.045781	0.115421	0.460960
O35	O	0.692405	0.224139	0.605831
O36	O	0.692405	0.148127	0.681841
O37	O	0.867400	0.099960	0.578128
O38	O	0.867400	0.175972	0.502119
C39	C	0.545992	0.086835	0.591005
C40	C	0.466607	0.074206	0.603573
C41	C	0.779888	0.124051	0.350792
C42	C	0.779885	0.124053	0.281833
C43	C	0.779909	0.327233	0.553974
C44	C	0.779912	0.396193	0.553973
C45	C	0.205208	0.231273	0.446847
C46	C	0.130522	0.219460	0.458760
C47	C	0.130532	0.140109	0.538108
C48	C	0.205216	0.151918	0.526205
C49	C	0.242549	0.197500	0.480573
C50	C	0.242556	0.118145	0.559931
C51	C	0.317237	0.129950	0.548026
C52	C	0.354578	0.175528	0.502394
C53	C	0.317230	0.209305	0.468668
C54	C	0.205227	0.072559	0.605558
C55	C	0.242567	0.038786	0.639284
C56	C	0.317245	0.050595	0.627384
C57	C	0.354585	0.096173	0.581752
C58	C	0.354593	0.016818	0.661110
C59	C	0.429274	0.028624	0.649205
C60	C	0.429266	0.107979	0.569846
C61	C	1.013805	0.161257	0.516947
C62	C	1.093190	0.173886	0.504379
C63	C	0.779888	-0.079142	0.553978
C64	C	0.779885	-0.148102	0.553978
C65	C	0.871257	0.403449	0.499838
C66	C	0.871254	0.468246	0.499835
C67	C	0.779905	0.525786	0.553973
C68	C	0.688553	0.518527	0.608110
C69	C	0.688557	0.453731	0.608108
C70	C	0.688536	0.779842	0.608119
C71	C	0.688539	0.844641	0.608119
C72	C	0.871233	0.794358	0.499846
C73	C	0.871237	0.729562	0.499844
C74	C	0.779885	0.722308	0.553978
C75	C	0.779889	0.652048	0.553979
C76	C	0.779900	0.596045	0.553976
C77	C	0.688540	0.149194	0.303570
C78	C	0.688543	0.149195	0.238772
C79	C	0.779892	0.124051	0.152238
C80	C	0.871244	0.098911	0.130501
C81	C	0.871240	0.098914	0.195298
C82	C	0.871261	0.098896	-0.130820
C83	C	0.871258	0.098893	-0.195618
C84	C	0.688564	0.149177	-0.087346
C85	C	0.688560	0.149181	-0.022549
C86	C	0.779912	0.124044	-0.044291
C87	C	0.779908	0.124044	0.025971
C88	C	0.779897	0.124046	0.081977
C89	C	0.779909	0.124040	0.757160
C90	C	0.779912	0.124038	0.826119
C91	C	0.546002	0.086829	0.794190
C92	C	0.466620	0.074198	0.875716
C93	C	0.546002	0.290022	0.591003
C94	C	0.466620	0.346353	0.603570
C95	C	0.546012	0.290016	0.794188
C96	C	0.466634	0.346345	0.875713
C97	C	1.013785	-0.041925	0.313764
C98	C	1.093163	-0.098254	0.232238
C99	C	1.013795	0.161262	0.313762
C100	C	1.093177	0.173893	0.232236
C101	C	1.013795	-0.041931	0.516948
C102	C	1.093177	-0.098262	0.504382
C103	C	0.429337	0.028584	0.874326
C104	C	0.354760	0.016702	0.950921
C105	C	0.317461	0.050439	1.028905
C106	C	0.354751	0.096055	1.030292
C107	C	0.429332	0.107932	0.953698
C108	C	0.429345	0.412489	0.649147
C109	C	0.354768	0.465425	0.660950
C110	C	0.317461	0.452224	0.627181
C111	C	0.354743	0.386082	0.581598
C112	C	0.429325	0.333148	0.569791
C113	C	0.429356	0.333121	0.953682
C114	C	0.354782	0.386043	1.030288
C115	C	0.317481	0.452189	1.028925
C116	C	0.354765	0.465414	0.950948
C117	C	0.429344	0.412492	0.874343
C118	C	1.130450	-0.085028	0.154269
C119	C	1.205047	-0.137946	0.077659
C120	C	1.242352	-0.204092	0.079021
C121	C	1.205063	-0.217317	0.156998
C122	C	1.130472	-0.164398	0.233606
C123	C	1.130467	0.219502	0.233625
C124	C	1.205066	0.231369	0.157026
C125	C	1.242367	0.197631	0.079042
C126	C	1.205074	0.152017	0.077655
C127	C	1.130482	0.140147	0.154251
C128	C	1.130460	-0.085040	0.538162
C129	C	1.205038	-0.137964	0.526371
C130	C	1.242337	-0.204109	0.480793
C131	C	1.205047	-0.217330	0.447013
C132	C	1.130465	-0.164407	0.458810
H133	H	0.415391	0.185136	0.492697
H134	H	0.324407	-0.020441	0.949775
H135	H	0.945622	0.682713	0.455763
O136	O	0.465405	-0.004213	0.682058
C137	C	0.416455	-0.046986	0.724871
H138	H	0.340813	-0.027849	0.744761
H139	H	0.403678	-0.046903	0.784506
H140	H	0.465290	-0.100793	0.679969
O141	O	0.465644	-0.004116	0.798508
C142	C	0.539488	0.016127	0.731187
H143	H	0.527239	0.067770	0.758372
H144	H	0.533433	0.019702	0.682179
H145	H	0.617503	-0.022721	0.698572
O146	O	1.314678	-0.255492	0.004598
C147	C	1.278222	-0.261147	-0.033047
H148	H	1.192345	-0.238178	0.018595
H149	H	1.307524	-0.316925	-0.063954
H150	H	1.305314	-0.232913	-0.084221
O151	O	0.245161	0.503634	1.103303
C152	C	0.281599	0.552855	1.097419
H153	H	0.367476	0.528486	1.047172
H154	H	0.252317	0.574427	1.162498
H155	H	0.254469	0.595452	1.077830
H156	H	0.256731	0.040762	1.091267
O157	O	1.314820	-0.255431	0.469381
C158	C	1.339704	-0.229572	0.508991
H159	H	1.319147	-0.173033	0.515220
H160	H	1.424004	-0.257088	0.468181
H161	H	1.296086	-0.237684	0.575602
O162	O	0.244977	0.503721	0.638770
C163	C	0.220101	0.564926	0.686223
H164	H	0.240664	0.553309	0.724916
H165	H	0.135801	0.597279	0.731874
H166	H	0.263720	0.593680	0.640255
H167	H	1.100080	-0.031174	0.153144
H168	H	0.614181	0.169647	-0.069648
H169	H	1.100122	0.103010	0.153110
H170	H	1.235396	-0.127165	0.014174
H171	H	0.324193	-0.020299	0.698257
H172	H	1.100117	-0.175182	0.431296
H173	H	0.324357	0.375343	0.554106
H174	H	1.235427	-0.271192	0.409903
O175	O	0.959883	0.074543	0.174333
C176	C	0.940293	0.079924	0.250080
H177	H	0.861785	0.121020	0.305453
H178	H	0.998631	0.093755	0.240131
H179	H	0.944621	0.029349	0.265905
O180	O	1.241135	0.275727	0.158543
C181	C	1.192218	0.302950	0.243801
H182	H	1.116620	0.298770	0.290308
H183	H	1.179355	0.358543	0.254874
H184	H	1.241121	0.273552	0.255163
H185	H	1.235446	-0.271179	0.158097
H186	H	0.459664	0.145096	0.532689
O187	O	1.094326	-0.177375	0.309276
C188	C	1.143270	-0.247103	0.294037
H189	H	1.174011	-0.276753	0.231342
H190	H	1.087327	-0.265051	0.349349
H191	H	1.208047	-0.255888	0.289098
H192	H	1.100103	-0.031185	0.575274
O193	O	1.241182	-0.124989	0.559204
C194	C	1.192255	-0.055260	0.601966
H195	H	1.161526	-0.025608	0.575700
H196	H	1.248208	-0.037321	0.590967
H197	H	1.127472	-0.046465	0.673806
O198	O	0.318367	0.128792	1.106129
C199	C	0.244561	0.108511	1.173424
H200	H	0.211962	0.088704	1.153317
H201	H	0.181796	0.153747	1.233328
H202	H	0.280241	0.066685	1.188046
H203	H	0.614175	0.447826	0.652189
O204	O	0.465502	0.268860	0.525639
C205	C	0.447237	0.226112	0.579474
H206	H	0.437974	0.249367	0.633158
H207	H	0.513469	0.174288	0.540206
H208	H	0.375501	0.220112	0.608590
H209	H	0.459678	0.145079	0.954842
O210	O	0.318670	0.529635	0.949474
C211	C	0.367539	0.529968	0.864235
H212	H	0.443144	0.484182	0.817694
H213	H	0.380383	0.578489	0.853186
H214	H	0.318611	0.527504	0.852898
O215	O	1.094104	0.252242	0.309451
C216	C	1.020288	0.231980	0.376768
H217	H	0.987653	0.212187	0.356689
H218	H	0.957550	0.277222	0.436666
H219	H	1.055968	0.190148	0.391384
O220	O	0.599829	0.772763	0.660583
C221	C	0.594367	0.736774	0.610516
H222	H	0.646199	0.742036	0.542533
H223	H	0.513572	0.758275	0.640508
H224	H	0.618913	0.680912	0.608021
O225	O	0.465758	0.425251	0.681809
C226	C	0.570268	0.406783	0.614318
H227	H	0.601888	0.367657	0.557095
H228	H	0.608921	0.384161	0.636979
H229	H	0.584505	0.453595	0.594304
H230	H	0.459716	0.279265	0.954807
H231	H	0.614147	0.891492	0.652205
O232	O	0.318634	0.529626	0.705290
C233	C	0.367568	0.529920	0.732552
H234	H	0.398292	0.476984	0.735536
H235	H	0.311622	0.567482	0.799048
H236	H	0.432356	0.545532	0.685118
O237	O	0.960063	0.074370	-0.279652
C238	C	1.015631	0.005759	-0.296760
H239	H	0.989664	-0.004865	-0.234323
H240	H	1.099199	-0.005249	-0.344074
H241	H	1.002967	-0.028091	-0.325718
O242	O	0.599712	0.173672	0.387586
C243	C	0.519090	0.195848	0.392873
H244	H	0.545877	0.207960	0.330810
H245	H	0.455203	0.243321	0.449452
H246	H	0.490997	0.154196	0.402632
O247	O	0.599834	0.173719	0.259849
C248	C	0.594374	0.228527	0.225595
H249	H	0.646214	0.251522	0.214398
H250	H	0.513581	0.268659	0.272744
H251	H	0.618912	0.209722	0.161945
O252	O	0.599851	0.173491	0.061523
C253	C	0.594387	0.121693	0.102256
H254	H	0.646218	0.070160	0.052015
H255	H	0.513591	0.126040	0.150876
H256	H	0.618931	0.126993	0.136816
O257	O	0.318645	0.373065	1.105959
C258	C	0.367574	0.303335	1.090724
H259	H	0.398296	0.273686	1.028037
H260	H	0.311624	0.285396	1.146045
H261	H	0.432362	0.294538	1.085772
O262	O	1.314861	0.209062	0.004555
C263	C	1.339779	0.169518	-0.064578
H264	H	1.319228	0.124290	-0.046468
H265	H	1.424083	0.150637	-0.123671
H266	H	1.296179	0.201649	-0.079500
H267	H	0.459685	0.423269	0.810862
O268	O	1.241133	0.119280	0.001966
C269	C	1.161544	0.135815	0.006247
H270	H	1.086929	0.152984	0.076383
H271	H	1.172801	0.089327	-0.029636
H272	H	1.160545	0.178502	-0.024543
O273	O	0.960059	0.347608	0.447293
C274	C	1.015623	0.348140	0.467683
H275	H	0.989645	0.402334	0.500853
H276	H	1.099190	0.327359	0.406166
H277	H	1.002965	0.315156	0.512517
O278	O	0.960054	0.475204	0.447127
C279	C	1.015616	0.444084	0.360880
H280	H	0.989636	0.404190	0.358505
H281	H	1.099183	0.418863	0.323347
H282	H	1.002960	0.484034	0.331047
O283	O	0.353595	0.253502	0.424207
C284	C	0.396614	0.231209	0.339970
H285	H	0.418920	0.174304	0.322413
H286	H	0.466302	0.242346	0.292993
H287	H	0.339407	0.258951	0.336386
O288	O	0.241400	0.275552	0.402467
C289	C	0.192407	0.302848	0.375272
H290	H	0.161574	0.266882	0.372356
H291	H	0.248343	0.309590	0.308758
H292	H	0.127691	0.354144	0.422710
H293	H	0.100125	0.246963	0.431290
H294	H	0.100129	0.102994	0.575259
H295	H	0.144422	0.062946	0.615244
H296	H	0.945645	0.078415	-0.148534
H297	H	0.212165	0.001672	0.676435
H298	H	0.945616	0.800270	0.455764
H299	H	0.945622	0.078442	0.060038
H300	H	0.614175	0.565382	0.652186
