data_functionalizedCrystal
_audit_creation_method	'MofGen! by Chris Wilmer'
_symmetry_space_group_name_H-M	'P1'
_symmetry_Int_Tables_number	1
_symmetry_cell_setting	triclinic
loop_
_symmetry_equiv_pos_as_xyz
  x,y,z
_cell_length_a	19.121215
_cell_length_b	19.120786
_cell_length_c	19.121243
_cell_angle_alpha	94.785083
_cell_angle_beta	94.784136
_cell_angle_gamma	94.789602
loop_
_atom_site_label
_atom_site_type_symbol
_atom_site_fract_x
_atom_site_fract_y
_atom_site_fract_z
Zn1	Zn	1.083005	-0.215140	0.434264
Zn2	Zn	1.416339	0.118194	0.767597
Zn3	Zn	1.749672	0.451527	1.100931
Zn4	Zn	1.072438	-0.338270	0.311103
Zn5	Zn	1.405772	-0.004937	0.644436
Zn6	Zn	1.739105	0.328396	0.977770
Zn7	Zn	0.959878	-0.225621	0.311112
Zn8	Zn	1.293212	0.107712	0.644445
Zn9	Zn	1.626545	0.441046	0.977779
Zn10	Zn	0.959817	-0.338252	0.423698
Zn11	Zn	1.293150	-0.004919	0.757031
Zn12	Zn	1.626483	0.328414	1.090365
O13	O	1.018785	-0.279321	0.370044
O14	O	1.352118	0.054013	0.703378
O15	O	1.685451	0.387346	1.036711
O16	O	1.180265	-0.227094	0.422344
O17	O	1.513599	0.106239	0.755678
O18	O	1.846932	0.439572	1.089011
O19	O	1.053110	-0.327721	0.212443
O20	O	1.386443	0.005612	0.545777
O21	O	1.719777	0.338946	0.879110
O22	O	0.980659	-0.125563	0.331874
O23	O	1.313993	0.207770	0.665208
O24	O	1.647326	0.541103	0.998541
O25	O	1.172502	-0.317558	0.331859
O26	O	1.505835	0.015776	0.665192
O27	O	1.839168	0.349109	0.998525
O28	O	1.071121	-0.117863	0.422353
O29	O	1.404454	0.215470	0.755687
O30	O	1.737787	0.548804	1.089020
O31	O	0.970413	-0.244958	0.212450
O32	O	1.303746	0.088375	0.545783
O33	O	1.637079	0.421709	0.879117
O34	O	0.861208	-0.244941	0.321629
O35	O	1.194542	0.088393	0.654962
O36	O	1.527875	0.421726	0.988295
O37	O	0.980555	-0.317527	0.523760
O38	O	1.313888	0.015806	0.857094
O39	O	1.647221	0.349139	1.190427
O40	O	0.861163	-0.327691	0.404345
O41	O	1.194497	0.005643	0.737678
O42	O	1.527830	0.338976	1.071012
O43	O	1.071061	-0.227077	0.531523
O44	O	1.404394	0.106256	0.864857
O45	O	1.737728	0.439590	1.198190
O46	O	1.053051	-0.436935	0.321613
O47	O	1.386384	-0.103602	0.654946
O48	O	1.719717	0.229732	0.988280
O49	O	0.970308	-0.436922	0.404336
O50	O	1.303641	-0.103589	0.737670
O51	O	1.636975	0.229745	1.071003
C52	C	0.835604	-0.287452	0.361842
C53	C	1.168937	0.045882	0.695175
C54	C	1.502271	0.379215	1.028508
C55	C	0.757239	-0.290946	0.358349
C56	C	1.090572	0.042387	0.691682
C57	C	1.423905	0.375720	1.025015
C58	C	0.313817	-0.313069	0.336249
C59	C	0.647150	0.020264	0.669583
C60	C	0.980484	0.353598	1.002916
C61	C	0.387450	-0.309782	0.339526
C62	C	0.720783	0.023551	0.672859
C63	C	1.054116	0.356885	1.006193
C64	C	0.428310	-0.261109	0.388346
C65	C	0.761643	0.072224	0.721679
C66	C	1.094977	0.405557	1.055013
C67	C	0.395534	-0.215716	0.433887
C68	C	0.728868	0.117617	0.767220
C69	C	1.062201	0.450951	1.100554
C70	C	0.321903	-0.219000	0.430606
C71	C	0.655236	0.114333	0.763940
C72	C	0.988570	0.447666	1.097273
C73	C	0.650832	-0.248837	0.400609
C74	C	0.984165	0.084496	0.733942
C75	C	1.317498	0.417829	1.067276
C76	C	0.724468	-0.245558	0.403888
C77	C	1.057801	0.087775	0.737221
C78	C	1.391134	0.421109	1.070554
C79	C	0.716378	-0.339623	0.309526
C80	C	1.049711	-0.006290	0.642859
C81	C	1.383044	0.327043	0.976192
C82	C	0.642745	-0.342906	0.306252
C83	C	0.976079	-0.009573	0.639585
C84	C	1.309412	0.323761	0.972919
C85	C	0.609976	-0.297510	0.351790
C86	C	0.943309	0.035823	0.685124
C87	C	1.276643	0.369156	1.018457
C88	C	0.503575	-0.257750	0.391698
C89	C	0.836908	0.075584	0.725031
C90	C	1.170241	0.408917	1.058365
C91	C	0.534713	-0.300867	0.348434
C92	C	0.868046	0.032466	0.681768
C93	C	1.201380	0.365800	1.015101
C94	C	1.010546	-0.462510	0.361843
C95	C	1.343879	-0.129177	0.695177
C96	C	1.677212	0.204156	1.028510
C97	C	1.007087	-0.540876	0.358361
C98	C	1.340420	-0.207542	0.691695
C99	C	1.673753	0.125791	1.025028
C100	C	1.052528	-0.573622	0.403868
C101	C	1.385861	-0.240289	0.737202
C102	C	1.719195	0.093045	1.070535
C103	C	1.049275	-0.647255	0.400598
C104	C	1.382608	-0.313921	0.733931
C105	C	1.715942	0.019412	1.067264
C106	C	1.000584	-0.688139	0.351816
C107	C	1.333917	-0.354806	0.685150
C108	C	1.667250	-0.021473	1.018483
C109	C	0.955138	-0.655388	0.306307
C110	C	1.288471	-0.322055	0.639641
C111	C	1.621804	0.011278	0.972974
C112	C	0.958388	-0.581757	0.309582
C113	C	1.291721	-0.248424	0.642915
C114	C	1.625054	0.084910	0.976249
C115	C	0.988413	-0.910662	0.339574
C116	C	1.321746	-0.577329	0.672908
C117	C	1.655079	-0.243995	1.006241
C118	C	0.985168	-0.984298	0.336302
C119	C	1.318501	-0.650965	0.669635
C120	C	1.651834	-0.317632	1.002968
C121	C	1.079304	-0.976159	0.430593
C122	C	1.412638	-0.642826	0.763927
C123	C	1.745971	-0.309493	1.097260
C124	C	1.082553	-0.902527	0.433861
C125	C	1.415886	-0.569194	0.767194
C126	C	1.749220	-0.235860	1.100527
C127	C	1.037104	-0.869782	0.388354
C128	C	1.370438	-0.536449	0.721688
C129	C	1.703771	-0.203116	1.055021
C130	C	0.997259	-0.763404	0.348471
C131	C	1.330592	-0.430071	0.681804
C132	C	1.663926	-0.096737	1.015137
C133	C	1.040426	-0.794519	0.391704
C134	C	1.373760	-0.461186	0.725037
C135	C	1.707093	-0.127852	1.058371
C136	C	1.202681	-0.271159	0.378279
C137	C	1.536014	0.062175	0.711612
C138	C	1.869347	0.395508	1.044946
C139	C	1.281046	-0.267681	0.381788
C140	C	1.614379	0.065653	0.715122
C141	C	1.947713	0.398986	1.048455
C142	C	1.026980	-0.271131	0.553939
C143	C	1.360313	0.062202	0.887272
C144	C	1.693646	0.395536	1.220605
C145	C	1.030472	-0.267641	0.632304
C146	C	1.363805	0.065692	0.965637
C147	C	1.697139	0.399026	1.298970
C148	C	1.027076	-0.095415	0.378293
C149	C	1.360409	0.237919	0.711627
C150	C	1.693742	0.571252	1.044960
C151	C	1.030609	-0.017045	0.381809
C152	C	1.363942	0.316289	0.715142
C153	C	1.697275	0.649622	1.048475
C154	C	0.984992	-0.313090	0.665079
C155	C	1.318325	0.020243	0.998413
C156	C	1.651659	0.353576	1.331746
C157	C	0.988279	-0.309811	0.738712
C158	C	1.321613	0.023522	1.072045
C159	C	1.654946	0.356856	1.405378
C160	C	1.037044	-0.261078	0.779567
C161	C	1.370377	0.072255	1.112900
C162	C	1.703710	0.405589	1.446234
C163	C	1.082528	-0.215626	0.746787
C164	C	1.415862	0.117707	1.080120
C165	C	1.749195	0.451040	1.413453
C166	C	1.079244	-0.218910	0.673156
C167	C	1.412577	0.114424	1.006489
C168	C	1.745911	0.447757	1.339822
C169	C	1.049321	-0.248811	1.002088
C170	C	1.382654	0.084522	1.335421
C171	C	1.715987	0.417856	1.668754
C172	C	1.052600	-0.245530	1.075724
C173	C	1.385933	0.087804	1.409057
C174	C	1.719267	0.421137	1.742390
C175	C	0.958351	-0.339716	1.067644
C176	C	1.291685	-0.006382	1.400977
C177	C	1.625018	0.326951	1.734310
C178	C	0.955069	-0.342992	0.994011
C179	C	1.288402	-0.009658	1.327345
C180	C	1.621735	0.323675	1.660678
C181	C	1.000556	-0.297543	0.961237
C182	C	1.333889	0.035791	1.294571
C183	C	1.667223	0.369124	1.627904
C184	C	1.040403	-0.257723	0.854831
C185	C	1.373737	0.075610	1.188165
C186	C	1.707070	0.408944	1.521498
C187	C	0.997199	-0.300902	0.885974
C188	C	1.330532	0.032432	1.219308
C189	C	1.663866	0.365765	1.552641
C190	C	1.010615	-0.287493	1.186864
C191	C	1.343948	0.045840	1.520197
C192	C	1.677281	0.379173	1.853531
C193	C	1.007120	-0.290979	1.108499
C194	C	1.340453	0.042354	1.441833
C195	C	1.673787	0.375687	1.775166
H196	H	0.414128	-0.346741	0.302442
H197	H	0.747461	-0.013408	0.635776
H198	H	1.080795	0.319926	0.969109
H199	H	0.957616	-0.796701	0.308751
H200	H	1.290950	-0.463367	0.642084
H201	H	1.624283	-0.130034	0.975418
H202	H	0.951408	-0.884007	0.302520
H203	H	1.284741	-0.550674	0.635853
H204	H	1.618075	-0.217340	0.969187
F205	F	0.270336	-0.364878	0.284293
F206	F	0.603670	-0.031545	0.617626
F207	F	0.937003	0.301788	0.950959
H208	H	0.945275	-0.352766	0.631820
H209	H	1.278608	-0.019433	0.965153
H210	H	1.611942	0.313900	1.298486
H211	H	0.951245	-0.346822	0.765394
H212	H	1.284579	-0.013488	1.098727
H213	H	1.617912	0.319845	1.432061
F214	F	0.767954	-0.193751	0.455850
F215	F	1.101287	0.139583	0.789183
F216	F	1.434620	0.472916	1.122517
H217	H	1.092180	-0.540338	0.443588
H218	H	1.425514	-0.207004	0.776922
H219	H	1.758847	0.126329	1.110255
H220	H	1.086360	-0.211803	0.975412
H221	H	1.419693	0.121530	1.308745
H222	H	1.753026	0.454863	1.642079
H223	H	0.743067	-0.376581	0.272450
H224	H	1.076400	-0.043248	0.605784
H225	H	1.409733	0.290085	0.939117
H226	H	1.092308	-0.205839	1.108987
H227	H	1.425641	0.127494	1.442320
H228	H	1.758974	0.460828	1.775653
H229	H	0.915489	-0.688683	0.266591
H230	H	1.248823	-0.355349	0.599925
H231	H	1.582156	-0.022016	0.933258
F232	F	1.092299	-0.205858	0.898319
F233	F	1.425633	0.127475	1.231652
F234	F	1.758966	0.460809	1.564986
H235	H	0.609481	-0.382540	0.266497
H236	H	0.942815	-0.049206	0.599830
H237	H	1.276148	0.284127	0.933164
F238	F	0.615965	-0.200527	0.449080
F239	F	0.949299	0.132807	0.782413
F240	F	1.282632	0.466140	1.115746
F241	F	0.945304	-0.352767	0.842492
F242	F	1.278638	-0.019434	1.175825
F243	F	1.611971	0.313899	1.509158
F244	F	0.439023	-0.163913	0.485843
F245	F	0.772356	0.169421	0.819176
F246	F	1.105690	0.502754	1.152510
H247	H	0.915370	-0.382686	0.960751
H248	H	1.248704	-0.049353	1.294085
H249	H	1.582037	0.283981	1.627418
H250	H	0.921384	-0.555096	0.272526
H251	H	1.254717	-0.221763	0.605860
H252	H	1.588051	0.111571	0.939193
H253	H	0.921319	-0.376718	1.094336
H254	H	1.254652	-0.043384	1.427670
H255	H	1.587985	0.289949	1.761003
H256	H	1.122236	-0.175950	0.780057
H257	H	1.455570	0.157384	1.113390
H258	H	1.788903	0.490717	1.446724
F259	F	1.092242	-0.751005	0.443622
F260	F	1.425575	-0.417672	0.776956
F261	F	1.758908	-0.084339	1.110289
H262	H	1.116279	-0.181900	0.646471
H263	H	1.449612	0.151434	0.979804
H264	H	1.782945	0.484767	1.313138
F265	F	0.287026	-0.170689	0.479073
F266	F	0.620360	0.162644	0.812406
F267	F	0.953693	0.495977	1.145739
H268	H	1.086283	-0.673913	0.437649
H269	H	1.419616	-0.340580	0.770983
H270	H	1.752950	-0.007246	1.104316
F271	F	0.491225	-0.352663	0.296476
F272	F	0.824558	-0.019330	0.629809
F273	F	1.157892	0.314003	0.963142
H274	H	0.536851	-0.218122	0.431449
H275	H	0.870185	0.115211	0.764782
H276	H	1.203518	0.448545	1.098116
H277	H	1.122201	-0.869240	0.473582
H278	H	1.455534	-0.535906	0.806916
H279	H	1.788868	-0.202573	1.140249
H280	H	1.116305	-1.002828	0.467643
H281	H	1.449638	-0.669495	0.800976
H282	H	1.782972	-0.336162	1.134310
H283	H	0.945514	-1.017585	0.296577
H284	H	1.278847	-0.684252	0.629911
H285	H	1.612181	-0.350919	0.963244
