data_functionalizedCrystal
_audit_creation_method	'MofGen! by Chris Wilmer'
_symmetry_space_group_name_H-M	'P1'
_symmetry_Int_Tables_number	1
_symmetry_cell_setting	triclinic
loop_
_symmetry_equiv_pos_as_xyz
  x,y,z
_cell_length_a	19.805407
_cell_length_b	16.625545
_cell_length_c	16.625539
_cell_angle_alpha	89.973630
_cell_angle_beta	90.018020
_cell_angle_gamma	89.975963
loop_
_atom_site_label
_atom_site_type_symbol
_atom_site_fract_x
_atom_site_fract_y
_atom_site_fract_z
Zn1	Zn	1.034736	0.321015	0.455930
Zn2	Zn	1.368070	0.654348	0.789264
Zn3	Zn	1.701403	0.987682	1.122597
Zn4	Zn	1.034659	0.455854	0.321098
Zn5	Zn	1.367992	0.789187	0.654431
Zn6	Zn	1.701326	1.122520	0.987765
Zn7	Zn	0.921554	0.321039	0.321109
Zn8	Zn	1.254888	0.654372	0.654442
Zn9	Zn	1.588221	0.987705	0.987775
Zn10	Zn	0.921519	0.455809	0.455885
Zn11	Zn	1.254853	0.789143	0.789219
Zn12	Zn	1.588186	1.122476	1.122552
O13	O	0.978117	0.388429	0.388506
O14	O	1.311451	0.721763	0.721839
O15	O	1.644784	1.055096	1.055172
O16	O	1.129443	0.338910	0.438059
O17	O	1.462776	0.672244	0.771392
O18	O	1.796109	1.005577	1.104726
O19	O	1.019638	0.437999	0.208267
O20	O	1.352971	0.771332	0.541600
O21	O	1.686304	1.104665	0.874934
O22	O	0.936615	0.208203	0.339017
O23	O	1.269948	0.541537	0.672350
O24	O	1.603282	0.874870	1.005683
O25	O	1.129386	0.437976	0.338998
O26	O	1.462719	0.771309	0.672331
O27	O	1.796053	1.104642	1.005665
O28	O	1.019770	0.208186	0.438069
O29	O	1.353103	0.541519	0.771403
O30	O	1.686436	0.874852	1.104736
O31	O	0.936540	0.338951	0.208275
O32	O	1.269873	0.672284	0.541608
O33	O	1.603207	1.005618	0.874942
O34	O	0.826833	0.338908	0.338973
O35	O	1.160166	0.672241	0.672306
O36	O	1.493500	1.005574	1.005640
O37	O	0.936556	0.437900	0.568724
O38	O	1.269889	0.771233	0.902057
O39	O	1.603222	1.104567	1.235391
O40	O	0.826807	0.437923	0.437993
O41	O	1.160141	0.771256	0.771326
O42	O	1.493474	1.104590	1.104659
O43	O	1.019736	0.338867	0.568757
O44	O	1.353069	0.672201	0.902090
O45	O	1.686402	1.005534	1.235424
O46	O	1.019604	0.568680	0.338954
O47	O	1.352937	0.902014	0.672288
O48	O	1.686271	1.235347	1.005621
O49	O	0.936481	0.568648	0.437982
O50	O	1.269814	0.901981	0.771316
O51	O	1.603147	1.235314	1.104649
C52	C	0.802261	0.388414	0.388480
C53	C	1.135595	0.721747	0.721813
C54	C	1.468928	1.055080	1.055146
C55	C	0.727029	0.388427	0.388488
C56	C	1.060363	0.721760	0.721821
C57	C	1.393696	1.055093	1.055154
C58	C	0.691689	0.440062	0.439964
C59	C	1.025023	0.773395	0.773297
C60	C	1.358356	1.106728	1.106630
C61	C	0.621001	0.440063	0.439975
C62	C	0.954334	0.773396	0.773308
C63	C	1.287668	1.106730	1.106642
C64	C	0.585654	0.388433	0.388506
C65	C	0.918987	0.721766	0.721839
C66	C	1.252320	1.055100	1.055172
C67	C	0.620998	0.336792	0.337027
C68	C	0.954332	0.670126	0.670360
C69	C	1.287665	1.003459	1.003694
C70	C	0.691686	0.336787	0.337020
C71	C	1.025019	0.670121	0.670354
C72	C	1.358352	1.003454	1.003687
C73	C	0.335925	0.336810	0.337054
C74	C	0.669258	0.670143	0.670387
C75	C	1.002592	1.003477	1.003720
C76	C	0.265233	0.336821	0.337063
C77	C	0.598566	0.670154	0.670396
C78	C	0.931900	1.003487	1.003729
C79	C	0.265241	0.440086	0.440008
C80	C	0.598574	0.773419	0.773342
C81	C	0.931907	1.106752	1.106675
C82	C	0.335928	0.440081	0.440002
C83	C	0.669261	0.773414	0.773335
C84	C	1.002594	1.106747	1.106668
C85	C	0.371266	0.388438	0.388527
C86	C	0.704600	0.721771	0.721860
C87	C	1.037933	1.055104	1.055193
C88	C	0.447915	0.388436	0.388516
C89	C	0.781248	0.721769	0.721849
C90	C	1.114581	1.055102	1.055183
C91	C	0.509007	0.388438	0.388512
C92	C	0.842340	0.721772	0.721845
C93	C	1.175673	1.055105	1.055178
C94	C	0.978048	0.597920	0.388480
C95	C	1.311382	0.931253	0.721813
C96	C	1.644715	1.264587	1.055146
C97	C	0.978081	0.687541	0.388496
C98	C	1.311414	1.020875	0.721829
C99	C	1.644748	1.354208	1.055162
C100	C	0.978191	1.015717	0.388592
C101	C	1.311525	1.349050	0.721925
C102	C	1.644858	1.682383	1.055259
C103	C	0.978158	0.924408	0.388567
C104	C	1.311492	1.257742	0.721901
C105	C	1.644825	1.591075	1.055234
C106	C	0.978136	0.851632	0.388543
C107	C	1.311469	1.184965	0.721877
C108	C	1.644802	1.518299	1.055210
C109	C	0.978104	0.760318	0.388520
C110	C	1.311437	1.093651	0.721853
C111	C	1.644770	1.426984	1.055186
C112	C	1.154660	0.388445	0.388532
C113	C	1.487993	0.721779	0.721866
C114	C	1.821327	1.055112	1.055199
C115	C	1.229892	0.388452	0.388544
C116	C	1.563225	0.721785	0.721877
C117	C	1.896559	1.055119	1.055210
C118	C	0.978150	0.388376	0.598815
C119	C	1.311484	0.721709	0.932148
C120	C	1.644817	1.055043	1.265481
C121	C	0.978165	0.388353	0.688436
C122	C	1.311498	0.721687	1.021769
C123	C	1.644831	1.055020	1.355102
C124	C	0.978199	1.178120	0.388559
C125	C	1.311532	1.511454	0.721892
C126	C	1.644866	1.844787	1.055225
C127	C	0.978219	1.088499	0.388606
C128	C	1.311553	1.421832	0.721939
C129	C	1.644886	1.755166	1.055272
C130	C	0.978123	0.388424	0.179015
C131	C	1.311456	0.721757	0.512348
C132	C	1.644790	1.055091	0.845681
C133	C	0.978240	0.388220	0.089394
C134	C	1.311573	0.721553	0.422727
C135	C	1.644907	1.054886	0.756061
C136	C	0.978176	0.388336	0.761218
C137	C	1.311509	0.721669	1.094552
C138	C	1.644842	1.055002	1.427885
C139	C	0.978191	0.388305	0.852527
C140	C	1.311525	0.721639	1.185860
C141	C	1.644858	1.054972	1.519193
C142	C	0.978207	0.388277	0.925303
C143	C	1.311541	0.721610	1.258637
C144	C	1.644874	1.054944	1.591970
C145	C	0.978224	0.388248	1.016618
C146	C	1.311558	0.721581	1.349951
C147	C	1.644891	1.054915	1.683284
H148	H	0.364704	0.482126	0.481911
H149	H	0.698037	0.815459	0.815244
H150	H	1.031371	1.148793	1.148577
N151	N	0.729807	0.495753	0.495479
N152	N	1.063140	0.829086	0.828812
N153	N	1.396473	1.162419	1.162146
H154	H	0.759159	0.463034	0.532899
H155	H	1.092492	0.796367	0.866232
H156	H	1.425826	1.129700	1.199566
H157	H	0.759072	0.533064	0.462585
H158	H	1.092405	0.866398	0.795918
H159	H	1.425739	1.199731	1.129252
N160	N	0.227108	0.281129	0.281547
N161	N	0.560442	0.614463	0.614880
N162	N	0.893775	0.947796	0.948213
H163	H	0.176966	0.288976	0.289359
H164	H	0.510300	0.622309	0.622693
H165	H	0.843633	0.955642	0.956026
H166	H	0.239444	0.293603	0.223939
H167	H	0.572777	0.626937	0.557272
H168	H	0.906111	0.960270	0.890606
H169	H	0.592231	0.482110	0.481891
H170	H	0.925564	0.815443	0.815225
H171	H	1.258897	1.148777	1.148558
H172	H	0.364689	0.294765	0.295133
H173	H	0.698023	0.628099	0.628467
H174	H	1.031356	0.961432	0.961800
N175	N	0.227126	0.495788	0.495531
N176	N	0.560459	0.829121	0.828865
N177	N	0.893792	1.162455	1.162198
H178	H	0.176982	0.487958	0.487731
H179	H	0.510315	0.821292	0.821064
H180	H	0.843649	1.154625	1.154397
H181	H	0.239507	0.483317	0.553138
H182	H	0.572840	0.816650	0.886472
H183	H	0.906173	1.149984	1.219805
H184	H	0.592213	0.294751	0.295123
H185	H	0.925546	0.628084	0.628457
H186	H	1.258880	0.961417	0.961790
N187	N	0.729806	0.281090	0.281506
N188	N	1.063139	0.614424	0.614839
N189	N	1.396472	0.947757	0.948172
H190	H	0.696688	0.248383	0.248901
H191	H	1.030022	0.581716	0.582234
H192	H	1.363355	0.915050	0.915567
H193	H	0.759115	0.313856	0.244130
H194	H	1.092448	0.647189	0.577463
H195	H	1.425782	0.980522	0.910797
