data_functionalizedCrystal
_audit_creation_method	'MofGen! by Chris Wilmer'
_symmetry_space_group_name_H-M	'P1'
_symmetry_Int_Tables_number	1
_symmetry_cell_setting	triclinic
loop_
_symmetry_equiv_pos_as_xyz
  x,y,z
_cell_length_a	13.635800
_cell_length_b	19.453103
_cell_length_c	19.263440
_cell_angle_alpha	97.032726
_cell_angle_beta	81.429371
_cell_angle_gamma	78.290822
loop_
_atom_site_label
_atom_site_type_symbol
_atom_site_fract_x
_atom_site_fract_y
_atom_site_fract_z
V1	V	1.981672	-0.097910	-0.219327
O2	O	1.980579	0.003956	-0.214816
O3	O	1.953275	-0.193419	-0.218150
O4	O	1.945637	-0.096733	-0.314836
O5	O	1.988269	-0.093400	-0.117461
V6	V	2.225563	-0.085687	-0.207104
O7	O	2.107629	-0.124723	-0.246140
O8	O	2.324705	-0.058875	-0.180291
O9	O	2.142357	0.009822	-0.208281
O10	O	2.285355	-0.187553	-0.211615
O11	O	2.277665	-0.090198	-0.308970
O12	O	2.149995	-0.086865	-0.111595
V13	V	2.481672	-0.097910	-0.219327
O14	O	2.480579	0.003956	-0.214816
O15	O	2.453275	-0.193419	-0.218150
O16	O	2.445637	-0.096733	-0.314836
O17	O	2.488269	-0.093400	-0.117461
V18	V	2.725563	-0.085687	-0.207104
O19	O	2.607629	-0.124723	-0.246140
O20	O	2.824705	-0.058875	-0.180291
O21	O	2.642357	0.009822	-0.208281
O22	O	2.785355	-0.187553	-0.211615
O23	O	2.777665	-0.090198	-0.308970
O24	O	2.649995	-0.086865	-0.111595
C25	C	1.875137	-0.216692	-0.214773
C26	C	1.892483	-0.294774	-0.214448
C27	C	1.991084	-0.335041	-0.217807
C28	C	2.007385	-0.408408	-0.217508
C29	C	1.925076	-0.441504	-0.213836
C30	C	1.826461	-0.401228	-0.210480
C31	C	1.810165	-0.327863	-0.210786
N32	N	1.876055	-0.547624	-0.170550
N33	N	1.891542	-0.617318	-0.170258
C34	C	1.974170	-0.662548	-0.212915
N35	N	2.040740	-0.635450	-0.255866
N36	N	2.025254	-0.565750	-0.256155
C37	C	1.942736	-0.521055	-0.213504
C38	C	2.090452	-0.782368	-0.215952
C39	C	2.106749	-0.855737	-0.215657
C40	C	1.925822	-0.848555	-0.208621
C41	C	1.909528	-0.775188	-0.208923
C42	C	1.991846	-0.742099	-0.212585
C43	C	1.865394	-0.093358	-0.338105
C44	C	1.876546	-0.093028	-0.416186
C45	C	2.052166	0.033091	-0.211655
C46	C	2.024438	0.111172	-0.211986
C47	C	2.061909	-0.090242	-0.088322
C48	C	2.040377	-0.090569	-0.010241
C49	C	2.375137	-0.216692	-0.214773
C50	C	2.392483	-0.294774	-0.214448
C51	C	1.912299	-0.157232	0.536894
C52	C	1.932540	-0.156930	0.463527
C53	C	1.917007	-0.092421	0.437084
C54	C	1.881253	-0.028208	0.484014
C55	C	1.861023	-0.028511	0.557380
N56	N	1.875413	-0.046233	0.327279
N57	N	1.894631	-0.045950	0.257584
C58	C	1.977960	-0.091502	0.216039
N59	N	2.041338	-0.137361	0.246818
N60	N	2.022115	-0.137647	0.316519
C61	C	1.938941	-0.092084	0.357532
C62	C	2.035664	-0.155384	0.089565
C63	C	2.055910	-0.155079	0.016198
C64	C	2.004613	-0.026355	0.036686
C65	C	1.984377	-0.026661	0.110052
C66	C	1.999900	-0.091178	0.136487
C67	C	2.491096	-0.335035	-0.217816
C68	C	2.507410	-0.408404	-0.217521
C69	C	2.425111	-0.441509	-0.213852
C70	C	2.326491	-0.401242	-0.210486
C71	C	2.310178	-0.327876	-0.210786
C72	C	2.365394	-0.093358	-0.338105
C73	C	2.376546	-0.093028	-0.416186
C74	C	2.552166	0.033091	-0.211655
C75	C	2.524438	0.111172	-0.211986
C76	C	2.561909	-0.090242	-0.088322
C77	C	2.540377	-0.090569	-0.010241
C78	C	2.472242	-0.096386	-0.456445
C79	C	2.482732	-0.096066	-0.529810
C80	C	2.397526	-0.092393	-0.562914
C81	C	2.301822	-0.089032	-0.522648
C82	C	2.291332	-0.089347	-0.449285
C83	C	2.598320	0.151433	-0.208619
C84	C	2.572276	0.224801	-0.208918
C85	C	2.472353	0.257906	-0.212588
C86	C	2.398466	0.217640	-0.215953
C87	C	2.424508	0.144274	-0.215649
C88	C	2.443350	-0.094234	0.022845
C89	C	2.423101	-0.094533	0.096212
C90	C	2.499883	-0.091172	0.136491
C91	C	2.596916	-0.087504	0.103400
C92	C	2.617162	-0.087200	0.030035
H93	H	2.058117	-0.308105	-0.220794
H94	H	2.632452	0.257575	-0.206179
H95	H	2.087680	-0.441199	-0.220244
H96	H	2.364341	0.111498	-0.218397
C97	C	2.443721	0.338606	-0.212928
H98	H	2.502042	0.357836	-0.210405
H99	H	2.392057	0.360442	-0.173127
H100	H	2.419421	0.347324	-0.255476
H101	H	1.924946	-0.209766	0.558412
H102	H	2.317106	0.244605	-0.218940
H103	H	1.961651	-0.209215	0.425317
C104	C	2.358878	-0.097926	-0.021447
H105	H	2.298194	-0.100142	0.008775
H106	H	2.379555	-0.139123	-0.056772
H107	H	2.346753	-0.056773	-0.043658
C108	C	2.581633	-0.298631	-0.221856
H109	H	2.557806	-0.249168	-0.221547
H110	H	2.628920	-0.318682	-0.264425
H111	H	2.614022	-0.305578	-0.182077
H112	H	2.157480	-0.755425	-0.218932
H113	H	2.659425	-0.084765	0.136207
H114	H	1.991971	0.026170	0.015157
C115	C	2.215216	-0.900036	-0.219363
H116	H	2.213136	-0.948471	-0.218668
H117	H	2.242266	-0.882941	-0.179687
H118	H	2.257162	-0.896036	-0.262036
H119	H	2.344086	-0.097520	0.123144
C120	C	1.835280	-0.884950	-0.204574
H121	H	1.859104	-0.934410	-0.204867
H122	H	1.802885	-0.878006	-0.244347
H123	H	1.787995	-0.864895	-0.161999
C124	C	2.477604	-0.091515	0.217189
H125	H	2.408822	-0.094187	0.231118
H126	H	2.488708	-0.049117	0.241675
H127	H	2.521528	-0.131467	0.228555
H128	H	1.955259	0.025621	0.148256
C129	C	2.615891	-0.452682	-0.221215
H130	H	2.662561	-0.422452	-0.223430
H131	H	2.633485	-0.488003	-0.262416
H132	H	2.618555	-0.474897	-0.180066
C133	C	1.801065	-0.730888	-0.205217
H134	H	1.803149	-0.682456	-0.205930
H135	H	1.759114	-0.734884	-0.162550
H136	H	1.774022	-0.747990	-0.244899
C137	C	2.201698	-0.283594	-0.207068
H138	H	2.155026	-0.313822	-0.204832
H139	H	2.199009	-0.261370	-0.248206
H140	H	2.184125	-0.248279	-0.165858
H141	H	2.438408	-0.501249	-0.213608
H142	H	2.259488	-0.428208	-0.207499
C143	C	2.723900	-0.083180	-0.006353
H144	H	2.766724	-0.081230	0.028146
H145	H	2.719021	-0.041747	-0.028275
H146	H	2.751818	-0.124097	-0.041372
H147	H	2.541632	-0.099380	-0.429502
H148	H	1.868610	0.024317	0.462480
C149	C	1.821684	0.042116	0.608994
H150	H	1.815325	0.080581	0.582740
H151	H	1.868318	0.046921	0.640337
H152	H	1.757119	0.042424	0.635741
C153	C	2.052763	-0.226346	0.118648
H154	H	2.076975	-0.264542	0.080193
H155	H	1.990345	-0.231396	0.144550
H156	H	2.101542	-0.226884	0.149134
C157	C	2.588007	-0.099771	-0.574093
H158	H	2.582060	-0.099049	-0.622527
H159	H	2.633634	-0.142443	-0.570097
H160	H	2.613267	-0.060094	-0.556977
C161	C	2.409079	-0.092054	-0.643614
H162	H	2.478281	-0.094589	-0.662846
H163	H	2.367860	-0.049516	-0.652340
H164	H	2.388243	-0.131865	-0.665445
C165	C	2.208108	-0.085000	-0.559071
H166	H	2.228075	-0.085303	-0.608531
H167	H	2.159022	-0.042438	-0.539027
H168	H	2.179425	-0.124788	-0.552138
C169	C	2.095238	-0.225708	-0.035416
H170	H	2.101573	-0.264172	-0.009162
H171	H	2.159796	-0.226024	-0.062169
H172	H	2.048588	-0.230505	-0.066753
C173	C	2.186069	-0.085670	-0.405006
H174	H	2.192012	-0.086382	-0.356570
H175	H	2.160829	-0.125349	-0.422128
H176	H	2.140424	-0.043000	-0.408997
H177	H	1.759446	-0.428180	-0.207491
C178	C	2.708236	0.115032	-0.204575
H179	H	2.748494	0.149527	-0.202605
H180	H	2.735701	0.080007	-0.245479
H181	H	2.708324	0.093119	-0.163131
H182	H	1.729871	-0.295078	-0.208051
