data_functionalizedCrystal
_audit_creation_method	'MofGen! by Chris Wilmer'
_symmetry_space_group_name_H-M	'P1'
_symmetry_Int_Tables_number	1
_symmetry_cell_setting	triclinic
loop_
_symmetry_equiv_pos_as_xyz
  x,y,z
_cell_length_a	19.188930
_cell_length_b	23.532407
_cell_length_c	18.266242
_cell_angle_alpha	89.988983
_cell_angle_beta	89.977082
_cell_angle_gamma	82.996728
loop_
_atom_site_label
_atom_site_type_symbol
_atom_site_fract_x
_atom_site_fract_y
_atom_site_fract_z
O1	O	0.925922	0.071102	-0.061124
O2	O	0.722581	0.080673	-0.061074
O3	O	0.830383	-0.007031	-0.061087
O4	O	0.818120	0.158806	-0.061111
O5	O	0.830365	-0.007035	0.060675
O6	O	0.722562	0.080669	0.060688
O7	O	0.925904	0.071097	0.060638
Zn8	Zn	0.824230	0.075882	0.079995
Zn9	Zn	0.824254	0.075888	-0.080431
O10	O	0.818102	0.158802	0.060651
C11	C	0.696561	0.080361	-0.000187
C12	C	0.619060	0.079431	-0.000168
C13	C	0.573972	0.130893	-0.000187
C14	C	0.501151	0.130019	-0.000194
C15	C	0.473421	0.077680	-0.000198
C16	C	0.518519	0.026211	-0.000175
C17	C	0.591339	0.027086	-0.000160
N18	N	0.365575	0.037674	-0.041663
N19	N	0.296399	0.036846	-0.041679
C20	C	0.254021	0.075038	-0.000243
N21	N	0.283431	0.114099	0.041201
N22	N	0.352613	0.114929	0.041214
C23	C	0.394462	0.076724	-0.000214
C24	C	0.129971	0.125556	-0.000269
C25	C	0.057149	0.124680	-0.000272
C26	C	0.074520	0.020870	-0.000260
C27	C	0.147340	0.021748	-0.000250
C28	C	0.175061	0.074092	-0.000257
C29	C	0.830062	-0.028250	-0.000204
C30	C	0.829123	-0.091469	-0.000198
C31	C	0.887029	-0.490449	-0.000252
C32	C	0.886157	-0.549851	-0.000258
O33	O	0.939837	-0.586482	-0.000298
N34	N	0.822068	-0.572613	-0.000242
C35	C	0.758848	-0.535970	-0.000228
O36	O	0.704255	-0.560786	-0.000215
C37	C	0.759721	-0.476569	-0.000228
C38	C	0.823814	-0.453810	-0.000236
C39	C	0.951117	-0.467690	-0.000262
C40	C	0.951989	-0.408292	-0.000255
C41	C	0.888773	-0.371653	-0.000239
C42	C	0.824685	-0.394412	-0.000230
C43	C	0.696501	-0.439927	-0.000219
C44	C	0.697379	-0.380523	-0.000219
C45	C	0.761472	-0.357764	-0.000228
C46	C	0.762342	-0.298376	-0.000207
N47	N	0.826430	-0.275614	-0.000223
C48	C	0.889646	-0.312252	-0.000239
C49	C	0.757019	-0.660717	-0.000229
C50	C	0.756146	-0.720116	-0.000224
C51	C	0.883455	-0.733993	-0.000256
C52	C	0.884328	-0.674592	-0.000255
C53	C	0.821108	-0.637954	-0.000245
C54	C	0.891472	-0.187512	-0.000224
C55	C	0.892339	-0.128108	-0.000214
C56	C	0.765029	-0.114236	-0.000187
C57	C	0.764163	-0.173634	-0.000193
C58	C	0.827390	-0.210272	-0.000214
O59	O	0.708690	-0.261710	-0.000170
O60	O	0.944230	-0.287428	-0.000261
C61	C	0.951923	0.071410	-0.000251
C62	C	1.029425	0.072340	-0.000275
C63	C	0.818423	0.180021	-0.000234
C64	C	0.819362	0.243240	-0.000244
N65	N	0.824219	0.075878	0.189482
N66	N	0.824271	0.075888	-0.189918
C67	C	0.871970	0.037062	0.227785
C68	C	0.871974	0.037059	0.304430
C69	C	0.824235	0.075883	0.342769
C70	C	0.776475	0.114702	0.304457
C71	C	0.776468	0.114700	0.227813
N72	N	0.814998	0.126298	0.463096
N73	N	0.815010	0.126298	0.535904
C74	C	0.824254	0.075891	0.573691
N75	N	0.833500	0.025481	0.535921
N76	N	0.833492	0.025482	0.463106
C77	C	0.824238	0.075889	0.425876
C78	C	0.872012	0.037068	0.695102
C79	C	0.872012	0.037065	0.771748
C80	C	0.776516	0.114713	0.771773
C81	C	0.776513	0.114711	0.695128
C82	C	0.824265	0.075890	0.656797
H83	H	0.944533	-0.109581	-0.000220
O84	O	0.695648	-0.625070	-0.000112
C85	C	0.692323	-0.590315	0.062961
H86	H	0.747716	-0.587438	0.083970
H87	H	0.665991	-0.545606	0.048787
H88	H	0.660574	-0.609794	0.107127
H89	H	0.495937	-0.016404	-0.000188
O90	O	0.918322	-0.000707	0.657870
C91	C	0.907405	-0.057075	0.676597
H92	H	0.851519	-0.057262	0.697710
H93	H	0.915625	-0.085650	0.626175
H94	H	0.946241	-0.073892	0.721049
O95	O	0.156941	0.176385	-0.000394
C96	C	0.198591	0.179998	-0.063438
H97	H	0.181596	0.150287	-0.107520
H98	H	0.191751	0.225916	-0.084605
H99	H	0.256104	0.166713	-0.049171
O100	O	0.636010	-0.344876	-0.000110
C101	C	0.632681	-0.310122	0.062964
H102	H	0.688072	-0.307248	0.083980
H103	H	0.606352	-0.265413	0.048789
H104	H	0.600926	-0.329601	0.107125
H105	H	0.942958	-0.217335	-0.000244
H106	H	0.644310	-0.458446	-0.000216
O107	O	0.635042	-0.022959	-0.000179
C108	C	0.594957	-0.069345	-0.000162
H109	H	0.540514	-0.054753	-0.023223
H110	H	0.622089	-0.105390	-0.035505
H111	H	0.589854	-0.085399	0.058255
O112	O	0.918304	-0.000701	0.808990
C113	C	0.881169	-0.035756	0.853365
H114	H	0.826115	-0.036612	0.830296
H115	H	0.909977	-0.081079	0.854230
H116	H	0.877388	-0.017926	0.911449
O117	O	0.946543	-0.652419	-0.000368
C118	C	0.950878	-0.618481	-0.063442
H119	H	0.895747	-0.603549	-0.084453
H120	H	0.978435	-0.579651	-0.049268
H121	H	0.981957	-0.644796	-0.107606
O122	O	0.730017	0.152333	0.190568
C123	C	0.687168	0.121921	0.146247
H124	H	0.686302	0.077009	0.169356
H125	H	0.631513	0.145270	0.145394
H126	H	0.709039	0.118890	0.088152
O127	O	0.013447	0.174725	-0.000321
C128	C	0.053534	0.221110	-0.000307
H129	H	0.108000	0.206518	-0.023349
H130	H	0.026439	0.257157	-0.035669
H131	H	0.058579	0.237164	0.058106
H132	H	0.711973	-0.192165	-0.000165
O133	O	0.730207	0.152404	0.809119
C134	C	0.740438	0.144072	0.884981
H135	H	0.796095	0.122676	0.895428
H136	H	0.732368	0.187217	0.914102
H137	H	0.701124	0.115585	0.906758
H138	H	0.737633	0.146322	0.663940
H139	H	0.596537	0.173516	-0.000194
H140	H	0.464433	0.171927	-0.000208
H141	H	0.713561	-0.084394	-0.000171
O142	O	0.730006	0.152359	0.341664
C143	C	0.660956	0.143245	0.322964
H144	H	0.660935	0.097648	0.301908
H145	H	0.625878	0.149866	0.373385
H146	H	0.640221	0.174852	0.278477
H147	H	0.051943	-0.021745	-0.000309
O148	O	1.014311	-0.386283	-0.000302
C149	C	1.069911	-0.431368	-0.000300
H150	H	1.050621	-0.471669	-0.023348
H151	H	1.114690	-0.419061	-0.035663
H152	H	1.089383	-0.439831	0.058109
H153	H	1.002598	-0.497516	-0.000278
H154	H	0.184052	-0.020158	-0.000238
O155	O	0.944847	-0.769613	-0.000409
C156	C	0.948143	-0.804384	-0.063467
H157	H	0.912289	-0.782532	-0.107529
H158	H	1.004432	-0.811197	-0.084654
H159	H	0.930373	-0.847539	-0.049209
O160	O	0.693824	-0.742126	-0.000240
C161	C	0.638221	-0.697043	-0.000204
H162	H	0.657514	-0.656732	-0.023256
H163	H	0.593453	-0.709340	-0.035547
H164	H	0.618734	-0.688602	0.058216
O165	O	0.918376	-0.000708	0.190666
C166	C	0.960534	-0.034960	0.240915
H167	H	0.931920	-0.035542	0.295565
H168	H	0.971502	-0.080465	0.218782
H169	H	1.012270	-0.016571	0.249031
O170	O	0.918266	-0.000703	0.341685
C171	C	0.881128	-0.035752	0.386066
H172	H	0.826075	-0.036611	0.362994
H173	H	0.909936	-0.081075	0.386944
H174	H	0.877342	-0.017912	0.444146
