data_functionalizedCrystal
_audit_creation_method	'MofGen! by Chris Wilmer'
_symmetry_space_group_name_H-M	'P1'
_symmetry_Int_Tables_number	1
_symmetry_cell_setting	triclinic
loop_
_symmetry_equiv_pos_as_xyz
  x,y,z
_cell_length_a	12.594517
_cell_length_b	18.050589
_cell_length_c	12.594509
_cell_angle_alpha	89.972304
_cell_angle_beta	89.978673
_cell_angle_gamma	90.028021
loop_
_atom_site_label
_atom_site_type_symbol
_atom_site_fract_x
_atom_site_fract_y
_atom_site_fract_z
Zn1	Zn	1.627177	-0.295641	-0.601864
Zn2	Zn	1.627030	-0.419845	-0.423887
Zn3	Zn	1.449181	-0.295673	-0.423893
Zn4	Zn	1.449125	-0.419793	-0.601817
O5	O	1.538128	-0.357738	-0.512865
O6	O	1.776103	-0.312125	-0.578272
O7	O	1.603400	-0.403408	-0.274942
O8	O	1.472877	-0.191744	-0.447523
O9	O	1.775995	-0.403377	-0.447513
O10	O	1.603650	-0.191721	-0.578278
O11	O	1.472735	-0.312179	-0.274946
O12	O	1.300228	-0.312129	-0.447478
O13	O	1.472782	-0.403289	-0.750769
O14	O	1.300187	-0.403320	-0.578198
O15	O	1.603596	-0.312075	-0.750804
O16	O	1.603346	-0.523763	-0.447468
O17	O	1.472640	-0.523725	-0.578192
C18	C	1.261587	-0.357723	-0.512834
C19	C	1.143282	-0.357735	-0.512846
C20	C	1.074020	-0.308068	-0.441883
C21	C	1.003188	-0.375810	-0.415704
C22	C	1.003314	-0.290026	-0.539043
C23	C	1.074008	-0.425512	-0.486616
C24	C	1.074141	-0.339682	-0.610001
C25	C	1.003341	-0.407471	-0.583858
C26	C	1.538000	-0.550690	-0.512848
C27	C	1.538042	-0.633236	-0.512876
C28	C	1.467034	-0.832693	-0.583939
C29	C	1.441086	-0.882138	-0.486814
C30	C	1.538147	-0.784366	-0.512889
C31	C	1.564147	-0.882003	-0.610026
C32	C	1.538246	-0.930351	-0.512911
C33	C	1.512147	-0.832724	-0.415713
C34	C	1.635254	-0.832585	-0.538990
C35	C	1.609343	-0.882007	-0.441799
C36	C	1.538087	-0.700268	-0.512878
C37	C	1.538306	-1.014448	-0.512912
C38	C	1.815749	-0.357753	-0.512897
C39	C	1.934055	-0.357760	-0.512911
C40	C	1.538200	-0.357673	-0.790486
C41	C	1.538230	-0.357645	-0.908792
C42	C	1.538286	-0.164032	-0.512906
C43	C	1.538354	-0.081487	-0.512924
C44	C	1.467103	-0.407228	-0.978026
C45	C	1.564218	-0.425374	-1.048817
C46	C	1.441191	-0.339455	-1.048800
C47	C	1.635396	-0.375826	-0.978024
C48	C	1.512303	-0.289876	-0.978001
C49	C	1.609485	-0.307996	-1.048760
C50	C	1.538119	-0.357749	-0.236324
C51	C	1.538294	-0.357568	-0.118019
H52	H	0.972503	-0.449531	-0.643897
N53	N	1.738418	-0.395157	-0.939201
N54	N	1.788575	-0.350812	-0.881822
H55	H	1.861334	-0.364463	-0.854402
H56	H	1.669523	-0.903524	-0.381655
N57	N	1.391501	-0.805506	-0.659208
N58	N	1.421583	-0.765841	-0.734845
H59	H	1.368237	-0.746638	-0.788000
H60	H	1.586099	-0.903649	-0.692164
H61	H	1.407000	-0.449224	-0.946969
N62	N	1.112981	-0.255439	-0.366511
N63	N	1.210738	-0.246612	-0.354942
H64	H	1.238257	-0.209446	-0.301709
N65	N	1.112774	-0.497385	-0.458735
N66	N	1.089398	-0.552238	-0.514591
H67	H	1.116777	-0.602997	-0.494898
N68	N	1.338128	-0.909459	-0.459129
N69	N	1.321910	-0.977689	-0.453945
H70	H	1.249194	-0.996984	-0.434398
H71	H	1.586182	-0.482652	-1.079923
H72	H	1.490311	-0.232614	-0.946872
H73	H	1.359099	-0.324102	-1.079890
H74	H	0.972025	-0.391096	-0.333570
H75	H	1.105330	-0.324376	-0.692110
N76	N	1.484476	-0.805676	-0.312651
N77	N	1.479922	-0.737488	-0.296021
H78	H	1.460369	-0.718382	-0.223238
N79	N	1.685070	-0.255354	-1.087469
N80	N	1.781131	-0.262167	-1.064566
H81	H	1.834516	-0.224992	-1.091904
N82	N	0.964340	-0.218189	-0.566826
N83	N	0.866583	-0.206845	-0.572067
H84	H	0.839059	-0.156109	-0.591683
H85	H	1.717310	-0.810804	-0.561093
