data_functionalizedCrystal
_audit_creation_method	'MofGen! by Chris Wilmer'
_symmetry_space_group_name_H-M	'P1'
_symmetry_Int_Tables_number	1
_symmetry_cell_setting	triclinic
loop_
_symmetry_equiv_pos_as_xyz
  x,y,z
_cell_length_a	21.395364
_cell_length_b	12.759393
_cell_length_c	12.759399
_cell_angle_alpha	89.969955
_cell_angle_beta	90.030754
_cell_angle_gamma	89.978312
loop_
_atom_site_label
_atom_site_type_symbol
_atom_site_fract_x
_atom_site_fract_y
_atom_site_fract_z
Zn1	Zn	0.957906	-0.594082	-0.417785
Zn2	Zn	0.957841	-0.418407	-0.593504
Zn3	Zn	0.853127	-0.418412	-0.417886
Zn4	Zn	0.853118	-0.594039	-0.593468
O5	O	0.905498	-0.506235	-0.505661
O6	O	1.045576	-0.570795	-0.441068
O7	O	0.943927	-0.271386	-0.570265
O8	O	0.867057	-0.441735	-0.270851
O9	O	1.045528	-0.441727	-0.570167
O10	O	0.944038	-0.570799	-0.270777
O11	O	0.866994	-0.271390	-0.441239
O12	O	0.765448	-0.441693	-0.441204
O13	O	0.867042	-0.741065	-0.570107
O14	O	0.765441	-0.570725	-0.570204
O15	O	0.944030	-0.741097	-0.441033
O16	O	0.943919	-0.441685	-0.740520
O17	O	0.866979	-0.570720	-0.740494
C18	C	0.742710	-0.506205	-0.505712
C19	C	0.673069	-0.506218	-0.505759
C20	C	0.640403	-0.573527	-0.438647
C21	C	0.574968	-0.573531	-0.438619
C22	C	0.542201	-0.506237	-0.505722
C23	C	0.574875	-0.438914	-0.572839
C24	C	0.640309	-0.438905	-0.572858
C25	C	0.438491	-0.497800	-0.600339
C26	C	0.373058	-0.497817	-0.600322
C27	C	0.340380	-0.506260	-0.505664
C28	C	0.373143	-0.514709	-0.411020
C29	C	0.438577	-0.514699	-0.411038
C30	C	0.471249	-0.506239	-0.505709
C31	C	0.236762	-0.573578	-0.438516
C32	C	0.171325	-0.573574	-0.438486
C33	C	0.171233	-0.438963	-0.572716
C34	C	0.236668	-0.438961	-0.572736
C35	C	0.269429	-0.506274	-0.505638
C36	C	0.905542	-0.780268	-0.505555
C37	C	0.905561	-0.897045	-0.505510
C38	C	0.945654	-0.951925	-0.438294
C39	C	0.945669	-1.061650	-0.438256
C40	C	0.865496	-1.061603	-0.572658
C41	C	0.865478	-0.951881	-0.572690
C42	C	0.985736	-0.897089	-0.371114
C43	C	1.025833	-0.951970	-0.303895
C44	C	1.025848	-1.061694	-0.303857
C45	C	0.985766	-1.116538	-0.371038
C46	C	1.068921	-0.506265	-0.505610
C47	C	1.138563	-0.506278	-0.505589
C48	C	0.905458	-0.506220	-0.778628
C49	C	0.905498	-0.506249	-0.895405
C50	C	0.905490	-0.233267	-0.505691
C51	C	0.905593	-0.116491	-0.505440
C52	C	0.865470	-0.439011	-0.950388
C53	C	0.865512	-0.439028	-1.060112
C54	C	0.945613	-0.573529	-1.059860
C55	C	0.945573	-0.573506	-0.950138
C56	C	0.825394	-0.371754	-0.895655
C57	C	0.785362	-0.304512	-0.950639
C58	C	0.785405	-0.304529	-1.060363
C59	C	0.825479	-0.371788	-1.115103
C60	C	0.905556	-0.506273	-0.231627
C61	C	0.905580	-0.506289	-0.114851
H62	H	0.667073	-0.628338	-0.384009
H63	H	0.832821	-0.907196	-0.627406
H64	H	0.548192	-0.384122	-0.627474
H65	H	0.752738	-0.249745	-0.906064
Cl66	Cl	1.076209	-0.883026	-0.219426
Cl67	Cl	0.130046	-0.354355	-0.657067
H68	H	0.825354	-0.371734	-0.806313
H69	H	0.263437	-0.628381	-0.383874
H70	H	0.666905	-0.384091	-0.627510
Cl71	Cl	0.735085	-0.219989	-1.129482
H72	H	0.825515	-0.371789	-1.204448
H73	H	0.346538	-0.521584	-0.333940
Cl74	Cl	0.995898	-0.658031	-0.881010
Cl75	Cl	0.533894	-0.658154	-0.354241
Cl76	Cl	0.479762	-0.525313	-0.292063
H77	H	0.978239	-0.628289	-1.104438
H78	H	1.058492	-1.106375	-0.249115
Cl79	Cl	0.130259	-0.658196	-0.354104
H80	H	0.985774	-1.205883	-0.370990
H81	H	0.985730	-0.807747	-0.371140
Cl82	Cl	0.331878	-0.487213	-0.719303
Cl83	Cl	0.277736	-0.354333	-0.657106
H84	H	0.465093	-0.490923	-0.677427
H85	H	0.832863	-1.106266	-0.627354
