data_functionalizedCrystal
_audit_creation_method	'MofGen! by Chris Wilmer'
_symmetry_space_group_name_H-M	'P1'
_symmetry_Int_Tables_number	1
_symmetry_cell_setting	triclinic
loop_
_symmetry_equiv_pos_as_xyz
  x,y,z
_cell_length_a	17.699083
_cell_length_b	10.540535
_cell_length_c	16.176319
_cell_angle_alpha	89.991877
_cell_angle_beta	89.998611
_cell_angle_gamma	83.903329
loop_
_atom_site_label
_atom_site_type_symbol
_atom_site_fract_x
_atom_site_fract_y
_atom_site_fract_z
O1	O	1.005121	0.160521	-0.068633
O2	O	1.505121	0.660521	0.431367
O3	O	0.784878	0.181405	-0.068660
O4	O	1.284878	0.681405	0.431340
O5	O	0.900026	-0.013836	-0.068638
O6	O	1.400026	0.486164	0.431362
O7	O	0.889973	0.355762	-0.068656
O8	O	1.389973	0.855762	0.431344
O9	O	0.900010	-0.013848	0.068855
O10	O	1.400010	0.486152	0.568855
O11	O	0.784862	0.181393	0.068833
O12	O	1.284862	0.681393	0.568833
O13	O	1.005105	0.160509	0.068860
O14	O	1.505105	0.660509	0.568860
Cu15	Cu	0.894982	0.170949	0.081401
Cu16	Cu	1.394982	0.670949	0.581401
Cu17	Cu	0.895001	0.170964	-0.081201
Cu18	Cu	1.395001	0.670964	0.418799
O19	O	0.889957	0.355749	0.068837
O20	O	1.389957	0.855749	0.568837
C21	C	0.756668	0.180650	0.000083
C22	C	1.256668	0.680650	0.500083
C23	C	0.672636	0.178406	0.000073
C24	C	1.172636	0.678406	0.500073
C25	C	0.899265	-0.061131	0.000109
C26	C	1.399265	0.438869	0.500109
C27	C	0.897011	-0.202038	0.000110
C28	C	1.397011	0.297962	0.500110
C29	C	0.624759	0.293008	0.000067
C30	C	1.124759	0.793008	0.500067
C31	C	0.545802	0.290891	0.000078
C32	C	1.045802	0.790891	0.500078
C33	C	0.514723	0.174170	0.000088
C34	C	1.014723	0.674170	0.500088
C35	C	0.562606	0.059559	0.000096
C36	C	1.062606	0.559559	0.500096
C37	C	0.641562	0.061677	0.000091
C38	C	1.141562	0.561677	0.500091
C39	C	0.244188	0.051014	0.000117
C40	C	0.744188	0.551014	0.500117
C41	C	0.165226	0.048904	0.000119
C42	C	0.665226	0.548904	0.500119
C43	C	0.148427	0.280227	0.000104
C44	C	0.648427	0.780227	0.500104
C45	C	0.227383	0.282346	0.000099
C46	C	0.727383	0.782346	0.500099
C47	C	0.275259	0.167735	0.000111
C48	C	0.775259	0.667735	0.500111
C49	C	0.360873	0.170032	0.000101
C50	C	0.860873	0.670032	0.500101
C51	C	0.429110	0.171872	0.000092
C52	C	0.929110	0.671872	0.500092
C53	C	0.812939	-0.237171	0.000094
C54	C	1.312939	0.262829	0.500094
C55	C	0.810568	-0.383729	-0.000233
C56	C	1.310568	0.116271	0.499767
C57	C	0.935398	-0.412058	-0.078267
C58	C	1.435398	0.087942	0.421733
C59	C	0.937187	-0.265326	-0.078317
C60	C	1.437187	0.234674	0.421683
C61	C	0.938392	-0.265500	0.078044
C62	C	1.438392	0.234500	0.578044
C63	C	0.934503	-0.411776	0.079058
C64	C	1.434503	0.088224	0.579058
C65	C	1.033315	0.161263	0.000115
C66	C	1.533315	0.661263	0.500115
C67	C	1.117347	0.163508	0.000120
C68	C	1.617347	0.663508	0.500120
C69	C	0.890718	0.403045	0.000089
C70	C	1.390718	0.903045	0.500089
C71	C	0.892972	0.543952	0.000082
C72	C	1.392972	1.043952	0.500082
N73	N	0.894974	0.170938	0.195766
N74	N	1.394974	0.670938	0.695766
N75	N	0.895015	0.170965	-0.195566
N76	N	1.395015	0.670965	0.304434
C77	C	0.945977	0.084521	0.239040
C78	C	1.445977	0.584521	0.739040
C79	C	0.945981	0.084520	0.325587
C80	C	1.445981	0.584520	0.825587
C81	C	0.894985	0.170943	0.368858
C82	C	1.394985	0.670943	0.868858
C83	C	0.843976	0.257364	0.325578
C84	C	1.343976	0.757364	0.825578
C85	C	0.843969	0.257358	0.239033
C86	C	1.343969	0.757358	0.739033
C87	C	0.844002	0.257388	0.674606
C88	C	1.344002	0.757388	1.174606
C89	C	0.844015	0.257390	0.761158
C90	C	1.344015	0.757390	1.261158
C91	C	0.946014	0.084549	0.761161
C92	C	1.446014	0.584549	1.261161
C93	C	0.946007	0.084543	0.674615
C94	C	1.446007	0.584543	1.174615
C95	C	0.894996	0.170960	0.631343
C96	C	1.394996	0.670960	1.131343
C97	C	0.894992	0.170959	0.537499
C98	C	1.394992	0.670959	1.037499
C99	C	0.894992	0.170951	0.462701
C100	C	1.394992	0.670951	0.962701
H101	H	0.650056	0.388055	0.000058
H102	H	1.150056	0.888055	0.500058
F103	F	0.767433	-0.420119	-0.074095
F104	F	1.267433	0.079881	0.425905
F105	F	0.789698	0.349338	0.371631
F106	F	1.289698	0.849338	0.871631
H107	H	0.906303	-0.442413	-0.136810
H108	H	1.406303	0.057587	0.363190
F109	F	0.529528	-0.064664	0.000112
F110	F	1.029528	0.435336	0.500112
F111	F	0.789734	0.349376	0.807209
F112	F	1.289734	0.849376	1.307209
F113	F	0.789715	0.349361	0.628559
F114	F	1.289715	0.849361	1.128559
H115	H	0.252682	0.377391	0.000087
H116	H	0.752682	0.877391	0.500087
H117	H	0.802436	0.327727	0.203800
H118	H	1.302436	0.827727	0.703800
H119	H	0.908548	-0.224617	-0.137117
H120	H	1.408548	0.275383	0.362883
F121	F	1.017744	-0.236691	-0.082647
F122	F	1.517744	0.263309	0.417353
F123	F	1.000263	-0.007457	0.371643
F124	F	1.500263	0.492543	0.871643
F125	F	1.000286	-0.007435	0.628566
F126	F	1.500286	0.492565	1.128566
F127	F	0.494850	0.412867	0.000069
F128	F	0.994850	0.912867	0.500069
F129	F	1.019241	-0.237979	0.079049
F130	F	1.519241	0.262021	0.579049
H131	H	0.996071	-0.460524	-0.080953
H132	H	1.496071	0.039476	0.419047
H133	H	0.912151	-0.222575	0.137454
H134	H	1.412151	0.277425	0.637454
F135	F	0.132152	-0.075332	0.000130
F136	F	0.632152	0.424668	0.500130
F137	F	0.097468	0.402207	0.000094
F138	F	0.597468	0.902207	0.500094
H139	H	0.987507	0.014151	0.203814
H140	H	1.487507	0.514151	0.703814
H141	H	0.283159	-0.042309	0.000127
H142	H	0.783159	0.457691	0.500127
F143	F	0.692516	-0.060298	0.000100
F144	F	1.192516	0.439702	0.500100
H145	H	0.777381	-0.412471	0.055914
H146	H	1.277381	0.087529	0.555914
F147	F	0.770728	-0.181555	0.073524
F148	F	1.270728	0.318445	0.573524
H149	H	0.781202	-0.193121	-0.056018
H150	H	1.281202	0.306879	0.443982
F151	F	0.894149	-0.448440	0.154824
F152	F	1.394149	0.051560	0.654824
F153	F	1.013132	-0.477251	0.085538
F154	F	1.513132	0.022749	0.585538
F155	F	1.000303	-0.007428	0.807221
F156	F	1.500303	0.492572	1.307221
