data_functionalizedCrystal
_audit_creation_method	'MofGen! by Chris Wilmer'
_symmetry_space_group_name_H-M	'P1'
_symmetry_Int_Tables_number	1
_symmetry_cell_setting	triclinic
loop_
_symmetry_equiv_pos_as_xyz
  x,y,z
_cell_length_a	16.625547
_cell_length_b	16.625545
_cell_length_c	13.032268
_cell_angle_alpha	82.853505
_cell_angle_beta	82.841885
_cell_angle_gamma	90.025495
loop_
_atom_site_label
_atom_site_type_symbol
_atom_site_fract_x
_atom_site_fract_y
_atom_site_fract_z
Zn1	Zn	1.174716	-0.378881	0.590969
Zn2	Zn	1.674716	0.121119	1.090969
Zn3	Zn	1.191746	-0.496610	0.416229
Zn4	Zn	1.691746	0.003390	0.916229
Zn5	Zn	1.057012	-0.361796	0.416233
Zn6	Zn	1.557012	0.138204	0.916233
Zn7	Zn	1.039848	-0.513669	0.590901
Zn8	Zn	1.539848	-0.013669	1.090901
O9	O	1.115830	-0.437739	0.503583
O10	O	1.615830	0.062261	1.003583
O11	O	1.289805	-0.394510	0.567816
O12	O	1.789805	0.105490	1.067816
O13	O	1.188183	-0.464437	0.270001
O14	O	1.688183	0.035563	0.770001
O15	O	1.072681	-0.251233	0.439442
O16	O	1.572681	0.248767	0.939442
O17	O	1.302317	-0.481005	0.439435
O18	O	1.802317	0.018995	0.939435
O19	O	1.159158	-0.263786	0.567820
O20	O	1.659158	0.236214	1.067820
O21	O	1.089195	-0.365390	0.270004
O22	O	1.589195	0.134610	0.770004
O23	O	0.941905	-0.381931	0.439376
O24	O	1.441905	0.118069	0.939376
O25	O	1.043428	-0.510079	0.737138
O26	O	1.543428	-0.010079	1.237138
O27	O	0.929295	-0.493511	0.567704
O28	O	1.429295	0.006489	1.067704
O29	O	1.142515	-0.411051	0.737188
O30	O	1.642515	0.088949	1.237188
O31	O	1.171540	-0.611703	0.439370
O32	O	1.671540	-0.111703	0.939370
O33	O	1.059941	-0.624236	0.567700
O34	O	1.559941	-0.124236	1.067700
C35	C	0.906344	-0.437719	0.503533
C36	C	1.406344	0.062281	1.003533
C37	C	0.816723	-0.437732	0.503537
C38	C	1.316723	0.062268	1.003537
C39	C	0.743939	-0.437735	0.503550
C40	C	1.243939	0.062265	1.003550
C41	C	0.652628	-0.437741	0.503576
C42	C	1.152628	0.062259	1.003576
C43	C	0.579849	-0.437751	0.503603
C44	C	1.079849	0.062249	1.003603
C45	C	0.488532	-0.437759	0.503628
C46	C	0.988532	0.062241	1.003628
C47	C	1.115746	-0.647227	0.503550
C48	C	1.615746	-0.147227	1.003550
C49	C	1.115780	-0.736850	0.503571
C50	C	1.615780	-0.236850	1.003571
C51	C	1.115810	-0.809634	0.503592
C52	C	1.615810	-0.309634	1.003592
C53	C	1.115854	-0.900945	0.503615
C54	C	1.615854	-0.400945	1.003615
C55	C	1.115895	-0.973723	0.503628
C56	C	1.615895	-0.473723	1.003628
C57	C	1.115939	-1.065039	0.503649
C58	C	1.615939	-0.565039	1.003649
C59	C	1.326134	-0.437760	0.503633
C60	C	1.826134	0.062240	1.003633
C61	C	1.415753	-0.437769	0.503654
C62	C	1.915753	0.062231	1.003654
C63	C	1.089158	-0.464373	0.776139
C64	C	1.589158	0.035627	1.276139
C65	C	1.077791	-0.475723	0.892286
C66	C	1.577791	0.024277	1.392286
C67	C	1.115935	-0.227436	0.503639
C68	C	1.615935	0.272564	1.003639
C69	C	1.115979	-0.137817	0.503663
C70	C	1.615979	0.362183	1.003663
C71	C	1.142446	-0.411150	0.232087
C72	C	1.642446	0.088850	0.732087
C73	C	1.153968	-0.399573	0.115941
C74	C	1.653968	0.100427	0.615941
C75	C	1.121750	-0.431787	0.944093
C76	C	1.621750	0.068213	1.444093
C77	C	1.110003	-0.443516	1.064137
C78	C	1.610003	0.056484	1.564137
H79	H	1.168078	-0.385484	0.899574
H80	H	1.668078	0.114516	1.399574
H81	H	1.063664	-0.489814	1.108651
H82	H	1.563664	0.010186	1.608651
Cl83	Cl	1.225518	-0.328095	1.047223
Cl84	Cl	1.725518	0.171905	1.547223
Cl85	Cl	1.006252	-0.547205	0.961010
Cl86	Cl	1.506252	-0.047205	1.461010
