data_functionalizedCrystal
_audit_creation_method	'MofGen! by Chris Wilmer'
_symmetry_space_group_name_H-M	'P1'
_symmetry_Int_Tables_number	1
_symmetry_cell_setting	triclinic
loop_
_symmetry_equiv_pos_as_xyz
  x,y,z
_cell_length_a	12.759401
_cell_length_b	29.839131
_cell_length_c	12.759393
_cell_angle_alpha	89.962110
_cell_angle_beta	89.981504
_cell_angle_gamma	90.041581
loop_
_atom_site_label
_atom_site_type_symbol
_atom_site_fract_x
_atom_site_fract_y
_atom_site_fract_z
Zn1	Zn	1.606060	-0.178825	-0.593935
Zn2	Zn	2.106060	0.321175	-0.093935
Zn3	Zn	1.605873	-0.253963	-0.418236
Zn4	Zn	2.105873	0.246037	0.081764
Zn5	Zn	1.430362	-0.178848	-0.418275
Zn6	Zn	1.930362	0.321152	0.081725
Zn7	Zn	1.430269	-0.253929	-0.593877
Zn8	Zn	1.930269	0.246071	-0.093877
O9	O	1.518141	-0.216391	-0.506081
O10	O	2.018141	0.283609	-0.006081
O11	O	1.753056	-0.188797	-0.570636
O12	O	2.253056	0.311203	-0.070636
O13	O	1.582551	-0.244024	-0.271220
O14	O	2.082551	0.255976	0.228780
O15	O	1.453787	-0.115978	-0.441617
O16	O	1.953787	0.384022	0.058383
O17	O	1.752919	-0.244001	-0.441551
O18	O	2.252919	0.255999	0.058449
O19	O	1.582871	-0.115961	-0.570674
O20	O	2.082871	0.384039	-0.070674
O21	O	1.453605	-0.188837	-0.271248
O22	O	1.953605	0.311163	0.228752
O23	O	1.283329	-0.188803	-0.441561
O24	O	1.783329	0.311197	0.058439
O25	O	1.453628	-0.243942	-0.740906
O26	O	1.953628	0.256058	-0.240906
O27	O	1.283260	-0.243965	-0.570575
O28	O	1.783260	0.256035	-0.070575
O29	O	1.582781	-0.188763	-0.740949
O30	O	2.082781	0.311237	-0.240949
O31	O	1.582461	-0.316826	-0.441495
O32	O	2.082461	0.183174	0.058505
O33	O	1.453446	-0.316801	-0.570538
O34	O	1.953446	0.183199	-0.070538
C35	C	1.245174	-0.216383	-0.506066
C36	C	1.745174	0.283617	-0.006066
C37	C	1.128397	-0.216390	-0.506085
C38	C	1.628397	0.283610	-0.006085
C39	C	1.517951	-0.333114	-0.506029
C40	C	2.017951	0.166886	-0.006029
C41	C	1.517966	-0.383048	-0.506041
C42	C	2.017966	0.116952	-0.006041
C43	C	1.073527	-0.245159	-0.573152
C44	C	1.573527	0.254841	-0.073152
C45	C	0.963803	-0.245165	-0.573163
C46	C	1.463803	0.254835	-0.073163
C47	C	0.963829	-0.187632	-0.439032
C48	C	1.463829	0.312368	0.060968
C49	C	1.073551	-0.187624	-0.439027
C50	C	1.573551	0.312376	0.060973
C51	C	1.073511	-0.278376	-0.650588
C52	C	1.573511	0.221624	-0.150588
C53	C	0.963787	-0.278382	-0.650600
C54	C	1.463787	0.221618	-0.150600
C55	C	1.585441	-0.692692	-0.438986
C56	C	2.085441	-0.192692	0.061014
C57	C	1.585571	-0.880365	-0.439027
C58	C	2.085571	-0.380365	0.060973
O59	O	1.642790	-0.904631	-0.381974
O60	O	2.142790	-0.404631	0.118026
N61	N	1.518359	-0.903833	-0.506160
N62	N	2.018359	-0.403833	-0.006160
C63	C	1.451114	-0.880380	-0.573292
C64	C	1.951114	-0.380380	-0.073292
O65	O	1.393957	-0.904648	-0.630402
O66	O	1.893957	-0.404648	-0.130402
C67	C	1.450991	-0.692708	-0.573256
C68	C	1.950991	-0.192708	-0.073256
C69	C	1.518200	-0.669243	-0.506111
C70	C	2.018200	-0.169243	-0.006111
C71	C	1.652646	-0.669227	-0.371848
C72	C	2.152646	-0.169227	0.128152
C73	C	1.652609	-0.622311	-0.371834
C74	C	2.152609	-0.122311	0.128166
C75	C	1.585367	-0.598861	-0.438959
C76	C	2.085367	-0.098861	0.061041
C77	C	1.518163	-0.622327	-0.506098
C78	C	2.018163	-0.122327	-0.006098
C79	C	1.383752	-0.669256	-0.640393
C80	C	1.883752	-0.169256	-0.140393
C81	C	1.383729	-0.622335	-0.640380
C82	C	1.883729	-0.122335	-0.140380
C83	C	1.450938	-0.598869	-0.573235
C84	C	1.950938	-0.098869	-0.073235
C85	C	1.450884	-0.551962	-0.573209
C86	C	1.950884	-0.051962	-0.073209
N87	N	1.518096	-0.528494	-0.506076
N88	N	2.018096	-0.028494	-0.006076
C89	C	1.585338	-0.551944	-0.438951
C90	C	2.085338	-0.051944	0.061049
C91	C	1.451183	-0.978911	-0.573305
C92	C	1.951183	-0.478911	-0.073305
C93	C	1.451212	-1.025829	-0.573313
C94	C	1.951212	-0.525829	-0.073313
C95	C	1.585670	-1.025811	-0.439049
C96	C	2.085670	-0.525811	0.060951
C97	C	1.585635	-0.978892	-0.439036
C98	C	2.085635	-0.478892	0.060964
C99	C	1.518395	-0.955443	-0.506172
C100	C	2.018395	-0.455443	-0.006172
C101	C	1.585254	-0.453418	-0.438927
C102	C	2.085254	0.046582	0.061073
C103	C	1.585208	-0.406498	-0.438916
C104	C	2.085208	0.093502	0.061084
C105	C	1.450754	-0.406521	-0.573184
C106	C	1.950754	0.093479	-0.073184
C107	C	1.450796	-0.453436	-0.573191
C108	C	1.950796	0.046564	-0.073191
C109	C	1.518054	-0.476884	-0.506059
C110	C	2.018054	0.023116	-0.006059
O111	O	1.393703	-0.527668	-0.630240
O112	O	1.893703	-0.027668	-0.130240
O113	O	1.642503	-0.527668	-0.381867
O114	O	2.142503	-0.027668	0.118133
C115	C	1.585479	-0.739608	-0.439000
C116	C	2.085479	-0.239608	0.061000
C117	C	1.518274	-0.763073	-0.506138
C118	C	2.018274	-0.263073	-0.006138
C119	C	1.451033	-0.739624	-0.573263
C120	C	1.951033	-0.239624	-0.073263
C121	C	1.518304	-0.809991	-0.506146
C122	C	2.018304	-0.309991	-0.006146
C123	C	1.585545	-0.833441	-0.439021
C124	C	2.085545	-0.333441	0.060979
C125	C	1.652757	-0.809973	-0.371888
C126	C	2.152757	-0.309973	0.128112
C127	C	1.652720	-0.763058	-0.371875
C128	C	2.152720	-0.263058	0.128125
C129	C	1.383820	-0.763092	-0.640396
C130	C	1.883820	-0.263092	-0.140396
C131	C	1.383862	-0.810007	-0.640404
C132	C	1.883862	-0.310007	-0.140404
C133	C	1.451104	-0.833457	-0.573279
C134	C	1.951104	-0.333457	-0.073279
C135	C	1.792174	-0.216400	-0.506096
C136	C	2.292174	0.283600	-0.006096
C137	C	1.908951	-0.216404	-0.506102
C138	C	2.408951	0.283596	-0.006102
C139	C	1.518215	-0.216346	-0.780114
C140	C	2.018215	0.283654	-0.280114
C141	C	1.518246	-0.216327	-0.896891
C142	C	2.018246	0.283673	-0.396891
C143	C	1.518360	-0.099213	-0.506156
C144	C	2.018360	0.400787	-0.006156
C145	C	1.518454	-0.049279	-0.506188
C146	C	2.018454	0.450721	-0.006188
C147	C	1.585505	-0.187593	-0.951777
C148	C	2.085505	0.312407	-0.451777
C149	C	1.585530	-0.187576	-1.061501
C150	C	2.085530	0.312424	-0.561501
C151	C	1.451034	-0.245032	-1.061444
C152	C	1.951034	0.254968	-0.561444
C153	C	1.451004	-0.245046	-0.951722
C154	C	1.951004	0.254954	-0.451722
C155	C	1.663159	-0.154422	-0.951811
C156	C	2.163159	0.345578	-0.451811
C157	C	1.663184	-0.154406	-1.061535
C158	C	2.163184	0.345594	-0.561535
C159	C	1.518128	-0.216404	-0.233113
C160	C	2.018128	0.283596	0.266887
C161	C	1.518301	-0.216297	-0.116337
C162	C	2.018301	0.283703	0.383663
H163	H	1.118222	-0.164195	-0.384422
H164	H	1.618222	0.335805	0.115578
H165	H	0.933953	-0.313167	-0.628659
H166	H	1.433953	0.186833	-0.128659
F167	F	1.379197	-0.381555	-0.644623
F168	F	1.879197	0.118445	-0.144623
F169	F	1.625060	-0.111217	-1.106055
F170	F	2.125060	0.388783	-0.606055
F171	F	0.905449	-0.157019	-0.367669
F172	F	1.405449	0.342981	0.132331
F173	F	1.656744	-0.381527	-0.367448
F174	F	2.156744	0.118473	0.132552
F175	F	1.764141	-0.170723	-0.907314
F176	F	2.264141	0.329277	-0.407314
F177	F	1.312227	-0.694220	-0.711868
F178	F	1.812227	-0.194220	-0.211868
F179	F	1.112491	-0.266249	-0.756994
F180	F	1.612491	0.233751	-0.256994
F181	F	1.117928	-0.321565	-0.612380
F182	F	1.617928	0.178435	-0.112380
H183	H	1.744545	-0.163724	-1.091311
H184	H	2.244545	0.336276	-0.591311
F185	F	1.379474	-0.275596	-1.119807
F186	F	1.879474	0.224404	-0.619807
H187	H	0.929803	-0.265962	-0.727955
H188	H	1.429803	0.234038	-0.227955
H189	H	1.640025	-0.472503	-0.384264
H190	H	2.140025	0.027497	0.115736
H191	H	1.396072	-0.472543	-0.627869
H192	H	1.896072	0.027457	-0.127869
H193	H	1.641428	-0.119630	-0.922064
H194	H	2.141428	0.380370	-0.422064
F195	F	1.379404	-0.275622	-0.893312
F196	F	1.879404	0.224378	-0.393312
F197	F	1.724155	-0.597343	-0.300381
F198	F	2.224155	-0.097343	0.199619
H199	H	1.707408	-0.688315	-0.317186
H200	H	2.207408	-0.188315	0.182814
F201	F	1.657168	-0.953922	-0.367573
F202	F	2.157168	-0.453922	0.132427
F203	F	1.724257	-0.738090	-0.300412
F204	F	2.224257	-0.238090	0.199588
F205	F	1.724318	-0.834938	-0.300446
F206	F	2.224318	-0.334938	0.199554
H207	H	1.640422	-1.044911	-0.384393
H208	H	2.140422	-0.544911	0.115607
H209	H	1.396474	-1.044931	-0.627979
H210	H	1.896474	-0.544931	-0.127979
H211	H	1.396425	-0.959822	-0.627977
H212	H	1.896425	-0.459822	-0.127977
H213	H	1.328975	-0.603245	-0.695053
H214	H	1.828975	-0.103245	-0.195053
F215	F	1.312321	-0.834976	-0.711871
F216	F	1.812321	-0.334976	-0.211871
H217	H	1.329065	-0.744003	-0.695059
H218	H	1.829065	-0.244003	-0.195059
