data_functionalizedCrystal
_audit_creation_method	'MofGen! by Chris Wilmer'
_symmetry_space_group_name_H-M	'P1'
_symmetry_Int_Tables_number	1
_symmetry_cell_setting	triclinic
loop_
_symmetry_equiv_pos_as_xyz
  x,y,z
_cell_length_a	16.109301
_cell_length_b	27.732048
_cell_length_c	14.586319
_cell_angle_alpha	89.991275
_cell_angle_beta	89.999213
_cell_angle_gamma	83.052068
loop_
_atom_site_label
_atom_site_type_symbol
_atom_site_fract_x
_atom_site_fract_y
_atom_site_fract_z
O1	O	1.102362	0.062130	-0.076193
O2	O	0.860204	0.069862	-0.076208
O3	O	0.988804	-0.004369	-0.076183
O4	O	0.973762	0.136361	-0.076218
O5	O	0.988795	-0.004370	0.076298
O6	O	0.860195	0.069861	0.076272
O7	O	1.102353	0.062129	0.076288
Cu8	Cu	0.981273	0.065995	0.090203
Cu9	Cu	0.981283	0.065996	-0.090123
O10	O	0.973753	0.136360	0.076262
C11	C	0.829228	0.069548	0.000030
C12	C	0.736945	0.068609	0.000025
C13	C	0.514154	0.110473	0.000025
C14	C	0.427445	0.109587	0.000031
C15	C	0.448409	0.021514	0.000050
C16	C	0.535117	0.022401	0.000050
C17	C	0.567987	0.066882	0.000033
C18	C	0.394570	0.065109	0.000039
C19	C	0.300556	0.064148	0.000045
C20	C	0.662007	0.067843	0.000028
C21	C	0.988483	-0.022378	0.000060
C22	C	0.987533	-0.076037	0.000068
C23	C	1.057541	-0.414559	0.000025
C24	C	1.054013	-0.616233	0.000012
O25	O	1.118031	-0.647221	-0.000024
N26	N	0.977759	-0.635676	0.000008
C27	C	0.902381	-0.604697	0.000001
O28	O	0.837441	-0.625862	-0.000012
C29	C	0.905910	-0.403024	0.000008
C30	C	0.982169	-0.383584	0.000021
C31	C	1.133794	-0.395119	0.000038
C32	C	1.134675	-0.344703	0.000046
C33	C	1.059303	-0.313728	0.000042
C34	C	0.983050	-0.333168	0.000029
C35	C	0.830533	-0.372045	-0.000006
C36	C	0.831422	-0.321624	-0.000006
C37	C	0.907681	-0.302184	0.000007
C38	C	0.908559	-0.251777	0.000034
N39	N	0.984814	-0.232334	0.000038
C40	C	1.060186	-0.263310	0.000042
C41	C	0.900534	-0.710579	-0.000000
C42	C	0.899652	-0.760997	-0.000000
C43	C	1.051284	-0.772530	0.000009
C44	C	1.052166	-0.722111	0.000016
C45	C	0.976789	-0.691136	0.000004
C46	C	1.062030	-0.157433	0.000060
C47	C	1.062905	-0.107012	0.000072
C48	C	0.911273	-0.095484	0.000058
C49	C	0.910398	-0.145900	0.000051
C50	C	0.985783	-0.176874	0.000049
O51	O	0.844576	-0.220761	0.000059
O52	O	1.125116	-0.242135	0.000035
C53	C	1.056660	-0.464975	0.000017
C54	C	0.980407	-0.484415	0.000005
C55	C	0.905035	-0.453440	0.000001
C56	C	0.979525	-0.534833	0.000005
C57	C	1.054897	-0.565808	0.000009
C58	C	1.131151	-0.546365	0.000013
C59	C	1.132032	-0.495950	0.000021
C60	C	0.828781	-0.472883	-0.000004
C61	C	0.827906	-0.523299	-0.000011
C62	C	0.903278	-0.554274	-0.000007
C63	C	1.133328	0.062443	0.000048
C64	C	1.225612	0.063382	0.000047
C65	C	0.974073	0.154369	0.000017
C66	C	0.975024	0.208028	0.000004
N67	N	0.981272	0.065994	0.217035
N68	N	0.981291	0.065994	-0.216955
C69	C	1.038234	0.033135	0.452053
C70	C	1.038237	0.033134	0.548034
C71	C	0.924323	0.098854	0.548020
C72	C	0.924317	0.098852	0.452041
C73	C	0.981278	0.065993	0.404060
C74	C	0.981286	0.065994	0.596020
C75	C	0.981288	0.065993	0.700087
C76	C	0.981275	0.065994	0.299986
H77	H	0.383617	0.145084	0.000026
H78	H	0.421636	-0.014700	0.000069
H79	H	0.770039	-0.296407	-0.000017
H80	H	0.877932	0.125610	0.412962
O81	O	1.093486	0.001235	0.594796
C82	C	1.144014	-0.027873	0.742661
C83	C	1.081385	0.008273	0.689819
H84	H	1.134264	-0.022188	0.819496
H85	H	1.133682	-0.066602	0.723870
H86	H	1.210511	-0.021567	0.723728
H87	H	1.014864	0.002011	0.708723
H88	H	1.091791	0.046989	0.708615
H89	H	1.084614	0.006379	0.412988
H90	H	0.578951	-0.013099	0.000059
O91	O	0.545946	0.153722	0.000057
C92	C	0.515996	0.240985	-0.000009
C93	C	0.479884	0.192038	-0.000028
H94	H	0.462603	0.271976	-0.000097
H95	H	0.556035	0.243632	0.063818
H96	H	0.556095	0.243578	-0.063808
H97	H	0.439748	0.189411	0.063728
H98	H	0.439892	0.189411	-0.063897
O99	O	1.137060	-0.088209	0.000041
C100	C	1.287365	-0.104979	0.000102
C101	C	1.203447	-0.126335	0.000119
H102	H	1.341061	-0.135793	0.000185
H103	H	1.291631	-0.081673	-0.063722
H104	H	1.291523	-0.081654	0.063904
H105	H	1.199233	-0.149682	-0.063640
H106	H	1.199217	-0.149613	0.063985
O107	O	0.869080	0.130756	0.594774
C108	C	0.818574	0.159868	0.742629
C109	C	0.881193	0.123719	0.689799
H110	H	0.828333	0.154184	0.819466
H111	H	0.828909	0.198595	0.723809
H112	H	0.752074	0.153564	0.723713
H113	H	0.947718	0.129978	0.708686
H114	H	0.870785	0.085004	0.708623
O115	O	1.135237	-0.187536	-0.000100
C116	C	1.222247	-0.251159	-0.079058
C117	C	1.139322	-0.217088	-0.079010
H118	H	1.225570	-0.275068	-0.142840
H119	H	1.276925	-0.228621	-0.079105
H120	H	1.225613	-0.275036	-0.015217
H121	H	1.135875	-0.193204	-0.142840
H122	H	1.084684	-0.239655	-0.078915
O123	O	1.124557	-0.802574	-0.000115
C124	C	1.253852	-0.827881	-0.079155
C125	C	1.170917	-0.793819	-0.079107
H126	H	1.291350	-0.820822	-0.143023
H127	H	1.291479	-0.820818	-0.015388
H128	H	1.240095	-0.867251	-0.079113
H129	H	1.184598	-0.754438	-0.079181
H130	H	1.133315	-0.800924	-0.142868
H131	H	1.196773	-0.328880	0.000053
H132	H	1.195175	-0.420334	0.000038
H133	H	1.114263	-0.706287	0.000026
H134	H	0.839149	-0.685363	-0.000010
H135	H	0.837554	-0.776820	0.000005
O136	O	0.753873	-0.542236	-0.000147
C137	C	0.664856	-0.592420	-0.079208
C138	C	0.748731	-0.571018	-0.079145
H139	H	0.660663	-0.615687	-0.143081
H140	H	0.660622	-0.615777	-0.015446
H141	H	0.611157	-0.561608	-0.079168
H142	H	0.802478	-0.601800	-0.079217
H143	H	0.752892	-0.547649	-0.142901
O144	O	0.756380	-0.390841	-0.000064
C145	C	0.606077	-0.374059	-0.000039
C146	C	0.690001	-0.352710	0.000007
H147	H	0.552388	-0.343241	0.000037
H148	H	0.601818	-0.397349	-0.063871
H149	H	0.601900	-0.397397	0.063755
H150	H	0.694235	-0.329350	-0.063744
H151	H	0.694224	-0.329447	0.063881
O152	O	0.836248	-0.164707	0.000000
C153	C	0.685943	-0.147940	0.000032
C154	C	0.769859	-0.126582	0.000082
H155	H	0.632246	-0.117127	0.000117
H156	H	0.681690	-0.171227	-0.063807
H157	H	0.681775	-0.171285	0.063819
H158	H	0.774083	-0.103216	-0.063662
H159	H	0.774076	-0.103323	0.063963
O160	O	1.206089	-0.477046	0.000189
C161	C	1.295080	-0.426811	0.079159
C162	C	1.211185	-0.448191	0.079098
H163	H	1.299220	-0.403468	0.142941
H164	H	1.348825	-0.457597	0.079218
H165	H	1.299280	-0.403510	0.015318
H166	H	1.206904	-0.471485	0.142929
H167	H	1.157480	-0.417381	0.078992
O168	O	1.204292	-0.576529	-0.000026
C169	C	1.270113	-0.659318	0.000015
C170	C	1.187227	-0.625211	0.000045
H171	H	1.256345	-0.698685	0.000092
H172	H	1.307687	-0.652281	-0.063811
H173	H	1.307677	-0.652232	0.063815
H174	H	1.149596	-0.632277	-0.063711
H175	H	1.149717	-0.632255	0.063914
O176	O	0.838083	-0.065369	-0.000111
C177	C	0.751131	-0.001717	-0.079096
C178	C	0.834039	-0.035804	-0.079020
H179	H	0.747842	0.022202	-0.142877
H180	H	0.696437	-0.024243	-0.079166
H181	H	0.747760	0.022149	-0.015254
H182	H	0.837491	-0.059676	-0.142851
H183	H	0.888693	-0.013249	-0.078902
H184	H	0.767402	-0.447667	-0.000009
