data_functionalizedCrystal
_audit_creation_method	'MofGen! by Chris Wilmer'
_symmetry_space_group_name_H-M	'P1'
_symmetry_Int_Tables_number	1
_symmetry_cell_setting	triclinic
loop_
_symmetry_equiv_pos_as_xyz
  x,y,z
_cell_length_a	10.654550
_cell_length_b	19.288864
_cell_length_c	18.366186
_cell_angle_alpha	89.971967
_cell_angle_beta	89.987444
_cell_angle_gamma	83.810574
loop_
_atom_site_label
_atom_site_type_symbol
_atom_site_fract_x
_atom_site_fract_y
_atom_site_fract_z
O1	O	1.665761	0.097556	-0.060648
O2	O	2.165761	0.597556	0.439352
O3	O	1.300084	0.106850	-0.060640
O4	O	1.800084	0.606850	0.439360
O5	O	1.493489	0.001142	-0.060600
O6	O	1.993489	0.501142	0.439400
O7	O	1.472356	0.203264	-0.060689
O8	O	1.972356	0.703264	0.439311
O9	O	1.493456	0.001136	0.060500
O10	O	1.993456	0.501136	0.560500
O11	O	1.300051	0.106845	0.060459
O12	O	1.800051	0.606845	0.560459
O13	O	1.665728	0.097550	0.060451
O14	O	2.165728	0.597550	0.560451
Zn15	Zn	1.482884	0.102197	0.079682
Zn16	Zn	1.982884	0.602197	0.579682
Zn17	Zn	1.482928	0.102204	-0.079872
Zn18	Zn	1.982928	0.602204	0.420128
O19	O	1.472323	0.203259	0.060410
O20	O	1.972323	0.703259	0.560410
C21	C	1.253284	0.106165	-0.000089
C22	C	1.753284	0.606165	0.499911
C23	C	1.113884	0.104123	-0.000084
C24	C	1.613884	0.604123	0.499916
C25	C	1.492792	-0.024742	-0.000040
C26	C	1.992792	0.475258	0.499960
C27	C	1.490751	-0.101859	-0.000010
C28	C	1.990751	0.398141	0.499990
N29	N	1.482864	0.102191	0.188573
N30	N	1.982864	0.602191	0.688573
C31	C	1.033066	0.166362	-0.000122
C32	C	1.533066	0.666362	0.499878
C33	C	0.902087	0.164440	-0.000134
C34	C	1.402087	0.664440	0.499866
C35	C	0.932756	0.038033	-0.000072
C36	C	1.432756	0.538033	0.499928
C37	C	1.063733	0.039956	-0.000055
C38	C	1.563733	0.539956	0.499945
C39	C	1.083218	0.230529	-0.000150
C40	C	1.583218	0.730529	0.499850
C41	C	1.002398	0.292774	-0.000189
C42	C	1.502398	0.792774	0.499811
C43	C	0.871419	0.290851	-0.000201
C44	C	1.371419	0.790851	0.499799
C45	C	0.821258	0.226684	-0.000174
C46	C	1.321258	0.726684	0.499826
C47	C	1.712528	0.098235	-0.000102
C48	C	2.212528	0.598235	0.499898
C49	C	1.851928	0.100277	-0.000112
C50	C	2.351928	0.600277	0.499888
C51	C	1.473020	0.229142	-0.000151
C52	C	1.973020	0.729142	0.499849
C53	C	1.475061	0.306259	-0.000186
C54	C	1.975061	0.806259	0.499814
C55	C	1.361580	0.350212	-0.000169
C56	C	1.861580	0.850212	0.499831
C57	C	1.363497	0.422672	-0.000152
C58	C	1.863497	0.922672	0.499848
C59	C	1.478903	0.451175	-0.000138
C60	C	1.978903	0.951175	0.499862
C61	C	1.592399	0.407212	-0.000160
C62	C	2.092399	0.907212	0.499840
C63	C	1.590478	0.334754	-0.000183
C64	C	2.090478	0.834754	0.499817
C65	C	1.569612	0.560017	0.042325
C66	C	2.069612	1.060017	0.542325
C67	C	1.571528	0.632474	0.042353
C68	C	2.071528	1.132474	0.542353
C69	C	1.484832	0.674660	-0.000069
C70	C	1.984832	1.174660	0.499931
C71	C	1.396198	0.644380	-0.042509
C72	C	1.896198	1.144380	0.457491
C73	C	1.394277	0.571922	-0.042532
C74	C	1.894277	1.071922	0.457468
C75	C	1.480998	0.529743	-0.000113
C76	C	1.980998	1.029743	0.499887
C77	C	1.373422	0.797182	-0.000035
C78	C	1.873422	1.297182	0.499965
C79	C	1.375345	0.869643	-0.000023
C80	C	1.875345	1.369643	0.499977
C81	C	1.604250	0.854182	-0.000023
C82	C	2.104250	1.354182	0.499977
C83	C	1.602324	0.781723	-0.000042
C84	C	2.102324	1.281723	0.499958
C85	C	1.486907	0.753227	-0.000044
C86	C	1.986907	1.253227	0.499956
N87	N	1.482958	0.102203	-0.188763
N88	N	1.982958	0.602203	0.311237
C89	C	1.568532	0.055407	0.226692
C90	C	2.068532	0.555407	0.726692
C91	C	1.568540	0.055404	0.302919
C92	C	2.068540	0.555404	0.802919
C93	C	1.482892	0.102197	0.341026
C94	C	1.982892	0.602197	0.841026
C95	C	1.397208	0.148985	0.302898
C96	C	1.897208	0.648985	0.802898
C97	C	1.397194	0.148982	0.226672
C98	C	1.897194	0.648982	0.726672
C99	C	1.466081	0.165375	0.461759
C100	C	1.966081	0.665375	0.961759
C101	C	1.466104	0.165379	0.537984
C102	C	1.966104	0.665379	1.037984
C103	C	1.482928	0.102206	0.576133
C104	C	1.982928	0.602206	1.076133
C105	C	1.499755	0.039027	0.538049
C106	C	1.999755	0.539027	1.038049
C107	C	1.499741	0.039024	0.461823
C108	C	1.999741	0.539024	0.961823
C109	C	1.482897	0.102205	0.423681
C110	C	1.982897	0.602205	0.923681
C111	C	1.568609	0.055415	0.696907
C112	C	2.068609	0.555415	1.196907
C113	C	1.568608	0.055411	0.773136
C114	C	2.068608	0.555411	1.273136
C115	C	1.397282	0.148998	0.773113
C116	C	1.897282	0.648998	1.273113
C117	C	1.397277	0.148996	0.696886
C118	C	1.897277	0.648996	1.196886
C119	C	1.482947	0.102205	0.658787
C120	C	1.982947	0.602205	1.158787
H121	H	1.189866	0.232102	-0.000144
H122	H	1.689866	0.732102	0.499856
H123	H	1.327523	0.187095	0.665848
H124	H	1.827523	0.687095	1.165848
H125	H	0.891904	-0.014209	-0.000062
H126	H	1.391904	0.485791	0.499938
Br127	Br	0.643498	0.224076	-0.000176
Br128	Br	1.143498	0.724076	0.499824
H129	H	0.805618	0.341534	-0.000226
H130	H	1.305618	0.841534	0.499774
Br131	Br	1.173423	-0.044513	0.000001
Br132	Br	1.673423	0.455487	0.500001
H133	H	1.043248	0.345016	-0.000205
H134	H	1.543248	0.845016	0.499795
Br135	Br	1.204943	0.311543	-0.000178
Br136	Br	1.704943	0.811543	0.499822
Br137	Br	1.209476	0.482335	-0.000128
Br138	Br	1.709476	0.982335	0.499872
H139	H	1.686363	0.430424	-0.000162
H140	H	2.186363	0.930424	0.499838
H141	H	1.325595	0.678727	-0.077048
H142	H	1.825595	1.178727	0.422952
Br143	Br	1.760875	0.892856	-0.000015
Br144	Br	2.260875	1.392856	0.499985
Br145	Br	1.274000	0.530830	-0.100130
Br146	Br	1.774000	1.030830	0.399870
H147	H	1.279443	0.773981	-0.000032
H148	H	1.779443	1.273981	0.499968
H149	H	1.327542	0.187095	0.804139
H150	H	1.827542	0.687095	1.304139
Br151	Br	1.756343	0.722067	-0.000060
Br152	Br	2.256343	1.222067	0.499940
H153	H	1.638286	0.017306	0.195674
H154	H	2.138286	0.517306	0.695674
H155	H	1.327470	0.187084	0.333928
H156	H	1.827470	0.687084	0.833928
Br157	Br	1.684811	-0.008095	0.354661
Br158	Br	2.184811	0.491905	0.854661
Br159	Br	1.522566	-0.046715	0.410138
Br160	Br	2.022566	0.453285	0.910138
Br161	Br	1.687294	0.502772	0.099894
Br162	Br	2.187294	1.002772	0.599894
H163	H	1.327432	0.187080	0.195635
H164	H	1.827432	0.687080	0.695635
Br165	Br	1.522604	-0.046714	0.589814
Br166	Br	2.022604	0.453286	1.089814
H167	H	1.643695	0.657122	0.076913
H168	H	2.143695	1.157122	0.576913
H169	H	1.682891	0.298967	-0.000198
H170	H	2.182891	0.798967	0.499802
Br171	Br	1.684869	-0.008089	0.645199
Br172	Br	2.184869	0.491911	1.145199
H173	H	1.282931	0.905430	-0.000014
H174	H	1.782931	1.405430	0.499986
H175	H	1.638365	0.017309	0.804173
H176	H	2.138365	0.517309	1.304173
Br177	Br	1.443281	0.251121	0.589662
Br178	Br	1.943281	0.751121	1.089662
Br179	Br	1.443374	0.251120	0.409991
Br180	Br	1.943374	0.751120	0.909991
