data_functionalizedCrystal
_audit_creation_method	'MofGen! by Chris Wilmer'
_symmetry_space_group_name_H-M	'P1'
_symmetry_Int_Tables_number	1
_symmetry_cell_setting	triclinic
loop_
_symmetry_equiv_pos_as_xyz
  x,y,z
_cell_length_a	23.532407
_cell_length_b	15.995350
_cell_length_c	15.072220
_cell_angle_alpha	89.992853
_cell_angle_beta	89.998642
_cell_angle_gamma	96.829474
loop_
_atom_site_label
_atom_site_type_symbol
_atom_site_fract_x
_atom_site_fract_y
_atom_site_fract_z
O1	O	0.755650	-0.101647	0.073668
O2	O	0.589843	-0.116354	0.073693
O3	O	0.677279	0.012925	0.073679
O4	O	0.668214	-0.230926	0.073682
O5	O	0.677273	0.012940	-0.073886
O6	O	0.589837	-0.116338	-0.073872
O7	O	0.755644	-0.101632	-0.073897
Zn8	Zn	0.672740	-0.108982	-0.097314
Zn9	Zn	0.672747	-0.109003	0.097110
O10	O	0.668208	-0.230910	-0.073883
C11	C	0.568623	-0.115971	-0.000086
C12	C	0.505401	-0.114845	-0.000076
N13	N	0.672739	-0.108968	-0.230003
C14	C	0.676901	0.044124	-0.000102
C15	C	0.675778	0.137065	-0.000097
C16	C	0.106565	-0.184288	-0.000116
C17	C	0.047161	-0.183242	-0.000121
O18	O	0.010664	-0.247615	-0.000152
N19	N	0.024239	-0.106386	-0.000120
C20	C	0.060725	-0.030570	-0.000124
O21	O	0.035773	0.034898	-0.000124
C22	C	0.120128	-0.031617	-0.000124
C23	C	0.143047	-0.108478	-0.000116
C24	C	0.129484	-0.261142	-0.000108
C25	C	0.188885	-0.262188	-0.000101
C26	C	0.225366	-0.186379	-0.000101
C27	C	0.202447	-0.109524	-0.000109
C28	C	0.156613	0.044197	-0.000134
C29	C	0.216019	0.043143	-0.000135
C30	C	0.238938	-0.033718	-0.000127
C31	C	0.298328	-0.034760	-0.000102
N32	N	0.321250	-0.111616	-0.000103
C33	C	0.284769	-0.187426	-0.000102
C34	C	-0.064026	-0.028378	-0.000123
C35	C	-0.123428	-0.027330	-0.000116
C36	C	-0.136988	-0.180002	-0.000115
C37	C	-0.077585	-0.181049	-0.000116
C38	C	-0.041104	-0.105234	-0.000124
C39	C	0.409514	-0.189616	-0.000087
C40	C	0.468920	-0.190655	-0.000076
C41	C	0.482475	-0.037984	-0.000081
C42	C	0.423074	-0.036944	-0.000087
C43	C	0.386594	-0.112767	-0.000093
O44	O	0.334860	0.029579	-0.000074
O45	O	0.309729	-0.252883	-0.000113
C46	C	0.776864	-0.102014	-0.000116
C47	C	0.840086	-0.103140	-0.000120
C48	C	0.668586	-0.262110	-0.000100
C49	C	0.669709	-0.355051	-0.000100
C50	C	0.671743	0.474779	-0.000099
C51	C	0.609473	0.426827	0.000241
C52	C	0.610596	0.330146	-0.000091
C53	C	0.673744	0.307235	-0.000097
C54	C	0.704455	0.348577	-0.084367
C55	C	0.702890	0.445200	-0.084438
C56	C	0.704183	0.445551	0.083371
C57	C	0.704169	0.348606	0.084485
C58	C	0.674879	0.212547	-0.000099
C59	C	0.670610	0.569468	-0.000103
C60	C	0.672748	-0.108996	-0.589204
C61	C	0.719685	-0.040050	-0.551577
C62	C	0.719562	-0.039798	-0.448752
C63	C	0.672744	-0.108982	-0.411000
C64	C	0.613327	-0.090396	-0.448334
C65	C	0.613605	-0.089909	-0.551192
C66	C	0.684692	-0.196735	-0.551282
C67	C	0.686041	-0.196136	-0.448418
C68	C	0.672738	-0.108976	-0.310287
C69	C	0.672750	-0.109001	-0.689918
N70	N	0.672753	-0.109011	0.229798
H71	H	0.487576	-0.253247	-0.000068
H72	H	0.577628	-0.138242	-0.576083
N73	N	0.092227	-0.338589	-0.000125
N74	N	0.094330	-0.389809	-0.062326
H75	H	0.068021	-0.444511	-0.062334
H76	H	0.577558	-0.139296	-0.423881
N77	N	0.599799	-0.011061	-0.416022
N78	N	0.633819	0.031920	-0.365510
H79	H	0.624268	0.087952	-0.342689
H80	H	0.683120	0.320025	-0.147074
H81	H	0.603077	-0.025937	-0.575191
H82	H	-0.058929	-0.243636	-0.000114
H83	H	0.711930	0.025324	-0.424153
H84	H	0.727093	-0.214722	-0.577223
N85	N	0.580317	0.294228	0.075693
N86	N	0.596646	0.316231	0.152005
H87	H	0.575258	0.290867	0.205530
N88	N	-0.174257	-0.257443	-0.000144
N89	N	-0.172160	-0.308656	-0.062354
H90	H	-0.198482	-0.363347	-0.062377
N91	N	0.740874	-0.213837	-0.417804
N92	N	0.770081	-0.162500	-0.368609
H93	H	0.808808	-0.174998	-0.346982
H94	H	0.712164	0.024703	-0.577435
H95	H	0.683827	0.465915	0.147242
H96	H	0.404413	0.025642	-0.000081
N97	N	-0.146825	0.051189	-0.000105
N98	N	-0.114239	0.118866	-0.000100
H99	H	-0.130761	0.174324	-0.000096
N100	N	0.372265	-0.267073	-0.000097
N101	N	0.392746	-0.335683	-0.000091
H102	H	0.366440	-0.390388	-0.000095
H103	H	0.654070	-0.249807	-0.422718
H104	H	0.512188	0.023738	-0.000078
N105	N	0.212281	-0.340708	-0.000091
N106	N	0.179693	-0.408383	-0.000091
H107	H	0.196212	-0.463842	-0.000086
H108	H	0.650465	-0.248038	-0.575619
N109	N	-0.026772	0.049078	-0.000127
N110	N	-0.047251	0.117689	-0.000128
H111	H	-0.020944	0.172393	-0.000133
H112	H	0.750219	0.333626	0.089568
N113	N	0.133222	0.122717	-0.000138
N114	N	0.165812	0.190391	-0.000144
H115	H	0.149294	0.245851	-0.000148
H116	H	0.245720	0.104882	-0.000142
H117	H	0.584692	0.446222	-0.059846
N118	N	0.578258	0.449805	0.076061
N119	N	0.601538	0.501793	0.130730
H120	H	0.579494	0.518024	0.184283
H121	H	0.681715	0.321164	0.146826
H122	H	0.586289	0.302086	-0.060595
N123	N	0.674780	0.467923	-0.163449
N124	N	0.624220	0.437781	-0.178397
H125	H	0.604364	0.453824	-0.234200
N126	N	0.760243	0.486126	-0.089252
N127	N	0.801296	0.443299	-0.092555
H128	H	0.841801	0.472199	-0.095961
N129	N	0.761780	0.485866	0.084060
N130	N	0.778929	0.535918	0.023409
H131	H	0.819606	0.564391	0.023886
N132	N	0.774970	-0.053638	-0.417128
N133	N	0.817822	-0.003395	-0.437306
H134	H	0.856956	-0.013188	-0.414990
N135	N	0.762654	0.331341	-0.088296
N136	N	0.782193	0.288292	-0.028890
H137	H	0.823297	0.276118	-0.031662
N138	N	0.775278	-0.053627	-0.582598
N139	N	0.780957	-0.114271	-0.632803
H140	H	0.820221	-0.123864	-0.654715
