data_functionalizedCrystal
_audit_creation_method	'MofGen! by Chris Wilmer'
_symmetry_space_group_name_H-M	'P1'
_symmetry_Int_Tables_number	1
_symmetry_cell_setting	triclinic
loop_
_symmetry_equiv_pos_as_xyz
  x,y,z
_cell_length_a	21.395362
_cell_length_b	21.395361
_cell_length_c	21.395356
_cell_angle_alpha	90.028721
_cell_angle_beta	89.964122
_cell_angle_gamma	89.953589
loop_
_atom_site_label
_atom_site_type_symbol
_atom_site_fract_x
_atom_site_fract_y
_atom_site_fract_z
Zn1	Zn	0.957810	0.249186	-0.354583
Zn2	Zn	1.457810	0.749186	0.145417
Zn3	Zn	0.957728	0.353963	-0.249805
Zn4	Zn	1.457728	0.853963	0.250195
Zn5	Zn	0.853040	0.249233	-0.249785
Zn6	Zn	1.353040	0.749233	0.250215
Zn7	Zn	0.852995	0.353959	-0.354510
Zn8	Zn	1.352995	0.853959	0.145490
O9	O	0.905393	0.301585	-0.302171
O10	O	1.405393	0.801585	0.197829
O11	O	1.045477	0.263067	-0.340724
O12	O	1.545477	0.763067	0.159276
O13	O	0.943825	0.340092	-0.162124
O14	O	1.443825	0.840092	0.337876
O15	O	0.866992	0.161548	-0.263709
O16	O	1.366992	0.661548	0.236291
O17	O	1.045417	0.340047	-0.263743
O18	O	1.545417	0.840047	0.236257
O19	O	0.943966	0.161514	-0.340704
O20	O	1.443966	0.661514	0.159296
O21	O	0.866912	0.263147	-0.162109
O22	O	1.366912	0.763147	0.337891
O23	O	0.765356	0.263142	-0.263637
O24	O	1.265356	0.763142	0.236363
O25	O	0.866914	0.340039	-0.442197
O26	O	1.366914	0.840039	0.057803
O27	O	0.765323	0.340084	-0.340578
O28	O	1.265323	0.840084	0.159422
O29	O	0.943922	0.263062	-0.442251
O30	O	1.443922	0.763062	0.057749
O31	O	0.943781	0.441641	-0.263672
O32	O	1.443781	0.941641	0.236328
O33	O	0.866834	0.441637	-0.340598
O34	O	1.366834	0.941637	0.159402
C35	C	0.742606	0.301618	-0.302098
C36	C	1.242606	0.801618	0.197902
C37	C	0.672964	0.301647	-0.302082
C38	C	1.172964	0.801647	0.197918
C39	C	0.640250	0.341764	-0.342085
C40	C	1.140250	0.841764	0.157915
C41	C	0.574815	0.341749	-0.342113
C42	C	1.074815	0.841749	0.157887
C43	C	0.542096	0.301623	-0.302126
C44	C	1.042096	0.801623	0.197874
C45	C	0.574818	0.261499	-0.262120
C46	C	1.074818	0.761499	0.237880
C47	C	0.640252	0.261511	-0.262098
C48	C	1.140252	0.761511	0.237902
C49	C	0.438379	0.296585	-0.245721
C50	C	0.938379	0.796585	0.254279
C51	C	0.372946	0.296578	-0.245742
C52	C	0.872946	0.796578	0.254258
C53	C	0.340275	0.301582	-0.302195
C54	C	0.840275	0.801582	0.197805
C55	C	0.373045	0.306608	-0.358629
C56	C	0.873045	0.806608	0.141371
C57	C	0.438480	0.306620	-0.358607
C58	C	0.938480	0.806620	0.141393
C59	C	0.471144	0.301605	-0.302146
C60	C	0.971144	0.801605	0.197854
C61	C	0.236609	0.341685	-0.342232
C62	C	0.736609	0.841685	0.157768
C63	C	0.171172	0.341665	-0.342261
C64	C	0.671172	0.841665	0.157739
C65	C	0.171177	0.261418	-0.262263
C66	C	0.671177	0.761418	0.237737
C67	C	0.236612	0.261435	-0.262240
C68	C	0.736612	0.761435	0.237760
C69	C	0.269324	0.301571	-0.302223
C70	C	0.769324	0.801571	0.197777
C71	C	0.905311	0.464373	-0.302143
C72	C	1.405311	0.964373	0.197857
C73	C	0.905333	0.534014	-0.302152
C74	C	1.405333	1.034014	0.197848
C75	C	0.945435	0.566708	-0.262139
C76	C	1.445435	1.066708	0.237861
C77	C	0.945464	0.632143	-0.262156
C78	C	1.445464	1.132143	0.237844
C79	C	0.905381	0.664882	-0.302179
C80	C	1.405381	1.164882	0.197821
C81	C	0.865276	0.632180	-0.342200
C82	C	1.365276	1.132180	0.157800
C83	C	0.865252	0.566746	-0.342186
C84	C	1.365252	1.066746	0.157814
C85	C	0.848966	0.768612	-0.307074
C86	C	1.348966	1.268612	0.192926
C87	C	0.848988	0.834045	-0.307083
C88	C	1.348988	1.334045	0.192917
C89	C	0.905454	0.866703	-0.302224
C90	C	1.405454	1.366703	0.197776
C91	C	0.961899	0.833920	-0.297343
C92	C	1.461899	1.333920	0.202657
C93	C	0.961876	0.768486	-0.297329
C94	C	1.461876	1.268486	0.202671
C95	C	0.905402	0.735835	-0.302198
C96	C	1.405402	1.235835	0.197802
C97	C	0.945591	0.970350	-0.262227
C98	C	1.445591	1.470350	0.237773
C99	C	0.945622	1.035786	-0.262249
C100	C	1.445622	1.535786	0.237751
C101	C	0.865428	1.035822	-0.342289
C102	C	1.365428	1.535822	0.157711
C103	C	0.865403	0.970386	-0.342271
C104	C	1.365403	1.470386	0.157729
C105	C	0.905484	0.937654	-0.302237
C106	C	1.405484	1.437654	0.197763
C107	C	1.068817	0.301552	-0.302244
C108	C	1.568817	0.801552	0.197756
C109	C	1.138458	0.301538	-0.302275
C110	C	1.638458	0.801538	0.197725
C111	C	0.905422	0.301545	-0.465594
C112	C	1.405422	0.801545	0.034406
C113	C	0.905435	0.301528	-0.535235
C114	C	1.405435	0.801528	-0.035235
C115	C	0.905494	1.138162	-0.302223
C116	C	1.405494	1.638162	0.197777
C117	C	0.905538	1.068520	-0.302273
C118	C	1.405538	1.568520	0.197727
C119	C	0.945591	0.261346	-1.037061
C120	C	1.445591	0.761346	-0.537061
C121	C	0.945587	0.261361	-0.971625
C122	C	1.445587	0.761361	-0.471625
C123	C	0.905488	0.301444	-0.938874
C124	C	1.405488	0.801444	-0.438874
C125	C	0.865404	0.341526	-0.971563
C126	C	1.365404	0.841526	-0.471563
C127	C	0.865414	0.341514	-1.036997
C128	C	1.365414	0.841514	-0.536997
C129	C	0.849019	0.306422	-0.835179
C130	C	1.349019	0.806422	-0.335179
C131	C	0.849008	0.306429	-0.769746
C132	C	1.349008	0.806429	-0.269746
C133	C	0.905456	0.301484	-0.737053
C134	C	1.405456	0.801484	-0.237053
C135	C	0.961918	0.296519	-0.769801
C136	C	1.461918	0.796519	-0.269801
C137	C	0.961929	0.296507	-0.835235
C138	C	1.461929	0.796507	-0.335235
C139	C	0.905473	0.301462	-0.867921
C140	C	1.405473	0.801462	-0.367921
C141	C	0.945536	0.261424	-0.633419
C142	C	1.445536	0.761424	-0.133419
C143	C	0.945532	0.261444	-0.567982
C144	C	1.445532	0.761444	-0.067982
C145	C	0.865344	0.341605	-0.567921
C146	C	1.365344	0.841605	-0.067921
C147	C	0.865354	0.341589	-0.633356
C148	C	1.365354	0.841589	-0.133356
C149	C	0.905449	0.301495	-0.666101
C150	C	1.405449	0.801495	-0.166101
C151	C	0.905400	0.301580	-0.139383
C152	C	1.405400	0.801580	0.360617
C153	C	0.905510	0.301421	-0.069742
C154	C	1.405510	0.801421	0.430258
H155	H	0.465158	0.310710	-0.404557
H156	H	0.965158	0.810710	0.095443
F157	F	0.822771	1.070660	-0.384889
F158	F	1.322771	1.570660	0.115111
F159	F	0.136356	0.384361	-0.384844
F160	F	0.636356	0.884361	0.115156
F161	F	0.988199	0.218792	-0.533201
F162	F	1.488199	0.718792	-0.033201
H163	H	0.978230	0.943698	-0.229631
H164	H	1.478230	1.443698	0.270369
H165	H	0.832641	0.658840	-0.374788
H166	H	1.332641	1.158840	0.125212
H167	H	0.346446	0.310682	-0.404599
H168	H	0.846446	0.810682	0.095401
H169	H	0.978281	1.062405	-0.229666
H170	H	1.478281	1.562405	0.270334
H171	H	0.548174	0.374416	-0.374690
H172	H	1.048174	0.874416	0.125310
H173	H	0.832596	0.540126	-0.374770
H174	H	1.332596	1.040126	0.125230
H175	H	0.832774	0.374149	-1.063606
H176	H	1.332774	0.874149	-0.563606
H177	H	0.832746	0.943765	-0.374851
H178	H	1.332746	1.443765	0.125149
F179	F	0.988284	0.218694	-1.071907
F180	F	1.488284	0.718694	-0.571907
F181	F	0.788915	0.868929	-0.312276
F182	F	1.288915	1.368929	0.187724
F183	F	0.988249	0.218707	-0.936836
F184	F	1.488249	0.718707	-0.436836
H185	H	0.832712	0.374219	-0.659966
H186	H	1.332712	0.874219	-0.159966
H187	H	0.802981	0.742029	-0.311033
H188	H	1.302981	1.242029	0.188967
F189	F	1.022018	0.291229	-0.870086
F190	F	1.522018	0.791229	-0.370086
F191	F	0.822674	0.384270	-0.533069
F192	F	1.322674	0.884270	-0.033069
H193	H	0.263245	0.374363	-0.374793
H194	H	0.763245	0.874363	0.125207
F195	F	0.136359	0.218710	-0.219709
F196	F	0.636359	0.718710	0.280291
F197	F	0.271430	0.218738	-0.219661
F198	F	0.771430	0.718738	0.280339
F199	F	0.338076	0.291229	-0.185682
F200	F	0.838076	0.791229	0.314318
H201	H	0.803033	0.310472	-0.743087
H202	H	1.303033	0.810472	-0.243087
F203	F	1.022001	0.291265	-0.735013
F204	F	1.522001	0.791265	-0.235013
H205	H	0.978184	0.228777	-0.660081
H206	H	1.478184	0.728777	-0.160081
H207	H	0.464975	0.292507	-0.199747
H208	H	0.964975	0.792507	0.300253
F209	F	0.788934	0.311678	-0.869966
F210	F	1.288934	0.811678	-0.369966
H211	H	0.666881	0.374445	-0.374644
H212	H	1.166881	0.874445	0.125356
F213	F	0.539996	0.218792	-0.219566
F214	F	1.039996	0.718792	0.280434
H215	H	0.666888	0.228841	-0.229522
H216	H	1.166888	0.728841	0.270478
F217	F	0.988100	0.531876	-0.219537
F218	F	1.488100	1.031876	0.280463
H219	H	0.978122	0.658768	-0.229572
H220	H	1.478122	1.158768	0.270428
H221	H	1.007834	0.741795	-0.293357
H222	H	1.507834	1.241795	0.206643
H223	H	1.007879	0.860508	-0.293386
H224	H	1.507879	1.360508	0.206614
H225	H	0.832757	0.374163	-0.944892
H226	H	1.332757	0.874163	-0.444892
