data_functionalizedCrystal
_audit_creation_method	'MofGen! by Chris Wilmer'
_symmetry_space_group_name_H-M	'P1'
_symmetry_Int_Tables_number	1
_symmetry_cell_setting	triclinic
loop_
_symmetry_equiv_pos_as_xyz
  x,y,z
_cell_length_a	12.759401
_cell_length_b	18.101396
_cell_length_c	18.101389
_cell_angle_alpha	89.979844
_cell_angle_beta	90.013861
_cell_angle_gamma	89.962816
loop_
_atom_site_label
_atom_site_type_symbol
_atom_site_fract_x
_atom_site_fract_y
_atom_site_fract_z
Zn1	Zn	1.606044	0.294875	0.418682
Zn2	Zn	1.605884	0.418710	0.294845
Zn3	Zn	1.430360	0.294887	0.294861
Zn4	Zn	1.430266	0.418680	0.418652
O5	O	1.518139	0.356788	0.356760
O6	O	1.753044	0.311310	0.402260
O7	O	1.582573	0.402301	0.191214
O8	O	1.453772	0.191252	0.311306
O9	O	1.752927	0.402290	0.311278
O10	O	1.582846	0.191244	0.402276
O11	O	1.453617	0.311329	0.191226
O12	O	1.283327	0.311300	0.311277
O13	O	1.453611	0.402240	0.522289
O14	O	1.283258	0.402251	0.402225
O15	O	1.582755	0.311281	0.522311
O16	O	1.582482	0.522339	0.311249
O17	O	1.453456	0.522317	0.402210
C18	C	1.245172	0.356774	0.356750
C19	C	1.128395	0.356786	0.356763
C20	C	1.073524	0.404220	0.404042
C21	C	0.963800	0.404229	0.404050
C22	C	0.963827	0.309369	0.309495
C23	C	1.073549	0.309357	0.309491
C24	C	1.128370	0.451649	0.451314
C25	C	1.073500	0.499087	0.498596
C26	C	0.963776	0.499097	0.498604
C27	C	0.908922	0.451668	0.451331
C28	C	1.517970	0.549198	0.356740
C29	C	1.517994	0.631513	0.356757
C30	C	1.518181	0.930603	0.356800
C31	C	1.437194	0.899295	0.414172
C32	C	1.436822	0.813677	0.413991
C33	C	1.518088	0.782221	0.356779
C34	C	1.488112	0.813363	0.278731
C35	C	1.487577	0.899009	0.279075
C36	C	1.629326	0.898949	0.376789
C37	C	1.628685	0.813298	0.378500
C38	C	1.518038	0.698361	0.356763
C39	C	1.518229	1.014463	0.356811
C40	C	1.792172	0.356802	0.356771
C41	C	1.908949	0.356808	0.356775
C42	C	1.518190	0.356756	0.549922
C43	C	1.518212	0.356742	0.632236
C44	C	1.518300	1.163626	0.356799
C45	C	1.518275	1.081312	0.356822
C46	C	1.518148	0.356766	0.164350
C47	C	1.518330	0.356571	0.082036
C48	C	1.518252	0.356684	0.782945
C49	C	1.437011	0.413902	0.814285
C50	C	1.436716	0.413701	0.899903
C51	C	1.518290	0.356629	0.931327
C52	C	1.488670	0.278534	0.900243
C53	C	1.488058	0.278897	0.814598
C54	C	1.629326	0.376868	0.814509
C55	C	1.628752	0.378557	0.900159
C56	C	1.518314	0.356593	1.015187
C57	C	1.518225	0.356715	0.699085
H58	H	0.919157	0.270756	0.271006
H59	H	1.118226	0.270727	0.270998
C60	C	1.377816	0.926085	0.256204
N61	N	1.295140	0.946476	0.238980
H62	H	1.455576	0.792620	0.471863
H63	H	1.455756	0.919850	0.472231
H64	H	1.355312	0.920881	0.401098
H65	H	1.651289	0.792942	0.435939
H66	H	1.217713	0.451648	0.451312
H67	H	1.455270	0.472000	0.793690
C68	C	0.903421	0.551281	0.550612
N69	N	0.857964	0.590593	0.589781
H70	H	1.118168	0.537697	0.537089
C71	C	1.325516	0.786081	0.396158
N72	N	1.241669	0.765297	0.382743
C73	C	1.461682	0.491924	0.928298
N74	N	1.480480	0.550847	0.949681
C75	C	1.563797	0.926992	0.219352
N76	N	1.621198	0.948066	0.174365
H77	H	1.545250	0.792988	0.234819
H78	H	0.819577	0.451673	0.451347
H79	H	1.355175	0.400686	0.792764
C80	C	1.379518	0.784479	0.255446
N81	N	1.297721	0.762726	0.237913
C82	C	1.711094	0.320575	0.787122
N83	N	1.772675	0.278173	0.766489
H84	H	1.656355	0.432865	0.792908
C85	C	1.666235	0.928063	0.452369
N86	N	1.694022	0.949991	0.509298
C87	C	1.714872	0.326363	0.929048
N88	N	1.779735	0.287043	0.950804
C89	C	1.714524	0.784368	0.326160
N90	N	1.779175	0.762579	0.286730
H91	H	1.689664	0.919194	0.335003
C92	C	1.325543	0.395595	0.927588
N93	N	1.241805	0.381953	0.948440
C94	C	1.378386	0.255833	0.787612
N95	N	1.295778	0.238462	0.767290
C96	C	1.564548	0.219320	0.786588
N97	N	1.622154	0.174443	0.765493
C98	C	1.658938	0.456203	0.927604
N99	N	1.681670	0.514686	0.948278
H100	H	1.546042	0.234721	0.920597
C101	C	1.380221	0.255043	0.929223
N102	N	1.298536	0.237352	0.951051
