data_functionalizedCrystal
_audit_creation_method	'MofGen! by Chris Wilmer'
_symmetry_space_group_name_H-M	'P1'
_symmetry_Int_Tables_number	1
_symmetry_cell_setting	triclinic
loop_
_symmetry_equiv_pos_as_xyz
  x,y,z
_cell_length_a	19.188900
_cell_length_b	14.472311
_cell_length_c	19.188929
_cell_angle_alpha	90.030067
_cell_angle_beta	96.861367
_cell_angle_gamma	89.986501
loop_
_atom_site_label
_atom_site_type_symbol
_atom_site_fract_x
_atom_site_fract_y
_atom_site_fract_z
O1	O	-0.926158	0.077064	0.087071
O2	O	-0.426158	0.577064	0.587071
O3	O	-0.722844	0.077033	0.098827
O4	O	-0.222844	0.577033	0.598827
O5	O	-0.830368	0.076992	-0.008707
O6	O	-0.330368	0.576992	0.491293
O7	O	-0.818634	0.077104	0.194606
O8	O	-0.318634	0.577104	0.694606
O9	O	-0.830359	-0.076690	-0.008717
O10	O	-0.330359	0.423310	0.491283
O11	O	-0.722835	-0.076650	0.098817
O12	O	-0.222835	0.423350	0.598817
O13	O	-0.926149	-0.076618	0.087061
O14	O	-0.426149	0.423382	0.587061
Cu15	Cu	-0.824491	-0.090666	0.092938
Cu16	Cu	-0.324491	0.409334	0.592938
Cu17	Cu	-0.824502	0.091081	0.092950
Cu18	Cu	-0.324502	0.591081	0.592950
O19	O	-0.818624	-0.076578	0.194595
O20	O	-0.318624	0.423422	0.694595
C21	C	-0.696828	0.000186	0.098445
C22	C	-0.196828	0.500186	0.598445
C23	C	-0.619322	0.000171	0.097313
C24	C	-0.119322	0.500171	0.597313
N25	N	-0.824488	-0.218497	0.092929
N26	N	-0.324488	0.281503	0.592929
C27	C	-0.582936	0.083945	0.096774
C28	C	-0.082936	0.583945	0.596774
C29	C	-0.510112	0.083953	0.095703
C30	C	-0.010112	0.583953	0.595703
C31	C	-0.473679	0.000184	0.095155
C32	C	0.026321	0.500184	0.595155
C33	C	-0.510074	-0.083600	0.095698
C34	C	-0.010074	0.416400	0.595698
C35	C	-0.582896	-0.083606	0.096776
C36	C	-0.082896	0.416394	0.596776
N37	N	-0.364655	-0.062182	0.053724
N38	N	0.135345	0.437818	0.553724
N39	N	-0.295478	-0.062170	0.052698
N40	N	0.204522	0.437830	0.552698
C41	C	-0.254272	0.000198	0.091907
C42	C	0.245728	0.500198	0.591907
N43	N	-0.284858	0.062569	0.132171
N44	N	0.215142	0.562569	0.632171
N45	N	-0.354042	0.062560	0.133194
N46	N	0.145958	0.562560	0.633194
C47	C	-0.394717	0.000182	0.093986
C48	C	0.105283	0.500182	0.593986
C49	C	-0.138922	0.083987	0.090207
C50	C	0.361078	0.583987	0.590207
C51	C	-0.066096	0.083992	0.089140
C52	C	0.433904	0.583992	0.589140
C53	C	-0.066061	-0.083564	0.089128
C54	C	0.433939	0.416436	0.589128
C55	C	-0.138884	-0.083567	0.090202
C56	C	0.361116	0.416433	0.590202
C57	C	-0.175310	0.000211	0.090738
C58	C	0.324690	0.500211	0.590738
C59	C	-0.824495	-0.406997	0.092938
C60	C	-0.324495	0.093003	0.592938
C61	C	-0.882043	-0.446220	0.035417
C62	C	-0.382043	0.053780	0.535417
C63	C	-0.882250	-0.553308	0.035569
C64	C	-0.382250	-0.053308	0.535569
C65	C	-0.824503	-0.592588	0.092945
C66	C	-0.324503	-0.092588	0.592945
C67	C	-0.839891	-0.553651	0.165837
C68	C	-0.339891	-0.053651	0.665837
C69	C	-0.840299	-0.446529	0.165495
C70	C	-0.340299	0.053471	0.665495
C71	C	-0.751386	-0.446510	0.078223
C72	C	-0.251386	0.053490	0.578223
C73	C	-0.751886	-0.553640	0.076571
C74	C	-0.251886	-0.053640	0.576571
C75	C	-0.824506	-0.697476	0.092954
C76	C	-0.324506	-0.197476	0.592954
C77	C	-0.824494	-0.302109	0.092934
C78	C	-0.324494	0.197891	0.592934
C79	C	0.047836	0.000223	0.087448
C80	C	0.547836	0.500223	0.587448
C81	C	-0.029668	0.000222	0.088594
C82	C	0.470332	0.500222	0.588594
C83	C	-0.829984	0.000138	-0.034723
C84	C	-0.329984	0.500138	0.465277
C85	C	-0.828843	0.000100	-0.112228
C86	C	-0.328843	0.500100	0.387772
N87	N	-0.824511	0.218912	0.092954
N88	N	-0.324511	0.718912	0.592954
C89	C	-0.819009	0.000278	0.220611
C90	C	-0.319009	0.500278	0.720611
C91	C	-0.820150	0.000322	0.298116
C92	C	-0.320150	0.500322	0.798116
C93	C	-0.757058	0.000294	0.343046
C94	C	-0.257058	0.500294	0.843046
C95	C	-0.758130	0.000273	0.415870
C96	C	-0.258130	0.500273	0.915870
C97	C	-0.822297	0.000262	0.443760
C98	C	-0.322297	0.500262	0.943760
C99	C	-0.885397	0.000296	0.398819
C100	C	-0.385397	0.500296	0.898819
C101	C	-0.884323	0.000326	0.325997
C102	C	-0.384323	0.500326	0.825997
N103	N	-0.871341	-0.052090	0.551719
N104	N	-0.371341	0.447910	1.051719
N105	N	-0.872357	-0.052120	0.620898
N106	N	-0.372357	0.447880	1.120898
C107	C	-0.825535	0.000174	0.663168
C108	C	-0.325535	0.500174	1.163168
N109	N	-0.777649	0.052488	0.633648
N110	N	-0.277649	0.552488	1.133648
N111	N	-0.776632	0.052515	0.564463
N112	N	-0.276632	0.552515	1.064463
C113	C	-0.823468	0.000231	0.522722
C114	C	-0.323468	0.500231	1.022722
C115	C	-0.763601	0.000125	0.787063
C116	C	-0.263601	0.500125	1.287063
C117	C	-0.764675	0.000110	0.859888
C118	C	-0.264675	0.500110	1.359888
C119	C	-0.891944	0.000123	0.842835
C120	C	-0.391944	0.500123	1.342835
C121	C	-0.890868	0.000147	0.770012
C122	C	-0.390868	0.500147	1.270012
C123	C	-0.826695	0.000144	0.742131
C124	C	-0.326695	0.500144	1.242131
H125	H	-0.612590	0.152163	0.097211
H126	H	-0.112590	0.652163	0.597211
O127	O	-0.736402	-0.587362	0.005544
O128	O	-0.236402	-0.087362	0.505544
H129	H	-0.730655	-0.527195	-0.029157
H130	H	-0.230655	-0.027195	0.470843
H131	H	-0.704803	0.000299	0.320351
H132	H	-0.204803	0.500299	0.820351
O133	O	-0.958917	0.000157	0.721544
O134	O	-0.458917	0.500157	1.221544
H135	H	-1.003718	0.000135	0.753169
H136	H	-0.503718	0.500135	1.253169
H137	H	-0.935702	0.000350	0.289414
H138	H	-0.435702	0.500350	0.789414
O139	O	-0.026838	0.174347	0.088559
O140	O	0.473162	0.674347	0.588559
H141	H	-0.000032	0.178309	0.040493
H142	H	0.499968	0.678309	0.540493
O143	O	-0.470895	-0.174046	0.095192
O144	O	0.029105	0.325954	0.595192
H145	H	-0.478596	-0.214049	0.143011
H146	H	0.021404	0.285951	0.643011
H147	H	-0.708567	-0.421142	0.120170
H148	H	-0.208567	0.078858	0.620170
H149	H	-0.612521	-0.151827	0.097215
H150	H	-0.112521	0.348173	0.597215
O151	O	-0.470854	0.174311	0.095108
O152	O	0.029146	0.674311	0.595108
H153	H	-0.508419	0.232565	0.095655
H154	H	-0.008419	0.732565	0.595655
H155	H	-0.892581	-0.580455	0.179113
H156	H	-0.392581	-0.080455	0.679113
O157	O	-0.786859	-0.412120	0.223889
O158	O	-0.286859	0.087880	0.723889
H159	H	-0.800615	-0.437867	0.274981
H160	H	-0.300615	0.062133	0.774981
O161	O	-0.026721	-0.173880	0.088576
O162	O	0.473279	0.326120	0.588576
H163	H	-0.047019	-0.214138	0.041218
H164	H	0.452981	0.285862	0.541218
H165	H	-0.168511	-0.151784	0.090636
H166	H	0.331489	0.348216	0.590636
O167	O	-0.178217	0.174340	0.090798
O168	O	0.321783	0.674340	0.590798
H169	H	-0.140675	0.232597	0.090257
H170	H	0.359325	0.732597	0.590257
H171	H	-0.873165	-0.579638	-0.018613
H172	H	-0.373165	-0.079638	0.481387
H173	H	-0.873122	-0.420482	-0.018944
H174	H	-0.373122	0.079518	0.481056
H175	H	-0.936000	-0.419267	0.044682
H176	H	-0.436000	0.080733	0.544682
H177	H	-0.713296	0.000093	0.896470
H178	H	-0.213296	0.500093	1.396470
O179	O	-0.690079	0.000230	0.464345
O180	O	-0.190079	0.500230	0.964345
H181	H	-0.645276	0.000225	0.432723
H182	H	-0.145276	0.500225	0.932723
H183	H	-0.707096	-0.580376	0.115749
H184	H	-0.207096	-0.080376	0.615749
H185	H	-0.936515	-0.578913	0.044978
H186	H	-0.436515	-0.078913	0.544978
H187	H	-0.944190	0.000182	0.865542
H188	H	-0.444190	0.500182	1.365542
O189	O	-0.910905	-0.413389	0.182648
O190	O	-0.410905	0.086611	0.682648
H191	H	-0.944437	-0.473874	0.191106
H192	H	-0.444437	0.026126	0.691106
O193	O	-0.785829	-0.587352	0.223913
O194	O	-0.285829	-0.087352	0.723913
H195	H	-0.747330	-0.632321	0.201387
H196	H	-0.247330	-0.132321	0.701387
O197	O	-0.731627	-0.410798	0.009311
O198	O	-0.231627	0.089202	0.509311
H199	H	-0.773700	-0.364482	-0.015222
H200	H	-0.273700	0.135518	0.484778
H201	H	-0.937642	0.000304	0.421532
H202	H	-0.437642	0.500304	0.921532
O203	O	-0.694390	0.000136	0.756982
O204	O	-0.194390	0.500136	1.256982
H205	H	-0.650697	0.000129	0.800463
H206	H	-0.150697	0.500129	1.300463
