data_functionalizedCrystal
_audit_creation_method	'MofGen! by Chris Wilmer'
_symmetry_space_group_name_H-M	'P1'
_symmetry_Int_Tables_number	1
_symmetry_cell_setting	triclinic
loop_
_symmetry_equiv_pos_as_xyz
  x,y,z
_cell_length_a	19.288864
_cell_length_b	19.288865
_cell_length_c	17.766277
_cell_angle_alpha	89.988397
_cell_angle_beta	89.976791
_cell_angle_gamma	83.136245
loop_
_atom_site_label
_atom_site_type_symbol
_atom_site_fract_x
_atom_site_fract_y
_atom_site_fract_z
O1	O	0.921353	0.086649	-0.062844
O2	O	0.719092	0.098337	-0.062794
O3	O	0.826067	-0.008637	-0.062806
O4	O	0.814378	0.193623	-0.062832
O5	O	0.826048	-0.008643	0.062383
O6	O	0.719074	0.098332	0.062395
O7	O	0.921334	0.086643	0.062344
Cu8	Cu	0.820202	0.092487	0.073800
Cu9	Cu	0.820224	0.092494	-0.074250
O10	O	0.814360	0.193618	0.062356
C11	C	0.693207	0.097959	-0.000193
C12	C	0.616103	0.096830	-0.000173
C13	C	0.825682	-0.034516	-0.000209
C14	C	0.824553	-0.111620	-0.000202
C15	C	0.571407	0.159598	-0.000193
C16	C	0.498960	0.158537	-0.000201
C17	C	0.471212	0.094705	-0.000205
C18	C	0.515918	0.031929	-0.000180
C19	C	0.588364	0.032991	-0.000164
C20	C	0.362957	0.044527	-0.044082
C21	C	0.290512	0.043468	-0.044103
C22	C	0.247767	0.091425	-0.000250
C23	C	0.277473	0.140454	0.043614
C24	C	0.349918	0.141517	0.043630
C25	C	0.392658	0.093546	-0.000221
C26	C	0.124514	0.153047	-0.000278
C27	C	0.052066	0.151984	-0.000281
C28	C	0.069026	0.025374	-0.000267
C29	C	0.141473	0.026439	-0.000256
C30	C	0.169212	0.090278	-0.000265
C31	C	0.887321	-0.156316	-0.000214
C32	C	0.886260	-0.228763	-0.000226
C33	C	0.822428	-0.256511	-0.000210
C34	C	0.759652	-0.211805	-0.000203
C35	C	0.760714	-0.139359	-0.000198
C36	C	0.772242	-0.364800	0.043653
C37	C	0.771182	-0.437245	0.043654
C38	C	0.819148	-0.479956	-0.000226
C39	C	0.868186	-0.450216	-0.044097
C40	C	0.869249	-0.377771	-0.044093
C41	C	0.821269	-0.335065	-0.000215
C42	C	0.880770	-0.603209	-0.000252
C43	C	0.879707	-0.675657	-0.000268
C44	C	0.753097	-0.658697	-0.000238
C45	C	0.754162	-0.586250	-0.000229
C46	C	0.818001	-0.558511	-0.000232
C47	C	0.947220	0.087022	-0.000258
C48	C	1.024324	0.088151	-0.000283
C49	C	0.814745	0.219497	-0.000242
C50	C	0.815874	0.296601	-0.000254
N51	N	0.820192	0.092482	0.177931
N52	N	0.820241	0.092493	-0.178380
C53	C	0.867575	0.045137	0.217312
C54	C	0.867579	0.045134	0.296114
C55	C	0.820206	0.092488	0.335531
C56	C	0.772814	0.139837	0.296140
C57	C	0.772807	0.139834	0.217340
C58	C	0.810908	0.155775	0.460362
C59	C	0.810920	0.155779	0.539161
C60	C	0.820225	0.092496	0.578577
C61	C	0.829533	0.029207	0.539185
C62	C	0.829525	0.029204	0.460385
C63	C	0.820209	0.092496	0.420977
C64	C	0.867616	0.045143	0.703405
C65	C	0.867615	0.045139	0.782208
C66	C	0.772853	0.139848	0.782233
C67	C	0.772850	0.139846	0.703431
C68	C	0.820235	0.092495	0.664022
H69	H	0.593987	0.211580	-0.000202
O70	O	0.404373	-0.002087	-0.086759
C71	C	0.409662	-0.098410	-0.173746
C72	C	0.362678	-0.045653	-0.125465
H73	H	0.375972	-0.133656	-0.205041
H74	H	0.439723	-0.069119	-0.216110
H75	H	0.448085	-0.131544	-0.135784
H76	H	0.324216	-0.012505	-0.163368
H77	H	0.332666	-0.074986	-0.083095
H78	H	0.906198	0.006585	0.671317
H79	H	0.906198	0.006581	0.814274
H80	H	0.624756	-0.018124	-0.000148
H81	H	0.015674	0.203099	-0.000293
H82	H	0.837110	-0.022324	0.571277
H83	H	0.937375	-0.265162	-0.000238
O84	O	0.693124	-0.542927	-0.000174
C85	C	0.567435	-0.533753	-0.000187
C86	C	0.636511	-0.582895	-0.000229
H87	H	0.521645	-0.566047	-0.000247
H88	H	0.564712	-0.499437	0.052220
H89	H	0.564813	-0.499385	-0.052562
H90	H	0.639179	-0.617307	0.052111
H91	H	0.639205	-0.617163	-0.052670
H92	H	0.046435	-0.026600	-0.000317
O93	O	0.725737	-0.323252	0.086329
C94	C	0.709301	-0.239159	0.186972
C95	C	0.762041	-0.286162	0.138688
H96	H	0.738631	-0.209170	0.229326
H97	H	0.676152	-0.200679	0.149077
H98	H	0.674065	-0.272872	0.218292
H99	H	0.797323	-0.252505	0.107360
H100	H	0.795140	-0.324646	0.176621
O101	O	0.184796	-0.034599	-0.000279
C102	C	0.193970	-0.160288	-0.000221
C103	C	0.144828	-0.091212	-0.000217
H104	H	0.161676	-0.206078	-0.000155
H105	H	0.228327	-0.163001	-0.052617
H106	H	0.228297	-0.162920	0.052166
H107	H	0.110458	-0.088534	-0.052568
H108	H	0.110518	-0.088527	0.052214
O109	O	0.236057	0.187112	0.086237
C110	C	0.230778	0.283392	0.173279
C111	C	0.277764	0.230604	0.125035
H112	H	0.264480	0.318559	0.204673
H113	H	0.192383	0.316603	0.135354
H114	H	0.200685	0.254055	0.215570
H115	H	0.307902	0.259884	0.082740
H116	H	0.316115	0.197394	0.163007
O117	O	0.801969	0.217210	0.421990
C118	C	0.850703	0.292339	0.333005
C119	C	0.860908	0.222740	0.376401
H120	H	0.898352	0.296840	0.296147
H121	H	0.802190	0.294167	0.296086
H122	H	0.844027	0.337562	0.374703
H123	H	0.867614	0.177478	0.334757
H124	H	0.909407	0.220973	0.413331
H125	H	0.939303	-0.133736	-0.000220
O126	O	0.726768	0.185742	0.334510
C127	C	0.631849	0.200769	0.423495
C128	C	0.683972	0.148707	0.380103
H129	H	0.597225	0.170846	0.460356
H130	H	0.661691	0.235385	0.460411
H131	H	0.598010	0.234623	0.381795
H132	H	0.717824	0.114806	0.421749
H133	H	0.654087	0.114138	0.343176
H134	H	0.493322	-0.020044	-0.000193
O135	O	0.913625	-0.000931	0.179148
C136	C	1.007644	-0.094838	0.187444
C137	C	0.955522	-0.042714	0.230760
H138	H	1.041541	-0.128623	0.229153
H139	H	0.977801	-0.129513	0.150601
H140	H	1.042211	-0.064926	0.150502
H141	H	0.920942	-0.072568	0.267743
H142	H	0.985409	-0.008039	0.267556
H143	H	0.266331	0.003548	-0.079822
O144	O	0.913642	-0.000764	0.334460
C145	C	1.008584	-0.015778	0.423341
C146	C	0.956447	0.036277	0.379981
H147	H	1.043215	0.014149	0.460143
H148	H	0.978753	-0.050395	0.460311
H149	H	1.042414	-0.049634	0.381619
H150	H	0.922603	0.070179	0.421648
H151	H	0.986320	0.070845	0.342999
O152	O	0.838538	-0.032333	0.422236
C153	C	0.857033	-0.157875	0.430566
C154	C	0.846821	-0.088235	0.473863
H155	H	0.863747	-0.203090	0.472287
H156	H	0.809412	-0.162430	0.393724
H157	H	0.905552	-0.159655	0.393625
H158	H	0.798327	-0.086407	0.510845
H159	H	0.894478	-0.083708	0.510658
O160	O	0.726737	0.185780	0.820478
C161	C	0.605840	0.226817	0.844605
C162	C	0.657992	0.174751	0.801254
H163	H	0.550248	0.217928	0.829066
H164	H	0.613921	0.218688	0.907700
H165	H	0.614749	0.282421	0.829100
H166	H	0.649115	0.119126	0.816696
H167	H	0.649899	0.182941	0.738169
O168	O	0.916902	-0.348991	-0.086780
C169	C	1.013026	-0.369496	-0.173790
C170	C	0.959088	-0.402179	-0.125493
H171	H	1.047158	-0.412484	-0.205090
H172	H	0.984741	-0.331734	-0.216149
H173	H	1.047143	-0.340070	-0.135838
H174	H	0.924956	-0.431641	-0.163385
H175	H	0.987417	-0.439903	-0.083127
H176	H	0.374102	0.181436	0.079347
O177	O	0.723484	-0.466015	0.086287
C178	C	0.627403	-0.445504	0.173351
C179	C	0.681373	-0.412832	0.125090
H180	H	0.593352	-0.402523	0.204748
H181	H	0.593209	-0.474883	0.135438
H182	H	0.655732	-0.483309	0.215639
H183	H	0.653102	-0.374997	0.082797
H184	H	0.715565	-0.383497	0.163050
H185	H	0.734269	0.178402	0.671364
O186	O	0.801841	0.217317	0.577306
C187	C	0.783411	0.342859	0.568964
C188	C	0.793669	0.273217	0.525674
H189	H	0.776817	0.388074	0.527238
H190	H	0.734857	0.344722	0.605864
H191	H	0.831021	0.347338	0.605847
H192	H	0.746099	0.268693	0.488750
H193	H	0.842251	0.271385	0.488821
O194	O	0.914690	-0.491714	-0.086819
C195	C	0.931121	-0.575865	-0.187407
C196	C	0.878382	-0.528888	-0.139095
H197	H	0.901786	-0.605944	-0.229672
H198	H	0.966339	-0.542193	-0.218815
H199	H	0.964289	-0.614273	-0.149455
H200	H	0.845167	-0.490473	-0.176992
H201	H	0.843212	-0.562604	-0.107679
O202	O	0.726753	0.185898	0.179197
C203	C	0.632735	0.279805	0.187537
C204	C	0.684862	0.227685	0.230828
H205	H	0.598843	0.313594	0.229262
H206	H	0.662573	0.314477	0.150642
H207	H	0.598163	0.249890	0.150648
H208	H	0.719446	0.257544	0.267758
H209	H	0.654980	0.193014	0.267675
H210	H	0.462561	0.209652	-0.000216
O211	O	0.942840	-0.576373	-0.000302
C212	C	1.068306	-0.600839	-0.000304
C213	C	0.998061	-0.631321	-0.000260
H214	H	1.112970	-0.645249	-0.000254
H215	H	1.072018	-0.567359	-0.052706
H216	H	1.071928	-0.567334	0.052076
H217	H	0.994392	-0.664857	-0.052605
H218	H	0.994379	-0.664761	0.052177
H219	H	0.147101	0.205028	-0.000274
O220	O	0.697689	-0.238838	-0.000287
C221	C	0.623006	-0.310744	-0.065153
C222	C	0.693212	-0.280190	-0.065137
H223	H	0.619358	-0.344172	-0.117587
H224	H	0.619323	-0.344292	-0.012797
H225	H	0.578336	-0.266339	-0.065107
H226	H	0.737923	-0.324550	-0.065210
H227	H	0.696834	-0.246623	-0.117488
O228	O	0.699674	-0.096036	-0.000149
C229	C	0.573985	-0.086859	-0.000169
C230	C	0.643060	-0.136003	-0.000209
H231	H	0.528194	-0.119153	-0.000233
H232	H	0.571260	-0.052545	0.052239
H233	H	0.571366	-0.052490	-0.052543
H234	H	0.645725	-0.170416	0.052130
H235	H	0.645755	-0.170270	-0.052651
H236	H	0.930822	-0.712049	-0.000282
H237	H	0.701123	-0.681288	-0.000229
