data_functionalizedCrystal
_audit_creation_method	'MofGen! by Chris Wilmer'
_symmetry_space_group_name_H-M	'P1'
_symmetry_Int_Tables_number	1
_symmetry_cell_setting	triclinic
loop_
_symmetry_equiv_pos_as_xyz
  x,y,z
_cell_length_a	13.032831
_cell_length_b	14.908520
_cell_length_c	13.032268
_cell_angle_alpha	80.014189
_cell_angle_beta	89.113023
_cell_angle_gamma	86.522975
loop_
_atom_site_label
_atom_site_type_symbol
_atom_site_fract_x
_atom_site_fract_y
_atom_site_fract_z
Zn1	Zn	1.453341	-0.608125	0.815711
Zn2	Zn	1.465124	-0.742288	0.651425
Zn3	Zn	1.305991	-0.570509	0.619794
Zn4	Zn	1.271734	-0.737420	0.801271
O5	O	1.374048	-0.664586	0.722050
O6	O	1.597505	-0.643703	0.813198
O7	O	1.463283	-0.705796	0.502526
O8	O	1.334942	-0.449498	0.638589
O9	O	1.606162	-0.742272	0.692498
O10	O	1.443199	-0.477135	0.782527
O11	O	1.346369	-0.579590	0.479287
O12	O	1.158846	-0.574869	0.624587
O13	O	1.276556	-0.733974	0.947889
O14	O	1.133677	-0.697498	0.757917
O15	O	1.409982	-0.638982	0.958498
O16	O	1.430066	-0.867643	0.678496
O17	O	1.287983	-0.864066	0.788588
C18	C	1.109287	-0.631574	0.686253
C19	C	0.996016	-0.617476	0.670965
C20	C	0.933097	-0.671944	0.730029
C21	C	0.816026	-0.657374	0.714229
C22	C	1.356610	-0.898531	0.735434
C23	C	1.349239	-0.998628	0.741207
C24	C	1.483459	-1.190413	0.637541
C25	C	1.476537	-1.284464	0.642962
C26	C	1.328478	-1.280784	0.757475
C27	C	1.335400	-1.186733	0.752054
C28	C	1.412892	-1.141551	0.692084
C29	C	1.419809	-1.047497	0.686657
C30	C	1.271756	-1.043820	0.801176
C31	C	1.264834	-1.137870	0.806597
C32	C	1.639842	-0.697726	0.757987
C33	C	1.753108	-0.711849	0.773302
C34	C	1.338133	-0.690131	0.991762
C35	C	1.322829	-0.701017	1.106698
C36	C	1.391578	-0.429732	0.708640
C37	C	1.399048	-0.329652	0.702926
C38	C	1.409886	-0.639082	0.453391
C39	C	1.425406	-0.627967	0.338469
C40	C	1.382022	-0.658870	1.163188
C41	C	1.366205	-0.670120	1.281980
H42	H	0.965901	-0.729359	0.792296
C43	C	0.904780	-0.788800	0.856750
C44	C	0.797373	-0.789368	0.857366
H45	H	0.932105	-0.836659	0.908644
H46	H	0.924640	-0.731920	0.870868
H47	H	0.930435	-0.797451	0.790323
H48	H	0.771718	-0.780711	0.923791
H49	H	0.777504	-0.846262	0.843255
H50	H	1.265394	-1.317589	0.806308
H51	H	1.303808	-0.714528	1.321556
C52	C	1.032306	-0.492380	0.535318
C53	C	0.951745	-0.539958	0.586909
H54	H	1.004974	-0.444519	0.483429
H55	H	1.076178	-0.532933	0.503494
H56	H	1.070392	-0.467406	0.584043
H57	H	0.913663	-0.564937	0.538184
H58	H	0.907855	-0.499397	0.618733
H59	H	0.783226	-0.599948	0.651965
H60	H	1.201744	-1.174671	0.855426
C61	C	1.653707	-1.330008	0.617757
C62	C	1.554124	-1.338155	0.583005
H63	H	1.701613	-1.363147	0.580736
H64	H	1.658163	-1.353831	0.690131
H65	H	1.668884	-1.267520	0.605954
H66	H	1.538943	-1.400643	0.594815
H67	H	1.549664	-1.314336	0.510614
C68	C	1.508978	-0.568437	1.177709
C69	C	1.509617	-0.567987	1.285050
H70	H	1.560964	-0.531407	1.144732
H71	H	1.443825	-0.545079	1.150067
H72	H	1.521730	-0.629134	1.165530
H73	H	1.496858	-0.507291	1.297229
H74	H	1.574785	-0.591342	1.312700
C75	C	1.558672	-1.151092	0.467544
C76	C	1.568628	-1.140740	0.571616
H77	H	1.611256	-1.120430	0.426846
H78	H	1.493374	-1.125767	0.442227
H79	H	1.564652	-1.214101	0.462979
H80	H	1.562640	-1.077731	0.576183
H81	H	1.633942	-1.166062	0.596940
C82	C	1.495046	-1.008187	0.516668
C83	C	1.504987	-0.997831	0.620740
H84	H	1.547639	-0.977531	0.475977
H85	H	1.429753	-0.982858	0.491339
H86	H	1.501023	-1.071197	0.512107
H87	H	1.499003	-0.934820	0.625302
H88	H	1.570296	-1.023156	0.646076
C89	C	1.216620	-0.898015	0.843718
C90	C	1.194184	-0.990108	0.861138
H91	H	1.168733	-0.864858	0.880739
H92	H	1.212147	-0.874209	0.771340
H93	H	1.284193	-0.892520	0.867278
H94	H	1.126614	-0.995603	0.837571
H95	H	1.198648	-1.013921	0.933531
C96	C	1.239248	-0.760523	1.267461
C97	C	1.238611	-0.760981	1.160121
H98	H	1.187260	-0.797550	1.300438
H99	H	1.226509	-0.699833	1.279634
H100	H	1.304407	-0.783893	1.295108
H101	H	1.173454	-0.737605	1.132472
H102	H	1.251344	-0.821684	1.147940
H103	H	1.444405	-0.614454	1.123607
