data_functionalizedCrystal
_audit_creation_method	'MofGen! by Chris Wilmer'
_symmetry_space_group_name_H-M	'P1'
_symmetry_Int_Tables_number	1
_symmetry_cell_setting	triclinic
loop_
_symmetry_equiv_pos_as_xyz
  x,y,z
_cell_length_a	12.827892
_cell_length_b	12.827893
_cell_length_c	11.169409
_cell_angle_alpha	89.976895
_cell_angle_beta	90.033086
_cell_angle_gamma	89.986589
loop_
_atom_site_label
_atom_site_type_symbol
_atom_site_fract_x
_atom_site_fract_y
_atom_site_fract_z
Zn1	Zn	-0.416004	-1.597689	0.678642
Zn2	Zn	-0.590791	-1.597578	0.477956
Zn3	Zn	-0.416059	-1.422925	0.477964
Zn4	Zn	-0.590697	-1.422916	0.678589
O5	O	-0.503388	-1.510277	0.578288
O6	O	-0.439206	-1.743911	0.652038
O7	O	-0.567675	-1.574367	0.310007
O8	O	-0.269815	-1.446158	0.504610
O9	O	-0.567621	-1.743828	0.504595
O10	O	-0.269775	-1.574557	0.652047
O11	O	-0.439299	-1.446050	0.310013
O12	O	-0.439209	-1.276688	0.504559
O13	O	-0.567462	-1.446143	0.846546
O14	O	-0.567515	-1.276681	0.651958
O15	O	-0.439115	-1.574548	0.846584
O16	O	-0.737015	-1.574358	0.504545
O17	O	-0.736946	-1.446035	0.651949
C18	C	-0.503358	-1.238767	0.578254
C19	C	-0.503371	-1.122614	0.578269
C20	C	-0.566958	-1.070854	0.651092
C21	C	-0.566973	-0.950803	0.651108
C22	C	-0.774898	-1.510212	0.578267
C23	C	-0.891051	-1.510279	0.578298
C24	C	-0.942835	-1.573853	0.505438
C25	C	-1.062885	-1.573924	0.505469
C26	C	-0.230817	-1.510371	0.578335
C27	C	-0.114664	-1.510411	0.578356
C28	C	-0.503272	-1.510357	0.891330
C29	C	-0.503222	-1.510391	1.024730
C30	C	-0.503409	-0.782847	0.578312
C31	C	-0.503397	-0.899000	0.578298
C32	C	-0.503428	-1.510257	0.266463
C33	C	-0.503183	-1.510425	0.133064
H34	H	-0.448938	-1.078051	0.515939
H35	H	-0.898295	-1.628233	0.443042
H36	H	-1.107418	-1.628349	0.443088
H37	H	-0.621383	-1.115416	0.713430
H38	H	-1.070139	-1.455976	0.640732
H39	H	-0.448958	-0.943506	0.515944
H40	H	-0.621415	-0.906290	0.713451
H41	H	-0.935593	-1.455909	0.640702
