data_functionalizedCrystal
_audit_creation_method	'MofGen! by Chris Wilmer'
_symmetry_space_group_name_H-M	'P1'
_symmetry_Int_Tables_number	1
_symmetry_cell_setting	triclinic
loop_
_symmetry_equiv_pos_as_xyz
  x,y,z
_cell_length_a	25.639243
_cell_length_b	25.639240
_cell_length_c	25.639234
_cell_angle_alpha	90.026973
_cell_angle_beta	90.023193
_cell_angle_gamma	90.045843
loop_
_atom_site_label
_atom_site_type_symbol
_atom_site_fract_x
_atom_site_fract_y
_atom_site_fract_z
Zn1	Zn	-0.799246	0.208145	-0.295649
Zn2	Zn	-0.465913	0.541479	0.037684
Zn3	Zn	-0.132579	0.874812	0.371018
Zn4	Zn	-0.799152	0.295573	-0.208210
Zn5	Zn	-0.465818	0.628907	0.125123
Zn6	Zn	-0.132485	0.962240	0.458457
Zn7	Zn	-0.711811	0.208158	-0.208222
Zn8	Zn	-0.378478	0.541491	0.125111
Zn9	Zn	-0.045145	0.874825	0.458444
Zn10	Zn	-0.711760	0.295556	-0.295609
Zn11	Zn	-0.378427	0.628889	0.037724
Zn12	Zn	-0.045094	0.962222	0.371057
O13	O	-0.755492	0.251858	-0.251923
O14	O	-0.422159	0.585191	0.081411
O15	O	-0.088826	0.918525	0.414744
O16	O	-0.872399	0.219745	-0.284061
O17	O	-0.539065	0.553078	0.049272
O18	O	-0.205732	0.886412	0.382605
O19	O	-0.787547	0.283990	-0.135046
O20	O	-0.454214	0.617324	0.198287
O21	O	-0.120881	0.950657	0.531620
O22	O	-0.723470	0.134991	-0.219841
O23	O	-0.390137	0.468324	0.113492
O24	O	-0.056804	0.801658	0.446825
O25	O	-0.872329	0.283978	-0.219820
O26	O	-0.538996	0.617311	0.113513
O27	O	-0.205663	0.950645	0.446846
O28	O	-0.787708	0.134982	-0.284073
O29	O	-0.454375	0.468315	0.049260
O30	O	-0.121042	0.801648	0.382593
O31	O	-0.723379	0.219767	-0.135055
O32	O	-0.390046	0.553100	0.198278
O33	O	-0.056712	0.886433	0.531611
O34	O	-0.638639	0.219749	-0.219803
O35	O	-0.305306	0.553083	0.113530
O36	O	0.028027	0.886416	0.446864
O37	O	-0.723384	0.283948	-0.368780
O38	O	-0.390051	0.617281	-0.035446
O39	O	-0.056717	0.950614	0.297887
O40	O	-0.638602	0.283960	-0.284006
O41	O	-0.305269	0.617293	0.049327
O42	O	0.028065	0.950627	0.382661
O43	O	-0.787659	0.219728	-0.368809
O44	O	-0.454326	0.553061	-0.035475
O45	O	-0.120992	0.886394	0.297858
O46	O	-0.787498	0.368736	-0.219782
O47	O	-0.454165	0.702070	0.113551
O48	O	-0.120832	1.035403	0.446885
O49	O	-0.723292	0.368723	-0.283994
O50	O	-0.389959	0.702056	0.049339
O51	O	-0.056626	1.035390	0.382673
C52	C	-0.619650	0.251854	-0.251902
C53	C	-0.286316	0.585188	0.081432
C54	C	0.047017	0.918521	0.414765
C55	C	-0.561536	0.251865	-0.251905
C56	C	-0.228202	0.585199	0.081428
C57	C	0.105131	0.918532	0.414761
C58	C	-0.201203	0.218464	-0.285428
C59	C	0.132130	0.551797	0.047905
C60	C	0.465464	0.885131	0.381238
C61	C	-0.146599	0.218463	-0.285431
C62	C	0.186735	0.551797	0.047902
C63	C	0.520068	0.885130	0.381235
O64	O	-0.118388	0.190055	-0.313908
O65	O	0.214945	0.523388	0.019425
O66	O	0.548279	0.856721	0.352758
N67	N	-0.119253	0.251856	-0.251936
N68	N	0.214080	0.585189	0.081397
N69	N	0.547413	0.918523	0.414730
C70	C	-0.146515	0.285247	-0.218432
C71	C	0.186819	0.618581	0.114901
C72	C	0.520152	0.951914	0.448234
O73	O	-0.118241	0.313650	-0.189942
O74	O	0.215092	0.646983	0.143391
O75	O	0.548425	0.980317	0.476724
C76	C	-0.201118	0.285245	-0.218427
C77	C	0.132215	0.618578	0.114906
C78	C	0.465549	0.951912	0.448240
C79	C	-0.228461	0.251854	-0.251928
C80	C	0.104872	0.585187	0.081405
C81	C	0.438206	0.918521	0.414739
C82	C	-0.228546	0.185075	-0.318926
C83	C	0.104787	0.518409	0.014407
C84	C	0.438121	0.851742	0.347741
C85	C	-0.283146	0.185077	-0.318923
C86	C	0.050187	0.518410	0.014410
C87	C	0.383520	0.851743	0.347743
C88	C	-0.310404	0.218467	-0.285423
C89	C	0.022929	0.551800	0.047910
C90	C	0.356262	0.885133	0.381244
C91	C	-0.283061	0.251855	-0.251925
C92	C	0.050272	0.585189	0.081408
C93	C	0.383605	0.918522	0.414741
C94	C	-0.228379	0.318633	-0.184921
C95	C	0.104955	0.651967	0.148413
C96	C	0.438288	0.985300	0.481746
C97	C	-0.282986	0.318628	-0.184918
C98	C	0.050348	0.651961	0.148415
C99	C	0.383681	0.985294	0.481749
C100	C	-0.310328	0.285237	-0.218419
C101	C	0.023005	0.618570	0.114915
C102	C	0.356338	0.951903	0.448248
C103	C	-0.364920	0.285247	-0.218422
C104	C	-0.031586	0.618580	0.114911
C105	C	0.301747	0.951913	0.448244
N106	N	-0.392265	0.251854	-0.251917
N107	N	-0.058932	0.585187	0.081416
N108	N	0.274401	0.918521	0.414750
C109	C	-0.365008	0.218464	-0.285417
C110	C	-0.031674	0.551797	0.047916
C111	C	0.301659	0.885131	0.381249
C112	C	-0.031844	0.285250	-0.218446
C113	C	0.301489	0.618583	0.114888
C114	C	0.634823	0.951916	0.448221
C115	C	0.022758	0.285255	-0.218453
C116	C	0.356091	0.618589	0.114880
C117	C	0.689425	0.951922	0.448213
C118	C	0.022670	0.218470	-0.285452
C119	C	0.356004	0.551804	0.047881
C120	C	0.689337	0.885137	0.381215
C121	C	-0.031933	0.218468	-0.285446
C122	C	0.301400	0.551801	0.047887
C123	C	0.634734	0.885135	0.381220
C124	C	-0.059190	0.251857	-0.251941
C125	C	0.274144	0.585190	0.081393
C126	C	0.607477	0.918524	0.414726
C127	C	-0.479673	0.218470	-0.285410
C128	C	-0.146339	0.551803	0.047924
C129	C	0.186994	0.885136	0.381257
C130	C	-0.534278	0.218475	-0.285406
C131	C	-0.200945	0.551809	0.047928
C132	C	0.132389	0.885142	0.381261
C133	C	-0.534185	0.285258	-0.218406
C134	C	-0.200852	0.618591	0.114928
C135	C	0.132481	0.951925	0.448261
C136	C	-0.479585	0.285254	-0.218411
C137	C	-0.146251	0.618588	0.114922
C138	C	0.187082	0.951921	0.448255
C139	C	-0.452330	0.251856	-0.251915
C140	C	-0.118996	0.585189	0.081418
C141	C	0.214337	0.918523	0.414751
O142	O	-0.393165	0.313639	-0.189958
O143	O	-0.059832	0.646973	0.143375
O144	O	0.273501	0.980306	0.476708
O145	O	-0.393288	0.190061	-0.313898
O146	O	-0.059954	0.523395	0.019435
O147	O	0.273379	0.856728	0.352769
C148	C	-0.755394	0.387701	-0.251894
C149	C	-0.422060	0.721034	0.081440
C150	C	-0.088727	1.054367	0.414773
C151	C	-0.755399	0.445815	-0.251899
C152	C	-0.422066	0.779148	0.081434
C153	C	-0.088733	1.112481	0.414768
C154	C	0.108135	0.251862	-0.251944
C155	C	0.441468	0.585195	0.081390
C156	C	0.774801	0.918529	0.414723
C157	C	0.050021	0.251863	-0.251952
C158	C	0.383354	0.585196	0.081381
C159	C	0.716687	0.918530	0.414715
C160	C	-0.788968	0.806172	-0.218524
C161	C	-0.455635	1.139505	0.114809
C162	C	-0.122302	1.472839	0.448142
C163	C	-0.788984	0.860776	-0.218529
C164	C	-0.455651	1.194110	0.114804
C165	C	-0.122318	1.527443	0.448137
O166	O	-0.817456	0.889008	-0.190137
O167	O	-0.484123	1.222341	0.143196
O168	O	-0.150789	1.555675	0.476530
N169	N	-0.755534	0.888097	-0.251934
N170	N	-0.422201	1.221430	0.081399
N171	N	-0.088868	1.554764	0.414732
C172	C	-0.722070	0.860811	-0.285340
C173	C	-0.388737	1.194144	0.047993
C174	C	-0.055404	1.527477	0.381327
O175	O	-0.693621	0.889063	-0.313754
O176	O	-0.360287	1.222397	0.019579
O177	O	-0.026954	1.555730	0.352912
C178	C	-0.722057	0.806207	-0.285337
C179	C	-0.388724	1.139541	0.047996
C180	C	-0.055391	1.472874	0.381329
C181	C	-0.755506	0.778889	-0.251927
C182	C	-0.422172	1.112223	0.081407
C183	C	-0.088839	1.445556	0.414740
C184	C	-0.822414	0.778854	-0.185117
C185	C	-0.489081	1.112187	0.148216
C186	C	-0.155747	1.445521	0.481550
C187	C	-0.822397	0.724253	-0.185111
C188	C	-0.489064	1.057587	0.148222
C189	C	-0.155731	1.390920	0.481555
C190	C	-0.788935	0.696971	-0.218513
C191	C	-0.455601	1.030304	0.114820
C192	C	-0.122268	1.363638	0.448153
C193	C	-0.755489	0.724289	-0.251921
C194	C	-0.422155	1.057622	0.081412
C195	C	-0.088822	1.390956	0.414746
C196	C	-0.688596	0.778922	-0.318745
C197	C	-0.355263	1.112255	0.014588
C198	C	-0.021930	1.445589	0.347921
C199	C	-0.688586	0.724315	-0.318740
C200	C	-0.355253	1.057648	0.014593
C201	C	-0.021920	1.390982	0.347927
C202	C	-0.722035	0.696997	-0.285329
C203	C	-0.388701	1.030330	0.048004
C204	C	-0.055368	1.363664	0.381338
C205	C	-0.722009	0.642406	-0.285317
C206	C	-0.388676	0.975739	0.048016
C207	C	-0.055343	1.309073	0.381349
N208	N	-0.755459	0.615085	-0.251913
N209	N	-0.422126	0.948418	0.081421
N210	N	-0.088792	1.281752	0.414754
C211	C	-0.788922	0.642368	-0.218511
C212	C	-0.455588	0.975701	0.114823
C213	C	-0.122255	1.309034	0.448156
C214	C	-0.722101	0.975481	-0.285344
C215	C	-0.388767	1.308815	0.047989
C216	C	-0.055434	1.642148	0.381323
C217	C	-0.722111	1.030084	-0.285344
C218	C	-0.388777	1.363417	0.047989
C219	C	-0.055444	1.696750	0.381322
C220	C	-0.789025	1.030045	-0.218534
C221	C	-0.455692	1.363379	0.114799
C222	C	-0.122359	1.696712	0.448132
C223	C	-0.789012	0.975442	-0.218532
C224	C	-0.455679	1.308775	0.114802
C225	C	-0.122346	1.642109	0.448135
C226	C	-0.755550	0.948161	-0.251939
C227	C	-0.422217	1.281494	0.081394
C228	C	-0.088884	1.614827	0.414728
C229	C	-0.788883	0.527703	-0.218501
C230	C	-0.455550	0.861036	0.114832
C231	C	-0.122217	1.194369	0.448166
C232	C	-0.788862	0.473097	-0.218497
C233	C	-0.455529	0.806430	0.114836
C234	C	-0.122195	1.139764	0.448170
C235	C	-0.721950	0.473140	-0.285309
C236	C	-0.388616	0.806474	0.048025
C237	C	-0.055283	1.139807	0.381358
C238	C	-0.721969	0.527741	-0.285311
C239	C	-0.388635	0.861074	0.048022
C240	C	-0.055302	1.194407	0.381356
C241	C	-0.755440	0.555021	-0.251906
C242	C	-0.422107	0.888354	0.081428
C243	C	-0.088773	1.221687	0.414761
O244	O	-0.693553	0.614139	-0.313697
O245	O	-0.360220	0.947473	0.019637
O246	O	-0.026887	1.280806	0.352970
O247	O	-0.817371	0.614108	-0.190106
O248	O	-0.484038	0.947442	0.143227
O249	O	-0.150705	1.280775	0.476561
C250	C	-0.755526	0.251834	-0.388296
C251	C	-0.422193	0.585168	-0.054962
C252	C	-0.088860	0.918501	0.278371
C253	C	-0.755541	0.251824	-0.446410
C254	C	-0.422207	0.585157	-0.113076
C255	C	-0.088874	0.918491	0.220257
C256	C	-0.755586	1.115485	-0.251954
C257	C	-0.422253	1.448818	0.081379
C258	C	-0.088919	1.782152	0.414713
C259	C	-0.755576	1.057371	-0.251944
C260	C	-0.422242	1.390704	0.081389
C261	C	-0.088909	1.724038	0.414723
C262	C	-0.722143	0.218320	-0.806783
C263	C	-0.388810	0.551654	-0.473450
C264	C	-0.055476	0.884987	-0.140117
C265	C	-0.722146	0.218311	-0.861388
C266	C	-0.388812	0.551644	-0.528054
C267	C	-0.055479	0.884978	-0.194721
O268	O	-0.693723	0.189883	-0.889633
O269	O	-0.360390	0.523216	-0.556300
O270	O	-0.027057	0.856549	-0.222966
N271	N	-0.755558	0.251742	-0.888692
N272	N	-0.422225	0.585075	-0.555359
N273	N	-0.088892	0.918409	-0.222026
C274	C	-0.788966	0.285188	-0.861390
C275	C	-0.455633	0.618522	-0.528057
C276	C	-0.122300	0.951855	-0.194724
O277	O	-0.817386	0.313624	-0.889629
O278	O	-0.484053	0.646957	-0.556296
O279	O	-0.150719	0.980290	-0.222962
C280	C	-0.788960	0.285200	-0.806787
C281	C	-0.455627	0.618534	-0.473454
C282	C	-0.122294	0.951867	-0.140120
C283	C	-0.755549	0.251763	-0.779485
C284	C	-0.422216	0.585097	-0.446151
C285	C	-0.088883	0.918430	-0.112818
C286	C	-0.688734	0.184887	-0.779481
C287	C	-0.355401	0.518220	-0.446148
C288	C	-0.022068	0.851553	-0.112814
C289	C	-0.688732	0.184895	-0.724880
C290	C	-0.355399	0.518229	-0.391547
C291	C	-0.022066	0.851562	-0.058214
C292	C	-0.722139	0.218338	-0.697582
C293	C	-0.388806	0.551672	-0.364249
C294	C	-0.055472	0.885005	-0.030915
C295	C	-0.755547	0.251772	-0.724884
C296	C	-0.422214	0.585105	-0.391551
C297	C	-0.088881	0.918439	-0.058218
C298	C	-0.822365	0.318649	-0.779486
C299	C	-0.489032	0.651982	-0.446152
C300	C	-0.155699	0.985316	-0.112819
C301	C	-0.822356	0.318658	-0.724879
C302	C	-0.489023	0.651991	-0.391545
C303	C	-0.155690	0.985325	-0.058212
C304	C	-0.788945	0.285221	-0.697576
C305	C	-0.455612	0.618554	-0.364243
C306	C	-0.122279	0.951888	-0.030910
C307	C	-0.788952	0.285224	-0.642985
C308	C	-0.455619	0.618557	-0.309652
C309	C	-0.122285	0.951890	0.023681
N310	N	-0.755540	0.251793	-0.615680
N311	N	-0.422206	0.585126	-0.282347
N312	N	-0.088873	0.918459	0.050986
C313	C	-0.722133	0.218350	-0.642979
C314	C	-0.388800	0.551683	-0.309645
C315	C	-0.055466	0.885017	0.023688
C316	C	-0.788975	0.285162	-0.976061
C317	C	-0.455642	0.618495	-0.642728
C318	C	-0.122309	0.951829	-0.309394
C319	C	-0.788984	0.285148	-1.030663
C320	C	-0.455651	0.618481	-0.697330
C321	C	-0.122318	0.951815	-0.363997
C322	C	-0.722163	0.218271	-1.030657
C323	C	-0.388830	0.551604	-0.697323
C324	C	-0.055496	0.884938	-0.363990
C325	C	-0.722157	0.218283	-0.976053
C326	C	-0.388824	0.551616	-0.642720
C327	C	-0.055490	0.884949	-0.309387
C328	C	-0.755563	0.251731	-0.948756
C329	C	-0.422230	0.585064	-0.615423
C330	C	-0.088896	0.918398	-0.282089
C331	C	-0.722132	0.218371	-0.528314
C332	C	-0.388798	0.551704	-0.194980
C333	C	-0.055465	0.885038	0.138353
C334	C	-0.722134	0.218381	-0.473708
C335	C	-0.388801	0.551715	-0.140375
C336	C	-0.055468	0.885048	0.192958
C337	C	-0.788953	0.285260	-0.473719
C338	C	-0.455620	0.618593	-0.140386
C339	C	-0.122287	0.951927	0.192947
C340	C	-0.788953	0.285248	-0.528320
C341	C	-0.455620	0.618581	-0.194987
C342	C	-0.122286	0.951915	0.138347
C343	C	-0.755538	0.251802	-0.555616
C344	C	-0.422205	0.585135	-0.222282
C345	C	-0.088871	0.918468	0.111051
O346	O	-0.817359	0.313639	-0.614705
O347	O	-0.484025	0.646973	-0.281372
O348	O	-0.150692	0.980306	0.051962
O349	O	-0.693713	0.189924	-0.614733
O350	O	-0.360380	0.523258	-0.281400
O351	O	-0.027046	0.856591	0.051934
C352	C	-0.755489	0.251844	-0.116080
C353	C	-0.422155	0.585177	0.217253
C354	C	-0.088822	0.918511	0.550587
C355	C	-0.755575	0.251707	-0.057966
C356	C	-0.422242	0.585040	0.275367
C357	C	-0.088909	0.918374	0.608700
H358	H	-0.054192	0.191277	-0.312725
H359	H	0.279141	0.524610	0.020609
H360	H	0.612475	0.857944	0.353942
H361	H	-0.305404	0.157885	-0.346202
H362	H	0.027929	0.491219	-0.012869
H363	H	0.361263	0.824552	0.320464
F364	F	-0.060848	0.320792	-0.182784
F365	F	0.272485	0.654125	0.150549
F366	F	0.605818	0.987459	0.483882
H367	H	-0.694734	0.549984	-0.312518
H368	H	-0.361401	0.883318	0.020815
H369	H	-0.028067	1.216651	0.354148
F370	F	-0.686607	0.182679	-1.059719
F371	F	-0.353274	0.516012	-0.726386
F372	F	-0.019941	0.849345	-0.393053
F373	F	-0.824508	0.320848	-0.444657
F374	F	-0.491175	0.654181	-0.111324
F375	F	-0.157841	0.987514	0.222010
H376	H	-0.816197	0.312370	-1.052888
H377	H	-0.482863	0.645703	-0.719555
H378	H	-0.149530	0.979037	-0.386221
F379	F	-0.857911	0.354261	-0.695830
F380	F	-0.524578	0.687594	-0.362496
F381	F	-0.191244	1.020927	-0.029163
F382	F	-0.824521	0.320827	-0.557378
F383	F	-0.491187	0.654160	-0.224045
F384	F	-0.157854	0.987493	0.109289
H385	H	-0.816100	0.450856	-0.191288
H386	H	-0.482766	0.784190	0.142045
H387	H	-0.149433	1.117523	0.475379
H388	H	-0.694703	0.450918	-0.312503
H389	H	-0.361370	0.784252	0.020831
H390	H	-0.028036	1.117585	0.354164
H391	H	-0.206358	0.157882	-0.346206
H392	H	0.126975	0.491216	-0.012873
H393	H	0.460308	0.824549	0.320461
F394	F	-0.199290	0.354165	-0.149256
F395	F	0.134043	0.687499	0.184077
F396	F	0.467377	1.020832	0.517411
H397	H	-0.849572	0.345877	-0.801706
H398	H	-0.516238	0.679211	-0.468372
H399	H	-0.182905	1.012544	-0.135039
F400	F	-0.824612	0.946373	-0.182972
F401	F	-0.491279	1.279706	0.150361
F402	F	-0.157946	1.613040	0.483695
F403	F	-0.858004	0.695186	-0.149557
F404	F	-0.524670	1.028520	0.183777
F405	F	-0.191337	1.361853	0.517110
F406	F	0.051690	0.182932	-0.321105
F407	F	0.385023	0.516265	0.012229
F408	F	0.718356	0.849598	0.345562
F409	F	-0.686480	0.946451	-0.320900
F410	F	-0.353147	1.279784	0.012434
F411	F	-0.019813	1.613118	0.345767
H412	H	-0.694951	0.191055	-0.953828
H413	H	-0.361618	0.524388	-0.620494
H414	H	-0.028285	0.857722	-0.287161
F415	F	-0.686573	0.182790	-0.444654
F416	F	-0.353240	0.516124	-0.111321
F417	F	-0.019907	0.849457	0.222012
H418	H	-0.556538	0.191284	-0.312688
H419	H	-0.223205	0.524617	0.020645
H420	H	0.110129	0.857951	0.353979
H421	H	-0.849666	0.801062	-0.157917
H422	H	-0.516333	1.134395	0.175417
H423	H	-0.183000	1.467728	0.508750
H424	H	-0.305175	0.345817	-0.157632
H425	H	0.028158	0.679150	0.175701
H426	H	0.361491	1.012484	0.509035
F427	F	-0.450484	0.320806	-0.182769
F428	F	-0.117150	0.654139	0.150564
F429	F	0.216183	0.987472	0.483897
H430	H	-0.816185	0.312396	-0.953839
H431	H	-0.482851	0.645730	-0.620505
H432	H	-0.149518	0.979063	-0.287172
F433	F	-0.563205	0.320793	-0.182755
F434	F	-0.229871	0.654126	0.150579
F435	F	0.103462	0.987460	0.483912
F436	F	-0.450673	0.182923	-0.321068
F437	F	-0.117340	0.516256	0.012265
F438	F	0.215993	0.849590	0.345599
H439	H	0.045016	0.312451	-0.191180
H440	H	0.378349	0.645785	0.142154
H441	H	0.711683	0.979118	0.475487
H442	H	-0.661357	0.801155	-0.345949
H443	H	-0.328023	1.134488	-0.012616
H444	H	0.005310	1.467822	0.320717
H445	H	-0.694869	1.052321	-0.312546
H446	H	-0.361536	1.385655	0.020787
H447	H	-0.028202	1.718988	0.354121
F448	F	-0.824507	0.556728	-0.182947
F449	F	-0.491174	0.890061	0.150386
F450	F	-0.157840	1.223395	0.483720
F451	F	-0.824639	1.059091	-0.182984
F452	F	-0.491306	1.392424	0.150349
F453	F	-0.157972	1.725758	0.483683
F454	F	-0.652972	0.695283	-0.354299
F455	F	-0.319638	1.028617	-0.020965
F456	F	0.013695	1.361950	0.312368
H457	H	-0.694922	0.191135	-0.550531
H458	H	-0.361589	0.524469	-0.217198
H459	H	-0.028256	0.857802	0.116135
H460	H	-0.661528	0.157653	-0.801702
H461	H	-0.328195	0.490986	-0.468368
H462	H	0.005139	0.824320	-0.135035
F463	F	-0.653169	0.149309	-0.695830
F464	F	-0.319836	0.482643	-0.362497
F465	F	0.013498	0.815976	-0.029164
