data_functionalizedCrystal
_audit_creation_method	'MofGen! by Chris Wilmer'
_symmetry_space_group_name_H-M	'P1'
_symmetry_Int_Tables_number	1
_symmetry_cell_setting	triclinic
loop_
_symmetry_equiv_pos_as_xyz
  x,y,z
_cell_length_a	19.288864
_cell_length_b	17.699092
_cell_length_c	18.366186
_cell_angle_alpha	90.002797
_cell_angle_beta	90.019370
_cell_angle_gamma	83.211307
loop_
_atom_site_label
_atom_site_type_symbol
_atom_site_fract_x
_atom_site_fract_y
_atom_site_fract_z
O1	O	0.921464	0.094415	0.060780
O2	O	1.421464	0.594415	0.560780
O3	O	0.719218	0.107152	0.060730
O4	O	1.219218	0.607152	0.560730
O5	O	0.826052	-0.009413	0.060755
O6	O	1.326052	0.490587	0.560755
O7	O	0.814630	0.210980	0.060756
O8	O	1.314630	0.710980	0.560756
O9	O	0.826041	-0.009416	-0.060344
O10	O	1.326041	0.490584	0.439656
O11	O	0.719207	0.107149	-0.060369
O12	O	1.219207	0.607149	0.439631
O13	O	0.921452	0.094413	-0.060319
O14	O	1.421452	0.594413	0.439681
Zn15	Zn	0.820328	0.100781	-0.079571
Zn16	Zn	1.320328	0.600781	0.420429
Zn17	Zn	0.820343	0.100784	0.079983
Zn18	Zn	1.320343	0.600784	0.579983
O19	O	0.814619	0.210978	-0.060344
O20	O	1.314619	0.710978	0.439656
C21	C	0.693336	0.106741	0.000174
C22	C	1.193336	0.606741	0.500174
C23	C	0.616231	0.105511	0.000155
C24	C	1.116231	0.605511	0.500155
C25	C	0.825636	-0.037611	0.000206
C26	C	1.325636	0.462389	0.500206
C27	C	0.824405	-0.121627	0.000210
C28	C	1.324405	0.378373	0.500210
C29	C	0.571617	0.173906	0.000167
C30	C	1.071617	0.673906	0.500167
C31	C	0.499169	0.172750	0.000175
C32	C	0.999169	0.672750	0.500175
C33	C	0.471337	0.103195	0.000186
C34	C	0.971337	0.603195	0.500186
C35	C	0.515960	0.034791	0.000170
C36	C	1.015960	0.534791	0.500170
C37	C	0.588407	0.035949	0.000155
C38	C	1.088407	0.535949	0.500155
C39	C	0.363013	0.048518	0.042637
C40	C	0.863013	0.548518	0.542637
C41	C	0.290567	0.047363	0.042657
C42	C	0.790567	0.547363	0.542657
C43	C	0.247887	0.099621	0.000230
C44	C	0.747887	0.599621	0.500230
C45	C	0.277661	0.153047	-0.042207
C46	C	0.777661	0.653047	0.457793
C47	C	0.350107	0.154205	-0.042222
C48	C	0.850107	0.654205	0.457778
C49	C	0.392782	0.101932	0.000202
C50	C	0.892782	0.601932	0.500202
C51	C	0.124716	0.166768	0.000249
C52	C	0.624716	0.666768	0.500249
C53	C	0.052267	0.165609	0.000253
C54	C	0.552267	0.665609	0.500253
C55	C	0.069060	0.027649	0.000255
C56	C	0.569060	0.527649	0.500255
C57	C	0.141508	0.028809	0.000245
C58	C	0.641508	0.528809	0.500245
C59	C	0.169331	0.098371	0.000245
C60	C	0.669331	0.598371	0.500245
C61	C	0.823835	-0.161092	0.066221
C62	C	1.323835	0.338908	0.566221
C63	C	0.822674	-0.240033	0.066222
C64	C	1.322674	0.259967	0.566222
C65	C	0.822089	-0.279509	0.000210
C66	C	1.322089	0.220491	0.500210
C67	C	0.822657	-0.240038	-0.065807
C68	C	1.322657	0.259962	0.434193
C69	C	0.823813	-0.161097	-0.065807
C70	C	1.323813	0.338903	0.434193
C71	C	0.817995	-0.558396	-0.065809
C72	C	1.317995	-0.058396	0.434191
C73	C	0.816841	-0.637343	-0.065804
C74	C	1.316841	-0.137343	0.434196
C75	C	0.816856	-0.637332	0.066220
C76	C	1.316856	-0.137332	0.566220
C77	C	0.818012	-0.558392	0.066220
C78	C	1.318012	-0.058392	0.566220
C79	C	0.818576	-0.518927	0.000203
C80	C	1.318576	-0.018927	0.500203
C81	C	0.819834	-0.433330	0.000203
C82	C	1.319834	0.066670	0.500203
C83	C	0.820836	-0.365105	0.000209
C84	C	1.320836	0.134895	0.500209
C85	C	0.947335	0.094824	0.000239
C86	C	1.447335	0.594824	0.500239
C87	C	1.024440	0.096054	0.000263
C88	C	1.524440	0.596054	0.500263
C89	C	0.815035	0.239175	0.000207
C90	C	1.315035	0.739175	0.500207
C91	C	0.816265	0.323191	0.000208
C92	C	1.316265	0.823191	0.500208
N93	N	0.820323	0.100778	-0.188462
N94	N	1.320323	0.600778	0.311538
C95	C	0.867660	0.049180	-0.773002
C96	C	1.367660	0.549180	-0.273002
C97	C	0.867661	0.049182	-0.696774
C98	C	1.367661	0.549182	-0.196774
C99	C	0.820343	0.100777	-0.658674
C100	C	1.320343	0.600777	-0.158674
C101	C	0.773033	0.152388	-0.696807
C102	C	1.273033	0.652388	-0.196807
C103	C	0.773038	0.152390	-0.773034
C104	C	1.273038	0.652390	-0.273034
C105	C	0.757063	0.110878	-0.537935
C106	C	1.257063	0.610878	-0.037935
C107	C	0.757057	0.110871	-0.461710
C108	C	1.257057	0.610871	0.038290
C109	C	0.820327	0.100776	-0.423566
C110	C	1.320327	0.600776	0.076434
C111	C	0.883607	0.090672	-0.461657
C112	C	1.383607	0.590672	0.038343
C113	C	0.883612	0.090674	-0.537883
C114	C	1.383612	0.590674	-0.037883
C115	C	0.820333	0.100781	-0.576019
C116	C	1.320333	0.600781	-0.076019
C117	C	0.867639	0.049174	-0.302786
C118	C	1.367639	0.549174	0.197214
C119	C	0.867641	0.049181	-0.226557
C120	C	1.367641	0.549181	0.273443
C121	C	0.773006	0.152383	-0.226592
C122	C	1.273006	0.652383	0.273408
C123	C	0.773010	0.152380	-0.302820
C124	C	1.273010	0.652380	0.197180
C125	C	0.820326	0.100771	-0.340913
C126	C	1.320326	0.600771	0.159087
N127	N	0.820354	0.100781	0.188874
N128	N	1.320354	0.600781	0.688874
H129	H	0.594266	0.230548	0.000168
H130	H	1.094266	0.730548	0.500168
H131	H	0.822213	-0.272163	0.119976
H132	H	1.322213	0.227837	0.619976
H133	H	0.818492	-0.526255	0.119974
H134	H	1.318492	-0.026255	0.619974
H135	H	0.177833	-0.026886	0.000239
H136	H	0.677833	0.473114	0.500239
H137	H	0.935136	0.082449	-0.568893
H138	H	1.435136	0.582449	-0.068893
H139	H	0.824268	-0.128964	-0.119561
H140	H	1.324268	0.371036	0.380439
H141	H	0.935128	0.082457	-0.430602
H142	H	1.435128	0.582457	0.069398
H143	H	0.734481	0.194396	-0.195572
H144	H	1.234481	0.694396	0.304428
H145	H	0.462838	0.228447	0.000182
H146	H	0.962838	0.728447	0.500182
H147	H	0.493295	-0.021841	0.000189
H148	H	0.993295	0.478159	0.500189
H149	H	0.046400	-0.028984	0.000310
H150	H	0.546400	0.471016	0.500310
H151	H	0.266331	0.003864	0.077214
H152	H	0.766331	0.503864	0.577214
H153	H	0.705537	0.119103	-0.568985
H154	H	1.205537	0.619103	-0.068985
H155	H	0.705531	0.119089	-0.430702
H156	H	1.205531	0.619089	0.069298
H157	H	0.816362	-0.669481	-0.119563
H158	H	1.316362	-0.169481	0.380437
H159	H	0.734486	0.194395	-0.333863
H160	H	1.234486	0.694395	0.166137
H161	H	0.816393	-0.669473	0.119974
H162	H	1.316393	-0.169473	0.619974
H163	H	0.906168	0.007153	-0.333803
H164	H	1.406168	0.507153	0.166197
H165	H	0.734507	0.194399	-0.665782
H166	H	1.234507	0.694399	-0.165782
H167	H	0.818468	-0.526276	-0.119564
H168	H	1.318468	-0.026276	0.380436
H169	H	0.397758	0.005962	0.077190
H170	H	0.897758	0.505962	0.577190
H171	H	0.906186	0.007161	-0.665727
H172	H	1.406186	0.507161	-0.165727
H173	H	0.822176	-0.272184	-0.119555
H174	H	1.322176	0.227816	0.380445
H175	H	0.734514	0.194410	-0.804076
H176	H	1.234514	0.694410	-0.304076
H177	H	0.906167	0.007163	-0.195516
H178	H	1.406167	0.507163	0.304484
H179	H	0.906189	0.007159	-0.804014
H180	H	1.406189	0.507159	-0.304014
H181	H	0.374346	0.197704	-0.076778
H182	H	0.874346	0.697704	0.423222
H183	H	0.242912	0.195600	-0.076755
H184	H	0.742912	0.695600	0.423245
H185	H	0.147371	0.223409	0.000239
H186	H	0.647371	0.723409	0.500239
H187	H	0.015942	0.221307	0.000258
H188	H	0.515942	0.721307	0.500258
H189	H	0.824315	-0.128957	0.119976
H190	H	1.324315	0.371043	0.619976
H191	H	0.624732	-0.019749	0.000146
H192	H	1.124732	0.480251	0.500146
