data_functionalizedCrystal
_audit_creation_method	'MofGen! by Chris Wilmer'
_symmetry_space_group_name_H-M	'P1'
_symmetry_Int_Tables_number	1
_symmetry_cell_setting	triclinic
loop_
_symmetry_equiv_pos_as_xyz
  x,y,z
_cell_length_a	19.077105
_cell_length_b	12.759400
_cell_length_c	19.076919
_cell_angle_alpha	87.724458
_cell_angle_beta	89.923776
_cell_angle_gamma	87.711155
loop_
_atom_site_label
_atom_site_type_symbol
_atom_site_fract_x
_atom_site_fract_y
_atom_site_fract_z
Zn1	Zn	1.058328	-0.508276	0.440440
Zn2	Zn	1.558328	-0.008276	0.940440
Zn3	Zn	1.062987	-0.677203	0.322941
Zn4	Zn	1.562987	-0.177203	0.822941
Zn5	Zn	0.945544	-0.494202	0.318233
Zn6	Zn	1.445544	0.005798	0.818233
Zn7	Zn	0.940808	-0.676570	0.435693
Zn8	Zn	1.440808	-0.176570	0.935693
O9	O	1.001917	-0.589063	0.379327
O10	O	1.501917	-0.089063	0.879327
O11	O	1.157278	-0.536840	0.428810
O12	O	1.657278	-0.036840	0.928810
O13	O	1.051339	-0.647303	0.223985
O14	O	1.551339	-0.147303	0.723985
O15	O	0.960537	-0.349051	0.334460
O16	O	1.460537	0.150949	0.834460
O17	O	1.160701	-0.660950	0.342484
O18	O	1.660701	-0.160950	0.842484
O19	O	1.043399	-0.359391	0.424245
O20	O	1.543399	0.140609	0.924245
O21	O	0.965055	-0.512852	0.220526
O22	O	1.465055	-0.012852	0.720526
O23	O	0.846583	-0.512238	0.329857
O24	O	1.346583	-0.012238	0.829857
O25	O	0.952466	-0.659870	0.534655
O26	O	1.452466	-0.159870	1.034655
O27	O	0.843104	-0.646223	0.416155
O28	O	1.343104	-0.146223	0.916155
O29	O	1.038807	-0.536226	0.538142
O30	O	1.538807	-0.036226	1.038142
O31	O	1.046747	-0.824137	0.337881
O32	O	1.546747	-0.324137	0.837881
O33	O	0.956984	-0.823672	0.420720
O34	O	1.456984	-0.323672	0.920720
C35	C	0.819347	-0.577635	0.371981
C36	C	1.319347	-0.077635	0.871981
C37	C	0.741242	-0.572773	0.368855
C38	C	1.241242	-0.072773	0.868855
C39	C	0.702758	-0.640344	0.412246
C40	C	1.202758	-0.140344	0.912246
C41	C	0.629371	-0.635762	0.409312
C42	C	1.129371	-0.135762	0.909312
C43	C	0.594468	-0.563612	0.362983
C44	C	1.094468	-0.063612	0.862983
C45	C	0.632957	-0.496033	0.319590
C46	C	1.132957	0.003967	0.819590
C47	C	0.706344	-0.500611	0.322528
C48	C	1.206344	-0.000611	0.822528
C49	C	0.375179	-0.542424	0.349390
C50	C	0.875179	-0.042424	0.849390
C51	C	0.301787	-0.537853	0.346453
C52	C	0.801787	-0.037853	0.846453
C53	C	0.298205	-0.677581	0.436177
C54	C	0.798205	-0.177581	0.936177
C55	C	0.371593	-0.682157	0.439108
C56	C	0.871593	-0.182157	0.939108
C57	C	0.410076	-0.614575	0.395717
C58	C	0.910076	-0.114575	0.895717
N59	N	0.519454	-0.558929	0.359982
N60	N	1.019454	-0.058929	0.859982
N61	N	0.485089	-0.619254	0.398723
N62	N	0.985089	-0.119254	0.898723
C63	C	1.001876	-0.862027	0.379313
C64	C	1.501876	-0.362027	0.879313
C65	C	1.001921	-0.978807	0.379333
C66	C	1.501921	-0.478807	0.879333
C67	C	1.045046	-1.038965	0.426121
C68	C	1.545046	-0.538965	0.926121
C69	C	1.045085	-1.148692	0.426142
C70	C	1.545085	-0.648692	0.926142
C71	C	0.958872	-1.138095	0.332579
C72	C	1.458872	-0.638095	0.832579
C73	C	0.958830	-1.028370	0.332563
C74	C	1.458830	-0.528370	0.832563
C75	C	1.066869	-1.304878	0.510064
C76	C	1.566869	-0.804878	1.010064
C77	C	1.110005	-1.365039	0.556847
C78	C	1.610005	-0.865039	1.056847
C79	C	1.178114	-1.334240	0.570443
C80	C	1.678114	-0.834240	1.070443
C81	C	1.203101	-1.243281	0.537247
C82	C	1.703101	-0.743281	1.037247
C83	C	1.159969	-1.183126	0.490459
C84	C	1.659969	-0.683126	0.990459
C85	C	1.091850	-1.213924	0.476875
C86	C	1.591850	-0.713924	0.976875
C87	C	0.937054	-0.872182	0.248640
C88	C	1.437054	-0.372182	0.748640
C89	C	0.893925	-0.812024	0.201848
C90	C	1.393925	-0.312024	0.701848
C91	C	0.825815	-0.842821	0.188245
C92	C	1.325815	-0.342821	0.688245
C93	C	0.800831	-0.933783	0.221429
C94	C	1.300831	-0.433783	0.721429
C95	C	0.843960	-0.993941	0.268221
C96	C	1.343960	-0.493941	0.768221
C97	C	0.912069	-0.963136	0.281825
C98	C	1.412069	-0.463136	0.781825
C99	C	1.185199	-0.600536	0.386702
C100	C	1.685199	-0.100536	0.886702
C101	C	1.263303	-0.605425	0.389845
C102	C	1.763303	-0.105425	0.889845
C103	C	0.994588	-0.599547	0.562607
C104	C	1.494588	-0.099547	1.062607
C105	C	0.991466	-0.604015	0.640711
C106	C	1.491466	-0.104015	1.140711
C107	C	1.001976	-0.315035	0.379357
C108	C	1.501976	0.184965	0.879357
C109	C	1.002002	-0.198260	0.379370
C110	C	1.502002	0.301740	0.879370
C111	C	1.009257	-0.578546	0.196761
C112	C	1.509257	-0.078546	0.696761
C113	C	1.012516	-0.573790	0.118663
C114	C	1.512516	-0.073790	0.618663
C115	C	1.034949	-0.541742	0.679221
C116	C	1.534949	-0.041742	1.179221
C117	C	1.032006	-0.545935	0.752607
C118	C	1.532006	-0.045935	1.252607
C119	C	0.985583	-0.612408	0.787482
C120	C	1.485583	-0.112408	1.287482
C121	C	0.942095	-0.674684	0.748966
C122	C	1.442095	-0.174684	1.248966
C123	C	0.945034	-0.670484	0.675582
C124	C	1.445034	-0.170484	1.175582
C125	C	0.971967	-0.631866	1.006763
C126	C	1.471967	-0.131866	1.506763
C127	C	0.969032	-0.636064	1.080154
C128	C	1.469032	-0.136064	1.580154
C129	C	1.058944	-0.507313	1.083789
C130	C	1.558944	-0.007313	1.583789
C131	C	1.061882	-0.503124	1.010402
C132	C	1.561882	-0.003124	1.510402
C133	C	1.018391	-0.565395	0.971894
C134	C	1.518391	-0.065395	1.471894
N135	N	0.982575	-0.616699	0.862494
N136	N	1.482575	-0.116699	1.362494
N137	N	1.021396	-0.561099	0.896883
N138	N	1.521396	-0.061099	1.396883
H139	H	0.598040	-0.690787	0.444646
H140	H	1.098040	-0.190787	0.944646
H141	H	0.737677	-0.445582	0.287198
H142	H	1.237677	0.054418	0.787198
H143	H	0.923790	-1.178462	0.294500
H144	H	1.423790	-0.678462	0.794500
H145	H	1.067417	-0.495229	0.783958
H146	H	1.567417	0.004771	1.283958
H147	H	0.992511	-0.847088	0.259723
H148	H	1.492511	-0.347088	0.759723
H149	H	1.011406	-1.329957	0.499004
H150	H	1.511406	-0.829957	0.999004
H151	H	0.931226	-0.690196	1.108546
H152	H	1.431226	-0.190196	1.608546
H153	H	1.072754	-0.487616	0.650831
H154	H	1.572754	0.012384	1.150831
H155	H	0.909618	-0.721182	0.644227
H156	H	1.409618	-0.221182	1.144227
H157	H	0.823611	-1.068006	0.295241
H158	H	1.323611	-0.568006	0.795241
H159	H	0.904293	-0.728803	0.777367
H160	H	1.404293	-0.228803	1.277367
H161	H	0.745370	-0.958860	0.210351
H162	H	1.245370	-0.458860	0.710351
H163	H	0.790701	-0.793831	0.150141
H164	H	1.290701	-0.293831	0.650141
H165	H	1.213236	-1.383231	0.608535
H166	H	1.713236	-0.883231	1.108535
H167	H	0.936564	-0.682588	0.975419
H168	H	1.436564	-0.182588	1.475419
H169	H	0.400006	-0.740911	0.476832
H170	H	0.900006	-0.240911	0.976832
H171	H	1.099687	-0.448998	0.982013
H172	H	1.599687	0.051002	1.482013
H173	H	1.180314	-1.109070	0.463429
H174	H	1.680314	-0.609070	0.963429
H175	H	0.406503	-0.487401	0.314053
H176	H	0.906503	0.012599	0.814053
H177	H	0.731171	-0.699100	0.449970
H178	H	1.231171	-0.199100	0.949970
H179	H	1.094351	-0.456614	1.115150
H180	H	1.594351	0.043386	1.615150
H181	H	0.914275	-0.737962	0.174825
H182	H	1.414275	-0.237962	0.674825
H183	H	0.266865	-0.732601	0.471504
H184	H	0.766865	-0.232601	0.971504
H185	H	0.273372	-0.479088	0.308731
H186	H	0.773372	0.020912	0.808731
H187	H	0.604534	-0.437283	0.281871
H188	H	1.104534	0.062717	0.781871
H189	H	1.089654	-1.439098	0.583875
H190	H	1.589654	-0.939098	1.083875
H191	H	1.080133	-0.998614	0.464205
H192	H	1.580133	-0.498614	0.964205
H193	H	1.258566	-1.218219	0.548315
H194	H	1.758566	-0.718219	1.048315
