data_functionalizedCrystal
_audit_creation_method	'MofGen! by Chris Wilmer'
_symmetry_space_group_name_H-M	'P1'
_symmetry_Int_Tables_number	1
_symmetry_cell_setting	triclinic
loop_
_symmetry_equiv_pos_as_xyz
  x,y,z
_cell_length_a	21.395362
_cell_length_b	12.759399
_cell_length_c	12.759393
_cell_angle_alpha	90.030906
_cell_angle_beta	90.042133
_cell_angle_gamma	90.030995
loop_
_atom_site_label
_atom_site_type_symbol
_atom_site_fract_x
_atom_site_fract_y
_atom_site_fract_z
Zn1	Zn	0.957916	-0.417770	0.594612
Zn2	Zn	0.957850	-0.593486	0.418930
Zn3	Zn	0.853134	-0.417870	0.418882
Zn4	Zn	0.853129	-0.593456	0.594503
O5	O	0.905507	-0.505645	0.506732
O6	O	1.045585	-0.441049	0.571373
O7	O	0.943935	-0.570244	0.271903
O8	O	0.867064	-0.270836	0.442218
O9	O	1.045537	-0.570147	0.442301
O10	O	0.944047	-0.270762	0.571326
O11	O	0.867000	-0.441220	0.271867
O12	O	0.765456	-0.441191	0.442112
O13	O	0.867054	-0.570097	0.741538
O14	O	0.765452	-0.570194	0.571140
O15	O	0.944041	-0.441021	0.741618
O16	O	0.943929	-0.740503	0.442195
O17	O	0.866991	-0.740481	0.571187
C18	C	0.742720	-0.505701	0.506610
C19	C	0.673079	-0.505750	0.506582
C20	C	0.905469	-0.778613	0.506708
C21	C	0.905510	-0.895389	0.506733
C22	C	0.945618	-0.950228	0.439643
C23	C	0.945658	-1.059952	0.439678
C24	C	0.865477	-1.059989	0.573896
C25	C	0.865441	-0.950267	0.573865
C26	C	0.640380	-0.573011	0.573667
C27	C	0.574944	-0.572985	0.573713
C28	C	0.542210	-0.505710	0.506657
C29	C	0.574917	-0.438436	0.439568
C30	C	0.640351	-0.438456	0.439531
C31	C	0.438486	-0.497273	0.412075
C32	C	0.373053	-0.497260	0.412110
C33	C	0.340390	-0.505641	0.506773
C34	C	0.373167	-0.514057	0.601404
C35	C	0.438601	-0.514077	0.601366
C36	C	0.471258	-0.505680	0.506691
C37	C	0.236738	-0.572877	0.573914
C38	C	0.171302	-0.572844	0.573963
C39	C	0.171276	-0.438301	0.439808
C40	C	0.236711	-0.438328	0.439769
C41	C	0.269438	-0.505622	0.506820
C42	C	1.068931	-0.505590	0.506855
C43	C	1.138572	-0.505567	0.506907
C44	C	0.905554	-0.505545	0.780765
C45	C	0.905574	-0.505502	0.897542
C46	C	0.905563	-0.231612	0.506779
C47	C	0.905587	-0.114835	0.506799
C48	C	0.905497	-0.505670	0.233764
C49	C	0.905598	-0.505417	0.116988
C50	C	0.945664	-0.438281	0.952447
C51	C	0.945675	-0.438236	1.062171
C52	C	0.865504	-0.572641	1.062075
C53	C	0.865491	-0.572680	0.952353
H54	H	0.978245	-0.905548	0.384981
F55	F	0.822753	-0.891901	0.645280
F56	F	0.822816	-0.644224	0.893915
H57	H	0.832854	-1.104685	0.628551
F58	F	0.675153	-0.366864	0.368128
H59	H	0.465075	-0.490444	0.334983
F60	F	0.675207	-0.644628	0.645033
F61	F	0.988347	-1.118310	0.368274
H62	H	0.548316	-0.627756	0.628345
H63	H	0.832870	-0.627337	1.106716
H64	H	0.263386	-0.627667	0.628517
F65	F	0.473483	-0.523029	0.702076
F66	F	0.338410	-0.522972	0.702160
H67	H	0.144679	-0.627614	0.628597
H68	H	0.144624	-0.383519	0.385214
H69	H	0.978302	-0.383577	0.907823
F70	F	0.271513	-0.366742	0.368365
H71	H	0.346371	-0.490415	0.335056
F72	F	0.988348	-0.366697	1.120601
H73	H	0.548261	-0.383658	0.384973
