data_functionalizedCrystal
_audit_creation_method	'MofGen! by Chris Wilmer'
_symmetry_space_group_name_H-M	'P1'
_symmetry_Int_Tables_number	1
_symmetry_cell_setting	triclinic
loop_
_symmetry_equiv_pos_as_xyz
  x,y,z
_cell_length_a	12.759395
_cell_length_b	16.625545
_cell_length_c	16.625539
_cell_angle_alpha	89.973757
_cell_angle_beta	89.985313
_cell_angle_gamma	90.027095
loop_
_atom_site_label
_atom_site_type_symbol
_atom_site_fract_x
_atom_site_fract_y
_atom_site_fract_z
Zn1	Zn	1.606129	-0.320982	-0.455859
Zn2	Zn	2.106129	0.179018	0.044141
Zn3	Zn	1.606004	-0.455821	-0.321027
Zn4	Zn	2.106004	0.044179	0.178973
Zn5	Zn	1.430445	-0.321009	-0.321046
Zn6	Zn	1.930445	0.178991	0.178954
Zn7	Zn	1.430386	-0.455780	-0.455823
Zn8	Zn	1.930386	0.044220	0.044177
O9	O	1.518241	-0.388398	-0.388439
O10	O	2.018241	0.111602	0.111561
O11	O	1.753134	-0.338874	-0.437981
O12	O	2.253134	0.161126	0.062019
O13	O	1.582688	-0.437966	-0.208197
O14	O	2.082688	0.062034	0.291803
O15	O	1.453827	-0.208173	-0.338952
O16	O	1.953827	0.291827	0.161048
O17	O	1.753042	-0.437940	-0.338921
O18	O	2.253042	0.062060	0.161079
O19	O	1.582901	-0.208153	-0.437999
O20	O	2.082901	0.291847	0.062001
O21	O	1.453706	-0.338921	-0.208211
O22	O	1.953706	0.161079	0.291789
O23	O	1.283416	-0.338881	-0.338916
O24	O	1.783416	0.161119	0.161084
O25	O	1.453727	-0.437870	-0.568660
O26	O	1.953727	0.062130	-0.068660
O27	O	1.283373	-0.437897	-0.437936
O28	O	1.783373	0.062103	0.062064
O29	O	1.582844	-0.338835	-0.568687
O30	O	2.082844	0.161165	-0.068687
O31	O	1.582631	-0.568648	-0.338885
O32	O	2.082631	-0.068648	0.161115
O33	O	1.453606	-0.568618	-0.437919
O34	O	1.953606	-0.068618	0.062081
C35	C	1.245274	-0.388388	-0.388425
C36	C	1.745274	0.111612	0.111575
C37	C	1.128497	-0.388403	-0.388438
C38	C	1.628497	0.111597	0.111562
C39	C	1.128491	-0.491675	-0.491381
C40	C	1.628491	0.008325	0.008619
C41	C	1.073627	-0.543317	-0.542855
C42	C	1.573627	-0.043317	-0.042855
C43	C	0.963905	-0.543327	-0.542864
C44	C	1.463905	-0.043327	-0.042864
C45	C	0.909045	-0.491687	-0.491397
C46	C	1.409045	0.008313	0.008603
C47	C	0.963909	-0.440045	-0.439923
C48	C	1.463909	0.059955	0.060077
C49	C	1.073633	-0.440043	-0.439917
C50	C	1.573633	0.059957	0.060083
C51	C	0.963915	-0.336771	-0.336986
C52	C	1.463915	0.163229	0.163014
C53	C	1.073637	-0.336764	-0.336970
C54	C	1.573637	0.163236	0.163030
C55	C	0.909055	-0.285131	-0.285518
C56	C	1.409055	0.214869	0.214482
C57	C	0.963919	-0.233492	-0.234039
C58	C	1.463919	0.266508	0.265961
C59	C	1.073647	-0.233485	-0.234030
C60	C	1.573647	0.266515	0.265970
C61	C	1.128501	-0.285122	-0.285497
C62	C	1.628501	0.214878	0.214503
C63	C	1.518127	-0.597889	-0.388413
C64	C	2.018127	-0.097889	0.111587
C65	C	1.518174	-0.687510	-0.388429
C66	C	2.018174	-0.187510	0.111571
C67	C	1.518215	-0.760292	-0.388445
C68	C	2.018215	-0.260292	0.111555
C69	C	1.518276	-0.851601	-0.388463
C70	C	2.018276	-0.351601	0.111537
C71	C	1.518331	-0.924377	-0.388473
C72	C	2.018331	-0.424377	0.111527
C73	C	1.518391	-1.015692	-0.388490
C74	C	2.018391	-0.515692	0.111510
C75	C	1.792275	-0.388408	-0.388453
C76	C	2.292275	0.111592	0.111547
C77	C	1.909051	-0.388413	-0.388459
C78	C	2.409051	0.111587	0.111541
C79	C	1.518293	-0.388345	-0.598748
C80	C	2.018293	0.111655	-0.098748
C81	C	1.518315	-0.388322	-0.688369
C82	C	2.018315	0.111678	-0.188369
C83	C	1.518384	-0.178089	-0.388482
C84	C	2.018384	0.321911	0.111518
C85	C	1.518445	-0.088468	-0.388500
C86	C	2.018445	0.411532	0.111500
C87	C	1.518332	-0.388304	-0.761151
C88	C	2.018332	0.111696	-0.261151
C89	C	1.518356	-0.388274	-0.852460
C90	C	2.018356	0.111726	-0.352460
C91	C	1.518381	-0.388246	-0.925236
C92	C	2.018381	0.111754	-0.425236
C93	C	1.518407	-0.388217	-1.016551
C94	C	2.018407	0.111783	-0.516551
C95	C	1.518250	-0.388393	-0.178948
C96	C	2.018250	0.111607	0.321052
C97	C	1.518432	-0.388188	-0.089327
C98	C	2.018432	0.111812	0.410673
H99	H	1.217832	-0.491678	-0.491372
H100	H	1.717832	0.008322	0.008628
F101	F	0.905528	-0.178535	-0.179275
F102	F	1.405528	0.321465	0.320725
F103	F	1.132019	-0.598277	-0.597623
F104	F	1.632019	-0.098277	-0.097623
H105	H	0.919235	-0.585374	-0.584783
H106	H	1.419235	-0.085374	-0.084783
H107	H	1.118311	-0.191426	-0.192120
H108	H	1.618311	0.308574	0.307880
H109	H	0.819704	-0.491693	-0.491416
H110	H	1.319704	0.008307	0.008584
H111	H	0.819714	-0.285140	-0.285533
H112	H	1.319714	0.214860	0.214467
H113	H	1.217842	-0.285123	-0.285492
H114	H	1.717842	0.214877	0.214508
