data_functionalizedCrystal
_audit_creation_method	'MofGen! by Chris Wilmer'
_symmetry_space_group_name_H-M	'P1'
_symmetry_Int_Tables_number	1
_symmetry_cell_setting	triclinic
loop_
_symmetry_equiv_pos_as_xyz
  x,y,z
_cell_length_a	14.908571
_cell_length_b	29.839131
_cell_length_c	14.908308
_cell_angle_alpha	93.261283
_cell_angle_beta	90.175053
_cell_angle_gamma	86.737317
loop_
_atom_site_label
_atom_site_type_symbol
_atom_site_fract_x
_atom_site_fract_y
_atom_site_fract_z
Zn1	Zn	1.345126	-0.234441	-0.587534
Zn2	Zn	1.353655	-0.305498	-0.437159
Zn3	Zn	1.203447	-0.225812	-0.428533
Zn4	Zn	1.194683	-0.304964	-0.578811
O5	O	1.274228	-0.267679	-0.508009
O6	O	1.472080	-0.247701	-0.574847
O7	O	1.340967	-0.291540	-0.310191
O8	O	1.222340	-0.164094	-0.449665
O9	O	1.478346	-0.299907	-0.464367
O10	O	1.326430	-0.170433	-0.566482
O11	O	1.230610	-0.232995	-0.303854
O12	O	1.076461	-0.232477	-0.441208
O13	O	1.207402	-0.298997	-0.705792
O14	O	1.070022	-0.290630	-0.551616
O15	O	1.317932	-0.247184	-0.712201
O16	O	1.332468	-0.368290	-0.455909
O17	O	1.215672	-0.367898	-0.559980
C18	C	1.040617	-0.260560	-0.494530
C19	C	0.940676	-0.257526	-0.488784
C20	C	0.746229	-0.312463	-0.592802
C21	C	0.652326	-0.309614	-0.587407
C22	C	0.658964	-0.248976	-0.472604
C23	C	0.752867	-0.251825	-0.477999
C24	C	0.796497	-0.283570	-0.538099
C25	C	0.890402	-0.286422	-0.543489
C26	C	0.897038	-0.225781	-0.428692
C27	C	0.803135	-0.222932	-0.423297
C28	C	1.274068	-0.384395	-0.507955
C29	C	1.274080	-0.434330	-0.507967
C30	C	1.335143	-0.744176	-0.453910
C31	C	1.335252	-0.931853	-0.453951
O32	O	1.387043	-0.956286	-0.407948
N33	N	1.274410	-0.955128	-0.508088
C34	C	1.213541	-0.931481	-0.562223
O35	O	1.161800	-0.955585	-0.608278
C36	C	1.213437	-0.743805	-0.562186
C37	C	1.274276	-0.720532	-0.508038
C38	C	1.395978	-0.720903	-0.399768
C39	C	1.395947	-0.673987	-0.399754
C40	C	1.335081	-0.650343	-0.453883
C41	C	1.274245	-0.673615	-0.508025
C42	C	1.152572	-0.720159	-0.616325
C43	C	1.152553	-0.673237	-0.616312
C44	C	1.213393	-0.649964	-0.562165
C45	C	1.213348	-0.603055	-0.562140
N46	N	1.274189	-0.579780	-0.508003
C47	C	1.335056	-0.603424	-0.453875
C48	C	1.213598	-1.030014	-0.562237
C49	C	1.213623	-1.076933	-0.562245
C50	C	1.335336	-1.077302	-0.453975
C51	C	1.335306	-1.030382	-0.453962
C52	C	1.274440	-1.006739	-0.508100
C53	C	1.334986	-0.504895	-0.453850
C54	C	1.334947	-0.457974	-0.453839
C55	C	1.213238	-0.457609	-0.562112
C56	C	1.213273	-0.504526	-0.562121
C57	C	1.274154	-0.528168	-0.507987
O58	O	1.161590	-0.578594	-0.608127
O59	O	1.386803	-0.579313	-0.407842
C60	C	1.335174	-0.791093	-0.453923
C61	C	1.274339	-0.814366	-0.508065
C62	C	1.213472	-0.790722	-0.562194
C63	C	1.274363	-0.861284	-0.508074
C64	C	1.335230	-0.884928	-0.453945
C65	C	1.396072	-0.861654	-0.399808
C66	C	1.396041	-0.814737	-0.399794
C67	C	1.152630	-0.813996	-0.616331
C68	C	1.152666	-0.860913	-0.616339
C69	C	1.213532	-0.884557	-0.562211
C70	C	1.508750	-0.274826	-0.521542
C71	C	1.608690	-0.277872	-0.527309
C72	C	1.260738	-0.273993	-0.742533
C73	C	1.254989	-0.276684	-0.842474
C74	C	1.274411	-0.150508	-0.508085
C75	C	1.274490	-0.100577	-0.508117
C76	C	1.359279	-0.227777	-1.036946
C77	C	1.353881	-0.230304	-1.130849
C78	C	1.238790	-0.284262	-1.124184
C79	C	1.244189	-0.281735	-1.030281
C80	C	1.304436	-0.253492	-0.986666
C81	C	1.309839	-0.250968	-0.892761
C82	C	1.194744	-0.304924	-0.886097
C83	C	1.189345	-0.307450	-0.980000
C84	C	1.287717	-0.261358	-0.274401
C85	C	1.293639	-0.258546	-0.174471
H86	H	0.781753	-0.338314	-0.641733
H87	H	1.189739	-0.307256	-1.159711
H88	H	1.358896	-0.227972	-0.857251
H89	H	1.140292	-0.330444	-1.015524
H90	H	0.925924	-0.312271	-0.592424
H91	H	1.398538	-0.209362	-1.171784
H92	H	0.611401	-0.333141	-0.631953
C93	C	0.610955	-0.214054	-0.406509
N94	N	0.574793	-0.187750	-0.356726
C95	C	1.146344	-0.530127	-0.621682
N96	N	1.095938	-0.549406	-0.666552
C97	C	0.952341	-0.193998	-0.368512
N98	N	0.993996	-0.170061	-0.323183
H99	H	1.408340	-0.204783	-1.001435
H100	H	0.767599	-0.197085	-0.374367
H101	H	1.384490	-0.439027	-0.409742
C102	C	1.401953	-0.530894	-0.394294
N103	N	1.452388	-0.550476	-0.349431
C104	C	1.134413	-0.333213	-0.830780
N105	N	1.088974	-0.354520	-0.789115
C106	C	1.462870	-0.648392	-0.340180
N107	N	1.513277	-0.629117	-0.295302
C108	C	1.146291	-0.431592	-0.621655
N109	N	1.095871	-0.411995	-0.666509
H110	H	1.384847	-1.011436	-0.409871
C111	C	1.462938	-0.746904	-0.340211
N112	N	1.513370	-0.766484	-0.295343
C113	C	1.402294	-1.103319	-0.394438
N114	N	1.452729	-1.122918	-0.349603
H115	H	1.164073	-1.095877	-0.606329
C116	C	1.085645	-0.745749	-0.675895
N117	N	1.035233	-0.765022	-0.720769
C118	C	1.146659	-1.004014	-0.621822
N119	N	1.096246	-0.984433	-0.666710
H120	H	1.102990	-0.653989	-0.660401
H121	H	1.445582	-0.795792	-0.355703
H122	H	1.445629	-0.880912	-0.355732
H123	H	1.103115	-0.879858	-0.660431
H124	H	1.103066	-0.794749	-0.660410
