data_functionalizedCrystal
_audit_creation_method	'MofGen! by Chris Wilmer'
_symmetry_space_group_name_H-M	'P1'
_symmetry_Int_Tables_number	1
_symmetry_cell_setting	triclinic
loop_
_symmetry_equiv_pos_as_xyz
  x,y,z
_cell_length_a	14.853558
_cell_length_b	13.930277
_cell_length_c	13.339070
_cell_angle_alpha	90.001010
_cell_angle_beta	99.630214
_cell_angle_gamma	90.006691
loop_
_atom_site_label
_atom_site_type_symbol
_atom_site_fract_x
_atom_site_fract_y
_atom_site_fract_z
O1	O	1.229264	0.079815	0.132076
O2	O	0.970725	0.079820	0.147825
O3	O	1.070323	0.079815	-0.007354
O4	O	1.129667	0.079820	0.287255
O5	O	1.070303	-0.079847	-0.007357
O6	O	0.970705	-0.079842	0.147821
O7	O	1.229244	-0.079846	0.132073
Zn8	Zn	1.099971	-0.105194	0.139947
Zn9	Zn	1.099998	0.105167	0.139951
O10	O	1.129646	-0.079842	0.287251
C11	C	0.936949	-0.000011	0.147111
C12	C	0.836334	-0.000009	0.144978
C13	C	0.789075	0.087026	0.143979
C14	C	0.789049	-0.087043	0.143964
C15	C	0.694515	-0.087045	0.141954
C16	C	0.647256	-0.000010	0.140955
C17	C	0.694532	0.087027	0.141966
C18	C	0.647230	-0.174080	0.140932
C19	C	0.552690	-0.174085	0.138921
C20	C	0.505431	-0.087049	0.137930
C21	C	0.552713	-0.000009	0.138942
C22	C	0.505454	0.087027	0.137944
C23	C	0.552735	0.174068	0.138963
C24	C	0.647273	0.174064	0.140975
C25	C	0.410894	-0.087044	0.135918
C26	C	0.410911	0.087028	0.135931
N27	N	1.099960	-0.248760	0.139943
C28	C	1.055887	-0.701027	0.208637
C29	C	1.144132	-0.701001	0.071257
C30	C	1.144120	-0.600505	0.071254
C31	C	1.099992	-0.550266	0.139944
C32	C	1.055876	-0.600522	0.208638
C33	C	1.188243	-0.550241	0.002568
C34	C	1.188234	-0.449739	0.002563
C35	C	1.144101	-0.399498	0.071250
C36	C	1.099982	-0.449761	0.139945
C37	C	1.055854	-0.399522	0.208636
C38	C	1.011729	-0.449783	0.277327
C39	C	1.011743	-0.550281	0.277324
C40	C	1.144087	-0.298999	0.071252
C41	C	1.055844	-0.299017	0.208637
C42	C	1.263020	-0.000014	0.132786
C43	C	1.363635	-0.000009	0.134920
C44	C	1.060288	-0.000014	-0.045058
C45	C	1.030408	-0.000010	-0.157401
N46	N	1.100015	0.248733	0.139947
C47	C	1.262740	-0.000014	-0.521876
C48	C	1.290817	-0.000024	-0.416325
C49	C	1.225717	-0.000020	-0.351589
C50	C	1.132536	-0.000007	-0.392414
C51	C	1.104456	-0.000005	-0.497976
C52	C	1.067433	-0.000011	-0.327688
C53	C	0.974252	0.000001	-0.368514
C54	C	0.946177	0.000004	-0.474065
C55	C	1.011277	0.000000	-0.538801
C56	C	1.095513	-0.000013	-0.222127
C57	C	0.937229	-0.000004	-0.198226
C58	C	0.909152	0.000005	-0.303778
C59	C	1.139681	-0.000010	0.324956
C60	C	1.169561	-0.000008	0.437298
H61	H	0.372403	-0.157912	0.135097
C62	C	0.808016	0.000162	-0.348249
C63	C	0.787297	0.082294	-0.408166
C64	C	0.694144	0.082465	-0.449161
H65	H	0.773156	0.000213	-0.294690
H66	H	0.793744	-0.055486	-0.388992
H67	H	0.801559	0.137927	-0.367425
H68	H	0.822133	0.082261	-0.461741
H69	H	0.679872	0.026818	-0.489904
H70	H	0.659292	0.082513	-0.395595
H71	H	0.680075	0.138186	-0.489827
H72	H	1.224176	-0.591149	-0.053353
C73	C	0.845023	-0.000185	-0.518451
C74	C	0.824261	-0.082337	-0.578337
C75	C	0.731085	-0.082549	-0.619231
H76	H	0.830686	0.055429	-0.559199
H77	H	0.810236	-0.000233	-0.464813
H78	H	0.859036	-0.082280	-0.631969
H79	H	0.838575	-0.137964	-0.537613
H80	H	0.696298	-0.082597	-0.565592
H81	H	0.716757	-0.026931	-0.659973
H82	H	0.716984	-0.138292	-0.659860
C83	C	0.698590	0.268585	0.142287
C84	C	0.687241	0.321080	0.228812
C85	C	0.734517	0.408150	0.230061
H86	H	0.675281	0.304468	0.083066
H87	H	0.761676	0.256153	0.143680
H88	H	0.624168	0.333515	0.227409
H89	H	0.710555	0.285227	0.288047
H90	H	0.797602	0.395718	0.231454
H91	H	0.711203	0.444023	0.170836
H92	H	0.726830	0.443774	0.288771
C93	C	0.698466	-0.268597	0.141800
C94	C	0.663875	-0.321087	0.054294
C95	C	0.711065	-0.408157	0.055051
H96	H	0.690871	-0.304482	0.200361
H97	H	0.761541	-0.256165	0.143093
H98	H	0.600815	-0.333522	0.053010
H99	H	0.671470	-0.285231	-0.004281
H100	H	0.774140	-0.395725	0.056345
H101	H	0.703467	-0.444034	0.113616
H102	H	0.687607	-0.443778	-0.004324
H103	H	1.366685	-0.000035	-0.383093
H104	H	1.019905	-0.258118	0.264569
C105	C	0.359762	0.181627	0.134802
C106	C	0.421402	0.257846	0.136102
C107	C	0.374316	0.345004	0.135050
H108	H	0.330746	0.185377	0.192965
H109	H	0.315030	0.185304	0.075026
H110	H	0.466117	0.254170	0.195871
H111	H	0.450420	0.254128	0.077943
H112	H	0.329584	0.348681	0.075275
H113	H	0.345302	0.348743	0.193214
H114	H	0.416130	0.396728	0.135923
C115	C	0.840385	0.181553	0.145298
C116	C	0.829021	0.234042	0.231821
C117	C	0.876286	0.321118	0.233078
H118	H	0.817078	0.217435	0.086076
H119	H	0.903474	0.169130	0.146699
H120	H	0.765945	0.246467	0.230410
H121	H	0.852333	0.198189	0.291056
H122	H	0.939375	0.308695	0.234480
H123	H	0.852974	0.356991	0.173853
H124	H	0.868589	0.356739	0.291788
C125	C	0.866401	-0.000046	-0.128121
C126	C	0.778788	-0.000068	-0.186464
C127	C	0.713526	-0.000122	-0.121913
H128	H	0.873950	0.055617	-0.086422
H129	H	0.874004	-0.055746	-0.086464
H130	H	0.771188	0.055626	-0.228104
H131	H	0.771209	-0.055726	-0.228161
H132	H	0.721129	-0.055822	-0.080256
H133	H	0.721084	0.055541	-0.080217
H134	H	0.654074	-0.000146	-0.161489
H135	H	0.514245	0.244932	0.138144
H136	H	1.171381	-0.000024	-0.188898
H137	H	1.224162	-0.408823	-0.053370
H138	H	1.315734	-0.000025	-0.574593
H139	H	0.827531	-0.157903	0.144769
C140	C	0.501290	-0.268556	0.137606
C141	C	0.435417	-0.273649	0.049445
C142	C	0.388058	-0.360668	0.048193
H143	H	0.472200	-0.272276	0.195717
H144	H	0.542943	-0.320415	0.138431
H145	H	0.393769	-0.221805	0.048630
H146	H	0.464482	-0.269946	-0.008680
H147	H	0.429711	-0.412527	0.049017
H148	H	0.358974	-0.364380	0.106307
H149	H	0.343364	-0.364139	-0.011627
C150	C	0.963979	-0.395108	0.351955
C151	C	1.027514	-0.337384	0.413984
C152	C	0.983560	-0.286992	0.482732
H153	H	0.937699	-0.439319	0.392964
H154	H	0.917350	-0.355853	0.315499
H155	H	1.074126	-0.376636	0.450437
H156	H	1.053798	-0.293156	0.373003
H157	H	0.936931	-0.247737	0.446276
H158	H	0.957281	-0.331209	0.523733
H159	H	1.026660	-0.247814	0.524820
C160	C	0.963925	-0.604724	0.352064
C161	C	1.003401	-0.580248	0.451538
C162	C	0.959369	-0.630373	0.520414
H163	H	0.970224	-0.671788	0.342371
H164	H	0.900976	-0.588249	0.341010
H165	H	1.066335	-0.596729	0.462588
H166	H	0.997104	-0.513193	0.461263
H167	H	0.896419	-0.613898	0.509360
H168	H	0.965670	-0.697434	0.510712
H169	H	0.986141	-0.613766	0.587915
H170	H	1.019958	-0.741952	0.264562
H171	H	1.180065	-0.741909	0.015336
C172	C	1.192001	-0.244604	-0.003430
C173	C	1.230635	-0.310112	-0.063598
C174	C	1.274771	-0.260039	-0.132420
H175	H	1.238700	-0.205382	0.032934
H176	H	1.149026	-0.205433	-0.045683
H177	H	1.273607	-0.349267	-0.021351
H178	H	1.183956	-0.349336	-0.099984
H179	H	1.231796	-0.220868	-0.174673
H180	H	1.321466	-0.220818	-0.096047
H181	H	1.300982	-0.304478	-0.173258
C182	C	1.256380	0.000027	-0.237017
C183	C	1.351916	0.000042	-0.215119
C184	C	1.380199	0.000104	-0.109583
H185	H	1.233585	-0.055631	-0.208605
H186	H	1.233565	0.055732	-0.208694
H187	H	1.374721	-0.055657	-0.243429
H188	H	1.374735	0.055695	-0.243506
H189	H	1.357385	0.055809	-0.081260
H190	H	1.357398	-0.055555	-0.081180
H191	H	1.445023	0.000123	-0.094711
H192	H	0.988421	0.000012	-0.624751
