data_functionalizedCrystal
_audit_creation_method	'MofGen! by Chris Wilmer'
_symmetry_space_group_name_H-M	'P1'
_symmetry_Int_Tables_number	1
_symmetry_cell_setting	triclinic
loop_
_symmetry_equiv_pos_as_xyz
  x,y,z
_cell_length_a	23.532353
_cell_length_b	23.532403
_cell_length_c	14.185569
_cell_angle_alpha	103.077511
_cell_angle_beta	103.073284
_cell_angle_gamma	97.163198
loop_
_atom_site_label
_atom_site_type_symbol
_atom_site_fract_x
_atom_site_fract_y
_atom_site_fract_z
O1	O	-0.082086	0.742279	-0.083254
O2	O	-0.092099	0.576406	-0.083297
O3	O	-0.004155	0.664364	-0.083253
O4	O	-0.170030	0.654321	-0.083298
O5	O	0.021821	0.690347	0.083595
O6	O	-0.066123	0.602389	0.083550
O7	O	-0.056110	0.768262	0.083594
Cu8	Cu	-0.058744	0.687698	0.098807
Cu9	Cu	-0.089465	0.656970	-0.098510
O10	O	-0.144054	0.680304	0.083550
C11	C	-0.078857	0.568181	0.000121
C12	C	-0.078095	0.504961	0.000105
C13	C	0.030050	0.677105	0.000174
C14	C	0.093270	0.676353	0.000184
C15	C	0.471114	0.657451	-0.090816
C16	C	0.530513	0.656734	-0.090822
O17	O	0.549187	0.644299	-0.168170
N18	N	0.574384	0.670542	0.000126
C19	C	0.558853	0.685062	0.091085
O20	O	0.601623	0.696741	0.168442
C21	C	0.499455	0.685775	0.091089
C22	C	0.455587	0.671972	0.000136
C23	C	0.427248	0.643648	-0.181763
C24	C	0.367853	0.644366	-0.181757
C25	C	0.352326	0.658887	-0.090805
C26	C	0.396193	0.672690	0.000141
C27	C	0.483925	0.700292	0.182047
C28	C	0.424521	0.701003	0.182044
C29	C	0.380653	0.687200	0.091090
C30	C	0.321271	0.687930	0.091099
N31	N	0.277400	0.674121	0.000151
C32	C	0.292927	0.659600	-0.090801
C33	C	0.683593	0.683563	0.091069
C34	C	0.742991	0.682855	0.091066
C35	C	0.714646	0.654525	-0.090841
C36	C	0.655248	0.655238	-0.090837
C37	C	0.639722	0.669755	0.000121
C38	C	0.168196	0.661110	-0.090782
C39	C	0.108798	0.661832	-0.090768
C40	C	0.137147	0.690159	0.091139
C41	C	0.196540	0.689440	0.091125
C42	C	0.212062	0.674913	0.000157
O43	O	0.302553	0.700357	0.168408
O44	O	0.250151	0.647916	-0.168145
C45	C	-0.069352	0.776487	0.000173
C46	C	-0.070116	0.839705	0.000183
C47	C	0.821741	0.667567	0.000122
C48	C	0.758523	0.668330	0.000113
C49	C	-0.088969	1.217550	-0.090821
C50	C	-0.089680	1.276950	-0.090827
O51	O	-0.102071	1.295626	-0.168176
N52	N	-0.075879	1.320824	0.000120
C53	C	-0.061360	1.305297	0.091079
O54	O	-0.049686	1.348070	0.168436
C55	C	-0.060645	1.245899	0.091084
C56	C	-0.074453	1.202027	0.000131
C57	C	-0.102775	1.173679	-0.181767
C58	C	-0.102065	1.114284	-0.181761
C59	C	-0.087549	1.098760	-0.090809
C60	C	-0.073742	1.142631	0.000137
C61	C	-0.046121	1.230374	0.182042
C62	C	-0.045407	1.170971	0.182039
C63	C	-0.059215	1.127099	0.091086
C64	C	-0.058516	1.067712	0.091096
N65	N	-0.072317	1.023838	0.000148
C66	C	-0.086833	1.039362	-0.090804
C67	C	-0.062862	1.430036	0.091062
C68	C	-0.063581	1.489432	0.091058
C69	C	-0.091901	1.461081	-0.090849
C70	C	-0.091185	1.401683	-0.090844
C71	C	-0.076663	1.386162	0.000115
C72	C	-0.085341	0.914629	-0.090784
C73	C	-0.084632	0.855229	-0.090770
C74	C	-0.056310	0.883586	0.091137
C75	C	-0.057022	0.942980	0.091123
C76	C	-0.071537	0.958499	0.000155
O77	O	-0.046129	1.048992	0.168404
O78	O	-0.098498	0.996585	-0.168148
N79	N	-0.037137	0.709315	0.237589
N80	N	-0.111068	0.635358	-0.237292
C81	C	-0.174525	0.571847	0.605169
C82	C	-0.158162	0.588226	0.710199
C83	C	-0.080316	0.666128	0.710199
C84	C	-0.096671	0.649754	0.605167
C85	C	-0.143777	0.602614	0.552660
C86	C	-0.065923	0.680520	0.552659
C87	C	-0.082279	0.664150	0.447636
C88	C	-0.129383	0.617013	0.395122
C89	C	-0.160133	0.586243	0.447638
C90	C	-0.018820	0.727663	0.605168
C91	C	0.011928	0.758429	0.552659
C92	C	-0.004425	0.742056	0.447634
C93	C	-0.051530	0.694919	0.395120
C94	C	0.026324	0.772826	0.395119
C95	C	0.009968	0.756455	0.290096
C96	C	-0.067886	0.678549	0.290097
H97	H	0.073081	0.650593	-0.164836
Br98	Br	-0.109925	1.342147	-0.214284
H99	H	0.670958	0.695387	0.165143
H100	H	-0.045790	0.978702	0.165185
H101	H	-0.113306	1.078567	-0.255825
H102	H	-0.052346	1.525149	0.165122
H103	H	-0.212879	0.533457	0.562416
H104	H	0.332139	0.633124	-0.255821
H105	H	0.232261	0.700685	0.165187
H106	H	-0.183206	0.563168	0.752946
Br107	Br	-0.016392	0.730104	0.781465
H108	H	-0.198487	0.547853	0.404884
Br109	Br	-0.036613	0.862505	0.214566
Br110	Br	0.595718	0.636504	-0.214278
Br111	Br	-0.103376	0.795689	-0.214215
H112	H	-0.106239	0.640158	0.247344
Br113	Br	0.116062	0.709867	0.214567
Br114	Br	-0.111605	1.482159	-0.214285
H115	H	-0.005507	0.740992	0.690684
H116	H	0.411884	0.712816	0.256115
Br117	Br	0.802521	0.701602	0.214508
Br118	Br	-0.151586	0.594798	0.252589
Br119	Br	0.189251	0.641394	-0.214239
Br120	Br	-0.043158	1.408978	0.214518
Br121	Br	0.735730	0.634814	-0.214278
H122	H	0.050281	0.796813	0.595422
H123	H	-0.034876	1.266087	0.256106
H124	H	0.064674	0.811211	0.437883
H125	H	-0.097162	0.927256	-0.164859
H126	H	0.439881	0.631821	-0.255831
Br127	Br	0.543446	0.719024	0.305492
Br128	Br	-0.025692	1.149912	0.305490
H129	H	-0.114595	1.186310	-0.255836
Br130	Br	0.051697	0.798214	0.218831
