data_functionalizedCrystal
_audit_creation_method	'MofGen! by Chris Wilmer'
_symmetry_space_group_name_H-M	'P1'
_symmetry_Int_Tables_number	1
_symmetry_cell_setting	triclinic
loop_
_symmetry_equiv_pos_as_xyz
  x,y,z
_cell_length_a	10.489741
_cell_length_b	10.489711
_cell_length_c	13.330367
_cell_angle_alpha	89.990913
_cell_angle_beta	89.995673
_cell_angle_gamma	84.533091
loop_
_atom_site_label
_atom_site_type_symbol
_atom_site_fract_x
_atom_site_fract_y
_atom_site_fract_z
O1	O	0.179786	1.694081	-0.083459
O2	O	0.196719	1.322881	-0.083453
O3	O	0.002654	1.516928	-0.083450
O4	O	0.373851	1.500035	-0.083462
O5	O	0.002649	1.516899	0.083397
O6	O	0.196714	1.322853	0.083394
O7	O	0.179782	1.694053	0.083388
Cu8	Cu	0.188248	1.508450	0.098625
Cu9	Cu	0.188253	1.508484	-0.098691
O10	O	0.373847	1.500006	0.083385
C11	C	0.195446	1.275334	-0.000029
C12	C	0.191644	1.133703	-0.000026
C13	C	0.308348	0.951317	-0.000042
C14	C	0.250055	1.043476	-0.082303
C15	C	0.250019	1.043421	0.082196
C16	C	0.126512	0.973525	-0.082377
C17	C	0.126494	0.973461	0.082195
C18	C	0.068111	1.065593	-0.000086
C19	C	-0.044880	1.515638	-0.000027
C20	C	-0.186509	1.511820	-0.000029
C21	C	-0.254636	1.388354	-0.000034
C22	C	-0.346767	1.446664	0.082229
C23	C	-0.346737	1.446722	-0.082269
C24	C	-0.276775	1.570181	0.082302
C25	C	-0.276735	1.570222	-0.082270
C26	C	-0.368839	1.628622	0.000013
C27	C	0.421381	1.501296	-0.000040
C28	C	0.563010	1.505114	-0.000045
C29	C	0.181055	1.741600	-0.000039
C30	C	0.184857	1.883231	-0.000048
N31	N	0.188243	1.508436	0.237407
N32	N	0.188248	1.508508	-0.237472
C33	C	0.274151	1.422556	0.710028
C34	C	0.102346	1.594446	0.709999
C35	C	0.102341	1.594432	0.604981
C36	C	0.188245	1.508479	0.552481
C37	C	0.274152	1.422541	0.605000
C38	C	0.016444	1.680377	0.552454
C39	C	0.016438	1.680367	0.447429
C40	C	0.102336	1.594407	0.394928
C41	C	0.188246	1.508465	0.447453
C42	C	0.274149	1.422512	0.394954
C43	C	0.360054	1.336563	0.447478
C44	C	0.360050	1.336582	0.552499
C45	C	0.102340	1.594388	0.289906
C46	C	0.274150	1.422498	0.289926
H47	H	0.074283	0.942426	0.151748
H48	H	-0.377693	1.394477	-0.151823
C49	C	0.320633	1.085222	0.176152
N50	N	0.373826	1.116699	0.246916
H51	H	-0.245694	1.622430	-0.151823
H52	H	-0.053511	1.750350	0.404671
C53	C	0.454530	1.242039	0.610283
N54	N	0.525691	1.170830	0.653810
C55	C	0.368633	1.328007	0.767804
N56	N	0.439795	1.256790	0.811323
C57	C	0.007858	1.688989	0.767752
N58	N	-0.063317	1.760199	0.811255
H59	H	0.302313	1.074483	-0.151849
H60	H	-0.204974	1.286841	0.000050
C61	C	0.368686	1.327974	0.232185
N62	N	0.439903	1.256791	0.188695
H63	H	0.032403	1.664373	0.247146
H64	H	-0.053489	1.750363	0.595202
H65	H	0.074311	0.942728	-0.152004
H66	H	0.409850	0.901626	-0.000127
H67	H	-0.377775	1.394411	0.151778
C68	C	-0.069134	1.132422	-0.000140
N69	N	-0.172505	1.182760	-0.000186
H70	H	-0.245950	1.622366	0.151927
H71	H	-0.418274	1.730226	0.000057
C72	C	0.454546	1.242019	0.389715
N73	N	0.525714	1.170810	0.346204
