data_functionalizedCrystal
_audit_creation_method	'MofGen! by Chris Wilmer'
_symmetry_space_group_name_H-M	'P1'
_symmetry_Int_Tables_number	1
_symmetry_cell_setting	triclinic
loop_
_symmetry_equiv_pos_as_xyz
  x,y,z
_cell_length_a	19.077105
_cell_length_b	12.759399
_cell_length_c	19.076919
_cell_angle_alpha	87.725577
_cell_angle_beta	89.923776
_cell_angle_gamma	87.711582
loop_
_atom_site_label
_atom_site_type_symbol
_atom_site_fract_x
_atom_site_fract_y
_atom_site_fract_z
Zn1	Zn	1.058325	-0.508276	0.440434
Zn2	Zn	1.062983	-0.677203	0.322932
Zn3	Zn	0.945542	-0.494201	0.318226
Zn4	Zn	0.940805	-0.676569	0.435685
O5	O	1.001914	-0.589062	0.379319
O6	O	1.157276	-0.536839	0.428803
O7	O	1.051336	-0.647302	0.223976
O8	O	0.960535	-0.349050	0.334456
O9	O	1.160698	-0.660949	0.342476
O10	O	1.043397	-0.359391	0.424241
O11	O	0.965052	-0.512852	0.220519
O12	O	0.846581	-0.512237	0.329851
O13	O	0.952463	-0.659869	0.534646
O14	O	0.843101	-0.646222	0.416147
O15	O	1.038804	-0.536225	0.538135
O16	O	1.046743	-0.824136	0.337871
O17	O	0.956979	-0.823671	0.420709
C18	C	0.819344	-0.577635	0.371973
C19	C	0.741240	-0.572772	0.368847
C20	C	0.702755	-0.640344	0.412238
C21	C	0.629367	-0.635761	0.409304
C22	C	0.594465	-0.563611	0.362976
C23	C	0.632955	-0.496033	0.319583
C24	C	0.706341	-0.500611	0.322521
C25	C	0.375176	-0.542424	0.349382
C26	C	0.301784	-0.537853	0.346446
C27	C	0.298202	-0.677580	0.436168
C28	C	0.371590	-0.682156	0.439099
C29	C	0.410073	-0.614574	0.395709
N30	N	0.519451	-0.558928	0.359974
N31	N	0.485085	-0.619253	0.398715
C32	C	1.001871	-0.862026	0.379301
C33	C	1.001917	-0.978806	0.379320
C34	C	1.048706	-1.033882	0.336239
C35	C	1.048750	-1.143610	0.336264
C36	C	0.955209	-1.143177	0.422453
C37	C	0.955169	-1.033451	0.422431
C38	C	1.132698	-1.297227	0.314590
C39	C	1.179482	-1.352305	0.271497
C40	C	1.193053	-1.313482	0.203371
C41	C	1.159831	-1.219581	0.178322
C42	C	1.113042	-1.164508	0.221411
C43	C	1.099484	-1.203331	0.289547
C44	C	0.871220	-0.879832	0.444098
C45	C	0.824428	-0.824756	0.487184
C46	C	0.810849	-0.863577	0.555311
C47	C	0.844059	-0.957481	0.580357
C48	C	0.890852	-1.012557	0.537271
C49	C	0.904431	-0.973728	0.469145
C50	C	1.185196	-0.600535	0.386694
C51	C	1.263300	-0.605424	0.389837
C52	C	0.994585	-0.599547	0.562600
C53	C	0.991463	-0.604014	0.640703
C54	C	1.001975	-0.315035	0.379353
C55	C	1.002001	-0.198260	0.379367
C56	C	1.009254	-0.578545	0.196753
C57	C	1.012513	-0.573790	0.118656
C58	C	1.034947	-0.541741	0.679214
C59	C	1.032004	-0.545935	0.752599
C60	C	0.985580	-0.612408	0.787473
C61	C	0.942091	-0.674683	0.748957
C62	C	0.945031	-0.670483	0.675573
C63	C	0.971964	-0.631866	1.006755
C64	C	0.969029	-0.636063	1.080145
C65	C	1.058941	-0.507313	1.083782
C66	C	1.061880	-0.503124	1.010396
C67	C	1.018388	-0.565395	0.971886
N68	N	0.982572	-0.616698	0.862486
N69	N	1.021393	-0.561098	0.896875
H70	H	0.266861	-0.732600	0.471495
H71	H	0.936561	-0.682587	0.975410
H72	H	1.121659	-1.328840	0.370066
O73	O	0.412583	-0.476682	0.307334
C74	C	0.453459	-0.413875	0.349117
H75	H	0.429142	-0.409298	0.403582
H76	H	0.508978	-0.449969	0.353728
C77	C	0.485829	-0.308313	0.248061
C78	C	0.455959	-0.302685	0.314955
H79	H	0.487374	-0.239727	0.226988
H80	H	0.458292	-0.350630	0.219910
H81	H	0.532092	-0.338396	0.251913
H82	H	0.409694	-0.272615	0.311101
H83	H	0.483488	-0.260361	0.343104
H84	H	0.917148	-1.187682	0.457552
O85	O	0.599023	-0.426087	0.274507
C86	C	0.558359	-0.480543	0.227363
H87	H	0.580641	-0.564403	0.223807
H88	H	0.501877	-0.481990	0.246860
C89	C	0.532771	-0.321793	0.158698
C90	C	0.560142	-0.424789	0.154326
H91	H	0.533868	-0.287399	0.113646
H92	H	0.560165	-0.285103	0.190461
H93	H	0.485705	-0.323013	0.174949
H94	H	0.607209	-0.423567	0.138084
H95	H	0.532756	-0.461477	0.122559
H96	H	1.231146	-1.358334	0.168285
H97	H	0.931223	-0.690195	1.108537
O98	O	1.074318	-0.485411	0.789903
C99	C	1.115914	-0.425828	0.743385
H100	H	1.120430	-0.466022	0.691167
H101	H	1.090517	-0.343976	0.734552
C102	C	1.184011	-0.367649	0.839178
C103	C	1.189563	-0.417020	0.775044
H104	H	1.229440	-0.362210	0.858707
H105	H	1.155985	-0.407788	0.870518
H106	H	1.162844	-0.299444	0.831808
H107	H	1.210721	-0.485228	0.782416
H108	H	1.217594	-0.376892	0.743706
H109	H	0.273369	-0.479088	0.308725
O110	O	0.897055	-0.739230	0.782943
C111	C	0.903772	-0.729567	0.855972
H112	H	0.957608	-0.699131	0.868186
H113	H	0.861271	-0.672200	0.875126
C114	C	0.829675	-0.875002	0.878373
C115	C	0.895800	-0.837628	0.893374
H116	H	0.824754	-0.941658	0.901445
H117	H	0.825147	-0.881510	0.829172
H118	H	0.794266	-0.827187	0.894334
H119	H	0.931207	-0.885436	0.877405
H120	H	0.900333	-0.831131	0.942574
O121	O	0.592092	-0.701519	0.451472
C122	C	0.638634	-0.766173	0.492997
H123	H	0.692092	-0.771346	0.466306
H124	H	0.644316	-0.731386	0.546728
C125	C	0.543927	-0.870451	0.534613
C126	C	0.609583	-0.876811	0.501828
H127	H	0.526007	-0.938697	0.540064
H128	H	0.512570	-0.826891	0.506639
H129	H	0.548671	-0.841457	0.579386
H130	H	0.604837	-0.905792	0.457053
H131	H	0.640939	-0.920380	0.529795
H132	H	0.797391	-0.748290	0.466787
O133	O	0.743621	-0.434934	0.280297
C134	C	0.697081	-0.370255	0.238786
H135	H	0.644861	-0.409876	0.234211
H136	H	0.688261	-0.291512	0.264297
C137	C	0.792836	-0.303791	0.170783
C138	C	0.728700	-0.352457	0.165158
H139	H	0.812340	-0.292807	0.125366
H140	H	0.824192	-0.347363	0.198750
H141	H	0.785477	-0.238177	0.192044
H142	H	0.736061	-0.418076	0.143905
H143	H	0.697346	-0.308896	0.137185
O144	O	1.106992	-0.438457	0.976631
C145	C	1.144755	-0.384410	1.026359
H146	H	1.113879	-0.381961	1.077511
H147	H	1.197801	-0.426671	1.036310
C148	C	1.193978	-0.274599	0.935315
C149	C	1.156053	-0.271583	0.998138
H150	H	1.200951	-0.205004	0.917906
H151	H	1.168539	-0.311013	0.901811
H152	H	1.238179	-0.309822	0.943616
H153	H	1.111850	-0.236373	0.989835
H154	H	1.181486	-0.235160	1.031640
H155	H	0.731167	-0.699099	0.449961
H156	H	1.086771	-0.989393	0.301136
H157	H	0.833003	-0.989090	0.635832
O158	O	0.765409	-0.810212	0.597255
C159	C	0.760577	-0.864591	0.662769
H160	H	0.776396	-0.950856	0.656687
H161	H	0.797128	-0.829168	0.701853
C162	C	0.665126	-0.749361	0.697223
C163	C	0.684550	-0.855315	0.689752
H164	H	0.618230	-0.743636	0.713869
H165	H	0.668383	-0.712722	0.653086
H166	H	0.695591	-0.719854	0.729791
H167	H	0.654091	-0.884817	0.657177
H168	H	0.681287	-0.891959	0.733884
H169	H	1.094348	-0.456614	1.115144
H170	H	0.909615	-0.721182	0.644218
H171	H	0.882278	-0.848209	0.388625
H172	H	0.917895	-1.089016	0.557671
O173	O	1.079948	-0.477103	0.645260
C174	C	1.041653	-0.404297	0.601223
H175	H	0.988835	-0.437392	0.588074
H176	H	1.032812	-0.327579	0.629207
C177	C	1.147984	-0.343047	0.549227
C178	C	1.083115	-0.383699	0.533073
H179	H	1.173560	-0.330336	0.507190
H180	H	1.173785	-0.392094	0.578897
H181	H	1.140608	-0.279119	0.572548
H182	H	1.090492	-0.447631	0.509760
H183	H	1.057317	-0.334661	0.503397
O184	O	1.080744	-1.073381	0.196977
C185	C	1.040544	-1.092808	0.137246
H186	H	1.062088	-1.167115	0.112245
H187	H	0.983618	-1.103457	0.153344
C188	C	1.017967	-0.908002	0.114734
C189	C	1.044431	-0.999263	0.084024
H190	H	1.020361	-0.850298	0.081905
H191	H	1.045048	-0.894913	0.154977
H192	H	0.970531	-0.916891	0.128147
H193	H	1.091868	-0.990378	0.070619
H194	H	1.017358	-1.012348	0.043777
H195	H	1.170879	-1.187984	0.122844
O196	O	0.405380	-0.752273	0.484165
C197	C	0.355676	-0.810952	0.521821
H198	H	0.303271	-0.764804	0.522214
H199	H	0.348886	-0.888717	0.495681
C200	C	0.445709	-0.889019	0.597253
C201	C	0.381346	-0.832336	0.597741
H202	H	0.461544	-0.902215	0.644083
H203	H	0.479197	-0.849490	0.571882
H204	H	0.440042	-0.953817	0.575466
H205	H	0.387015	-0.767534	0.619519
H206	H	0.347859	-0.871855	0.623117
H207	H	1.206531	-1.428760	0.291899
