data_functionalizedCrystal
_audit_creation_method	'MofGen! by Chris Wilmer'
_symmetry_space_group_name_H-M	'P1'
_symmetry_Int_Tables_number	1
_symmetry_cell_setting	triclinic
loop_
_symmetry_equiv_pos_as_xyz
  x,y,z
_cell_length_a	15.944551
_cell_length_b	16.109301
_cell_length_c	14.586319
_cell_angle_alpha	90.000846
_cell_angle_beta	89.999016
_cell_angle_gamma	96.519891
loop_
_atom_site_label
_atom_site_type_symbol
_atom_site_fract_x
_atom_site_fract_y
_atom_site_fract_z
O1	O	-1.114488	0.107227	-0.076135
O2	O	-0.781154	0.440560	0.257198
O3	O	-0.447821	0.773894	0.590532
O4	O	-0.869934	0.120447	-0.076157
O5	O	-0.536600	0.453781	0.257177
O6	O	-0.203267	0.787114	0.590510
O7	O	-0.998929	-0.007192	-0.076150
O8	O	-0.665595	0.326142	0.257183
O9	O	-0.332262	0.659475	0.590517
O10	O	-0.985492	0.234866	-0.076142
O11	O	-0.652159	0.568199	0.257192
O12	O	-0.318826	0.901533	0.590525
O13	O	-0.998920	-0.007194	0.076331
O14	O	-0.665586	0.326140	0.409664
O15	O	-0.332253	0.659473	0.742997
O16	O	-0.869925	0.120445	0.076324
O17	O	-0.536591	0.453779	0.409657
O18	O	-0.203258	0.787112	0.742991
O19	O	-1.114479	0.107225	0.076346
O20	O	-0.781145	0.440559	0.409679
O21	O	-0.447812	0.773892	0.743012
Cu22	Cu	-0.992201	0.113835	0.090258
Cu23	Cu	-0.658868	0.447168	0.423591
Cu24	Cu	-0.325534	0.780502	0.756924
Cu25	Cu	-0.992211	0.113837	-0.090069
Cu26	Cu	-0.658878	0.447171	0.243265
Cu27	Cu	-0.325545	0.780504	0.576598
O28	O	-0.985484	0.234864	0.076339
O29	O	-0.652150	0.568197	0.409672
O30	O	-0.318817	0.901531	0.743006
C31	C	-0.838635	0.119897	0.000081
C32	C	-0.505302	0.453231	0.333414
C33	C	-0.171969	0.786564	0.666747
C34	C	-0.745390	0.118252	0.000072
C35	C	-0.412057	0.451585	0.333405
C36	C	-0.078723	0.784919	0.666739
C37	C	-0.998380	-0.038168	0.000087
C38	C	-0.665047	0.295166	0.333420
C39	C	-0.331713	0.628499	0.666754
C40	C	-0.996748	-0.130464	0.000077
C41	C	-0.663415	0.202870	0.333411
C42	C	-0.330082	0.536203	0.666744
C43	C	-1.145777	0.107775	0.000106
C44	C	-0.812444	0.441108	0.333439
C45	C	-0.479110	0.774442	0.666773
C46	C	-1.239022	0.109420	0.000109
C47	C	-0.905689	0.442754	0.333442
C48	C	-0.572356	0.776087	0.666776
C49	C	-0.530561	0.035203	0.000087
C50	C	-0.197227	0.368536	0.333420
C51	C	0.136106	0.701869	0.666754
C52	C	-0.469532	0.073769	-0.075093
C53	C	-0.136199	0.407102	0.258240
C54	C	0.197134	0.740436	0.591574
C55	C	-0.574665	0.115275	0.000083
C56	C	-0.241332	0.448609	0.333416
C57	C	0.092002	0.781942	0.666749
C58	C	-0.469546	0.073786	0.075241
C59	C	-0.136212	0.407119	0.408575
C60	C	0.197121	0.740453	0.741908
C61	C	-0.409753	0.112394	0.000097
C62	C	-0.076420	0.445728	0.333430
C63	C	0.256913	0.779061	0.666764
C64	C	-0.514865	0.153864	-0.075159
C65	C	-0.181531	0.487197	0.258174
C66	C	0.151802	0.820530	0.591508
C67	C	-0.514884	0.153870	0.075243
C68	C	-0.181551	0.487203	0.408576
C69	C	0.151782	0.820536	0.741909
C70	C	-0.453874	0.192494	0.000044
C71	C	-0.120540	0.525827	0.333378
C72	C	0.212793	0.859161	0.666711
C73	C	-0.669667	0.116933	0.000074
C74	C	-0.336333	0.450266	0.333407
C75	C	-0.003000	0.783600	0.666740
C76	C	-0.314753	0.110743	0.000100
C77	C	0.018581	0.444076	0.333433
C78	C	0.351914	0.777410	0.666766
C79	C	-0.986032	0.265840	0.000100
C80	C	-0.652699	0.599173	0.333433
C81	C	-0.319366	0.932507	0.666766
C82	C	-0.987664	0.358136	0.000103
C83	C	-0.654331	0.691469	0.333437
C84	C	-0.320997	1.024803	0.666770
N85	N	-0.992200	0.113833	0.217089
N86	N	-0.658866	0.447166	0.550423
N87	N	-0.325533	0.780500	0.883756
C88	C	-0.914915	0.580385	0.000084
C89	C	-0.581582	0.913718	0.333417
C90	C	-0.248248	1.247051	0.666750
C91	C	-0.916455	0.667106	0.000077
C92	C	-0.583121	1.000439	0.333410
C93	C	-0.249788	1.333772	0.666743
C94	C	-1.069503	0.647281	0.000094
C95	C	-0.736170	0.980614	0.333428
C96	C	-0.402836	1.313948	0.666761
C97	C	-1.067962	0.560562	0.000095
C98	C	-0.734629	0.893895	0.333428
C99	C	-0.401296	1.227228	0.666761
C100	C	-0.990666	0.527116	0.000094
C101	C	-0.657333	0.860449	0.333427
C102	C	-0.323999	1.193783	0.666761
C103	C	-0.993746	0.700556	0.000087
C104	C	-0.660413	1.033890	0.333420
C105	C	-0.327080	1.367223	0.666754
C106	C	-0.995416	0.794583	0.000080
C107	C	-0.662083	1.127916	0.333413
C108	C	-0.328750	1.461249	0.666746
C109	C	-0.988995	0.433084	0.000100
C110	C	-0.655662	0.766417	0.333433
C111	C	-0.322329	1.099750	0.666766
N112	N	-0.992219	0.113833	-0.216900
N113	N	-0.658886	0.447166	0.116433
N114	N	-0.325553	0.780499	0.449766
C115	C	-1.049337	0.057333	0.452099
C116	C	-0.716004	0.390667	0.785432
C117	C	-0.382671	0.724000	1.118765
C118	C	-1.049340	0.057331	0.548080
C119	C	-0.716007	0.390665	0.881413
C120	C	-0.382673	0.723998	1.214747
C121	C	-0.935075	0.170335	0.548083
C122	C	-0.601742	0.503668	0.881417
C123	C	-0.268409	0.837002	1.214750
C124	C	-0.935070	0.170332	0.452104
C125	C	-0.601736	0.503666	0.785437
C126	C	-0.268403	0.836999	1.118771
C127	C	-0.992205	0.113833	0.404114
C128	C	-0.658872	0.447166	0.737447
C129	C	-0.325539	0.780499	1.070781
C130	C	-0.992214	0.113833	0.596075
C131	C	-0.658880	0.447167	0.929408
C132	C	-0.325547	0.780500	1.262741
C133	C	-0.992216	0.113831	0.700142
C134	C	-0.658882	0.447165	1.033475
C135	C	-0.325549	0.780498	1.366809
C136	C	-0.992202	0.113833	0.300040
C137	C	-0.658869	0.447166	0.633374
C138	C	-0.325536	0.780500	0.966707
H139	H	-0.563915	-0.031251	-0.000008
H140	H	-0.230582	0.302082	0.333325
H141	H	0.102751	0.635416	0.666658
H142	H	-0.449437	0.039902	-0.138654
H143	H	-0.116104	0.373236	0.194679
H144	H	0.217230	0.706569	0.528012
H145	H	-0.535001	0.187708	0.138807
H146	H	-0.201668	0.521042	0.472140
H147	H	0.131666	0.854375	0.805474
F148	F	-0.874256	0.230466	0.401031
F149	F	-0.540922	0.563800	0.734364
F150	F	-0.207589	0.897133	1.067698
F151	F	-0.443302	0.029501	0.158315
F152	F	-0.109969	0.362834	0.491649
F153	F	0.223364	0.696167	0.824982
F154	F	-0.835830	0.723795	0.000062
F155	F	-0.502497	1.057128	0.333395
F156	F	-0.169163	1.390462	0.666728
H157	H	-0.534845	0.187707	-0.138787
H158	H	-0.201512	0.521040	0.194546
H159	H	0.131822	0.854373	0.527880
F160	F	-0.410501	0.279442	-0.000005
F161	F	-0.077168	0.612776	0.333328
F162	F	0.256165	0.946109	0.666661
H163	H	-0.851975	0.553157	0.000086
H164	H	-0.518642	0.886490	0.333419
H165	H	-0.185309	1.219823	0.666753
H166	H	-0.888558	0.216337	0.587166
H167	H	-0.555224	0.549670	0.920500
H168	H	-0.221891	0.883004	1.253833
H169	H	-1.132435	0.674523	0.000104
H170	H	-0.799102	1.007856	0.333438
H171	H	-0.465769	1.341190	0.666771
F172	F	-1.148591	0.503865	0.000101
F173	F	-0.815258	0.837199	0.333434
F174	F	-0.481925	1.170532	0.666768
H175	H	-1.095861	0.011324	0.587146
H176	H	-0.762528	0.344657	0.920480
H177	H	-0.429194	0.677990	1.253813
F178	F	-1.110144	-0.002801	0.401028
F179	F	-0.776811	0.330532	0.734361
F180	F	-0.443478	0.663866	1.067695
