data_functionalizedCrystal
_audit_creation_method	'MofGen! by Chris Wilmer'
_symmetry_space_group_name_H-M	'P1'
_symmetry_Int_Tables_number	1
_symmetry_cell_setting	triclinic
loop_
_symmetry_equiv_pos_as_xyz
  x,y,z
_cell_length_a	21.395362
_cell_length_b	21.395361
_cell_length_c	21.395355
_cell_angle_alpha	90.019049
_cell_angle_beta	89.956060
_cell_angle_gamma	89.953589
loop_
_atom_site_label
_atom_site_type_symbol
_atom_site_fract_x
_atom_site_fract_y
_atom_site_fract_z
Zn1	Zn	0.957860	0.249246	-0.354583
Zn2	Zn	1.457860	0.749246	0.145417
Zn3	Zn	0.957763	0.354005	-0.249805
Zn4	Zn	1.457763	0.854005	0.250195
Zn5	Zn	0.853075	0.249275	-0.249785
Zn6	Zn	1.353075	0.749275	0.250215
Zn7	Zn	0.853045	0.354018	-0.354510
Zn8	Zn	1.353045	0.854018	0.145490
O9	O	0.905436	0.301636	-0.302171
O10	O	1.405436	0.801636	0.197829
O11	O	1.045525	0.263125	-0.340724
O12	O	1.545525	0.763125	0.159276
O13	O	0.943848	0.340119	-0.162124
O14	O	1.443848	0.840119	0.337876
O15	O	0.867029	0.161593	-0.263709
O16	O	1.367029	0.661593	0.236291
O17	O	1.045454	0.340091	-0.263743
O18	O	1.545454	0.840091	0.236257
O19	O	0.944014	0.161572	-0.340704
O20	O	1.444014	0.661572	0.159296
O21	O	0.866934	0.263174	-0.162109
O22	O	1.366934	0.763174	0.337891
O23	O	0.765393	0.263187	-0.263637
O24	O	1.265393	0.763187	0.236363
O25	O	0.866977	0.340113	-0.442197
O26	O	1.366977	0.840113	0.057803
O27	O	0.765371	0.340141	-0.340578
O28	O	1.265371	0.840141	0.159422
O29	O	0.943984	0.263137	-0.442251
O30	O	1.443984	0.763137	0.057749
O31	O	0.943819	0.441685	-0.263672
O32	O	1.443819	0.941685	0.236328
O33	O	0.866882	0.441695	-0.340598
O34	O	1.366882	0.941695	0.159402
C35	C	0.742648	0.301669	-0.302098
C36	C	1.242648	0.801669	0.197902
C37	C	0.673007	0.301698	-0.302082
C38	C	1.173007	0.801698	0.197918
C39	C	0.905354	0.464424	-0.302143
C40	C	1.405354	0.964424	0.197857
C41	C	0.905376	0.534065	-0.302152
C42	C	1.405376	1.034065	0.197848
C43	C	0.640298	0.341822	-0.342085
C44	C	1.140298	0.841822	0.157915
C45	C	0.574863	0.341806	-0.342113
C46	C	1.074863	0.841806	0.157887
C47	C	0.542139	0.301674	-0.302126
C48	C	1.042139	0.801674	0.197874
C49	C	0.574855	0.261543	-0.262120
C50	C	1.074855	0.761543	0.237880
C51	C	0.640289	0.261555	-0.262098
C52	C	1.140289	0.761555	0.237902
C53	C	0.438414	0.296627	-0.245721
C54	C	0.938414	0.796627	0.254279
C55	C	0.372981	0.296619	-0.245742
C56	C	0.872981	0.796619	0.254258
C57	C	0.340318	0.301633	-0.302195
C58	C	0.840318	0.801633	0.197805
C59	C	0.373096	0.306668	-0.358629
C60	C	0.873096	0.806668	0.141371
C61	C	0.438530	0.306681	-0.358607
C62	C	0.938530	0.806681	0.141393
C63	C	0.471186	0.301656	-0.302146
C64	C	0.971186	0.801656	0.197854
C65	C	0.236657	0.341742	-0.342232
C66	C	0.736657	0.841742	0.157768
C67	C	0.171220	0.341723	-0.342261
C68	C	0.671220	0.841723	0.157739
C69	C	0.171213	0.261462	-0.262263
C70	C	0.671213	0.761462	0.237737
C71	C	0.236649	0.261479	-0.262240
C72	C	0.736649	0.761479	0.237760
C73	C	0.269367	0.301622	-0.302223
C74	C	0.769367	0.801622	0.197777
C75	C	0.945472	0.566752	-0.262139
C76	C	1.445472	1.066752	0.237861
C77	C	0.945501	0.632188	-0.262156
C78	C	1.445501	1.132188	0.237844
C79	C	0.905423	0.664933	-0.302179
C80	C	1.405423	1.164933	0.197821
C81	C	0.865324	0.632238	-0.342200
C82	C	1.365324	1.132238	0.157800
C83	C	0.865300	0.566804	-0.342186
C84	C	1.365300	1.066804	0.157814
C85	C	0.849009	0.768664	-0.307074
C86	C	1.349009	1.268664	0.192926
C87	C	0.849032	0.834097	-0.307083
C88	C	1.349032	1.334097	0.192917
C89	C	0.905497	0.866754	-0.302224
C90	C	1.405497	1.366754	0.197776
C91	C	0.961941	0.833970	-0.297343
C92	C	1.461941	1.333970	0.202657
C93	C	0.961917	0.768536	-0.297329
C94	C	1.461917	1.268536	0.202671
C95	C	0.905445	0.735886	-0.302198
C96	C	1.405445	1.235886	0.197802
C97	C	0.945628	0.970394	-0.262227
C98	C	1.445628	1.470394	0.237773
C99	C	0.945659	1.035830	-0.262249
C100	C	1.445659	1.535830	0.237751
C101	C	0.865476	1.035879	-0.342289
C102	C	1.365476	1.535879	0.157711
C103	C	0.865451	0.970444	-0.342271
C104	C	1.365451	1.470444	0.157729
C105	C	0.905526	0.937705	-0.302237
C106	C	1.405526	1.437705	0.197763
C107	C	1.068859	0.301603	-0.302244
C108	C	1.568859	0.801603	0.197756
C109	C	1.138500	0.301589	-0.302275
C110	C	1.638500	0.801589	0.197725
C111	C	0.905488	0.301623	-0.465594
C112	C	1.405488	0.801623	0.034406
C113	C	0.905510	0.301618	-0.535235
C114	C	1.405510	0.801618	-0.035235
C115	C	0.905536	1.138213	-0.302223
C116	C	1.405536	1.638213	0.197777
C117	C	0.905581	1.068571	-0.302273
C118	C	1.405581	1.568571	0.197727
C119	C	0.945606	0.261535	-0.567978
C120	C	1.445606	0.761535	-0.067978
C121	C	0.945605	0.261508	-0.633413
C122	C	1.445605	0.761508	-0.133413
C123	C	0.905515	0.301575	-0.666104
C124	C	1.405515	0.801575	-0.166104
C125	C	0.865411	0.341661	-0.633353
C126	C	1.365411	0.841661	-0.133353
C127	C	0.865409	0.341682	-0.567919
C128	C	1.365409	0.841682	-0.067919
C129	C	0.900539	0.357992	-0.769767
C130	C	1.400539	0.857992	-0.269767
C131	C	0.900546	0.357972	-0.835200
C132	C	1.400546	0.857972	-0.335200
C133	C	0.905519	0.301509	-0.867924
C134	C	1.405519	0.801509	-0.367924
C135	C	0.910498	0.245065	-0.835208
C136	C	1.410498	0.745065	-0.335208
C137	C	0.910495	0.245086	-0.769774
C138	C	1.410495	0.745086	-0.269774
C139	C	0.905513	0.301556	-0.737056
C140	C	1.405513	0.801556	-0.237056
C141	C	0.945616	0.261393	-0.971619
C142	C	1.445616	0.761393	-0.471619
C143	C	0.945611	0.261365	-1.037056
C144	C	1.445611	0.761365	-0.537056
C145	C	0.865420	0.341524	-1.036995
C146	C	1.365420	0.841524	-0.536995
C147	C	0.865422	0.341547	-0.971560
C148	C	1.365422	0.841547	-0.471560
C149	C	0.905523	0.301482	-0.938876
C150	C	1.405523	0.801482	-0.438876
C151	C	0.905420	0.301603	-0.139383
C152	C	1.405420	0.801603	0.360617
C153	C	0.905519	0.301432	-0.069742
C154	C	1.405519	0.801432	0.430258
H155	H	0.666933	0.374509	-0.374644
H156	H	1.166933	0.874509	0.125356
H157	H	0.832775	0.374190	-0.944901
H158	H	1.332775	0.874190	-0.444901
H159	H	0.914548	0.199088	-0.861851
H160	H	1.414548	0.699088	-0.361851
H161	H	0.978266	0.228767	-0.945007
H162	H	1.478266	0.728767	-0.445007
H163	H	0.978259	0.228910	-0.541370
H164	H	1.478259	0.728910	-0.041370
H165	H	0.803024	0.742081	-0.311033
H166	H	1.303024	1.242081	0.188967
Cl167	Cl	0.996003	0.211101	-0.674584
Cl168	Cl	1.496003	0.711101	-0.174584
Cl169	Cl	0.996075	1.076924	-0.211946
Cl170	Cl	1.496075	1.576924	0.288054
H171	H	0.263297	0.374426	-0.374793
H172	H	0.763297	0.874426	0.125207
Cl173	Cl	0.277770	0.211037	-0.211945
Cl174	Cl	0.777770	0.711037	0.288055
Cl175	Cl	0.894292	0.428929	-0.876322
Cl176	Cl	1.394292	0.928929	-0.376322
H177	H	0.144590	0.374395	-0.374841
H178	H	0.644590	0.874395	0.125159
Cl179	Cl	0.331781	0.290289	-0.174799
Cl180	Cl	0.831781	0.790289	0.325201
H181	H	0.832846	1.062540	-0.374880
H182	H	1.332846	1.562540	0.125120
H183	H	0.144570	0.228783	-0.229708
H184	H	0.644570	0.728783	0.270292
Cl185	Cl	0.996032	0.210980	-1.078219
Cl186	Cl	1.496032	0.710980	-0.578219
H187	H	0.465215	0.310779	-0.404557
H188	H	0.965215	0.810779	0.095443
Cl189	Cl	0.479469	0.290325	-0.174744
Cl190	Cl	0.979469	0.790325	0.325256
H191	H	0.803071	0.860785	-0.311052
H192	H	1.303071	1.360785	0.188948
Cl193	Cl	0.533717	0.211088	-0.211855
Cl194	Cl	1.033717	0.711088	0.288145
Cl195	Cl	0.814998	0.392078	-0.526755
Cl196	Cl	1.314998	0.892078	-0.026755
H197	H	0.978155	0.658807	-0.229572
H198	H	1.478155	1.158807	0.270428
H199	H	1.007876	0.741844	-0.293357
H200	H	1.507876	1.241844	0.206643
H201	H	0.666920	0.228880	-0.229522
H202	H	1.166920	0.728880	0.270478
Cl203	Cl	0.815009	0.392029	-0.674449
Cl204	Cl	1.315009	0.892029	-0.174449
Cl205	Cl	0.814943	0.673403	-0.392517
Cl206	Cl	1.314943	1.173403	0.107483
Cl207	Cl	0.995861	0.525598	-0.211819
Cl208	Cl	1.495861	1.025598	0.288181
Cl209	Cl	0.815038	0.929349	-0.392574
Cl210	Cl	1.315038	1.429349	0.107426
H211	H	0.978262	0.943737	-0.229631
H212	H	1.478262	1.443737	0.270369
Cl213	Cl	0.814889	0.525709	-0.392492
Cl214	Cl	1.314889	1.025709	0.107508
H215	H	0.896322	0.403959	-0.743128
H216	H	1.396322	0.903959	-0.243128
H217	H	0.914548	0.199128	-0.743139
H218	H	1.414548	0.699128	-0.243139
Cl219	Cl	0.332041	0.312969	-0.429604
Cl220	Cl	0.832041	0.812969	0.070396
Cl221	Cl	0.533735	0.392251	-0.392406
Cl222	Cl	1.033735	0.892251	0.107594
H223	H	0.832771	0.374141	-1.063611
H224	H	1.332771	0.874141	-0.563611
Cl225	Cl	1.032931	0.875017	-0.291227
Cl226	Cl	1.532931	1.375017	0.208773
