data_functionalizedCrystal
_audit_creation_method	'MofGen! by Chris Wilmer'
_symmetry_space_group_name_H-M	'P1'
_symmetry_Int_Tables_number	1
_symmetry_cell_setting	triclinic
loop_
_symmetry_equiv_pos_as_xyz
  x,y,z
_cell_length_a	9.065218
_cell_length_b	10.489741
_cell_length_c	8.140239
_cell_angle_alpha	89.996756
_cell_angle_beta	89.997198
_cell_angle_gamma	84.777530
loop_
_atom_site_label
_atom_site_type_symbol
_atom_site_fract_x
_atom_site_fract_y
_atom_site_fract_z
O1	O	1.959494	0.187043	-0.136617
O2	O	1.530135	0.202385	-0.136619
O3	O	1.754585	0.009151	-0.136608
O4	O	1.735045	0.380276	-0.136628
O5	O	1.754572	0.009149	0.136619
O6	O	1.530123	0.202383	0.136608
O7	O	1.959482	0.187040	0.136610
Zn8	Zn	1.744800	0.194711	0.179990
Zn9	Zn	1.744817	0.194714	-0.179999
O10	O	1.735032	0.380274	0.136599
C11	C	1.475149	0.200909	-0.000006
C12	C	1.311328	0.196501	-0.000006
C13	C	1.753102	-0.038387	0.000004
C14	C	1.748687	-0.180032	0.000001
C15	C	1.605877	-0.248688	-0.000011
C16	C	1.673333	-0.340568	0.134704
C17	C	1.673379	-0.340540	-0.134676
C18	C	1.816202	-0.270047	0.134828
C19	C	1.816228	-0.270009	-0.134673
C20	C	1.883788	-0.361862	0.000075
C21	C	2.014467	0.188516	-0.000007
C22	C	2.178289	0.192925	-0.000017
C23	C	1.736514	0.427812	-0.000017
C24	C	1.740930	0.569458	-0.000025
N25	N	1.744800	0.194708	0.425672
N26	N	1.744829	0.194707	-0.425681
H27	H	1.488459	-0.199461	0.000124
H28	H	2.001312	-0.410861	0.000150
O29	O	1.888066	-0.232525	-0.270590
C30	C	1.873509	-0.104649	-0.516967
C31	C	1.792007	-0.146976	-0.363072
H32	H	1.795872	-0.035497	-0.591800
H33	H	1.974767	-0.055043	-0.478250
H34	H	1.910206	-0.192159	-0.594846
H35	H	1.755212	-0.059535	-0.285126
H36	H	1.690817	-0.196627	-0.401904
O37	O	1.601010	-0.377752	0.270454
C38	C	1.372808	-0.361750	0.424002
C39	C	1.454537	-0.319568	0.270187
H40	H	1.254380	-0.314706	0.423855
H41	H	1.370966	-0.470273	0.423314
H42	H	1.432623	-0.331428	0.538782
H43	H	1.394787	-0.349802	0.155326
H44	H	1.456392	-0.211048	0.271020
O45	O	1.888314	-0.233241	0.270909
C46	C	2.016145	-0.299946	0.520309
C47	C	1.934548	-0.341810	0.366252
H48	H	2.053521	-0.387697	0.597455
H49	H	2.116951	-0.249640	0.481773
H50	H	1.938266	-0.231480	0.595811
H51	H	2.012309	-0.410316	0.290681
H52	H	1.833724	-0.392044	0.404901
O53	O	1.601479	-0.377931	-0.270600
C54	C	1.616690	-0.503826	-0.518628
C55	C	1.698294	-0.461615	-0.364757
H56	H	1.694938	-0.571469	-0.594815
H57	H	1.516673	-0.555101	-0.479859
H58	H	1.578065	-0.416069	-0.595184
H59	H	1.737016	-0.549303	-0.288133
H60	H	1.798242	-0.410295	-0.403639
