data_functionalizedCrystal
_audit_creation_method	'MofGen! by Chris Wilmer'
_symmetry_space_group_name_H-M	'P1'
_symmetry_Int_Tables_number	1
_symmetry_cell_setting	triclinic
loop_
_symmetry_equiv_pos_as_xyz
  x,y,z
_cell_length_a	10.654550
_cell_length_b	16.109301
_cell_length_c	9.130313
_cell_angle_alpha	89.994060
_cell_angle_beta	89.999724
_cell_angle_gamma	83.973206
loop_
_atom_site_label
_atom_site_type_symbol
_atom_site_fract_x
_atom_site_fract_y
_atom_site_fract_z
O1	O	1.666255	0.116774	-0.121695
O2	O	1.300626	0.127899	-0.121723
O3	O	1.493485	0.001365	-0.121693
O4	O	1.473396	0.243308	-0.121725
O5	O	1.493472	0.001362	0.121906
O6	O	1.300613	0.127896	0.121876
O7	O	1.666242	0.116770	0.121904
Cu8	Cu	1.483426	0.122333	0.144132
Cu9	Cu	1.483442	0.122337	-0.143951
O10	O	1.473383	0.243304	0.121874
C11	C	1.253832	0.127081	0.000073
C12	C	1.114422	0.124637	0.000063
C13	C	1.033926	0.199138	0.000058
C14	C	0.902936	0.196836	0.000084
C15	C	0.932952	0.045526	0.000114
C16	C	1.063939	0.047828	0.000099
C17	C	1.492664	-0.029616	0.000107
C18	C	1.490225	-0.121926	0.000109
C19	C	1.598991	-0.343552	0.000094
C20	C	1.596689	-0.430286	0.000081
C21	C	1.367868	-0.411772	0.000070
C22	C	1.370172	-0.325039	0.000072
C23	C	1.485737	-0.290932	0.000091
C24	C	1.481131	-0.464398	0.000077
C25	C	1.478634	-0.558439	0.000064
C26	C	1.488234	-0.196885	0.000101
C27	C	1.713036	0.117589	0.000104
C28	C	1.852446	0.120033	0.000105
C29	C	1.474203	0.274286	0.000071
C30	C	1.476643	0.366596	0.000059
N31	N	1.483424	0.122329	0.346755
N32	N	1.483453	0.122334	-0.346574
C33	C	1.568851	0.066324	0.423420
C34	C	1.568863	0.066324	0.576757
C35	C	1.398018	0.178342	0.576750
C36	C	1.398001	0.178337	0.423416
H37	H	0.837401	0.257503	0.000082
C38	C	1.662809	0.004719	0.339090
H39	H	1.650578	0.012742	0.236789
H40	H	1.649212	-0.050855	0.364233
H41	H	1.746616	0.014277	0.364211
C42	C	1.089460	0.283621	0.000031
H43	H	1.179001	0.274324	0.000008
H44	H	1.061835	0.314329	0.084976
H45	H	1.061818	0.314326	-0.084932
C46	C	0.877416	-0.038956	0.000135
H47	H	0.787876	-0.029658	0.000127
H48	H	0.905053	-0.069667	0.085084
H49	H	0.905045	-0.069659	-0.084824
H50	H	1.129483	-0.012843	0.000108
H51	H	1.693091	-0.315784	0.000106
C52	C	1.721269	-0.488164	0.000094
H53	H	1.790419	-0.455426	0.000116
H54	H	1.725136	-0.522378	-0.084855
H55	H	1.725119	-0.522388	0.085052
C56	C	1.240758	-0.449294	0.000069
H57	H	1.255604	-0.508485	0.000085
H58	H	1.194123	-0.431273	-0.084877
H59	H	1.194132	-0.431279	0.085030
C60	C	1.245586	-0.267154	0.000073
H61	H	1.176430	-0.299888	0.000083
H62	H	1.241732	-0.232929	-0.084874
H63	H	1.241731	-0.232942	0.085033
H64	H	1.638423	0.020718	0.639173
C65	C	1.304072	0.239954	0.661082
H66	H	1.316324	0.231943	0.763383
H67	H	1.220263	0.230410	0.635974
H68	H	1.317689	0.295527	0.635929
H69	H	1.328430	0.223944	0.360992
