data_functionalizedCrystal
_audit_creation_method	'MofGen! by Chris Wilmer'
_symmetry_space_group_name_H-M	'P1'
_symmetry_Int_Tables_number	1
_symmetry_cell_setting	triclinic
loop_
_symmetry_equiv_pos_as_xyz
  x,y,z
_cell_length_a	16.625545
_cell_length_b	16.625548
_cell_length_c	19.076919
_cell_angle_alpha	92.280941
_cell_angle_beta	92.272080
_cell_angle_gamma	90.026626
loop_
_atom_site_label
_atom_site_type_symbol
_atom_site_fract_x
_atom_site_fract_y
_atom_site_fract_z
Zn1	Zn	-0.339312	1.214317	-0.397955
Zn2	Zn	-0.468733	1.219639	-0.280262
Zn3	Zn	-0.333921	1.084904	-0.280274
Zn4	Zn	-0.474108	1.079444	-0.397918
O5	O	-0.404019	1.149576	-0.339102
O6	O	-0.356487	1.327855	-0.382353
O7	O	-0.446344	1.206278	-0.181775
O8	O	-0.221805	1.102129	-0.295904
O9	O	-0.451572	1.331765	-0.295885
O10	O	-0.225766	1.197208	-0.382364
O11	O	-0.347299	1.107289	-0.181783
O12	O	-0.352510	0.971348	-0.295869
O13	O	-0.460732	1.092823	-0.496412
O14	O	-0.455505	0.967336	-0.382301
O15	O	-0.361699	1.191914	-0.496439
O16	O	-0.582278	1.200984	-0.295849
O17	O	-0.586226	1.097983	-0.382290
C18	C	-0.404006	0.940086	-0.339082
C19	C	-0.404021	0.850465	-0.339091
C20	C	-0.613508	1.149490	-0.339080
C21	C	-0.703130	1.149525	-0.339094
C22	C	-0.775913	1.149556	-0.339108
C23	C	-0.867222	1.149602	-0.339124
C24	C	-0.939999	1.149644	-0.339132
C25	C	-1.031314	1.149689	-0.339147
C26	C	-0.404028	0.522288	-0.339121
C27	C	-0.404024	0.613597	-0.339110
C28	C	-0.404025	0.686373	-0.339105
C29	C	-0.404020	0.777688	-0.339096
C30	C	-0.193711	1.149684	-0.339140
C31	C	-0.104091	1.149730	-0.339156
C32	C	-0.412417	1.141166	-0.522676
C33	C	-0.415995	1.137582	-0.600905
C34	C	-0.404032	1.359884	-0.339122
C35	C	-0.404037	1.449505	-0.339131
C36	C	-0.366117	1.187487	-0.637672
C37	C	-0.369477	1.184109	-0.711176
C38	C	-0.422719	1.130830	-0.747911
C39	C	-0.472599	1.080920	-0.711139
C40	C	-0.469234	1.084294	-0.637636
C41	C	-0.438305	1.115204	-0.967739
C42	C	-0.441667	1.111836	-1.041247
C43	C	-0.338544	1.215024	-1.041279
C44	C	-0.335188	1.218397	-0.967775
C45	C	-0.385065	1.168483	-0.931009
N46	N	-0.426156	1.127379	-0.823044
N47	N	-0.381623	1.171932	-0.855877
C48	C	-0.395595	1.158000	-0.156242
C49	C	-0.391789	1.161740	-0.078014
H50	H	-0.322765	1.230874	-0.607767
O51	O	-0.320998	1.232671	-0.746783
C52	C	-0.273275	1.280410	-0.698598
H53	H	-0.303905	1.285586	-0.646197
H54	H	-0.211676	1.251279	-0.690786
C55	C	-0.225358	1.358556	-0.791659
C56	C	-0.262983	1.364920	-0.727301
H57	H	-0.219006	1.410685	-0.809365
H58	H	-0.257508	1.326392	-0.824122
H59	H	-0.174030	1.334278	-0.785140
H60	H	-0.314314	1.389189	-0.733823
H61	H	-0.230841	1.397090	-0.694839
O62	O	-0.283395	1.270170	-0.932201
C63	C	-0.240105	1.313509	-0.980415
H64	H	-0.239707	1.278081	-1.032806
H65	H	-0.269994	1.374372	-0.988236
C66	C	-0.153469	1.370007	-0.887398
C67	C	-0.152974	1.326489	-0.951743
H68	H	-0.099723	1.378017	-0.869711
H69	H	-0.182635	1.340811	-0.854914
H70	H	-0.178380	1.420721	-0.893924
H71	H	-0.128071	1.275773	-0.945215
H72	H	-0.123800	1.355677	-0.984225
H73	H	-0.297936	1.255660	-1.071221
H74	H	-0.485025	1.068447	-1.071155
O75	O	-0.486825	1.066680	-0.932140
C76	C	-0.534517	1.018915	-0.980328
H77	H	-0.539726	1.049546	-1.032721
H78	H	-0.505326	0.957345	-0.988155
C79	C	-0.612613	0.970909	-0.887266
C80	C	-0.619016	1.008535	-0.951615
H81	H	-0.664735	0.964502	-0.869555
H82	H	-0.580480	1.003087	-0.854800
H83	H	-0.588284	0.919605	-0.893798
H84	H	-0.643335	1.059841	-0.945081
H85	H	-0.651155	0.976365	-0.984080
H86	H	-0.515946	1.037536	-0.741055
O87	O	-0.517777	1.035796	-0.602027
C88	C	-0.565483	0.988038	-0.650210
H89	H	-0.570666	1.018653	-0.702613
H90	H	-0.536320	0.926452	-0.658018
C91	C	-0.643622	0.940104	-0.557148
C92	C	-0.649993	0.977710	-0.621507
H93	H	-0.695751	0.933729	-0.539442
H94	H	-0.611480	0.972277	-0.524685
H95	H	-0.619316	0.888786	-0.563663
H96	H	-0.674289	1.029030	-0.614990
H97	H	-0.682141	0.945545	-0.653968
