data_functionalizedCrystal
_audit_creation_method	'MofGen! by Chris Wilmer'
_symmetry_space_group_name_H-M	'P1'
_symmetry_Int_Tables_number	1
_symmetry_cell_setting	triclinic
loop_
_symmetry_equiv_pos_as_xyz
  x,y,z
_cell_length_a	23.096457
_cell_length_b	14.560438
_cell_length_c	14.560438
_cell_angle_alpha	90.001361
_cell_angle_beta	60.001940
_cell_angle_gamma	60.002212
loop_
_atom_site_label
_atom_site_type_symbol
_atom_site_fract_x
_atom_site_fract_y
_atom_site_fract_z
Zr1	Zr	0.633737	-0.120467	0.884779
O2	O	0.754520	-0.267108	0.738139
O3	O	0.512953	-0.075520	0.929729
O4	O	0.633736	-0.267113	0.929736
O5	O	0.633738	0.075623	0.738131
O6	O	0.633738	-0.267110	1.080874
O7	O	0.633736	-0.075515	0.738133
O8	O	0.417678	0.075614	1.080862
O9	O	0.849798	-0.267101	0.738143
O10	O	0.562635	-0.056342	1.061696
O11	O	0.562635	0.056449	0.948902
O12	O	0.704842	-0.169127	0.948910
O13	O	0.704842	-0.056336	0.836116
Zr14	Zr	0.633743	0.120585	1.125825
Zr15	Zr	0.633740	-0.120463	1.125827
Zr16	Zr	0.633740	0.120581	0.884777
Zr17	Zr	0.785695	-0.120457	0.884785
Zr18	Zr	0.481785	0.120574	1.125819
O19	O	0.754527	0.075637	1.080875
O20	O	0.754524	-0.267102	1.080879
O21	O	0.754524	0.075632	0.738136
O22	O	0.512960	0.267225	1.272465
O23	O	0.512956	-0.075514	1.272468
O24	O	0.512956	0.267219	0.929726
O25	O	0.633742	-0.075506	1.272473
O26	O	0.633744	0.267230	1.080869
O27	O	0.633742	0.267228	0.929730
O28	O	0.633744	0.075632	1.272472
O29	O	0.849800	-0.267098	0.929744
O30	O	0.417680	0.267216	1.080860
O31	O	0.417682	0.267219	1.272461
O32	O	0.417680	0.075618	1.272463
O33	O	0.849800	-0.075500	0.738141
O34	O	0.849802	-0.075497	0.929742
O35	O	0.562638	0.169244	1.061694
O36	O	0.562638	0.056453	1.174488
O37	O	0.704845	-0.056332	1.061702
O38	O	0.704845	0.056459	0.948908
C39	C	0.443665	0.000046	1.005294
C40	C	0.379155	0.000042	1.005292
C41	C	0.633737	0.000054	0.703788
C42	C	0.633736	0.000052	0.601457
C43	C	0.633743	0.301573	1.005299
C44	C	0.633744	0.403904	1.005298
C45	C	0.348854	-0.058838	1.064161
C46	C	0.288231	-0.058829	1.064172
C47	C	0.257924	0.000045	1.005292
C48	C	0.288229	0.058938	0.946420
C49	C	0.348844	0.058936	0.946420
N50	N	0.195527	-0.008121	0.909476
N51	N	0.137946	-0.008125	0.909478
C52	C	0.075292	0.000055	1.005291
N53	N	0.072401	0.008219	1.101100
N54	N	0.129990	0.008217	1.101095
C55	C	0.192196	0.000054	1.005286
C56	C	-0.020743	-0.058818	1.064178
C57	C	-0.081370	-0.058800	1.064192
C58	C	-0.081366	0.058959	0.946428
C59	C	-0.020746	0.058949	0.946425
C60	C	0.009565	0.000055	1.005297
C61	C	0.823815	0.000071	1.005310
C62	C	0.888325	0.000076	1.005312
C63	C	0.633737	-0.301456	1.005305
C64	C	0.633736	-0.403787	1.005306
C65	C	0.707974	0.393110	0.946431
C66	C	0.707970	0.489265	0.946431
C67	C	0.559501	0.607005	1.064175
C68	C	0.559505	0.510851	1.064168
C69	C	0.793691	0.325134	0.878456
C70	C	0.793687	0.421289	0.878456
C71	C	0.559506	0.058924	0.612251
C72	C	0.559510	0.058935	0.516096
C73	C	0.707979	-0.058809	0.398355
C74	C	0.707975	-0.058812	0.494509
C75	C	0.473789	0.126899	0.680227
C76	C	0.473793	0.126909	0.584072
C77	C	0.633743	0.000063	1.306816
C78	C	0.633744	0.000065	1.409148
C79	C	0.443668	0.000051	1.306809
C80	C	0.379159	0.000048	1.409137
C81	C	0.443668	0.301560	1.005292
C82	C	0.379159	0.403887	1.005288
C83	C	0.443671	0.301565	1.306806
C84	C	0.379163	0.403894	1.409134
C85	C	0.823809	-0.301448	0.703798
C86	C	0.888317	-0.403776	0.601471
C87	C	0.823812	0.000066	0.703795
C88	C	0.888321	0.000069	0.601467
C89	C	0.823812	-0.301443	1.005313
C90	C	0.888321	-0.403770	1.005316
C91	C	0.348864	-0.058841	1.398316
C92	C	0.288259	-0.058866	1.494455
C93	C	0.257947	0.000005	1.601415
C94	C	0.288248	0.058896	1.612234
C95	C	0.348856	0.058914	1.516096
C96	C	0.348866	0.510829	1.064162
C97	C	0.288262	0.606985	1.064155
C98	C	0.257947	0.596197	1.005279
C99	C	0.288246	0.489244	0.946397
C100	C	0.348853	0.393091	0.946399
C101	C	0.348870	0.393072	1.516075
C102	C	0.288266	0.489212	1.612232
C103	C	0.257954	0.596171	1.601445
C104	C	0.288253	0.606990	1.494492
C105	C	0.348859	0.510852	1.398338
C106	C	0.918618	-0.392955	0.494529
C107	C	0.979240	-0.489095	0.398372
C108	C	1.009556	-0.596054	0.409159
C109	C	0.979252	-0.606873	0.516112
C110	C	0.918635	-0.510735	0.612266
C111	C	0.918623	0.058948	0.612288
C112	C	0.979244	0.058947	0.516149
C113	C	1.009558	0.000072	0.409189
C114	C	0.979254	-0.058814	0.398370
C115	C	0.918638	-0.058819	0.494508
C116	C	0.918616	-0.392946	1.064204
C117	C	0.979221	-0.489084	1.064229
C118	C	1.009534	-0.596044	1.005360
C119	C	0.979232	-0.606866	0.946470
C120	C	0.918624	-0.510729	0.946452
H121	H	0.263556	-0.106778	1.112113
H122	H	0.263559	0.106826	1.699334
O123	O	0.479452	0.522468	1.127649
H124	H	0.475916	0.481462	1.192710
H125	H	1.058914	-0.674327	0.330855
O126	O	1.074915	-0.699729	1.005369
H127	H	1.051653	-0.699652	1.093046
H128	H	0.499058	0.694091	1.112104
O129	O	0.837298	0.255978	0.759209
H130	H	0.858634	0.298384	0.700834
H131	H	0.820286	0.274221	0.923319
O132	O	0.430194	0.246143	0.749375
H133	H	0.376808	0.267665	0.834042
O134	O	0.011952	-0.122325	1.127678
H135	H	-0.038923	-0.088292	1.218171
H136	H	0.263555	0.480477	0.898462
O137	O	0.438560	0.067477	0.747675
H138	H	0.419881	0.035981	0.705676
O139	O	0.381568	0.277715	1.527723
H140	H	0.350322	0.286360	1.618248
O141	O	0.430218	0.076790	0.584040
H142	H	0.366155	0.127634	0.660288
O143	O	0.381559	-0.122354	1.282958
H144	H	0.350312	-0.163315	1.291603
H145	H	-0.106046	-0.106743	1.112137
H146	H	0.373510	0.306018	0.898460
H147	H	0.893937	-0.305872	0.485725
H148	H	0.893945	0.106898	0.699372
H149	H	0.820296	0.430009	0.791402
H150	H	0.826596	0.421287	0.916282
H151	H	1.003945	-0.106748	0.311270
O152	O	0.788035	-0.122304	0.482872
H153	H	0.839656	-0.163243	0.392351
H154	H	0.893945	-0.305862	1.112142
H155	H	0.373542	0.519634	1.112107
H156	H	0.263595	-0.106822	1.485624
O157	O	0.788050	-0.122313	0.283008
H158	H	0.775585	-0.112429	0.217957
H159	H	0.893968	-0.106762	0.485681
O160	O	1.011947	-0.722239	0.527741
H161	H	1.059180	-0.787262	0.442906
O162	O	0.381510	0.522540	1.282998
H163	H	0.409114	0.569245	1.273218
H164	H	1.003922	-0.693966	0.898540
H165	H	0.263600	0.694061	1.112107
O166	O	1.011903	-0.477414	0.283024
H167	H	0.980621	-0.386885	0.291687
O168	O	0.438543	0.242220	0.572520
H169	H	0.419848	0.303348	0.644158
H170	H	-0.106042	0.106895	0.898487
H171	H	1.003886	-0.480251	1.112182
O172	O	0.885960	-0.522409	0.882918
H173	H	0.917232	-0.612939	0.841979
H174	H	0.263563	0.694089	1.485726
O175	O	0.192563	0.699910	1.005302
H176	H	0.176587	0.776082	1.056151
H177	H	0.208596	-0.000017	1.679688
H178	H	1.003907	0.106903	0.524980
O179	O	0.381512	0.122457	1.527782
H180	H	0.448374	0.063044	1.486813
O181	O	0.255583	0.477531	1.727580
H182	H	0.286835	0.387003	1.718917
H183	H	0.208604	0.674444	1.679749
O184	O	0.885944	-0.522411	0.727611
H185	H	0.917206	-0.612941	0.718946
H186	H	1.058916	0.000085	0.330916
H187	H	0.263548	0.106874	0.898480
O188	O	0.381544	-0.122355	1.127659
H189	H	0.330667	-0.088330	1.218151
O190	O	0.381539	0.122433	0.882911
H191	H	0.350286	0.163370	0.841963
O192	O	0.011941	0.122459	0.882936
H193	H	0.078805	0.063027	0.817871
