data_functionalizedCrystal
_audit_creation_method	'MofGen! by Chris Wilmer'
_symmetry_space_group_name_H-M	'P1'
_symmetry_Int_Tables_number	1
_symmetry_cell_setting	triclinic
loop_
_symmetry_equiv_pos_as_xyz
  x,y,z
_cell_length_a	17.077404
_cell_length_b	12.827892
_cell_length_c	17.077396
_cell_angle_alpha	89.974933
_cell_angle_beta	89.980499
_cell_angle_gamma	90.015617
loop_
_atom_site_label
_atom_site_type_symbol
_atom_site_fract_x
_atom_site_fract_y
_atom_site_fract_z
Zn1	Zn	1.200096	-0.416027	-0.443861
Zn2	Zn	1.200020	-0.590789	-0.312603
Zn3	Zn	1.068827	-0.416063	-0.312609
Zn4	Zn	1.068812	-0.590727	-0.443827
O5	O	1.134439	-0.503402	-0.378225
O6	O	1.309932	-0.439220	-0.426462
O7	O	1.182591	-0.567653	-0.202757
O8	O	1.086278	-0.269823	-0.330037
O9	O	1.309877	-0.567617	-0.330027
O10	O	1.182720	-0.269796	-0.426468
O11	O	1.086205	-0.439282	-0.202762
O12	O	0.958978	-0.439222	-0.330004
O13	O	1.086253	-0.567511	-0.553678
O14	O	0.958968	-0.567547	-0.426409
O15	O	1.182706	-0.439160	-0.553704
O16	O	1.182577	-0.737017	-0.329993
O17	O	1.086179	-0.736971	-0.426403
C18	C	0.930491	-0.503383	-0.378203
C19	C	0.843241	-0.503400	-0.378213
C20	C	1.134390	-0.774912	-0.378211
C21	C	1.134440	-0.891065	-0.378231
C22	C	0.802266	-0.570319	-0.428330
C23	C	0.720285	-0.570321	-0.428343
C24	C	0.679282	-0.503409	-0.378233
C25	C	0.720263	-0.436482	-0.328114
C26	C	0.802242	-0.436475	-0.328106
C27	C	0.549393	-0.436502	-0.328133
C28	C	0.467408	-0.436510	-0.328139
C29	C	0.467436	-0.570349	-0.428370
C30	C	0.549415	-0.570342	-0.428362
C31	C	0.590391	-0.503416	-0.378241
C32	C	1.182142	-0.942753	-0.425990
C33	C	1.182195	-1.062803	-0.426012
C34	C	1.339183	-0.503421	-0.378247
C35	C	1.426433	-0.503430	-0.378257
C36	C	1.134486	-0.503325	-0.582970
C37	C	1.134506	-0.503292	-0.670219
C38	C	1.134509	-0.230831	-0.378257
C39	C	1.134540	-0.114678	-0.378270
C40	C	1.184731	-0.436454	-0.711224
C41	C	1.184741	-0.436419	-0.793205
C42	C	1.134529	-0.503228	-0.834179
C43	C	1.084298	-0.570069	-0.793168
C44	C	1.084285	-0.570098	-0.711189
C45	C	1.084330	-0.570007	-0.964039
C46	C	1.084344	-0.569980	-1.046023
C47	C	1.184785	-0.436327	-1.046054
C48	C	1.184772	-0.436356	-0.964075
C49	C	1.134543	-0.503199	-0.923070
C50	C	1.134437	-0.503403	-0.174277
C51	C	1.134568	-0.503141	-0.087028
H52	H	0.835645	-0.624811	-0.469133
F53	F	1.030868	-0.641147	-0.920400
H54	H	0.686927	-0.624815	-0.469153
H55	H	1.223037	-1.107254	-0.466898
H56	H	1.222939	-0.898130	-0.466867
F57	F	1.081160	-1.056588	-0.324818
F58	F	1.081107	-0.949387	-0.324809
F59	F	1.238179	-0.365350	-0.667623
F60	F	0.593000	-0.365271	-0.274789
F61	F	0.845850	-0.365248	-0.274765
F62	F	0.676621	-0.365261	-0.274788
F63	F	1.238218	-0.365256	-0.920468
F64	F	1.238224	-0.365316	-0.836841
H65	H	1.043455	-0.624379	-1.079382
F66	F	0.593053	-0.641565	-0.481689
H67	H	1.225683	-0.381900	-1.079444
F68	F	1.030855	-0.641169	-0.836779
F69	F	0.423827	-0.641565	-0.481721
F70	F	0.423770	-0.365299	-0.274804
H71	H	1.043379	-0.624514	-0.677804
