data_functionalizedCrystal
_audit_creation_method	'MofGen! by Chris Wilmer'
_symmetry_space_group_name_H-M	'P1'
_symmetry_Int_Tables_number	1
_symmetry_cell_setting	triclinic
loop_
_symmetry_equiv_pos_as_xyz
  x,y,z
_cell_length_a	14.519731
_cell_length_b	12.996460
_cell_length_c	14.519709
_cell_angle_alpha	90.007090
_cell_angle_beta	96.315501
_cell_angle_gamma	89.993310
loop_
_atom_site_label
_atom_site_type_symbol
_atom_site_fract_x
_atom_site_fract_y
_atom_site_fract_z
O1	O	-1.223857	0.085596	0.120986
O2	O	-0.973857	0.335596	0.370986
O3	O	-0.723857	0.585596	0.620986
O4	O	-0.473857	0.835596	0.870986
O5	O	-0.955382	0.085592	0.135203
O6	O	-0.705382	0.335592	0.385203
O7	O	-0.455382	0.585592	0.635203
O8	O	-0.205382	0.835592	0.885203
O9	O	-1.096738	0.085585	-0.006143
O10	O	-0.846738	0.335585	0.243857
O11	O	-0.596738	0.585585	0.493857
O12	O	-0.346738	0.835585	0.743857
O13	O	-1.082501	0.085603	0.262332
O14	O	-0.832501	0.335603	0.512332
O15	O	-0.582501	0.585603	0.762332
O16	O	-0.332501	0.835603	1.012332
O17	O	-1.096723	-0.085549	-0.006151
O18	O	-0.846723	0.164451	0.243849
O19	O	-0.596723	0.414451	0.493849
O20	O	-0.346723	0.664451	0.743849
O21	O	-0.955368	-0.085542	0.135195
O22	O	-0.705368	0.164458	0.385195
O23	O	-0.455368	0.414458	0.635195
O24	O	-0.205368	0.664458	0.885195
O25	O	-1.223842	-0.085538	0.120979
O26	O	-0.973842	0.164462	0.370979
O27	O	-0.723842	0.414462	0.620979
O28	O	-0.473842	0.664462	0.870979
Cu29	Cu	-1.089603	-0.101166	0.128086
Cu30	Cu	-0.839603	0.148834	0.378086
Cu31	Cu	-0.589603	0.398834	0.628086
Cu32	Cu	-0.339603	0.648834	0.878086
Cu33	Cu	-1.089621	0.101220	0.128095
Cu34	Cu	-0.839621	0.351220	0.378095
Cu35	Cu	-0.589621	0.601220	0.628095
Cu36	Cu	-0.339621	0.851220	0.878095
O37	O	-1.082487	-0.085531	0.262325
O38	O	-0.832487	0.164469	0.512325
O39	O	-0.582487	0.414469	0.762325
O40	O	-0.332487	0.664469	1.012325
C41	C	-0.921016	0.000025	0.134532
C42	C	-0.671016	0.250025	0.384532
C43	C	-0.421016	0.500025	0.634532
C44	C	-0.171016	0.750025	0.884532
C45	C	-0.818635	0.000023	0.132536
C46	C	-0.568635	0.250023	0.382536
C47	C	-0.318635	0.500023	0.632536
C48	C	-0.068635	0.750023	0.882536
N49	N	-1.089598	-0.243513	0.128079
N50	N	-0.839598	0.006487	0.378079
N51	N	-0.589598	0.256487	0.628079
N52	N	-0.339598	0.506487	0.878079
C53	C	-0.735491	0.000025	0.130915
C54	C	-0.485491	0.250025	0.380915
C55	C	-0.235491	0.500025	0.630915
C56	C	0.014509	0.750025	0.880915
C57	C	-0.631182	0.000024	0.128888
C58	C	-0.381182	0.250024	0.378888
C59	C	-0.131182	0.500024	0.628888
C60	C	0.118818	0.750024	0.878888
C61	C	-0.548043	0.000022	0.127280
C62	C	-0.298043	0.250022	0.377280
C63	C	-0.048043	0.500022	0.627280
C64	C	0.201957	0.750022	0.877280
C65	C	-0.443728	0.000022	0.125253
C66	C	-0.193728	0.250022	0.375253
C67	C	0.056272	0.500022	0.625253
C68	C	0.306272	0.750022	0.875253
C69	C	-1.089620	-0.663327	0.128096
C70	C	-0.839620	-0.413327	0.378096
C71	C	-0.589620	-0.163327	0.628096
C72	C	-0.339620	0.086673	0.878096
C73	C	-1.089611	-0.546522	0.128094
C74	C	-0.839611	-0.296522	0.378094
C75	C	-0.589611	-0.046522	0.628094
C76	C	-0.339611	0.203478	0.878094
C77	C	-1.089609	-0.453424	0.128088
C78	C	-0.839609	-0.203424	0.378088
C79	C	-0.589609	0.046576	0.628088
C80	C	-0.339609	0.296576	0.878088
C81	C	-1.089600	-0.336611	0.128085
C82	C	-0.839600	-0.086611	0.378085
C83	C	-0.589600	0.163389	0.628085
C84	C	-0.339600	0.413389	0.878085
C85	C	-0.258209	0.000026	0.121649
C86	C	-0.008209	0.250026	0.371649
C87	C	0.241791	0.500026	0.621649
C88	C	0.491791	0.750026	0.871649
C89	C	-0.360589	0.000020	0.123645
C90	C	-0.110589	0.250020	0.373645
C91	C	0.139411	0.500020	0.623645
C92	C	0.389411	0.750020	0.873645
C93	C	-1.096067	0.000018	-0.040507
C94	C	-0.846067	0.250018	0.209493
C95	C	-0.596067	0.500018	0.459493
C96	C	-0.346067	0.750018	0.709493
C97	C	-1.094079	0.000017	-0.142889
C98	C	-0.844079	0.250017	0.107111
C99	C	-0.594079	0.500017	0.357111
C100	C	-0.344079	0.750017	0.607111
N101	N	-1.089634	0.243567	0.128095
N102	N	-0.839634	0.493567	0.378095
N103	N	-0.589634	0.743567	0.628095
N104	N	-0.339634	0.993567	0.878095
C105	C	-1.086759	0.000044	-0.517785
C106	C	-0.836759	0.250044	-0.267785
C107	C	-0.586759	0.500044	-0.017785
C108	C	-0.336759	0.750044	0.232215
C109	C	-1.088792	0.000036	-0.413477
C110	C	-0.838792	0.250036	-0.163477
C111	C	-0.588792	0.500036	0.086523
C112	C	-0.338792	0.750036	0.336523
C113	C	-1.090419	0.000029	-0.330340
C114	C	-0.840419	0.250029	-0.080340
C115	C	-0.590419	0.500029	0.169660
C116	C	-0.340419	0.750029	0.419660
C117	C	-1.092452	0.000024	-0.226025
C118	C	-0.842452	0.250024	0.023975
C119	C	-0.592452	0.500024	0.273975
C120	C	-0.342452	0.750024	0.523975
C121	C	-1.083157	0.000039	0.296688
C122	C	-0.833157	0.250039	0.546688
C123	C	-0.583157	0.500039	0.796688
C124	C	-0.333157	0.750039	1.046688
C125	C	-1.085146	0.000046	0.399070
C126	C	-0.835146	0.250046	0.649070
C127	C	-0.585146	0.500046	0.899070
C128	C	-0.335146	0.750046	1.149070
