data_functionalizedCrystal
_audit_creation_method	'MofGen! by Chris Wilmer'
_symmetry_space_group_name_H-M	'P1'
_symmetry_Int_Tables_number	1
_symmetry_cell_setting	triclinic
loop_
_symmetry_equiv_pos_as_xyz
  x,y,z
_cell_length_a	13.032831
_cell_length_b	16.959447
_cell_length_c	13.034570
_cell_angle_alpha	82.840335
_cell_angle_beta	103.316534
_cell_angle_gamma	82.810409
loop_
_atom_site_label
_atom_site_type_symbol
_atom_site_fract_x
_atom_site_fract_y
_atom_site_fract_z
Zn1	Zn	1.677578	-0.668338	0.629250
Zn2	Zn	2.177578	-0.168338	1.129250
Zn3	Zn	1.700027	-0.555400	0.806839
Zn4	Zn	2.200027	-0.055400	1.306839
Zn5	Zn	1.499961	-0.516973	0.606706
Zn6	Zn	1.999961	-0.016973	1.106706
Zn7	Zn	1.522469	-0.668331	0.784191
Zn8	Zn	2.022469	-0.168331	1.284191
O9	O	1.600009	-0.602261	0.706746
O10	O	2.100009	-0.102261	1.206746
O11	O	1.829198	-0.669441	0.671720
O12	O	2.329198	-0.169441	1.171720
O13	O	1.673464	-0.439694	0.780334
O14	O	2.173464	0.060306	1.280334
O15	O	1.504707	-0.520972	0.461097
O16	O	2.004707	-0.020972	0.961097
O17	O	1.845691	-0.586466	0.802194
O18	O	2.345691	-0.086466	1.302194
O19	O	1.635201	-0.632180	0.477660
O20	O	2.135201	-0.132180	0.977660
O21	O	1.526476	-0.411461	0.633298
O22	O	2.026476	0.088539	1.133298
O23	O	1.354305	-0.520966	0.611338
O24	O	1.854305	-0.020966	1.111338
O25	O	1.543069	-0.778941	0.763594
O26	O	2.043069	-0.278941	1.263594
O27	O	1.370841	-0.632169	0.741735
O28	O	1.870841	-0.132169	1.241735
O29	O	1.657027	-0.778946	0.649760
O30	O	2.157027	-0.278946	1.149760
O31	O	1.695289	-0.586460	0.952434
O32	O	2.195289	-0.086460	1.452434
O33	O	1.564837	-0.669430	0.935795
O34	O	2.064837	-0.169430	1.435795
C35	C	1.324032	-0.572397	0.671633
C36	C	1.824032	-0.072397	1.171633
C37	C	1.205971	-0.559643	0.656637
C38	C	1.705971	-0.059643	1.156637
C39	C	1.600054	-0.808425	0.706665
C40	C	2.100054	-0.308425	1.206665
C41	C	1.600074	-0.896281	0.706631
C42	C	2.100074	-0.396281	1.206631
C43	C	1.161558	-0.608917	0.714573
C44	C	1.661558	-0.108917	1.214573
C45	C	1.039536	-0.595736	0.699076
C46	C	1.539536	-0.095736	1.199076
C47	C	1.523623	-1.253061	0.629976
C48	C	2.023623	-0.753061	1.129976
C49	C	1.676683	-1.282448	0.783086
C50	C	2.176683	-0.782448	1.283086
C51	C	1.676668	-1.199902	0.783109
C52	C	2.176668	-0.699902	1.283109
C53	C	1.600128	-1.143933	0.706564
C54	C	2.100128	-0.643933	1.206564
C55	C	1.523604	-1.170508	0.629998
C56	C	2.023604	-0.670508	1.129998
C57	C	1.753184	-1.173321	0.859680
C58	C	2.253184	-0.673321	1.359680
C59	C	1.753171	-1.090771	0.859706
C60	C	2.253171	-0.590771	1.359706
C61	C	1.676635	-1.034799	0.783157
C62	C	2.176635	-0.534799	1.283157
C63	C	1.600109	-1.061379	0.706586
C64	C	2.100109	-0.561379	1.206586
C65	C	1.523569	-1.005409	0.630042
C66	C	2.023569	-0.505409	1.130042
C67	C	1.447046	-1.031988	0.553466
C68	C	1.947046	-0.531988	1.053466
C69	C	1.447068	-1.114537	0.553448
C70	C	1.947068	-0.614537	1.053448
C71	C	1.676613	-0.952250	0.783175
C72	C	2.176613	-0.452250	1.283175
C73	C	1.523549	-0.922856	0.630064
C74	C	2.023549	-0.422856	1.130064
C75	C	1.877063	-0.632241	0.741998
C76	C	2.377063	-0.132241	1.241998
C77	C	1.995128	-0.645017	0.757019
C78	C	2.495128	-0.145017	1.257019
C79	C	1.634971	-0.632135	0.982648
C80	C	2.134971	-0.132135	1.482648
C81	C	1.650024	-0.644952	1.100693
C82	C	2.150024	-0.144952	1.600693
C83	C	1.600015	-0.396896	0.706758
C84	C	2.100015	0.103104	1.206758
C85	C	1.600163	-0.309031	0.706520
C86	C	2.100163	0.190969	1.206520
C87	C	1.564939	-0.572290	0.429771
C88	C	2.064939	-0.072290	0.929771
C89	C	1.549995	-0.559519	0.311740
C90	C	2.049995	-0.059519	0.811740
C91	C	1.607785	-0.608853	1.267217
C92	C	2.107785	-0.108853	1.767217
C93	C	1.592226	-0.595610	1.145212
C94	C	2.092226	-0.095610	1.645212
H95	H	1.213871	-0.660863	0.775644
H96	H	1.713871	-0.160863	1.275644
Cl97	Cl	1.849374	-1.057365	0.955967
Cl98	Cl	2.349374	-0.557365	1.455967
H99	H	1.461225	-0.877289	0.567728
H100	H	1.961225	-0.377289	1.067728
H101	H	1.738924	-0.930614	0.845516
H102	H	2.238924	-0.430614	1.345516
H103	H	1.738991	-1.328022	0.845412
H104	H	2.238991	-0.828022	1.345412
H105	H	1.153657	-0.507702	0.595559
H106	H	1.653657	-0.007702	1.095559
Cl107	Cl	1.498052	-0.515252	1.064623
Cl108	Cl	1.998052	-0.015252	1.564623
Cl109	Cl	1.849389	-1.243684	0.955910
Cl110	Cl	2.349389	-0.743684	1.455910
Cl111	Cl	1.350830	-0.961617	0.457242
Cl112	Cl	1.850830	-0.461617	0.957242
Cl113	Cl	1.744212	-0.725303	1.181281
Cl114	Cl	2.244212	-0.225303	1.681281
H115	H	1.668785	-0.660892	1.319424
H116	H	2.168785	-0.160892	1.819424
Cl117	Cl	0.958780	-0.515537	0.604768
Cl118	Cl	1.458780	-0.015537	1.104768
H119	H	1.489003	-0.507475	1.259536
H120	H	1.989003	-0.007475	1.759536
H121	H	1.047435	-0.696968	0.818092
H122	H	1.547435	-0.196968	1.318092
H123	H	1.384766	-1.136185	0.491105
H124	H	1.884766	-0.636185	0.991105
H125	H	1.461323	-1.274705	0.567627
H126	H	1.961323	-0.774705	1.067627
