data_functionalizedCrystal
_audit_creation_method	'MofGen! by Chris Wilmer'
_symmetry_space_group_name_H-M	'P1'
_symmetry_Int_Tables_number	1
_symmetry_cell_setting	triclinic
loop_
_symmetry_equiv_pos_as_xyz
  x,y,z
_cell_length_a	16.120530
_cell_length_b	12.645330
_cell_length_c	16.120297
_cell_angle_alpha	92.874885
_cell_angle_beta	90.128140
_cell_angle_gamma	87.108294
loop_
_atom_site_label
_atom_site_type_symbol
_atom_site_fract_x
_atom_site_fract_y
_atom_site_fract_z
Zn1	Zn	1.247519	-0.537082	-0.534581
Zn2	Zn	1.254495	-0.705845	-0.395529
Zn3	Zn	1.115507	-0.519169	-0.388499
Zn4	Zn	1.108451	-0.704868	-0.527498
O5	O	1.181493	-0.616741	-0.461527
O6	O	1.364812	-0.567375	-0.522042
O7	O	1.241930	-0.673993	-0.278231
O8	O	1.133052	-0.373201	-0.407899
O9	O	1.369937	-0.691364	-0.419881
O10	O	1.230041	-0.386362	-0.515225
O11	O	1.139816	-0.536843	-0.273066
O12	O	0.998204	-0.535896	-0.401031
O13	O	1.121027	-0.689700	-0.644804
O14	O	0.993020	-0.672329	-0.503153
O15	O	1.223200	-0.566428	-0.650008
O16	O	1.235089	-0.854059	-0.413013
O17	O	1.127791	-0.853342	-0.509970
C18	C	0.965439	-0.602064	-0.450561
C19	C	0.873009	-0.595812	-0.445890
C20	C	0.703778	-0.584372	-0.437368
C21	C	0.660046	-0.649192	-0.485747
C22	C	0.565880	-0.642827	-0.481005
C23	C	0.797952	-0.590736	-0.442108
C24	C	1.181453	-0.892167	-0.461505
C25	C	1.181510	-1.010002	-0.461528
C26	C	1.248914	-1.177958	-0.400396
C27	C	1.249115	-1.055422	-0.400564
C28	C	1.200830	-1.061367	-0.550384
C29	C	1.201356	-1.183979	-0.550068
C30	C	1.094716	-1.169992	-0.434665
C31	C	1.095237	-1.047295	-0.432721
C32	C	1.398391	-0.631476	-0.472536
C33	C	1.490820	-0.637756	-0.477228
C34	C	1.170548	-0.629953	-0.678422
C35	C	1.165884	-0.635584	-0.770849
C36	C	1.181556	-0.340242	-0.461568
C37	C	1.181582	-0.222415	-0.461586
C38	C	1.157338	-0.645837	-0.940074
C39	C	1.205813	-0.587338	-0.983840
C40	C	1.201058	-0.593044	-1.078003
C41	C	1.162092	-0.640133	-0.845903
C42	C	1.192444	-0.603507	-0.245479
C43	C	1.197269	-0.597589	-0.153060
H44	H	1.237542	-1.020427	-0.334818
H45	H	1.250884	-0.532970	-0.950591
H46	H	1.264719	-1.218021	-0.572354
H47	H	1.112270	-0.700201	-0.973321
C48	C	0.659560	-0.503907	-0.377365
C49	C	0.718410	-0.445335	-0.333669
C50	C	0.677697	-0.371196	-0.278394
H51	H	0.627492	-0.539818	-0.339337
H52	H	0.624098	-0.457419	-0.407545
H53	H	0.753858	-0.491816	-0.303491
H54	H	0.750481	-0.409401	-0.371675
H55	H	0.642235	-0.324708	-0.308573
H56	H	0.645630	-0.407117	-0.240371
H57	H	0.717620	-0.331440	-0.248745
H58	H	1.042724	-1.015933	-0.473662
H59	H	1.237537	-1.202521	-0.334469
C60	C	1.334435	-1.225787	-0.424351
C61	C	1.386346	-1.144712	-0.442999
C62	C	1.465134	-1.188735	-0.465064
H63	H	1.329842	-1.273062	-0.471632
H64	H	1.357269	-1.263360	-0.379375
H65	H	1.363518	-1.107156	-0.487971
H66	H	1.390964	-1.097431	-0.395730
H67	H	1.487967	-1.226309	-0.420087
H68	H	1.460532	-1.236010	-0.512343
H69	H	1.500367	-1.133732	-0.477712
H70	H	1.313544	-1.031346	-0.418724
H71	H	1.044603	-1.198637	-0.479177
H72	H	1.154220	-1.213663	-0.597471
C73	C	0.704518	-0.729407	-0.545774
C74	C	0.751734	-0.676056	-0.601607
C75	C	0.792724	-0.749914	-0.656905
H76	H	0.664785	-0.769276	-0.575586
H77	H	0.740043	-0.775822	-0.515595
H78	H	0.716212	-0.629659	-0.631783
H79	H	0.791481	-0.636191	-0.571819
H80	H	0.828248	-0.796329	-0.626726
H81	H	0.752985	-0.789779	-0.686711
H82	H	0.824770	-0.713727	-0.694789
C83	C	1.137220	-1.022638	-0.613177
C84	C	1.156325	-1.070031	-0.691625
C85	C	1.097730	-1.034402	-0.749483
H86	H	1.138297	-0.947798	-0.615403
H87	H	1.083431	-1.041181	-0.596989
H88	H	1.210099	-1.051480	-0.707810
H89	H	1.155241	-1.144869	-0.689426
H90	H	1.043942	-1.052945	-0.733295
H91	H	1.098812	-0.959562	-0.751702
H92	H	1.110680	-1.066560	-0.802715
C93	C	1.070024	-1.204372	-0.349536
C94	C	0.995417	-1.256279	-0.355965
C95	C	0.972661	-1.287978	-0.277561
H96	H	1.062878	-1.143841	-0.312438
H97	H	1.112341	-1.251214	-0.329095
H98	H	0.953110	-1.209440	-0.376394
H99	H	1.002542	-1.316822	-0.393048
H100	H	1.014978	-1.334820	-0.257120
H101	H	0.965519	-1.227442	-0.240469
H102	H	0.922042	-1.323209	-0.281913
C103	C	1.075603	-1.001968	-0.345458
C104	C	0.998585	-1.035837	-0.320471
C105	C	0.980496	-0.994147	-0.240072
H106	H	1.073652	-0.926738	-0.344986
H107	H	1.117525	-1.025962	-0.308335
H108	H	0.956674	-1.011838	-0.357584
H109	H	1.000517	-1.111062	-0.320924
H110	H	1.022418	-1.018141	-0.202949
H111	H	0.978548	-0.918918	-0.239608
H112	H	0.928242	-1.017129	-0.223105
C113	C	1.284375	-1.027880	-0.580529
C114	C	1.337385	-1.117890	-0.595689
C115	C	1.414352	-1.087087	-0.623464
H116	H	1.308137	-0.982380	-0.539297
H117	H	1.276865	-0.991441	-0.630333
H118	H	1.344897	-1.154312	-0.545891
H119	H	1.313650	-1.163400	-0.636926
H120	H	1.406841	-1.050648	-0.673268
H121	H	1.438105	-1.041587	-0.582228
H122	H	1.450325	-1.148153	-0.633761
