data_functionalizedCrystal
_audit_creation_method	'MofGen! by Chris Wilmer'
_symmetry_space_group_name_H-M	'P1'
_symmetry_Int_Tables_number	1
_symmetry_cell_setting	triclinic
loop_
_symmetry_equiv_pos_as_xyz
  x,y,z
_cell_length_a	19.188930
_cell_length_b	15.944545
_cell_length_c	15.021413
_cell_angle_alpha	89.990408
_cell_angle_beta	90.003688
_cell_angle_gamma	83.320477
loop_
_atom_site_label
_atom_site_type_symbol
_atom_site_fract_x
_atom_site_fract_y
_atom_site_fract_z
O1	O	0.090022	1.114178	0.073985
O2	O	0.590022	1.614178	0.573985
O3	O	0.101129	0.869586	0.074000
O4	O	0.601129	1.369586	0.574000
O5	O	-0.006062	0.998940	0.073975
O6	O	0.493938	1.498940	0.573975
O7	O	0.197213	0.984823	0.074010
O8	O	0.697213	1.484823	0.574010
O9	O	-0.006056	0.998955	-0.074089
O10	O	0.493944	1.498955	0.425911
O11	O	0.101135	0.869601	-0.074064
O12	O	0.601135	1.369601	0.425936
O13	O	0.090029	1.114193	-0.074080
O14	O	0.590029	1.614193	0.425920
Zn15	Zn	0.095583	0.991899	-0.097580
Zn16	Zn	0.595583	1.491899	0.402420
Zn17	Zn	0.095574	0.991879	0.097501
Zn18	Zn	0.595574	1.491879	0.597501
O19	O	0.197219	0.984838	-0.074054
O20	O	0.697219	1.484838	0.425946
C21	C	0.100672	0.838301	-0.000030
C22	C	0.600672	1.338301	0.499970
C23	C	0.099292	0.745060	-0.000025
C24	C	0.599292	1.245060	0.499975
C25	C	0.028726	0.474691	-0.000047
C26	C	0.528726	0.974691	0.499953
C27	C	0.062750	0.525153	-0.073046
C28	C	0.562750	1.025153	0.426954
C29	C	0.094370	0.409434	-0.000041
C30	C	0.594370	0.909434	0.499959
C31	C	0.062761	0.525118	0.072934
C32	C	0.562761	1.025118	0.572934
C33	C	0.096785	0.574339	-0.000031
C34	C	0.596785	1.074339	0.499969
C35	C	0.128377	0.458668	-0.073101
C36	C	0.628377	0.958668	0.426899
C37	C	0.128378	0.458630	0.072945
C38	C	0.628378	0.958630	0.572945
C39	C	0.162451	0.509059	-0.000073
C40	C	0.662451	1.009059	0.499927
C41	C	0.092977	0.314437	-0.000047
C42	C	0.592977	0.814437	0.499953
C43	C	0.098183	0.669333	-0.000032
C44	C	0.598183	1.169333	0.499968
C45	C	-0.032071	0.998490	-0.000060
C46	C	0.467929	1.498490	0.499940
C47	C	-0.109579	0.997118	-0.000067
C48	C	0.390421	1.497118	0.499933
C49	C	-0.154308	1.073019	-0.000077
C50	C	0.345692	1.573019	0.499923
C51	C	-0.227135	1.071730	-0.000062
C52	C	0.272865	1.571730	0.499938
C53	C	-0.255230	0.994535	-0.000057
C54	C	0.244770	1.494535	0.499943
C55	C	-0.210491	0.918624	-0.000043
C56	C	0.289509	1.418624	0.499957
C57	C	-0.137666	0.919916	-0.000048
C58	C	0.362334	1.419916	0.499952
N59	N	-0.363384	0.935534	-0.050442
N60	N	0.136616	1.435534	0.449558
N61	N	-0.432566	0.934313	-0.050439
N62	N	0.067434	1.434313	0.449561
C63	C	-0.474649	0.990640	-0.000038
C64	C	0.025351	1.490640	0.499962
N65	N	-0.444938	1.048247	0.050347
N66	N	0.055062	1.548247	0.550347
N67	N	-0.375750	1.049471	0.050340
N68	N	0.124250	1.549471	0.550340
C69	C	-0.334196	0.993126	-0.000050
C70	C	0.165804	1.493126	0.499950
C71	C	-0.598346	1.065148	-0.000031
C72	C	-0.098346	1.565148	0.499969
C73	C	-0.671174	1.063855	-0.000011
C74	C	-0.171174	1.563855	0.499989
C75	C	-0.654528	0.910748	-0.000000
C76	C	-0.154528	1.410748	0.500000
C77	C	-0.581702	0.912042	-0.000011
C78	C	-0.081702	1.412042	0.499989
C79	C	-0.553615	0.989245	-0.000031
C80	C	-0.053615	1.489245	0.499969
C81	C	0.223228	0.985288	-0.000017
C82	C	0.723228	1.485288	0.499983
C83	C	0.300736	0.986660	-0.000004
C84	C	0.800736	1.486660	0.499996
C85	C	0.090486	1.145477	-0.000047
C86	C	0.590486	1.645477	0.499953
C87	C	0.091866	1.238719	-0.000047
C88	C	0.591866	1.738719	0.499953
N89	N	0.095589	0.991919	-0.230718
N90	N	0.595589	1.491919	0.269282
C91	C	0.046012	1.051744	-0.470389
C92	C	0.546012	1.551744	0.029611
C93	C	0.032450	0.975895	-0.529716
C94	C	0.532450	1.475895	-0.029716
C95	C	0.095580	0.991899	-0.412325
C96	C	0.595580	1.491899	0.087675
C97	C	0.109101	1.067730	-0.529739
C98	C	0.609101	1.567730	-0.029739
C99	C	0.095570	0.991887	-0.587749
C100	C	0.595570	1.491887	-0.087749
C101	C	0.081987	0.916012	-0.470345
C102	C	0.581987	1.416012	0.029655
C103	C	0.158664	1.007897	-0.470363
C104	C	0.658664	1.507897	0.029637
C105	C	0.145129	0.931993	-0.529663
C106	C	0.645129	1.431993	-0.029663
C107	C	0.095584	0.991907	-0.311267
C108	C	0.595584	1.491907	0.188733
C109	C	0.095566	0.991870	-0.688804
C110	C	0.595566	1.491870	-0.188804
N111	N	0.095563	0.991866	0.230639
N112	N	0.595563	1.491866	0.730639
H113	H	0.219028	0.524339	-0.000106
H114	H	0.719028	1.024339	0.499894
H115	H	-0.131445	1.135883	-0.000089
H116	H	0.368555	1.635883	0.499911
H117	H	0.156082	0.429761	-0.134882
H118	H	0.656082	0.929761	0.365118
H119	H	-0.020903	0.962352	-0.555787
H120	H	0.479097	1.462352	-0.055787
O121	O	0.068249	0.839540	-0.439210
O122	O	0.568249	1.339540	0.060790
C123	C	0.068415	0.840472	-0.345355
C124	C	0.568415	1.340472	0.154645
H125	H	0.057434	0.908371	-0.320802
H126	H	0.557434	1.408371	0.179198
H127	H	0.026075	0.802195	-0.319423
H128	H	0.526075	1.302195	0.180577
H129	H	0.121868	0.811604	-0.319944
H130	H	0.621868	1.311604	0.180056
O131	O	-0.270625	1.145440	0.000080
O132	O	0.229375	1.645440	0.500080
C133	C	-0.313257	1.149263	0.076752
C134	C	0.186743	1.649263	0.576752
H135	H	-0.286583	1.106217	0.130360
H136	H	0.213417	1.606217	0.630360
H137	H	-0.321448	1.216955	0.102475
H138	H	0.178552	1.716955	0.602475
H139	H	-0.366213	1.127711	0.059419
H140	H	0.133787	1.627711	0.559419
H141	H	0.187045	0.881324	-0.555526
H142	H	0.687045	1.381324	-0.055526
O143	O	-0.681776	0.835738	0.000164
O144	O	-0.181776	1.335738	0.500164
C145	C	-0.658892	0.789469	0.076839
C146	C	-0.158892	1.289469	0.576839
H147	H	-0.643736	0.834610	0.130430
H148	H	-0.143736	1.334610	0.630430
H149	H	-0.703006	0.753891	0.102587
H150	H	-0.203006	1.253891	0.602587
H151	H	-0.611433	0.742490	0.059500
H152	H	-0.111433	1.242490	0.559500
O153	O	0.222265	1.024227	-0.439270
O154	O	0.722265	1.524227	0.060730
C155	C	0.236329	1.104274	-0.469498
C156	C	0.736329	1.604274	0.030502
H157	H	0.184853	1.144333	-0.486178
H158	H	0.684853	1.644333	0.013822
H159	H	0.264860	1.136750	-0.415182
H160	H	0.764860	1.636750	0.084818
H161	H	0.270645	1.096469	-0.531576
H162	H	0.770645	1.596469	-0.031576
O163	O	0.122688	1.144314	-0.560723
O164	O	0.622688	1.644314	-0.060723
C165	C	0.070302	1.207218	-0.530521
C166	C	0.570302	1.707218	-0.030521
H167	H	0.044712	1.184102	-0.468052
H168	H	0.544712	1.684102	0.031948
H169	H	0.094942	1.267143	-0.514495
H170	H	0.594942	1.767143	-0.014495
H171	H	0.028895	1.221274	-0.584591
H172	H	0.528895	1.721274	-0.084591
H173	H	-0.233370	0.855772	-0.000036
H174	H	0.266630	1.355772	0.499964
O175	O	-0.538220	0.838333	0.000146
O176	O	-0.038220	1.338333	0.500146
C177	C	-0.495576	0.834500	0.076815
C178	C	0.004424	1.334500	0.576815
H179	H	-0.522239	0.877547	0.130411
H180	H	-0.022239	1.377547	0.630411
H181	H	-0.487388	0.766807	0.102560
H182	H	0.012612	1.266807	0.602560
H183	H	-0.442620	0.856045	0.059472
H184	H	0.057380	1.356045	0.559472
H185	H	0.035030	0.554194	-0.134771
H186	H	0.535030	1.054194	0.365229
O187	O	-0.038726	0.456302	-0.000296
O188	O	0.461274	0.956302	0.499704
C189	C	-0.073088	0.490366	-0.077409
C190	C	0.426912	0.990366	0.422591
H191	H	-0.032548	0.499542	-0.130934
H192	H	0.467452	0.999542	0.369066
H193	H	-0.110497	0.445244	-0.102892
H194	H	0.389503	0.945244	0.397108
H195	H	-0.104007	0.553854	-0.060758
H196	H	0.395993	1.053854	0.439242
H197	H	0.156074	0.429574	0.134672
H198	H	0.656074	0.929574	0.634672
H199	H	-0.575477	1.128010	-0.000043
H200	H	-0.075477	1.628010	0.499957
H201	H	0.035024	0.554133	0.134645
H202	H	0.535024	1.054133	0.634645
O203	O	-0.094311	0.846105	-0.000083
O204	O	0.405689	1.346105	0.499917
C205	C	-0.134720	0.777691	-0.000048
C206	C	0.365280	1.277691	0.499952
H207	H	-0.189077	0.799212	-0.028074
H208	H	0.310923	1.299212	0.471926
H209	H	-0.107864	0.724529	-0.043032
H210	H	0.392136	1.224529	0.456968
H211	H	-0.139896	0.754010	0.070990
H212	H	0.360104	1.254010	0.570990
H213	H	-0.707593	1.125666	-0.000013
H214	H	-0.207593	1.625666	0.499987
H215	H	0.004071	1.102300	-0.444362
H216	H	0.504071	1.602300	0.055638
