data_functionalizedCrystal
_audit_creation_method	'MofGen! by Chris Wilmer'
_symmetry_space_group_name_H-M	'P1'
_symmetry_Int_Tables_number	1
_symmetry_cell_setting	triclinic
loop_
_symmetry_equiv_pos_as_xyz
  x,y,z
_cell_length_a	11.792241
_cell_length_b	15.995350
_cell_length_c	10.268362
_cell_angle_alpha	89.996947
_cell_angle_beta	89.999626
_cell_angle_gamma	83.842895
loop_
_atom_site_label
_atom_site_type_symbol
_atom_site_fract_x
_atom_site_fract_y
_atom_site_fract_z
O1	O	1.505952	0.114763	-0.108167
O2	O	1.175512	0.126591	-0.108197
O3	O	1.349764	-0.001170	-0.108180
O4	O	1.331699	0.242524	-0.108184
O5	O	1.349749	-0.001175	0.108421
O6	O	1.175497	0.126586	0.108404
O7	O	1.505936	0.114758	0.108434
Cu8	Cu	1.340715	0.120671	0.128196
Cu9	Cu	1.340733	0.120678	-0.127959
O10	O	1.331684	0.242518	0.108417
C11	C	1.133220	0.125845	0.000100
C12	C	1.007224	0.123621	0.000088
C13	C	1.349010	-0.032370	0.000118
C14	C	1.346771	-0.125331	0.000111
C15	C	0.776546	0.119532	0.000126
C16	C	0.904913	0.121804	0.000105
C17	C	1.338730	-0.463115	0.000114
C18	C	1.214630	-0.416244	-0.000383
C19	C	1.216870	-0.319544	0.000106
C20	C	1.342718	-0.295536	0.000112
C21	C	1.403920	-0.336339	0.123804
C22	C	1.400803	-0.432989	0.123908
C23	C	1.403383	-0.433329	-0.122408
C24	C	1.403354	-0.336384	-0.124042
C25	C	1.344979	-0.200829	0.000115
C26	C	1.336473	-0.557823	0.000120
C27	C	1.548229	0.115504	0.000134
C28	C	1.674224	0.117727	0.000137
C29	C	1.332438	0.273719	0.000116
C30	C	1.334677	0.366680	0.000115
N31	N	1.340711	0.120666	0.308362
N32	N	1.340746	0.120676	-0.308125
C33	C	1.340727	0.120676	0.574033
C34	C	1.340715	0.120673	0.426195
H35	H	1.165035	-0.434999	-0.089086
H36	H	1.362816	-0.454051	-0.216159
H37	H	1.356161	-0.451495	0.216366
H38	H	1.494881	-0.464675	-0.123234
H39	H	1.495129	-0.320605	-0.131506
C40	C	1.152108	-0.282781	0.118480
C41	C	1.039121	-0.301959	0.112839
C42	C	0.979435	-0.268119	0.221881
H43	H	1.153116	-0.223483	0.119315
H44	H	1.187249	-0.306131	0.195448
H45	H	1.003988	-0.278606	0.035892
H46	H	1.038078	-0.361251	0.112023
H47	H	1.014576	-0.291469	0.298849
H48	H	0.980451	-0.208822	0.222707
H49	H	0.902770	-0.281133	0.218074
H50	H	1.496377	-0.321794	0.128409
C51	C	1.522204	-0.475601	0.131361
C52	C	1.520317	-0.562974	0.131487
C53	C	1.632127	-0.602252	0.138349
H54	H	1.557267	-0.458943	0.209067
H55	H	1.564263	-0.459644	0.058202
H56	H	1.478274	-0.578925	0.204640
H57	H	1.485275	-0.579657	0.053788
H58	H	1.674186	-0.586294	0.065189
H59	H	1.667181	-0.585587	0.216055
H60	H	1.630862	-0.661538	0.138423
C61	C	1.152617	-0.282082	-0.118155
C62	C	1.111432	-0.346513	-0.190701
C63	C	1.052215	-0.312038	-0.299640
H64	H	1.202533	-0.253574	-0.170629
H65	H	1.090449	-0.243506	-0.090361
H66	H	1.173592	-0.385074	-0.218495
H67	H	1.061501	-0.375026	-0.138265
H68	H	0.990047	-0.273461	-0.271847
H69	H	1.102139	-0.283530	-0.352104
H70	H	1.024256	-0.355747	-0.348870
H71	H	1.361400	-0.308153	0.215848
H72	H	1.358608	-0.309336	-0.215547
C73	C	1.148644	-0.442765	0.117057
C74	C	1.052453	-0.479364	0.074773
C75	C	0.991653	-0.503817	0.182922
H76	H	1.125260	-0.394888	0.169052
H77	H	1.196035	-0.482419	0.167099
H78	H	1.005070	-0.439712	0.024752
H79	H	1.075805	-0.527249	0.022792
H80	H	1.039044	-0.543472	0.232964
H81	H	0.968277	-0.455937	0.234910
H82	H	0.926387	-0.528659	0.154247
