data_functionalizedCrystal
_audit_creation_method	'MofGen! by Chris Wilmer'
_symmetry_space_group_name_H-M	'P1'
_symmetry_Int_Tables_number	1
_symmetry_cell_setting	triclinic
loop_
_symmetry_equiv_pos_as_xyz
  x,y,z
_cell_length_a	9.130313
_cell_length_b	19.288864
_cell_length_c	10.654551
_cell_angle_alpha	96.189195
_cell_angle_beta	89.997355
_cell_angle_gamma	90.014603
loop_
_atom_site_label
_atom_site_type_symbol
_atom_site_fract_x
_atom_site_fract_y
_atom_site_fract_z
O1	O	-0.122261	-0.922370	0.156657
O2	O	-0.122159	-0.720248	0.177789
O3	O	-0.122213	-0.825956	-0.015615
O4	O	-0.122207	-0.816663	0.350062
O5	O	0.121386	-0.825955	-0.015626
O6	O	0.121440	-0.720247	0.177779
O7	O	0.121338	-0.922369	0.156647
Cu8	Cu	0.143631	-0.821308	0.167212
Cu9	Cu	-0.144452	-0.821309	0.167224
O10	O	0.121392	-0.816661	0.350052
C11	C	-0.000347	-0.694367	0.177104
C12	C	-0.000309	-0.617250	0.175063
N13	N	-0.347075	-0.821311	0.167223
C14	C	-0.000417	-0.825273	-0.062404
C15	C	-0.000425	-0.823231	-0.201803
C16	C	-0.423751	-0.868207	0.081748
C17	C	-0.577088	-0.868209	0.081741
C18	C	-0.577059	-0.774414	0.252687
C19	C	-0.423725	-0.774416	0.252700
C20	C	-0.423769	-0.922356	-0.016950
C21	C	-0.577105	-0.922359	-0.016958
N22	N	0.346254	-0.821312	0.167203
C23	C	-0.000477	-0.948251	0.157332
C24	C	-0.000525	-1.025368	0.159373
C25	C	-0.000330	-0.573297	0.288545
C26	C	-0.000346	-0.500837	0.286627
C27	C	-0.000371	-0.472334	0.171221
C28	C	-0.000341	-0.516296	0.057725
C29	C	-0.000310	-0.588754	0.059646
C30	C	-0.085765	-0.363478	0.080504
C31	C	-0.085805	-0.291021	0.078587
C32	C	-0.000459	-0.248849	0.165292
C33	C	0.084907	-0.279142	0.253934
C34	C	0.084938	-0.351600	0.255855
C35	C	-0.000403	-0.393766	0.169126
C36	C	-0.000496	-0.126327	0.276702
C37	C	-0.000503	-0.053866	0.274779
C38	C	-0.000513	-0.069327	0.045875
C39	C	-0.000491	-0.141786	0.047800
C40	C	-0.000490	-0.170281	0.163217
C41	C	-0.133208	-0.822274	-0.267289
C42	C	-0.133200	-0.820349	-0.398268
C43	C	0.132384	-0.820342	-0.398265
C44	C	0.132375	-0.822261	-0.267287
C45	C	-0.286542	-0.822281	-0.267293
C46	C	-0.286534	-0.820356	-0.398272
C47	C	-0.000408	-0.817344	0.396840
C48	C	-0.000409	-0.819386	0.536240
H49	H	-0.361297	-0.736236	0.322311
Cl50	Cl	0.299324	-0.819121	-0.480595
H51	H	-0.155321	-0.266362	0.006415
Cl52	Cl	-0.360040	-0.900489	-0.223305
H53	H	-0.618698	-0.910595	-0.113299
Cl54	Cl	-0.193067	-0.416487	-0.028508
H55	H	-0.334100	-0.769700	-0.426753
H56	H	-0.639485	-0.736233	0.322280
Cl57	Cl	-0.359568	-1.004713	0.014783
H58	H	-0.376183	-0.905574	-0.107871
H59	H	-0.000331	-0.596492	0.382526
Cl60	Cl	-0.650595	-1.000151	0.028873
Cl61	Cl	-0.377450	-0.894463	-0.471335
H62	H	-0.000482	-0.177574	-0.044609
H63	H	-0.000359	-0.465044	0.379040
Cl64	Cl	0.192206	-0.226134	0.362943
Cl65	Cl	-0.000363	-0.480465	-0.087356
Cl66	Cl	-0.000285	-0.644013	-0.083028
H67	H	0.154451	-0.376262	0.328027
Cl68	Cl	-0.000480	-0.162153	0.421794
H69	H	-0.000512	-0.018079	0.367193
H70	H	-0.000624	-0.046120	-0.048091
Cl71	Cl	-0.377407	-0.748180	-0.194240
Cl72	Cl	0.299309	-0.823442	-0.184960
