data_functionalizedCrystal
_audit_creation_method	'MofGen! by Chris Wilmer'
_symmetry_space_group_name_H-M	'P1'
_symmetry_Int_Tables_number	1
_symmetry_cell_setting	triclinic
loop_
_symmetry_equiv_pos_as_xyz
  x,y,z
_cell_length_a	17.639617
_cell_length_b	25.639239
_cell_length_c	17.640968
_cell_angle_alpha	78.768889
_cell_angle_beta	70.333968
_cell_angle_gamma	101.222911
loop_
_atom_site_label
_atom_site_type_symbol
_atom_site_fract_x
_atom_site_fract_y
_atom_site_fract_z
Zn1	Zn	1.354419	0.069163	-0.721260
Zn2	Zn	1.854419	0.569163	-0.221260
Zn3	Zn	1.326398	-0.040454	-0.583392
Zn4	Zn	1.826398	0.459546	-0.083392
Zn5	Zn	1.188687	0.024849	-0.555521
Zn6	Zn	1.688687	0.524849	-0.055521
Zn7	Zn	1.216487	-0.040403	-0.693275
Zn8	Zn	1.716487	0.459597	-0.193275
O9	O	1.271498	0.003289	-0.638362
O10	O	1.771498	0.503289	-0.138362
O11	O	1.466059	0.073146	-0.726347
O12	O	1.966059	0.573146	-0.226347
O13	O	1.284769	-0.050359	-0.464346
O14	O	1.784769	0.449641	0.035654
O15	O	1.210765	0.103912	-0.577554
O16	O	1.710765	0.603912	-0.077554
O17	O	1.445472	-0.007389	-0.625056
O18	O	1.945472	0.492611	-0.125056
O19	O	1.332527	0.136469	-0.699322
O20	O	1.832527	0.636469	-0.199322
O21	O	1.183593	-0.002380	-0.443869
O22	O	1.683593	0.497620	0.056131
O23	O	1.077018	-0.002331	-0.550418
O24	O	1.577018	0.497669	-0.050418
O25	O	1.258146	-0.007302	-0.812336
O26	O	1.758146	0.492698	-0.312336
O27	O	1.097442	-0.050272	-0.651625
O28	O	1.597442	0.449728	-0.151625
O29	O	1.359484	0.073196	-0.832896
O30	O	1.859484	0.573196	-0.332896
O31	O	1.311725	-0.113632	-0.597921
O32	O	1.811725	0.386368	-0.097921
O33	O	1.230974	-0.113594	-0.678651
O34	O	1.730974	0.386406	-0.178651
C35	C	1.057319	-0.031105	-0.594961
C36	C	1.557319	0.468895	-0.094961
C37	C	0.965696	-0.045828	-0.576413
C38	C	1.465696	0.454172	-0.076413
C39	C	0.718001	0.115182	-0.779469
C40	C	1.218001	0.615182	-0.279469
C41	C	0.631904	0.101332	-0.762024
C42	C	1.131904	0.601332	-0.262024
C43	C	0.610458	0.017556	-0.656398
C44	C	1.110458	0.517556	-0.156398
C45	C	0.696555	0.031398	-0.673837
C46	C	1.196555	0.531398	-0.173837
C47	C	0.750320	0.080212	-0.735373
C48	C	1.250320	0.580212	-0.235373
C49	C	0.728875	-0.003571	-0.629741
C50	C	1.228875	0.496429	-0.129741
C51	C	0.814964	0.010271	-0.647176
C52	C	1.314964	0.510271	-0.147176
C53	C	0.868734	0.059083	-0.708707
C54	C	1.368734	0.559083	-0.208707
C55	C	0.836410	0.094055	-0.752808
C56	C	1.336410	0.594055	-0.252808
C57	C	0.675107	-0.052383	-0.568202
C58	C	1.175107	0.447617	-0.068202
C59	C	0.707426	-0.087353	-0.524105
C60	C	1.207426	0.412647	-0.024105
C61	C	0.793518	-0.073513	-0.541544
C62	C	1.293518	0.426487	-0.041544
C63	C	0.847288	-0.024700	-0.603075
C64	C	1.347288	0.475300	-0.103075
C65	C	0.825842	-0.108484	-0.497443
C66	C	1.325842	0.391516	0.002557
C67	C	0.911931	-0.094641	-0.514878
C68	C	1.411931	0.405359	-0.014878
C69	C	0.933377	-0.010858	-0.620510
C70	C	1.433377	0.489142	-0.120510
C71	C	1.271352	-0.132582	-0.638296
C72	C	1.771352	0.367418	-0.138296
C73	C	1.271370	-0.190692	-0.638311
C74	C	1.771370	0.309308	-0.138311
C75	C	1.313700	-0.551001	-0.596443
C76	C	1.813700	-0.051001	-0.096443
C77	C	1.313735	-0.605599	-0.596461
C78	C	1.813735	-0.105599	-0.096461
O79	O	1.349573	-0.633820	-0.560793
O80	O	1.849573	-0.133820	-0.060793
N81	N	1.271654	-0.632918	-0.638446
N82	N	1.771654	-0.132918	-0.138446
C83	C	1.229543	-0.605636	-0.680423
C84	C	1.729543	-0.105636	-0.180423
O85	O	1.193754	-0.633886	-0.716137
O86	O	1.693754	-0.133886	-0.216137
C87	C	1.229514	-0.551038	-0.680410
C88	C	1.729514	-0.051038	-0.180410
C89	C	1.271591	-0.523723	-0.638415
C90	C	1.771591	-0.023723	-0.138415
C91	C	1.355774	-0.523686	-0.554452
C92	C	1.855774	-0.023686	-0.054452
C93	C	1.355739	-0.469093	-0.554434
C94	C	1.855739	0.030907	-0.054434
C95	C	1.313629	-0.441815	-0.596406
C96	C	1.813629	0.058185	-0.096406
C97	C	1.271555	-0.469130	-0.638397
C98	C	1.771555	0.030870	-0.138397
C99	C	1.187409	-0.523755	-0.722392
C100	C	1.687409	-0.023755	-0.222392
C101	C	1.187385	-0.469153	-0.722376
C102	C	1.687385	0.030847	-0.222376
C103	C	1.229461	-0.441839	-0.680381
C104	C	1.729461	0.058161	-0.180381
C105	C	1.229410	-0.387258	-0.680350
C106	C	1.729410	0.112742	-0.180350
N107	N	1.271491	-0.359939	-0.638365
N108	N	1.771491	0.140061	-0.138365
C109	C	1.313601	-0.387217	-0.596393
C110	C	1.813601	0.112783	-0.096393
C111	C	1.229608	-0.720294	-0.680448
C112	C	1.729608	-0.220294	-0.180448
C113	C	1.229631	-0.774892	-0.680457
C114	C	1.729631	-0.274892	-0.180457
C115	C	1.313824	-0.774851	-0.596495
C116	C	1.813824	-0.274851	-0.096495
C117	C	1.313795	-0.720254	-0.596482
C118	C	1.813795	-0.220254	-0.096482
C119	C	1.271689	-0.692975	-0.638463
C120	C	1.771689	-0.192975	-0.138463
C121	C	1.313522	-0.272567	-0.596356
C122	C	1.813522	0.227433	-0.096356
C123	C	1.313480	-0.217970	-0.596338
C124	C	1.813480	0.282030	-0.096338
C125	C	1.229290	-0.218015	-0.680303
C126	C	1.729290	0.281985	-0.180303
C127	C	1.229329	-0.272608	-0.680318
C128	C	1.729329	0.227392	-0.180318
C129	C	1.271451	-0.299883	-0.638343
C130	C	1.771451	0.200117	-0.138343
O131	O	1.193592	-0.359002	-0.716002
O132	O	1.693592	0.140998	-0.216002
O133	O	1.349393	-0.358957	-0.560694
O134	O	1.849393	0.141043	-0.060694
C135	C	1.486513	0.037816	-0.681932
C136	C	1.986513	0.537816	-0.181932
C137	C	1.578140	0.052529	-0.700500
C138	C	2.078140	0.552529	-0.200500
C139	C	1.315041	0.037896	-0.853361
C140	C	1.815041	0.537896	-0.353361
C141	C	1.333597	0.052643	-0.944980
C142	C	1.833597	0.552643	-0.444980
C143	C	1.271671	0.139697	-0.638450
C144	C	1.771671	0.639697	-0.138450
C145	C	1.271744	0.197826	-0.638488
C146	C	1.771744	0.697826	-0.138488
C147	C	1.130849	-0.108410	-1.192789
C148	C	1.630849	0.391590	-0.692789
C149	C	1.148302	-0.094543	-1.278883
C150	C	1.648302	0.405457	-0.778883
C151	C	1.253817	-0.010728	-1.300280
C152	C	1.753817	0.489272	-0.800280
C153	C	1.236369	-0.024586	-1.214186
C154	C	1.736369	0.475414	-0.714186
C155	C	1.174885	-0.073428	-1.160446
C156	C	1.674885	0.426572	-0.660446
C157	C	1.280406	0.010396	-1.181843
C158	C	1.780406	0.510396	-0.681843
C159	C	1.262963	-0.003463	-1.095757
C160	C	1.762963	0.496537	-0.595757
C161	C	1.201483	-0.052304	-1.042012
C162	C	1.701483	0.447696	-0.542012
C163	C	1.157442	-0.087287	-1.074360
C164	C	1.657442	0.412713	-0.574360
C165	C	1.341894	0.059236	-1.235585
C166	C	1.841894	0.559236	-0.735585
C167	C	1.385930	0.094218	-1.203242
C168	C	1.885930	0.594218	-0.703242
C169	C	1.368483	0.080361	-1.117154
C170	C	1.868483	0.580361	-0.617154
C171	C	1.307004	0.031520	-1.063409
C172	C	1.807004	0.531520	-0.563409
C173	C	1.412524	0.115344	-1.084806
C174	C	1.912524	0.615344	-0.584806
C175	C	1.395081	0.101485	-0.998720
C176	C	1.895081	0.601485	-0.498720
C177	C	1.289561	0.017661	-0.977323
C178	C	1.789561	0.517661	-0.477323
C179	C	1.228171	-0.031138	-0.424209
C180	C	1.728171	0.468862	0.075791
C181	C	1.209775	-0.045712	-0.332622
C182	C	1.709775	0.454288	0.167378
H183	H	0.880190	0.133802	-0.802919
H184	H	1.380190	0.633802	-0.302919
H185	H	1.239474	-0.022102	-0.933561
H186	H	1.739474	0.477898	-0.433561
Br187	Br	0.752864	-0.174723	-0.413922
Br188	Br	1.252864	0.325277	0.086078
Br189	Br	0.955800	-0.142103	-0.455039
Br190	Br	1.455800	0.357897	0.044961
Br191	Br	1.073989	-0.153569	-1.001418
Br192	Br	1.573989	0.346431	-0.501418
Br193	Br	1.172201	-0.309686	-0.737287
Br194	Br	1.672201	0.190314	-0.237287
H195	H	1.348115	-0.797070	-0.562323
H196	H	1.848115	-0.297070	-0.062323
H197	H	1.195002	-0.195797	-0.714473
H198	H	1.695002	0.304203	-0.214473
Br199	Br	0.790978	0.181426	-0.862992
Br200	Br	1.290978	0.681426	-0.362992
Br201	Br	1.454850	0.148958	-0.954822
Br202	Br	1.954850	0.648958	-0.454822
Br203	Br	1.130240	-0.432134	-0.779357
Br204	Br	1.630240	0.067866	-0.279357
Br205	Br	1.469374	0.160499	-1.276182
Br206	Br	1.969374	0.660499	-0.776182
H207	H	1.303879	0.029039	-1.344047
H208	H	1.803879	0.529039	-0.844047
Br209	Br	0.558268	-0.071166	-0.544532
Br210	Br	1.058268	0.428834	-0.044532
Br211	Br	1.412933	-0.560696	-0.497485
Br212	Br	1.912933	-0.060696	0.002515
H213	H	0.605594	0.129814	-0.797933
H214	H	1.105594	0.629814	-0.297933
H215	H	1.347743	-0.195732	-0.562138
H216	H	1.847743	0.304268	-0.062138
Br217	Br	1.047395	-0.174692	-1.119847
Br218	Br	1.547395	0.325308	-0.619847
H219	H	1.462590	0.155109	-1.128574
H220	H	1.962590	0.655109	-0.628574
Br221	Br	1.172510	-0.811960	-0.737438
Br222	Br	1.672510	-0.311960	-0.237438
Br223	Br	0.634452	-0.153596	-0.440591
Br224	Br	1.134452	0.346404	0.059409
H225	H	1.348058	-0.698017	-0.562287
H226	H	1.848058	-0.198017	-0.062287
H227	H	1.112438	-0.123033	-1.305211
H228	H	1.612438	0.376967	-0.805211
H229	H	1.347824	-0.294767	-0.562179
H230	H	1.847824	0.205233	-0.062179
Br231	Br	1.412860	-0.432027	-0.497452
Br232	Br	1.912860	0.067973	0.002548
H233	H	0.938832	0.070354	-0.722898
H234	H	1.438832	0.570354	-0.222898
Br235	Br	1.365572	0.078043	-1.352420
Br236	Br	1.865572	0.578043	-0.852420
Br237	Br	1.172451	-0.683280	-0.737422
Br238	Br	1.672451	-0.183280	-0.237422
H239	H	1.153141	-0.545987	-0.756584
H240	H	1.653141	-0.045987	-0.256584
Br241	Br	1.177814	-0.071118	-0.925180
Br242	Br	1.677814	0.428882	-0.425180
H243	H	0.566671	-0.022186	-0.606294
H244	H	1.066671	0.477814	-0.106294
Br245	Br	1.006354	0.055386	-0.704033
Br246	Br	1.506354	0.555386	-0.204033
