data_functionalizedCrystal
_audit_creation_method	'MofGen! by Chris Wilmer'
_symmetry_space_group_name_H-M	'P1'
_symmetry_Int_Tables_number	1
_symmetry_cell_setting	triclinic
loop_
_symmetry_equiv_pos_as_xyz
  x,y,z
_cell_length_a	14.908571
_cell_length_b	13.897448
_cell_length_c	14.908308
_cell_angle_alpha	93.267188
_cell_angle_beta	90.175053
_cell_angle_gamma	86.713891
loop_
_atom_site_label
_atom_site_type_symbol
_atom_site_fract_x
_atom_site_fract_y
_atom_site_fract_z
Zn1	Zn	1.345318	-0.503381	-0.587582
Zn2	Zn	1.353905	-0.655952	-0.437223
Zn3	Zn	1.203632	-0.484854	-0.428580
Zn4	Zn	1.194933	-0.654806	-0.578874
O5	O	1.274447	-0.574748	-0.508065
O6	O	1.472283	-0.531853	-0.574898
O7	O	1.341206	-0.625981	-0.310251
O8	O	1.222474	-0.352335	-0.449699
O9	O	1.478592	-0.643947	-0.464429
O10	O	1.326570	-0.365946	-0.566518
O11	O	1.230801	-0.500276	-0.303902
O12	O	1.076652	-0.499165	-0.441256
O13	O	1.207647	-0.641993	-0.705854
O14	O	1.070260	-0.624028	-0.551676
O15	O	1.318134	-0.530742	-0.712252
O16	O	1.332770	-0.790777	-0.455986
O17	O	1.215974	-0.789935	-0.560056
C18	C	1.040831	-0.559463	-0.494584
C19	C	0.940888	-0.552948	-0.488838
C20	C	0.746485	-0.670908	-0.592867
C21	C	0.652579	-0.664790	-0.587471
C22	C	0.659168	-0.534590	-0.472656
C23	C	0.753074	-0.540708	-0.478051
C24	C	0.796729	-0.608870	-0.538158
C25	C	0.890637	-0.614992	-0.543549
C26	C	0.897224	-0.484788	-0.428738
C27	C	0.803318	-0.478670	-0.423343
C28	C	1.274383	-0.825357	-0.508035
C29	C	1.274436	-0.932575	-0.508057
C30	C	1.274527	-1.128880	-0.508119
C31	C	1.274474	-1.019642	-0.508087
C32	C	1.508975	-0.590094	-0.521599
C33	C	1.608918	-0.596634	-0.527367
C34	C	1.260963	-0.588307	-0.742590
C35	C	1.255216	-0.594084	-0.842531
C36	C	1.274535	-0.323164	-0.508116
C37	C	1.274572	-0.215954	-0.508138
C38	C	1.359466	-0.489073	-1.036993
C39	C	1.354070	-0.494498	-1.130897
C40	C	1.239023	-0.610355	-1.124242
C41	C	1.244420	-0.604930	-1.030339
C42	C	1.304644	-0.544287	-0.986718
C43	C	1.310044	-0.538868	-0.892813
C44	C	1.194994	-0.654719	-0.886160
C45	C	1.189597	-0.660144	-0.980064
C46	C	1.287931	-0.561177	-0.274455
C47	C	1.293851	-0.555139	-0.174525
H48	H	0.782030	-0.726414	-0.641803
O49	O	1.407288	-0.440722	-1.179632
C50	C	1.449293	-0.281157	-1.210944
C51	C	1.388985	-0.341949	-1.155678
H52	H	1.434503	-0.201287	-1.191611
H53	H	1.522868	-0.301688	-1.196641
H54	H	1.435110	-0.295499	-1.285549
H55	H	1.403088	-0.327639	-1.081056
H56	H	1.315429	-0.321407	-1.170057
O57	O	0.760767	-0.412541	-0.364982
C58	C	0.619018	-0.345363	-0.305832
C59	C	0.667090	-0.420314	-0.371950
H60	H	0.543271	-0.351609	-0.311456
H61	H	0.641561	-0.359189	-0.234337
H62	H	0.636639	-0.269749	-0.322800
H63	H	0.649491	-0.495958	-0.355064
H64	H	0.644543	-0.406404	-0.443425
H65	H	0.623607	-0.479089	-0.423726
O66	O	0.946165	-0.424565	-0.375681
C67	C	1.093754	-0.376336	-0.333057
C68	C	1.038437	-0.444573	-0.393213
H69	H	1.168366	-0.392502	-0.347196
H70	H	1.074462	-0.298281	-0.347911
H71	H	1.079381	-0.387752	-0.259475
H72	H	1.052781	-0.433244	-0.466814
H73	H	1.057738	-0.522604	-0.378282
O74	O	1.418067	-0.430316	-0.994581
C75	C	1.545529	-0.419159	-0.895523
C76	C	1.479234	-0.485812	-0.943516
H77	H	1.594988	-0.463998	-0.854211
H78	H	1.583858	-0.380650	-0.947553
H79	H	1.506773	-0.363463	-0.849226
H80	H	1.517921	-0.541562	-0.989811
H81	H	1.440905	-0.524250	-0.891438
O82	O	0.603682	-0.725089	-0.640483
C83	C	0.497007	-0.849163	-0.646287
C84	C	0.552317	-0.780908	-0.586142
H85	H	0.455479	-0.894325	-0.602377
H86	H	0.450293	-0.804860	-0.690830
H87	H	0.544361	-0.898884	-0.690192
H88	H	0.505031	-0.731173	-0.542182
H89	H	0.599041	-0.825271	-0.541659
H90	H	1.359083	-0.489491	-0.857299
O91	O	1.180589	-0.669225	-1.166767
C92	C	1.121224	-0.728839	-1.308484
C93	C	1.187461	-0.662155	-1.260440
H94	H	1.126743	-0.723129	-1.384225
H95	H	1.138031	-0.806614	-1.291001
H96	H	1.049805	-0.706086	-1.285779
H97	H	1.258902	-0.684819	-1.283119
H98	H	1.170576	-0.584394	-1.277923
H99	H	1.140563	-0.709515	-1.015593
H100	H	1.150356	-0.699682	-0.845216
H101	H	0.926180	-0.670495	-0.592489
