data_functionalizedCrystal
_audit_creation_method	'MofGen! by Chris Wilmer'
_symmetry_space_group_name_H-M	'P1'
_symmetry_Int_Tables_number	1
_symmetry_cell_setting	triclinic
loop_
_symmetry_equiv_pos_as_xyz
  x,y,z
_cell_length_a	19.188930
_cell_length_b	19.188930
_cell_length_c	17.666332
_cell_angle_alpha	90.011603
_cell_angle_beta	89.976766
_cell_angle_gamma	96.855221
loop_
_atom_site_label
_atom_site_type_symbol
_atom_site_fract_x
_atom_site_fract_y
_atom_site_fract_z
O1	O	0.926150	-0.087169	-0.063200
O2	O	1.426150	0.412831	0.436800
O3	O	0.722838	-0.098903	-0.063149
O4	O	1.222838	0.401097	0.436851
O5	O	0.830361	0.008620	-0.063161
O6	O	1.330361	0.508620	0.436839
O7	O	0.818627	-0.194692	-0.063188
O8	O	1.318627	0.305308	0.436812
O9	O	0.830342	0.008625	0.062735
O10	O	1.330342	0.508625	0.562735
O11	O	0.722820	-0.098897	0.062747
O12	O	1.222820	0.401103	0.562747
O13	O	0.926131	-0.087163	0.062697
O14	O	1.426131	0.412837	0.562697
Cu15	Cu	0.824473	-0.093030	0.074217
Cu16	Cu	1.324473	0.406970	0.574217
Cu17	Cu	0.824496	-0.093036	-0.074670
Cu18	Cu	1.324496	0.406964	0.425330
O19	O	0.818608	-0.194686	0.062709
O20	O	1.318608	0.305314	0.562709
C21	C	0.696818	-0.098520	-0.000194
C22	C	1.196818	0.401480	0.499806
C23	C	0.619313	-0.097380	-0.000174
C24	C	1.119313	0.402620	0.499826
C25	C	0.574389	-0.160470	-0.000194
C26	C	1.074389	0.339530	0.499806
C27	C	0.501566	-0.159399	-0.000203
C28	C	1.001566	0.340601	0.499797
C29	C	0.473669	-0.095233	-0.000206
C30	C	0.973669	0.404767	0.499794
C31	C	0.518603	-0.032133	-0.000181
C32	C	1.018603	0.467867	0.499819
C33	C	0.591425	-0.033207	-0.000166
C34	C	1.091425	0.466793	0.499834
N35	N	0.365695	-0.046188	-0.043078
N36	N	0.865695	0.453812	0.456922
N37	N	0.296517	-0.045172	-0.043095
N38	N	0.796517	0.454828	0.456905
C39	C	0.254260	-0.091994	-0.000252
C40	C	0.754260	0.408006	0.499748
N41	N	0.283795	-0.139881	0.042599
N42	N	0.783795	0.360119	0.542599
N43	N	0.352979	-0.140899	0.042612
N44	N	0.852979	0.359101	0.542612
C45	C	0.394707	-0.094062	-0.000222
C46	C	0.894707	0.405938	0.499778
C47	C	0.130372	-0.153928	-0.000280
C48	C	0.630372	0.346072	0.499720
C49	C	0.057547	-0.152853	-0.000283
C50	C	0.557547	0.347147	0.499717
C51	C	0.074586	-0.025586	-0.000270
C52	C	0.574586	0.474414	0.499730
C53	C	0.147409	-0.026662	-0.000258
C54	C	0.647409	0.473338	0.499742
C55	C	0.175298	-0.090835	-0.000267
C56	C	0.675298	0.409165	0.499733
C57	C	0.829972	0.034634	-0.000211
C58	C	1.329972	0.534634	0.499789
C59	C	0.828831	0.112138	-0.000204
C60	C	1.328831	0.612138	0.499796
C61	C	0.952151	-0.087546	-0.000260
C62	C	1.452151	0.412454	0.499740
C63	C	1.029656	-0.088687	-0.000285
C64	C	1.529656	0.411313	0.499715
C65	C	0.818997	-0.220700	-0.000244
C66	C	1.318997	0.279300	0.499756
C67	C	0.820138	-0.298204	-0.000255
C68	C	1.320138	0.201796	0.499745
N69	N	0.824463	-0.093025	0.178937
N70	N	1.324463	0.406975	0.678937
C71	C	0.891922	0.157062	-0.000216
C72	C	1.391922	0.657062	0.499784
C73	C	0.890850	0.229886	-0.000228
C74	C	1.390850	0.729886	0.499772
C75	C	0.826684	0.257782	-0.000212
C76	C	1.326684	0.757782	0.499788
C77	C	0.763585	0.212849	-0.000205
C78	C	1.263585	0.712849	0.499795
C79	C	0.764658	0.140026	-0.000200
C80	C	1.264658	0.640026	0.499800
N81	N	0.777630	0.365789	0.042645
N82	N	1.277630	0.865789	0.542645
N83	N	0.776615	0.434968	0.042642
N84	N	1.276615	0.934968	0.542642
C85	C	0.823446	0.477191	-0.000227
C86	C	1.323446	0.977191	0.499773
N87	N	0.871341	0.447624	-0.043084
N88	N	1.371341	0.947624	0.456916
N89	N	0.872359	0.378439	-0.043079
N90	N	1.372359	0.878439	0.456921
C91	C	0.825513	0.336745	-0.000218
C92	C	1.325513	0.836745	0.499782
C93	C	0.885379	0.601079	-0.000253
C94	C	1.385379	1.101079	0.499747
C95	C	0.884305	0.673904	-0.000270
C96	C	1.384305	1.173904	0.499730
C97	C	0.757038	0.656865	-0.000239
C98	C	1.257038	1.156865	0.499761
C99	C	0.758114	0.584042	-0.000230
C100	C	1.258114	1.084042	0.499770
C101	C	0.822287	0.556154	-0.000233
C102	C	1.322287	1.056154	0.499767
N103	N	0.824512	-0.093036	-0.179390
N104	N	1.324512	0.406964	0.320610
C105	C	0.872089	-0.045437	0.218541
C106	C	1.372089	0.454563	0.718541
C107	C	0.872093	-0.045433	0.297789
C108	C	1.372093	0.454567	0.797789
C109	C	0.824478	-0.093030	0.337429
C110	C	1.324478	0.406970	0.837429
C111	C	0.776842	-0.140621	0.297815
C112	C	1.276842	0.359379	0.797815
C113	C	0.776835	-0.140619	0.218569
C114	C	1.276835	0.359381	0.718569
N115	N	0.815401	-0.154837	0.461841
N116	N	1.315401	0.345163	0.961841
N117	N	0.815413	-0.154837	0.537121
N118	N	1.315413	0.345163	1.037121
C119	C	0.824496	-0.093040	0.576193
C120	C	1.324496	0.406960	1.076193
N121	N	0.833582	-0.031239	0.537140
N122	N	1.333582	0.468761	1.037140
N123	N	0.833574	-0.031240	0.461853
N124	N	1.333574	0.468760	0.961853
C125	C	0.824480	-0.093038	0.423358
C126	C	1.324480	0.406962	0.923358
C127	C	0.872130	-0.045444	0.701727
C128	C	1.372130	0.454556	1.201727
C129	C	0.872129	-0.045440	0.780976
C130	C	1.372129	0.454560	1.280976
C131	C	0.776881	-0.140634	0.781000
C132	C	1.276881	0.359366	1.281000
C133	C	0.776878	-0.140632	0.701753
C134	C	1.276878	0.359368	1.201753
C135	C	0.824506	-0.093038	0.662121
C136	C	1.324506	0.406962	1.162121
H137	H	0.051874	0.026659	-0.000319
H138	H	0.551874	0.526659	0.499681
H139	H	0.910878	-0.006680	0.330041
H140	H	1.410878	0.493320	0.830041
C141	C	0.640846	0.036194	-0.000149
C142	C	1.140846	0.536194	0.499851
H143	H	0.688211	0.026364	-0.000137
H144	H	1.188211	0.526364	0.499863
H145	H	0.632435	0.062515	-0.044050
H146	H	1.132435	0.562515	0.455950
H147	H	0.632391	0.062515	0.043762
H148	H	1.132391	0.562515	0.543762
H149	H	0.020970	-0.204232	-0.000295
H150	H	0.520970	0.295768	0.499705
H151	H	0.183988	0.024713	-0.000246
H152	H	0.683988	0.524713	0.499754
C153	C	0.487920	0.038447	-0.000189
C154	C	0.987920	0.538447	0.499811
H155	H	0.438115	0.030051	-0.000210
H156	H	0.938115	0.530051	0.499790
H157	H	0.503327	0.064420	0.043719
H158	H	1.003327	0.564420	0.543719
H159	H	0.503380	0.064411	-0.044093
H160	H	1.003380	0.564411	0.455907
C161	C	0.724504	-0.192989	0.824595
C162	C	1.224504	0.307011	1.324595
H163	H	0.731331	-0.186178	0.877464
H164	H	1.231331	0.313822	1.377464
H165	H	0.677931	-0.185523	0.811634
H166	H	1.177931	0.314477	1.311634
H167	H	0.731946	-0.239571	0.811592
H168	H	1.231946	0.260429	1.311592
C169	C	0.962509	0.126388	-0.000233
C170	C	1.462509	0.626388	0.499767
H171	H	0.999930	0.163578	-0.000250
H172	H	1.499930	0.663578	0.499750
H173	H	0.965570	0.098341	0.043667
H174	H	1.465570	0.598341	0.543667
H175	H	0.965577	0.098329	-0.044144
H176	H	1.465577	0.598329	0.455856
C177	C	0.161053	-0.224513	-0.000281
C178	C	0.661053	0.275487	0.499719
H179	H	0.123865	-0.261936	-0.000284
H180	H	0.623865	0.238064	0.499716
H181	H	0.189128	-0.227580	-0.044180
H182	H	0.689128	0.272420	0.455820
H183	H	0.189084	-0.227574	0.043631
H184	H	0.689084	0.272426	0.543631
H185	H	0.910869	-0.006681	0.186275
H186	H	1.410869	0.493319	0.686275
H187	H	0.738072	-0.179374	0.330094
H188	H	1.238072	0.320626	0.830094
C189	C	0.960253	0.279311	-0.000236
C190	C	1.460253	0.779311	0.499764
H191	H	0.998624	0.252272	-0.000233
H192	H	1.498624	0.752272	0.499767
H193	H	0.962490	0.308067	-0.044139
H194	H	1.462490	0.808067	0.455861
H195	H	0.962464	0.308078	0.043673
H196	H	1.462464	0.808078	0.543673
H197	H	0.711340	0.235567	-0.000194
H198	H	1.211340	0.735567	0.499806
H199	H	0.738051	-0.179371	0.186322
H200	H	1.238051	0.320629	0.686322
H201	H	0.713281	0.103448	-0.000190
H202	H	1.213281	0.603448	0.499810
C203	C	0.724496	-0.192987	0.658186
C204	C	1.224496	0.307013	1.158186
H205	H	0.696142	-0.221338	0.693142
H206	H	1.196142	0.278662	1.193142
H207	H	0.695509	-0.167944	0.627292
H208	H	1.195509	0.332056	1.127292
H209	H	0.749525	-0.221991	0.627253
H210	H	1.249525	0.278009	1.127253
C211	C	0.924510	0.006913	0.658128
C212	C	1.424510	0.506913	1.158128
H213	H	0.952869	0.035264	0.693068
H214	H	1.452869	0.535264	1.193068
H215	H	0.953493	-0.018129	0.627192
H216	H	1.453493	0.481871	1.127192
H217	H	0.899477	0.035917	0.627236
H218	H	1.399477	0.535917	1.127236
C219	C	0.955964	0.570399	-0.000266
C220	C	1.455964	1.070399	0.499734
H221	H	0.993387	0.607587	-0.000286
H222	H	1.493387	1.107587	0.499714
H223	H	0.959023	0.542357	0.043640
H224	H	1.459023	1.042357	0.543640
H225	H	0.959034	0.542334	-0.044172
H226	H	1.459034	1.042334	0.455828
C227	C	0.924522	0.006908	0.824541
C228	C	1.424522	0.506908	1.324541
H229	H	0.952889	0.035247	0.789585
H230	H	1.452889	0.535247	1.289585
H231	H	0.899505	0.035915	0.855476
H232	H	1.399505	0.535915	1.355476
H233	H	0.953507	-0.018146	0.855432
H234	H	1.453507	0.481854	1.355432
H235	H	0.935683	0.710481	-0.000284
H236	H	1.435683	1.210481	0.499716
H237	H	0.597091	-0.212725	-0.000203
H238	H	1.097091	0.287275	0.499797
C239	C	0.686456	0.687543	-0.000224
C240	C	1.186456	1.187543	0.499776
H241	H	0.694852	0.737348	-0.000225
H242	H	1.194852	1.237348	0.499775
H243	H	0.660494	0.672097	-0.044120
H244	H	1.160494	1.172097	0.455880
H245	H	0.660481	0.672120	0.043692
H246	H	1.160481	1.172120	0.543692
H247	H	0.706738	0.547464	-0.000216
H248	H	1.206738	1.047464	0.499784
H249	H	0.464982	-0.210776	-0.000217
H250	H	0.964982	0.289224	0.499783
