data_functionalizedCrystal
_audit_creation_method	'MofGen! by Chris Wilmer'
_symmetry_space_group_name_H-M	'P1'
_symmetry_Int_Tables_number	1
_symmetry_cell_setting	triclinic
loop_
_symmetry_equiv_pos_as_xyz
  x,y,z
_cell_length_a	12.594516
_cell_length_b	19.805407
_cell_length_c	19.805399
_cell_angle_alpha	90.016886
_cell_angle_beta	89.977796
_cell_angle_gamma	89.983947
loop_
_atom_site_label
_atom_site_type_symbol
_atom_site_fract_x
_atom_site_fract_y
_atom_site_fract_z
Zn1	Zn	-0.423752	-1.034766	-0.382752
Zn2	Zn	0.076248	-0.534766	0.117248
Zn3	Zn	-0.601750	-1.034707	-0.269577
Zn4	Zn	-0.101750	-0.534707	0.230423
Zn5	Zn	-0.423786	-0.921586	-0.269576
Zn6	Zn	0.076214	-0.421586	0.230424
Zn7	Zn	-0.601689	-0.921565	-0.382723
Zn8	Zn	-0.101689	-0.421565	0.117277
O9	O	-0.512744	-0.978156	-0.326157
O10	O	-0.012744	-0.478156	0.173843
O11	O	-0.447375	-1.129475	-0.367751
O12	O	0.052625	-0.629475	0.132249
O13	O	-0.578182	-1.019685	-0.174860
O14	O	-0.078182	-0.519685	0.325140
O15	O	-0.274835	-0.936634	-0.284601
O16	O	0.225165	-0.436634	0.215399
O17	O	-0.578149	-1.129431	-0.284602
O18	O	-0.078149	-0.629431	0.215398
O19	O	-0.274811	-1.019787	-0.367750
O20	O	0.225189	-0.519787	0.132250
O21	O	-0.447433	-0.936576	-0.174860
O22	O	0.052567	-0.436576	0.325140
O23	O	-0.447374	-0.826867	-0.284573
O24	O	0.052626	-0.326867	0.215427
O25	O	-0.578046	-0.936597	-0.477444
O26	O	-0.078046	-0.436597	0.022556
O27	O	-0.578078	-0.826851	-0.367702
O28	O	-0.078078	-0.326851	0.132298
O29	O	-0.447316	-1.019766	-0.477464
O30	O	0.052684	-0.519766	0.022536
O31	O	-0.750688	-1.019665	-0.284574
O32	O	-0.250688	-0.519665	0.215426
O33	O	-0.750643	-0.936540	-0.367703
O34	O	-0.250643	-0.436540	0.132297
C35	C	-0.512724	-0.802300	-0.326135
C36	C	-0.012724	-0.302300	0.173865
C37	C	-0.512741	-0.727068	-0.326142
C38	C	-0.012741	-0.227068	0.173858
C39	C	-0.789285	-0.978112	-0.326150
C40	C	-0.289285	-0.478112	0.173850
C41	C	-0.907590	-0.978155	-0.326170
C42	C	-0.407590	-0.478155	0.173830
C43	C	-0.512765	-1.154699	-0.326179
C44	C	-0.012765	-0.654699	0.173821
C45	C	-0.512774	-1.229931	-0.326189
C46	C	-0.012774	-0.729931	0.173811
C47	C	-0.976858	-0.932939	-0.371352
C48	C	-0.476858	-0.432939	0.128648
C49	C	-1.047717	-0.916453	-0.309590
C50	C	-0.547717	-0.416453	0.190410
C51	C	-1.047531	-0.994702	-0.387943
C52	C	-0.547531	-0.494702	0.112057
C53	C	-0.976891	-0.961636	-0.264375
C54	C	-0.476891	-0.461636	0.235625
C55	C	-0.976699	-1.039915	-0.342770
C56	C	-0.476699	-0.539915	0.157230
C57	C	-1.047526	-1.023452	-0.280965
C58	C	-0.547526	-0.523452	0.219035
C59	C	-0.235123	-0.978219	-0.326178
C60	C	0.264877	-0.478219	0.173822
C61	C	-0.116818	-0.978246	-0.326188
C62	C	0.383182	-0.478246	0.173812
C63	C	-0.512670	-0.978186	-0.502700
C64	C	-0.012670	-0.478186	-0.002700
C65	C	-0.512639	-0.978199	-0.577932
C66	C	-0.012639	-0.478199	-0.077932
C67	C	-0.580901	-0.691734	-0.369357
C68	C	-0.080901	-0.191734	0.130643
C69	C	-0.580903	-0.621045	-0.369366
C70	C	-0.080903	-0.121045	0.130634
C71	C	-0.512749	-0.585693	-0.326157
C72	C	-0.012749	-0.085693	0.173843
C73	C	-0.444581	-0.621032	-0.282940
C74	C	0.055419	-0.121032	0.217060
C75	C	-0.444575	-0.691719	-0.282934
C76	C	0.055425	-0.191719	0.217066
C77	C	-0.444605	-0.335959	-0.282962
C78	C	0.055395	0.164041	0.217038
C79	C	-0.444619	-0.265267	-0.282970
C80	C	0.055381	0.234733	0.217030
C81	C	-0.580933	-0.265285	-0.369394
C82	C	-0.080933	0.234715	0.130606
C83	C	-0.580926	-0.335972	-0.369389
C84	C	-0.080926	0.164028	0.130611
C85	C	-0.512755	-0.371305	-0.326175
C86	C	-0.012755	0.128695	0.173825
C87	C	-0.512752	-0.447954	-0.326166
C88	C	-0.012752	0.052046	0.173834
C89	C	-0.512756	-0.509046	-0.326162
C90	C	-0.012756	-0.009046	0.173838
C91	C	-0.444551	-0.934936	-0.613275
C92	C	0.055449	-0.434936	-0.113275
C93	C	-0.444530	-0.934945	-0.683964
C94	C	0.055470	-0.434945	-0.183964
C95	C	-0.512593	-0.978221	-0.719307
C96	C	-0.012593	-0.478221	-0.219307
C97	C	-0.580688	-1.021486	-0.683959
C98	C	-0.080688	-0.521486	-0.183959
C99	C	-0.580713	-1.021472	-0.613272
C100	C	-0.080713	-0.521472	-0.113272
C101	C	-0.580588	-1.021539	-0.969033
C102	C	-0.080588	-0.521539	-0.469033
C103	C	-0.580556	-1.021551	-1.039725
C104	C	-0.080556	-0.521551	-0.539725
C105	C	-0.444406	-0.935012	-1.039724
C106	C	0.055594	-0.435012	-0.539724
C107	C	-0.444431	-0.934999	-0.969037
C108	C	0.055569	-0.434999	-0.469037
C109	C	-0.512529	-0.978261	-0.933695
C110	C	-0.012529	-0.478261	-0.433695
C111	C	-0.512553	-0.978249	-0.857046
C112	C	-0.012553	-0.478249	-0.357046
C113	C	-0.512565	-0.978237	-0.795955
C114	C	-0.012565	-0.478237	-0.295955
C115	C	-0.512741	-0.978166	-0.150301
C116	C	-0.012741	-0.478166	0.349699
C117	C	-0.512472	-0.978284	-0.075069
C118	C	-0.012472	-0.478284	0.424931
H119	H	-0.945828	-0.894633	-0.409505
H120	H	-0.445828	-0.394633	0.090495
H121	H	-1.078359	-1.061729	-0.242720
H122	H	-0.578359	-0.561729	0.257280
H123	H	-0.389121	-0.899699	-0.584503
H124	H	0.110879	-0.399699	-0.084503
Cl125	Cl	-0.928500	-1.120469	-0.364471
Cl126	Cl	-0.428500	-0.620469	0.135529
Cl127	Cl	-0.666613	-0.380411	-0.423709
Cl128	Cl	-0.166613	0.119589	0.076291
Cl129	Cl	-0.666259	-1.075886	-0.728391
Cl130	Cl	-0.166259	-0.575886	-0.228391
H131	H	-0.945990	-0.947617	-0.212128
H132	H	-0.445990	-0.447617	0.287872
H133	H	-1.078560	-1.008662	-0.440176
H134	H	-0.578560	-0.508662	0.059824
H135	H	-0.636437	-0.236508	-0.404584
H136	H	-0.136437	0.263492	0.095416
Cl137	Cl	-0.358931	-0.220824	-0.228646
Cl138	Cl	0.141069	0.279176	0.271354
Cl139	Cl	-0.358894	-0.576589	-0.228623
Cl140	Cl	0.141106	-0.076589	0.271377
H141	H	-0.389103	-0.364719	-0.247769
H142	H	0.110897	0.135281	0.252231
H143	H	-0.636404	-0.720513	-0.404541
H144	H	-0.136404	-0.220513	0.095459
H145	H	-0.636407	-0.592279	-0.404556
H146	H	-0.136407	-0.092279	0.095444
Cl147	Cl	-0.358881	-0.736140	-0.228606
Cl148	Cl	0.141119	-0.236140	0.271394
Cl149	Cl	-0.358798	-0.880622	-1.084159
Cl150	Cl	0.141202	-0.380622	-0.584159
Cl151	Cl	-0.358980	-0.880524	-0.728393
Cl152	Cl	0.141020	-0.380524	-0.228393
Cl153	Cl	-0.358860	-0.880595	-0.924609
Cl154	Cl	0.141140	-0.380595	-0.424609
Cl155	Cl	-0.666128	-1.075958	-1.084156
Cl156	Cl	-0.166128	-0.575958	-0.584156
H157	H	-1.078934	-0.864266	-0.295564
H158	H	-0.578934	-0.364266	0.204436
H159	H	-0.636050	-1.056758	-0.940265
H160	H	-0.136050	-0.556758	-0.440265
Cl161	Cl	-0.666318	-1.075859	-0.568840
Cl162	Cl	-0.166318	-0.575859	-0.068840
