data_functionalizedCrystal
_audit_creation_method	'MofGen! by Chris Wilmer'
_symmetry_space_group_name_H-M	'P1'
_symmetry_Int_Tables_number	1
_symmetry_cell_setting	triclinic
loop_
_symmetry_equiv_pos_as_xyz
  x,y,z
_cell_length_a	11.792241
_cell_length_b	17.019294
_cell_length_c	10.268362
_cell_angle_alpha	86.115747
_cell_angle_beta	89.999626
_cell_angle_gamma	83.793186
loop_
_atom_site_label
_atom_site_type_symbol
_atom_site_fract_x
_atom_site_fract_y
_atom_site_fract_z
O1	O	1.505777	0.108120	-0.120297
O2	O	2.005777	0.608120	0.379703
O3	O	1.175319	0.119263	-0.121577
O4	O	1.675319	0.619263	0.378423
O5	O	1.349766	-0.001102	-0.108056
O6	O	1.849766	0.498898	0.391944
O7	O	1.331329	0.228485	-0.133817
O8	O	1.831329	0.728485	0.366183
O9	O	1.349751	-0.001107	0.108545
O10	O	1.849751	0.498893	0.608545
O11	O	1.175304	0.119258	0.095025
O12	O	1.675304	0.619258	0.595025
O13	O	1.505761	0.108115	0.096304
O14	O	2.005761	0.608115	0.596304
Cu15	Cu	1.340531	0.113686	0.115442
Cu16	Cu	1.840531	0.613686	0.615442
Cu17	Cu	1.340549	0.113692	-0.140714
Cu18	Cu	1.840549	0.613692	0.359286
O19	O	1.331314	0.228480	0.082784
O20	O	1.831314	0.728480	0.582784
C21	C	1.133028	0.118561	-0.013201
C22	C	1.633028	0.618561	0.486799
C23	C	1.007036	0.116466	-0.012978
C24	C	1.507036	0.616466	0.487022
C25	C	1.349059	-0.030497	0.003539
C26	C	1.849059	0.469503	0.503539
C27	C	1.346962	-0.118076	0.013357
C28	C	1.846962	0.381924	0.513357
C29	C	0.776364	0.112613	-0.012508
C30	C	1.276364	0.612613	0.487492
C31	C	0.904727	0.114754	-0.012769
C32	C	1.404727	0.614754	0.487231
C33	C	1.345988	-0.159214	-0.100099
C34	C	1.845988	0.340786	0.399901
C35	C	1.344010	-0.241503	-0.090870
C36	C	1.844010	0.258497	0.409130
C37	C	1.343014	-0.282654	0.031817
C38	C	1.843014	0.217346	0.531817
C39	C	1.343986	-0.241511	0.145281
C40	C	1.843986	0.258489	0.645281
C41	C	1.345955	-0.159222	0.136051
C42	C	1.845955	0.340778	0.636051
C43	C	1.337059	-0.531113	0.065593
C44	C	1.837059	-0.031113	0.565593
C45	C	1.335093	-0.613408	0.074815
C46	C	1.835093	-0.113408	0.574815
C47	C	1.335115	-0.613395	-0.161337
C48	C	1.835115	-0.113395	0.338663
C49	C	1.337091	-0.531105	-0.170556
C50	C	1.837091	-0.031105	0.329444
C51	C	1.338056	-0.489968	-0.057092
C52	C	1.838056	0.010032	0.442908
C53	C	1.340996	-0.366768	0.041253
C54	C	1.840996	0.133232	0.541253
C55	C	1.340066	-0.405855	-0.066530
C56	C	1.840066	0.094145	0.433470
C57	C	1.548053	0.108818	-0.012074
C58	C	2.048053	0.608818	0.487926
C59	C	1.674044	0.110913	-0.012306
C60	C	2.174044	0.610913	0.487694
C61	C	1.332021	0.257875	-0.028815
C62	C	1.832021	0.757875	0.471185
C63	C	1.334118	0.345454	-0.038641
C64	C	1.834118	0.845454	0.461359
N65	N	1.340527	0.113681	0.295608
N66	N	1.840527	0.613681	0.795608
N67	N	1.340562	0.113690	-0.320880
N68	N	1.840562	0.613690	0.179120
C69	C	1.340543	0.113690	0.561278
C70	C	1.840543	0.613690	1.061278
C71	C	1.340530	0.113688	0.413440
C72	C	1.840530	0.613688	0.913440
H73	H	1.346804	-0.125715	-0.200003
H74	H	1.846804	0.374285	0.299997
H75	H	1.337903	-0.497606	-0.270460
H76	H	1.837903	0.002394	0.229540
H77	H	1.340190	-0.400283	0.141145
H78	H	1.840190	0.099717	0.641145
Br79	Br	1.338345	-0.475292	0.219581
Br80	Br	1.838345	0.024708	0.719581
Br81	Br	1.342686	-0.297330	-0.244853
Br82	Br	1.842686	0.202670	0.255147
H83	H	1.340869	-0.372346	-0.166420
H84	H	1.840869	0.127654	0.333580
H85	H	1.343168	-0.275022	0.245175
H86	H	1.843168	0.224978	0.745175
Br87	Br	1.333754	-0.669257	0.241329
Br88	Br	1.833754	-0.169257	0.741329
H89	H	1.346733	-0.125727	0.228439
H90	H	1.846733	0.374273	0.728439
H91	H	1.334327	-0.646898	-0.253713
H92	H	1.834327	-0.146898	0.246287
