data_functionalizedCrystal
_audit_creation_method	'MofGen! by Chris Wilmer'
_symmetry_space_group_name_H-M	'P1'
_symmetry_Int_Tables_number	1
_symmetry_cell_setting	triclinic
loop_
_symmetry_equiv_pos_as_xyz
  x,y,z
_cell_length_a	10.654541
_cell_length_b	11.026607
_cell_length_c	10.065875
_cell_angle_alpha	79.268236
_cell_angle_beta	81.167505
_cell_angle_gamma	83.465027
loop_
_atom_site_label
_atom_site_type_symbol
_atom_site_fract_x
_atom_site_fract_y
_atom_site_fract_z
O1	O	1.719277	-0.153038	-0.113481
O2	O	1.357331	-0.169310	-0.113486
O3	O	1.508306	0.015730	-0.113479
O4	O	1.568302	-0.338079	-0.113488
O5	O	1.479549	-0.019697	0.113509
O6	O	1.328574	-0.204738	0.113502
O7	O	1.690521	-0.188466	0.113506
Zn8	Zn	1.504982	-0.202227	0.149543
Zn9	Zn	1.542870	-0.155550	-0.149523
O10	O	1.539546	-0.373507	0.113499
C11	C	1.482859	0.043321	0.000013
C12	C	1.449866	0.178313	0.000008
C13	C	1.295895	-0.185830	0.000008
C14	C	1.155676	-0.182257	0.000006
C15	C	1.751956	-0.171946	0.000010
C16	C	1.892176	-0.175518	0.000002
C17	C	1.872118	0.045751	-0.000008
C18	C	1.927964	0.154703	-0.000021
C19	C	2.059713	0.151340	-0.000026
C20	C	2.135620	0.039011	-0.000014
C21	C	2.079774	-0.069941	-0.000002
C22	C	1.948021	-0.066565	-0.000001
C23	C	2.099830	-0.291209	0.000019
C24	C	1.968083	-0.287846	0.000014
C25	C	2.175737	-0.403537	0.000030
C26	C	2.119892	-0.512491	0.000033
C27	C	1.988135	-0.509122	0.000037
C28	C	1.912237	-0.396798	0.000027
C29	C	1.564992	-0.401096	0.000004
C30	C	1.597987	-0.536087	0.000001
N31	N	1.479133	-0.234082	0.353648
C32	C	1.540969	0.251353	0.000007
C33	C	1.506870	0.390874	0.000002
N34	N	1.568726	-0.123685	-0.353627
C35	C	1.533867	-0.166625	0.421429
C36	C	1.513985	-0.191151	0.578595
H37	H	1.764842	0.048504	-0.000019
H38	H	1.403624	0.431630	-0.000009
H39	H	1.644209	0.210592	0.000017
H40	H	1.417549	-0.309988	0.411971
O41	O	1.854382	0.263917	-0.000220
C42	C	1.811773	0.472385	-0.117884
C43	C	1.895213	0.348782	-0.117814
H44	H	1.844736	0.541024	-0.212963
H45	H	1.820721	0.511562	-0.022962
H46	H	1.708016	0.456039	-0.117816
H47	H	1.999002	0.365025	-0.117930
H48	H	1.886156	0.309644	-0.212728
O49	O	1.607170	-0.075923	0.351893
C50	C	1.638134	0.141773	0.307862
C51	C	1.554981	0.039189	0.386686
H52	H	1.595986	0.234861	0.335985
H53	H	1.641040	0.145491	0.193494
H54	H	1.739001	0.120887	0.335824
H55	H	1.454075	0.060002	0.358839
H56	H	1.552183	0.035495	0.501035
O57	O	2.114139	0.257119	-0.000221
C58	C	2.266098	0.400103	-0.117880
C59	C	2.204586	0.280277	-0.117812
H60	H	2.339218	0.418878	-0.212956
H61	H	2.315343	0.389261	-0.022955
H62	H	2.189193	0.480936	-0.117818
H63	H	2.281413	0.199385	-0.117922
H64	H	2.155312	0.291225	-0.212728
H65	H	1.701249	0.423176	-0.000101
O66	O	1.933801	-0.614965	0.000289
C67	C	1.781747	-0.757890	0.117852
C68	C	1.843190	-0.638018	0.117754
H69	H	1.708457	-0.776552	0.212798
H70	H	1.858571	-0.838804	0.117949
H71	H	1.732664	-0.747009	0.022814
H72	H	1.892266	-0.648777	0.212776
H73	H	1.766313	-0.557150	0.117586
H74	H	2.181704	-0.603941	0.000052
O75	O	1.440429	-0.281729	0.647946
C76	C	1.310186	-0.442388	0.633214
C77	C	1.393430	-0.339834	0.554503
H78	H	1.272186	-0.489412	0.557700
H79	H	1.226844	-0.399955	0.700087
H80	H	1.369985	-0.513781	0.700142
H81	H	1.333738	-0.268407	0.487501
H82	H	1.476777	-0.382356	0.487717
O83	O	1.641980	-0.032871	0.577014
C84	C	1.672658	0.184875	0.533537
C85	C	1.589601	0.082100	0.612054
H86	H	1.630357	0.277849	0.561860
H87	H	1.675671	0.188803	0.419122
H88	H	1.773501	0.164035	0.561576
H89	H	1.488719	0.102867	0.584130
H90	H	1.586696	0.078197	0.726450
H91	H	2.242894	0.036279	-0.000002
H92	H	2.283012	-0.406270	0.000035
H93	H	1.804959	-0.394044	0.000024
H94	H	1.346625	0.219074	-0.000002
