data_functionalizedCrystal
_audit_creation_method	'MofGen! by Chris Wilmer'
_symmetry_space_group_name_H-M	'P1'
_symmetry_Int_Tables_number	1
_symmetry_cell_setting	triclinic
loop_
_symmetry_equiv_pos_as_xyz
  x,y,z
_cell_length_a	19.121102
_cell_length_b	19.805405
_cell_length_c	19.805399
_cell_angle_alpha	90.028055
_cell_angle_beta	87.542719
_cell_angle_gamma	92.412596
loop_
_atom_site_label
_atom_site_type_symbol
_atom_site_fract_x
_atom_site_fract_y
_atom_site_fract_z
Zn1	Zn	1.073672	0.313691	-0.426785
Zn2	Zn	1.323672	0.563691	-0.176785
Zn3	Zn	1.573672	0.813691	0.073215
Zn4	Zn	1.823672	1.063691	0.323215
Zn5	Zn	1.073570	0.426876	-0.313592
Zn6	Zn	1.323570	0.676876	-0.063592
Zn7	Zn	1.573570	0.926876	0.186408
Zn8	Zn	1.823570	1.176876	0.436408
Zn9	Zn	0.956224	0.308874	-0.308789
Zn10	Zn	1.206224	0.558874	-0.058789
Zn11	Zn	1.456224	0.808874	0.191211
Zn12	Zn	1.706224	1.058874	0.441211
Zn13	Zn	0.956173	0.422005	-0.421920
Zn14	Zn	1.206173	0.672005	-0.171920
Zn15	Zn	1.456173	0.922005	0.078080
Zn16	Zn	1.706173	1.172005	0.328080
O17	O	1.014910	0.367861	-0.367771
O18	O	1.264910	0.617861	-0.117771
O19	O	1.514910	0.867861	0.132229
O20	O	1.764910	1.117861	0.382229
O21	O	1.171943	0.332760	-0.415816
O22	O	1.421943	0.582760	-0.165816
O23	O	1.671943	0.832760	0.084184
O24	O	1.921943	1.082760	0.334184
O25	O	1.057983	0.411244	-0.218237
O26	O	1.307983	0.661244	0.031763
O27	O	1.557983	0.911244	0.281763
O28	O	1.807983	1.161244	0.531763
O29	O	0.971869	0.214799	-0.324468
O30	O	1.221869	0.464799	-0.074468
O31	O	1.471869	0.714799	0.175532
O32	O	1.721869	0.964799	0.425532
O33	O	1.171868	0.415916	-0.332653
O34	O	1.421868	0.665916	-0.082653
O35	O	1.671868	0.915916	0.167347
O36	O	1.921868	1.165916	0.417347
O37	O	1.058157	0.218338	-0.411159
O38	O	1.308157	0.468338	-0.161159
O39	O	1.558157	0.718338	0.088841
O40	O	1.808157	0.968338	0.338841
O41	O	0.971769	0.324549	-0.214709
O42	O	1.221769	0.574549	0.035291
O43	O	1.471769	0.824549	0.285291
O44	O	1.721769	1.074549	0.535291
O45	O	0.857934	0.319826	-0.319750
O46	O	1.107934	0.569826	-0.069750
O47	O	1.357934	0.819826	0.180250
O48	O	1.607934	1.069826	0.430250
O49	O	0.971780	0.407615	-0.517283
O50	O	1.221780	0.657615	-0.267283
O51	O	1.471780	0.907615	-0.017283
O52	O	1.721780	1.157615	0.232717
O53	O	0.857896	0.402944	-0.402867
O54	O	1.107896	0.652944	-0.152867
O55	O	1.357896	0.902944	0.097133
O56	O	1.607896	1.152944	0.347133
O57	O	1.058107	0.328037	-0.520857
O58	O	1.308107	0.578037	-0.270857
O59	O	1.558107	0.828037	-0.020857
O60	O	1.808107	1.078037	0.229143
O61	O	1.057933	0.520943	-0.327935
O62	O	1.307933	0.770943	-0.077935
O63	O	1.557933	1.020943	0.172065
O64	O	1.807933	1.270943	0.422065
O65	O	0.971681	0.517365	-0.407524
O66	O	1.221681	0.767365	-0.157524
O67	O	1.471681	1.017365	0.092476
O68	O	1.721681	1.267365	0.342476
C69	C	0.832431	0.360334	-0.360260
C70	C	1.082431	0.610334	-0.110260
C71	C	1.332431	0.860334	0.139740
C72	C	1.582431	1.110334	0.389740
C73	C	0.754366	0.357130	-0.357062
C74	C	1.004366	0.607130	-0.107062
C75	C	1.254366	0.857130	0.142938
C76	C	1.504366	1.107130	0.392938
C77	C	0.717689	0.398965	-0.398767
C78	C	0.967689	0.648965	-0.148767
C79	C	1.217689	0.898965	0.101233
C80	C	1.467689	1.148965	0.351233
C81	C	0.644338	0.395946	-0.395766
C82	C	0.894338	0.645946	-0.145766
C83	C	1.144338	0.895946	0.104234
C84	C	1.394338	1.145946	0.354234
C85	C	0.607666	0.351095	-0.351056
C86	C	0.857666	0.601095	-0.101056
C87	C	1.107666	0.851095	0.148944
C88	C	1.357666	1.101095	0.398944
C89	C	0.644347	0.309255	-0.309351
C90	C	0.894347	0.559255	-0.059351
C91	C	1.144347	0.809255	0.190649
C92	C	1.394347	1.059255	0.440649
C93	C	0.717697	0.312272	-0.312355
C94	C	0.967697	0.562272	-0.062355
C95	C	1.217697	0.812272	0.187645
C96	C	1.467697	1.062272	0.437645
C97	C	0.386198	0.339816	-0.339825
C98	C	0.636198	0.589816	-0.089825
C99	C	0.886198	0.839816	0.160175
C100	C	1.136198	1.089816	0.410175
C101	C	0.312844	0.336804	-0.336822
C102	C	0.562844	0.586804	-0.086822
C103	C	0.812844	0.836804	0.163178
C104	C	1.062844	1.086804	0.413178
C105	C	0.312839	0.423494	-0.423238
C106	C	0.562839	0.673494	-0.173238
C107	C	0.812839	0.923494	0.076762
C108	C	1.062839	1.173494	0.326762
C109	C	0.386190	0.426509	-0.426236
C110	C	0.636190	0.676509	-0.176236
C111	C	0.886190	0.926509	0.073764
C112	C	1.136190	1.176509	0.323764
C113	C	0.422866	0.384668	-0.384533
C114	C	0.672866	0.634668	-0.134533
C115	C	0.922866	0.884668	0.115467
C116	C	1.172866	1.134668	0.365467
C117	C	0.532689	0.348009	-0.347986
C118	C	0.782689	0.598009	-0.097986
C119	C	1.032689	0.848009	0.152014
C120	C	1.282689	1.098009	0.402014
C121	C	0.497840	0.387750	-0.387607
C122	C	0.747840	0.637750	-0.137607
C123	C	0.997840	0.887750	0.112393
C124	C	1.247840	1.137750	0.362393
C125	C	1.014809	0.543713	-0.367738
C126	C	1.264809	0.793713	-0.117738
C127	C	1.514809	1.043713	0.132262
C128	C	1.764809	1.293713	0.382262
C129	C	1.014831	0.618946	-0.367749
C130	C	1.264831	0.868946	-0.117749
C131	C	1.514831	1.118946	0.132251
C132	C	1.764831	1.368946	0.382251
C133	C	1.059730	0.656074	-0.412921
C134	C	1.309730	0.906074	-0.162921
C135	C	1.559730	1.156074	0.087079
C136	C	1.809730	1.406074	0.337079
C137	C	1.059747	0.726763	-0.412933
C138	C	1.309747	0.976763	-0.162933
C139	C	1.559747	1.226763	0.087067
C140	C	1.809747	1.476763	0.337067
C141	C	1.014868	0.760323	-0.367769
C142	C	1.264868	1.010323	-0.117769
C143	C	1.514868	1.260323	0.132231
C144	C	1.764868	1.510323	0.382231
C145	C	0.969963	0.723190	-0.322595
C146	C	1.219963	0.973190	-0.072595
C147	C	1.469963	1.223190	0.177405
C148	C	1.719963	1.473190	0.427405
C149	C	0.969943	0.652502	-0.322587
C150	C	1.219943	0.902502	-0.072587
C151	C	1.469943	1.152502	0.177413
C152	C	1.719943	1.402502	0.427413
C153	C	0.970043	1.008267	-0.322625
C154	C	1.220043	1.258267	-0.072625
C155	C	1.470043	1.508267	0.177375
C156	C	1.720043	1.758267	0.427375
C157	C	0.970068	1.078960	-0.322635
C158	C	1.220068	1.328960	-0.072635
C159	C	1.470068	1.578960	0.177365
C160	C	1.720068	1.828960	0.427365
C161	C	1.059847	1.082528	-0.412971
C162	C	1.309847	1.332528	-0.162971
C163	C	1.559847	1.582528	0.087029
C164	C	1.809847	1.832528	0.337029
C165	C	1.059827	1.011840	-0.412964
C166	C	1.309827	1.261840	-0.162964
C167	C	1.559827	1.511840	0.087036
C168	C	1.809827	1.761840	0.337036
C169	C	1.014920	0.974713	-0.367792
C170	C	1.264920	1.224713	-0.117792
C171	C	1.514920	1.474713	0.132208
C172	C	1.764920	1.724713	0.382208
C173	C	1.014901	0.898064	-0.367781
C174	C	1.264901	1.148064	-0.117781
C175	C	1.514901	1.398064	0.132219
C176	C	1.764901	1.648064	0.382219
C177	C	1.014890	0.836971	-0.367776
C178	C	1.264890	1.086971	-0.117776
C179	C	1.514890	1.336971	0.132224
C180	C	1.764890	1.586971	0.382224
C181	C	1.198101	0.375419	-0.375313
C182	C	1.448101	0.625419	-0.125313
C183	C	1.698101	0.875419	0.124687
C184	C	1.948101	1.125419	0.374687
C185	C	1.276167	0.378639	-0.378526
C186	C	1.526167	0.628639	-0.128526
C187	C	1.776167	0.878639	0.121474
C188	C	2.026167	1.128639	0.371474
C189	C	1.014949	0.367820	-0.544316
C190	C	1.264949	0.617820	-0.294316
C191	C	1.514949	0.867820	-0.044316
C192	C	1.764949	1.117820	0.205684
C193	C	1.014966	0.367803	-0.619548
C194	C	1.264966	0.617803	-0.369548
C195	C	1.514966	0.867803	-0.119548
C196	C	1.764966	1.117803	0.130452
C197	C	1.015001	1.191322	-0.367813
C198	C	1.265001	1.441322	-0.117813
C199	C	1.515001	1.691322	0.132187
C200	C	1.765001	1.941322	0.382187
C201	C	1.014964	1.116089	-0.367811
C202	C	1.264964	1.366089	-0.117811
C203	C	1.514964	1.616089	0.132189
C204	C	1.764964	1.866089	0.382189
C205	C	1.059917	0.326365	-0.656755
C206	C	1.309917	0.576365	-0.406755
C207	C	1.559917	0.826365	-0.156755
C208	C	1.809917	1.076365	0.093245
C209	C	1.059925	0.326345	-0.727444
C210	C	1.309925	0.576345	-0.477444
C211	C	1.559925	0.826345	-0.227444
C212	C	1.809925	1.076345	0.022556
C213	C	1.014984	0.367768	-0.760925
C214	C	1.264984	0.617768	-0.510925
C215	C	1.514984	0.867768	-0.260925
C216	C	1.764984	1.117768	-0.010925
C217	C	0.970027	0.409208	-0.723713
C218	C	1.220027	0.659208	-0.473713
C219	C	1.470027	0.909208	-0.223713
C220	C	1.720027	1.159208	0.026287
C221	C	0.970017	0.409224	-0.653026
C222	C	1.220017	0.659224	-0.403026
C223	C	1.470017	0.909224	-0.153026
C224	C	1.720017	1.159224	0.096974
C225	C	0.970067	0.409147	-1.008788
C226	C	1.220067	0.659147	-0.758788
C227	C	1.470067	0.909147	-0.508788
C228	C	1.720067	1.159147	-0.258788
C229	C	0.970082	0.409130	-1.079481
C230	C	1.220082	0.659130	-0.829481
C231	C	1.470082	0.909130	-0.579481
C232	C	1.720082	1.159130	-0.329481
C233	C	1.059974	0.326269	-1.083206
C234	C	1.309974	0.576269	-0.833206
C235	C	1.559974	0.826269	-0.583206
C236	C	1.809974	1.076269	-0.333206
C237	C	1.059964	0.326284	-1.012519
C238	C	1.309964	0.576284	-0.762519
C239	C	1.559964	0.826284	-0.512519
C240	C	1.809964	1.076284	-0.262519
C241	C	1.015006	0.367721	-0.975313
C242	C	1.265006	0.617721	-0.725313
C243	C	1.515006	0.867721	-0.475313
C244	C	1.765006	1.117721	-0.225313
C245	C	1.014998	0.367740	-0.898664
C246	C	1.264998	0.617740	-0.648664
C247	C	1.514998	0.867740	-0.398664
C248	C	1.764998	1.117740	-0.148664
C249	C	1.014995	0.367753	-0.837572
C250	C	1.264995	0.617753	-0.587572
C251	C	1.514995	0.867753	-0.337572
C252	C	1.764995	1.117753	-0.087572
C253	C	1.014911	0.367855	-0.191915
C254	C	1.264911	0.617855	0.058085
C255	C	1.514911	0.867855	0.308085
C256	C	1.764911	1.117855	0.558085
C257	C	1.015030	0.367688	-0.116689
C258	C	1.265030	0.617688	0.133311
C259	C	1.515030	0.867688	0.383311
C260	C	1.765030	1.117688	0.633311
H261	H	0.614479	0.430013	-0.429725
H262	H	0.864479	0.680013	-0.179725
H263	H	1.114479	0.930013	0.070275
H264	H	1.364479	1.180013	0.320275
C265	C	1.109104	0.619164	-0.462605
C266	C	1.359104	0.869164	-0.212605
C267	C	1.609104	1.119164	0.037395
C268	C	1.859104	1.369164	0.287395
N269	N	1.146291	0.591366	-0.500030
N270	N	1.396291	0.841366	-0.250030
N271	N	1.646291	1.091366	-0.000030
N272	N	1.896291	1.341366	0.249970
H273	H	1.096562	0.292555	-0.985262
H274	H	1.346562	0.542555	-0.735262
H275	H	1.596562	0.792555	-0.485262
H276	H	1.846562	1.042555	-0.235262
C277	C	0.920568	0.454810	-0.612099
C278	C	1.170568	0.704810	-0.362099
C279	C	1.420568	0.954810	-0.112099
C280	C	1.670568	1.204810	0.137901
N281	N	0.883321	0.489146	-0.581274
N282	N	1.133321	0.739146	-0.331274
N283	N	1.383321	0.989146	-0.081274
N284	N	1.633321	1.239146	0.168726
H285	H	0.933433	0.442933	-0.750979
H286	H	1.183433	0.692933	-0.500979
H287	H	1.433433	0.942933	-0.250979
H288	H	1.683433	1.192933	-0.000979
C289	C	1.109376	0.280761	-0.768368
C290	C	1.359376	0.530761	-0.518368
C291	C	1.609376	0.780761	-0.268368
C292	C	1.859376	1.030761	-0.018368
N293	N	1.146625	0.246425	-0.799191
N294	N	1.396625	0.496425	-0.549191
N295	N	1.646625	0.746425	-0.299191
N296	N	1.896625	0.996425	-0.049191
C297	C	0.758022	0.448306	-0.447951
C298	C	1.008022	0.698306	-0.197951
C299	C	1.258022	0.948306	0.052049
C300	C	1.508022	1.198306	0.302049
N301	N	0.788399	0.485469	-0.484999
N302	N	1.038399	0.735469	-0.234999
N303	N	1.288399	0.985469	0.015001
N304	N	1.538399	1.235469	0.265001
H305	H	1.096315	0.756990	-0.449711
H306	H	1.346315	1.006990	-0.199711
H307	H	1.596315	1.256990	0.050289
H308	H	1.846315	1.506990	0.300289
C309	C	0.920627	0.967436	-0.272950
C310	C	1.170627	1.217436	-0.022950
C311	C	1.420627	1.467436	0.227050
C312	C	1.670627	1.717436	0.477050
N313	N	0.883399	0.936679	-0.235538
N314	N	1.133399	1.186679	0.014462
N315	N	1.383399	1.436679	0.264462
N316	N	1.633399	1.686679	0.514462
H317	H	0.933469	0.442898	-0.978504
H318	H	1.183469	0.692898	-0.728504
H319	H	1.433469	0.942898	-0.478504
H320	H	1.683469	1.192898	-0.228504
H321	H	0.282987	0.300273	-0.300418
H322	H	0.532987	0.550273	-0.050418
H323	H	0.782987	0.800273	0.199582
H324	H	1.032987	1.050273	0.449582
C325	C	0.920550	0.611662	-0.272894
C326	C	1.170550	0.861662	-0.022894
C327	C	1.420550	1.111662	0.227106
C328	C	1.670550	1.361662	0.477106
N329	N	0.883345	0.580902	-0.235465
N330	N	1.133345	0.830902	0.014535
N331	N	1.383345	1.080902	0.264535
N332	N	1.633345	1.330902	0.514535
H333	H	0.416044	0.463034	-0.462642
H334	H	0.666044	0.713034	-0.212642
H335	H	0.916044	0.963034	0.037358
H336	H	1.166044	1.213034	0.287358
H337	H	0.933518	1.106283	-0.285856
H338	H	1.183518	1.356283	-0.035856
H339	H	1.433518	1.606283	0.214144
H340	H	1.683518	1.856283	0.464144
C341	C	1.109202	0.974928	-0.462643
C342	C	1.359202	1.224928	-0.212643
C343	C	1.609202	1.474928	0.037357
C344	C	1.859202	1.724928	0.287357
N345	N	1.146392	0.947126	-0.500064
N346	N	1.396392	1.197126	-0.250064
N347	N	1.646392	1.447126	-0.000064
N348	N	1.896392	1.697126	0.249936
C349	C	0.272491	0.469512	-0.469114
C350	C	0.522491	0.719512	-0.219114
C351	C	0.772491	0.969512	0.030886
C352	C	1.022491	1.219512	0.280886
N353	N	0.242100	0.504172	-0.503672
N354	N	0.492100	0.754172	-0.253672
N355	N	0.742100	1.004172	-0.003672
N356	N	0.992100	1.254172	0.246328
C357	C	0.426531	0.293792	-0.293945
C358	C	0.676531	0.543792	-0.043945
C359	C	0.926531	0.793792	0.206055
C360	C	1.176531	1.043792	0.456055
N361	N	0.456913	0.259126	-0.259385
N362	N	0.706913	0.509126	-0.009385
N363	N	0.956913	0.759126	0.240615
N364	N	1.206913	1.009126	0.490615
H365	H	0.614483	0.272734	-0.272950
H366	H	0.864483	0.522734	-0.022950
H367	H	1.114483	0.772734	0.227050
H368	H	1.364483	1.022734	0.477050
C369	C	1.109422	0.280678	-1.124138
C370	C	1.359422	0.530678	-0.874138
C371	C	1.609422	0.780678	-0.624138
C372	C	1.859422	1.030678	-0.374138
N373	N	1.146664	0.246339	-1.154967
N374	N	1.396664	0.496339	-0.904967
N375	N	1.646664	0.746339	-0.654967
N376	N	1.896664	0.996339	-0.404967
C377	C	0.758041	0.266251	-0.266476
C378	C	1.008041	0.516251	-0.016476
C379	C	1.258041	0.766251	0.233524
C380	C	1.508041	1.016251	0.483524
N381	N	0.788427	0.231586	-0.231919
N382	N	1.038427	0.481586	0.018081
N383	N	1.288427	0.731586	0.268081
N384	N	1.538427	0.981586	0.518081
H385	H	0.933483	0.442863	-1.106739
H386	H	1.183483	0.692863	-0.856739
H387	H	1.433483	0.942863	-0.606739
H388	H	1.683483	1.192863	-0.356739
H389	H	1.096410	1.112765	-0.449754
H390	H	1.346410	1.362765	-0.199754
H391	H	1.596410	1.612765	0.050246
H392	H	1.846410	1.862765	0.300246
C393	C	0.920637	0.760111	-0.272874
C394	C	1.170637	1.010111	-0.022874
C395	C	1.420637	1.260111	0.227126
C396	C	1.670637	1.510111	0.477126
N397	N	0.883502	0.787920	-0.235408
N398	N	1.133502	1.037920	0.014592
N399	N	1.383502	1.287920	0.264592
N400	N	1.633502	1.537920	0.514592
C401	C	0.538183	0.437087	-0.436784
C402	C	0.788183	0.687087	-0.186784
C403	C	1.038183	0.937087	0.063216
C404	C	1.288183	1.187087	0.313216
N405	N	0.568575	0.474251	-0.473821
N406	N	0.818575	0.724251	-0.223821
N407	N	1.068575	0.974251	0.026179
N408	N	1.318575	1.224251	0.276179
H409	H	0.502822	0.311492	-0.311583
H410	H	0.752822	0.561492	-0.061583
H411	H	1.002822	0.811492	0.188417
H412	H	1.252822	1.061492	0.438417
C413	C	1.109356	0.280795	-0.619932
C414	C	1.359356	0.530795	-0.369932
C415	C	1.609356	0.780795	-0.119932
C416	C	1.859356	1.030795	0.130068
N417	N	1.146593	0.246467	-0.592199
N418	N	1.396593	0.496467	-0.342199
N419	N	1.646593	0.746467	-0.092199
N420	N	1.896593	0.996467	0.157801
