data_functionalizedCrystal
_audit_creation_method	'MofGen! by Chris Wilmer'
_symmetry_space_group_name_H-M	'P1'
_symmetry_Int_Tables_number	1
_symmetry_cell_setting	triclinic
loop_
_symmetry_equiv_pos_as_xyz
  x,y,z
_cell_length_a	23.532407
_cell_length_b	26.809956
_cell_length_c	23.532407
_cell_angle_alpha	89.990736
_cell_angle_beta	97.151322
_cell_angle_gamma	90.010714
loop_
_atom_site_label
_atom_site_type_symbol
_atom_site_fract_x
_atom_site_fract_y
_atom_site_fract_z
O1	O	0.755269	0.041422	-0.069133
O2	O	1.088603	0.374756	0.264200
O3	O	1.421936	0.708089	0.597533
O4	O	0.589406	0.041438	-0.079137
O5	O	0.922739	0.374771	0.254197
O6	O	1.256072	0.708104	0.587530
O7	O	0.677339	0.041420	0.008797
O8	O	1.010672	0.374754	0.342130
O9	O	1.344006	0.708087	0.675463
O10	O	0.667336	0.041440	-0.157067
O11	O	1.000669	0.374773	0.176267
O12	O	1.334003	0.708106	0.509600
O13	O	0.677312	-0.041539	0.008797
O14	O	1.010646	0.291795	0.342130
O15	O	1.343979	0.625128	0.675463
O16	O	0.589379	-0.041522	-0.079137
O17	O	0.922712	0.291812	0.254197
O18	O	1.256046	0.625145	0.587530
O19	O	0.755242	-0.041537	-0.069133
O20	O	1.088576	0.291796	0.264200
O21	O	1.421909	0.625130	0.597533
Zn22	Zn	0.672306	-0.054701	-0.074135
Zn23	Zn	1.005640	0.278633	0.259198
Zn24	Zn	1.338973	0.611966	0.592532
Zn25	Zn	0.672342	0.054602	-0.074135
Zn26	Zn	1.005675	0.387935	0.259198
Zn27	Zn	1.339008	0.721268	0.592532
O28	O	0.667309	-0.041520	-0.157067
O29	O	1.000642	0.291814	0.176267
O30	O	1.333976	0.625147	0.509600
C31	C	0.568176	-0.000040	-0.078882
C32	C	0.901510	0.333293	0.254451
C33	C	1.234843	0.666627	0.587785
C34	C	0.504959	-0.000035	-0.078116
C35	C	0.838293	0.333299	0.255217
C36	C	1.171626	0.666632	0.588551
N37	N	0.672286	-0.129297	-0.074135
N38	N	1.005620	0.204037	0.259199
N39	N	1.338953	0.537370	0.592532
C40	C	0.105856	-0.000052	-0.125350
C41	C	0.439190	0.333282	0.207984
C42	C	0.772523	0.666615	0.541317
C43	C	0.046456	-0.000055	-0.124638
C44	C	0.379789	0.333278	0.208695
C45	C	0.713123	0.666612	0.542029
O46	O	0.009711	-0.000068	-0.168424
O47	O	0.343045	0.333265	0.164909
O48	O	0.676378	0.666599	0.498243
N49	N	0.023830	-0.000060	-0.072362
N50	N	0.357163	0.333273	0.260972
N51	N	0.690496	0.666607	0.594305
C52	C	0.060607	-0.000067	-0.020794
C53	C	0.393941	0.333266	0.312540
C54	C	0.727274	0.666599	0.645873
O55	O	0.035908	-0.000072	0.023737
O56	O	0.369241	0.333261	0.357070
O57	O	0.702574	0.666594	0.690404
C58	C	0.120006	-0.000068	-0.021506
C59	C	0.453340	0.333266	0.311828
C60	C	0.786673	0.666599	0.645161
C61	C	0.142629	-0.000057	-0.073785
C62	C	0.475962	0.333276	0.259548
C63	C	0.809296	0.666609	0.592881
C64	C	0.128479	-0.000042	-0.177625
C65	C	0.461813	0.333291	0.155708
C66	C	0.795146	0.666625	0.489042
C67	C	0.187876	-0.000038	-0.178336
C68	C	0.521209	0.333295	0.154997
C69	C	0.854542	0.666629	0.488330
C70	C	0.224649	-0.000044	-0.126772
C71	C	0.557982	0.333290	0.206561
C72	C	0.891315	0.666623	0.539895
C73	C	0.202025	-0.000053	-0.074497
C74	C	0.535359	0.333280	0.258837
C75	C	0.868692	0.666613	0.592170
C76	C	0.156783	-0.000078	0.030062
C77	C	0.490116	0.333255	0.363395
C78	C	0.823450	0.666588	0.696729
C79	C	0.216185	-0.000079	0.029345
C80	C	0.549519	0.333254	0.362679
C81	C	0.882852	0.666587	0.696012
C82	C	0.238808	-0.000069	-0.022934
C83	C	0.572141	0.333264	0.310399
C84	C	0.905475	0.666598	0.643732
C85	C	0.298194	-0.000055	-0.023643
C86	C	0.631528	0.333278	0.309690
C87	C	0.964861	0.666612	0.643023
N88	N	0.320820	-0.000050	-0.075920
N89	N	0.654154	0.333284	0.257414
N90	N	0.987487	0.666617	0.590747
C91	C	0.284048	-0.000044	-0.127484
C92	C	0.617381	0.333289	0.205849
C93	C	0.950714	0.666623	0.539183
C94	C	-0.064135	-0.000067	-0.019302
C95	C	0.269198	0.333266	0.314031
C96	C	0.602532	0.666599	0.647365
C97	C	-0.123533	-0.000063	-0.018589
C98	C	0.209800	0.333270	0.314744
C99	C	0.543134	0.666603	0.648077
C100	C	-0.137680	-0.000052	-0.122434
C101	C	0.195653	0.333282	0.210899
C102	C	0.528986	0.666615	0.544232
C103	C	-0.078281	-0.000052	-0.123146
C104	C	0.255052	0.333281	0.210187
C105	C	0.588385	0.666614	0.543520
C106	C	-0.041509	-0.000062	-0.071578
C107	C	0.291824	0.333271	0.261755
C108	C	0.625158	0.666605	0.595088
C109	C	0.408784	-0.000035	-0.128974
C110	C	0.742118	0.333298	0.204360
C111	C	1.075451	0.666632	0.537693
C112	C	0.468186	-0.000029	-0.129680
C113	C	0.801520	0.333304	0.203653
C114	C	1.134853	0.666638	0.536986
C115	C	0.482329	-0.000043	-0.025836
C116	C	0.815662	0.333290	0.307497
C117	C	1.148995	0.666624	0.640831
C118	C	0.422932	-0.000047	-0.025129
C119	C	0.756265	0.333287	0.308204
C120	C	1.089598	0.666620	0.641538
C121	C	0.386160	-0.000044	-0.076702
C122	C	0.719494	0.333289	0.256631
C123	C	1.052827	0.666622	0.589964
O124	O	0.334974	-0.000044	0.020119
O125	O	0.668307	0.333289	0.353453
O126	O	1.001640	0.666623	0.686786
O127	O	0.308755	-0.000045	-0.172007
O128	O	0.642089	0.333288	0.161326
O129	O	0.975422	0.666621	0.494660
C130	C	0.706678	-0.473922	-0.108495
C131	C	1.040012	-0.140589	0.224838
C132	C	1.373345	0.192745	0.558171
C133	C	0.706697	-0.682800	-0.108495
C134	C	1.040030	-0.349466	0.224838
C135	C	1.373363	-0.016133	0.558172
O136	O	0.735923	-0.709803	-0.137703
O137	O	1.069256	-0.376470	0.195630
O138	O	1.402590	-0.043136	0.528963
N139	N	0.672355	-0.708924	-0.074129
N140	N	1.005689	-0.375590	0.259204
N141	N	1.339022	-0.042257	0.592537
C142	C	0.638010	-0.682825	-0.039759
C143	C	0.971343	-0.349492	0.293575
C144	C	1.304677	-0.016159	0.626908
O145	O	0.608805	-0.709838	-0.010524
O146	O	0.942139	-0.376505	0.322809
O147	O	1.275472	-0.043172	0.656143
C148	C	0.637995	-0.473949	-0.039756
C149	C	0.971328	-0.140615	0.293577
C150	C	1.304662	0.192718	0.626910
C151	C	0.672334	-0.447827	-0.074129
C152	C	1.005667	-0.114494	0.259205
C153	C	1.339001	0.218839	0.592538
C154	C	0.741015	-0.447801	-0.142864
C155	C	1.074348	-0.114467	0.190469
C156	C	1.407682	0.218866	0.523802
C157	C	0.741008	-0.395584	-0.142866
C158	C	1.074341	-0.062251	0.190467
C159	C	1.407674	0.271082	0.523800
C160	C	0.706664	-0.369489	-0.108500
C161	C	1.039997	-0.036156	0.224834
C162	C	1.373330	0.297177	0.558167
C163	C	0.672327	-0.395611	-0.074131
C164	C	1.005660	-0.062278	0.259203
C165	C	1.338993	0.271056	0.592536
C166	C	0.603653	-0.447851	-0.005383
C167	C	0.936986	-0.114518	0.327950
C168	C	1.270320	0.218816	0.661284
C169	C	0.603653	-0.395629	-0.005384
C170	C	0.936987	-0.062295	0.327949
C171	C	1.270320	0.271038	0.661282
C172	C	0.637993	-0.369507	-0.039757
C173	C	0.971326	-0.036174	0.293577
C174	C	1.304659	0.297160	0.626910
C175	C	0.637975	-0.317300	-0.039766
C176	C	0.971309	0.016034	0.293567
C177	C	1.304642	0.349367	0.626901
N178	N	0.672317	-0.291176	-0.074132
N179	N	1.005650	0.042158	0.259202
N180	N	1.338983	0.375491	0.592535
C181	C	0.706661	-0.317270	-0.108498
C182	C	1.039994	0.016063	0.224835
C183	C	1.373327	0.349396	0.558168
C184	C	0.638019	-0.792489	-0.039763
C185	C	0.971353	-0.459155	0.293570
C186	C	1.304686	-0.125822	0.626904
C187	C	0.638022	-0.844708	-0.039764
C188	C	0.971356	-0.511374	0.293569
C189	C	1.304689	-0.178041	0.626903
C190	C	0.706710	-0.844678	-0.108500
C191	C	1.040043	-0.511345	0.224834
C192	C	1.373377	-0.178012	0.558167
C193	C	0.706704	-0.792458	-0.108501
C194	C	1.040037	-0.459125	0.224832
C195	C	1.373370	-0.125792	0.558165
C196	C	0.672361	-0.766365	-0.074129
C197	C	1.005694	-0.433031	0.259205
C198	C	1.339027	-0.099698	0.592538
C199	C	0.706643	-0.207612	-0.108501
C200	C	1.039976	0.125721	0.224833
C201	C	1.373309	0.459054	0.558166
C202	C	0.706630	-0.155392	-0.108501
C203	C	1.039964	0.177942	0.224832
C204	C	1.373297	0.511275	0.558165
C205	C	0.637945	-0.155425	-0.039764
C206	C	0.971279	0.177908	0.293570
C207	C	1.304612	0.511241	0.626903
C208	C	0.637955	-0.207642	-0.039765
C209	C	0.971288	0.125692	0.293568
C210	C	1.304621	0.459025	0.626902
C211	C	0.672308	-0.233734	-0.074135
C212	C	1.005641	0.099599	0.259198
C213	C	1.338975	0.432933	0.592532
O214	O	0.608769	-0.290264	-0.010568
O215	O	0.942103	0.043069	0.322765
O216	O	1.275436	0.376402	0.656099
O217	O	0.735870	-0.290248	-0.137719
O218	O	1.069204	0.043085	0.195614
O219	O	1.402537	0.376418	0.528948
C220	C	0.706686	-0.526138	-0.108493
C221	C	1.040019	-0.192805	0.224840
C222	C	1.373352	0.140528	0.558173
C223	C	0.672349	-0.552260	-0.074124
C224	C	1.005682	-0.218926	0.259209
C225	C	1.339015	0.114407	0.592542
C226	C	0.638005	-0.526165	-0.039758
C227	C	0.971338	-0.192832	0.293576
C228	C	1.304671	0.140502	0.626909
C229	C	0.672352	-0.604479	-0.074126
C230	C	1.005685	-0.271145	0.259208
C231	C	1.339018	0.062188	0.592541
C232	C	0.706696	-0.630574	-0.108492
C233	C	1.040029	-0.297240	0.224841
C234	C	1.373362	0.036093	0.558174
C235	C	0.741037	-0.604449	-0.142858
C236	C	1.074370	-0.271116	0.190475
C237	C	1.407704	0.062217	0.523809
C238	C	0.741030	-0.552233	-0.142860
C239	C	1.074363	-0.218900	0.190473
C240	C	1.407696	0.114434	0.523807
C241	C	0.603663	-0.552289	-0.005392
C242	C	0.936997	-0.218956	0.327941
C243	C	1.270330	0.114378	0.661275
C244	C	0.603673	-0.604505	-0.005393
C245	C	0.937006	-0.271172	0.327940
C246	C	1.270340	0.062161	0.661274
C247	C	0.638017	-0.630600	-0.039760
C248	C	0.971350	-0.297267	0.293573
C249	C	1.304684	0.036066	0.626907
C250	C	0.776472	-0.000058	-0.069388
C251	C	1.109805	0.333275	0.263945
C252	C	1.443138	0.666609	0.597278
C253	C	0.839689	-0.000060	-0.070154
C254	C	1.173022	0.333273	0.263179
C255	C	1.506355	0.666606	0.596513
C256	C	0.677071	-0.000060	0.030013
C257	C	1.010404	0.333273	0.363346
C258	C	1.343738	0.666606	0.696679
C259	C	0.676305	-0.000064	0.093230
C260	C	1.009638	0.333269	0.426563
C261	C	1.342972	0.666602	0.759896
N262	N	0.672366	0.129198	-0.074131
N263	N	1.005700	0.462531	0.259202
N264	N	1.339033	0.795864	0.592536
C265	C	0.667577	-0.000038	-0.178283
C266	C	1.000910	0.333296	0.155051
C267	C	1.334244	0.666629	0.488384
C268	C	0.668343	-0.000031	-0.241500
C269	C	1.001676	0.333303	0.091833
C270	C	1.335010	0.666636	0.425167
C271	C	0.723539	-0.000041	0.492333
C272	C	1.056872	0.333292	0.825666
C273	C	1.390205	0.666625	1.158999
C274	C	0.722827	-0.000037	0.551733
C275	C	1.056160	0.333296	0.885066
C276	C	1.389494	0.666629	1.218400
O277	O	0.766613	-0.000023	0.588478
O278	O	1.099946	0.333310	0.921811
O279	O	1.433280	0.666644	1.255144
N280	N	0.670551	-0.000033	0.574359
N281	N	1.003884	0.333300	0.907693
N282	N	1.337217	0.666634	1.241026
C283	C	0.618983	-0.000027	0.537582
C284	C	0.952316	0.333306	0.870915
C285	C	1.285649	0.666639	1.204248
O286	O	0.574452	-0.000023	0.562281
O287	O	0.907785	0.333311	0.895615
O288	O	1.241119	0.666644	1.228948
C289	C	0.619695	-0.000027	0.478182
C290	C	0.953028	0.333306	0.811516
C291	C	1.286361	0.666639	1.144849
C292	C	0.671974	-0.000037	0.455560
C293	C	1.005308	0.333296	0.788893
C294	C	1.338641	0.666630	1.122227
C295	C	0.775814	-0.000050	0.469710
C296	C	1.109147	0.333283	0.803043
C297	C	1.442481	0.666616	1.136376
C298	C	0.776525	-0.000055	0.410313
C299	C	1.109859	0.333278	0.743647
C300	C	1.443192	0.666612	1.076980
C301	C	0.724961	-0.000051	0.373540
C302	C	1.058294	0.333283	0.706874
C303	C	1.391628	0.666616	1.040207
C304	C	0.672685	-0.000042	0.396164
C305	C	1.006019	0.333292	0.729497
C306	C	1.339352	0.666625	1.062830
C307	C	0.568127	-0.000018	0.441406
C308	C	0.901460	0.333315	0.774739
C309	C	1.234794	0.666648	1.108073
C310	C	0.568844	-0.000018	0.382004
C311	C	0.902177	0.333315	0.715337
C312	C	1.235510	0.666649	1.048670
C313	C	0.621123	-0.000028	0.359381
C314	C	0.954457	0.333306	0.692714
C315	C	1.287790	0.666639	1.026048
C316	C	0.621832	-0.000042	0.299995
C317	C	0.955166	0.333291	0.633328
C318	C	1.288499	0.666624	0.966661
N319	N	0.674109	-0.000047	0.277368
N320	N	1.007442	0.333286	0.610702
N321	N	1.340775	0.666620	0.944035
C322	C	0.725673	-0.000051	0.314141
C323	C	1.059006	0.333282	0.647475
C324	C	1.392340	0.666616	0.980808
C325	C	0.617491	-0.000026	0.662324
C326	C	0.950824	0.333308	0.995657
C327	C	1.284158	0.666641	1.328991
C328	C	0.616778	-0.000029	0.721722
C329	C	0.950112	0.333304	1.055055
C330	C	1.283445	0.666638	1.388389
C331	C	0.720623	-0.000038	0.735869
C332	C	1.053957	0.333295	1.069203
C333	C	1.387290	0.666628	1.402536
C334	C	0.721335	-0.000039	0.676470
C335	C	1.054669	0.333295	1.009804
C336	C	1.388002	0.666628	1.343137
C337	C	0.669767	-0.000030	0.639698
C338	C	1.003101	0.333303	0.973031
C339	C	1.336434	0.666636	1.306365
C340	C	0.727163	-0.000062	0.189405
C341	C	1.060496	0.333272	0.522738
C342	C	1.393829	0.666605	0.856071
C343	C	0.727869	-0.000068	0.130003
C344	C	1.061203	0.333265	0.463336
C345	C	1.394536	0.666598	0.796669
C346	C	0.624025	-0.000057	0.115860
C347	C	0.957358	0.333277	0.449194
C348	C	1.290691	0.666610	0.782527
C349	C	0.623318	-0.000052	0.175257
C350	C	0.956651	0.333281	0.508591
C351	C	1.289985	0.666614	0.841924
C352	C	0.674891	-0.000053	0.212029
C353	C	1.008225	0.333280	0.545362
C354	C	1.341558	0.666614	0.878695
O355	O	0.578070	-0.000055	0.263215
O356	O	0.911403	0.333279	0.596549
O357	O	1.244736	0.666612	0.929882
O358	O	0.770196	-0.000049	0.289433
O359	O	1.103529	0.333284	0.622767
O360	O	1.436863	0.666618	0.956100
H361	H	0.486602	-0.000020	-0.172255
H362	H	0.819935	0.333313	0.161079
H363	H	1.153269	0.666646	0.494412
H364	H	0.575687	-0.374386	0.022607
H365	H	0.909020	-0.041052	0.355941
H366	H	1.242354	0.292281	0.689274
H367	H	0.526850	-0.000011	0.352066
H368	H	0.860183	0.333323	0.685399
H369	H	1.193516	0.666656	1.018732
Cl370	Cl	-0.151965	-0.000064	0.047136
Cl371	Cl	0.181368	0.333270	0.380470
Cl372	Cl	0.514701	0.666603	0.713803
H373	H	0.610053	-0.865971	-0.011782
H374	H	0.943386	-0.532638	0.321552
H375	H	1.276720	-0.199305	0.654885
Cl376	Cl	0.791999	-0.000063	0.235622
Cl377	Cl	1.125332	0.333270	0.568956
Cl378	Cl	1.458666	0.666603	0.902289
H379	H	0.768992	-0.530970	-0.170849
H380	H	1.102325	-0.197636	0.162484
H381	H	1.435659	0.135697	0.495817
H382	H	0.734593	-0.134126	-0.136494
H383	H	1.067927	0.199207	0.196839
H384	H	1.401260	0.532541	0.530173
Cl385	Cl	0.528568	-0.000052	0.038984
Cl386	Cl	0.861901	0.333281	0.372317
Cl387	Cl	1.195235	0.666614	0.705651
Cl388	Cl	0.749829	-0.240406	-0.151710
Cl389	Cl	1.083163	0.092927	0.181623
Cl390	Cl	1.416496	0.426261	0.514957
H391	H	0.098544	-0.000039	-0.219617
H392	H	0.431877	0.333294	0.113716
H393	H	0.765211	0.666627	0.447049
Cl394	Cl	0.793597	-0.000079	0.101567
Cl395	Cl	1.126931	0.333254	0.434900
Cl396	Cl	1.460264	0.666587	0.768234
Cl397	Cl	0.840647	-0.000056	0.515929
Cl398	Cl	1.173980	0.333277	0.849262
Cl399	Cl	1.507314	0.666610	1.182596
H400	H	0.763906	-0.000046	0.658056
H401	H	1.097239	0.333287	0.991389
H402	H	1.430573	0.666621	1.324722
Cl403	Cl	0.128358	-0.000083	0.095789
Cl404	Cl	0.461692	0.333250	0.429123
Cl405	Cl	0.795025	0.666584	0.762456
Cl406	Cl	0.557594	-0.000050	0.203698
Cl407	Cl	0.890928	0.333284	0.537031
Cl408	Cl	1.224261	0.666617	0.870365
H409	H	0.762610	-0.000040	0.765821
H410	H	1.095943	0.333294	1.099154
H411	H	1.429276	0.666627	1.432488
H412	H	0.575697	-0.531048	0.022595
H413	H	0.909030	-0.197715	0.355929
H414	H	1.242363	0.135619	0.689262
Cl415	Cl	0.594780	-0.240481	0.003441
Cl416	Cl	0.928113	0.092852	0.336774
Cl417	Cl	1.261446	0.426186	0.670108
H418	H	0.574207	-0.000030	0.740136
H419	H	0.907540	0.333303	1.073469
H420	H	1.240874	0.666637	1.406802
H421	H	0.575496	-0.000023	0.632386
H422	H	0.908829	0.333310	0.965720
H423	H	1.242162	0.666643	1.299053
H424	H	0.610052	-0.771248	-0.011771
H425	H	0.943385	-0.437914	0.321562
H426	H	1.276718	-0.104581	0.654896
H427	H	0.378851	-0.000035	-0.170970
H428	H	0.712185	0.333299	0.162363
H429	H	1.045518	0.666632	0.495697
H430	H	-0.059867	-0.000047	-0.165717
H431	H	0.273467	0.333287	0.167616
H432	H	0.606800	0.666620	0.500950
H433	H	0.609981	-0.134170	-0.011785
H434	H	0.943315	0.199164	0.321549
H435	H	1.276648	0.532497	0.654882
Cl436	Cl	0.784196	-0.480596	-0.186075
Cl437	Cl	1.117529	-0.147263	0.147258
Cl438	Cl	1.450863	0.186071	0.480592
Cl439	Cl	0.560496	-0.637337	0.037819
Cl440	Cl	0.893829	-0.304004	0.371153
Cl441	Cl	1.227163	0.029329	0.704486
Cl442	Cl	0.502400	-0.000003	0.469831
Cl443	Cl	0.835733	0.333330	0.803164
Cl444	Cl	1.169066	0.666664	1.136497
H445	H	0.768998	-0.625705	-0.170843
H446	H	1.102332	-0.292372	0.162490
H447	H	1.435665	0.040962	0.495823
H448	H	0.206289	-0.000029	-0.220908
H449	H	0.539622	0.333304	0.112426
H450	H	0.872956	0.666637	0.445759
Cl451	Cl	0.749887	-0.877493	-0.151701
Cl452	Cl	1.083221	-0.544159	0.181632
Cl453	Cl	1.416554	-0.210826	0.514965
Cl454	Cl	0.842252	-0.000053	0.381883
Cl455	Cl	1.175585	0.333281	0.715216
Cl456	Cl	1.508919	0.666614	1.048550
H457	H	0.734665	-0.771194	-0.136491
H458	H	1.067999	-0.437860	0.196843
H459	H	1.401332	-0.104527	0.530176
H460	H	-0.167632	-0.000050	-0.164421
H461	H	0.165701	0.333284	0.168913
H462	H	0.499035	0.666617	0.502246
H463	H	-0.034198	-0.000071	0.022693
H464	H	0.299136	0.333263	0.356027
H465	H	0.632469	0.666596	0.689360
H466	H	0.246123	-0.000088	0.071339
H467	H	0.579457	0.333246	0.404673
H468	H	0.912790	0.666579	0.738006
H469	H	0.404512	-0.000048	0.017441
H470	H	0.737845	0.333286	0.350775
H471	H	1.071178	0.666619	0.684108
H472	H	0.768973	-0.374321	-0.170853
H473	H	1.102306	-0.040987	0.162480
H474	H	1.435639	0.292346	0.495813
H475	H	0.575691	-0.469110	0.022607
H476	H	0.909024	-0.135777	0.355941
H477	H	1.242358	0.197556	0.689274
H478	H	0.582043	-0.000055	0.085909
H479	H	0.915376	0.333278	0.419243
H480	H	1.248709	0.666612	0.752576
