data_functionalizedCrystal
_audit_creation_method	'MofGen! by Chris Wilmer'
_symmetry_space_group_name_H-M	'P1'
_symmetry_Int_Tables_number	1
_symmetry_cell_setting	triclinic
loop_
_symmetry_equiv_pos_as_xyz
  x,y,z
_cell_length_a	16.974829
_cell_length_b	16.992695
_cell_length_c	15.455301
_cell_angle_alpha	87.173129
_cell_angle_beta	96.654373
_cell_angle_gamma	92.974284
loop_
_atom_site_label
_atom_site_type_symbol
_atom_site_fract_x
_atom_site_fract_y
_atom_site_fract_z
O1	O	1.062138	-0.106181	0.146689
O2	O	1.562138	0.393819	0.646689
O3	O	0.832001	-0.118218	0.130536
O4	O	1.332001	0.381782	0.630536
O5	O	0.946147	0.001945	0.138541
O6	O	1.446147	0.501945	0.638541
O7	O	0.947992	-0.226344	0.138684
O8	O	1.447992	0.273656	0.638684
O9	O	0.939549	0.008088	-0.006185
O10	O	1.439549	0.508088	0.493815
O11	O	0.825403	-0.112075	-0.014190
O12	O	1.325403	0.387925	0.485810
O13	O	1.055541	-0.100039	0.001963
O14	O	1.555541	0.399961	0.501963
Cu15	Cu	0.939869	-0.105496	-0.019328
Cu16	Cu	1.439869	0.394504	0.480672
Cu17	Cu	0.947672	-0.112761	0.151827
Cu18	Cu	1.447672	0.387239	0.651827
O19	O	0.941395	-0.220202	-0.006042
O20	O	1.441395	0.279798	0.493958
C21	C	0.799118	-0.114574	0.056097
C22	C	1.299118	0.385426	0.556097
C23	C	0.710968	-0.112857	0.049910
C24	C	1.210968	0.387143	0.549910
C25	C	0.214388	-0.102859	0.006614
C26	C	0.714388	0.397141	0.506614
C27	C	0.297215	-0.104472	0.012429
C28	C	0.797215	0.395528	0.512429
C29	C	0.342225	-0.108621	0.094229
C30	C	0.842225	0.391379	0.594229
C31	C	0.304404	-0.111165	0.170217
C32	C	0.804404	0.388835	0.670217
C33	C	0.221579	-0.109558	0.164401
C34	C	0.721579	0.390442	0.664401
C35	C	0.590322	-0.113793	0.120083
C36	C	1.090322	0.386207	0.620083
C37	C	0.673153	-0.115398	0.125893
C38	C	1.173153	0.384602	0.625893
C39	C	0.665958	-0.108706	-0.031896
C40	C	1.165958	0.391294	0.468104
C41	C	0.583132	-0.107094	-0.037705
C42	C	1.083132	0.392906	0.462295
C43	C	0.545318	-0.109643	0.038284
C44	C	1.045318	0.390357	0.538284
N45	N	0.426887	-0.110268	0.100175
N46	N	0.926887	0.389732	0.600175
N47	N	0.460657	-0.108002	0.032337
N48	N	0.960657	0.391998	0.532337
C49	C	0.940474	0.034234	0.066012
C50	C	1.440474	0.534234	0.566012
C51	C	0.933392	0.121291	0.065515
C52	C	1.433392	0.621291	0.565515
C53	C	1.088423	-0.103683	0.076404
C54	C	1.588423	0.396317	0.576404
C55	C	1.176573	-0.105400	0.082597
C56	C	1.676573	0.394600	0.582597
C57	C	0.947067	-0.252490	0.066490
C58	C	1.447067	0.247510	0.566490
C59	C	0.954150	-0.339548	0.066992
C60	C	1.454150	0.160452	0.566992
N61	N	0.934387	-0.100386	-0.139709
N62	N	1.434387	0.399614	0.360291
C63	C	1.001726	0.171400	0.070310
C64	C	1.501726	0.671400	0.570310
C65	C	0.995067	0.253199	0.069851
C66	C	1.495067	0.753199	0.569851
C67	C	0.920073	0.284888	0.064590
C68	C	1.420073	0.784888	0.564590
C69	C	0.851734	0.234773	0.059797
C70	C	1.351734	0.734773	0.559797
C71	C	0.858394	0.152975	0.060263
C72	C	1.358394	0.652975	0.560263
C73	C	0.892471	0.528539	0.062665
C74	C	1.392471	1.028539	0.562665
C75	C	0.885816	0.610343	0.062197
C76	C	1.385816	1.110343	0.562197
C77	C	1.029149	0.628763	0.072252
C78	C	1.529149	1.128763	0.572252
C79	C	1.035802	0.546963	0.072712
C80	C	1.535802	1.046963	0.572712
C81	C	0.967464	0.496855	0.067924
C82	C	1.467464	0.996855	0.567924
N83	N	0.913265	0.368500	0.064118
N84	N	1.413265	0.868500	0.564118
N85	N	0.974273	0.413245	0.068402
N86	N	1.474273	0.913245	0.568402
C87	C	0.983434	-0.146138	-0.181654
C88	C	1.483434	0.353862	0.318346
C89	C	0.979298	-0.142269	-0.272753
C90	C	1.479298	0.357731	0.227247
C91	C	0.926111	-0.092651	-0.321905
C92	C	1.426111	0.407349	0.178095
C93	C	0.877063	-0.046894	-0.279954
C94	C	1.377063	0.453106	0.220046
C95	C	0.881203	-0.050760	-0.188856
C96	C	1.381203	0.449240	0.311144
C97	C	0.908252	-0.075973	-0.594742
C98	C	1.408252	0.424027	-0.094742
C99	C	0.904113	-0.072112	-0.685846
C100	C	1.404113	0.427888	-0.185846
C101	C	1.006350	-0.167487	-0.678639
C102	C	1.506350	0.332513	-0.178639
C103	C	1.010482	-0.171351	-0.587540
C104	C	1.510482	0.328649	-0.087540
C105	C	0.961437	-0.125591	-0.545597
C106	C	1.461437	0.374409	-0.045597
N107	N	0.921881	-0.088697	-0.415023
N108	N	1.421881	0.411303	0.084977
N109	N	0.965672	-0.129542	-0.452480
N110	N	1.465672	0.370458	0.047520
N111	N	0.953160	-0.117864	0.272209
N112	N	1.453160	0.382136	0.772209
H113	H	0.177746	-0.099483	-0.059996
H114	H	0.677746	0.400517	0.440004
H115	H	1.053795	-0.211753	-0.547526
H116	H	1.553795	0.288247	-0.047526
C117	C	1.060303	-0.217813	-0.724784
C118	C	1.560303	0.282187	-0.224784
N119	N	1.100945	-0.255718	-0.759540
N120	N	1.600945	0.244282	-0.259540
H121	H	0.546491	-0.103699	-0.104314
H122	H	1.046491	0.396301	0.395686
C123	C	0.179983	-0.112351	0.247989
C124	C	0.679983	0.387649	0.747989
N125	N	0.148654	-0.114456	0.310950
N126	N	0.648654	0.385544	0.810950
C127	C	0.783221	0.097856	0.054985
C128	C	1.283221	0.597856	0.554985
N129	N	0.726598	0.056340	0.051013
N130	N	1.226598	0.556340	0.551013
H131	H	0.328000	-0.102400	-0.049444
H132	H	0.828000	0.397600	0.450556
C133	C	1.118301	0.512112	0.078498
C134	C	1.618301	1.012112	0.578498
N135	N	1.180440	0.485863	0.082853
N136	N	1.680440	0.985863	0.582853
H137	H	0.696755	-0.106633	-0.093761
H138	H	1.196755	0.393367	0.406239
H139	H	1.062793	0.145606	0.074588
H140	H	1.562793	0.645606	0.574588
H141	H	0.341058	-0.114548	0.236820
H142	H	0.841058	0.385452	0.736820
H143	H	1.026740	-0.186547	-0.141641
H144	H	1.526740	0.313453	0.358359
H145	H	0.709798	-0.118784	0.192507
H146	H	1.209798	0.381216	0.692507
H147	H	1.050712	0.293995	0.073754
H148	H	1.550712	0.793995	0.573754
H149	H	0.559544	-0.115865	0.181958
H150	H	1.059544	0.384135	0.681958
C151	C	1.104317	0.683888	0.077527
C152	C	1.604317	1.183888	0.577527
N153	N	1.160936	0.725408	0.081505
N154	N	1.660936	1.225408	0.581505
C155	C	0.803314	0.645198	0.056416
C156	C	1.303314	1.145198	0.556416
N157	N	0.741176	0.671451	0.052063
N158	N	1.241176	1.171451	0.552063
H159	H	0.836824	0.487750	0.058765
H160	H	1.336824	0.987750	0.558765
C161	C	0.854293	-0.025641	-0.548617
C162	C	1.354293	0.474359	-0.048617
N163	N	0.813646	0.012269	-0.513872
N164	N	1.313646	0.512269	-0.013872
H165	H	0.833761	-0.006490	-0.319980
H166	H	1.333761	0.493510	0.180020
C167	C	0.769240	0.269634	0.054003
C168	C	1.269240	0.769634	0.554003
N169	N	0.707103	0.295891	0.049632
N170	N	1.207103	0.795891	0.549632
C171	C	0.827246	-0.000431	-0.142718
C172	C	1.327246	0.499569	0.357282
N173	N	0.786605	0.037480	-0.107967
N174	N	1.286605	0.537480	0.392033
C175	C	1.033224	-0.192631	-0.318890
C176	C	1.533224	0.307369	0.181110
N177	N	1.073834	-0.230577	-0.353641
N178	N	1.573834	0.269423	0.146359
H179	H	0.860798	-0.031708	-0.725864
H180	H	1.360798	0.468292	-0.225864
