data_functionalizedCrystal
_audit_creation_method	'MofGen! by Chris Wilmer'
_symmetry_space_group_name_H-M	'P1'
_symmetry_Int_Tables_number	1
_symmetry_cell_setting	triclinic
loop_
_symmetry_equiv_pos_as_xyz
  x,y,z
_cell_length_a	16.992694
_cell_length_b	8.965430
_cell_length_c	16.992695
_cell_angle_alpha	89.999842
_cell_angle_beta	90.668223
_cell_angle_gamma	89.998442
loop_
_atom_site_label
_atom_site_type_symbol
_atom_site_fract_x
_atom_site_fract_y
_atom_site_fract_z
O1	O	1.050850	0.123854	0.166911
O2	O	0.822450	0.123898	0.165079
O3	O	0.935734	0.123864	0.051795
O4	O	0.937566	0.123887	0.280195
O5	O	0.935725	-0.124215	0.051802
O6	O	0.822440	-0.124181	0.165087
O7	O	1.050840	-0.124225	0.166918
Cu8	Cu	0.936640	-0.146855	0.166003
Cu9	Cu	0.936651	0.146527	0.165994
O10	O	0.937556	-0.124191	0.280203
C11	C	0.793085	-0.000136	0.162727
C12	C	0.705600	-0.000120	0.155699
N13	N	0.936637	-0.353204	0.166009
C14	C	0.659610	-0.000114	0.223517
C15	C	0.577409	-0.000135	0.216908
C16	C	0.541201	-0.000152	0.142480
C17	C	0.587198	-0.000162	0.074657
C18	C	0.669397	-0.000151	0.081267
C19	C	0.295886	-0.000194	0.115086
C20	C	0.213681	-0.000200	0.108481
C21	C	0.203898	-0.000177	0.250732
C22	C	0.286099	-0.000157	0.257336
C23	C	0.332089	-0.000175	0.189512
N24	N	0.457178	-0.000169	0.135723
N25	N	0.416110	-0.000169	0.196270
C26	C	0.884229	-0.450494	0.218380
C27	C	0.956320	-0.549920	0.238112
C28	C	0.864576	-0.549906	0.146285
C29	C	1.008767	-0.450441	0.185779
C30	C	0.916974	-0.450417	0.093918
C31	C	0.989115	-0.549798	0.113624
C32	C	1.080205	-0.000188	0.169270
C33	C	1.167690	-0.000195	0.176299
C34	C	0.933374	-0.000175	0.022439
C35	C	0.926345	-0.000173	-0.065046
N36	N	0.936659	0.352876	0.165983
C37	C	0.994163	-0.000188	-0.111037
C38	C	0.987554	-0.000172	-0.193238
C39	C	0.913127	-0.000153	-0.229446
C40	C	0.845303	-0.000134	-0.183449
C41	C	0.851913	-0.000138	-0.101250
C42	C	0.885732	-0.000127	-0.474760
C43	C	0.879127	-0.000127	-0.556966
C44	C	1.021379	-0.000162	-0.566749
C45	C	1.027982	-0.000176	-0.484547
C46	C	0.960159	-0.000149	-0.438558
N47	N	0.906369	-0.000142	-0.313468
N48	N	0.966917	-0.000150	-0.354537
C49	C	0.939917	-0.000149	0.309559
C50	C	0.946945	-0.000141	0.397044
H51	H	0.689084	-0.000100	0.284124
C52	C	1.040587	-0.000148	-0.323587
C53	C	1.062101	-0.000177	-0.243792
H54	H	1.086612	-0.000136	-0.354796
H55	H	1.010284	-0.086647	-0.335050
H56	H	1.010282	0.086375	-0.335034
H57	H	1.092401	-0.086706	-0.232344
H58	H	1.092417	0.086330	-0.232324
C59	C	0.767516	0.127375	0.006175
C60	C	0.719957	-0.000152	0.006721
H61	H	0.798732	0.127362	-0.039845
H62	H	0.735242	0.213867	0.006544
H63	H	0.800837	0.127369	0.051453
H64	H	0.686631	-0.000140	-0.038553
H65	H	0.752233	-0.086667	0.006345
H66	H	0.839954	-0.406892	0.262714
C67	C	0.923824	-0.558825	0.375161
C68	C	0.978792	-0.608939	0.320394
H69	H	0.937692	-0.595266	0.425958
H70	H	0.923513	-0.452893	0.375882
H71	H	0.872988	-0.594353	0.360791
H72	H	1.029627	-0.573401	0.334762
H73	H	0.979111	-0.714893	0.319676
H74	H	0.784703	-0.000109	-0.212936
H75	H	1.069734	-0.406933	0.202522
H76	H	0.900307	-0.406677	0.032982
C77	C	1.124411	-0.557826	0.074651
C78	C	1.049023	-0.608311	0.053823
H79	H	1.161397	-0.593962	0.037737
H80	H	1.125027	-0.451890	0.074641
H81	H	1.137942	-0.593413	0.125697
H82	H	1.035490	-0.572716	0.002779
H83	H	1.048406	-0.714270	0.053824
C84	C	0.727509	-0.558737	0.178710
C85	C	0.782297	-0.608876	0.123770
H86	H	0.676712	-0.595131	0.164810
H87	H	0.741842	-0.594279	0.229546
H88	H	0.726808	-0.452790	0.179024
H89	H	0.783002	-0.714823	0.123460
H90	H	0.767960	-0.573341	0.072921
C91	C	1.134107	-0.000196	-0.128972
C92	C	1.075977	-0.000198	-0.071241
H93	H	1.184616	-0.000188	-0.104403
H94	H	1.128570	-0.086702	-0.160826
H95	H	1.128563	0.086320	-0.160831
H96	H	1.081518	-0.086721	-0.039386
H97	H	1.081517	0.086316	-0.039373
C98	C	1.167928	-0.000209	-0.502478
C99	C	1.109795	-0.000199	-0.444750
H100	H	1.218436	-0.000222	-0.477906
H101	H	1.162385	-0.086708	-0.534336
H102	H	1.162394	0.086314	-0.534333
H103	H	1.115325	-0.086729	-0.412898
H104	H	1.115341	0.086308	-0.412878
H105	H	1.076596	-0.000181	-0.604202
H106	H	0.539966	-0.000129	0.272133
H107	H	0.818517	-0.000135	-0.586443
H108	H	0.830505	-0.000105	-0.437325
C109	C	0.732709	0.127413	-0.067602
C110	C	0.777365	-0.000124	-0.050694
H111	H	0.686683	0.127419	-0.036394
H112	H	0.763021	0.213898	-0.056138
H113	H	0.718126	0.127398	-0.121740
H114	H	0.791953	-0.000104	0.003443
H115	H	0.747047	-0.086632	-0.062152
H116	H	0.315574	-0.000126	0.317942
H117	H	0.166444	-0.000165	0.305950
H118	H	0.184203	-0.000212	0.047870
C119	C	0.570233	-0.127712	-0.048620
C120	C	0.547400	-0.000179	-0.007156
H121	H	0.545660	-0.127720	-0.099127
H122	H	0.625763	-0.127699	-0.054387
H123	H	0.554747	-0.214210	-0.020470
H124	H	0.562891	0.086319	-0.035304
H125	H	0.491857	-0.000178	-0.001392
H126	H	0.333322	-0.000210	0.059859
