data_functionalizedCrystal
_audit_creation_method	'MofGen! by Chris Wilmer'
_symmetry_space_group_name_H-M	'P1'
_symmetry_Int_Tables_number	1
_symmetry_cell_setting	triclinic
loop_
_symmetry_equiv_pos_as_xyz
  x,y,z
_cell_length_a	13.033808
_cell_length_b	13.032721
_cell_length_c	13.033109
_cell_angle_alpha	74.856674
_cell_angle_beta	90.924480
_cell_angle_gamma	103.361820
loop_
_atom_site_label
_atom_site_type_symbol
_atom_site_fract_x
_atom_site_fract_y
_atom_site_fract_z
Zn1	Zn	1.617320	-0.263549	0.419206
Zn2	Zn	1.577813	-0.424384	0.269891
Zn3	Zn	1.422870	-0.269360	0.269877
Zn4	Zn	1.422834	-0.469433	0.469958
O5	O	1.510209	-0.356682	0.357233
O6	O	1.758316	-0.263600	0.378166
O7	O	1.540741	-0.387398	0.123665
O8	O	1.465213	-0.117548	0.268440
O9	O	1.729291	-0.381764	0.268464
O10	O	1.608074	-0.113279	0.378152
O11	O	1.426905	-0.273503	0.123655
O12	O	1.276628	-0.317185	0.317652
O13	O	1.465152	-0.458544	0.609449
O14	O	1.276602	-0.464178	0.464650
O15	O	1.608040	-0.307282	0.572162
O16	O	1.540706	-0.581401	0.317675
O17	O	1.426844	-0.614498	0.464664
C18	C	1.238697	-0.396201	0.396657
C19	C	1.122543	-0.413137	0.413552
C20	C	0.950715	-0.365367	0.365898
C21	C	1.070766	-0.347863	0.348434
C22	C	1.479515	-0.637111	0.396697
C23	C	1.466483	-0.757070	0.413601
C24	C	1.517071	-0.794139	0.348449
C25	C	1.503604	-0.918122	0.365919
C26	C	1.782781	-0.317009	0.317655
C27	C	1.898935	-0.300102	0.300789
C28	C	1.540999	-0.387290	0.629780
C29	C	1.554119	-0.400333	0.745923
C30	C	1.541055	-0.075155	0.317633
C31	C	1.554199	0.044814	0.300758
C32	C	1.479608	-0.326106	0.085726
C33	C	1.466723	-0.312729	-0.030489
C34	C	1.503645	-0.349795	0.797699
C35	C	1.517205	-0.363274	0.917739
H36	H	1.078002	-0.481977	0.482227
Br37	Br	1.144995	-0.233135	0.233959
Br38	Br	0.973168	-0.185379	0.186319
H39	H	1.450389	-0.296553	0.753157
H40	H	1.607369	-0.453581	0.790466
H41	H	0.906168	-0.434204	0.434567
Br42	Br	1.605891	-0.694056	0.233929
H43	H	1.450324	-0.978172	0.434639
Br44	Br	1.643021	-0.855108	0.186231
H45	H	1.570458	-0.416526	0.962278
H46	H	1.413466	-0.259481	0.924975
H47	H	1.413207	-0.817123	0.482316
