data_functionalizedCrystal
_audit_creation_method	'MofGen! by Chris Wilmer'
_symmetry_space_group_name_H-M	'P1'
_symmetry_Int_Tables_number	1
_symmetry_cell_setting	triclinic
loop_
_symmetry_equiv_pos_as_xyz
  x,y,z
_cell_length_a	8.559649
_cell_length_b	8.597304
_cell_length_c	18.366186
_cell_angle_alpha	82.293964
_cell_angle_beta	89.991101
_cell_angle_gamma	77.624695
loop_
_atom_site_label
_atom_site_type_symbol
_atom_site_fract_x
_atom_site_fract_y
_atom_site_fract_z
O1	O	2.119307	-0.053142	-0.057204
O2	O	1.655368	0.027759	-0.062282
O3	O	1.896465	-0.242259	-0.045340
O4	O	1.878211	0.216876	-0.074147
O5	O	1.896423	-0.242266	0.075760
O6	O	1.655327	0.027752	0.058817
O7	O	2.119265	-0.053149	0.063895
Zn8	Zn	1.887289	-0.012699	0.080584
Zn9	Zn	1.887344	-0.012690	-0.078971
O10	O	1.878169	0.216870	0.046953
C11	C	1.595914	0.033886	-0.002118
C12	C	1.418819	0.052135	-0.003264
C13	C	1.894482	-0.300498	0.018862
C14	C	1.888616	-0.474019	0.029744
C15	C	2.178720	-0.059276	0.003729
C16	C	2.355815	-0.077525	0.004870
C17	C	1.880152	0.275108	-0.017250
C18	C	1.886018	0.448629	-0.028137
N19	N	1.887263	-0.012708	0.189475
N20	N	1.887383	-0.012696	-0.187861
C21	C	1.994057	-0.132224	0.235075
C22	C	1.994067	-0.132232	0.311303
C23	C	1.887299	-0.012699	0.341927
C24	C	1.780485	0.106827	0.296318
C25	C	1.780467	0.106823	0.220092
C26	C	1.868635	0.132487	0.453579
C27	C	1.868664	0.132492	0.529803
C28	C	1.887345	-0.012685	0.577034
C29	C	1.906030	-0.157877	0.548031
C30	C	1.906012	-0.157882	0.471805
C31	C	1.887306	-0.012682	0.424581
C32	C	1.994155	-0.132219	0.705290
C33	C	1.994154	-0.132228	0.781519
C34	C	1.780580	0.106844	0.766532
C35	C	1.780573	0.106840	0.690305
C36	C	1.887369	-0.012691	0.659688
H37	H	1.337267	0.177113	-0.011109
H38	H	1.888276	-0.484846	-0.086021
H39	H	1.921223	-0.276101	0.448195
H40	H	1.693550	0.204151	0.321256
O41	O	1.676672	0.223091	0.175895
C42	C	1.582400	0.328569	0.219268
H43	H	1.647816	0.322498	0.273980
H44	H	1.560016	0.456592	0.189209
H45	H	1.463138	0.291913	0.229687
H46	H	1.693641	0.204164	0.791466
H47	H	2.081013	-0.229556	0.210149
H48	H	1.853395	0.250718	0.415128
H49	H	1.886334	-0.540546	0.087631
O50	O	2.097957	-0.248419	0.355501
C51	C	2.192174	-0.353950	0.312134
H52	H	2.194976	-0.289947	0.253778
H53	H	2.319162	-0.393127	0.336608
H54	H	2.138575	-0.464110	0.310950
H55	H	1.921241	-0.276094	0.586486
O56	O	1.452920	-0.226704	0.014327
C57	C	1.422592	-0.310779	0.082329
H58	H	1.296967	-0.257250	0.099881
H59	H	1.432420	-0.442863	0.076509
H60	H	1.513864	-0.300211	0.125583
O61	O	2.097936	-0.248494	0.675666
C62	C	2.192217	-0.353975	0.732263
H63	H	2.126813	-0.347900	0.786226
H64	H	2.214590	-0.481998	0.718273
H65	H	2.311482	-0.317324	0.738057
O66	O	2.097678	-0.248464	0.825857
C67	C	2.010787	-0.334853	0.875395
H68	H	1.884974	-0.322424	0.851658
H69	H	2.073927	-0.467168	0.884558
H70	H	2.003199	-0.284826	0.930027
O71	O	1.676787	0.223109	0.646107
C72	C	1.582522	0.328590	0.689481
H73	H	1.647945	0.322519	0.744192
H74	H	1.560138	0.456612	0.659421
H75	H	1.463261	0.291937	0.699904
H76	H	1.853459	0.250714	0.553411
