data_functionalizedCrystal
_audit_creation_method	'MofGen! by Chris Wilmer'
_symmetry_space_group_name_H-M	'P1'
_symmetry_Int_Tables_number	1
_symmetry_cell_setting	triclinic
loop_
_symmetry_equiv_pos_as_xyz
  x,y,z
_cell_length_a	14.908941
_cell_length_b	14.908326
_cell_length_c	14.908308
_cell_angle_alpha	90.223626
_cell_angle_beta	83.630660
_cell_angle_gamma	96.801528
loop_
_atom_site_label
_atom_site_type_symbol
_atom_site_fract_x
_atom_site_fract_y
_atom_site_fract_z
Zn1	Zn	-1.337517	0.305936	-0.415368
Zn2	Zn	-0.837517	0.805936	0.084632
Zn3	Zn	-1.338413	0.447591	-0.256277
Zn4	Zn	-0.838413	0.947591	0.243723
Zn5	Zn	-1.194889	0.305973	-0.272741
Zn6	Zn	-0.694889	0.805973	0.227259
Zn7	Zn	-1.177378	0.466005	-0.415297
Zn8	Zn	-0.677378	0.966005	0.084703
O9	O	-1.262049	0.381376	-0.339921
O10	O	-0.762049	0.881376	0.160079
O11	O	-1.464720	0.317004	-0.387404
O12	O	-0.964720	0.817004	0.112596
O13	O	-1.327077	0.421114	-0.132220
O14	O	-0.827077	0.921114	0.367780
O15	O	-1.220762	0.179711	-0.298581
O16	O	-0.720762	0.679711	0.201419
O17	O	-1.465378	0.421078	-0.270520
O18	O	-0.965378	0.921078	0.229480
O19	O	-1.325550	0.179684	-0.403368
O20	O	-0.825550	0.679684	0.096632
O21	O	-1.221631	0.317068	-0.144316
O22	O	-0.721631	0.817068	0.355684
O23	O	-1.065481	0.334924	-0.298512
O24	O	-0.565481	0.834924	0.201488
O25	O	-1.190917	0.452462	-0.541547
O26	O	-0.690917	0.952462	-0.041547
O27	O	-1.052616	0.452498	-0.403247
O28	O	-0.552616	0.952498	0.096753
O29	O	-1.308571	0.334860	-0.541600
O30	O	-0.808571	0.834860	-0.041600
O31	O	-1.310098	0.576290	-0.270451
O32	O	-0.810098	1.076290	0.229549
O33	O	-1.191786	0.589819	-0.387283
O34	O	-0.691786	1.089819	0.112717
C35	C	-1.026097	0.395714	-0.352659
C36	C	-0.526097	0.895714	0.147341
C37	C	-0.925154	0.401871	-0.358129
C38	C	-0.425154	0.901871	0.141871
C39	C	-0.748814	0.290847	-0.259516
C40	C	-0.248814	0.790847	0.240484
C41	C	-0.653969	0.296629	-0.264652
C42	C	-0.153969	0.796629	0.235348
C43	C	-0.640616	0.419220	-0.373532
C44	C	-0.140616	0.919220	0.126468
C45	C	-0.735461	0.413439	-0.368396
C46	C	-0.235461	0.913439	0.131604
C47	C	-0.789557	0.349249	-0.311387
C48	C	-0.289557	0.849249	0.188613
C49	C	-0.884404	0.343463	-0.306256
C50	C	-0.384404	0.843463	0.193744
C51	C	-0.871050	0.466059	-0.415131
C52	C	-0.371050	0.966059	0.084869
C53	C	-0.776205	0.471840	-0.420267
C54	C	-0.276205	0.971840	0.079733
C55	C	-1.249162	0.615791	-0.327091
C56	C	-0.749162	1.115791	0.172909
C57	C	-1.243731	0.716072	-0.321628
C58	C	-0.743731	1.216072	0.178372
C59	C	-0.498923	0.366973	-0.327127
C60	C	0.001077	0.866973	0.172873
C61	C	-0.599867	0.360812	-0.321660
C62	C	-0.099867	0.860812	0.178340
C63	C	-1.342545	0.904344	-0.420607
C64	C	-0.842545	1.404344	0.079393
C65	C	-1.337444	0.998566	-0.415477
C66	C	-0.837444	1.498566	0.084523
C67	C	-1.228425	0.998742	-0.306244
C68	C	-0.728425	1.498742	0.193756
C69	C	-1.233525	0.904519	-0.311374
C70	C	-0.733525	1.404519	0.188626
C71	C	-1.290588	0.857323	-0.368556
C72	C	-0.790588	1.357323	0.131444
C73	C	-1.295693	0.763099	-0.373681
C74	C	-0.795693	1.263099	0.126319
C75	C	-1.186669	0.763276	-0.264453
C76	C	-0.686669	1.263276	0.235547
C77	C	-1.181569	0.857499	-0.259323
C78	C	-0.681569	1.357499	0.240677
C79	C	-1.247691	0.395711	-0.575222
C80	C	-0.747691	0.895711	-0.075222
C81	C	-1.241572	0.401819	-0.675493
C82	C	-0.741572	0.901819	-0.175493
C83	C	-1.274973	1.146047	-0.352814
C84	C	-0.774973	1.646047	0.147186
C85	C	-1.280387	1.045769	-0.358296
C86	C	-0.780387	1.545769	0.141704
C87	C	-1.352586	0.290818	-0.863970
C88	C	-0.852586	0.790818	-0.363970
C89	C	-1.346840	0.296554	-0.958184
C90	C	-0.846840	0.796554	-0.458184
C91	C	-1.224331	0.419023	-0.958136
C92	C	-0.724331	0.919023	-0.458136
C93	C	-1.230077	0.413287	-0.863922
C94	C	-0.730077	0.913287	-0.363922
C95	C	-1.294207	0.349183	-0.816843
C96	C	-0.794207	0.849183	-0.316843
C97	C	-1.299957	0.343452	-0.722627
C98	C	-0.799957	0.843452	-0.222627
C99	C	-1.177444	0.465916	-0.722581
C100	C	-0.677444	0.965916	-0.222581
C101	C	-1.171698	0.471652	-0.816795
C102	C	-0.671698	0.971652	-0.316795
C103	C	-1.276407	0.367029	-0.105536
C104	C	-0.776407	0.867029	0.394464
C105	C	-1.282716	0.360655	-0.005270
C106	C	-0.782716	0.860655	0.494730
H107	H	-0.596556	0.471488	-0.419938
H108	H	-0.096556	0.971488	0.080062
H109	H	-1.379748	1.036848	-0.457867
H110	H	-0.879748	1.536848	0.042133
C111	C	-0.609155	0.232378	-0.207595
C112	C	-0.109155	0.732378	0.292405
N113	N	-0.575401	0.183981	-0.164617
N114	N	-0.075401	0.683981	0.335383
C115	C	-1.358462	0.711185	-0.436583
C116	C	-0.858462	1.211185	0.063417
N117	N	-1.405740	0.672086	-0.483965
N118	N	-0.905740	1.172086	0.016035
C119	C	-1.129514	0.711546	-0.207193
C120	C	-0.629514	1.211546	0.292807
N121	N	-1.086467	0.672582	-0.164065
N122	N	-0.586467	1.172582	0.335935
H123	H	-1.119483	0.523842	-0.855140
H124	H	-0.619483	1.023842	-0.355140
H125	H	-0.732147	0.524104	-0.466679
H126	H	-0.232147	1.024104	0.033321
H127	H	-0.904233	0.513609	-0.457373
H128	H	-0.404233	1.013609	0.042627
C129	C	-1.405316	0.852426	-0.483505
C130	C	-0.905316	1.352426	0.016495
N131	N	-1.452596	0.813323	-0.530882
N132	N	-0.952596	1.313323	-0.030882
C133	C	-1.153771	0.489510	-1.009942
C134	C	-0.653771	0.989510	-0.509942
N135	N	-1.100620	0.542597	-1.048965
N136	N	-0.600620	1.042597	-0.548965
H137	H	-1.181963	1.037185	-0.259693
H138	H	-0.681963	1.537185	0.240307
H139	H	-1.129910	0.513443	-0.684200
H140	H	-0.629910	1.013443	-0.184200
C141	C	-0.808321	0.220235	-0.196810
C142	C	-0.308321	0.720235	0.303190
N143	N	-0.853141	0.167049	-0.149578
N144	N	-0.353141	0.667049	0.350422
C145	C	-1.118863	0.909418	-0.196366
C146	C	-0.618863	1.409418	0.303634
N147	N	-1.071657	0.948520	-0.148922
N148	N	-0.571657	1.448520	0.351078
H149	H	-1.352177	0.291256	-0.684296
H150	H	-0.852177	0.791256	-0.184296
H151	H	-1.404808	0.238626	-0.825637
H152	H	-0.904808	0.738626	-0.325637
C153	C	-0.943908	0.272856	-0.243543
C154	C	-0.443908	0.772856	0.256457
N155	N	-0.988724	0.219675	-0.196302
N156	N	-0.488724	0.719675	0.303698
H157	H	-1.394376	0.249025	-0.996552
H158	H	-0.894376	0.749025	-0.496552
