data_functionalizedCrystal
_audit_creation_method	'MofGen! by Chris Wilmer'
_symmetry_space_group_name_H-M	'P1'
_symmetry_Int_Tables_number	1
_symmetry_cell_setting	triclinic
loop_
_symmetry_equiv_pos_as_xyz
  x,y,z
_cell_length_a	14.519709
_cell_length_b	19.288867
_cell_length_c	12.996460
_cell_angle_alpha	89.995902
_cell_angle_beta	90.007090
_cell_angle_gamma	96.591393
loop_
_atom_site_label
_atom_site_type_symbol
_atom_site_fract_x
_atom_site_fract_y
_atom_site_fract_z
O1	O	0.115054	-0.921762	0.085533
O2	O	0.615054	-0.421762	0.585533
O3	O	0.130572	-0.719558	0.085543
O4	O	0.630572	-0.219558	0.585543
O5	O	-0.011460	-0.826021	0.085529
O6	O	0.488540	-0.326021	0.585529
O7	O	0.257085	-0.815299	0.085548
O8	O	0.757085	-0.315299	0.585548
O9	O	-0.011467	-0.826010	-0.085605
O10	O	0.488533	-0.326010	0.414395
O11	O	0.130564	-0.719547	-0.085591
O12	O	0.630564	-0.219547	0.414409
O13	O	0.115046	-0.921751	-0.085601
O14	O	0.615046	-0.421751	0.414399
Cu15	Cu	0.122804	-0.820648	-0.101222
Cu16	Cu	0.622804	-0.320648	0.398778
Cu17	Cu	0.122814	-0.820661	0.101164
Cu18	Cu	0.622814	-0.320661	0.601164
O19	O	0.257077	-0.815288	-0.085586
O20	O	0.757077	-0.315288	0.414414
C21	C	-0.045820	-0.825516	-0.000039
C22	C	0.454180	-0.325516	0.499961
C23	C	-0.148192	-0.824018	-0.000039
C24	C	0.351808	-0.324018	0.499961
C25	C	0.130068	-0.693674	-0.000022
C26	C	0.630068	-0.193674	0.499978
C27	C	0.128568	-0.616565	-0.000019
C28	C	0.628568	-0.116565	0.499981
C29	C	0.115550	-0.947635	-0.000033
C30	C	0.615550	-0.447635	0.499967
C31	C	0.117050	-1.024744	-0.000030
C32	C	0.617050	-0.524744	0.499970
C33	C	-0.523053	-0.818506	-0.000012
C34	C	-0.023053	-0.318506	0.499988
C35	C	-0.418754	-0.820037	-0.000020
C36	C	0.081246	-0.320037	0.499980
C37	C	-0.335626	-0.821262	-0.000026
C38	C	0.164374	-0.321262	0.499974
C39	C	-0.231321	-0.822793	-0.000032
C40	C	0.268679	-0.322793	0.499968
C41	C	0.291438	-0.815793	-0.000017
C42	C	0.791438	-0.315793	0.499983
C43	C	0.393810	-0.817290	-0.000010
C44	C	0.893810	-0.317290	0.499990
C45	C	0.117770	-0.060967	0.093254
C46	C	0.617770	0.439033	0.593254
C47	C	0.119173	-0.133419	0.093257
C48	C	0.619173	0.366581	0.593257
C49	C	0.119875	-0.169645	-0.000027
C50	C	0.619875	0.330355	0.499973
C51	C	0.119150	-0.133413	-0.093323
C52	C	0.619150	0.366587	0.406677
C53	C	0.117737	-0.060963	-0.093324
C54	C	0.617737	0.439037	0.406676
C55	C	0.176124	-0.279170	-0.071492
C56	C	0.676124	0.220830	0.428508
C57	C	0.177543	-0.351618	-0.071486
C58	C	0.677543	0.148382	0.428514
C59	C	0.124229	-0.393106	-0.000027
C60	C	0.624229	0.106894	0.499973
C61	C	0.069509	-0.362135	0.071444
C62	C	0.569509	0.137865	0.571444
C63	C	0.068096	-0.289685	0.071443
C64	C	0.568096	0.210315	0.571443
C65	C	0.121407	-0.248205	-0.000036
C66	C	0.621407	0.251795	0.499964
C67	C	0.126470	-0.507890	0.093267
C68	C	0.626470	-0.007890	0.593267
C69	C	0.127868	-0.580345	0.093267
C70	C	0.627868	-0.080345	0.593267
C71	C	0.127854	-0.580336	-0.093316
C72	C	0.627854	-0.080336	0.406684
C73	C	0.126446	-0.507884	-0.093314
C74	C	0.626446	-0.007884	0.406686
C75	C	0.125759	-0.471665	-0.000019
C76	C	0.625759	0.028335	0.499981
N77	N	0.122797	-0.820644	-0.243569
N78	N	0.622797	-0.320644	0.256431
C79	C	0.122815	-0.820660	-0.663383
C80	C	0.622815	-0.320660	-0.163383
C81	C	0.122813	-0.820653	-0.546578
C82	C	0.622813	-0.320653	-0.046578
C83	C	0.122807	-0.820652	-0.453480
C84	C	0.622807	-0.320652	0.046520
C85	C	0.122804	-0.820645	-0.336667
C86	C	0.622804	-0.320645	0.163333
N87	N	0.122813	-0.820671	0.243511
N88	N	0.622813	-0.320671	0.743511
H89	H	0.117206	-0.031482	0.169221
H90	H	0.617206	0.468518	0.669221
N91	N	0.236545	-0.385019	-0.148584
N92	N	0.736545	0.114981	0.351416
H93	H	0.229352	-0.437210	-0.137741
H94	H	0.729352	0.062790	0.362259
H95	H	0.303680	-0.365802	-0.139033
H96	H	0.803680	0.134198	0.360967
H97	H	0.026098	-0.395913	0.129636
H98	H	0.526098	0.104087	0.629636
H99	H	0.219535	-0.245396	-0.129694
H100	H	0.719535	0.254604	0.370306
H101	H	0.128422	-0.609830	-0.169271
H102	H	0.628422	-0.109830	0.330729
N103	N	0.125674	-0.468809	-0.193927
N104	N	0.625674	0.031191	0.306073
H105	H	0.125691	-0.502809	-0.253022
H106	H	0.625691	-0.002809	0.246978
H107	H	0.182570	-0.433517	-0.198299
H108	H	0.682570	0.066483	0.301701
H109	H	0.119720	-0.162913	-0.169276
H110	H	0.619720	0.337087	0.330724
H111	H	0.117154	-0.031470	-0.169289
H112	H	0.617154	0.468530	0.330711
H113	H	0.023539	-0.264472	0.129635
H114	H	0.523539	0.235528	0.629635
N115	N	0.119949	-0.172501	0.193873
N116	N	0.619949	0.327499	0.693873
H117	H	0.119298	-0.138562	0.252973
H118	H	0.619298	0.361438	0.752973
H119	H	0.177695	-0.196999	0.197929
H120	H	0.677695	0.303001	0.697929
N121	N	0.125725	-0.468819	0.193884
N122	N	0.625725	0.031181	0.693884
H123	H	0.126387	-0.502764	0.252982
H124	H	0.626387	-0.002764	0.752982
H125	H	0.067985	-0.444316	0.197946
H126	H	0.567985	0.055684	0.697946
H127	H	0.128447	-0.609837	0.169232
H128	H	0.628447	-0.109837	0.669232
