data_functionalizedCrystal
_audit_creation_method	'MofGen! by Chris Wilmer'
_symmetry_space_group_name_H-M	'P1'
_symmetry_Int_Tables_number	1
_symmetry_cell_setting	triclinic
loop_
_symmetry_equiv_pos_as_xyz
  x,y,z
_cell_length_a	17.699083
_cell_length_b	15.995350
_cell_length_c	16.776229
_cell_angle_alpha	89.995580
_cell_angle_beta	89.998886
_cell_angle_gamma	83.387695
loop_
_atom_site_label
_atom_site_type_symbol
_atom_site_fract_x
_atom_site_fract_y
_atom_site_fract_z
O1	O	1.004255	0.105885	-0.066173
O2	O	1.504255	0.605885	0.433827
O3	O	0.783899	0.119661	-0.066198
O4	O	1.283899	0.619661	0.433802
O5	O	0.900100	-0.009127	-0.066184
O6	O	1.400100	0.490873	0.433816
O7	O	0.888053	0.234673	-0.066187
O8	O	1.388053	0.734673	0.433813
O9	O	0.900085	-0.009135	0.066393
O10	O	1.400085	0.490865	0.566393
O11	O	0.783884	0.119653	0.066378
O12	O	1.283884	0.619653	0.566378
O13	O	1.004239	0.105877	0.066404
O14	O	1.504239	0.605877	0.566404
Zn15	Zn	0.894059	0.112764	0.087441
Zn16	Zn	1.394059	0.612764	0.587441
Zn17	Zn	0.894079	0.112774	-0.087235
Zn18	Zn	1.394079	0.612774	0.412765
O19	O	0.888038	0.234665	0.066390
O20	O	1.388038	0.734665	0.566390
C21	C	0.755694	0.119163	0.000087
C22	C	1.255694	0.619163	0.500087
C23	C	0.671673	0.117683	0.000077
C24	C	1.171673	0.617683	0.500077
C25	C	0.623178	0.193278	0.000076
C26	C	1.123178	0.693278	0.500076
C27	C	0.544232	0.191882	0.000087
C28	C	1.044232	0.691882	0.500087
C29	C	0.513783	0.114889	0.000092
C30	C	1.013783	0.614889	0.500092
C31	C	0.562285	0.039287	0.000095
C32	C	1.062285	0.539287	0.500095
C33	C	0.641229	0.040685	0.000090
C34	C	1.141229	0.540685	0.500090
C35	C	0.243912	0.033651	0.000115
C36	C	0.743912	0.533651	0.500115
C37	C	0.164962	0.032259	0.000117
C38	C	0.664962	0.532259	0.500117
C39	C	0.146916	0.184848	0.000111
C40	C	0.646916	0.684848	0.500111
C41	C	0.225860	0.186245	0.000106
C42	C	0.725860	0.686245	0.500106
C43	C	0.274354	0.110644	0.000114
C44	C	0.774354	0.610644	0.500114
C45	C	0.359956	0.112159	0.000104
C46	C	0.859956	0.612159	0.500104
C47	C	0.428183	0.113373	0.000096
C48	C	0.928183	0.613373	0.500096
C49	C	0.899595	-0.040324	0.000103
C50	C	1.399595	0.459676	0.500103
C51	C	0.898101	-0.133272	0.000098
C52	C	1.398101	0.366728	0.500098
C53	C	0.892739	-0.471008	0.000100
C54	C	1.392739	0.028992	0.500100
C55	C	0.809983	-0.423406	-0.000207
C56	C	1.309983	0.076594	0.499793
C57	C	0.811476	-0.326719	0.000092
C58	C	1.311476	0.173281	0.500092
C59	C	0.895399	-0.303453	0.000099
C60	C	1.395399	0.196547	0.500099
C61	C	0.936209	-0.344618	0.075810
C62	C	1.436209	0.155382	0.575810
C63	C	0.934130	-0.441250	0.075873
C64	C	1.434130	0.058750	0.575873
C65	C	0.935857	-0.441602	-0.074891
C66	C	1.435857	0.058398	0.425109
C67	C	0.935837	-0.344657	-0.075892
C68	C	1.435837	0.155343	0.424108
C69	C	0.896907	-0.208759	0.000101
C70	C	1.396907	0.291241	0.500101
C71	C	0.891234	-0.565703	0.000104
C72	C	1.391234	-0.065703	0.500104
C73	C	1.032445	0.106375	0.000117
C74	C	1.532445	0.606375	0.500117
C75	C	1.116465	0.107856	0.000122
C76	C	1.616465	0.607856	0.500122
C77	C	0.888544	0.265863	0.000101
C78	C	1.388544	0.765863	0.500101
C79	C	0.890037	0.358810	0.000101
C80	C	1.390037	0.858810	0.500101
N81	N	0.894051	0.112756	0.206652
N82	N	1.394051	0.612756	0.706652
N83	N	0.894094	0.112775	-0.206446
N84	N	1.394094	0.612775	0.293554
C85	C	0.945520	0.055752	0.248375
C86	C	1.445520	0.555752	0.748375
C87	C	0.945524	0.055752	0.331827
C88	C	1.445524	0.555752	0.831827
C89	C	0.894062	0.112760	0.373555
C90	C	1.394062	0.612760	0.873555
C91	C	0.842587	0.169766	0.331825
C92	C	1.342587	0.669766	0.831825
C93	C	0.842580	0.169762	0.248375
C94	C	1.342580	0.669762	0.748375
C95	C	0.842614	0.169783	0.668373
C96	C	1.342614	0.669783	1.168373
C97	C	0.842627	0.169784	0.751829
C98	C	1.342627	0.669784	1.251829
C99	C	0.945559	0.055772	0.751825
C100	C	1.445559	0.555772	1.251825
C101	C	0.945552	0.055768	0.668375
C102	C	1.445552	0.555768	1.168375
C103	C	0.894074	0.112771	0.626653
C104	C	1.394074	0.612771	1.126653
C105	C	0.894069	0.112770	0.536164
C106	C	1.394069	0.612770	1.036164
C107	C	0.894070	0.112765	0.464041
C108	C	1.394070	0.612765	0.964041
H109	H	0.680714	-0.020873	0.000090
H110	H	1.180714	0.479127	0.500090
H111	H	0.987473	0.009354	0.785804
H112	H	1.487473	0.509354	1.285804
N113	N	0.790043	0.228003	0.625746
N114	N	1.290043	0.728003	1.125746
N115	N	0.743062	0.201502	0.579187
N116	N	1.243062	0.701502	1.079187
H117	H	0.705932	0.242623	0.549076
H118	H	1.205932	0.742623	1.049076
N119	N	0.790015	0.228006	0.374434
N120	N	1.290015	0.728006	0.874434
N121	N	0.744061	0.278897	0.337168
N122	N	1.244061	0.778897	0.837168
H123	H	0.706930	0.320031	0.367258
H124	H	1.206930	0.820031	0.867258
H125	H	0.800667	0.216180	0.214404
H126	H	1.300667	0.716180	0.714404
N127	N	0.900626	-0.308970	0.146488
N128	N	1.400626	0.191030	0.646488
N129	N	0.871718	-0.355013	0.195338
N130	N	1.371718	0.144987	0.695338
H131	H	0.846583	-0.329838	0.245253
H132	H	1.346583	0.170162	0.745253
N133	N	0.654276	0.271927	0.000089
N134	N	1.154276	0.771927	0.500089
N135	N	0.696313	0.289725	0.055974
N136	N	1.196313	0.789725	0.555974
H137	H	0.718275	0.345272	0.055986
H138	H	1.218275	0.845272	0.555986
H139	H	0.779397	-0.298228	-0.054181
H140	H	1.279397	0.201772	0.445819
N141	N	0.790052	0.228025	0.794442
N142	N	1.290052	0.728025	1.294442
N143	N	0.744093	0.278916	0.757182
N144	N	1.244093	0.778916	1.257182
H145	H	0.706964	0.320048	0.787277
H146	H	1.206964	0.820048	1.287277
N147	N	0.494685	0.269094	0.000094
N148	N	0.994685	0.769094	0.500094
N149	N	0.424201	0.267839	0.000113
N150	N	0.924201	0.767839	0.500113
H151	H	0.389206	0.322373	0.000127
H152	H	0.889206	0.822373	0.500127
H153	H	0.997038	-0.329419	-0.080458
H154	H	1.497038	0.170581	0.419542
N155	N	0.531172	-0.039353	0.000109
N156	N	1.031172	0.460647	0.500109
N157	N	0.460686	-0.040591	0.000112
N158	N	0.960686	0.459409	0.500112
H159	H	0.438713	-0.096133	0.000120
H160	H	0.938713	0.403867	0.500120
H161	H	0.250646	0.248941	0.000098
H162	H	0.750646	0.748941	0.500098
N163	N	0.097367	0.262068	0.000122
N164	N	0.597367	0.762068	0.500122
N165	N	0.051306	0.278310	0.056011
N166	N	0.551306	0.778310	0.556011
H167	H	0.016314	0.332845	0.056018
H168	H	0.516314	0.832845	0.556018
N169	N	0.133871	-0.046399	0.000120
N170	N	0.633871	0.453601	0.500120
N171	N	0.177177	-0.113894	0.000126
N172	N	0.677177	0.386106	0.500126
H173	H	0.155219	-0.169444	0.000127
H174	H	0.655219	0.330556	0.500127
H175	H	0.776912	-0.441867	-0.054501
H176	H	1.276912	0.058133	0.445499
H177	H	0.994888	-0.473622	0.079313
H178	H	1.494888	0.026378	0.579313
H179	H	0.779168	-0.298792	0.054450
H180	H	1.279168	0.201208	0.554450
H181	H	0.283388	-0.027909	0.000121
H182	H	0.783388	0.472091	0.500121
H183	H	0.996873	-0.473487	-0.075395
H184	H	1.496873	0.026513	0.424605
H185	H	0.777046	-0.442936	0.053777
H186	H	1.277046	0.057064	0.553777
H187	H	0.904358	-0.459494	0.132463
H188	H	1.404358	0.040506	0.632463
N189	N	1.013555	-0.327056	0.079340
N190	N	1.513555	0.172944	0.579340
N191	N	1.039525	-0.283899	0.025969
N192	N	1.539525	0.216101	0.525969
H193	H	1.094151	-0.271494	0.028460
H194	H	1.594151	0.228506	0.528460
N195	N	0.901923	-0.467308	-0.146874
N196	N	1.401923	0.032692	0.353126
N197	N	0.845541	-0.507619	-0.143777
N198	N	1.345541	-0.007619	0.356223
H199	H	0.821569	-0.525776	-0.194611
H200	H	1.321569	-0.025776	0.305389
H201	H	0.906000	-0.317344	-0.131901
H202	H	1.406000	0.182656	0.368099
N203	N	0.998054	-0.002531	0.205768
N204	N	1.498054	0.497469	0.705768
N205	N	1.043973	-0.053457	0.243035
N206	N	1.543973	0.446543	0.743035
H207	H	1.081059	-0.094643	0.212947
H208	H	1.581059	0.405357	0.712947
N209	N	0.998102	-0.002485	0.374434
N210	N	1.498102	0.497515	0.874434
N211	N	1.044048	-0.053379	0.337168
N212	N	1.544048	0.446621	0.837168
H213	H	1.081183	-0.094513	0.367258
H214	H	1.581183	0.405487	0.867258
H215	H	0.987460	0.009350	0.634403
H216	H	1.487460	0.509350	1.134403
