data_functionalizedCrystal
_audit_creation_method	'MofGen! by Chris Wilmer'
_symmetry_space_group_name_H-M	'P1'
_symmetry_Int_Tables_number	1
_symmetry_cell_setting	triclinic
loop_
_symmetry_equiv_pos_as_xyz
  x,y,z
_cell_length_a	11.792254
_cell_length_b	11.792253
_cell_length_c	14.421503
_cell_angle_alpha	90.003475
_cell_angle_beta	90.007906
_cell_angle_gamma	95.801402
loop_
_atom_site_label
_atom_site_type_symbol
_atom_site_fract_x
_atom_site_fract_y
_atom_site_fract_z
O1	O	1.506888	-0.155626	-0.077123
O2	O	1.176549	-0.171644	-0.077127
O3	O	1.349728	0.001534	-0.077106
O4	O	1.333710	-0.328804	-0.077144
O5	O	1.349751	0.001521	0.077118
O6	O	1.176573	-0.171657	0.077097
O7	O	1.506912	-0.155639	0.077100
Cu8	Cu	1.341745	-0.163649	0.091180
Cu9	Cu	1.341716	-0.163634	-0.091207
O10	O	1.333733	-0.328817	0.077079
C11	C	1.134271	-0.170642	-0.000015
C12	C	1.008257	-0.167621	-0.000015
C13	C	1.348730	0.043818	0.000009
C14	C	1.345710	0.169832	0.000018
C15	C	0.905921	-0.165168	-0.000019
C16	C	0.777534	-0.162099	-0.000019
C17	C	1.549190	-0.156642	-0.000013
C18	C	1.675204	-0.159662	-0.000019
C19	C	1.343256	0.272168	0.000022
C20	C	1.340188	0.400555	0.000024
N21	N	1.341772	-0.163660	0.219462
C22	C	1.334731	0.628898	-0.000018
C23	C	1.337751	0.502885	0.000024
C24	C	1.421871	-0.083567	0.469100
C25	C	1.319177	-0.060889	0.530899
C26	C	1.341750	-0.163648	0.408623
C27	C	1.444423	-0.186261	0.530918
C28	C	1.341738	-0.163634	0.591344
C29	C	1.239004	-0.140919	0.469061
C30	C	1.364317	-0.266336	0.469074
C31	C	1.261549	-0.243701	0.530846
C32	C	1.341759	-0.163653	0.303362
C33	C	1.341717	-0.163630	0.696603
N34	N	1.341713	-0.163626	0.780512
H35	H	1.489554	-0.015806	0.441988
H36	H	1.152149	-0.121687	0.442005
H37	H	1.193714	-0.311420	0.557786
H38	H	1.383450	-0.353156	0.441898
H39	H	1.531256	-0.205395	0.558089
H40	H	1.300076	0.025958	0.558056
