data_functionalizedCrystal
_audit_creation_method	'MofGen! by Chris Wilmer'
_symmetry_space_group_name_H-M	'P1'
_symmetry_Int_Tables_number	1
_symmetry_cell_setting	triclinic
loop_
_symmetry_equiv_pos_as_xyz
  x,y,z
_cell_length_a	17.699083
_cell_length_b	15.995350
_cell_length_c	16.176319
_cell_angle_alpha	89.995430
_cell_angle_beta	89.998611
_cell_angle_gamma	83.387695
loop_
_atom_site_label
_atom_site_type_symbol
_atom_site_fract_x
_atom_site_fract_y
_atom_site_fract_z
O1	O	1.004255	0.105885	-0.068627
O2	O	0.783899	0.119661	-0.068653
O3	O	0.900101	-0.009127	-0.068638
O4	O	0.888054	0.234673	-0.068641
O5	O	0.900085	-0.009135	0.068855
O6	O	0.783883	0.119653	0.068840
O7	O	1.004239	0.105877	0.068867
Cu8	Cu	0.894060	0.112764	0.081408
Cu9	Cu	0.894079	0.112774	-0.081194
O10	O	0.888038	0.234665	0.068852
C11	C	0.755694	0.119163	0.000090
C12	C	0.671673	0.117683	0.000080
C13	C	0.623178	0.193278	0.000079
C14	C	0.544232	0.191882	0.000090
C15	C	0.513783	0.114889	0.000095
C16	C	0.562285	0.039287	0.000098
C17	C	0.641229	0.040685	0.000094
C18	C	0.243912	0.033651	0.000119
C19	C	0.164962	0.032259	0.000121
C20	C	0.146916	0.184848	0.000115
C21	C	0.225860	0.186245	0.000110
C22	C	0.274354	0.110644	0.000118
C23	C	0.359956	0.112159	0.000108
C24	C	0.428183	0.113373	0.000099
C25	C	0.899595	-0.040324	0.000107
C26	C	0.898101	-0.133272	0.000102
C27	C	0.892739	-0.471008	0.000104
C28	C	0.809983	-0.423406	-0.000214
C29	C	0.811476	-0.326719	0.000096
C30	C	0.895399	-0.303453	0.000102
C31	C	0.936208	-0.344618	0.078621
C32	C	0.934129	-0.441250	0.078687
C33	C	0.935857	-0.441602	-0.077669
C34	C	0.935838	-0.344657	-0.078706
C35	C	0.896907	-0.208759	0.000104
C36	C	0.891234	-0.565703	0.000108
C37	C	1.032445	0.106375	0.000122
C38	C	1.116465	0.107856	0.000126
C39	C	0.888544	0.265863	0.000105
C40	C	0.890037	0.358810	0.000104
N41	N	0.894052	0.112757	0.195773
N42	N	0.894092	0.112775	-0.195559
C43	C	0.945521	0.055753	0.239043
C44	C	0.945525	0.055752	0.325591
C45	C	0.894063	0.112760	0.368865
C46	C	0.842588	0.169767	0.325589
C47	C	0.842581	0.169763	0.239043
C48	C	0.842614	0.169782	0.674617
C49	C	0.842626	0.169783	0.761168
C50	C	0.945558	0.055772	0.761164
C51	C	0.945551	0.055768	0.674619
C52	C	0.894074	0.112771	0.631350
C53	C	0.894069	0.112770	0.537505
C54	C	0.894070	0.112765	0.462708
H55	H	0.107421	0.246406	0.000113
H56	H	0.987431	0.009334	0.203815
H57	H	0.800668	0.216180	0.203813
H58	H	0.987459	0.009350	0.639387
H59	H	0.537487	-0.023402	0.000115
O60	O	0.688232	-0.032826	0.000053
C61	C	0.644431	-0.101083	0.000078
H62	H	0.585510	-0.079711	-0.025950
H63	H	0.673552	-0.154038	-0.039841
H64	H	0.638812	-0.124695	0.066041
O65	O	0.652878	0.267998	0.000034
C66	C	0.732955	0.253025	0.000048
H67	H	0.751495	0.187647	-0.025980
H68	H	0.757190	0.302284	-0.039875
H69	H	0.754934	0.257036	0.066009
H70	H	0.776912	-0.441867	-0.056522
O71	O	0.995604	0.000356	0.367495
C72	C	1.041019	-0.049967	0.310742
H73	H	1.041856	-0.015641	0.249043
H74	H	1.101464	-0.062807	0.335738
H75	H	1.016461	-0.112143	0.301552
H76	H	0.779397	-0.298228	-0.056190
H77	H	0.283388	-0.027909	0.000126
O78	O	0.497232	0.265393	0.000051
C79	C	0.541035	0.333648	0.000061
H80	H	0.599953	0.312276	-0.025975
H81	H	0.511911	0.386607	-0.039857
H82	H	0.546662	0.357254	0.066021
H83	H	0.777046	-0.442936	0.055772
O84	O	0.995524	0.000274	0.803108
C85	C	0.983211	-0.082596	0.781983
H86	H	0.954036	-0.082451	0.719147
H87	H	1.040101	-0.123911	0.779020
H88	H	0.945542	-0.108437	0.830696
O89	O	0.792624	0.225257	0.367530
C90	C	0.804929	0.308128	0.346383
H91	H	0.834099	0.307981	0.283543
H92	H	0.748037	0.349438	0.343420
H93	H	0.842600	0.333976	0.395084
H94	H	0.997038	-0.329419	-0.083442
H95	H	0.904358	-0.459494	0.137376
O96	O	0.772838	-0.293484	0.067324
C97	C	0.696939	-0.312047	0.063766
H98	H	0.693629	-0.369801	0.023221
H99	H	0.676387	-0.325240	0.128754
H100	H	0.659428	-0.256111	0.036449
H101	H	0.907851	-0.316183	0.137047
H102	H	0.994887	-0.473622	0.082254
O103	O	0.255311	0.261109	0.000142
C104	C	0.195578	0.327535	0.000125
H105	H	0.141950	0.304171	0.026157
H106	H	0.212077	0.381295	0.040042
H107	H	0.184406	0.350852	-0.065837
O108	O	1.009735	-0.327808	0.082013
C109	C	1.025424	-0.278484	0.013228
H110	H	0.970068	-0.243865	-0.011342
H111	H	1.065184	-0.230792	0.032656
H112	H	1.053708	-0.320909	-0.037251
H113	H	0.908807	-0.462083	-0.137181
H114	H	0.906001	-0.317344	-0.136792
O115	O	1.008614	-0.479742	-0.078195
C116	C	1.020559	-0.532718	-0.008622
H117	H	0.963654	-0.550845	0.013997
H118	H	1.059279	-0.591950	-0.026304
H119	H	1.048403	-0.498198	0.042698
O120	O	0.792523	0.225076	0.803170
C121	C	0.717605	0.211571	0.782024
H122	H	0.717243	0.144532	0.758239
H123	H	0.679630	0.221248	0.838947
H124	H	0.695360	0.258010	0.731789
O125	O	0.135509	-0.042610	0.000168
C126	C	0.195239	-0.109039	0.000155
H127	H	0.248869	-0.085680	0.026182
H128	H	0.178737	-0.162800	0.040079
H129	H	0.206409	-0.132353	-0.065805
O130	O	0.792690	0.225277	0.632634
C131	C	0.804984	0.308144	0.653793
H132	H	0.865583	0.308464	0.677568
H133	H	0.796267	0.350183	0.596879
H134	H	0.763046	0.332793	0.704040
