data_functionalizedCrystal
_audit_creation_method	'MofGen! by Chris Wilmer'
_symmetry_space_group_name_H-M	'P1'
_symmetry_Int_Tables_number	1
_symmetry_cell_setting	triclinic
loop_
_symmetry_equiv_pos_as_xyz
  x,y,z
_cell_length_a	19.288859
_cell_length_b	13.101039
_cell_length_c	19.288865
_cell_angle_alpha	86.654591
_cell_angle_beta	83.134986
_cell_angle_gamma	93.346713
loop_
_atom_site_label
_atom_site_type_symbol
_atom_site_fract_x
_atom_site_fract_y
_atom_site_fract_z
O1	O	0.925185	0.085246	0.082780
O2	O	0.722924	0.085245	0.094473
O3	O	0.829898	0.085225	-0.012503
O4	O	0.818211	0.085266	0.189756
O5	O	0.822223	-0.085203	-0.004815
O6	O	0.715249	-0.085183	0.102161
O7	O	0.917510	-0.085182	0.090468
Zn8	Zn	0.815161	-0.112242	0.097535
Zn9	Zn	0.825273	0.112305	0.087406
O10	O	0.810536	-0.085163	0.197444
C11	C	0.693210	0.000031	0.097942
C12	C	0.616106	0.000029	0.096815
N13	N	0.808264	-0.265489	0.104448
C14	C	0.052066	0.000042	0.151957
C15	C	0.124513	0.000048	0.153022
C16	C	0.169219	0.000033	0.090254
C17	C	0.141474	0.000039	0.026414
C18	C	0.069029	0.000044	0.025351
C19	C	0.287800	-0.059689	0.046135
C20	C	0.360243	-0.059700	0.047202
C21	C	0.392664	0.000023	0.093532
C22	C	0.352632	0.059744	0.138808
C23	C	0.280187	0.059749	0.137744
C24	C	0.247774	0.000029	0.091400
C25	C	0.498956	0.000030	0.158522
C26	C	0.571405	0.000042	0.159584
C27	C	0.588365	0.000024	0.032974
C28	C	0.515918	0.000022	0.031914
C29	C	0.471217	0.000020	0.094690
C30	C	0.798881	-0.474530	0.113859
C31	C	0.841556	-0.525414	0.071079
C32	C	0.836335	-0.641731	0.076316
C33	C	0.804101	-0.358202	0.108624
C34	C	0.947224	0.000034	0.087000
C35	C	1.024329	0.000042	0.088127
C36	C	0.825684	0.000008	-0.034535
C37	C	0.824555	-0.000001	-0.111638
N38	N	0.832175	0.265552	0.080488
C39	C	0.887323	-0.000006	-0.156336
C40	C	0.886263	0.000010	-0.228783
C41	C	0.822431	0.000011	-0.256530
C42	C	0.759655	0.000021	-0.211823
C43	C	0.760717	0.000015	-0.139377
C44	C	0.769562	-0.059687	-0.362123
C45	C	0.768503	-0.059687	-0.434567
C46	C	0.819152	0.000034	-0.479976
C47	C	0.870872	0.059742	-0.452933
C48	C	0.871935	0.059736	-0.380487
C49	C	0.821272	0.000018	-0.335084
C50	C	0.880775	0.000048	-0.603230
C51	C	0.879713	0.000071	-0.675679
C52	C	0.753102	0.000071	-0.658716
C53	C	0.754167	0.000059	-0.586270
C54	C	0.818005	0.000043	-0.558531
C55	C	0.814750	0.000057	0.219477
C56	C	0.815880	0.000073	0.296579
H57	H	0.015675	0.000046	0.203074
H58	H	0.758429	-0.518320	0.154415
N59	N	0.189688	0.000027	-0.041287
H60	H	0.239791	0.000021	-0.030928
H61	H	0.177879	-0.063154	-0.066269
N62	N	0.450742	0.000041	0.226227
H63	H	0.462487	0.063226	0.251235
H64	H	0.400656	-0.000001	0.215813
H65	H	0.939305	-0.000016	-0.133756
N66	N	0.403423	-0.124101	-0.001629
H67	H	0.427761	-0.175164	0.026620
H68	H	0.371857	-0.161860	-0.031140
H69	H	0.937378	0.000011	-0.265183
N70	N	0.686468	0.000052	-0.538050
H71	H	0.661452	0.063230	-0.549791
H72	H	0.655817	-0.063168	-0.544129
N73	N	0.895150	-0.467405	0.017362
H74	H	0.943619	-0.486004	0.025978
H75	H	0.886344	-0.486039	-0.031047
N76	N	0.947416	0.000070	-0.723893
H77	H	0.988015	0.000055	-0.695325
H78	H	0.946881	-0.063107	-0.751480
N79	N	0.693016	0.000001	-0.091157
H80	H	0.693480	0.063172	-0.063558
H81	H	0.652451	-0.000035	-0.119767
H82	H	0.914046	0.108354	-0.358471
H83	H	0.726386	-0.108299	-0.456580
H84	H	0.912116	0.108373	-0.489904
H85	H	0.147101	0.000038	0.205003
H86	H	0.932756	0.000039	-0.580645
H87	H	0.701129	0.000077	-0.681307
N88	N	0.252824	-0.124106	-0.003834
H89	H	0.272980	-0.101830	-0.053527
H90	H	0.261212	-0.198591	0.006243
N91	N	0.714927	-0.124098	-0.313148
H92	H	0.682006	-0.161926	-0.341272
H93	H	0.738629	-0.175100	-0.284220
H94	H	0.046447	0.000044	-0.026630
N95	N	0.690803	0.000020	-0.241738
H96	H	0.690386	0.063198	-0.274262
H97	H	0.684733	-0.063200	-0.268537
N98	N	0.237009	0.124166	0.186565
H99	H	0.268535	0.162005	0.216078
H100	H	0.212678	0.175160	0.158257
H101	H	0.379027	0.108373	0.176536
N102	N	0.486001	0.000005	-0.036936
H103	H	0.453474	-0.063173	-0.037349
H104	H	0.459205	0.063225	-0.043010
H105	H	0.624764	0.000020	-0.018133
N106	N	0.601326	0.000061	0.228433
H107	H	0.562013	0.000062	0.268036
H108	H	0.628173	-0.063115	0.234481
