data_functionalizedCrystal
_audit_creation_method	'MofGen! by Chris Wilmer'
_symmetry_space_group_name_H-M	'P1'
_symmetry_Int_Tables_number	1
_symmetry_cell_setting	triclinic
loop_
_symmetry_equiv_pos_as_xyz
  x,y,z
_cell_length_a	10.654546
_cell_length_b	12.811415
_cell_length_c	9.730223
_cell_angle_alpha	84.567795
_cell_angle_beta	89.998853
_cell_angle_gamma	84.262334
loop_
_atom_site_label
_atom_site_type_symbol
_atom_site_fract_x
_atom_site_fract_y
_atom_site_fract_z
O1	O	1.667070	0.147404	-0.132689
O2	O	1.301518	0.161453	-0.134436
O3	O	1.493491	0.001704	-0.114522
O4	O	1.475097	0.307154	-0.152603
O5	O	1.493489	0.001708	0.114058
O6	O	1.301516	0.161458	0.094144
O7	O	1.667068	0.147408	0.095891
Zn8	Zn	1.484291	0.154433	0.131309
Zn9	Zn	1.484294	0.154428	-0.169854
O10	O	1.475095	0.307158	0.075976
C11	C	1.254724	0.160425	-0.020017
C12	C	1.115297	0.157341	-0.019631
C13	C	1.049811	0.155879	-0.144054
C14	C	0.918805	0.152973	-0.143703
C15	C	0.918784	0.152986	0.105506
C16	C	1.049786	0.155899	0.105152
C17	C	1.049823	0.155867	-0.287932
C18	C	0.918817	0.152961	-0.287581
C19	C	1.492459	-0.037406	0.004642
C20	C	1.489374	-0.153946	0.019162
C21	C	1.483554	-0.372930	-0.202777
C22	C	1.480655	-0.482430	-0.189140
C23	C	1.480666	-0.482447	0.060072
C24	C	1.483565	-0.372947	0.046435
C25	C	1.485011	-0.318193	-0.084994
C26	C	1.487920	-0.208692	-0.098630
C27	C	1.487922	-0.208709	0.150582
C28	C	1.485022	-0.318209	0.164219
C29	C	1.713862	0.148437	-0.018531
C30	C	1.853289	0.151521	-0.018926
C31	C	1.476126	0.346267	-0.043190
C32	C	1.479212	0.462808	-0.057720
N33	N	1.484299	0.154436	0.336845
N34	N	1.484297	0.154417	-0.375389
C35	C	1.569326	0.083723	0.417586
C36	C	1.569323	0.083711	0.561471
C37	C	1.399260	0.225133	0.543859
C38	C	1.399259	0.225140	0.399978
C39	C	1.667514	0.002077	0.427755
C40	C	1.667511	0.002064	0.571639
H41	H	0.865429	0.151813	0.207100
O42	O	1.782634	0.023385	0.615420
C43	C	2.006060	-0.029983	0.626516
C44	C	1.875774	-0.054234	0.576826
H45	H	2.081396	-0.092736	0.595358
H46	H	2.027214	0.050662	0.577404
H47	H	2.006006	-0.029955	0.743675
H48	H	1.875731	-0.054319	0.459678
H49	H	1.854672	-0.134863	0.626041
H50	H	1.101934	0.081115	-0.323247
H51	H	1.330012	0.282711	0.334240
O52	O	1.479405	-0.535730	-0.303455
C53	C	1.584826	-0.670394	-0.431382
C54	C	1.586387	-0.610135	-0.301837
H55	H	1.671325	-0.730548	-0.430131
H56	H	1.495741	-0.712767	-0.432352
H57	H	1.586295	-0.612413	-0.527628
H58	H	1.584966	-0.668044	-0.205521
H59	H	1.675465	-0.567745	-0.300988
O60	O	1.078762	0.244355	-0.364846
C61	C	0.999883	0.402587	-0.504783
C62	C	0.966931	0.302430	-0.417698
H63	H	0.909490	0.449558	-0.547562
H64	H	1.051666	0.452871	-0.437446
H65	H	1.062911	0.379435	-0.593898
H66	H	0.903866	0.325486	-0.328576
H67	H	0.915213	0.252172	-0.485130
H68	H	0.866717	0.227710	-0.341559
O69	O	1.489262	-0.155657	-0.226397
C70	C	1.489009	-0.167210	-0.472140
C71	C	1.487462	-0.227395	-0.327525
H72	H	1.487581	-0.225186	-0.553941
H73	H	1.402561	-0.107004	-0.485954
H74	H	1.578131	-0.124881	-0.483578
H75	H	1.398398	-0.269787	-0.315986
H76	H	1.573970	-0.287541	-0.313776
H77	H	0.894388	0.078843	-0.333583
O78	O	1.776121	0.032450	0.370528
C79	C	1.958362	-0.014987	0.234543
C80	C	1.835403	-0.049532	0.299269
H81	H	2.006341	-0.081259	0.176939
H82	H	1.935757	0.058328	0.159389
H83	H	2.024066	0.003526	0.319478
H84	H	1.769641	-0.068101	0.214429
H85	H	1.858102	-0.122813	0.374455
O86	O	1.479040	-0.535587	0.187751
C87	C	1.369540	-0.558006	0.403579
C88	C	1.371206	-0.497753	0.259016
H89	H	1.282380	-0.527425	0.461249
H90	H	1.367133	-0.645670	0.393143
H91	H	1.457941	-0.545480	0.463404
H92	H	1.282824	-0.510192	0.199111
H93	H	1.373679	-0.410109	0.269551
H94	H	1.103098	0.157101	0.206468
H95	H	1.484743	-0.328350	-0.309792
O96	O	1.483400	-0.371334	0.291907
C97	C	1.373908	-0.393713	0.507745
C98	C	1.375568	-0.333487	0.363164
H99	H	1.286748	-0.363122	0.565409
H100	H	1.371502	-0.481382	0.497340
H101	H	1.462309	-0.381173	0.567558
H102	H	1.287184	-0.345941	0.303271
H103	H	1.378039	-0.245839	0.373668
H104	H	1.489113	-0.164131	0.246490
H105	H	1.330022	0.282698	0.595278
H106	H	1.646491	-0.078600	0.398759
H107	H	1.637394	-0.074175	0.625760
