data_functionalizedCrystal
_audit_creation_method	'MofGen! by Chris Wilmer'
_symmetry_space_group_name_H-M	'P1'
_symmetry_Int_Tables_number	1
_symmetry_cell_setting	triclinic
loop_
_symmetry_equiv_pos_as_xyz
  x,y,z
_cell_length_a	17.038272
_cell_length_b	23.532407
_cell_length_c	16.098538
_cell_angle_alpha	92.700973
_cell_angle_beta	87.069734
_cell_angle_gamma	86.980117
loop_
_atom_site_label
_atom_site_type_symbol
_atom_site_fract_x
_atom_site_fract_y
_atom_site_fract_z
O1	O	1.039966	0.121251	-0.069166
O2	O	0.812351	0.119288	-0.069191
O3	O	0.933021	0.037699	-0.069163
O4	O	0.919295	0.202840	-0.069195
O5	O	0.925973	0.042445	0.069349
O6	O	0.805302	0.124034	0.069321
O7	O	1.032917	0.125997	0.069345
Zn8	Zn	0.917990	0.125769	0.091324
Zn9	Zn	0.927278	0.119516	-0.091170
O10	O	0.912247	0.207586	0.069317
C11	C	0.779712	0.119875	0.000062
C12	C	0.692959	0.114548	0.000054
C13	C	0.642483	0.163453	0.000045
C14	C	0.560969	0.158445	0.000057
C15	C	0.529932	0.104532	0.000072
C16	C	0.580415	0.055624	0.000084
C17	C	0.661927	0.060632	0.000077
C18	C	0.284304	0.086837	0.000098
C19	C	0.202786	0.081832	0.000102
C20	C	0.183345	0.184654	0.000077
C21	C	0.264860	0.189657	0.000066
C22	C	0.315335	0.140750	0.000081
C23	C	0.446612	0.099411	0.000083
C24	C	0.398653	0.145871	0.000077
C25	C	0.929147	0.018838	0.000095
C26	C	0.928096	-0.044434	0.000101
C27	C	0.992917	-0.440131	0.000063
C28	C	0.991941	-0.499583	0.000056
O29	O	1.052030	-0.533169	0.000032
N30	N	0.920202	-0.525981	0.000049
C31	C	0.849435	-0.492924	0.000040
O32	O	0.788325	-0.520836	0.000033
C33	C	0.850412	-0.433473	0.000041
C34	C	0.922155	-0.407078	0.000056
C35	C	1.064654	-0.413736	0.000077
C36	C	1.065630	-0.354288	0.000085
C37	C	0.994868	-0.321236	0.000079
C38	C	0.923131	-0.347631	0.000064
C39	C	0.779646	-0.400418	0.000026
C40	C	0.780629	-0.340963	0.000025
C41	C	0.852372	-0.314569	0.000041
C42	C	0.853344	-0.255130	0.000066
N43	N	0.925083	-0.228732	0.000073
C44	C	0.995845	-0.261785	0.000079
C45	C	0.847388	-0.617774	0.000038
C46	C	0.846410	-0.677223	0.000043
C47	C	0.988917	-0.683878	0.000058
C48	C	0.989894	-0.624428	0.000058
C49	C	0.919127	-0.591376	0.000045
C50	C	0.997889	-0.136940	0.000097
C51	C	0.998858	-0.077487	0.000108
C52	C	0.856352	-0.070837	0.000089
C53	C	0.855382	-0.130285	0.000082
C54	C	0.926157	-0.163336	0.000083
O55	O	0.793287	-0.221508	0.000086
O56	O	1.056945	-0.233865	0.000076
C57	C	1.065556	0.125410	0.000090
C58	C	1.152310	0.130737	0.000093
C59	C	0.916121	0.226447	0.000057
C60	C	0.917172	0.289719	0.000045
N61	N	0.911658	0.130036	0.215872
N62	N	0.933616	0.115244	-0.215718
C63	C	0.962894	0.095421	0.259469
C64	C	0.958471	0.098412	0.346657
C65	C	0.902816	0.136022	0.390246
C66	C	0.851574	0.170639	0.346643
C67	C	0.855994	0.167644	0.259457
C68	C	0.886795	0.146867	0.653493
C69	C	0.882380	0.149860	0.740685
C70	C	0.989277	0.077632	0.740693
C71	C	0.993694	0.074644	0.653505
C72	C	0.942450	0.109258	0.609909
C73	C	0.898295	0.139081	0.479366
C74	C	0.946968	0.106195	0.520791
H75	H	0.423926	0.189766	0.000069
O76	O	1.066582	-0.169096	0.000212
C77	C	1.066642	-0.201224	0.071957
H78	H	1.003417	-0.206432	0.095861
H79	H	1.096945	-0.244986	0.055825
H80	H	1.099615	-0.178235	0.122198
O81	O	1.038965	0.044028	0.783171
C82	C	1.023147	0.054744	0.869471
H83	H	0.960244	0.073394	0.881382
H84	H	1.030498	0.013193	0.902619
H85	H	1.065906	0.086306	0.894196
H86	H	1.008217	0.064798	0.223984
O87	O	0.295107	0.241997	0.000142
C88	C	0.338034	0.250445	0.071871
H89	H	0.357459	0.207383	0.095818
H90	H	0.392068	0.275155	0.055701
H91	H	0.299291	0.275628	0.122094
O92	O	0.672760	0.215780	-0.000010
C93	C	0.755528	0.209717	0.000005
H94	H	0.776348	0.165320	-0.026209
H95	H	0.782336	0.243075	-0.040220
H96	H	0.774829	0.215855	0.066452
H97	H	0.421332	0.055516	0.000119
O98	O	0.134388	0.232205	0.000179
C99	C	0.144739	0.267155	0.071918
H100	H	0.205473	0.256991	0.095833
H101	H	0.139455	0.313805	0.055775
H102	H	0.097662	0.258933	0.122156
H103	H	1.048313	-0.602941	0.000070
O104	O	0.785626	-0.155839	0.000033
C105	C	0.723378	-0.113913	0.000053
H106	H	0.746301	-0.073403	-0.026152
H107	H	0.675313	-0.130129	-0.040176
H108	H	0.698187	-0.104305	0.066502
O109	O	0.172765	0.029416	0.000153
C110	C	0.234794	-0.012679	0.000144
H111	H	0.288718	0.006858	0.026365
H112	H	0.215994	-0.048703	0.040364
H113	H	0.249828	-0.030232	-0.066304
O114	O	1.135280	-0.328593	-0.000022
C115	C	1.143772	-0.296869	-0.071769
H116	H	1.083272	-0.285880	-0.095686
H117	H	1.173809	-0.255926	-0.055637
H118	H	1.181102	-0.323146	-0.122001
H119	H	1.046535	-0.710801	0.000060
H120	H	0.325392	0.047013	0.000112
H121	H	0.837057	0.180488	0.776172
O122	O	1.133468	-0.445752	0.000123
C123	C	1.196986	-0.409695	0.000114
H124	H	1.175444	-0.365446	0.026330
H125	H	1.244492	-0.427817	0.040340
H126	H	1.222384	-0.406666	-0.066332
H127	H	0.789757	-0.590866	0.000034
H128	H	0.798739	-0.043915	0.000087
O129	O	0.710986	0.013148	0.000230
C130	C	0.755091	0.015434	0.071953
H131	H	0.722465	0.044817	0.122088
H132	H	0.763392	-0.029153	0.096042
H133	H	0.815079	0.032485	0.055727
H134	H	0.555138	0.011727	0.000108
H135	H	0.852981	0.169705	0.514864
H136	H	0.787989	-0.698708	0.000045
H137	H	1.057282	-0.055999	0.000123
O138	O	1.008333	0.064771	0.388878
C139	C	1.058397	0.030930	0.331709
H140	H	1.062236	0.052179	0.269550
H141	H	1.119603	0.026172	0.356891
H142	H	1.033836	-0.012924	0.322459
H143	H	0.721225	-0.421898	0.000008
H144	H	0.723001	-0.314056	0.000013
H145	H	1.039013	0.044019	0.618016
O146	O	0.836986	0.180551	0.611280
C147	C	0.786907	0.214378	0.668453
H148	H	0.815798	0.218720	0.730595
H149	H	0.775903	0.258395	0.643249
H150	H	0.728526	0.193374	0.677745
H151	H	0.806255	0.201259	0.382139
O152	O	0.806189	0.201329	0.217233
C153	C	0.756106	0.235157	0.274400
H154	H	0.784992	0.239502	0.336544
H155	H	0.745102	0.279173	0.249192
H156	H	0.697725	0.214153	0.283688
O157	O	1.000951	0.069573	0.478506
C158	C	0.987610	0.013335	0.499868
H159	H	0.923824	0.010829	0.523839
H160	H	0.999732	-0.016775	0.442550
H161	H	1.028487	0.000476	0.550485
O162	O	0.512050	0.206007	0.000010
C163	C	0.556921	0.254666	0.000012
H164	H	0.619205	0.242265	-0.026216
H165	H	0.528609	0.287796	-0.040208
H166	H	0.559233	0.273286	0.066457
