data_functionalizedCrystal
_audit_creation_method	'MofGen! by Chris Wilmer'
_symmetry_space_group_name_H-M	'P1'
_symmetry_Int_Tables_number	1
_symmetry_cell_setting	triclinic
loop_
_symmetry_equiv_pos_as_xyz
  x,y,z
_cell_length_a	13.185408
_cell_length_b	9.065218
_cell_length_c	7.540329
_cell_angle_alpha	90.003038
_cell_angle_beta	89.995490
_cell_angle_gamma	111.505308
loop_
_atom_site_label
_atom_site_type_symbol
_atom_site_fract_x
_atom_site_fract_y
_atom_site_fract_z
O1	O	0.159274	-1.894270	-0.147489
O2	O	0.172338	-1.459561	-0.147491
O3	O	0.007793	-1.751394	-0.147477
O4	O	0.323819	-1.602437	-0.147503
O5	O	0.007791	-1.751381	0.147488
O6	O	0.172336	-1.459548	0.147474
O7	O	0.159271	-1.894257	0.147476
Cu8	Cu	0.165803	-1.676902	0.174408
Cu9	Cu	0.165806	-1.676917	-0.174423
O10	O	0.323817	-1.602425	0.147462
C11	C	0.171081	-1.405089	-0.000009
C12	C	0.167327	-1.242805	-0.000010
N13	N	0.165801	-1.676902	0.419756
C14	C	-0.032688	-1.766489	0.000005
C15	C	-0.153304	-1.811467	0.000004
C16	C	-0.221592	-1.971614	0.000009
C17	C	-0.334917	-2.013879	-0.000007
C18	C	-0.379965	-1.896001	-0.000013
C19	C	-0.311677	-1.735850	-0.000005
C20	C	-0.198341	-1.693582	-0.000004
C21	C	-0.356714	-1.617968	-0.000026
C22	C	-0.288425	-1.457818	-0.000018
C23	C	-0.175101	-1.415557	-0.000015
C24	C	-0.130052	-1.533435	-0.000008
C25	C	-0.470050	-1.660237	-0.000027
C26	C	-0.446799	-1.382205	-0.000040
C27	C	-0.333474	-1.339940	-0.000024
C28	C	0.364297	-1.587330	-0.000024
C29	C	0.484913	-1.542351	-0.000035
C30	C	0.160528	-1.948729	-0.000010
C31	C	0.164282	-2.111013	-0.000021
N32	N	0.165800	-1.676931	-0.419771
H33	H	-0.525640	-1.790633	-0.000037
O34	O	-0.108721	-1.260010	-0.000338
C35	C	-0.042448	-1.227263	-0.153082
H36	H	-0.083192	-1.318895	-0.259850
H37	H	0.040320	-1.232572	-0.118543
C38	C	0.023222	-0.947994	-0.091229
C39	C	-0.026826	-1.060531	-0.222369
H40	H	0.032863	-0.845144	-0.133965
H41	H	-0.021424	-0.970056	0.011682
H42	H	0.092190	-0.952439	-0.062458
H43	H	-0.095797	-1.056099	-0.251121
H44	H	0.017809	-1.038464	-0.325286
H45	H	-0.277857	-1.209544	-0.000018
H46	H	-0.483476	-1.286218	-0.000049
H47	H	-0.472240	-1.930422	-0.000026
H48	H	-0.390510	-2.144273	-0.000012
H49	H	-0.184902	-2.067573	0.000037
H50	H	-0.037775	-1.499031	0.000010
