data_functionalizedCrystal
_audit_creation_method	'MofGen! by Chris Wilmer'
_symmetry_space_group_name_H-M	'P1'
_symmetry_Int_Tables_number	1
_symmetry_cell_setting	triclinic
loop_
_symmetry_equiv_pos_as_xyz
  x,y,z
_cell_length_a	11.169417
_cell_length_b	18.050589
_cell_length_c	11.169409
_cell_angle_alpha	90.038363
_cell_angle_beta	90.019824
_cell_angle_gamma	90.021413
loop_
_atom_site_label
_atom_site_type_symbol
_atom_site_fract_x
_atom_site_fract_y
_atom_site_fract_z
Zn1	Zn	1.834877	-0.295582	0.678492
Zn2	Zn	2.334877	0.204418	1.178492
Zn3	Zn	1.834731	-0.419797	0.477788
Zn4	Zn	2.334731	0.080203	0.977788
Zn5	Zn	1.634163	-0.295627	0.477827
Zn6	Zn	2.134163	0.204373	0.977827
Zn7	Zn	1.634135	-0.419736	0.678433
Zn8	Zn	2.134135	0.080264	1.178433
O9	O	1.734477	-0.357686	0.578135
O10	O	2.234477	0.142314	1.078135
O11	O	2.002808	-0.312066	0.651877
O12	O	2.502808	0.187934	1.151877
O13	O	1.808076	-0.403370	0.309844
O14	O	2.308076	0.096630	0.809844
O15	O	1.660861	-0.191697	0.504487
O16	O	2.160861	0.308303	1.004487
O17	O	2.002700	-0.403326	0.504421
O18	O	2.502700	0.096674	1.004421
O19	O	1.808325	-0.191663	0.651915
O20	O	2.308325	0.308337	1.151915
O21	O	1.660719	-0.312143	0.309872
O22	O	2.160719	0.187857	0.809872
O23	O	1.466210	-0.312084	0.504429
O24	O	1.966210	0.187916	1.004429
O25	O	1.660813	-0.403223	0.846391
O26	O	2.160813	0.096777	1.346391
O27	O	1.466189	-0.403267	0.651814
O28	O	1.966189	0.096733	1.151814
O29	O	1.808298	-0.312007	0.846434
O30	O	2.308298	0.187993	1.346434
O31	O	1.808048	-0.523714	0.504363
O32	O	2.308048	-0.023714	1.004363
O33	O	1.660671	-0.523669	0.651776
O34	O	2.160671	-0.023669	1.151776
C35	C	1.422652	-0.357674	0.578120
C36	C	1.922652	0.142326	1.078120
C37	C	1.289252	-0.357687	0.578142
C38	C	1.789252	0.142313	1.078142
C39	C	1.734374	-0.550638	0.578085
C40	C	2.234374	-0.050638	1.078085
C41	C	1.734439	-0.633184	0.578104
C42	C	2.234439	-0.133184	1.078104
C43	C	1.814792	-0.882006	0.498074
C44	C	2.314792	-0.382006	0.998074
C45	C	1.705286	-0.832679	0.468602
C46	C	2.205286	-0.332679	0.968602
C47	C	1.734590	-0.930304	0.578196
C48	C	2.234590	-0.430304	1.078196
C49	C	1.844014	-0.832549	0.607566
C50	C	2.344014	-0.332549	1.107566
C51	C	1.734522	-0.784319	0.578148
C52	C	2.234522	-0.284319	1.078148
C53	C	1.625028	-0.882064	0.548668
C54	C	2.125028	-0.382064	1.048668
C55	C	1.763829	-0.881938	0.687683
C56	C	2.263829	-0.381938	1.187683
C57	C	1.654248	-0.832634	0.658253
C58	C	2.154248	-0.332634	1.158253
C59	C	1.734631	-1.014402	0.578221
C60	C	2.234631	-0.514402	1.078221
C61	C	1.734468	-0.700222	0.578123
C62	C	2.234468	-0.200222	1.078123
C63	C	2.047519	-0.357697	0.578151
C64	C	2.547519	0.142303	1.078151
C65	C	2.180919	-0.357703	0.578158
C66	C	2.680919	0.142297	1.078158
C67	C	1.734569	-0.357603	0.891178
C68	C	2.234569	0.142397	1.391178
C69	C	1.734608	-0.357568	1.024578
C70	C	2.234608	0.142432	1.524578
C71	C	1.734613	-0.163980	0.578212
C72	C	2.234613	0.336020	1.078212
C73	C	1.734671	-0.081434	0.578244
C74	C	2.234671	0.418566	1.078244
C75	C	1.734454	-0.357714	0.266310
C76	C	2.234454	0.142286	0.766310
C77	C	1.734647	-0.357540	0.132911
C78	C	2.234647	0.142460	0.632911
H79	H	1.882560	-0.903684	0.430285
H80	H	2.382560	-0.403684	0.930285
C81	C	1.671837	-0.803432	0.343493
C82	C	2.171837	-0.303432	0.843493
N83	N	1.646655	-0.781402	0.249259
N84	N	2.146655	-0.281402	0.749259
C85	C	1.499939	-0.911319	0.514929
C86	C	1.999939	-0.411319	1.014929
N87	N	1.405725	-0.933356	0.489511
N88	N	1.905725	-0.433356	0.989511
C89	C	1.562477	-0.803523	0.749755
C90	C	2.062477	-0.303523	1.249755
N91	N	1.493351	-0.781592	0.818666
N92	N	1.993351	-0.281592	1.318666
C93	C	1.797339	-0.911203	0.812757
C94	C	2.297339	-0.411203	1.312757
N95	N	1.822594	-0.933249	0.906962
N96	N	2.322594	-0.433249	1.406962
C97	C	1.969069	-0.803172	0.641157
C98	C	2.469069	-0.303172	1.141157
N99	N	2.063262	-0.781048	0.666450
N100	N	2.563262	-0.281048	1.166450
