data_functionalizedCrystal
_audit_creation_method	'MofGen! by Chris Wilmer'
_symmetry_space_group_name_H-M	'P1'
_symmetry_Int_Tables_number	1
_symmetry_cell_setting	triclinic
loop_
_symmetry_equiv_pos_as_xyz
  x,y,z
_cell_length_a	13.033286
_cell_length_b	18.050590
_cell_length_c	13.032268
_cell_angle_alpha	97.145544
_cell_angle_beta	105.163409
_cell_angle_gamma	82.849014
loop_
_atom_site_label
_atom_site_type_symbol
_atom_site_fract_x
_atom_site_fract_y
_atom_site_fract_z
Zn1	Zn	1.547460	-0.470708	-0.393869
Zn2	Zn	2.047460	0.029292	0.106131
Zn3	Zn	1.569912	-0.580909	-0.216264
Zn4	Zn	2.069912	-0.080909	0.283736
Zn5	Zn	1.392410	-0.442774	-0.238880
Zn6	Zn	1.892410	0.057226	0.261120
Zn7	Zn	1.369827	-0.580880	-0.416418
Zn8	Zn	1.869827	-0.080880	0.083582
O9	O	1.469902	-0.518818	-0.316358
O10	O	1.969902	-0.018818	0.183642
O11	O	1.699063	-0.497029	-0.351407
O12	O	2.199063	0.002971	0.148593
O13	O	1.565214	-0.550906	-0.070636
O14	O	2.065214	-0.050906	0.429364
O15	O	1.413033	-0.342562	-0.259468
O16	O	1.913033	0.157438	0.240532
O17	O	1.715559	-0.577993	-0.220922
O18	O	2.215559	-0.077993	0.279078
O19	O	1.526947	-0.363085	-0.373337
O20	O	2.026947	0.136915	0.126663
O21	O	1.434804	-0.449419	-0.087252
O22	O	1.934804	0.050581	0.412748
O23	O	1.240789	-0.449391	-0.281333
O24	O	1.740789	0.050609	0.218667
O25	O	1.374542	-0.577944	-0.562055
O26	O	1.874542	-0.077944	-0.062055
O27	O	1.224197	-0.550857	-0.411770
O28	O	1.724197	-0.050857	0.088230
O29	O	1.505049	-0.497001	-0.545488
O30	O	2.005049	0.002999	-0.045488
O31	O	1.543315	-0.684822	-0.242788
O32	O	2.043315	-0.184822	0.257212
O33	O	1.396313	-0.684801	-0.389840
O34	O	1.896313	-0.184801	0.110160
C35	C	1.193956	-0.497090	-0.351453
C36	C	1.693956	0.002910	0.148547
C37	C	1.075902	-0.487814	-0.366492
C38	C	1.575902	0.012186	0.133508
C39	C	1.031445	-0.523661	-0.308535
C40	C	1.531445	-0.023661	0.191465
C41	C	0.909430	-0.514075	-0.324078
C42	C	1.409430	-0.014075	0.175922
C43	C	1.469826	-0.711760	-0.316326
C44	C	1.969826	-0.211760	0.183674
C45	C	1.469886	-0.794312	-0.316336
C46	C	1.969886	-0.294312	0.183664
C47	C	1.549961	-0.993767	-0.236449
C48	C	2.049961	-0.493767	0.263551
C49	C	1.563590	-1.052773	-0.330085
C50	C	2.063590	-0.552773	0.169915
C51	C	1.469941	-0.945450	-0.316370
C52	C	1.969941	-0.445450	0.183630
C53	C	1.456414	-1.033537	-0.222763
C54	C	1.956414	-0.533537	0.277237
C55	C	1.469997	-1.091443	-0.316395
C56	C	1.969997	-0.591443	0.183605
C57	C	1.483613	-1.003377	-0.410051
C58	C	1.983613	-0.503377	0.089949
C59	C	1.376401	-0.984129	-0.302670
C60	C	1.876401	-0.484129	0.197330
C61	C	1.389985	-1.043115	-0.396378
C62	C	1.889985	-0.543115	0.103622
C63	C	1.469911	-0.861348	-0.316354
C64	C	1.969911	-0.361348	0.183646
C65	C	1.470025	-1.175544	-0.316422
C66	C	1.970025	-0.675544	0.183578
C67	C	1.746925	-0.540631	-0.281127
C68	C	2.246925	-0.040631	0.218873
C69	C	1.864976	-0.549926	-0.266113
C70	C	2.364976	-0.049926	0.233887
C71	C	1.434772	-0.540585	-0.593387
C72	C	1.934772	-0.040585	-0.093387
C73	C	1.419801	-0.549861	-0.711440
C74	C	1.919801	-0.049861	-0.211440
C75	C	1.470005	-0.325126	-0.316410
C76	C	1.970005	0.174874	0.183590
C77	C	1.470048	-0.242586	-0.316432
C78	C	1.970048	0.257414	0.183568
C79	C	1.477699	-0.513948	-0.755875
C80	C	1.977699	-0.013948	-0.255875
C81	C	1.462228	-0.523535	-0.877889
C82	C	1.962228	-0.023535	-0.377889
C83	C	1.504957	-0.497086	-0.040399
C84	C	2.004957	0.002914	0.459601
C85	C	1.520133	-0.487617	0.077680
C86	C	2.020133	0.012383	0.577680
H87	H	1.617643	-0.972110	-0.168921
H88	H	2.117643	-0.472110	0.331079
H89	H	1.642717	-1.082609	-0.341692
H90	H	2.142717	-0.582609	0.158308
Br91	Br	1.277221	-1.079011	-0.509155
Br92	Br	1.777221	-0.579011	-0.009155
Br93	Br	0.822324	-0.451098	-0.425974
Br94	Br	1.322324	0.048902	0.074026
Br95	Br	1.502892	-0.980936	-0.542025
Br96	Br	2.002892	-0.480936	-0.042025
H97	H	1.401194	-0.561376	-0.930175
H98	H	1.901194	-0.061376	-0.430175
Br99	Br	1.244553	-0.934377	-0.283279
Br100	Br	1.744553	-0.434377	0.216721
H101	H	1.444949	-1.047107	-0.143592
H102	H	1.944949	-0.547107	0.356408
H103	H	1.538717	-0.476102	-0.703587
H104	H	2.038717	0.023898	-0.203587
Br105	Br	1.318080	-0.612932	-0.798581
Br106	Br	1.818080	-0.112932	-0.298581
Br107	Br	1.621864	-0.424546	-0.835185
Br108	Br	2.121864	0.075454	-0.335185
H109	H	0.917240	-0.587721	-0.204992
H110	H	1.417240	-0.087721	0.295008
Br111	Br	1.118552	-0.586649	-0.206660
Br112	Br	1.618552	-0.086649	0.293340
Br113	Br	0.988793	-0.424840	-0.468385
Br114	Br	1.488793	0.075160	0.031615
