data_functionalizedCrystal
_audit_creation_method	'MofGen! by Chris Wilmer'
_symmetry_space_group_name_H-M	'P1'
_symmetry_Int_Tables_number	1
_symmetry_cell_setting	triclinic
loop_
_symmetry_equiv_pos_as_xyz
  x,y,z
_cell_length_a	16.109302
_cell_length_b	10.489716
_cell_length_c	15.186229
_cell_angle_alpha	90.000291
_cell_angle_beta	89.994701
_cell_angle_gamma	83.995458
loop_
_atom_site_label
_atom_site_type_symbol
_atom_site_fract_x
_atom_site_fract_y
_atom_site_fract_z
O1	O	1.104131	0.163953	-0.073260
O2	O	0.862194	0.184355	-0.073252
O3	O	0.988679	-0.011526	-0.073260
O4	O	0.977647	0.359834	-0.073253
O5	O	0.988670	-0.011528	0.073198
O6	O	0.862186	0.184353	0.073205
O7	O	1.104123	0.163950	0.073197
Zn8	Zn	0.983153	0.174151	0.096454
Zn9	Zn	0.983164	0.174155	-0.096510
O10	O	0.977638	0.359831	0.073204
C11	C	0.831210	0.183527	-0.000023
C12	C	0.738900	0.181049	-0.000020
C13	C	0.526519	0.175317	0.079805
C14	C	0.439785	0.172975	0.079802
C15	C	0.439804	0.172985	-0.079874
C16	C	0.526538	0.175318	-0.079870
C17	C	0.569892	0.176491	-0.000028
C18	C	0.396425	0.171815	-0.000035
C19	C	0.302383	0.169276	-0.000039
C20	C	0.663940	0.179028	-0.000024
C21	C	0.987845	-0.059047	-0.000034
C22	C	0.985366	-0.200642	-0.000042
C23	C	1.062930	-0.299441	-0.000036
C24	C	1.021947	-0.376206	-0.072244
C25	C	1.021921	-0.376172	0.072152
C26	C	0.944416	-0.275542	-0.072309
C27	C	0.944401	-0.275503	0.072152
C28	C	0.903361	-0.352218	-0.000073
C29	C	1.135107	0.164778	-0.000034
C30	C	1.227417	0.167257	-0.000043
C31	C	0.978472	0.407353	-0.000024
C32	C	0.980951	0.548948	-0.000021
N33	N	0.983151	0.174148	0.228147
N34	N	0.983172	0.174148	-0.228202
C35	C	1.039178	0.087441	0.453867
C36	C	1.039181	0.087438	0.546056
C37	C	0.927140	0.260859	0.546072
C38	C	0.927134	0.260855	0.453884
C39	C	0.983157	0.174147	0.407784
C40	C	0.983166	0.174148	0.592161
C41	C	0.983168	0.174146	0.692117
C42	C	0.983154	0.174148	0.307821
H43	H	0.404494	0.172031	-0.144879
C44	C	0.900206	-0.216062	0.154625
H45	H	0.927858	-0.250688	0.205886
H46	H	0.843829	-0.235044	0.155149
H47	H	0.901687	-0.125772	0.153733
C48	C	1.066163	-0.435529	0.154623
H49	H	1.122811	-0.417847	0.154525
H50	H	1.063809	-0.525637	0.154323
H51	H	1.039173	-0.399696	0.205902
H52	H	0.881527	0.331456	0.583616
H53	H	0.404474	0.172020	0.144810
C54	C	0.574252	0.176613	-0.167690
H55	H	0.536009	0.175599	-0.215242
H56	H	0.613988	0.103188	-0.171010
H57	H	0.602184	0.251870	-0.171000
H58	H	1.054694	-0.420175	-0.133293
H59	H	0.881511	0.331462	0.416360
C60	C	1.100800	-0.007930	0.403155
H61	H	1.092781	0.004493	0.341650
H62	H	1.091273	-0.093064	0.418264
H63	H	1.156368	0.005962	0.418258
C64	C	0.574209	0.176570	0.167627
H65	H	0.535954	0.175517	0.215171
H66	H	0.602150	0.251808	0.170965
H67	H	0.613938	0.103126	0.170931
C68	C	1.154068	-0.267415	-0.000135
H69	H	1.181508	-0.302077	-0.051508
H70	H	1.181880	-0.303376	0.050642
H71	H	1.155037	-0.177021	0.000379
H72	H	0.911694	-0.231762	-0.133422
H73	H	1.084796	0.016832	0.583574
H74	H	0.835843	-0.375669	-0.000110
