data_functionalizedCrystal
_audit_creation_method	'MofGen! by Chris Wilmer'
_symmetry_space_group_name_H-M	'P1'
_symmetry_Int_Tables_number	1
_symmetry_cell_setting	triclinic
loop_
_symmetry_equiv_pos_as_xyz
  x,y,z
_cell_length_a	14.853567
_cell_length_b	27.732048
_cell_length_c	13.330367
_cell_angle_alpha	89.990394
_cell_angle_beta	89.995418
_cell_angle_gamma	83.138793
loop_
_atom_site_label
_atom_site_type_symbol
_atom_site_fract_x
_atom_site_fract_y
_atom_site_fract_z
O1	O	1.195342	0.063107	-0.083366
O2	O	0.932760	0.070624	-0.083384
O3	O	1.072207	-0.003493	-0.083355
O4	O	1.055896	0.137224	-0.083395
O5	O	1.072187	-0.003495	0.083492
O6	O	0.932740	0.070622	0.083463
O7	O	1.195322	0.063105	0.083481
Cu8	Cu	1.064029	0.066864	0.098707
Cu9	Cu	1.064053	0.066865	-0.098609
O10	O	1.055876	0.137222	0.083453
C11	C	0.899167	0.070283	0.000037
C12	C	0.799100	0.069262	0.000031
C13	C	1.071854	-0.021503	0.000071
C14	C	1.070823	-0.075162	0.000079
C15	C	0.387353	0.020920	0.000067
C16	C	0.364639	0.108973	0.000041
C17	C	0.458657	0.109933	0.000038
C18	C	0.517028	0.066385	0.000047
C19	C	0.481380	0.021878	0.000061
C20	C	0.494313	0.154439	0.000015
C21	C	0.588336	0.155401	0.000010
C22	C	0.646708	0.111853	0.000027
C23	C	0.611055	0.067344	0.000041
C24	C	0.669425	0.023796	0.000051
C25	C	0.633774	-0.020713	0.000072
C26	C	0.539752	-0.021670	0.000077
C27	C	0.740730	0.112809	0.000021
C28	C	0.763452	0.024755	0.000044
C29	C	1.146736	-0.413622	0.000033
C30	C	1.142911	-0.615300	0.000019
O31	O	1.212328	-0.646231	-0.000020
N32	N	1.060225	-0.634810	0.000014
C33	C	0.978490	-0.603898	0.000006
O34	O	0.908073	-0.625120	-0.000009
C35	C	0.982316	-0.402221	0.000013
C36	C	1.065007	-0.382714	0.000028
C37	C	1.229421	-0.394114	0.000047
C38	C	1.230376	-0.343698	0.000056
C39	C	1.148647	-0.312790	0.000051
C40	C	1.065963	-0.332298	0.000037
C41	C	0.900582	-0.371310	-0.000002
C42	C	0.901546	-0.320888	-0.000003
C43	C	0.984237	-0.301381	0.000012
C44	C	0.985189	-0.250973	0.000041
N45	N	1.067875	-0.231462	0.000046
C46	C	1.149604	-0.262371	0.000051
C47	C	0.976487	-0.709781	0.000004
C48	C	0.975530	-0.760200	0.000004
C49	C	1.139952	-0.771599	0.000015
C50	C	1.140908	-0.721179	0.000022
C51	C	1.059173	-0.690271	0.000009
C52	C	1.151604	-0.156492	0.000071
C53	C	1.152552	-0.106071	0.000084
C54	C	0.988131	-0.094677	0.000068
C55	C	0.987183	-0.145094	0.000060
C56	C	1.068926	-0.176001	0.000058
O57	O	0.915809	-0.220013	0.000069
O58	O	1.220011	-0.241139	0.000044
C59	C	1.145781	-0.464039	0.000024
C60	C	1.063097	-0.483547	0.000010
C61	C	0.981367	-0.452638	0.000005
C62	C	1.062140	-0.533966	0.000010
C63	C	1.143869	-0.564874	0.000015
C64	C	1.226555	-0.545364	0.000020
C65	C	1.227510	-0.494947	0.000029
C66	C	0.898682	-0.472149	0.000000
C67	C	0.897733	-0.522566	-0.000008
C68	C	0.979462	-0.553474	-0.000003
C69	C	1.228915	0.063446	0.000058
C70	C	1.328982	0.064467	0.000057
C71	C	1.056228	0.155232	0.000024
C72	C	1.057259	0.208891	0.000009
N73	N	1.064019	0.066862	0.237488
N74	N	1.064070	0.066863	-0.237391
C75	C	1.002304	0.099672	0.710098
C76	C	1.125827	0.034055	0.710092
C77	C	1.125817	0.034054	0.605074
C78	C	1.064050	0.066862	0.552563
C79	C	1.002294	0.099672	0.605070
C80	C	1.187578	0.001248	0.552558
C81	C	1.187571	0.001246	0.447533
C82	C	1.125799	0.034052	0.395021
C83	C	1.064040	0.066863	0.447535
C84	C	1.002273	0.099671	0.395024
C85	C	0.940509	0.132480	0.447536
C86	C	0.940522	0.132479	0.552557
C87	C	1.125786	0.034053	0.289999
C88	C	1.002263	0.099672	0.289996
H89	H	0.681311	-0.056169	0.000073
N90	N	0.873924	0.167865	0.609205
H91	H	0.883825	0.202181	0.590911
H92	H	0.810044	0.162196	0.590933
H93	H	0.908195	-0.776078	0.000009
H94	H	0.358321	-0.015319	0.000088
N95	N	0.826404	-0.022216	0.000047
H96	H	0.891377	-0.014857	0.000037
H97	H	0.814931	-0.041609	0.061909
N98	N	0.501301	-0.069673	0.000108
H99	H	0.432881	-0.063671	0.000108
H100	H	0.522695	-0.088733	-0.061737
N101	N	0.935684	0.135055	0.766727
H102	H	0.945056	0.130077	0.841226
H103	H	0.945613	0.169356	0.748357
H104	H	0.921590	-0.069502	0.000067
H105	H	1.293101	-0.570538	0.000028
H106	H	1.218168	-0.181651	0.000066
H107	H	1.176120	0.007346	0.752850
H108	H	0.830391	-0.538443	-0.000011
N109	N	1.254201	-0.034132	0.609191
H110	H	1.244831	-0.029155	0.683689
H111	H	1.244273	-0.068434	0.590848
H112	H	0.833246	-0.387184	-0.000020
H113	H	0.446781	0.189893	-0.000003
H114	H	0.890222	0.159195	0.404769
H115	H	0.951962	0.126387	0.247248
H116	H	1.237862	-0.025469	0.404785
N117	N	0.810527	-0.438815	-0.000006
H118	H	0.758007	-0.458830	-0.000010
H119	H	0.807332	-0.417656	0.061851
N120	N	1.192400	-0.001325	0.233360
H121	H	1.231534	-0.022107	0.282562
H122	H	1.158188	-0.022730	0.189802
H123	H	0.317109	0.144427	0.000025
N124	N	0.626776	0.203407	-0.000015
H125	H	0.605442	0.222487	0.061829
H126	H	0.695189	0.197371	-0.000054
N127	N	0.779177	0.160811	-0.000002
H128	H	0.817677	0.163174	0.061845
H129	H	0.817638	0.163141	-0.061896
N130	N	1.241747	-0.085034	0.000105
H131	H	1.277528	-0.096294	-0.061744
H132	H	1.229883	-0.048407	0.000151
N133	N	1.319565	-0.322661	0.000069
H134	H	1.371187	-0.349898	0.000068
H135	H	1.323554	-0.301986	-0.061783
H136	H	0.834986	-0.295725	-0.000015
H137	H	1.295978	-0.419276	0.000047
H138	H	1.208242	-0.705300	0.000034
N139	N	1.316698	-0.473911	0.000047
H140	H	1.368321	-0.501147	0.000048
H141	H	1.320692	-0.453235	-0.061803
N142	N	1.228105	-0.804940	0.000023
H143	H	1.214943	-0.839839	0.000021
H144	H	1.264175	-0.798614	-0.061830
H145	H	0.909925	-0.684620	-0.000006
N146	N	0.897998	-0.166138	0.000058
H147	H	0.846369	-0.138905	0.000059
H148	H	0.894028	-0.186799	-0.061803
