data_functionalizedCrystal
_audit_creation_method	'MofGen! by Chris Wilmer'
_symmetry_space_group_name_H-M	'P1'
_symmetry_Int_Tables_number	1
_symmetry_cell_setting	triclinic
loop_
_symmetry_equiv_pos_as_xyz
  x,y,z
_cell_length_a	18.215407
_cell_length_b	18.050589
_cell_length_c	18.215399
_cell_angle_alpha	89.973988
_cell_angle_beta	89.983176
_cell_angle_gamma	90.028669
loop_
_atom_site_label
_atom_site_type_symbol
_atom_site_fract_x
_atom_site_fract_y
_atom_site_fract_z
Zn1	Zn	1.125033	-0.295641	-0.416138
Zn2	Zn	1.375033	-0.045641	-0.166138
Zn3	Zn	1.625033	0.204359	0.083862
Zn4	Zn	1.875033	0.454359	0.333862
Zn5	Zn	1.124941	-0.419841	-0.293081
Zn6	Zn	1.374941	-0.169841	-0.043081
Zn7	Zn	1.624941	0.080159	0.206919
Zn8	Zn	1.874941	0.330159	0.456919
Zn9	Zn	1.001972	-0.295670	-0.293085
Zn10	Zn	1.251972	-0.045670	-0.043085
Zn11	Zn	1.501972	0.204330	0.206915
Zn12	Zn	1.751972	0.454330	0.456915
Zn13	Zn	1.001924	-0.419794	-0.416106
Zn14	Zn	1.251924	-0.169794	-0.166106
Zn15	Zn	1.501924	0.080206	0.083894
Zn16	Zn	1.751924	0.330206	0.333894
O17	O	1.063468	-0.357736	-0.354603
O18	O	1.313468	-0.107736	-0.104603
O19	O	1.563468	0.142264	0.145397
O20	O	1.813468	0.392264	0.395397
O21	O	1.228005	-0.312123	-0.399826
O22	O	1.478005	-0.062123	-0.149826
O23	O	1.728005	0.187877	0.100174
O24	O	1.978005	0.437877	0.350174
O25	O	1.108610	-0.403401	-0.190097
O26	O	1.358610	-0.153401	0.059903
O27	O	1.608610	0.096599	0.309903
O28	O	1.858610	0.346599	0.559903
O29	O	1.018355	-0.191742	-0.309424
O30	O	1.268355	0.058258	-0.059424
O31	O	1.518355	0.308258	0.190576
O32	O	1.768355	0.558258	0.440576
O33	O	1.227937	-0.403372	-0.309417
O34	O	1.477937	-0.153372	-0.059417
O35	O	1.727937	0.096628	0.190583
O36	O	1.977937	0.346628	0.440583
O37	O	1.108767	-0.191720	-0.399830
O38	O	1.358767	0.058280	-0.149830
O39	O	1.608767	0.308280	0.100170
O40	O	1.858767	0.558280	0.350170
O41	O	1.018265	-0.312173	-0.190101
O42	O	1.268265	-0.062173	0.059899
O43	O	1.518265	0.187827	0.309899
O44	O	1.768265	0.437827	0.559899
O45	O	0.898981	-0.312128	-0.309393
O46	O	1.148981	-0.062128	-0.059393
O47	O	1.398981	0.187872	0.190607
O48	O	1.648981	0.437872	0.440607
O49	O	1.018274	-0.403293	-0.519095
O50	O	1.268274	-0.153293	-0.269095
O51	O	1.518274	0.096707	-0.019095
O52	O	1.768274	0.346707	0.230905
O53	O	0.898946	-0.403322	-0.399775
O54	O	1.148946	-0.153322	-0.149775
O55	O	1.398946	0.096678	0.100225
O56	O	1.648946	0.346678	0.350225
O57	O	1.108721	-0.312078	-0.519118
O58	O	1.358721	-0.062078	-0.269118
O59	O	1.608721	0.187922	-0.019118
O60	O	1.858721	0.437922	0.230882
O61	O	1.108564	-0.523759	-0.309385
O62	O	1.358564	-0.273759	-0.059385
O63	O	1.608564	-0.023759	0.190615
O64	O	1.858564	0.226241	0.440615
O65	O	1.018184	-0.523725	-0.399771
O66	O	1.268184	-0.273725	-0.149771
O67	O	1.518184	-0.023725	0.100229
O68	O	1.768184	0.226275	0.350229
C69	C	0.872261	-0.357724	-0.354582
C70	C	1.122261	-0.107724	-0.104582
C71	C	1.372261	0.142276	0.145418
C72	C	1.622261	0.392276	0.395418
C73	C	0.790462	-0.357736	-0.354590
C74	C	1.040462	-0.107736	-0.104590
C75	C	1.290462	0.142264	0.145410
C76	C	1.540462	0.392264	0.395410
C77	C	1.063379	-0.550689	-0.354590
C78	C	1.313379	-0.300689	-0.104590
C79	C	1.563379	-0.050689	0.145410
C80	C	1.813379	0.199311	0.395410
C81	C	1.063408	-0.633234	-0.354610
C82	C	1.313408	-0.383234	-0.104610
C83	C	1.563408	-0.133234	0.145390
C84	C	1.813408	0.116766	0.395390
C85	C	0.602269	-0.405295	-0.401593
C86	C	0.852269	-0.155295	-0.151593
C87	C	1.102269	0.094705	0.098407
C88	C	1.352269	0.344705	0.348407
C89	C	0.525411	-0.405298	-0.401602
C90	C	0.775411	-0.155298	-0.151602
C91	C	1.025411	0.094702	0.098398
C92	C	1.275411	0.344702	0.348398
C93	C	0.525418	-0.310191	-0.307628
C94	C	0.775418	-0.060191	-0.057628
C95	C	1.025418	0.189809	0.192372
C96	C	1.275418	0.439809	0.442372
C97	C	0.602275	-0.310185	-0.307623
C98	C	0.852275	-0.060185	-0.057623
C99	C	1.102275	0.189815	0.192377
C100	C	1.352275	0.439815	0.442377
C101	C	0.640699	-0.357742	-0.354605
C102	C	0.890699	-0.107742	-0.104605
C103	C	1.140699	0.142258	0.145395
C104	C	1.390699	0.392258	0.395395
C105	C	0.486983	-0.357750	-0.354619
C106	C	0.736983	-0.107750	-0.104619
C107	C	0.986983	0.142250	0.145381
C108	C	1.236983	0.392250	0.395381
C109	C	0.403649	-0.357752	-0.354628
C110	C	0.653649	-0.107752	-0.104628
C111	C	0.903649	0.142248	0.145372
C112	C	1.153649	0.392248	0.395372
C113	C	0.724038	-0.357739	-0.354596
C114	C	0.974038	-0.107739	-0.104596
C115	C	1.224038	0.142261	0.145404
C116	C	1.474038	0.392261	0.395404
C117	C	1.014308	-0.832693	-0.403744
C118	C	1.264308	-0.582693	-0.153744
C119	C	1.514308	-0.332693	0.096256
C120	C	1.764308	-0.082693	0.346256
C121	C	0.996372	-0.882137	-0.336590
C122	C	1.246372	-0.632137	-0.086590
C123	C	1.496372	-0.382137	0.163410
C124	C	1.746372	-0.132137	0.413410
C125	C	1.063480	-0.784365	-0.354619
C126	C	1.313480	-0.534365	-0.104619
C127	C	1.563480	-0.284365	0.145381
C128	C	1.813480	-0.034365	0.395381
C129	C	1.081453	-0.882003	-0.421781
C130	C	1.331453	-0.632003	-0.171781
C131	C	1.581453	-0.382003	0.078219
C132	C	1.831453	-0.132003	0.328219
C133	C	1.063549	-0.930350	-0.354635
C134	C	1.313549	-0.680350	-0.104635
C135	C	1.563549	-0.430350	0.145365
C136	C	1.813549	-0.180350	0.395365
C137	C	1.045509	-0.832721	-0.287430
C138	C	1.295509	-0.582721	-0.037430
C139	C	1.545509	-0.332721	0.212570
C140	C	1.795509	-0.082721	0.462570
C141	C	1.130621	-0.832583	-0.372666
C142	C	1.380621	-0.582583	-0.122666
C143	C	1.630621	-0.332583	0.127334
C144	C	1.880621	-0.082583	0.377334
C145	C	1.112710	-0.882004	-0.305466
C146	C	1.362710	-0.632004	-0.055466
C147	C	1.612710	-0.382004	0.194534
C148	C	1.862710	-0.132004	0.444534
C149	C	1.063439	-0.700266	-0.354612
C150	C	1.313439	-0.450266	-0.104612
C151	C	1.563439	-0.200266	0.145388
C152	C	1.813439	0.049734	0.395388
C153	C	1.063590	-1.014446	-0.354635
C154	C	1.313590	-0.764446	-0.104635
C155	C	1.563590	-0.514446	0.145365
C156	C	1.813590	-0.264446	0.395365
C157	C	1.255420	-0.357750	-0.354624
C158	C	1.505420	-0.107750	-0.104624
C159	C	1.755420	0.142250	0.145376
C160	C	2.005420	0.392250	0.395376
C161	C	1.337219	-0.357755	-0.354634
C162	C	1.587219	-0.107755	-0.104634
C163	C	1.837219	0.142245	0.145366
C164	C	2.087219	0.392245	0.395366
C165	C	1.063502	-0.357677	-0.546556
C166	C	1.313502	-0.107677	-0.296556
C167	C	1.563502	0.142323	-0.046556
C168	C	1.813502	0.392323	0.203444
C169	C	1.063517	-0.357652	-0.628355
C170	C	1.313517	-0.107652	-0.378355
C171	C	1.563517	0.142348	-0.128355
C172	C	1.813517	0.392348	0.121645
C173	C	1.063577	-0.164031	-0.354631
C174	C	1.313577	0.085969	-0.104631
C175	C	1.563577	0.335969	0.145369
C176	C	1.813577	0.585969	0.395369
C177	C	1.063623	-0.081485	-0.354643
C178	C	1.313623	0.168515	-0.104643
C179	C	1.563623	0.418515	0.145357
C180	C	1.813623	0.668515	0.395357
C181	C	1.016515	-0.310117	-0.816551
C182	C	1.266515	-0.060117	-0.566551
C183	C	1.516515	0.189883	-0.316551
C184	C	1.766515	0.439883	-0.066551
C185	C	1.016527	-0.310103	-0.893410
C186	C	1.266527	-0.060103	-0.643410
C187	C	1.516527	0.189897	-0.393410
C188	C	1.766527	0.439897	-0.143410
C189	C	1.110608	-0.405098	-0.893396
C190	C	1.360608	-0.155098	-0.643396
C191	C	1.610608	0.094902	-0.393396
C192	C	1.860608	0.344902	-0.143396
C193	C	1.110591	-0.405116	-0.816539
C194	C	1.360591	-0.155116	-0.566539
C195	C	1.610591	0.094884	-0.316539
C196	C	1.860591	0.344884	-0.066539
C197	C	1.063545	-0.357621	-0.778118
C198	C	1.313545	-0.107621	-0.528118
C199	C	1.563545	0.142379	-0.278118
C200	C	1.813545	0.392379	-0.028118
C201	C	1.063575	-0.357588	-0.931834
C202	C	1.313575	-0.107588	-0.681834
C203	C	1.563575	0.142412	-0.431834
C204	C	1.813575	0.392412	-0.181834
C205	C	1.063589	-0.357572	-1.015168
C206	C	1.313589	-0.107572	-0.765168
C207	C	1.563589	0.142428	-0.515168
C208	C	1.813589	0.392428	-0.265168
C209	C	1.063530	-0.357638	-0.694779
C210	C	1.313530	-0.107638	-0.444779
C211	C	1.563530	0.142362	-0.194779
C212	C	1.813530	0.392362	0.055221
C213	C	1.063475	-0.357742	-0.163396
C214	C	1.313475	-0.107742	0.086604
C215	C	1.563475	0.142258	0.336604
C216	C	1.813475	0.392258	0.586604
C217	C	1.063603	-0.357558	-0.081598
C218	C	1.313603	-0.107558	0.168402
C219	C	1.563603	0.142442	0.418402
C220	C	1.813603	0.392442	0.668402
H221	H	0.494125	-0.444019	-0.439866
H222	H	0.744125	-0.194019	-0.189866
H223	H	0.994125	0.055981	0.060134
H224	H	1.244125	0.305981	0.310134
H225	H	0.633552	-0.444017	-0.439850
H226	H	0.883552	-0.194017	-0.189850
H227	H	1.133552	0.055983	0.060150
H228	H	1.383552	0.305983	0.310150
H229	H	1.030269	-0.811162	-0.230622
H230	H	1.280269	-0.561162	0.019378
H231	H	1.530269	-0.311162	0.269378
H232	H	1.780269	-0.061162	0.519378
H233	H	0.494124	-0.271473	-0.269377
H234	H	0.744124	-0.021473	-0.019377
H235	H	0.994124	0.228527	0.230623
H236	H	1.244124	0.478527	0.480623
C237	C	0.644550	-0.257875	-0.255932
C238	C	0.894550	-0.007875	-0.005932
C239	C	1.144550	0.242125	0.244068
C240	C	1.394550	0.492125	0.494068
H241	H	0.610660	-0.229561	-0.227945
H242	H	0.860660	0.020439	0.022055
H243	H	1.110660	0.270439	0.272055
H244	H	1.360660	0.520439	0.522055
H245	H	0.674557	-0.225551	-0.284136
H246	H	0.924557	0.024449	-0.034136
H247	H	1.174557	0.274449	0.215864
H248	H	1.424557	0.524449	0.465864
H249	H	0.674508	-0.286249	-0.223817
H250	H	0.924508	-0.036249	0.026183
H251	H	1.174508	0.213751	0.276183
H252	H	1.424508	0.463751	0.526183
C253	C	1.168923	-0.911078	-0.249292
C254	C	1.418923	-0.661078	0.000708
C255	C	1.668923	-0.411078	0.250708
C256	C	1.918923	-0.161078	0.500708
H257	H	1.156060	-0.894113	-0.201631
H258	H	1.406060	-0.644113	0.048369
H259	H	1.656060	-0.394113	0.298369
H260	H	1.906060	-0.144113	0.548369
H261	H	1.216450	-0.893361	-0.261699
H262	H	1.466450	-0.643361	-0.011699
H263	H	1.716450	-0.393361	0.238301
H264	H	1.966450	-0.143361	0.488301
H265	H	1.168924	-0.963704	-0.249881
H266	H	1.418924	-0.713704	0.000119
H267	H	1.668924	-0.463704	0.250119
H268	H	1.918924	-0.213704	0.500119
C269	C	0.964797	-0.257845	-0.935683
C270	C	1.214797	-0.007845	-0.685683
C271	C	1.464797	0.242155	-0.435683
C272	C	1.714797	0.492155	-0.185683
H273	H	0.936782	-0.229560	-0.901791
H274	H	1.186782	0.020440	-0.651791
H275	H	1.436782	0.270440	-0.401791
H276	H	1.686782	0.520440	-0.151791
H277	H	0.932720	-0.286242	-0.965656
H278	H	1.182720	-0.036242	-0.715656
H279	H	1.432720	0.213758	-0.465656
H280	H	1.682720	0.463758	-0.215656
H281	H	0.992978	-0.225479	-0.965674
H282	H	1.242978	0.024521	-0.715674
H283	H	1.492978	0.274521	-0.465674
H284	H	1.742978	0.524521	-0.215674
H285	H	1.148911	-0.443765	-0.924687
H286	H	1.398911	-0.193765	-0.674687
H287	H	1.648911	0.056235	-0.424687
H288	H	1.898911	0.306235	-0.174687
C289	C	0.958054	-0.803435	-0.459784
C290	C	1.208054	-0.553435	-0.209784
C291	C	1.458054	-0.303435	0.040216
C292	C	1.708054	-0.053435	0.290216
H293	H	0.910396	-0.820405	-0.446844
H294	H	1.160396	-0.570405	-0.196844
H295	H	1.410396	-0.320405	0.053156
H296	H	1.660396	-0.070405	0.303156
H297	H	0.970329	-0.821033	-0.507368
H298	H	1.220329	-0.571033	-0.257368
H299	H	1.470329	-0.321033	-0.007368
H300	H	1.720329	-0.071033	0.242632
H301	H	0.958725	-0.750809	-0.459699
H302	H	1.208725	-0.500809	-0.209699
H303	H	1.458725	-0.250809	0.040301
H304	H	1.708725	-0.000809	0.290301
H305	H	1.148891	-0.443802	-0.785246
H306	H	1.398891	-0.193802	-0.535246
H307	H	1.648891	0.056198	-0.285246
H308	H	1.898891	0.306198	-0.035246
C309	C	0.919711	-0.911544	-0.315972
C310	C	1.169711	-0.661544	-0.065972
C311	C	1.419711	-0.411544	0.184028
C312	C	1.669711	-0.161544	0.434028
H313	H	0.884804	-0.894666	-0.350918
H314	H	1.134804	-0.644666	-0.100918
H315	H	1.384804	-0.394666	0.149082
H316	H	1.634804	-0.144666	0.399082
H317	H	0.906629	-0.893946	-0.268604
H318	H	1.156629	-0.643946	-0.018604
H319	H	1.406629	-0.393946	0.231396
H320	H	1.656629	-0.143946	0.481396
H321	H	0.920404	-0.964169	-0.315692
H322	H	1.170404	-0.714169	-0.065692
H323	H	1.420404	-0.464169	0.184308
H324	H	1.670404	-0.214169	0.434308
H325	H	1.187355	-0.810802	-0.387948
H326	H	1.437355	-0.560802	-0.137948
H327	H	1.687355	-0.310802	0.112052
H328	H	1.937355	-0.060802	0.362052
C329	C	1.101955	-0.911246	-0.498500
C330	C	1.351955	-0.661246	-0.248500
C331	C	1.601955	-0.411246	0.001500
C332	C	1.851955	-0.161246	0.251500
H333	H	1.066945	-0.894353	-0.533335
H334	H	1.316945	-0.644353	-0.283335
H335	H	1.566945	-0.394353	-0.033335
H336	H	1.816945	-0.144353	0.216665
H337	H	1.102274	-0.963867	-0.497850
H338	H	1.352274	-0.713867	-0.247850
H339	H	1.602274	-0.463867	0.002150
H340	H	1.852274	-0.213867	0.252150
H341	H	1.149292	-0.893543	-0.511650
H342	H	1.399292	-0.643543	-0.261650
H343	H	1.649292	-0.393543	-0.011650
H344	H	1.899292	-0.143543	0.238350
H345	H	0.978207	-0.271445	-0.785272
H346	H	1.228207	-0.021445	-0.535272
H347	H	1.478207	0.228555	-0.285272
H348	H	1.728207	0.478555	-0.035272
