data_functionalizedCrystal
_audit_creation_method	'MofGen! by Chris Wilmer'
_symmetry_space_group_name_H-M	'P1'
_symmetry_Int_Tables_number	1
_symmetry_cell_setting	triclinic
loop_
_symmetry_equiv_pos_as_xyz
  x,y,z
_cell_length_a	9.730223
_cell_length_b	10.654550
_cell_length_c	10.654551
_cell_angle_alpha	95.514820
_cell_angle_beta	89.997362
_cell_angle_gamma	90.000043
loop_
_atom_site_label
_atom_site_type_symbol
_atom_site_fract_x
_atom_site_fract_y
_atom_site_fract_z
O1	O	-0.114181	-1.667840	0.176399
O2	O	-0.114206	-1.302361	0.193205
O3	O	-0.114190	-1.493503	0.002062
O4	O	-0.114197	-1.476698	0.367541
O5	O	0.114390	-1.493490	0.002057
O6	O	0.114374	-1.302349	0.193199
O7	O	0.114398	-1.667827	0.176393
Zn8	Zn	0.150678	-1.485086	0.184795
Zn9	Zn	-0.150486	-1.485103	0.184802
O10	O	0.114383	-1.476686	0.367535
C11	C	0.000081	-1.255557	0.191968
C12	C	0.000071	-1.116114	0.188276
N13	N	0.356214	-1.485084	0.184790
N14	N	-0.356022	-1.485114	0.184798
C15	C	0.000097	-1.492262	-0.044738
C16	C	0.000091	-1.488570	-0.184181
C17	C	0.428147	-1.569751	0.100188
C18	C	0.572030	-1.569763	0.100189
C19	C	0.572035	-1.400439	0.269404
C20	C	0.428154	-1.400421	0.269396
C21	C	0.000109	-1.714632	0.177630
C22	C	0.000109	-1.854075	0.181322
C23	C	0.000073	-1.036629	0.300818
C24	C	0.000097	-0.905608	0.297341
C25	C	0.000112	-0.933570	0.068772
C26	C	0.000097	-1.064589	0.072249
C27	C	-0.124510	-1.486844	-0.249682
C28	C	-0.124511	-1.483364	-0.380703
C29	C	0.124699	-1.483342	-0.380710
C30	C	0.124699	-1.486813	-0.249691
C31	C	0.000092	-1.477926	0.414336
C32	C	0.000089	-1.481619	0.553779
H33	H	0.369577	-1.638687	0.031295
H34	H	0.000062	-1.078576	0.395294
H35	H	0.000101	-0.840896	0.388984
H36	H	0.000141	-0.891602	-0.025693
Br37	Br	0.669651	-1.684666	-0.014638
H38	H	0.000100	-1.129309	-0.019401
H39	H	-0.225974	-1.488271	-0.196348
Br40	Br	0.293813	-1.489135	-0.160786
Br41	Br	0.669672	-1.285546	0.384225
Br42	Br	0.330520	-1.285499	0.384211
H43	H	-0.225973	-1.481955	-0.434027
H44	H	0.226151	-1.481913	-0.434065
