data_functionalizedCrystal
_audit_creation_method	'MofGen! by Chris Wilmer'
_symmetry_space_group_name_H-M	'P1'
_symmetry_Int_Tables_number	1
_symmetry_cell_setting	triclinic
loop_
_symmetry_equiv_pos_as_xyz
  x,y,z
_cell_length_a	12.645331
_cell_length_b	19.121063
_cell_length_c	12.645323
_cell_angle_alpha	92.408124
_cell_angle_beta	89.977324
_cell_angle_gamma	92.467980
loop_
_atom_site_label
_atom_site_type_symbol
_atom_site_fract_x
_atom_site_fract_y
_atom_site_fract_z
Zn1	Zn	1.602654	-0.279627	-0.617388
Zn2	Zn	1.594942	-0.397086	-0.447665
Zn3	Zn	1.425367	-0.279651	-0.440134
Zn4	Zn	1.417760	-0.397040	-0.624877
O5	O	1.510181	-0.338351	-0.532516
O6	O	1.749978	-0.295217	-0.594892
O7	O	1.572404	-0.381537	-0.298321
O8	O	1.455295	-0.181363	-0.457361
O9	O	1.744312	-0.381514	-0.470197
O10	O	1.585547	-0.181346	-0.587589
O11	O	1.447818	-0.295258	-0.292788
O12	O	1.276011	-0.295213	-0.464623
O13	O	1.442330	-0.381436	-0.772230
O14	O	1.270422	-0.381459	-0.600353
O15	O	1.578171	-0.295173	-0.766727
O16	O	1.565027	-0.495364	-0.477459
O17	O	1.434852	-0.495330	-0.607656
C18	C	1.234752	-0.338334	-0.532485
C19	C	1.116921	-0.338344	-0.532497
C20	C	0.952854	-0.283838	-0.447545
C21	C	1.075405	-0.283979	-0.447195
C22	C	1.067618	-0.412331	-0.506730
C23	C	0.945039	-0.412033	-0.506155
C24	C	0.950986	-0.319567	-0.643576
C25	C	1.073698	-0.317914	-0.642847
C26	C	1.498306	-0.520831	-0.544210
C27	C	1.493323	-0.598897	-0.549248
C28	C	1.558810	-0.635567	-0.483885
C29	C	1.554130	-0.708918	-0.488629
C30	C	1.483957	-0.745598	-0.558733
C31	C	1.418467	-0.708923	-0.624104
C32	C	1.423154	-0.635573	-0.619364
C33	C	1.466419	-0.967067	-0.576438
C34	C	1.461736	-1.040422	-0.581171
C35	C	1.597400	-1.040412	-0.445697
C36	C	1.602076	-0.967061	-0.440959
C37	C	1.536590	-0.930392	-0.506334
C38	C	1.479169	-0.820575	-0.563582
C39	C	1.541384	-0.855417	-0.501489
C40	C	1.786685	-0.338368	-0.532549
C41	C	1.904514	-0.338375	-0.532563
C42	C	1.510262	-0.338296	-0.809018
C43	C	1.510297	-0.338273	-0.926847
C44	C	1.522130	-0.155158	-0.520800
C45	C	1.527222	-0.077092	-0.515807
C46	C	1.424603	-0.392285	-1.097856
C47	C	1.424801	-0.392553	-0.975313
C48	C	1.620698	-0.358362	-0.972656
C49	C	1.620225	-0.358700	-1.095276
C50	C	1.486666	-0.263871	-1.089271
C51	C	1.484145	-0.264317	-0.966693
C52	C	1.510164	-0.338354	-0.257087
C53	C	1.510347	-0.338179	-0.139246
H54	H	0.912678	-0.454044	-0.565636
O55	O	1.668035	-1.079973	-0.375211
H56	H	1.650797	-1.065956	-0.291083
O57	O	0.910951	-0.300104	-0.339072
H58	H	0.977974	-0.310747	-0.286288
H59	H	1.094090	-0.454052	-0.566917
H60	H	1.404605	-1.070285	-0.638276
O61	O	1.707328	-0.307826	-0.930810
H62	H	1.672531	-0.267762	-0.876787
O63	O	0.918544	-0.210935	-0.467883
H64	H	0.874416	-0.190367	-0.398195
H65	H	0.915362	-0.427984	-0.425139
O66	O	1.113128	-0.300448	-0.338098
H67	H	1.200891	-0.300599	-0.337464
O68	O	1.648641	-0.429560	-0.936577
H69	H	1.658844	-0.465514	-1.006704
O70	O	1.382210	-0.239617	-1.128623
H71	H	1.346006	-0.280259	-1.184248
O72	O	1.561340	-0.208095	-0.922537
H73	H	1.642724	-0.220173	-0.948242
H74	H	1.659216	-0.937197	-0.383875
H75	H	1.097224	-0.428555	-0.426612
O76	O	0.909195	-0.372175	-0.727418
H77	H	0.855587	-0.411530	-0.690270
O78	O	1.316168	-0.375881	-0.934372
H79	H	1.257213	-0.415967	-0.966371
O80	O	1.624759	-0.748471	-0.418127
H81	H	1.607503	-0.734448	-0.334005
H82	H	1.413096	-0.937218	-0.629667
H83	H	1.369829	-0.605717	-0.672591
O84	O	1.111111	-0.366707	-0.730738
H85	H	1.161318	-0.406459	-0.696991
H86	H	1.342333	-0.379835	-1.126531
H87	H	1.106322	-0.263468	-0.662363
H88	H	1.686020	-0.321003	-1.122535
H89	H	1.402923	-0.249167	-0.936622
O90	O	0.914614	-0.249348	-0.675838
H91	H	0.863002	-0.227068	-0.613099
O92	O	1.403466	-0.860143	-0.639170
H93	H	1.448747	-0.893518	-0.695300
O94	O	1.634502	-0.596005	-0.408277
H95	H	1.679261	-0.633830	-0.363632
O96	O	1.342766	-0.748480	-0.699706
H97	H	1.350495	-0.805646	-0.692010
O98	O	1.617083	-0.815855	-0.425895
H99	H	1.571799	-0.782486	-0.369761
O100	O	1.444534	-0.464797	-1.143371
H101	H	1.515250	-0.462470	-1.195335
H102	H	1.440044	-0.447641	-0.949534
H103	H	1.640858	-0.413021	-1.127372
O104	O	1.569459	-0.210468	-1.124270
H105	H	1.568160	-0.208550	-1.211863
O106	O	1.119989	-0.211301	-0.467831
H107	H	1.054010	-0.175737	-0.478149
