data_functionalizedCrystal
_audit_creation_method	'MofGen! by Chris Wilmer'
_symmetry_space_group_name_H-M	'P1'
_symmetry_Int_Tables_number	1
_symmetry_cell_setting	triclinic
loop_
_symmetry_equiv_pos_as_xyz
  x,y,z
_cell_length_a	12.503572
_cell_length_b	19.288864
_cell_length_c	19.288813
_cell_angle_alpha	96.874130
_cell_angle_beta	86.476549
_cell_angle_gamma	86.505348
loop_
_atom_site_label
_atom_site_type_symbol
_atom_site_fract_x
_atom_site_fract_y
_atom_site_fract_z
O1	O	-0.089688	-0.917286	0.090692
O2	O	0.410312	-0.417286	0.590692
O3	O	-0.089618	-0.715027	0.102378
O4	O	0.410382	-0.215027	0.602378
O5	O	-0.089621	-0.822021	-0.004599
O6	O	0.410379	-0.322021	0.495401
O7	O	-0.089685	-0.810292	0.197669
O8	O	0.410315	-0.310292	0.697669
O9	O	0.089020	-0.830071	-0.012654
O10	O	0.589020	-0.330071	0.487346
O11	O	0.089024	-0.723077	0.094323
O12	O	0.589024	-0.223077	0.594323
O13	O	0.088953	-0.925336	0.082637
O14	O	0.588953	-0.425336	0.582637
Cu15	Cu	0.105300	-0.824942	0.087745
Cu16	Cu	0.605300	-0.324942	0.587745
Cu17	Cu	-0.105965	-0.815421	0.097271
Cu18	Cu	0.394035	-0.315421	0.597271
O19	O	0.088957	-0.818342	0.189614
O20	O	0.588957	-0.318342	0.689614
C21	C	-0.000288	-0.693176	0.097974
C22	C	0.499712	-0.193176	0.597974
C23	C	-0.000259	-0.616074	0.096844
C24	C	0.499741	-0.116074	0.596844
N25	N	-0.254557	-0.808726	0.103966
N26	N	0.245443	-0.308726	0.603966
C27	C	-0.000294	-0.825675	-0.034504
C28	C	0.499706	-0.325675	0.465496
C29	C	-0.000274	-0.824561	-0.111610
C30	C	0.499726	-0.324561	0.388390
C31	C	-0.473672	-0.798871	0.113815
C32	C	0.026328	-0.298871	0.613815
C33	C	-0.527000	-0.841496	0.071197
C34	C	-0.027000	-0.341496	0.571197
C35	C	-0.648923	-0.836012	0.076677
C36	C	-0.148923	-0.336012	0.576677
C37	C	-0.351738	-0.804353	0.108336
C38	C	0.148262	-0.304353	0.608336
N39	N	0.253892	-0.831643	0.081044
N40	N	0.753892	-0.331643	0.581044
C41	C	-0.000379	-0.947187	0.087041
C42	C	0.499621	-0.447187	0.587041
C43	C	-0.000415	-1.024289	0.088172
C44	C	0.499585	-0.524289	0.588172
C45	C	-0.000296	-0.571364	0.159615
C46	C	0.499704	-0.071364	0.659615
C47	C	-0.000307	-0.498917	0.158555
C48	C	0.499693	0.001083	0.658555
C49	C	-0.000304	-0.471181	0.094721
C50	C	0.499696	0.028819	0.594721
C51	C	-0.000261	-0.515901	0.031941
C52	C	0.499739	-0.015901	0.531941
C53	C	-0.000239	-0.588347	0.033003
C54	C	0.499761	-0.088347	0.533003
C55	C	-0.062910	-0.360107	0.047363
C56	C	0.437090	0.139893	0.547363
C57	C	-0.062939	-0.287661	0.046305
C58	C	0.437061	0.212339	0.546305
C59	C	-0.000368	-0.247733	0.091444
C60	C	0.499632	0.252267	0.591444
C61	C	0.062219	-0.280257	0.137654
C62	C	0.562219	0.219743	0.637654
C63	C	0.062241	-0.352704	0.138716
C64	C	0.562241	0.147296	0.638716
C65	C	-0.000327	-0.392626	0.093563
C66	C	0.499673	0.107374	0.593563
C67	C	-0.000416	-0.124468	0.153070
C68	C	0.499584	0.375532	0.653070
C69	C	-0.000420	-0.052020	0.152007
C70	C	0.499580	0.447980	0.652007
C71	C	-0.000385	-0.069004	0.025392
C72	C	0.499615	0.430996	0.525392
C73	C	-0.000369	-0.141451	0.026456
C74	C	0.499631	0.358549	0.526456
C75	C	-0.000390	-0.169178	0.090297
C76	C	0.499610	0.330822	0.590297
C77	C	-0.000373	-0.814688	0.219519
C78	C	0.499627	-0.314688	0.719519
C79	C	-0.000400	-0.815802	0.296626
C80	C	0.499600	-0.315802	0.796626
C81	C	0.096983	-0.820732	0.328429
C82	C	0.596983	-0.320732	0.828429
C83	C	0.097001	-0.821799	0.400875
C84	C	0.597001	-0.321799	0.900875
C85	C	-0.000369	-0.817951	0.441513
C86	C	0.499631	-0.317951	0.941513
C87	C	-0.097765	-0.813016	0.409702
C88	C	0.402235	-0.313016	0.909702
C89	C	-0.097780	-0.811942	0.337259
C90	C	0.402220	-0.311942	0.837259
C91	C	-0.074961	-0.856975	0.554203
C92	C	0.425039	-0.356975	1.054203
C93	C	-0.074942	-0.858054	0.626644
C94	C	0.425058	-0.358054	1.126644
C95	C	-0.000326	-0.821261	0.664952
C96	C	0.499674	-0.321261	1.164952
C97	C	0.074289	-0.783399	0.630808
C98	C	0.574289	-0.283399	1.130808
C99	C	0.074273	-0.782325	0.558365
C100	C	0.574273	-0.282325	1.058365
C101	C	-0.000364	-0.819115	0.520066
C102	C	0.499636	-0.319115	1.020066
C103	C	0.097083	-0.827347	0.775309
C104	C	0.597083	-0.327347	1.275309
C105	C	0.097097	-0.828410	0.847757
C106	C	0.597097	-0.328410	1.347757
C107	C	-0.097672	-0.819635	0.856582
C108	C	0.402328	-0.319635	1.356582
C109	C	-0.097683	-0.818565	0.784136
C110	C	0.402317	-0.318565	1.284136
C111	C	-0.000303	-0.822425	0.743504
C112	C	0.499697	-0.322425	1.243504
H113	H	-0.481088	-0.882106	0.030595
H114	H	0.018912	-0.382106	0.530595
H115	H	-0.519578	-0.758262	0.154413
H116	H	-0.019578	-0.258262	0.654413
N117	N	0.202108	-0.831510	0.731479
N118	N	0.702108	-0.331510	1.231479
H119	H	0.206461	-0.788217	0.706997
H120	H	0.706461	-0.288217	1.206997
H121	H	0.206354	-0.874339	0.695491
H122	H	0.706354	-0.374339	1.195491
N123	N	-0.000350	-0.189682	-0.041244
N124	N	0.499650	0.310318	0.458756
H125	H	0.065882	-0.223085	-0.046611
H126	H	0.565882	0.276915	0.453389
H127	H	-0.000392	-0.161074	-0.081806
H128	H	0.499608	0.338926	0.418194
N129	N	-0.000326	-0.601270	0.228469
N130	N	0.499674	-0.101270	0.728469
H131	H	-0.000353	-0.561948	0.268074
H132	H	0.499647	-0.061948	0.768074
H133	H	0.065904	-0.633925	0.228689
H134	H	0.565904	-0.133925	0.728689
H135	H	-0.000209	-0.624750	-0.018115
H136	H	0.499791	-0.124750	0.481885
H137	H	-0.000334	-0.462508	0.209672
H138	H	0.499666	0.037492	0.709672
N139	N	0.129743	-0.387786	0.188548
N140	N	0.629743	0.112214	0.688548
H141	H	0.169381	-0.351503	0.216985
H142	H	0.669381	0.148497	0.716985
H143	H	0.183214	-0.423665	0.161014
H144	H	0.683214	0.076335	0.661014
H145	H	-0.000416	-0.147045	0.205052
H146	H	0.499584	0.352955	0.705052
H147	H	-0.113905	-0.261186	0.008681
H148	H	0.386095	0.238814	0.508681
N149	N	0.202009	-0.824893	0.284605
N150	N	0.702009	-0.324893	0.784605
H151	H	0.263705	-0.828178	0.315749
H152	H	0.763705	-0.328178	0.815749
H153	H	0.206264	-0.781589	0.260135
H154	H	0.706264	-0.281589	0.760135
H155	H	0.113171	-0.247749	0.174410
H156	H	0.613171	0.252251	0.674410
N157	N	-0.000374	-0.003797	0.219709
N158	N	0.499626	0.496203	0.719709
H159	H	-0.000360	-0.032359	0.260309
H160	H	0.499640	0.467641	0.760309
H161	H	-0.066581	0.029623	0.225042
H162	H	0.433419	0.529623	0.725042
N163	N	0.202039	-0.827115	0.435189
N164	N	0.702039	-0.327115	0.935189
H165	H	0.263725	-0.829396	0.398455
H166	H	0.763725	-0.329396	0.898455
H167	H	0.206263	-0.870802	0.459273
H168	H	0.706263	-0.370802	0.959273
H169	H	0.176401	-0.832423	0.873649
H170	H	0.676401	-0.332423	1.373649
H171	H	-0.000448	-0.046420	-0.026580
H172	H	0.499552	0.453580	0.473420
H173	H	-0.113870	-0.392611	0.010604
H174	H	0.386130	0.107389	0.510604
H175	H	-0.000273	-0.493313	-0.020032
H176	H	0.499727	0.006687	0.479968
N177	N	0.154742	-0.741492	0.521536
N178	N	0.654742	-0.241492	1.021536
H179	H	0.202019	-0.718346	0.556791
H180	H	0.702019	-0.218346	1.056791
H181	H	0.115427	-0.704525	0.497926
H182	H	0.615427	-0.204525	0.997926
H183	H	0.135051	-0.753441	0.661997
H184	H	0.635051	-0.253441	1.161997
H185	H	-0.176953	-0.816493	0.889669
H186	H	0.323047	-0.316493	1.389669
N187	N	-0.202718	-0.813312	0.749820
N188	N	0.297282	-0.313312	1.249820
H189	H	-0.264401	-0.811056	0.786552
H190	H	0.235599	-0.311056	1.286552
H191	H	-0.206914	-0.855748	0.714194
H192	H	0.293086	-0.355748	1.214194
H193	H	-0.135693	-0.888887	0.654438
H194	H	0.364307	-0.388887	1.154438
N195	N	-0.155455	-0.896653	0.512890
N196	N	0.344545	-0.396653	1.012890
H197	H	-0.202714	-0.920803	0.545510
H198	H	0.297286	-0.420803	1.045510
H199	H	-0.116160	-0.932730	0.476383
H200	H	0.383840	-0.432730	0.976383
N201	N	-0.202787	-0.808804	0.453536
N202	N	0.297213	-0.308804	0.953536
H203	H	-0.188002	-0.810215	0.504257
H204	H	0.311998	-0.310215	1.004257
H205	H	-0.245394	-0.849727	0.437048
H206	H	0.254606	-0.349727	0.937048
N207	N	-0.202819	-0.806665	0.302946
N208	N	0.297181	-0.306665	0.802946
H209	H	-0.264503	-0.804400	0.339679
H210	H	0.235497	-0.304400	0.839679
H211	H	-0.207037	-0.849095	0.267316
H212	H	0.292963	-0.349095	0.767316
