data_functionalizedCrystal
_audit_creation_method	'MofGen! by Chris Wilmer'
_symmetry_space_group_name_H-M	'P1'
_symmetry_Int_Tables_number	1
_symmetry_cell_setting	triclinic
loop_
_symmetry_equiv_pos_as_xyz
  x,y,z
_cell_length_a	12.759401
_cell_length_b	18.101395
_cell_length_c	12.759393
_cell_angle_alpha	90.036289
_cell_angle_beta	90.018567
_cell_angle_gamma	90.030996
loop_
_atom_site_label
_atom_site_type_symbol
_atom_site_fract_x
_atom_site_fract_y
_atom_site_fract_z
Zn1	Zn	1.606129	-0.294805	0.593949
Zn2	Zn	1.605971	-0.418666	0.418254
Zn3	Zn	1.430431	-0.294841	0.418288
Zn4	Zn	1.430367	-0.418607	0.593896
O5	O	1.518225	-0.356730	0.506097
O6	O	1.753129	-0.311245	0.570651
O7	O	1.582646	-0.402281	0.271238
O8	O	1.453831	-0.191203	0.441626
O9	O	1.753013	-0.402246	0.441569
O10	O	1.582916	-0.191177	0.570683
O11	O	1.453678	-0.311307	0.271262
O12	O	1.283402	-0.311249	0.441575
O13	O	1.453722	-0.402144	0.740924
O14	O	1.283355	-0.402180	0.570593
O15	O	1.582854	-0.311187	0.740963
O16	O	1.582583	-0.522291	0.441517
O17	O	1.453568	-0.522248	0.570560
C18	C	1.245257	-0.356712	0.506082
C19	C	1.128481	-0.356723	0.506101
C20	C	1.073672	-0.309428	0.573418
C21	C	0.963948	-0.309442	0.573424
C22	C	0.963851	-0.404052	0.438794
C23	C	1.073573	-0.404034	0.438783
C24	C	1.128580	-0.262117	0.640736
C25	C	1.073772	-0.214820	0.708059
C26	C	0.964048	-0.214834	0.708066
C27	C	0.909132	-0.262146	0.640749
C28	C	1.518080	-0.549140	0.506052
C29	C	1.518114	-0.631455	0.506068
C30	C	1.518235	-0.782163	0.506110
C31	C	1.437020	-0.813520	0.587238
C32	C	1.437327	-0.899138	0.587580
C33	C	1.518352	-0.930545	0.506151
C34	C	1.629116	-0.899361	0.535931
C35	C	1.628579	-0.813716	0.536497
C36	C	1.489679	-0.813809	0.395007
C37	C	1.487304	-0.899461	0.395623
C38	C	1.518425	-1.014405	0.506173
C39	C	1.518170	-0.698304	0.506091
C40	C	1.792258	-0.356748	0.506112
C41	C	1.909035	-0.356756	0.506118
C42	C	1.518298	-0.356655	0.780130
C43	C	1.518330	-0.356623	0.896907
C44	C	1.518399	-0.163568	0.506164
C45	C	1.518473	-0.081254	0.506193
C46	C	1.518212	-0.356751	0.233129
C47	C	1.518384	-0.356574	0.116353
C48	C	1.585578	-0.309258	0.951791
C49	C	1.585603	-0.309231	1.061515
C50	C	1.451129	-0.403942	1.061461
C51	C	1.451099	-0.403964	0.951739
C52	C	1.652808	-0.261916	0.896959
C53	C	1.720063	-0.214547	0.951843
C54	C	1.720088	-0.214521	1.061567
C55	C	1.652858	-0.261863	1.116407
H56	H	1.354604	-0.793001	0.568834
C57	C	1.377194	-0.456023	1.121786
C58	C	1.385694	-0.540215	1.106657
C59	C	1.311764	-0.592301	1.166982
C60	C	1.229335	-0.560195	1.242434
C61	C	1.220832	-0.475999	1.257566
C62	C	1.294761	-0.423913	1.197242
H63	H	1.446716	-0.563986	1.050800
H64	H	1.318060	-0.654629	1.155780
H65	H	1.174608	-0.598752	1.287090
H66	H	1.159810	-0.452228	1.313424
H67	H	1.288466	-0.361585	1.208444
H68	H	1.355203	-0.920227	0.568967
H69	H	1.396323	-0.442522	0.907052
H70	H	1.652798	-0.261935	0.807616
C71	C	1.462986	-0.926748	0.698796
C72	C	1.468391	-1.010239	0.721232
C73	C	1.494074	-1.037848	0.832447
C74	C	1.514353	-0.981966	0.921226
C75	C	1.508949	-0.898470	0.898792
C76	C	1.483265	-0.870861	0.787577
H77	H	1.453379	-1.051610	0.655511
H78	H	1.498075	-1.099657	0.849054
H79	H	1.533365	-1.002403	1.003554
H80	H	1.523961	-0.857098	0.964514
H81	H	1.479265	-0.809051	0.770970
C82	C	1.713138	-0.785674	0.460135
C83	C	1.707500	-0.806453	0.343215
C84	C	1.792063	-0.778412	0.266863
C85	C	1.882264	-0.729593	0.307432
C86	C	1.887906	-0.708812	0.424358
C87	C	1.803343	-0.736852	0.500710
H88	H	1.640725	-0.842594	0.313178
H89	H	1.787887	-0.793796	0.180307
H90	H	1.944863	-0.708836	0.250912
H91	H	1.954681	-0.672671	0.454395
H92	H	1.807519	-0.721469	0.587266
H93	H	1.118491	-0.176295	0.762859
H94	H	1.217923	-0.262100	0.640738
H95	H	0.919426	-0.176316	0.762876
H96	H	1.455716	-0.791944	0.669093
C97	C	0.903447	-0.456098	0.364757
C98	C	0.918503	-0.540291	0.373112
C99	C	0.858102	-0.592340	0.299076
C100	C	0.782645	-0.560196	0.216685
C101	C	0.767585	-0.475998	0.208327
C102	C	0.827987	-0.423949	0.282362
H103	H	0.974364	-0.564090	0.434106
H104	H	0.869250	-0.654668	0.305264
H105	H	0.737932	-0.598725	0.161879
H106	H	0.711724	-0.452199	0.147333
H107	H	0.816838	-0.361621	0.276174
C108	C	1.661215	-0.786642	0.646204
C109	C	1.687586	-0.842950	0.732690
C110	C	1.720217	-0.815880	0.842402
C111	C	1.726477	-0.732501	0.865629
C112	C	1.700105	-0.676188	0.779141
C113	C	1.667474	-0.703258	0.669428
H114	H	1.682953	-0.904677	0.715499
H115	H	1.739739	-0.857567	0.906426
H116	H	1.750632	-0.712462	0.946844
H117	H	1.704738	-0.614461	0.796332
H118	H	1.647952	-0.661570	0.605404
H119	H	0.819787	-0.262138	0.640737
C120	C	1.713150	-0.926838	0.458586
C121	C	1.682097	-0.978034	0.367266
C122	C	1.766129	-1.005513	0.289920
C123	C	1.881214	-0.981797	0.303896
C124	C	1.912273	-0.930599	0.395220
C125	C	1.828240	-0.903119	0.472566
H126	H	1.596899	-0.995592	0.356917
H127	H	1.743137	-1.043413	0.222316
H128	H	1.943420	-1.002138	0.246640
H129	H	1.997470	-0.913040	0.405569
H130	H	1.851233	-0.865219	0.540170
C131	C	1.382371	-0.784736	0.358303
C132	C	1.319300	-0.731878	0.428755
C133	C	1.211988	-0.702804	0.392064
C134	C	1.167748	-0.726589	0.284921
C135	C	1.230820	-0.779450	0.214462
C136	C	1.338132	-0.808524	0.251153
H137	H	1.352049	-0.714268	0.508074
H138	H	1.165299	-0.663673	0.444222
H139	H	1.088310	-0.705067	0.257760
H140	H	1.198072	-0.797060	0.135143
H141	H	1.384822	-0.847655	0.198994
H142	H	1.118199	-0.442545	0.383968
H143	H	1.653738	-0.920750	0.616259
H144	H	1.405788	-0.919853	0.373160
H145	H	1.542145	-0.920851	0.331974
H146	H	1.548824	-0.793522	0.334564
H147	H	1.774792	-0.175999	0.907185
H148	H	1.774842	-0.175945	1.106251
H149	H	1.652872	-0.261829	1.205752
