data_functionalizedCrystal
_audit_creation_method	'MofGen! by Chris Wilmer'
_symmetry_space_group_name_H-M	'P1'
_symmetry_Int_Tables_number	1
_symmetry_cell_setting	triclinic
loop_
_symmetry_equiv_pos_as_xyz
  x,y,z
_cell_length_a	12.759401
_cell_length_b	10.685194
_cell_length_c	12.759393
_cell_angle_alpha	85.596579
_cell_angle_beta	89.978811
_cell_angle_gamma	94.376983
loop_
_atom_site_label
_atom_site_type_symbol
_atom_site_fract_x
_atom_site_fract_y
_atom_site_fract_z
Zn1	Zn	1.574245	-0.502341	-0.561976
Zn2	Zn	1.560689	-0.713411	-0.372817
Zn3	Zn	1.398543	-0.502406	-0.386303
Zn4	Zn	1.385092	-0.713313	-0.548456
O5	O	1.479642	-0.607868	-0.467388
O6	O	1.719467	-0.530354	-0.536898
O7	O	1.539136	-0.685489	-0.227580
O8	O	1.433152	-0.325799	-0.420909
O9	O	1.709508	-0.685426	-0.397923
O10	O	1.562240	-0.325751	-0.549975
O11	O	1.420008	-0.530465	-0.237489
O12	O	1.249738	-0.530370	-0.407799
O13	O	1.410227	-0.685259	-0.697275
O14	O	1.239856	-0.685322	-0.526932
O15	O	1.549197	-0.530259	-0.707208
O16	O	1.526094	-0.889997	-0.384814
O17	O	1.397083	-0.889925	-0.513855
C18	C	1.206676	-0.607843	-0.467363
C19	C	1.089898	-0.607863	-0.467375
C20	C	0.920123	-0.688508	-0.394963
C21	C	1.029849	-0.688485	-0.394935
C22	C	1.040218	-0.527250	-0.539841
C23	C	0.930495	-0.527268	-0.539863
C24	C	0.914137	-0.781600	-0.311306
C25	C	1.023863	-0.781577	-0.311277
C26	C	1.458686	-0.935751	-0.446427
C27	C	1.449817	-1.076021	-0.437495
C28	C	1.753674	-0.607893	-0.467414
C29	C	1.870450	-0.607904	-0.467426
C30	C	1.479724	-0.607741	-0.741430
C31	C	1.479759	-0.607686	-0.858210
C32	C	1.500709	-0.278704	-0.488454
C33	C	1.509686	-0.138434	-0.497431
C34	C	1.552130	-0.526970	-0.918246
C35	C	1.552158	-0.526924	-1.027973
C36	C	1.407439	-0.688322	-1.017617
C37	C	1.407407	-0.688361	-0.907893
C38	C	1.635685	-0.433792	-0.924226
C39	C	1.635713	-0.433746	-1.033953
C40	C	1.479627	-0.607904	-0.194419
C41	C	1.479818	-0.607602	-0.077662
H42	H	0.890056	-0.461622	-0.598862
H43	H	0.885991	-0.755318	-0.231657
H44	H	0.874193	-0.874489	-0.334396
H45	H	1.612517	-0.340884	-1.073930
H46	H	1.567729	-1.084560	-0.555585
H47	H	1.348532	-0.754002	-1.058083
H48	H	1.710724	-0.468829	-0.887956
H49	H	1.391762	-1.129904	-0.379347
H50	H	1.060088	-0.746459	-0.236263
H51	H	1.348472	-0.754083	-0.859015
H52	H	1.715416	-0.459923	-1.062063
H53	H	1.089120	-0.461598	-0.598816
H54	H	1.047415	-0.879342	-0.326686
H55	H	1.620144	-0.336058	-0.900710
