data_functionalizedCrystal
_audit_creation_method	'MofGen! by Chris Wilmer'
_symmetry_space_group_name_H-M	'P1'
_symmetry_Int_Tables_number	1
_symmetry_cell_setting	triclinic
loop_
_symmetry_equiv_pos_as_xyz
  x,y,z
_cell_length_a	6.817900
_cell_length_b	13.563541
_cell_length_c	16.306216
_cell_angle_alpha	109.761223
_cell_angle_beta	103.467292
_cell_angle_gamma	104.704624
loop_
_atom_site_label
_atom_site_type_symbol
_atom_site_fract_x
_atom_site_fract_y
_atom_site_fract_z
V1	V	-4.058919	-0.154603	-0.299013
O2	O	-4.012565	0.006535	-0.256498
O3	O	-4.042200	-0.305691	-0.332383
O4	O	-4.009951	-0.152617	-0.413266
O5	O	-4.045036	-0.147599	-0.175056
V6	V	-4.538515	-0.135282	-0.279885
O7	O	-4.328791	-0.196983	-0.340973
O8	O	-4.718841	-0.092902	-0.237925
O9	O	-4.332028	0.015806	-0.246514
O10	O	-4.702266	-0.296420	-0.322400
O11	O	-4.669795	-0.142286	-0.403842
O12	O	-4.364276	-0.137268	-0.165632
C13	C	-3.894926	-0.342510	-0.336805
C14	C	-3.962539	-0.466029	-0.364850
C15	C	-3.978965	-0.749712	-0.119865
C16	C	-3.915424	-0.633659	-0.093513
C17	C	-3.927200	-0.591745	-0.161345
C18	C	-4.002522	-0.665897	-0.255534
C19	C	-4.066052	-0.781961	-0.281889
C20	C	-4.014288	-0.623995	-0.323368
C21	C	-4.089609	-0.698146	-0.417557
C22	C	-4.153134	-0.814198	-0.443907
C23	C	-4.141358	-0.856112	-0.376075
C24	C	-3.950757	-0.507931	-0.297014
C25	C	-4.037845	-0.540180	-0.459037
C26	C	-4.101385	-0.656233	-0.485389
C27	C	-3.853789	-0.147248	-0.439977
C28	C	-3.895245	-0.146624	-0.533611
C29	C	-4.045732	-0.144386	-0.873842
C30	C	-4.251700	-0.151757	-0.845110
C31	C	-4.208477	-0.151979	-0.747570
C32	C	-3.971076	-0.145497	-0.705050
C33	C	-3.812212	-0.035291	-0.699603
C34	C	-3.856696	-0.034605	-0.797042
C35	C	-3.980670	-0.246829	-0.871571
C36	C	-3.942561	-0.249004	-0.774760
C37	C	-3.928869	-0.146121	-0.609654
C38	C	-4.087928	-0.143754	-0.969235
C39	C	-4.142645	0.052620	-0.242092
C40	C	-4.054271	0.176138	-0.214052
C41	C	-4.183782	-0.142640	-0.138918
C42	C	-4.121562	-0.143258	-0.045281
H43	H	-3.875452	-0.497249	-0.139883
H44	H	-4.060267	-0.330478	-0.781803
H45	H	-4.162717	-0.716623	-0.562080
H46	H	-3.854105	-0.573292	-0.016825
H47	H	-4.047431	-0.506056	-0.514272
O48	O	-4.209899	-0.981287	-0.404495
H49	H	-4.264259	-1.025811	-0.481385
H50	H	-4.238680	-0.078192	-0.700028
H51	H	-3.636645	-0.026539	-0.670077
H52	H	-3.969373	-0.783849	-0.064647
H53	H	-4.214441	-0.874570	-0.520602
O54	O	-3.869518	-0.427965	-0.195429
H55	H	-3.975528	-0.378549	-0.183673
H56	H	-4.330449	-0.231194	-0.753141
H57	H	-4.395276	-0.230709	-0.898049
O58	O	-4.319706	-0.054286	-0.845656
H59	H	-4.207443	-0.000613	-0.866300
H60	H	-3.701695	-0.024675	-0.813956
O61	O	-3.909660	0.068046	-0.793239
H62	H	-3.903337	0.116726	-0.721962
O63	O	-3.835554	0.066557	-0.633500
H64	H	-3.960115	0.038954	-0.604438
O65	O	-3.719327	-0.251269	-0.738993
H66	H	-3.636012	-0.246643	-0.789259
H67	H	-4.111329	-0.329644	-0.926691
H68	H	-3.827852	-0.242305	-0.889679
