data_functionalizedCrystal
_audit_creation_method	'MofGen! by Chris Wilmer'
_symmetry_space_group_name_H-M	'P1'
_symmetry_Int_Tables_number	1
_symmetry_cell_setting	triclinic
loop_
_symmetry_equiv_pos_as_xyz
  x,y,z
_cell_length_a	12.759401
_cell_length_b	17.637651
_cell_length_c	12.759393
_cell_angle_alpha	101.250165
_cell_angle_beta	90.018567
_cell_angle_gamma	101.218433
loop_
_atom_site_label
_atom_site_type_symbol
_atom_site_fract_x
_atom_site_fract_y
_atom_site_fract_z
Zn1	Zn	1.521684	-0.314742	0.509306
Zn2	Zn	1.486046	-0.446980	0.298049
Zn3	Zn	1.345976	-0.314781	0.333635
Zn4	Zn	1.310460	-0.446917	0.473707
O5	O	1.416041	-0.380855	0.403674
O6	O	1.663975	-0.332294	0.481288
O7	O	1.467415	-0.429486	0.155737
O8	O	1.399062	-0.204134	0.386729
O9	O	1.637792	-0.429449	0.326078
O10	O	1.528154	-0.204106	0.515794
O11	O	1.364505	-0.332360	0.181882
O12	O	1.194246	-0.332299	0.352210
O13	O	1.338530	-0.429341	0.625462
O14	O	1.168153	-0.429378	0.455121
O15	O	1.493716	-0.332232	0.651616
O16	O	1.432976	-0.557613	0.291560
O17	O	1.303973	-0.557566	0.420615
C18	C	1.143079	-0.380836	0.403665
C19	C	1.026299	-0.380847	0.403680
C20	C	0.985038	-0.330354	0.484576
C21	C	0.875310	-0.330370	0.484579
C22	C	0.848112	-0.431378	0.322785
C23	C	0.957839	-0.431358	0.322779
C24	C	1.000739	-0.272041	0.577990
C25	C	0.891011	-0.272056	0.577992
C26	C	1.360782	-0.586278	0.348386
C27	C	1.337238	-0.674159	0.324768
C28	C	1.595586	-0.962819	0.583425
C29	C	1.573430	-1.045396	0.561214
C30	C	1.439095	-1.045533	0.426689
C31	C	1.461245	-0.962954	0.448885
C32	C	1.539490	-0.921604	0.527254
C33	C	1.405148	-0.921739	0.392714
C34	C	1.427292	-0.839167	0.414912
C35	C	1.505532	-0.797811	0.493281
C36	C	1.561634	-0.839032	0.549452
C37	C	1.326898	-0.963091	0.314350
C38	C	1.270802	-0.921876	0.258180
C39	C	1.292950	-0.839302	0.280372
C40	C	1.371190	-0.797946	0.358741
C41	C	1.236848	-0.798081	0.224201
C42	C	1.258992	-0.715509	0.246399
C43	C	1.393334	-0.715374	0.380939
C44	C	1.690070	-0.380874	0.403684
C45	C	1.806844	-0.380882	0.403689
C46	C	1.416136	-0.380775	0.677729
C47	C	1.416177	-0.380741	0.794515
C48	C	1.471545	-0.174630	0.459202
C49	C	1.495198	-0.086749	0.482864
C50	C	1.416023	-0.380877	0.130701
C51	C	1.416246	-0.380689	0.013975
C52	C	1.496993	-0.330172	0.862999
C53	C	1.497025	-0.330143	0.972730
C54	C	1.335422	-0.431260	0.945484
C55	C	1.335386	-0.431284	0.835755
C56	C	1.590296	-0.271796	0.878729
C57	C	1.590329	-0.271767	0.988461
H58	H	1.046967	-0.210780	0.572817
N59	N	1.248275	-0.485761	0.989967
H60	H	1.260554	-0.478069	1.069874
H61	H	1.249406	-0.542239	0.955586
N62	N	1.679974	-0.918213	0.667960
H63	H	1.685483	-0.859650	0.673498
H64	H	1.751158	-0.932613	0.647806
H65	H	1.667292	-0.288168	1.013827
N66	N	0.866622	-0.194973	0.560331
H67	H	0.786807	-0.197800	0.560980
H68	H	0.893803	-0.184876	0.488989
N69	N	1.633945	-1.089852	0.621794
H70	H	1.686874	-1.051124	0.674804
H71	H	1.673401	-1.124107	0.569854
H72	H	0.856839	-0.288533	0.654895
H73	H	1.576848	-0.213587	1.038162
N74	N	1.354712	-1.090134	0.342158
H75	H	1.296808	-1.124396	0.375592
H76	H	1.388344	-1.124350	0.284329
N77	N	1.002349	-0.485804	0.235514
H78	H	0.942328	-0.517803	0.184267
H79	H	1.038054	-0.522429	0.268325
H80	H	0.792359	-0.472501	0.256918
H81	H	1.523560	-0.730575	0.511352
N82	N	1.646032	-0.794416	0.633971
H83	H	1.717264	-0.808754	0.613863
H84	H	1.625743	-0.808766	0.705141
N85	N	1.583267	-0.190691	0.861121
H86	H	1.580147	-0.154480	0.932410
H87	H	1.516671	-0.194267	0.816147
H88	H	1.173134	-0.831761	0.160399
H89	H	1.661669	-0.293748	0.838788
N90	N	1.302996	-1.052151	0.290401
H91	H	1.278321	-1.072011	0.357119
H92	H	1.369776	-1.071961	0.265775
H93	H	1.457057	-0.681705	0.444748
N94	N	1.038046	-0.301182	0.672453
H95	H	0.975365	-0.315275	0.718101
H96	H	1.094135	-0.258390	0.716336
H97	H	1.207091	-0.955555	0.194374
H98	H	1.213311	-0.681952	0.200660
H99	H	1.269575	-0.472459	0.779999
