data_functionalizedCrystal
_audit_creation_method	'MofGen! by Chris Wilmer'
_symmetry_space_group_name_H-M	'P1'
_symmetry_Int_Tables_number	1
_symmetry_cell_setting	triclinic
loop_
_symmetry_equiv_pos_as_xyz
  x,y,z
_cell_length_a	12.759401
_cell_length_b	13.897441
_cell_length_c	12.759399
_cell_angle_alpha	90.024717
_cell_angle_beta	89.985351
_cell_angle_gamma	89.983367
loop_
_atom_site_label
_atom_site_type_symbol
_atom_site_fract_x
_atom_site_fract_y
_atom_site_fract_z
Zn1	Zn	1.606229	-0.545364	0.418270
Zn2	Zn	1.606126	-0.384079	0.593977
Zn3	Zn	1.430537	-0.384087	0.418310
Zn4	Zn	1.430517	-0.545337	0.593904
O5	O	1.518352	-0.464717	0.506115
O6	O	1.753236	-0.523976	0.441591
O7	O	1.582799	-0.249098	0.570722
O8	O	1.453894	-0.405496	0.271284
O9	O	1.753161	-0.405481	0.570683
O10	O	1.582974	-0.523985	0.271254
O11	O	1.453794	-0.249105	0.441660
O12	O	1.283513	-0.405470	0.441589
O13	O	1.453860	-0.680322	0.570559
O14	O	1.283498	-0.523939	0.570598
O15	O	1.582955	-0.680342	0.441521
O16	O	1.582780	-0.405455	0.740989
O17	O	1.453760	-0.523931	0.740935
C18	C	1.245385	-0.464703	0.506091
C19	C	1.128608	-0.464720	0.506105
C20	C	1.073778	-0.526516	0.439014
C21	C	0.964054	-0.526523	0.439034
C22	C	0.963999	-0.402934	0.573246
C23	C	1.073721	-0.402924	0.573219
C24	C	1.073809	-0.597873	0.361531
C25	C	0.964085	-0.597879	0.361552
C26	C	1.518416	-0.716310	0.506027
C27	C	1.518444	-0.823524	0.505989
C28	C	1.518465	-0.910594	0.505960
C29	C	1.518495	-1.019826	0.505912
C30	C	1.792385	-0.464731	0.506141
C31	C	1.909162	-0.464737	0.506152
C32	C	1.518285	-0.464710	0.779083
C33	C	1.518353	-0.464740	0.895859
C34	C	1.518348	-0.214102	0.506127
C35	C	1.518525	-0.106889	0.505869
C36	C	1.585607	-0.403120	0.950714
C37	C	1.585670	-0.403156	1.060438
C38	C	1.451215	-0.526432	1.060443
C39	C	1.451159	-0.526401	0.950721
C40	C	1.663230	-0.331945	0.950713
C41	C	1.663293	-0.331980	1.060437
C42	C	1.518444	-0.464757	1.232082
C43	C	1.518472	-0.464806	1.115305
H44	H	0.934337	-0.672555	0.383452
N45	N	1.116533	-0.686835	0.398214
N46	N	1.056774	-0.753465	0.425705
H47	H	1.086947	-0.816295	0.451616
N48	N	0.907932	-0.339802	0.641786
N49	N	0.846689	-0.278395	0.604745
H50	H	0.807093	-0.233805	0.653152
H51	H	1.396405	-0.576585	0.906059
N52	N	1.382592	-0.589412	1.116500
N53	N	1.382656	-0.589438	1.214465
H54	H	1.334189	-0.633918	1.254056
H55	H	1.634108	-0.260949	0.916760
N56	N	1.111147	-0.572936	0.259407
N57	N	1.047473	-0.555367	0.187478
H58	H	1.073841	-0.537757	0.115353
N59	N	0.921394	-0.564478	0.264537
N60	N	0.941984	-0.607830	0.181179
H61	H	0.911834	-0.584239	0.112664
N62	N	1.765277	-0.357106	0.913267
N63	N	1.837219	-0.374868	0.976865
H64	H	1.909288	-0.392638	0.950420
H65	H	1.641558	-0.257265	1.090293
N66	N	1.129713	-0.339781	0.641744
N67	N	1.080691	-0.284613	0.701658
H68	H	1.120235	-0.240015	0.750055
N69	N	1.760273	-0.365623	1.103013
N70	N	1.843702	-0.322459	1.082415
H71	H	1.912192	-0.346223	1.112483
