data_functionalizedCrystal
_audit_creation_method	'MofGen! by Chris Wilmer'
_symmetry_space_group_name_H-M	'P1'
_symmetry_Int_Tables_number	1
_symmetry_cell_setting	triclinic
loop_
_symmetry_equiv_pos_as_xyz
  x,y,z
_cell_length_a	18.215407
_cell_length_b	16.959454
_cell_length_c	18.215399
_cell_angle_alpha	89.973895
_cell_angle_beta	89.983176
_cell_angle_gamma	90.020523
loop_
_atom_site_label
_atom_site_type_symbol
_atom_site_fract_x
_atom_site_fract_y
_atom_site_fract_z
Zn1	Zn	1.125075	-0.314661	-0.416138
Zn2	Zn	1.625075	0.185339	0.083862
Zn3	Zn	1.125000	-0.446852	-0.293080
Zn4	Zn	1.625000	0.053148	0.206920
Zn5	Zn	1.002014	-0.314693	-0.293085
Zn6	Zn	1.502014	0.185307	0.206915
Zn7	Zn	1.001983	-0.446803	-0.416105
Zn8	Zn	1.501983	0.053197	0.083895
O9	O	1.063518	-0.380752	-0.354602
O10	O	1.563518	0.119248	0.145398
O11	O	1.228049	-0.332204	-0.399825
O12	O	1.728049	0.167796	0.100175
O13	O	1.108667	-0.429355	-0.190097
O14	O	1.608667	0.070645	0.309903
O15	O	1.018382	-0.204078	-0.309424
O16	O	1.518382	0.295922	0.190576
O17	O	1.227994	-0.429325	-0.309416
O18	O	1.727994	0.070675	0.190584
O19	O	1.108794	-0.204055	-0.399830
O20	O	1.608794	0.295945	0.100170
O21	O	1.018309	-0.332258	-0.190100
O22	O	1.518309	0.167742	0.309900
O23	O	0.899025	-0.332210	-0.309392
O24	O	1.399025	0.167790	0.190608
O25	O	1.018330	-0.429240	-0.519094
O26	O	1.518330	0.070760	-0.019094
O27	O	0.899003	-0.429271	-0.399775
O28	O	1.399003	0.070729	0.100225
O29	O	1.108765	-0.332156	-0.519118
O30	O	1.608765	0.167844	-0.019118
O31	O	1.108638	-0.557457	-0.309385
O32	O	1.608638	-0.057457	0.190615
O33	O	1.018258	-0.557420	-0.399770
O34	O	1.518258	-0.057420	0.100230
C35	C	0.872312	-0.380739	-0.354581
C36	C	1.372312	0.119261	0.145419
C37	C	0.790513	-0.380752	-0.354589
C38	C	1.290513	0.119248	0.145411
C39	C	0.602327	-0.431371	-0.401593
C40	C	1.102327	0.068629	0.098407
C41	C	0.525468	-0.431374	-0.401602
C42	C	1.025468	0.068626	0.098398
C43	C	0.525461	-0.330148	-0.307628
C44	C	1.025461	0.169852	0.192372
C45	C	0.602319	-0.330142	-0.307623
C46	C	1.102319	0.169858	0.192377
C47	C	0.640749	-0.380758	-0.354604
C48	C	1.140749	0.119242	0.145396
C49	C	0.487033	-0.380766	-0.354618
C50	C	0.987033	0.119234	0.145382
C51	C	0.403700	-0.380769	-0.354628
C52	C	0.903700	0.119231	0.145372
C53	C	0.724088	-0.380755	-0.354596
C54	C	1.224088	0.119245	0.145404
C55	C	1.063456	-0.586119	-0.354590
C56	C	1.563456	-0.086119	0.145410
C57	C	1.063497	-0.673975	-0.354609
C58	C	1.563497	-0.173975	0.145391
C59	C	1.016526	-1.045462	-0.401661
C60	C	1.516526	-0.545462	0.098339
C61	C	1.110715	-1.045440	-0.307618
C62	C	1.610715	-0.545440	0.192382
C63	C	1.110690	-0.962894	-0.307611
C64	C	1.610690	-0.462894	0.192389
C65	C	1.063580	-0.921628	-0.354629
C66	C	1.563580	-0.421628	0.145371
C67	C	1.016497	-0.962908	-0.401654
C68	C	1.516497	-0.462908	0.098346
C69	C	1.157767	-0.921608	-0.260582
C70	C	1.657767	-0.421608	0.239418
C71	C	1.157743	-0.839057	-0.260573
C72	C	1.657743	-0.339057	0.239427
C73	C	1.110637	-0.797789	-0.307595
C74	C	1.610637	-0.297789	0.192405
C75	C	1.063552	-0.839075	-0.354622
C76	C	1.563552	-0.339075	0.145378
C77	C	1.016442	-0.797809	-0.401640
C78	C	1.516442	-0.297809	0.098360
C79	C	0.969361	-0.839093	-0.448672
C80	C	1.469361	-0.339093	0.051328
C81	C	0.969391	-0.921641	-0.448676
C82	C	1.469391	-0.421641	0.051324
C83	C	1.110606	-0.715241	-0.307591
C84	C	1.610606	-0.215241	0.192409
C85	C	1.016414	-0.715255	-0.401634
C86	C	1.516414	-0.215255	0.098366
C87	C	1.255471	-0.380767	-0.354624
C88	C	1.755471	0.119233	0.145376
C89	C	1.337270	-0.380773	-0.354633
C90	C	1.837270	0.119227	0.145367
C91	C	1.063553	-0.380689	-0.546555
C92	C	1.563553	0.119311	-0.046555
C93	C	1.063568	-0.380662	-0.628354
C94	C	1.563568	0.119338	-0.128354
C95	C	1.063600	-0.174584	-0.354631
C96	C	1.563600	0.325416	0.145369
C97	C	1.063635	-0.086728	-0.354643
C98	C	1.563635	0.413272	0.145357
C99	C	1.016558	-0.330070	-0.816551
C100	C	1.516558	0.169930	-0.316551
C101	C	1.016571	-0.330054	-0.893409
C102	C	1.516571	0.169946	-0.393409
C103	C	1.110665	-0.431161	-0.893395
C104	C	1.610665	0.068839	-0.393395
C105	C	1.110648	-0.431180	-0.816538
C106	C	1.610648	0.068820	-0.316538
C107	C	1.063596	-0.380630	-0.778118
C108	C	1.563596	0.119370	-0.278118
C109	C	1.063625	-0.380595	-0.931834
C110	C	1.563625	0.119405	-0.431834
C111	C	1.063640	-0.380578	-1.015168
C112	C	1.563640	0.119422	-0.515168
C113	C	1.063580	-0.380648	-0.694779
C114	C	1.563580	0.119352	-0.194779
C115	C	1.063526	-0.380758	-0.163396
C116	C	1.563526	0.119242	0.336604
C117	C	1.063653	-0.380562	-0.081597
C118	C	1.563653	0.119438	0.418403
H119	H	0.494187	-0.472586	-0.439866
H120	H	0.994187	0.027414	0.060134
H121	H	1.148953	-0.472355	-0.785245
H122	H	1.648953	0.027645	-0.285245
C123	C	0.644598	-0.487039	-0.453276
C124	C	1.144598	0.012961	0.046724
H125	H	0.610704	-0.517176	-0.481267
H126	H	1.110704	-0.017176	0.018733
H127	H	0.674562	-0.521442	-0.425073
H128	H	1.174562	-0.021442	0.074927
H129	H	0.674598	-0.456834	-0.485389
H130	H	1.174598	0.043166	0.014611
H131	H	0.978245	-0.288909	-0.785271
H132	H	1.478245	0.211091	-0.285271
H133	H	0.978268	-0.288883	-0.924698
H134	H	1.478268	0.211117	-0.424698
H135	H	0.494162	-0.288939	-0.269376
H136	H	0.994162	0.211061	0.230624
C137	C	0.644587	-0.274466	-0.255932
C138	C	1.144587	0.225534	0.244068
H139	H	0.610692	-0.244330	-0.227945
H140	H	1.110692	0.255670	0.272055
H141	H	0.674588	-0.240062	-0.284136
H142	H	1.174588	0.259938	0.215864
H143	H	0.674548	-0.304665	-0.223816
H144	H	1.174548	0.195335	0.276184
C145	C	0.964594	-0.669869	-0.453356
C146	C	1.464594	-0.169869	0.046644
H147	H	0.936558	-0.706280	-0.481361
H148	H	1.436558	-0.206280	0.018639
H149	H	0.992713	-0.637623	-0.485442
H150	H	1.492713	-0.137623	0.014558
H151	H	0.932529	-0.637712	-0.425168
H152	H	1.432529	-0.137712	0.074832
C153	C	0.917544	-0.793699	-0.500392
C154	C	1.417544	-0.293699	-0.000392
H155	H	0.889506	-0.830104	-0.528401
H156	H	1.389506	-0.330104	-0.028401
H157	H	0.945668	-0.761451	-0.532474
H158	H	1.445668	-0.261451	-0.032474
H159	H	0.885482	-0.761542	-0.472201
H160	H	1.385482	-0.261542	0.027799
H161	H	0.931059	-0.955262	-0.486966
H162	H	1.431059	-0.455262	0.013034
H163	H	1.148974	-0.472316	-0.924687
H164	H	1.648974	0.027684	-0.424687
C165	C	0.964738	-1.090868	-0.453389
C166	C	1.464738	-0.590868	0.046611
H167	H	0.971496	-1.145942	-0.446660
H168	H	1.471496	-0.645942	0.053340
H169	H	0.975470	-1.077299	-0.502844
H170	H	1.475470	-0.577299	-0.002844
H171	H	0.915291	-1.077385	-0.442565
H172	H	1.415291	-0.577385	0.057435
H173	H	1.149065	-1.079043	-0.269334
H174	H	1.649065	-0.579043	0.230666
H175	H	1.196115	-0.955212	-0.222297
H176	H	1.696115	-0.455212	0.277703
H177	H	1.148936	-0.681632	-0.269295
H178	H	1.648936	-0.181632	0.230705
H179	H	1.196079	-0.805449	-0.222279
H180	H	1.696079	-0.305449	0.277721
