data_functionalizedCrystal
_audit_creation_method	'MofGen! by Chris Wilmer'
_symmetry_space_group_name_H-M	'P1'
_symmetry_Int_Tables_number	1
_symmetry_cell_setting	triclinic
loop_
_symmetry_equiv_pos_as_xyz
  x,y,z
_cell_length_a	14.908780
_cell_length_b	14.908520
_cell_length_c	14.908694
_cell_angle_alpha	83.255478
_cell_angle_beta	96.797826
_cell_angle_gamma	96.789949
loop_
_atom_site_label
_atom_site_type_symbol
_atom_site_fract_x
_atom_site_fract_y
_atom_site_fract_z
Zn1	Zn	-1.396257	0.313858	-0.608918
Zn2	Zn	-1.062924	0.647191	-0.275585
Zn3	Zn	-0.729590	0.980524	0.057749
Zn4	Zn	-1.379587	0.457411	-0.465375
Zn5	Zn	-1.046253	0.790745	-0.132042
Zn6	Zn	-0.712920	1.124078	0.201292
Zn7	Zn	-1.236152	0.313877	-0.448820
Zn8	Zn	-0.902819	0.647210	-0.115486
Zn9	Zn	-0.569485	0.980544	0.217847
Zn10	Zn	-1.236113	0.473894	-0.608841
Zn11	Zn	-0.902780	0.807228	-0.275508
Zn12	Zn	-0.569447	1.140561	0.057826
O13	O	-1.312027	0.389760	-0.532988
O14	O	-0.978694	0.723093	-0.199655
O15	O	-0.645361	1.056427	0.133678
O16	O	-1.521094	0.325994	-0.596837
O17	O	-1.187761	0.659327	-0.263504
O18	O	-0.854428	0.992661	0.069829
O19	O	-1.353599	0.431481	-0.336136
O20	O	-1.020266	0.764814	-0.002803
O21	O	-0.686933	1.098148	0.330530
O22	O	-1.264383	0.186829	-0.463161
O23	O	-0.931050	0.520163	-0.129828
O24	O	-0.597716	0.853496	0.203506
O25	O	-1.508847	0.431462	-0.491377
O26	O	-1.175513	0.764795	-0.158044
O27	O	-0.842180	1.098129	0.175290
O28	O	-1.382011	0.186815	-0.580784
O29	O	-1.048678	0.520148	-0.247451
O30	O	-0.715345	0.853482	0.085882
O31	O	-1.248219	0.326027	-0.323973
O32	O	-0.914885	0.659361	0.009360
O33	O	-0.581552	0.992694	0.342693
O34	O	-1.109098	0.342010	-0.463086
O35	O	-0.775765	0.675343	-0.129753
O36	O	-0.442431	1.008677	0.203580
O37	O	-1.264317	0.459555	-0.735894
O38	O	-0.930984	0.792888	-0.402561
O39	O	-0.597650	1.126222	-0.069227
O40	O	-1.109070	0.459574	-0.580653
O41	O	-0.775736	0.792907	-0.247320
O42	O	-0.442403	1.126241	0.086013
O43	O	-1.381974	0.341977	-0.735950
O44	O	-1.048641	0.675310	-0.402617
O45	O	-0.715307	1.008644	-0.069284
O46	O	-1.353562	0.586643	-0.491302
O47	O	-1.020229	0.919976	-0.157969
O48	O	-0.686895	1.253310	0.175364
O49	O	-1.248153	0.598753	-0.596706
O50	O	-0.914819	0.932086	-0.263373
O51	O	-0.581486	1.265420	0.069960
C52	C	-1.076142	0.402583	-0.520066
C53	C	-0.742808	0.735917	-0.186732
C54	C	-0.409475	1.069250	0.146601
C55	C	-0.975229	0.408092	-0.514560
C56	C	-0.641895	0.741426	-0.181226
C57	C	-0.308562	1.074759	0.152107
C58	C	-0.798355	0.308789	-0.614216
C59	C	-0.465022	0.642122	-0.280882
C60	C	-0.131688	0.975456	0.052451
C61	C	-0.703539	0.313962	-0.609045
C62	C	-0.370205	0.647295	-0.275712
C63	C	-0.036872	0.980629	0.057621
C64	C	-0.690778	0.423606	-0.499044
C65	C	-0.357445	0.756940	-0.165711
C66	C	-0.024111	1.090273	0.167622
C67	C	-0.785594	0.418433	-0.504215
C68	C	-0.452261	0.751767	-0.170881
C69	C	-0.118928	1.085100	0.162452
C70	C	-0.839380	0.361024	-0.561803
C71	C	-0.506046	0.694357	-0.228470
C72	C	-0.172713	1.027690	0.104863
C73	C	-0.934198	0.355856	-0.566978
C74	C	-0.600864	0.689189	-0.233645
C75	C	-0.267531	1.022523	0.099689
C76	C	-0.921435	0.465495	-0.456973
C77	C	-0.588102	0.798828	-0.123639
C78	C	-0.254769	1.132162	0.209694
C79	C	-0.826619	0.470668	-0.451802
C80	C	-0.493286	0.804001	-0.118469
C81	C	-0.159952	1.137335	0.214864
C82	C	-1.299070	0.625639	-0.545814
C83	C	-0.965736	0.958973	-0.212480
C84	C	-0.632403	1.292306	0.120853
C85	C	-1.293611	0.726546	-0.551335
C86	C	-0.960278	1.059880	-0.218002
C87	C	-0.626945	1.393213	0.115331
C88	C	-1.325001	0.402602	-0.769784
C89	C	-0.991667	0.735936	-0.436451
C90	C	-0.658334	1.069269	-0.103117
C91	C	-1.330529	0.408075	-0.870692
C92	C	-0.997196	0.741408	-0.537359
C93	C	-0.663862	1.074742	-0.204025
C94	C	-0.548834	0.376879	-0.545955
C95	C	-0.215501	0.710213	-0.212622
C96	C	0.117833	1.043546	0.120711
C97	C	-0.649747	0.371370	-0.551463
C98	C	-0.316414	0.704703	-0.218129
C99	C	0.016920	1.038037	0.115204
C100	C	-1.325061	0.152960	-0.520134
C101	C	-0.991728	0.486293	-0.186801
C102	C	-0.658394	0.819626	0.146532
C103	C	-1.330615	0.052049	-0.514657
C104	C	-0.997282	0.385383	-0.181323
C105	C	-0.663949	0.718716	0.152010
C106	C	-1.393241	0.903489	-0.452054
C107	C	-1.059908	1.236823	-0.118721
C108	C	-0.726575	1.570156	0.214613
C109	C	-1.388116	0.998300	-0.457239
C110	C	-1.054782	1.331634	-0.123906
C111	C	-0.721449	1.664967	0.209427
C112	C	-1.278239	1.010981	-0.566895
C113	C	-0.944906	1.344314	-0.233562
C114	C	-0.611572	1.677648	0.099772
C115	C	-1.283365	0.916170	-0.561710
C116	C	-0.950032	1.249503	-0.228377
C117	C	-0.616698	1.582837	0.104957
C118	C	-1.340867	0.862427	-0.504286
C119	C	-1.007534	1.195761	-0.170953
C120	C	-0.674200	1.529094	0.162380
C121	C	-1.345987	0.767615	-0.499097
C122	C	-1.012654	1.100948	-0.165764
C123	C	-0.679321	1.434281	0.167570
C124	C	-1.236116	0.780297	-0.608757
C125	C	-0.902783	1.113630	-0.275424
C126	C	-0.569450	1.446964	0.057910
C127	C	-1.230991	0.875108	-0.613942
C128	C	-0.897657	1.208441	-0.280609
C129	C	-0.564324	1.541775	0.052724
C130	C	-1.231163	0.308553	-1.047644
C131	C	-0.897830	0.641886	-0.714311
C132	C	-0.564497	0.975220	-0.380977
C133	C	-1.236355	0.313692	-1.142456
C134	C	-0.903022	0.647026	-0.809123
C135	C	-0.569688	0.980359	-0.475789
C136	C	-1.346098	0.423497	-1.155129
C137	C	-1.012765	0.756830	-0.821796
C138	C	-0.679432	1.090164	-0.488463
C139	C	-1.340907	0.418358	-1.060317
C140	C	-1.007573	0.751691	-0.726984
C141	C	-0.674240	1.085024	-0.393651
C142	C	-1.283438	0.360883	-1.006578
C143	C	-0.950105	0.694216	-0.673245
C144	C	-0.616772	1.027550	-0.339911
C145	C	-1.278252	0.355739	-0.911764
C146	C	-0.944919	0.689073	-0.578431
C147	C	-0.611586	1.022406	-0.245098
C148	C	-1.387990	0.465548	-0.924439
C149	C	-1.054657	0.798882	-0.591106
C150	C	-0.721324	1.132215	-0.257773
C151	C	-1.393182	0.470688	-1.019251
C152	C	-1.059849	0.804021	-0.685918
C153	C	-0.726515	1.137354	-0.352584
C154	C	-1.299160	0.376899	-0.297113
C155	C	-0.965827	0.710233	0.036220
C156	C	-0.632493	1.043566	0.369553
C157	C	-1.293821	0.371161	-0.196202
C158	C	-0.960488	0.704495	0.137132
C159	C	-0.627155	1.037828	0.470465
H160	H	-0.782814	0.517406	-0.404913
H161	H	-0.449481	0.850740	-0.071579
H162	H	-0.116148	1.184073	0.261754
Br163	Br	-0.977116	0.536399	-0.385847
Br164	Br	-0.643783	0.869733	-0.052514
Br165	Br	-0.310449	1.203066	0.280820
Br166	Br	-0.617769	0.501498	-0.420880
Br167	Br	-0.284435	0.834831	-0.087547
Br168	Br	0.048898	1.168165	0.245786
H169	H	-0.977989	0.309111	-0.613871
H170	H	-0.644656	0.642444	-0.280537
H171	H	-0.311322	0.975777	0.052796
Br172	Br	-1.459203	1.054025	-0.386354
Br173	Br	-1.125869	1.387359	-0.053021
Br174	Br	-0.792536	1.720692	0.280312
Br175	Br	-1.165401	0.242676	-1.198187
Br176	Br	-0.832068	0.576010	-0.864853
Br177	Br	-0.498735	0.909343	-0.531520
H178	H	-1.184177	0.918878	-0.660697
H179	H	-0.850843	1.252212	-0.327364
H180	H	-0.517510	1.585545	0.005969
Br181	Br	-0.871354	0.230891	-0.692381
Br182	Br	-0.538020	0.564224	-0.359047
Br183	Br	-0.204687	0.897557	-0.025714
Br184	Br	-0.647864	0.243064	-0.680175
Br185	Br	-0.314531	0.576398	-0.346841
Br186	Br	0.018802	0.909731	-0.013508
Br187	Br	-1.471165	0.548691	-1.092191
Br188	Br	-1.137831	0.882024	-0.758857
Br189	Br	-0.804498	1.215358	-0.425524
H190	H	-1.430560	0.508156	-0.890994
H191	H	-1.097227	0.841489	-0.557660
H192	H	-0.763893	1.174823	-0.224327
H193	H	-1.392806	0.723858	-0.452337
H194	H	-1.059473	1.057191	-0.119004
H195	H	-0.726139	1.390524	0.214329
Br196	Br	-1.200223	1.083932	-0.644837
Br197	Br	-0.866890	1.417266	-0.311503
Br198	Br	-0.533556	1.750599	0.021830
Br199	Br	-1.471259	0.830548	-0.374107
Br200	Br	-1.137925	1.163882	-0.040773
Br201	Br	-0.804592	1.497215	0.292560
Br202	Br	-1.424067	0.501509	-1.228076
Br203	Br	-1.090734	0.834843	-0.894742
Br204	Br	-0.757401	1.168176	-0.561409
Br205	Br	-1.165016	0.724566	-0.679632
Br206	Br	-0.831682	1.057899	-0.346299
Br207	Br	-0.498349	1.391233	-0.012965
Br208	Br	-1.153187	0.230541	-0.974708
Br209	Br	-0.819853	0.563875	-0.641375
Br210	Br	-0.486520	0.897208	-0.308041
Br211	Br	-1.200265	0.277735	-0.838833
Br212	Br	-0.866932	0.611068	-0.505499
Br213	Br	-0.533599	0.944401	-0.172166
