data_functionalizedCrystal
_audit_creation_method	'MofGen! by Chris Wilmer'
_symmetry_space_group_name_H-M	'P1'
_symmetry_Int_Tables_number	1
_symmetry_cell_setting	triclinic
loop_
_symmetry_equiv_pos_as_xyz
  x,y,z
_cell_length_a	18.215407
_cell_length_b	16.959454
_cell_length_c	18.215399
_cell_angle_alpha	90.023696
_cell_angle_beta	90.019833
_cell_angle_gamma	90.020523
loop_
_atom_site_label
_atom_site_type_symbol
_atom_site_fract_x
_atom_site_fract_y
_atom_site_fract_z
Zn1	Zn	1.125097	-0.314680	0.416138
Zn2	Zn	1.625097	0.185320	0.916138
Zn3	Zn	1.125015	-0.446866	0.293080
Zn4	Zn	1.625015	0.053134	0.793080
Zn5	Zn	1.002029	-0.314706	0.293085
Zn6	Zn	1.502029	0.185294	0.793085
Zn7	Zn	1.002005	-0.446822	0.416105
Zn8	Zn	1.502005	0.053178	0.916105
O9	O	1.063537	-0.380768	0.354602
O10	O	1.563537	0.119232	0.854602
O11	O	1.228070	-0.332222	0.399825
O12	O	1.728070	0.167778	0.899825
O13	O	1.108677	-0.429364	0.190097
O14	O	1.608677	0.070636	0.690097
O15	O	1.018398	-0.204092	0.309424
O16	O	1.518398	0.295908	0.809424
O17	O	1.228010	-0.429339	0.309416
O18	O	1.728010	0.070661	0.809416
O19	O	1.108815	-0.204073	0.399830
O20	O	1.608815	0.295927	0.899830
O21	O	1.018319	-0.332267	0.190100
O22	O	1.518319	0.167733	0.690100
O23	O	0.899042	-0.332224	0.309392
O24	O	1.399042	0.167776	0.809392
O25	O	1.018358	-0.429264	0.519094
O26	O	1.518358	0.070736	1.019094
O27	O	0.899024	-0.429289	0.399775
O28	O	1.399024	0.070711	0.899775
O29	O	1.108792	-0.332180	0.519118
O30	O	1.608792	0.167820	1.019118
O31	O	1.108654	-0.557471	0.309385
O32	O	1.608654	-0.057471	0.809385
O33	O	1.018279	-0.557438	0.399770
O34	O	1.518279	-0.057438	0.899770
C35	C	0.872330	-0.380755	0.354581
C36	C	1.372330	0.119245	0.854581
C37	C	0.790531	-0.380768	0.354589
C38	C	1.290531	0.119232	0.854589
C39	C	0.602348	-0.431389	0.401593
C40	C	1.102348	0.068611	0.901593
C41	C	0.525489	-0.431392	0.401602
C42	C	1.025489	0.068608	0.901602
C43	C	0.525478	-0.330162	0.307628
C44	C	1.025478	0.169838	0.807628
C45	C	0.602335	-0.330156	0.307623
C46	C	1.102335	0.169844	0.807623
C47	C	0.640768	-0.380774	0.354604
C48	C	1.140768	0.119226	0.854604
C49	C	0.487052	-0.380782	0.354618
C50	C	0.987052	0.119218	0.854618
C51	C	0.403718	-0.380785	0.354628
C52	C	0.903718	0.119215	0.854628
C53	C	0.724107	-0.380771	0.354596
C54	C	1.224107	0.119229	0.854596
C55	C	1.063475	-0.586135	0.354590
C56	C	1.563475	-0.086135	0.854590
C57	C	1.063516	-0.673991	0.354609
C58	C	1.563516	-0.173991	0.854609
C59	C	1.016547	-1.045480	0.401661
C60	C	1.516547	-0.545480	0.901661
C61	C	1.110731	-1.045454	0.307618
C62	C	1.610731	-0.545454	0.807618
C63	C	1.110706	-0.962908	0.307611
C64	C	1.610706	-0.462908	0.807611
C65	C	1.063599	-0.921644	0.354629
C66	C	1.563599	-0.421644	0.854629
C67	C	1.016518	-0.962926	0.401654
C68	C	1.516518	-0.462926	0.901654
C69	C	1.157781	-0.921619	0.260582
C70	C	1.657781	-0.421619	0.760582
C71	C	1.157756	-0.839068	0.260573
C72	C	1.657756	-0.339068	0.760573
C73	C	1.110653	-0.797803	0.307595
C74	C	1.610653	-0.297803	0.807595
C75	C	1.063570	-0.839091	0.354622
C76	C	1.563570	-0.339091	0.854622
C77	C	1.016464	-0.797827	0.401640
C78	C	1.516464	-0.297827	0.901640
C79	C	0.969384	-0.839113	0.448672
C80	C	1.469384	-0.339113	0.948672
C81	C	0.969414	-0.921661	0.448676
C82	C	1.469414	-0.421661	0.948676
C83	C	1.110623	-0.715255	0.307591
C84	C	1.610623	-0.215255	0.807591
C85	C	1.016435	-0.715273	0.401634
C86	C	1.516435	-0.215273	0.901634
C87	C	1.255489	-0.380783	0.354624
C88	C	1.755489	0.119217	0.854624
C89	C	1.337288	-0.380789	0.354633
C90	C	1.837288	0.119211	0.854633
C91	C	1.063581	-0.380714	0.546555
C92	C	1.563581	0.119286	1.046555
C93	C	1.063601	-0.380691	0.628354
C94	C	1.563601	0.119309	1.128354
C95	C	1.063619	-0.174600	0.354631
C96	C	1.563619	0.325400	0.854631
C97	C	1.063653	-0.086744	0.354643
C98	C	1.563653	0.413256	0.854643
C99	C	1.063534	-0.380766	0.163396
C100	C	1.563534	0.119234	0.663396
C101	C	1.063658	-0.380566	0.081597
C102	C	1.563658	0.119434	0.581597
C103	C	1.110707	-0.330092	0.816562
C104	C	1.610707	0.169908	1.316562
C105	C	1.110716	-0.330069	0.893420
C106	C	1.610716	0.169931	1.393420
C107	C	1.016546	-0.431167	0.893384
C108	C	1.516546	0.068833	1.393384
C109	C	1.016534	-0.431186	0.816527
C110	C	1.516534	0.068814	1.316527
C111	C	1.063619	-0.380649	0.778118
C112	C	1.563619	0.119351	1.278118
C113	C	1.063639	-0.380608	0.931834
C114	C	1.563639	0.119392	1.431834
C115	C	1.063649	-0.380583	1.015168
C116	C	1.563649	0.119417	1.515168
C117	C	1.063609	-0.380672	0.694779
C118	C	1.563609	0.119328	1.194779
H119	H	0.978077	-0.681682	0.439924
H120	H	1.478077	-0.181682	0.939924
O121	O	0.923761	-0.961732	0.494460
O122	O	1.423761	-0.461732	0.994460
C123	C	0.939781	-0.941501	0.567823
C124	C	1.439781	-0.441501	1.067823
H125	H	0.998562	-0.918759	0.571595
H126	H	1.498562	-0.418759	1.071595
H127	H	0.933440	-0.995779	0.604174
H128	H	1.433440	-0.495779	1.104174
H129	H	0.900295	-0.893609	0.587023
H130	H	1.400295	-0.393609	1.087023
O131	O	0.488107	-0.281110	0.261913
O132	O	0.988107	0.218890	0.761913
C133	C	0.443604	-0.326050	0.214325
C134	C	0.943604	0.173950	0.714325
H135	H	0.466748	-0.388295	0.209678
H136	H	0.966748	0.111705	0.709678
H137	H	0.442713	-0.297383	0.157735
H138	H	0.942713	0.202617	0.657735
H139	H	0.385365	-0.328810	0.237081
H140	H	0.885365	0.171190	0.737081
O141	O	0.488249	-0.480522	0.447347
O142	O	0.988249	0.019478	0.947347
C143	C	0.507054	-0.463335	0.520721
C144	C	1.007054	0.036665	1.020721
H145	H	0.562867	-0.432948	0.522288
H146	H	1.062867	0.067052	1.022288
H147	H	0.509683	-0.520427	0.553629
H148	H	1.009683	-0.020427	1.053629
H149	H	0.463821	-0.422734	0.545577
H150	H	0.963821	0.077266	1.045577
H151	H	0.633617	-0.288934	0.269359
H152	H	1.133617	0.211066	0.769359
H153	H	0.633638	-0.472604	0.439850
H154	H	1.133638	0.027396	0.939850
H155	H	0.931026	-0.805506	0.486951
H156	H	1.431026	-0.305506	0.986951
H157	H	1.149058	-0.288899	0.924718
H158	H	1.649058	0.211101	1.424718
H159	H	0.978218	-1.079098	0.439955
H160	H	1.478218	-0.579098	0.939955
O161	O	1.156437	-1.085656	0.261989
O162	O	1.656437	-0.585656	0.761989
C163	C	1.146335	-1.167368	0.272048
C164	C	1.646335	-0.667368	0.772048
H165	H	1.122239	-1.178641	0.328834
H166	H	1.622239	-0.678641	0.828834
H167	H	1.201460	-1.198720	0.267064
H168	H	1.701460	-0.698720	0.767064
H169	H	1.107141	-1.190820	0.228381
H170	H	1.607141	-0.690820	0.728381
O171	O	0.970884	-0.480234	0.930811
O172	O	1.470884	0.019766	1.430811
C173	C	0.980978	-0.469365	1.006891
C174	C	1.480978	0.030635	1.506891
H175	H	1.037784	-0.443478	1.017404
H176	H	1.537784	0.056522	1.517404
H177	H	0.975969	-0.528565	1.036089
H178	H	1.475969	-0.028565	1.536089
H179	H	0.937345	-0.427265	1.028702
H180	H	1.437345	0.072735	1.528702
O181	O	0.970768	-0.480376	0.779291
O182	O	1.470768	0.019624	1.279291
C183	C	0.929205	-0.524968	0.829672
C184	C	1.429205	-0.024968	1.329672
H185	H	0.959354	-0.527696	0.884465
H186	H	1.459354	-0.027696	1.384465
H187	H	0.921329	-0.587250	0.807449
H188	H	1.421329	-0.087250	1.307449
H189	H	0.873324	-0.496019	0.837839
H190	H	1.373324	0.003981	1.337839
O191	O	1.203608	-0.961650	0.214945
O192	O	1.703608	-0.461650	0.714945
C193	C	1.276962	-0.941478	0.231065
C194	C	1.776962	-0.441478	0.731065
H195	H	1.278506	-0.881512	0.259323
H196	H	1.778506	-0.381512	0.759323
H197	H	1.309970	-0.938713	0.177966
H198	H	1.809970	-0.438713	0.677966
H199	H	1.301728	-0.987898	0.268939
H200	H	1.801728	-0.487898	0.768939
O201	O	1.203386	-0.798933	0.214814
O202	O	1.703386	-0.298933	0.714814
C203	C	1.161504	-0.751222	0.167251
C204	C	1.661504	-0.251222	0.667251
H205	H	1.103551	-0.776142	0.162651
H206	H	1.603551	-0.276142	0.662651
H207	H	1.188155	-0.750296	0.110641
H208	H	1.688155	-0.250296	0.610641
H209	H	1.158938	-0.688650	0.189999
H210	H	1.658938	-0.188650	0.689999
O211	O	1.156242	-0.675114	0.261832
O212	O	1.656242	-0.175114	0.761832
C213	C	1.114351	-0.627405	0.214275
C214	C	1.614351	-0.127405	0.714275
H215	H	1.056400	-0.652329	0.209681
H216	H	1.556400	-0.152329	0.709681
H217	H	1.140996	-0.626475	0.157661
H218	H	1.640996	-0.126475	0.657661
H219	H	1.111783	-0.564833	0.237025
H220	H	1.611783	-0.064833	0.737025
H221	H	1.149044	-0.288940	0.785291
H222	H	1.649044	0.211060	1.285291
