data_functionalizedCrystal
_audit_creation_method	'MofGen! by Chris Wilmer'
_symmetry_space_group_name_H-M	'P1'
_symmetry_Int_Tables_number	1
_symmetry_cell_setting	triclinic
loop_
_symmetry_equiv_pos_as_xyz
  x,y,z
_cell_length_a	12.645330
_cell_length_b	12.759401
_cell_length_c	12.759393
_cell_angle_alpha	89.979062
_cell_angle_beta	90.028974
_cell_angle_gamma	89.980783
loop_
_atom_site_label
_atom_site_type_symbol
_atom_site_fract_x
_atom_site_fract_y
_atom_site_fract_z
Zn1	Zn	-0.421945	-1.606245	0.594031
Zn2	Zn	0.078055	-1.106245	1.094031
Zn3	Zn	-0.599246	-1.606126	0.418356
Zn4	Zn	-0.099246	-1.106126	0.918356
Zn5	Zn	-0.422001	-1.430543	0.418366
Zn6	Zn	0.077999	-0.930543	0.918366
Zn7	Zn	-0.599172	-1.430526	0.593993
Zn8	Zn	-0.099172	-0.930526	1.093993
O9	O	-0.510591	-1.518360	0.506187
O10	O	-0.010591	-1.018360	1.006187
O11	O	-0.445472	-1.753250	0.570739
O12	O	0.054528	-1.253250	1.070739
O13	O	-0.575788	-1.582793	0.271336
O14	O	-0.075788	-1.082793	0.771336
O15	O	-0.273647	-1.453907	0.441689
O16	O	0.226353	-0.953907	0.941689
O17	O	-0.575734	-1.753163	0.441671
O18	O	-0.075734	-1.253163	0.941671
O19	O	-0.273605	-1.582994	0.570749
O20	O	0.226395	-1.082994	1.070749
O21	O	-0.445568	-1.453793	0.271344
O22	O	0.054432	-0.953793	0.771344
O23	O	-0.445496	-1.283520	0.441652
O24	O	0.054504	-0.783520	0.941652
O25	O	-0.575607	-1.453878	0.741019
O26	O	-0.075607	-0.953878	1.241019
O27	O	-0.575662	-1.283507	0.570684
O28	O	-0.075662	-0.783507	1.070684
O29	O	-0.445400	-1.582977	0.741047
O30	O	0.054600	-1.082977	1.241047
O31	O	-0.747583	-1.582776	0.441634
O32	O	-0.247583	-1.082776	0.941634
O33	O	-0.747529	-1.453763	0.570674
O34	O	-0.247529	-0.953763	1.070674
C35	C	-0.510578	-1.245393	0.506166
C36	C	-0.010578	-0.745393	1.006166
C37	C	-0.510598	-1.128616	0.506182
C38	C	-0.010598	-0.628616	1.006182
C39	C	-0.786021	-1.518283	0.506172
C40	C	-0.286021	-1.018283	1.006172
C41	C	-0.903851	-1.518347	0.506201
C42	C	-0.403851	-1.018347	1.006201
C43	C	-1.071424	-1.437519	0.587630
C44	C	-0.571424	-0.937519	1.087630
C45	C	-0.948865	-1.437106	0.587368
C46	C	-0.448865	-0.937106	1.087368
C47	C	-0.948453	-1.488371	0.395479
C48	C	-0.448453	-0.988371	0.895479
C49	C	-1.071052	-1.487878	0.395973
C50	C	-0.571052	-0.987878	0.895973
C51	C	-1.070935	-1.629644	0.534596
C52	C	-0.570935	-1.129644	1.034596
C53	C	-0.948328	-1.628962	0.537017
C54	C	-0.448328	-1.128962	1.037017
C55	C	-0.510489	-1.518439	0.780220
C56	C	-0.010489	-1.018439	1.280220
C57	C	-0.510446	-1.518472	0.896997
C58	C	-0.010446	-1.018472	1.396997
C59	C	-0.234086	-1.518466	0.506224
C60	C	0.265914	-1.018466	1.006224
C61	C	-0.116255	-1.518511	0.506241
C62	C	0.383745	-1.018511	1.006241
C63	C	-0.510605	-1.792393	0.506208
C64	C	-0.010605	-1.292393	1.006208
C65	C	-0.510610	-1.909170	0.506217
C66	C	-0.010610	-1.409170	1.006217
C67	C	-0.578479	-1.073775	0.573263
C68	C	-0.078479	-0.573775	1.073263
C69	C	-0.578483	-0.964051	0.573284
C70	C	-0.078483	-0.464051	1.073284
C71	C	-0.442722	-0.964019	0.439133
C72	C	0.057278	-0.464019	0.939133
C73	C	-0.442714	-1.073741	0.439118
C74	C	0.057286	-0.573741	0.939118
C75	C	-0.510616	-1.518342	0.233219
C76	C	-0.010616	-1.018342	0.733219
C77	C	-0.510360	-1.518512	0.116443
C78	C	-0.010360	-1.018512	0.616443
C79	C	-0.442636	-1.585699	0.951875
C80	C	0.057364	-1.085699	1.451875
C81	C	-0.442590	-1.585717	1.061599
C82	C	0.057410	-1.085717	1.561599
C83	C	-0.578173	-1.451278	1.061557
C84	C	-0.078173	-0.951278	1.561557
C85	C	-0.578213	-1.451255	0.951835
C86	C	-0.078213	-0.951255	1.451835
H87	H	-0.918705	-1.455861	0.669468
H88	H	-0.418705	-0.955861	1.169468
F89	F	-1.109861	-1.461803	0.695295
F90	F	-0.609861	-0.961803	1.195295
F91	F	-1.109823	-1.561627	0.314002
F92	F	-0.609823	-1.061627	0.814002
H93	H	-0.633349	-1.396554	1.106220
H94	H	-0.133349	-0.896554	1.606220
H95	H	-1.102329	-1.355645	0.569085
H96	H	-0.602329	-0.855645	1.069085
H97	H	-0.387455	-0.919326	0.384531
H98	H	0.112545	-0.419326	0.884531
H99	H	-0.387452	-1.640429	0.907229
H100	H	0.112548	-1.140429	1.407229
H101	H	-0.387371	-1.640459	1.106276
H102	H	0.112629	-1.140459	1.606276
H103	H	-0.633756	-0.919404	0.627910
H104	H	-0.133756	-0.419404	1.127910
H105	H	-0.387431	-1.118394	0.384493
H106	H	0.112569	-0.618394	0.884493
H107	H	-0.633431	-1.396503	0.907152
H108	H	-0.133431	-0.896503	1.407152
F109	F	-0.650724	-1.132174	0.644641
F110	F	-0.150724	-0.632174	1.144641
H111	H	-0.919634	-1.354717	0.568583
H112	H	-0.419634	-0.854717	1.068583
H113	H	-1.099747	-1.406639	0.371952
H114	H	-0.599747	-0.906639	0.871952
F115	F	-0.908454	-1.383290	0.363513
F116	F	-0.408454	-0.883290	0.863513
F117	F	-0.910348	-1.563029	0.314047
F118	F	-0.410348	-1.063029	0.814047
H119	H	-0.919171	-1.651567	0.618502
H120	H	-0.419171	-1.151567	1.118502
F121	F	-1.111240	-1.665385	0.638333
F122	F	-0.611240	-1.165385	1.138333
H123	H	-0.917680	-1.692482	0.482054
H124	H	-0.417680	-1.192482	0.982054
H125	H	-1.099926	-1.689984	0.475316
H126	H	-0.599926	-1.189984	0.975316
