data_functionalizedCrystal
_audit_creation_method	'MofGen! by Chris Wilmer'
_symmetry_space_group_name_H-M	'P1'
_symmetry_Int_Tables_number	1
_symmetry_cell_setting	triclinic
loop_
_symmetry_equiv_pos_as_xyz
  x,y,z
_cell_length_a	27.440280
_cell_length_b	14.560438
_cell_length_c	14.560438
_cell_angle_alpha	60.000069
_cell_angle_beta	90.003396
_cell_angle_gamma	59.998116
loop_
_atom_site_label
_atom_site_type_symbol
_atom_site_fract_x
_atom_site_fract_y
_atom_site_fract_z
Zr1	Zr	0.469502	1.005173	-0.120396
O2	O	0.391683	1.196794	-0.267060
O3	O	0.493358	0.813566	-0.075439
O4	O	0.493358	1.005171	-0.267039
O5	O	0.391684	1.005187	0.075682
O6	O	0.573561	1.005153	-0.267021
O7	O	0.391683	1.005190	-0.075459
O8	O	0.573561	0.662408	0.075718
O9	O	0.391684	1.347932	-0.267057
O10	O	0.563387	0.892359	-0.056248
O11	O	0.503532	0.892370	0.056533
O12	O	0.503532	1.117959	-0.169052
O13	O	0.443678	1.117970	-0.056272
Zr14	Zr	0.597417	1.005141	0.120686
Zr15	Zr	0.597417	1.005145	-0.120366
Zr16	Zr	0.469503	1.005169	0.120656
Zr17	Zr	0.469503	1.246221	-0.120392
Zr18	Zr	0.597416	0.764093	0.120682
O19	O	0.573561	1.196747	0.075728
O20	O	0.573561	1.196754	-0.267017
O21	O	0.391684	1.196788	0.075685
O22	O	0.675236	0.813520	0.267350
O23	O	0.675235	0.813526	-0.075396
O24	O	0.493358	0.813560	0.267307
O25	O	0.675236	1.005127	-0.075392
O26	O	0.573561	1.005143	0.267329
O27	O	0.493358	1.005161	0.267310
O28	O	0.675236	1.005124	0.075749
O29	O	0.493358	1.347909	-0.267033
O30	O	0.573561	0.662405	0.267323
O31	O	0.675236	0.662382	0.267347
O32	O	0.675235	0.662386	0.075742
O33	O	0.391684	1.347928	-0.075453
O34	O	0.493358	1.347906	-0.075429
O35	O	0.563387	0.892355	0.169342
O36	O	0.623241	0.892344	0.056561
O37	O	0.563387	1.117944	-0.056243
O38	O	0.503532	1.117955	0.056537
C39	C	0.533459	0.703643	0.000139
C40	C	0.533459	0.601312	0.000137
C41	C	0.564701	0.553230	-0.058733
C42	C	0.564704	0.457071	-0.058723
C43	C	0.502217	0.457088	0.059030
C44	C	0.502218	0.553239	0.059026
C45	C	0.373458	1.005192	0.000107
C46	C	0.319155	1.005204	0.000094
C47	C	0.013701	0.887374	0.059059
C48	C	-0.037317	0.887367	0.059069
O49	O	-0.037134	0.787216	0.109181
N50	N	-0.094077	1.005127	0.000185
C51	C	-0.099818	1.122902	-0.058704
O52	O	-0.152782	1.223065	-0.108787
C53	C	-0.048800	1.122907	-0.058706
C54	C	0.007959	1.005140	0.000172
C55	C	0.070458	0.769617	0.117933
C56	C	0.121473	0.769624	0.117921
C57	C	0.115731	0.887390	0.059035
C58	C	0.058974	1.005148	0.000160
C59	C	-0.054542	1.240681	-0.117588
C60	C	-0.003518	1.240676	-0.117585
C61	C	0.053242	1.122909	-0.058706
C62	C	0.104247	1.122921	-0.058738
N63	N	0.161007	1.005161	0.000145
C64	C	0.166749	0.887396	0.059032
C65	C	-0.206957	1.122880	-0.058692
C66	C	-0.257974	1.122876	-0.058697
C67	C	-0.195470	0.887341	0.059078
C68	C	-0.144452	0.887347	0.059075
C69	C	-0.150197	1.005121	0.000192
C70	C	0.273881	0.887421	0.059002
C71	C	0.324898	0.887439	0.058981
C72	C	0.262389	1.122973	-0.058788
C73	C	0.211376	1.122955	-0.058773
C74	C	0.217127	1.005169	0.000131
O75	O	0.104109	1.223021	-0.108821
O76	O	0.219714	0.787249	0.109119
C77	C	0.693461	1.005122	0.000183
C78	C	0.747764	1.005110	0.000195
C79	C	0.533459	1.005162	-0.301375
C80	C	0.533459	1.005164	-0.403708
C81	C	0.533460	1.306671	0.000150
C82	C	0.533460	1.409002	0.000152
C83	C	0.577643	1.005155	-0.451773
C84	C	0.577645	1.005144	-0.547919
C85	C	0.489273	1.005155	-0.547928
C86	C	0.489274	1.005157	-0.451780
C87	C	0.533460	1.005152	0.301664
C88	C	0.533460	1.005150	0.403997
C89	C	0.693460	0.703608	0.000177
C90	C	0.747763	0.601265	0.000188
C91	C	0.533459	0.703638	0.301659
C92	C	0.533459	0.601305	0.403990
C93	C	0.693461	0.703602	0.301697
C94	C	0.747763	0.601258	0.404040
C95	C	0.373458	1.306711	-0.301407
C96	C	0.319156	1.409056	-0.403751
C97	C	0.373459	1.306706	0.000113
C98	C	0.319156	1.409049	0.000102
C99	C	0.533460	1.306676	-0.301369
C100	C	0.533460	1.409009	-0.403700
C101	C	0.742021	0.553211	-0.058702
C102	C	0.793039	0.457063	-0.058714
C103	C	0.849799	0.408962	0.000171
C104	C	0.855540	0.457025	0.059062
C105	C	0.804523	0.553179	0.059067
C106	C	0.804513	0.553190	0.393232
C107	C	0.855542	0.457039	0.489386
C108	C	0.849819	0.408952	0.596347
C109	C	0.793063	0.457030	0.607153
C110	C	0.742036	0.553185	0.511001
C111	C	0.262406	1.457136	-0.392942
C112	C	0.211377	1.553316	-0.489096
C113	C	0.217100	1.601409	-0.596057
C114	C	0.273856	1.553325	-0.606864
C115	C	0.324883	1.457153	-0.510711
C116	C	0.324898	1.457113	0.058982
C117	C	0.273880	1.553288	0.058968
C118	C	0.217120	1.601392	0.000079
C119	C	0.211379	1.553324	-0.058808
C120	C	0.262396	1.457157	-0.058800
C121	C	0.564702	0.553219	0.510950
C122	C	0.564695	0.457075	0.607097
C123	C	0.502202	0.457109	0.489310
C124	C	0.502206	0.553257	0.393165
H125	H	0.476777	0.592386	0.106970
H126	H	0.257713	1.418026	-0.106744
C127	C	0.679611	0.606038	0.522901
C128	C	0.673324	0.553125	0.640561
C129	C	0.610900	0.605971	0.652471
C130	C	0.554765	0.711731	0.546722
C131	C	0.561051	0.764651	0.429054
C132	C	0.623474	0.711804	0.417144
H133	H	0.714880	0.474829	0.718850
H134	H	0.606247	0.566796	0.739577
H135	H	0.508555	0.750852	0.555539
H136	H	0.519494	0.842946	0.350765
H137	H	0.628127	0.750980	0.330038
H138	H	0.476761	0.592412	0.306067
C139	C	0.148940	1.606231	-0.123567
C140	C	0.092827	1.711995	-0.123550
C141	C	0.030387	1.764893	-0.188297
C142	C	0.024059	1.712028	-0.253061
C143	C	0.080173	1.606258	-0.253081
C144	C	0.142614	1.553360	-0.188333
H145	H	0.097510	1.751134	-0.075606
H146	H	-0.011152	1.843191	-0.188283
H147	H	-0.022163	1.751187	-0.300991
H148	H	0.075491	1.567119	-0.301025
H149	H	0.184153	1.475062	-0.188348
C150	C	0.599071	0.606101	-0.123498
C151	C	0.599074	0.711866	-0.123511
C152	C	0.633446	0.764731	-0.188273
C153	C	0.667815	0.711831	-0.253024
C154	C	0.667813	0.606060	-0.253013
C155	C	0.633441	0.553195	-0.188250
H156	H	0.573631	0.751031	-0.075576
H157	H	0.633448	0.843029	-0.188281
H158	H	0.693260	0.750964	-0.300965
H159	H	0.693256	0.566895	-0.300947
H160	H	0.633440	0.474897	-0.188243
C161	C	0.387308	1.404257	-0.522611
C162	C	0.443443	1.298466	-0.416862
C163	C	0.505867	1.245577	-0.428773
C164	C	0.512154	1.298478	-0.546432
C165	C	0.456017	1.404275	-0.652190
C166	C	0.393594	1.457165	-0.640279
H167	H	0.438790	1.259300	-0.329756
H168	H	0.547423	1.167259	-0.350484
H169	H	0.558364	1.259326	-0.555249
H170	H	0.460670	1.443441	-0.739296
H171	H	0.352037	1.535483	-0.718569
H172	H	0.476781	0.417936	0.106974
H173	H	0.167685	0.673726	0.165862
H174	H	0.788412	0.417863	0.694254
C175	C	0.626249	1.005148	-0.398886
C176	C	0.692466	0.892963	-0.356017
C177	C	0.741074	0.892951	-0.303131
C178	C	0.723467	1.005125	-0.293115
C179	C	0.657247	1.117318	-0.335986
C180	C	0.608639	1.117330	-0.388872
H181	H	0.705502	0.809918	-0.363430
H182	H	0.790094	0.809897	-0.271395
H183	H	0.759450	1.005116	-0.253965
H184	H	0.644211	1.200364	-0.328572
H185	H	0.559619	1.200384	-0.420607
H186	H	0.891373	0.330656	0.674631
H187	H	0.590149	0.592341	0.519770
H188	H	0.590145	0.417924	-0.106659
H189	H	0.453294	1.005160	-0.412640
C190	C	0.148951	1.606183	-0.477191
C191	C	0.130202	1.672242	-0.415362
C192	C	0.067778	1.725103	-0.403454
C193	C	0.024104	1.711904	-0.453373
C194	C	0.042853	1.645841	-0.515206
C195	C	0.105277	1.592981	-0.527115
H196	H	0.162533	1.682016	-0.378405
H197	H	0.053899	1.774007	-0.357681
H198	H	-0.022106	1.751034	-0.444558
H199	H	0.010522	1.636068	-0.552163
H200	H	0.119155	1.544077	-0.572887
H201	H	0.371114	0.791534	0.106930
C202	C	0.076786	0.640058	0.182718
C203	C	0.109586	0.542914	0.151970
C204	C	0.115923	0.413344	0.216754
C205	C	0.089459	0.380918	0.312288
C206	C	0.056657	0.478064	0.343041
C207	C	0.050320	0.607634	0.278256
H208	H	0.129178	0.566915	0.081246
H209	H	0.140205	0.341430	0.193988
H210	H	0.094150	0.285002	0.360245
H211	H	0.037065	0.454063	0.413765
H212	H	0.026038	0.679548	0.301023
H213	H	0.278572	0.791508	0.106968
H214	H	0.278509	1.592494	-0.693963
H215	H	-0.098239	0.791450	0.107029
H216	H	-0.190802	0.791450	0.107023
H217	H	-0.304187	1.218774	-0.106656
H218	H	-0.211643	1.218792	-0.106647
H219	H	-0.100750	1.336580	-0.165532
H220	H	0.695809	0.592374	-0.106667
H221	H	0.901761	0.417848	0.107004
H222	H	0.590136	0.417930	0.694186
H223	H	0.175583	1.679697	0.000082
H224	H	-0.008203	1.336584	-0.165521
C225	C	0.810845	0.606015	0.123868
C226	C	0.873282	0.553086	0.188646
C227	C	0.879610	0.605915	0.253453
C228	C	0.823500	0.711672	0.253481
C229	C	0.761059	0.764607	0.188701
C230	C	0.754731	0.711778	0.123894
H231	H	0.914822	0.474793	0.188627
H232	H	0.925834	0.566728	0.301407
H233	H	0.828185	0.750779	0.301455
H234	H	0.719519	0.842900	0.188719
H235	H	0.708507	0.750965	0.075940
H236	H	0.901750	0.417904	0.480567
H237	H	0.891336	0.330667	0.000158
H238	H	0.165159	1.218851	-0.106731
H239	H	0.257724	1.218854	-0.106736
H240	H	0.613625	1.005134	-0.587050
H241	H	0.371110	1.417954	0.106943
H242	H	0.453298	1.005151	-0.587079
H243	H	0.788353	0.417941	-0.106671
H244	H	0.278566	1.592408	0.106925
H245	H	0.809185	0.592328	0.306147
H246	H	0.257734	1.417985	-0.305858
H247	H	0.175546	1.679718	-0.674342
H248	H	0.476757	0.417974	0.480510
