data_functionalizedCrystal
_audit_creation_method	'MofGen! by Chris Wilmer'
_symmetry_space_group_name_H-M	'P1'
_symmetry_Int_Tables_number	1
_symmetry_cell_setting	triclinic
loop_
_symmetry_equiv_pos_as_xyz
  x,y,z
_cell_length_a	19.377625
_cell_length_b	17.052862
_cell_length_c	17.052862
_cell_angle_alpha	61.493325
_cell_angle_beta	75.850219
_cell_angle_gamma	60.860942
loop_
_atom_site_label
_atom_site_type_symbol
_atom_site_fract_x
_atom_site_fract_y
_atom_site_fract_z
Zr1	Zr	0.845500	0.753442	-0.405139
O2	O	0.764935	0.887362	-0.513764
O3	O	0.852459	0.602199	-0.352632
O4	O	0.891551	0.717078	-0.522908
O5	O	0.715184	0.807207	-0.231020
O6	O	1.011606	0.708098	-0.551971
O7	O	0.725843	0.772483	-0.343488
O8	O	0.941678	0.502601	-0.247378
O9	O	0.785113	1.012705	-0.535612
O10	O	0.966453	0.664121	-0.375133
O11	O	0.868903	0.696737	-0.269511
O12	O	0.914929	0.831992	-0.469989
O13	O	0.817379	0.864608	-0.364366
Zr14	Zr	1.019974	0.794500	-0.272116
Zr15	Zr	1.036973	0.739119	-0.451490
Zr16	Zr	0.828500	0.808823	-0.225765
Zr17	Zr	0.877681	0.953349	-0.439985
Zr18	Zr	0.987793	0.594593	-0.237270
O19	O	1.013014	0.945743	-0.324623
O20	O	1.037185	0.866998	-0.579669
O21	O	0.740764	0.966107	-0.258718
O22	O	1.100539	0.660580	-0.163491
O23	O	1.124710	0.581835	-0.418538
O24	O	0.828288	0.680944	-0.097586
O25	O	1.150289	0.740735	-0.446236
O26	O	0.973922	0.830864	-0.154347
O27	O	0.853868	0.839844	-0.125284
O28	O	1.139630	0.775459	-0.333768
O29	O	0.937308	1.001321	-0.572455
O30	O	0.928165	0.546621	-0.104800
O31	O	1.080361	0.535237	-0.141643
O32	O	1.093873	0.491217	-0.284221
O33	O	0.771600	1.056725	-0.393034
O34	O	0.923796	1.045341	-0.429877
O35	O	0.950544	0.715950	-0.207266
O36	O	1.048094	0.683334	-0.312889
O37	O	0.996570	0.851205	-0.407744
O38	O	0.899020	0.883821	-0.302122
C39	C	0.892483	0.523918	-0.295040
C40	C	0.878822	0.439052	-0.280247
C41	C	1.043991	0.131733	-0.459096
C42	C	1.056826	0.211472	-0.473000
C43	C	1.012326	0.268370	-0.424813
C44	C	0.954989	0.245523	-0.362719
C45	C	0.942149	0.165782	-0.348818
C46	C	0.910484	0.302419	-0.314536
C47	C	0.853147	0.279572	-0.252442
C48	C	0.840310	0.199837	-0.238543
C49	C	0.884810	0.142939	-0.286730
C50	C	0.923324	0.382160	-0.328437
C51	C	0.821482	0.416209	-0.218159
C52	C	0.808648	0.336470	-0.204255
C53	C	0.693233	0.791886	-0.280650
C54	C	0.611947	0.797966	-0.260972
C55	C	0.373951	0.722285	-0.506000
C56	C	0.297571	0.727998	-0.487484
C57	C	0.285848	0.766255	-0.363573
C58	C	0.362227	0.760550	-0.382081
C59	C	0.406273	0.738564	-0.453296
C60	C	0.394549	0.776829	-0.329377
C61	C	0.470923	0.771120	-0.347882
C62	C	0.514975	0.749132	-0.419091
C63	C	0.482647	0.732855	-0.471800
C64	C	0.350504	0.798809	-0.258159
C65	C	0.382827	0.815087	-0.205455
C66	C	0.459200	0.809385	-0.223963
C67	C	0.503251	0.787397	-0.295172
C68	C	0.491528	0.825662	-0.171253
C69	C	0.567902	0.819952	-0.189758
C70	C	0.579625	0.781687	-0.313677
C71	C	1.172241	0.756056	-0.396606
C72	C	1.253526	0.749976	-0.416283
C73	C	0.954001	0.704698	-0.562997
C74	C	0.961217	0.681187	-0.639145
C75	C	0.972990	1.024024	-0.382215
C76	C	0.986652	1.108890	-0.397008
C77	C	0.873968	0.965432	-1.051853
C78	C	0.867182	0.987525	-0.980309
C79	C	0.890691	0.910942	-0.895015
C80	C	0.920985	0.812263	-0.881272
C81	C	0.927765	0.790168	-0.952822
C82	C	0.944488	0.735679	-0.795984
C83	C	0.974783	0.637000	-0.782240
C84	C	0.981562	0.614909	-0.853785
C85	C	0.958054	0.691491	-0.939078
C86	C	0.937708	0.757774	-0.724433
C87	C	0.991506	0.582510	-0.625402
C88	C	0.998291	0.560417	-0.696947
C89	C	0.911473	0.843244	-0.114259
C90	C	0.904256	0.866755	-0.038110
C91	C	1.131987	0.506003	-0.353018
C92	C	1.199611	0.415057	-0.357903
C93	C	0.871219	0.593191	-0.070671
C94	C	0.850341	0.531836	0.020270
C95	C	1.110723	0.575276	-0.128649
C96	C	1.171130	0.507841	-0.057385
C97	C	0.754750	0.972666	-0.548606
C98	C	0.694343	1.040101	-0.619870
C99	C	0.733486	1.041939	-0.324237
C100	C	0.665862	1.132885	-0.319353
C101	C	0.994254	0.954751	-0.606584
C102	C	1.015133	1.016106	-0.697525
C103	C	1.188753	0.362317	-0.392695
C104	C	1.252289	0.276870	-0.397301
C105	C	1.326681	0.244161	-0.367108
C106	C	1.337538	0.296909	-0.332316
C107	C	1.274004	0.382359	-0.327716
C108	C	0.883151	0.513054	0.095476
C109	C	0.863532	0.455418	0.180932
C110	C	0.811106	0.416559	0.191179
C111	C	0.778292	0.435346	0.115964
C112	C	0.797907	0.492987	0.030511
C113	C	1.250426	0.459147	-0.079054
C114	C	1.307195	0.395793	-0.012104
C115	C	1.284665	0.381128	0.076516
C116	C	1.205362	0.429831	0.098184
C117	C	1.148596	0.493189	0.031234
C118	C	0.615049	1.088805	-0.598203
C119	C	0.558284	1.152184	-0.665157
C120	C	0.580815	1.166852	-0.753778
C121	C	0.660117	1.118145	-0.775445
C122	C	0.716881	1.054773	-0.708492
C123	C	0.676723	1.185631	-0.284569
C124	C	0.613192	1.271094	-0.279987
C125	C	0.538801	1.303805	-0.310182
C126	C	0.527943	1.251054	-0.344971
C127	C	0.591474	1.165597	-0.349559
C128	C	1.067561	1.054948	-0.707744
C129	C	1.087193	1.112588	-0.793189
C130	C	1.054393	1.131391	-0.868414
C131	C	1.001961	1.092542	-0.858193
C132	C	0.982334	1.034897	-0.772749
H133	H	0.970008	0.400755	-0.378994
C134	C	0.598988	0.742853	-0.439448
N135	N	0.662267	0.738127	-0.454782
H136	H	0.939640	1.003279	-0.764441
C137	C	1.396561	0.150156	-0.372167
N138	N	1.449190	0.079349	-0.375975
C139	C	1.026452	0.356079	-0.440105
N140	N	1.037097	0.422139	-0.451621
C141	C	1.119897	0.236595	-0.541298
N142	N	1.167408	0.255515	-0.592742
H143	H	0.842517	1.067870	-0.991505
C144	C	1.180590	0.413681	0.195674
N145	N	1.161932	0.401509	0.269106
H146	H	0.795140	0.369625	0.260765
H147	H	1.282855	0.425292	-0.299379
C148	C	0.848109	1.049660	-1.145674
N149	N	0.828631	1.113107	-1.216344
C150	C	0.940818	0.555796	0.084226
N151	N	0.984249	0.587993	0.075760
C152	C	1.092931	0.069145	-0.512097
N153	N	1.129796	0.022001	-0.552021
H154	H	0.735605	0.403699	0.124322
C155	C	0.446101	1.287039	-0.378167
N156	N	0.384455	1.314139	-0.403160
H157	H	0.975259	1.107861	-0.919453
H158	H	0.771189	0.508269	-0.030720
C159	C	0.777274	0.174668	-0.170196
N160	N	0.729809	0.155696	-0.118698
H161	H	1.010645	0.520151	-0.555952
C162	C	0.262015	0.710105	-0.545478
N163	N	0.235233	0.696631	-0.589161
H164	H	1.006222	0.534558	-0.842587
H165	H	0.518508	0.714961	-0.529796
C166	C	0.899644	0.434752	0.263655
N167	N	0.926847	0.419186	0.325959
C168	C	1.419375	0.260910	-0.299099
N169	N	1.481014	0.233789	-0.274074
C170	C	0.590247	1.072691	-0.500725
N171	N	0.571561	1.060565	-0.427307
H172	H	0.678454	1.130096	-0.847608
C173	C	0.468921	1.397810	-0.305124
N174	N	0.416290	1.468612	-0.301308
H175	H	0.409812	0.704392	-0.563996
H176	H	0.582619	1.122653	-0.377880
H177	H	0.346957	0.832985	-0.147470
C178	C	1.144865	1.155317	-0.804412
N179	N	1.188302	1.187500	-0.812862
H180	H	1.268785	0.471074	-0.151208
C181	C	1.394423	0.342220	-0.035957
N182	N	1.460121	0.301868	-0.053924
C183	C	1.075990	1.194805	-0.962399
N184	N	1.092259	1.242572	-1.033186
H185	H	0.761963	0.317857	-0.153698
C186	C	0.870687	0.055228	-0.271448
N187	N	0.860048	-0.010833	-0.259944
C188	C	0.804104	1.001190	-0.732340
N189	N	0.869801	0.960832	-0.750308
H190	H	0.785245	0.462539	-0.178924
H191	H	0.615486	0.763794	-0.371673
C192	C	0.237401	0.790402	-0.285218
N193	N	0.200915	0.808579	-0.226194
H194	H	0.288318	0.803451	-0.243093
H195	H	0.455659	0.843553	-0.113265
C196	C	0.471056	1.205750	-0.641303
N197	N	0.405356	1.246095	-0.623334
C198	C	0.603454	0.837874	-0.131789
N199	N	0.630231	0.851375	-0.088125
H200	H	1.330896	0.329535	0.131023
C201	C	0.965507	0.667195	-1.017784
N202	N	0.971117	0.648898	-1.077067
H203	H	1.094275	1.039649	-0.646501
C204	C	0.518361	1.236558	-0.827417
N205	N	0.471317	1.289058	-0.882877
H206	H	0.913041	0.838120	-0.735632
H207	H	1.084029	0.532829	0.048891
C208	C	0.625152	1.329100	-0.241707
N209	N	0.634161	1.372785	-0.212873
H210	H	0.885164	0.928936	-0.836763
H211	H	1.128187	0.388943	-0.417294
C212	C	1.031607	0.451873	-0.681840
N213	N	1.056698	0.370118	-0.670461
C214	C	1.240326	0.218854	-0.435566
N215	N	1.231313	0.175157	-0.464384
H216	H	0.737289	1.159008	-0.259974
