data_functionalizedCrystal
_audit_creation_method	'MofGen! by Chris Wilmer'
_symmetry_space_group_name_H-M	'P1'
_symmetry_Int_Tables_number	1
_symmetry_cell_setting	triclinic
loop_
_symmetry_equiv_pos_as_xyz
  x,y,z
_cell_length_a	15.944551
_cell_length_b	15.944551
_cell_length_c	14.421503
_cell_angle_alpha	90.003340
_cell_angle_beta	89.996859
_cell_angle_gamma	83.498738
loop_
_atom_site_label
_atom_site_type_symbol
_atom_site_fract_x
_atom_site_fract_y
_atom_site_fract_z
O1	O	1.114529	0.108320	-0.077017
O2	O	0.869980	0.121677	-0.077040
O3	O	0.998933	-0.007276	-0.077020
O4	O	0.985576	0.237273	-0.077038
O5	O	0.998911	-0.007257	0.077204
O6	O	0.869958	0.121696	0.077183
O7	O	1.114508	0.108340	0.077206
Cu8	Cu	0.992231	0.115020	0.091277
Cu9	Cu	0.992256	0.114997	-0.091110
O10	O	0.985555	0.237293	0.077186
C11	C	0.838675	0.121132	0.000069
C12	C	0.745429	0.119470	0.000060
C13	C	0.530572	0.035565	0.000084
C14	C	0.469563	0.074518	-0.075959
C15	C	0.574703	0.116462	0.000071
C16	C	0.469564	0.074556	0.076093
C17	C	0.409790	0.113551	0.000086
C18	C	0.514922	0.155437	-0.076035
C19	C	0.514929	0.155464	0.076086
C20	C	0.453937	0.194476	0.000024
C21	C	0.669705	0.118137	0.000062
C22	C	0.314789	0.111883	0.000089
C23	C	0.998367	-0.038561	0.000092
C24	C	0.996705	-0.131807	0.000093
C25	C	0.912801	-0.346663	0.000072
C26	C	0.951753	-0.407671	0.076117
C27	C	0.993698	-0.302533	0.000085
C28	C	0.951793	-0.407674	-0.075935
C29	C	0.990787	-0.467445	0.000074
C30	C	1.032672	-0.362312	0.076193
C31	C	1.032701	-0.362308	-0.075927
C32	C	1.071711	-0.423298	0.000136
C33	C	0.995372	-0.207530	0.000092
C34	C	0.989119	-0.562446	0.000073
C35	C	1.145813	0.108885	0.000096
C36	C	1.239059	0.110547	0.000098
C37	C	0.986120	0.268577	0.000072
C38	C	0.987782	0.361823	0.000066
N39	N	0.992219	0.115035	0.219558
N40	N	0.992275	0.114975	-0.219392
C41	C	0.932581	0.174636	0.469202
C42	C	1.008481	0.190943	0.531011
C43	C	0.992240	0.115015	0.408719
C44	C	0.916359	0.098727	0.531005
C45	C	0.992253	0.114997	0.591441
C46	C	1.068178	0.131360	0.469167
C47	C	0.976007	0.039111	0.469156
C48	C	1.051961	0.055386	0.530936
C49	C	0.992231	0.115027	0.303458
C50	C	0.992270	0.114985	0.696700
H51	H	0.535052	0.189660	0.140373
H52	H	1.132368	0.145205	0.442119
C53	C	0.830828	0.080184	0.567167
C54	C	0.813443	0.001283	0.534501
C55	C	0.734664	-0.015825	0.567802
H56	H	0.788422	0.122522	0.546052
H57	H	0.831593	0.079748	0.633039
H58	H	0.812671	0.001725	0.468644
H59	H	0.855829	-0.041071	0.555614
H60	H	0.735429	-0.016261	0.633673
H61	H	0.692264	0.026517	0.546684
H62	H	0.722862	-0.069364	0.545650
C63	C	0.823286	-0.302205	-0.000036
C64	C	0.810698	-0.252289	-0.079784
C65	C	0.728246	-0.211332	-0.079918
H66	H	0.814897	-0.267449	0.053412
H67	H	0.784278	-0.343044	0.000504
H68	H	0.849694	-0.211455	-0.080315
H69	H	0.819069	-0.287025	-0.133245
H70	H	0.689239	-0.252171	-0.079378
H71	H	0.719865	-0.176580	-0.026466
H72	H	0.719692	-0.177466	-0.134029
C73	C	0.574954	-0.053981	-0.000202
C74	C	0.552111	-0.095958	-0.080006
C75	C	0.592992	-0.178440	-0.080314
H76	H	0.558814	-0.083109	0.053208
H77	H	0.634328	-0.052327	0.000298
H78	H	0.492751	-0.097616	-0.080497
H79	H	0.568253	-0.066855	-0.133428
H80	H	0.652366	-0.176787	-0.079814
H81	H	0.576849	-0.207561	-0.026901
H82	H	0.577505	-0.206930	-0.134463
C83	C	0.442866	0.028980	-0.161789
C84	C	0.466994	0.070678	-0.241224
C85	C	0.442433	0.028741	-0.320305
H86	H	0.383326	0.028686	-0.161590
H87	H	0.469395	-0.027462	-0.161754
H88	H	0.440462	0.127105	-0.241259
H89	H	0.526530	0.070974	-0.241454
H90	H	0.468962	-0.027701	-0.320270
H91	H	0.382893	0.028449	-0.320097
H92	H	0.458807	0.057022	-0.374211
C93	C	0.541750	0.200947	-0.161822
C94	C	0.629442	0.201920	-0.160860
C95	C	0.654190	0.243823	-0.239877
H96	H	0.514905	0.257256	-0.162127
H97	H	0.525908	0.172389	-0.215777
H98	H	0.645275	0.230480	-0.106919
H99	H	0.656308	0.145623	-0.160569
H100	H	0.638348	0.215265	-0.293831
H101	H	0.627339	0.300129	-0.240174
H102	H	0.713691	0.244482	-0.239238
H103	H	0.882181	0.225096	0.442096
C104	C	1.078179	-0.335482	0.161981
C105	C	1.079152	-0.247790	0.161017
C106	C	1.121052	-0.223040	0.240035
H107	H	1.134488	-0.362327	0.162289
H108	H	1.049620	-0.351322	0.215935
H109	H	1.107713	-0.231957	0.107078
H110	H	1.022855	-0.220924	0.160724
H111	H	1.092492	-0.238881	0.293989
H112	H	1.177358	-0.249890	0.240336
H113	H	1.121711	-0.163538	0.239396
H114	H	1.022224	0.255126	0.558180
C115	C	0.409669	0.284067	0.000156
C116	C	0.359720	0.296738	0.079877
C117	C	0.318935	0.379259	0.080031
H118	H	0.374955	0.292546	-0.053311
H119	H	0.450605	0.322974	-0.000335
H120	H	0.318789	0.257842	0.080359
H121	H	0.394413	0.288277	0.133357
H122	H	0.359870	0.418167	0.079541
H123	H	0.284226	0.387731	0.026561
H124	H	0.285046	0.387870	0.134125
C125	C	0.442637	0.029065	0.161849
C126	C	0.387117	0.084396	0.214446
C127	C	0.362289	0.042510	0.293438
H128	H	0.490945	0.010319	0.197996
H129	H	0.415132	-0.018132	0.143603
H130	H	0.414622	0.131578	0.232693
H131	H	0.338797	0.103144	0.178327
H132	H	0.334785	-0.004687	0.275192
H133	H	0.410602	0.023766	0.329577
H134	H	0.324611	0.080043	0.329131
C135	C	1.119437	-0.011753	0.566812
C136	C	1.198701	0.005691	0.535328
C137	C	1.260881	-0.056128	0.568371
H138	H	1.108473	-0.065568	0.544717
H139	H	1.118821	-0.011694	0.632687
H140	H	1.199315	0.005623	0.469467
H141	H	1.209691	0.059495	0.557421
H142	H	1.260265	-0.056069	0.634245
H143	H	1.249910	-0.109939	0.546273
H144	H	1.314670	-0.044296	0.547021
C145	C	1.078154	-0.335495	-0.161756
C146	C	1.035523	-0.358195	-0.241167
C147	C	1.077356	-0.333495	-0.320256
H148	H	1.134293	-0.362772	-0.162427
H149	H	1.079298	-0.276055	-0.160873
H150	H	1.034388	-0.417623	-0.242049
H151	H	0.979387	-0.330921	-0.240526
H152	H	1.078500	-0.274056	-0.319373
H153	H	1.133493	-0.360774	-0.320917
H154	H	1.048432	-0.348887	-0.374145
C155	C	0.906160	-0.434632	-0.161579
C156	C	0.905854	-0.522406	-0.160865
C157	C	0.863809	-0.547265	-0.239733
H158	H	0.934303	-0.418423	-0.215642
H159	H	0.849693	-0.408171	-0.161489
H160	H	0.962311	-0.548858	-0.160964
H161	H	0.877706	-0.538638	-0.106820
H162	H	0.807342	-0.520804	-0.239644
H163	H	0.891957	-0.531051	-0.293791
H164	H	0.863589	-0.606821	-0.239256
C165	C	0.905964	-0.434413	0.161752
C166	C	0.822805	-0.395262	0.161386
C167	C	0.780591	-0.419880	0.240248
H168	H	0.934050	-0.418129	0.215820
H169	H	0.905639	-0.493959	0.161419
H170	H	0.823134	-0.335728	0.161728
H171	H	0.794696	-0.411541	0.107336
H172	H	0.780267	-0.479427	0.239914
H173	H	0.808684	-0.403595	0.294310
H174	H	0.724162	-0.393327	0.240005
C175	C	1.161338	-0.467477	0.000389
C176	C	1.203280	-0.444481	0.080150
C177	C	1.285839	-0.485172	0.080426
H178	H	1.190398	-0.451291	-0.053050
H179	H	1.159829	-0.526871	-0.000073
H180	H	1.204793	-0.385100	0.080604
H181	H	1.174246	-0.460668	0.133603
H182	H	1.284330	-0.544566	0.079964
H183	H	1.314891	-0.468983	0.026983
H184	H	1.314304	-0.469581	0.134546
H185	H	0.962240	-0.025051	0.441965
