data_functionalizedCrystal
_audit_creation_method	'MofGen! by Chris Wilmer'
_symmetry_space_group_name_H-M	'P1'
_symmetry_Int_Tables_number	1
_symmetry_cell_setting	triclinic
loop_
_symmetry_equiv_pos_as_xyz
  x,y,z
_cell_length_a	16.959455
_cell_length_b	21.295417
_cell_length_c	16.959447
_cell_angle_alpha	90.035193
_cell_angle_beta	90.014322
_cell_angle_gamma	90.027454
loop_
_atom_site_label
_atom_site_type_symbol
_atom_site_fract_x
_atom_site_fract_y
_atom_site_fract_z
Zn1	Zn	1.208326	-0.250648	0.446882
Zn2	Zn	1.541660	0.082685	0.780215
Zn3	Zn	1.874993	0.416019	1.113549
Zn4	Zn	1.208225	-0.355925	0.314692
Zn5	Zn	1.541558	-0.022591	0.648025
Zn6	Zn	1.874892	0.310742	0.981359
Zn7	Zn	1.076155	-0.250668	0.314719
Zn8	Zn	1.409488	0.082666	0.648053
Zn9	Zn	1.742822	0.415999	0.981386
Zn10	Zn	1.076096	-0.355878	0.446831
Zn11	Zn	1.409429	-0.022544	0.780164
Zn12	Zn	1.742762	0.310789	1.113497
O13	O	1.142200	-0.303280	0.380781
O14	O	1.475534	0.030054	0.714114
O15	O	1.808867	0.363387	1.047448
O16	O	1.318924	-0.264625	0.429357
O17	O	1.652257	0.068709	0.762690
O18	O	1.985591	0.402042	1.096023
O19	O	1.190688	-0.341990	0.204085
O20	O	1.524021	-0.008657	0.537418
O21	O	1.857355	0.324676	0.870751
O22	O	1.093755	-0.162576	0.332284
O23	O	1.427088	0.170758	0.665617
O24	O	1.760422	0.504091	0.998951
O25	O	1.318849	-0.341971	0.332237
O26	O	1.652183	-0.008638	0.665571
O27	O	1.985516	0.324696	0.998904
O28	O	1.190861	-0.162561	0.429383
O29	O	1.524194	0.170772	0.762716
O30	O	1.857528	0.504105	1.096050
O31	O	1.093657	-0.264658	0.204105
O32	O	1.426990	0.068675	0.537438
O33	O	1.760323	0.402008	0.870772
O34	O	0.965536	-0.264613	0.332234
O35	O	1.298869	0.068721	0.665568
O36	O	1.632203	0.402054	0.998901
O37	O	1.093654	-0.341891	0.557448
O38	O	1.426987	-0.008558	0.890782
O39	O	1.760321	0.324776	1.224115
O40	O	0.965493	-0.341910	0.429296
O41	O	1.298826	-0.008577	0.762629
O42	O	1.632159	0.324757	1.095963
O43	O	1.190803	-0.264579	0.557486
O44	O	1.524137	0.068754	0.890819
O45	O	1.857470	0.402088	1.224153
O46	O	1.190630	-0.444008	0.332188
O47	O	1.523964	-0.110675	0.665521
O48	O	1.857297	0.222659	0.998854
O49	O	1.093555	-0.443973	0.429269
O50	O	1.426889	-0.110640	0.762603
O51	O	1.760222	0.222693	1.095936
C52	C	0.936834	-0.303259	0.380763
C53	C	1.270168	0.030074	0.714096
C54	C	1.603501	0.363408	1.047430
C55	C	0.848978	-0.303265	0.380774
C56	C	1.182311	0.030068	0.714107
C57	C	1.515644	0.363402	1.047441
C58	C	0.477500	-0.262998	0.330347
C59	C	0.810834	0.070335	0.663680
C60	C	1.144167	0.403669	0.997013
C61	C	0.477504	-0.343613	0.431261
C62	C	0.810837	-0.010280	0.764594
C63	C	1.144170	0.323054	1.097927
C64	C	0.560050	-0.343604	0.431256
C65	C	0.893383	-0.010271	0.764589
C66	C	1.226716	0.323063	1.097922
C67	C	0.601325	-0.303292	0.380795
C68	C	0.934658	0.030041	0.714128
C69	C	1.267991	0.363375	1.047461
C70	C	0.560054	-0.262989	0.330339
C71	C	0.893387	0.070344	0.663672
C72	C	1.226721	0.403678	0.997005
C73	C	0.601327	-0.383911	0.481705
C74	C	0.934660	-0.050578	0.815039
C75	C	1.267993	0.282756	1.148372
C76	C	0.683877	-0.383904	0.481702
C77	C	1.017211	-0.050571	0.815035
C78	C	1.350544	0.282763	1.148369
C79	C	0.725154	-0.343588	0.431244
C80	C	1.058487	-0.010255	0.764578
C81	C	1.391821	0.323078	1.097911
C82	C	0.683878	-0.303283	0.380787
C83	C	1.017211	0.030050	0.714120
C84	C	1.350545	0.363384	1.047453
C85	C	0.725153	-0.262971	0.330326
C86	C	1.058487	0.070362	0.663659
C87	C	1.391820	0.403696	0.996992
C88	C	0.683879	-0.222662	0.279871
C89	C	1.017212	0.110671	0.613205
C90	C	1.350546	0.444004	0.946538
C91	C	0.601330	-0.222673	0.279881
C92	C	0.934664	0.110660	0.613214
C93	C	1.267997	0.443993	0.946548
C94	C	0.807702	-0.343577	0.431235
C95	C	1.141036	-0.010244	0.764568
C96	C	1.474369	0.323089	1.097902
C97	C	0.807707	-0.262962	0.330318
C98	C	1.141040	0.070371	0.663651
C99	C	1.474373	0.403705	0.996984
C100	C	1.142097	-0.466831	0.380737
C101	C	1.475430	-0.133498	0.714071
C102	C	1.808763	0.199835	1.047404
C103	C	1.142125	-0.536799	0.380745
C104	C	1.475458	-0.203466	0.714078
C105	C	1.808791	0.129867	1.047412
C106	C	1.192717	-0.569663	0.330246
C107	C	1.526050	-0.236330	0.663580
C108	C	1.859383	0.097004	0.996913
C109	C	1.192754	-0.635406	0.330264
C110	C	1.526087	-0.302072	0.663597
C111	C	1.859420	0.031261	0.996931
C112	C	1.142185	-0.668282	0.380772
C113	C	1.475518	-0.334949	0.714106
C114	C	1.808851	-0.001615	1.047439
C115	C	1.091589	-0.635410	0.431281
C116	C	1.424923	-0.302077	0.764614
C117	C	1.758256	0.031257	1.097947
C118	C	1.091559	-0.569669	0.431267
C119	C	1.424893	-0.236336	0.764600
C120	C	1.758226	0.096998	1.097934
N121	N	1.073038	-0.771544	0.386792
N122	N	1.406371	-0.438211	0.720125
N123	N	1.739705	-0.104878	1.053459
N124	N	1.073069	-0.833996	0.386800
N125	N	1.406402	-0.500662	0.720134
N126	N	1.739735	-0.167329	1.053467
C127	C	1.142273	-0.866357	0.380818
C128	C	1.475607	-0.533023	0.714151
C129	C	1.808940	-0.199690	1.047484
N130	N	1.211448	-0.833907	0.374811
N131	N	1.544781	-0.500573	0.708144
N132	N	1.878114	-0.167240	1.041477
N133	N	1.211416	-0.771449	0.374798
N134	N	1.544749	-0.438116	0.708132
N135	N	1.878083	-0.104783	1.041465
C136	C	1.142212	-0.739567	0.380793
C137	C	1.475545	-0.406234	0.714126
C138	C	1.808879	-0.072901	1.047460
C139	C	1.192910	-0.970506	0.330335
C140	C	1.526243	-0.637172	0.663669
C141	C	1.859576	-0.303839	0.997002
C142	C	1.192948	-1.036249	0.330359
C143	C	1.526281	-0.702916	0.663692
C144	C	1.859615	-0.369583	0.997025
C145	C	1.091777	-1.036253	0.431371
C146	C	1.425110	-0.702919	0.764705
C147	C	1.758443	-0.369586	1.098038
C148	C	1.091745	-0.970510	0.431352
C149	C	1.425079	-0.637177	0.764685
C150	C	1.758412	-0.303844	1.098019
C151	C	1.142311	-0.937641	0.380830
C152	C	1.475644	-0.604307	0.714163
C153	C	1.808977	-0.270974	1.047497
C154	C	1.348369	-0.303301	0.380800
C155	C	1.681702	0.030032	0.714133
C156	C	2.015035	0.363366	1.047466
C157	C	1.436225	-0.303310	0.380808
C158	C	1.769559	0.030023	0.714141
C159	C	2.102892	0.363357	1.047474
C160	C	1.142233	-0.303228	0.586949
C161	C	1.475567	0.030106	0.920283
C162	C	1.808900	0.363439	1.253616
C163	C	1.142247	-0.303205	0.674806
C164	C	1.475581	0.030128	1.008139
C165	C	1.808914	0.363461	1.341473
C166	C	1.142326	-0.139089	0.380842
C167	C	1.475659	0.194244	0.714176
C168	C	1.808993	0.527577	1.047509
C169	C	1.142379	-0.069121	0.380868
C170	C	1.475713	0.264212	0.714202
C171	C	1.809046	0.597545	1.047535
C172	C	1.142213	-0.303286	0.175415
C173	C	1.475546	0.030047	0.508748
C174	C	1.808880	0.363381	0.842081
C175	C	1.142352	-0.303131	0.087559
C176	C	1.475686	0.030202	0.420892
C177	C	1.809019	0.363536	0.754225
C178	C	1.091760	-0.343392	1.046265
C179	C	1.425094	-0.010058	1.379598
C180	C	1.758427	0.323275	1.712931
C181	C	1.192923	-0.262886	1.046299
C182	C	1.526257	0.070447	1.379632
C183	C	1.859590	0.403780	1.712966
C184	C	1.192902	-0.262900	0.963753
C185	C	1.526235	0.070434	1.297086
C186	C	1.859569	0.403767	1.630420
C187	C	1.142310	-0.303160	0.922459
C188	C	1.475644	0.030173	1.255792
C189	C	1.808977	0.363506	1.589126
C190	C	1.091740	-0.343407	0.963711
C191	C	1.425073	-0.010074	1.297044
C192	C	1.758406	0.323259	1.630378
C193	C	1.243478	-0.222658	0.922495
C194	C	1.576811	0.110676	1.255828
C195	C	1.910144	0.444009	1.589161
C196	C	1.243459	-0.222670	0.839944
C197	C	1.576793	0.110664	1.173277
C198	C	1.910126	0.443997	1.506610
C199	C	1.192863	-0.262928	0.798648
C200	C	1.526196	0.070406	1.131982
C201	C	1.859529	0.403739	1.465315
C202	C	1.142289	-0.303176	0.839906
C203	C	1.475623	0.030157	1.173239
C204	C	1.808956	0.363491	1.506572
C205	C	1.091698	-0.343437	0.798612
C206	C	1.425031	-0.010103	1.131945
C207	C	1.758364	0.323230	1.465278
C208	C	1.041120	-0.383682	0.839867
C209	C	1.374453	-0.050349	1.173201
C210	C	1.707786	0.282984	1.506534
C211	C	1.041143	-0.383665	0.922416
C212	C	1.374476	-0.050332	1.255749
C213	C	1.707810	0.283001	1.589082
C214	C	1.192839	-0.262945	0.716100
C215	C	1.526173	0.070389	1.049433
C216	C	1.859506	0.403722	1.382767
C217	C	1.091677	-0.343453	0.716058
C218	C	1.425010	-0.010119	1.049391
C219	C	1.758343	0.323214	1.382725
H220	H	0.717476	-0.416725	0.522785
H221	H	1.050809	-0.083392	0.856119
H222	H	1.384143	0.249941	1.189452
H223	H	1.050579	-0.376157	1.079859
H224	H	1.383912	-0.042824	1.413192
H225	H	1.717246	0.290510	1.746525
O226	O	0.432998	-0.219522	0.275925
O227	O	0.766332	0.113812	0.609258
O228	O	1.099665	0.447145	0.942591
H229	H	0.448828	-0.230257	0.213865
H230	H	0.782162	0.103076	0.547199
H231	H	1.115495	0.436410	0.880532
H232	H	1.284642	-0.189899	0.806360
H233	H	1.617976	0.143434	1.139694
H234	H	1.951309	0.476768	1.473027
H235	H	0.717496	-0.189843	0.238783
H236	H	1.050829	0.143490	0.572116
H237	H	1.384162	0.476824	0.905449
H238	H	1.233954	-0.662168	0.289142
H239	H	1.567288	-0.328835	0.622476
H240	H	1.900621	0.004498	0.955809
O241	O	1.037036	-0.670864	0.485751
O242	O	1.370370	-0.337530	0.819084
O243	O	1.703703	-0.004197	1.152417
H244	H	1.045548	-0.722100	0.477268
H245	H	1.378881	-0.388766	0.810601
H246	H	1.712214	-0.055433	1.143935
H247	H	0.443893	-0.376437	0.472339
H248	H	0.777226	-0.043104	0.805672
H249	H	1.110559	0.290230	1.139006
O250	O	0.556816	-0.179222	0.225437
O251	O	0.890150	0.154111	0.558770
O252	O	1.223483	0.487444	0.892104
H253	H	0.492481	-0.186015	0.233906
H254	H	0.825814	0.147319	0.567239
H255	H	1.159148	0.480652	0.900572
O256	O	0.852223	-0.387045	0.485648
O257	O	1.185556	-0.053711	0.818981
O258	O	1.518890	0.279622	1.152314
H259	H	0.809653	-0.415076	0.520739
H260	H	1.142987	-0.081743	0.854072
H261	H	1.476320	0.251591	1.187406
O262	O	1.036986	-0.534222	0.485736
O263	O	1.370319	-0.200888	0.819069
O264	O	1.703653	0.132445	1.152402
H265	H	1.045463	-0.482985	0.477242
H266	H	1.378796	-0.149652	0.810576
H267	H	1.712130	0.183681	1.143909
H268	H	1.234117	-0.230111	1.079925
H269	H	1.567450	0.103222	1.413259
H270	H	1.900784	0.436555	1.746592
H271	H	1.284672	-0.189883	0.956122
H272	H	1.618005	0.143450	1.289456
H273	H	1.951338	0.476783	1.622789
H274	H	1.050606	-1.063020	0.472499
H275	H	1.383939	-0.729687	0.805833
H276	H	1.717273	-0.396353	1.139166
O277	O	0.556813	-0.427387	0.536131
O278	O	0.890146	-0.094054	0.869464
O279	O	1.223480	0.239279	1.202798
H280	H	0.492478	-0.420614	0.527667
H281	H	0.825811	-0.087281	0.861000
H282	H	1.159145	0.246052	1.194334
H283	H	1.234086	-0.943742	0.289200
H284	H	1.567419	-0.610409	0.622533
H285	H	1.900752	-0.277076	0.955866
O286	O	1.247263	-0.534209	0.275768
O287	O	1.580596	-0.200876	0.609102
O288	O	1.913930	0.132457	0.942435
H289	H	1.282456	-0.568111	0.240663
H290	H	1.615789	-0.234778	0.573996
H291	H	1.949122	0.098556	0.907329
H292	H	1.234151	-1.063006	0.289238
H293	H	1.567484	-0.729673	0.622572
H294	H	1.900817	-0.396339	0.955905
H295	H	1.050545	-0.943751	0.472469
H296	H	1.383879	-0.610418	0.805803
H297	H	1.717212	-0.277084	1.139136
H298	H	1.234021	-0.230179	0.682513
H299	H	1.567354	0.103154	1.015847
H300	H	1.900688	0.436488	1.349180
H301	H	1.050471	-0.376232	0.682442
H302	H	1.383804	-0.042899	1.015776
H303	H	1.717138	0.290434	1.349109
O304	O	0.852214	-0.219481	0.275883
O305	O	1.185548	0.113852	0.609217
O306	O	1.518881	0.447185	0.942550
H307	H	0.889848	-0.187480	0.311327
H308	H	1.223182	0.145853	0.644660
H309	H	1.556515	0.479186	0.977994
O310	O	0.986541	-0.427097	0.795327
O311	O	1.319874	-0.093764	1.128661
O312	O	1.653207	0.239569	1.461994
H313	H	1.000053	-0.476504	0.811140
H314	H	1.333386	-0.143171	1.144473
H315	H	1.666719	0.190162	1.477806
O316	O	0.986594	-0.427071	0.966910
O317	O	1.319927	-0.093737	1.300243
O318	O	1.653260	0.239596	1.633576
H319	H	0.995114	-0.420299	1.031248
H320	H	1.328448	-0.086965	1.364581
H321	H	1.661781	0.246368	1.697915
