data_functionalizedCrystal
_audit_creation_method	'MofGen! by Chris Wilmer'
_symmetry_space_group_name_H-M	'P1'
_symmetry_Int_Tables_number	1
_symmetry_cell_setting	triclinic
loop_
_symmetry_equiv_pos_as_xyz
  x,y,z
_cell_length_a	15.944551
_cell_length_b	15.944551
_cell_length_c	14.421503
_cell_angle_alpha	89.996660
_cell_angle_beta	90.003141
_cell_angle_gamma	83.498738
loop_
_atom_site_label
_atom_site_type_symbol
_atom_site_fract_x
_atom_site_fract_y
_atom_site_fract_z
O1	O	-1.114529	-0.108320	-0.077017
O2	O	-0.869980	-0.121677	-0.077040
O3	O	-0.998933	0.007276	-0.077020
O4	O	-0.985576	-0.237273	-0.077038
O5	O	-0.998911	0.007257	0.077204
O6	O	-0.869958	-0.121696	0.077183
O7	O	-1.114508	-0.108340	0.077206
Cu8	Cu	-0.992231	-0.115020	0.091277
Cu9	Cu	-0.992256	-0.114997	-0.091110
O10	O	-0.985555	-0.237293	0.077186
C11	C	-0.838675	-0.121132	0.000069
C12	C	-0.745429	-0.119470	0.000060
C13	C	-0.998367	0.038561	0.000092
C14	C	-0.996705	0.131807	0.000093
C15	C	-1.145813	-0.108885	0.000096
C16	C	-1.239059	-0.110547	0.000098
C17	C	-0.530572	-0.035565	0.000084
C18	C	-0.469563	-0.074518	-0.075959
C19	C	-0.574703	-0.116462	0.000071
C20	C	-0.469564	-0.074556	0.076093
C21	C	-0.409790	-0.113551	0.000086
C22	C	-0.514922	-0.155437	-0.076035
C23	C	-0.514929	-0.155464	0.076086
C24	C	-0.453937	-0.194476	0.000024
C25	C	-0.669705	-0.118137	0.000062
C26	C	-0.314789	-0.111883	0.000089
C27	C	-0.986120	-0.268577	0.000072
C28	C	-0.987782	-0.361823	0.000066
N29	N	-0.992219	-0.115035	0.219558
C30	C	-0.912801	0.346663	0.000072
C31	C	-0.951753	0.407671	0.076117
C32	C	-0.993698	0.302533	0.000085
C33	C	-0.951793	0.407674	-0.075935
C34	C	-0.990787	0.467445	0.000074
C35	C	-1.032672	0.362312	0.076193
C36	C	-1.032701	0.362308	-0.075927
C37	C	-1.071711	0.423298	0.000136
C38	C	-0.995372	0.207530	0.000092
C39	C	-0.989119	0.562446	0.000073
N40	N	-0.992275	-0.114975	-0.219392
C41	C	-0.932581	-0.174636	0.469202
C42	C	-1.008481	-0.190943	0.531011
C43	C	-0.992240	-0.115015	0.408719
C44	C	-0.916359	-0.098727	0.531005
C45	C	-0.992253	-0.114997	0.591441
C46	C	-1.068178	-0.131360	0.469167
C47	C	-0.976007	-0.039111	0.469156
C48	C	-1.051961	-0.055386	0.530936
C49	C	-0.992231	-0.115027	0.303458
C50	C	-0.992270	-0.114985	0.696700
H51	H	-0.449461	-0.040294	-0.140243
C52	C	-0.442416	-0.028330	0.162943
C53	C	-0.381062	-0.075102	0.233099
C54	C	-0.353917	-0.028869	0.319943
C55	C	-0.388125	0.064137	0.336631
C56	C	-0.449483	0.110914	0.266473
C57	C	-0.476628	0.064680	0.179629
H58	H	-0.355735	-0.143954	0.220747
H59	H	-0.308495	-0.063497	0.371878
H60	H	-0.368031	0.098361	0.400918
H61	H	-0.474810	0.179766	0.278825
H62	H	-0.522049	0.099309	0.127694
C63	C	-0.575575	0.055144	-0.000006
C64	C	-0.634814	0.085659	0.080453
C65	C	-0.679818	0.176366	0.080358
C66	C	-0.665582	0.236558	-0.000195
C67	C	-0.606340	0.206044	-0.080660
C68	C	-0.561336	0.115337	-0.080565
H69	H	-0.645355	0.041100	0.140089
H70	H	-0.723673	0.198953	0.139924
H71	H	-0.698896	0.303704	-0.000265
H72	H	-0.595799	0.250603	-0.140296
H73	H	-0.517481	0.092750	-0.140131
H74	H	-0.917527	0.427771	0.140401
H75	H	-0.917575	0.427758	-0.140230
C76	C	-0.864496	-0.242798	0.432571
C77	C	-0.868684	-0.336250	0.457011
C78	C	-0.800604	-0.404413	0.420379
C79	C	-0.728335	-0.379125	0.359306
C80	C	-0.724144	-0.285669	0.334862
C81	C	-0.792224	-0.217506	0.371495
H82	H	-0.922184	-0.354974	0.502224
H83	H	-0.803707	-0.473595	0.438474
H84	H	-0.677938	-0.429583	0.332188
H85	H	-0.670643	-0.266945	0.289649
H86	H	-0.789121	-0.148323	0.353400
C87	C	-0.541929	-0.201605	-0.162989
C88	C	-0.635741	-0.211669	-0.179087
C89	C	-0.662751	-0.257830	-0.266043
C90	C	-0.595948	-0.293927	-0.336900
C91	C	-0.502129	-0.283864	-0.320804
C92	C	-0.475119	-0.237703	-0.233849
H93	H	-0.685199	-0.184946	-0.126632
H94	H	-0.732202	-0.265279	-0.277958
H95	H	-0.615942	-0.328098	-0.401270
H96	H	-0.452672	-0.310587	-0.373259
H97	H	-0.405668	-0.230254	-0.221934
C98	C	-1.027037	-0.277649	0.567724
C99	C	-0.962327	-0.329714	0.630201
C100	C	-0.980871	-0.416423	0.666910
C101	C	-1.064126	-0.451067	0.641143
C102	C	-1.128842	-0.399001	0.578663
C103	C	-1.110298	-0.312292	0.541954
H104	H	-0.900691	-0.304069	0.649278
H105	H	-0.932963	-0.454965	0.713162
H106	H	-1.077853	-0.515254	0.668318
H107	H	-1.190477	-0.424646	0.559586
H108	H	-1.158205	-0.273750	0.495702
C109	C	-1.078842	0.335304	0.163145
C110	C	-1.088908	0.241491	0.179240
C111	C	-1.135074	0.214480	0.266192
C112	C	-1.171173	0.281282	0.337050
C113	C	-1.161108	0.375101	0.320957
C114	C	-1.114942	0.402112	0.234005
H115	H	-1.062185	0.192035	0.126785
H116	H	-1.142525	0.145029	0.278104
H117	H	-1.205347	0.261287	0.401417
H118	H	-1.187831	0.424557	0.373412
H119	H	-1.107491	0.471563	0.222093
H120	H	-0.962240	0.025051	0.441965
H121	H	-0.852183	-0.084959	0.558170
H122	H	-0.845652	0.313356	0.000141
H123	H	-0.420779	-0.261683	-0.000023
H124	H	-1.132368	-0.145205	0.442119
C125	C	-0.542125	-0.201658	0.162932
C126	C	-0.506748	-0.294196	0.180571
C127	C	-0.533947	-0.340380	0.267426
C128	C	-0.596523	-0.294027	0.336643
C129	C	-0.631905	-0.201484	0.319006
C130	C	-0.604705	-0.155299	0.232150
H131	H	-0.460421	-0.328514	0.129330
H132	H	-0.507755	-0.408887	0.280482
H133	H	-0.616658	-0.328215	0.400939
H134	H	-0.678231	-0.167166	0.370246
H135	H	-0.630897	-0.086792	0.219095
C136	C	-1.120194	0.012742	0.567335
C137	C	-1.213597	0.008527	0.542688
C138	C	-1.281831	0.076651	0.579089
C139	C	-1.256663	0.148989	0.640137
C140	C	-1.163255	0.153207	0.664787
C141	C	-1.095021	0.085083	0.628386
H142	H	-1.232233	-0.045025	0.497494
H143	H	-1.350978	0.073528	0.560841
H144	H	-1.307174	0.199419	0.667083
H145	H	-1.144620	0.206759	0.709981
H146	H	-1.025875	0.088206	0.646634
H147	H	-1.138919	0.456457	0.000186
H148	H	-1.066897	0.342186	-0.140214
