data_functionalizedCrystal
_audit_creation_method	'MofGen! by Chris Wilmer'
_symmetry_space_group_name_H-M	'P1'
_symmetry_Int_Tables_number	1
_symmetry_cell_setting	triclinic
loop_
_symmetry_equiv_pos_as_xyz
  x,y,z
_cell_length_a	10.654550
_cell_length_b	14.519731
_cell_length_c	12.996460
_cell_angle_alpha	90.007128
_cell_angle_beta	90.009092
_cell_angle_gamma	84.086878
loop_
_atom_site_label
_atom_site_type_symbol
_atom_site_fract_x
_atom_site_fract_y
_atom_site_fract_z
O1	O	1.666611	0.129533	0.085654
O2	O	1.301015	0.141874	0.085638
O3	O	1.493492	0.001516	0.085637
O4	O	1.474134	0.269890	0.085655
O5	O	1.493472	0.001508	-0.085497
O6	O	1.300995	0.141866	-0.085496
O7	O	1.666591	0.129525	-0.085480
Cu8	Cu	1.483791	0.135694	-0.101114
Cu9	Cu	1.483815	0.135704	0.101272
O10	O	1.474114	0.269882	-0.085479
C11	C	1.254216	0.140964	0.000069
C12	C	1.114798	0.138253	0.000062
C13	C	1.034527	0.220893	0.000083
C14	C	0.903530	0.218340	0.000100
C15	C	0.933090	0.050499	0.000081
C16	C	1.064084	0.053053	0.000056
C17	C	1.085241	0.306092	0.000089
C18	C	1.004968	0.388739	0.000110
C19	C	0.873971	0.386186	0.000128
C20	C	0.823248	0.300986	0.000124
C21	C	1.492575	-0.032852	0.000070
C22	C	1.489857	-0.135246	0.000069
C23	C	1.487649	-0.218402	0.000071
C24	C	1.484889	-0.322725	0.000079
C25	C	1.482699	-0.405875	0.000086
C26	C	1.479939	-0.510205	0.000091
C27	C	1.713390	0.130435	0.000092
C28	C	1.852808	0.133146	0.000105
C29	C	1.475031	0.304250	0.000090
C30	C	1.477749	0.406645	0.000098
N31	N	1.483784	0.135687	-0.243461
C32	C	1.483813	0.135705	-0.663275
C33	C	1.483801	0.135703	-0.546470
C34	C	1.483799	0.135697	-0.453372
C35	C	1.483786	0.135694	-0.336559
N36	N	1.483832	0.135704	0.243619
H37	H	1.046276	0.458106	0.000105
C38	C	0.660043	0.456799	0.000163
C39	C	0.785732	0.477027	0.000148
H40	H	0.605572	0.512884	0.000174
H41	H	0.644679	0.421905	0.059835
H42	H	0.644633	0.421902	-0.059522
H43	H	0.801145	0.511919	0.059838
H44	H	0.801102	0.511936	-0.059530
C45	C	0.745406	-0.027936	0.000125
C46	C	0.877336	-0.043147	0.000091
H47	H	0.710991	-0.085752	0.000141
H48	H	0.717845	0.006114	-0.059544
H49	H	0.717911	0.006133	0.059812
H50	H	0.904831	-0.077211	-0.059601
H51	H	0.904909	-0.077213	0.059766
C52	C	1.080155	-0.113107	0.000064
C53	C	1.152328	-0.037785	0.000047
H54	H	1.134637	-0.169186	0.000063
H55	H	1.028427	-0.110621	-0.059603
H56	H	1.028469	-0.110602	0.059754
H57	H	1.204008	-0.040287	-0.059648
H58	H	1.204079	-0.040273	0.059719
H59	H	0.716581	0.298914	0.000122
H60	H	1.191903	0.308180	0.000079
