data_functionalizedCrystal
_audit_creation_method	'MofGen! by Chris Wilmer'
_symmetry_space_group_name_H-M	'P1'
_symmetry_Int_Tables_number	1
_symmetry_cell_setting	triclinic
loop_
_symmetry_equiv_pos_as_xyz
  x,y,z
_cell_length_a	15.995300
_cell_length_b	15.072220
_cell_length_c	15.995350
_cell_angle_alpha	89.992853
_cell_angle_beta	96.517909
_cell_angle_gamma	90.005543
loop_
_atom_site_label
_atom_site_type_symbol
_atom_site_fract_x
_atom_site_fract_y
_atom_site_fract_z
O1	O	1.111010	0.073811	-0.107732
O2	O	1.444344	0.407144	0.225602
O3	O	1.777677	0.740477	0.558935
O4	O	0.867229	0.073805	-0.121103
O5	O	1.200563	0.407138	0.212230
O6	O	1.533896	0.740471	0.545563
O7	O	0.995784	0.073807	0.007471
O8	O	1.329117	0.407140	0.340805
O9	O	1.662451	0.740474	0.674138
O10	O	0.982456	0.073808	-0.236306
O11	O	1.315789	0.407142	0.097027
O12	O	1.649123	0.740475	0.430360
O13	O	0.995775	-0.073758	0.007487
O14	O	1.329109	0.259575	0.340820
O15	O	1.662442	0.592909	0.674154
O16	O	0.867221	-0.073760	-0.121088
O17	O	1.200554	0.259573	0.212246
O18	O	1.533888	0.592906	0.545579
O19	O	1.111002	-0.073755	-0.107716
O20	O	1.444335	0.259579	0.225617
O21	O	1.777669	0.592912	0.558951
Zn22	Zn	0.989110	-0.097187	-0.114399
Zn23	Zn	1.322443	0.236147	0.218934
Zn24	Zn	1.655777	0.569480	0.552267
Zn25	Zn	0.989121	0.097237	-0.114420
Zn26	Zn	1.322455	0.430570	0.218913
Zn27	Zn	1.655788	0.763903	0.552247
O28	O	0.982448	-0.073757	-0.236291
O29	O	1.315781	0.259577	0.097043
O30	O	1.649114	0.592910	0.430376
C31	C	0.836030	0.000021	-0.120550
C32	C	1.169363	0.333355	0.212783
C33	C	1.502696	0.666688	0.546117
C34	C	0.743077	0.000019	-0.118915
C35	C	1.076410	0.333353	0.214418
C36	C	1.409744	0.666686	0.547752
N37	N	0.989109	-0.229875	-0.114385
N38	N	1.322442	0.103458	0.218948
N39	N	1.655775	0.436791	0.552282
C40	C	0.572894	0.000026	-0.115896
C41	C	0.906227	0.333359	0.217438
C42	C	1.239561	0.666693	0.550771
C43	C	0.525428	0.000025	-0.207443
C44	C	0.858762	0.333358	0.125890
C45	C	1.192095	0.666691	0.459223
C46	C	0.428740	0.000362	-0.205773
C47	C	0.762074	0.333695	0.127560
C48	C	1.095407	0.667028	0.460893
C49	C	0.405337	0.000032	-0.112924
C50	C	0.738671	0.333365	0.220410
C51	C	1.072004	0.666698	0.553743
C52	C	0.446475	0.084132	-0.067512
C53	C	0.779808	0.417466	0.265821
C54	C	1.113142	0.750799	0.599154
C55	C	0.543108	0.084201	-0.069829
C56	C	0.876442	0.417534	0.263504
C57	C	1.209775	0.750867	0.596838
C58	C	0.543378	-0.083614	-0.068456
C59	C	0.876711	0.249719	0.264877
C60	C	1.210044	0.583052	0.598211
C61	C	0.446434	-0.084717	-0.068464
C62	C	0.779767	0.248616	0.264869
C63	C	1.113100	0.581949	0.598202
C64	C	0.310642	0.000038	-0.111239
C65	C	0.643975	0.333371	0.222094
C66	C	0.977309	0.666705	0.555427
C67	C	0.667590	0.000026	-0.117577
C68	C	1.000923	0.333359	0.215756
C69	C	1.334256	0.666693	0.549089
C70	C	0.989122	-0.589077	-0.114413
C71	C	1.322455	-0.255744	0.218920
C72	C	1.655789	0.077590	0.552253
C73	C	1.058132	-0.551441	-0.045845
C74	C	1.391465	-0.218108	0.287488
C75	C	1.724799	0.115226	0.620821
C76	C	1.057952	-0.448616	-0.045592
C77	C	1.391285	-0.115282	0.287741
C78	C	1.724619	0.218051	0.621074
C79	C	0.989116	-0.410873	-0.114399
C80	C	1.322449	-0.077540	0.218934
C81	C	1.655783	0.255794	0.552267
C82	C	0.901757	-0.448218	-0.095334
C83	C	1.235090	-0.114885	0.237999
C84	C	1.568424	0.218449	0.571332
C85	C	0.902166	-0.551076	-0.094850
C86	C	1.235499	-0.217742	0.238483
C87	C	1.568832	0.115591	0.571817
C88	C	1.006684	-0.551153	-0.202249
C89	C	1.340017	-0.217819	0.131085
C90	C	1.673351	0.115514	0.464418
C91	C	1.008667	-0.448288	-0.201660
C92	C	1.342000	-0.114955	0.131674
C93	C	1.675333	0.218378	0.465007
C94	C	0.989107	-0.310160	-0.114393
C95	C	1.322441	0.023174	0.218940
C96	C	1.655774	0.356507	0.552274
C97	C	0.989125	-0.689790	-0.114418
C98	C	1.322458	-0.356457	0.218915
C99	C	1.655792	-0.023124	0.552249
C100	C	1.142202	0.000031	-0.108269
C101	C	1.475535	0.333364	0.225064
C102	C	1.808868	0.666697	0.558397
C103	C	1.235154	0.000039	-0.109904
C104	C	1.568488	0.333372	0.223429
C105	C	1.901821	0.666705	0.556762
C106	C	0.995229	0.000026	0.038674
C107	C	1.328562	0.333359	0.372007
C108	C	1.661895	0.666693	0.705340
C109	C	0.993577	0.000031	0.131624
C110	C	1.326910	0.333364	0.464957
C111	C	1.660243	0.666698	0.798291
N112	N	0.989129	0.229926	-0.114428
N113	N	1.322463	0.563259	0.218906
N114	N	1.655796	0.896592	0.552239
C115	C	0.983003	0.000026	-0.267493
C116	C	1.316336	0.333359	0.065840
C117	C	1.649669	0.666693	0.399174
C118	C	0.984655	0.000027	-0.360443
C119	C	1.317988	0.333360	-0.027110
C120	C	1.651321	0.666694	0.306223
C121	C	0.987644	0.000028	0.469370
C122	C	1.320978	0.333361	0.802704
C123	C	1.654311	0.666695	1.136037
C124	C	0.896090	0.000357	0.421920
C125	C	1.229424	0.333690	0.755253
C126	C	1.562757	0.667023	1.088586
C127	C	0.897743	0.000024	0.325230
C128	C	1.231076	0.333357	0.658563
C129	C	1.564409	0.666691	0.991897
C130	C	0.990587	0.000030	0.301810
C131	C	1.323920	0.333363	0.635144
C132	C	1.657254	0.666697	0.968477
C133	C	1.035740	-0.084234	0.342905
C134	C	1.369073	0.249099	0.676238
C135	C	1.702407	0.582432	1.009571
C136	C	1.033440	-0.084305	0.439540
C137	C	1.366773	0.249028	0.772874
C138	C	1.700107	0.582362	1.106207
C139	C	1.035341	0.083504	0.439881
C140	C	1.368674	0.416838	0.773214
C141	C	1.702008	0.750171	1.106548
C142	C	1.035319	0.084618	0.342936
C143	C	1.368653	0.417951	0.676269
C144	C	1.701986	0.751285	1.009602
C145	C	0.992255	0.000028	0.207113
C146	C	1.325588	0.333362	0.540446
C147	C	1.658922	0.666695	0.873780
C148	C	0.985979	0.000024	0.564068
C149	C	1.319313	0.333357	0.897401
C150	C	1.652646	0.666690	1.230735
H151	H	0.400274	-0.059911	-0.241456
H152	H	0.733607	0.273422	0.091877
H153	H	1.066940	0.606756	0.425210
F154	F	1.123571	0.084252	0.481411
F155	F	1.456904	0.417586	0.814744
F156	F	1.790237	0.750919	1.148078
F157	F	1.121296	-0.089306	0.481710
F158	F	1.454629	0.244027	0.815043
F159	F	1.787962	0.577361	1.148376
H160	H	0.862249	0.060428	0.296795
H161	H	1.195582	0.393761	0.630128
H162	H	1.528916	0.727095	0.963462
F163	F	0.994741	-0.166203	0.305812
F164	F	1.328074	0.167130	0.639146
F165	F	1.661408	0.500463	0.972479
F166	F	0.584930	-0.084683	0.019762
F167	F	0.918263	0.248650	0.353095
F168	F	1.251597	0.581984	0.686429
F169	F	0.551059	0.078735	-0.254825
F170	F	0.884392	0.412069	0.078508
F171	F	1.217726	0.745402	0.411841
H172	H	0.859501	0.060784	0.440439
H173	H	1.192834	0.394117	0.773772
H174	H	1.526167	0.727451	1.107105
F175	F	0.550005	-0.078485	-0.255703
F176	F	0.883338	0.254849	0.077630
F177	F	1.216671	0.588182	0.410963
F178	F	0.585294	0.088892	0.018036
F179	F	0.918628	0.422225	0.351369
F180	F	1.251961	0.755558	0.684702
F181	F	0.392342	0.079622	-0.252227
F182	F	0.725675	0.412955	0.081106
F183	F	1.059009	0.746289	0.414439
F184	F	0.570168	-0.166959	-0.107842
F185	F	0.903501	0.166374	0.225492
F186	F	1.236835	0.499707	0.558825
F187	F	0.410694	-0.166044	-0.111807
F188	F	0.744027	0.167289	0.221527
F189	F	1.077361	0.500623	0.554860
H190	H	1.005411	0.147372	0.460409
H191	H	1.338744	0.480705	0.793742
H192	H	1.672078	0.814038	1.127075
H193	H	0.561431	0.147305	-0.102570
H194	H	0.894764	0.480639	0.230763
H195	H	1.228098	0.813972	0.564097
H196	H	1.103026	0.089710	0.327585
H197	H	1.436359	0.423043	0.660919
H198	H	1.769692	0.756377	0.994252
F199	F	0.848345	-0.077973	0.447811
F200	F	1.181678	0.255360	0.781145
F201	F	1.515011	0.588694	1.114478
H202	H	0.431095	-0.090045	-0.000770
H203	H	0.764428	0.243289	0.332564
H204	H	1.097762	0.576622	0.665897
H205	H	1.002307	0.146954	0.315674
H206	H	1.335640	0.480288	0.649008
H207	H	1.668973	0.813621	0.982341
H208	H	0.862004	-0.060485	0.297365
H209	H	1.195337	0.272849	0.630698
H210	H	1.528670	0.606182	0.964032
F211	F	0.428047	0.087915	0.021661
F212	F	0.761380	0.421248	0.354994
F213	F	1.094714	0.754581	0.688327
H214	H	0.961660	-0.422594	-0.255073
H215	H	1.294994	-0.089261	0.078260
H216	H	1.628327	0.244072	0.411593
H217	H	1.123288	-0.576169	-0.057012
H218	H	1.456621	-0.242836	0.276321
H219	H	1.789954	0.090498	0.609655
H220	H	0.956360	-0.575496	-0.253275
H221	H	1.289694	-0.242163	0.080058
H222	H	1.623027	0.091170	0.413391
H223	H	0.418093	0.146956	-0.098658
H224	H	0.751427	0.480289	0.234675
H225	H	1.084760	0.813622	0.568009
H226	H	1.122890	-0.423365	-0.056942
H227	H	1.456223	-0.090032	0.276391
H228	H	1.789556	0.243302	0.609724
F229	F	0.881027	-0.414563	-0.012560
F230	F	1.214360	-0.081229	0.320773
F231	F	1.547693	0.252104	0.654107
H232	H	1.047075	-0.577300	0.018969
H233	H	1.380409	-0.243967	0.352302
H234	H	1.713742	0.089366	0.685635
H235	H	0.849167	-0.423772	-0.143947
H236	H	1.182500	-0.090439	0.189387
H237	H	1.515833	0.242895	0.522720
H238	H	1.046731	-0.424019	0.019592
H239	H	1.380064	-0.090685	0.352925
H240	H	1.713398	0.242648	0.686258
H241	H	1.000507	-0.147298	0.457842
H242	H	1.333841	0.186036	0.791176
H243	H	1.667174	0.519369	1.124509
H244	H	1.103950	-0.087364	0.328792
H245	H	1.437283	0.245970	0.662125
H246	H	1.770617	0.579303	0.995458
F247	F	0.881935	-0.582449	-0.011123
F248	F	1.215268	-0.249116	0.322210
F249	F	1.548602	0.084217	0.655544
H250	H	0.849271	-0.575974	-0.142894
H251	H	1.182604	-0.242640	0.190440
H252	H	1.515937	0.090693	0.523773
F253	F	1.088172	-0.585040	-0.226201
F254	F	1.421505	-0.251706	0.107132
F255	F	1.754838	0.081627	0.440466
H256	H	1.072931	-0.423880	-0.216127
H257	H	1.406265	-0.090546	0.117207
H258	H	1.739598	0.242787	0.450540
