data_functionalizedCrystal
_audit_creation_method	'MofGen! by Chris Wilmer'
_symmetry_space_group_name_H-M	'P1'
_symmetry_Int_Tables_number	1
_symmetry_cell_setting	triclinic
loop_
_symmetry_equiv_pos_as_xyz
  x,y,z
_cell_length_a	16.109302
_cell_length_b	9.482900
_cell_length_c	16.109301
_cell_angle_alpha	99.330319
_cell_angle_beta	96.538369
_cell_angle_gamma	99.288686
loop_
_atom_site_label
_atom_site_type_symbol
_atom_site_fract_x
_atom_site_fract_y
_atom_site_fract_z
O1	O	1.116101	0.120965	-0.093841
O2	O	1.616101	0.620965	0.406159
O3	O	0.874038	0.120954	-0.107141
O4	O	1.374038	0.620954	0.392859
O5	O	1.001717	0.120945	0.020538
O6	O	1.501717	0.620945	0.520538
O7	O	0.988421	0.120974	-0.221521
O8	O	1.488421	0.620974	0.278479
O9	O	0.975783	-0.120845	-0.005500
O10	O	1.475783	0.379155	0.494500
O11	O	0.848103	-0.120836	-0.133180
O12	O	1.348103	0.379164	0.366820
O13	O	1.090166	-0.120826	-0.119880
O14	O	1.590166	0.379174	0.380120
Cu15	Cu	0.966767	-0.142908	-0.128907
Cu16	Cu	1.466767	0.357092	0.371093
Cu17	Cu	0.997437	0.143037	-0.098114
Cu18	Cu	1.497437	0.643037	0.401886
O19	O	0.962487	-0.120816	-0.247559
O20	O	1.462487	0.379184	0.252441
C21	C	0.830095	0.000057	-0.119622
C22	C	1.330095	0.500057	0.380378
C23	C	0.737800	0.000053	-0.118007
C24	C	1.237800	0.500053	0.381993
C25	C	0.511323	-0.131733	-0.128464
C26	C	1.011323	0.368267	0.371536
C27	C	0.424604	-0.131728	-0.126937
C28	C	0.924604	0.368272	0.373063
C29	C	0.452890	0.131885	-0.098552
C30	C	0.952890	0.631885	0.401448
C31	C	0.539608	0.131879	-0.100074
C32	C	1.039608	0.631879	0.399926
C33	C	0.568822	0.000065	-0.115034
C34	C	1.068822	0.500065	0.384966
C35	C	0.395384	0.000076	-0.111985
C36	C	0.895384	0.500076	0.388015
C37	C	0.301359	0.000083	-0.110329
C38	C	0.801359	0.500083	0.389671
C39	C	0.662853	0.000058	-0.116689
C40	C	1.162853	0.500058	0.383311
N41	N	0.945200	-0.344027	-0.150565
N42	N	1.445200	0.155973	0.349435
C43	C	0.991070	-0.416229	-0.104497
C44	C	1.491070	0.083771	0.395503
C45	C	0.973133	-0.583646	-0.122524
C46	C	1.473133	-0.083646	0.377476
C47	C	1.134109	0.000075	-0.107399
C48	C	1.634109	0.500075	0.392601
C49	C	1.226406	0.000089	-0.109013
C50	C	1.726406	0.500089	0.390987
C51	C	0.988211	0.000049	0.038494
C52	C	1.488211	0.500049	0.538494
C53	C	0.986596	0.000047	0.130789
C54	C	1.486596	0.500047	0.630789
N55	N	1.019010	0.344156	-0.076449
N56	N	1.519010	0.844156	0.423551
C57	C	0.975993	0.000083	-0.265514
C58	C	1.475993	0.500083	0.234486
C59	C	0.977609	0.000095	-0.357808
C60	C	1.477609	0.500095	0.142192
C61	C	1.058606	0.000073	0.353064
C62	C	1.558606	0.500073	0.853064
C63	C	1.057084	0.000085	0.439786
C64	C	1.557084	0.500085	0.939786
C65	C	0.905594	0.000073	0.419910
C66	C	1.405594	0.500073	0.919910
C67	C	0.907118	0.000071	0.333191
C68	C	1.407118	0.500071	0.833191
C69	C	0.983626	0.000064	0.299770
C70	C	1.483626	0.500064	0.799770
C71	C	0.980579	0.000077	0.473210
C72	C	1.480579	0.500077	0.973210
C73	C	0.978927	0.000090	0.567238
C74	C	1.478927	0.500090	1.067238
C75	C	0.985279	0.000054	0.205737
C76	C	1.485279	0.500054	0.705737
H77	H	0.586427	0.239211	-0.089135
H78	H	1.086427	0.739211	0.410865
F79	F	1.087841	-0.574655	-0.007587
F80	F	1.587841	-0.074655	0.492413
H81	H	0.535105	-0.239064	-0.140646
H82	H	1.035105	0.260936	0.359354
H83	H	1.120904	0.000071	0.325856
H84	H	1.620904	0.500071	0.825856
H85	H	0.429093	0.239203	-0.086373
H86	H	0.929093	0.739203	0.413627
H87	H	0.892647	-0.406153	-0.203348
H88	H	1.392647	0.093847	0.296652
H89	H	0.843303	0.000076	0.447133
H90	H	1.343303	0.500076	0.947133
F91	F	1.136888	0.000098	0.496502
F92	F	1.636888	0.500098	0.996502
H93	H	0.846057	0.000068	0.289797
H94	H	1.346057	0.500068	0.789797
F95	F	0.904437	-0.664838	-0.191520
F96	F	1.404437	-0.164838	0.308480
F97	F	1.059611	-0.335032	-0.035354
F98	F	1.559611	0.164968	0.464646
F99	F	0.363412	-0.272007	-0.141231
F100	F	0.863412	0.227993	0.358769
