data_functionalizedCrystal
_audit_creation_method	'MofGen! by Chris Wilmer'
_symmetry_space_group_name_H-M	'P1'
_symmetry_Int_Tables_number	1
_symmetry_cell_setting	triclinic
loop_
_symmetry_equiv_pos_as_xyz
  x,y,z
_cell_length_a	10.654550
_cell_length_b	16.098524
_cell_length_c	10.654550
_cell_angle_alpha	86.959395
_cell_angle_beta	95.515069
_cell_angle_gamma	93.037586
loop_
_atom_site_label
_atom_site_type_symbol
_atom_site_fract_x
_atom_site_fract_y
_atom_site_fract_z
O1	O	1.672894	0.069194	-0.181451
O2	O	1.307416	0.069209	-0.198258
O3	O	1.498558	0.069196	-0.007115
O4	O	1.481752	0.069207	-0.372594
O5	O	1.488427	-0.069317	0.003004
O6	O	1.297286	-0.069304	-0.188139
O7	O	1.662763	-0.069319	-0.171332
Zn8	Zn	1.478416	-0.091303	-0.178129
Zn9	Zn	1.491763	0.091194	-0.191461
O10	O	1.471622	-0.069306	-0.362475
C11	C	1.255553	-0.000045	-0.191965
C12	C	1.116110	-0.000040	-0.188273
N13	N	1.469316	-0.215853	-0.169030
C14	C	1.036625	-0.000038	-0.300815
C15	C	0.905603	-0.000053	-0.297337
C16	C	0.933565	-0.000066	-0.068767
C17	C	1.064584	-0.000058	-0.072245
C18	C	1.542963	-0.259435	-0.242730
C19	C	1.536614	-0.346625	-0.236356
C20	C	1.456610	-0.390230	-0.156289
C21	C	1.382960	-0.346641	-0.082581
C22	C	1.389316	-0.259454	-0.088948
C23	C	1.433580	-0.653481	-0.133210
C24	C	1.427226	-0.740674	-0.126851
C25	C	1.580883	-0.740652	-0.280625
C26	C	1.587226	-0.653462	-0.286991
C27	C	1.513581	-0.609881	-0.213278
C28	C	1.450115	-0.479351	-0.149775
C29	C	1.520083	-0.520762	-0.219786
C30	C	1.714626	-0.000063	-0.177625
C31	C	1.854069	-0.000063	-0.181317
C32	C	1.492258	-0.000060	0.044743
C33	C	1.488566	-0.000058	0.184186
N34	N	1.500873	0.215743	-0.200550
C35	C	1.477921	-0.000048	-0.414333
C36	C	1.481613	-0.000044	-0.553776
C37	C	1.601108	-0.000063	0.263672
C38	C	1.597632	-0.000053	0.394692
C39	C	1.369064	-0.000037	0.366727
C40	C	1.372541	-0.000041	0.235709
H41	H	1.078572	-0.000030	-0.395292
H42	H	0.891596	-0.000086	0.025700
F43	F	1.342072	-0.787080	-0.041627
H44	H	1.129305	-0.000061	0.019406
H45	H	0.840890	-0.000054	-0.388980
H46	H	1.695583	-0.000075	0.221726
H47	H	1.280891	-0.000035	0.170988
H48	H	1.274599	-0.000025	0.408695
H49	H	1.608103	-0.223938	-0.307937
F50	F	1.659257	-0.787040	-0.359069
H51	H	1.596588	-0.382106	-0.296368
H52	H	1.373613	-0.618007	-0.073187
F53	F	1.672336	-0.607061	-0.372252
F54	F	1.297816	-0.393051	0.002637
H55	H	1.329344	-0.223970	-0.028934
H56	H	1.585227	-0.485255	-0.284972
F57	F	1.364963	-0.525766	-0.064571
H58	H	1.689275	-0.000054	0.459405
