data_functionalizedCrystal
_audit_creation_method	'MofGen! by Chris Wilmer'
_symmetry_space_group_name_H-M	'P1'
_symmetry_Int_Tables_number	1
_symmetry_cell_setting	triclinic
loop_
_symmetry_equiv_pos_as_xyz
  x,y,z
_cell_length_a	17.038272
_cell_length_b	19.188925
_cell_length_c	15.500227
_cell_angle_alpha	92.818783
_cell_angle_beta	86.956295
_cell_angle_gamma	87.127053
loop_
_atom_site_label
_atom_site_type_symbol
_atom_site_fract_x
_atom_site_fract_y
_atom_site_fract_z
O1	O	1.040531	0.148565	-0.071835
O2	O	1.540531	0.648565	0.428165
O3	O	0.812910	0.146157	-0.071860
O4	O	1.312910	0.646157	0.428140
O5	O	0.933291	0.046114	-0.071842
O6	O	1.433291	0.546114	0.428158
O7	O	0.920150	0.248609	-0.071853
O8	O	1.420150	0.748609	0.428147
O9	O	0.925986	0.052159	0.072046
O10	O	1.425986	0.552159	0.572046
O11	O	0.805605	0.152203	0.072027
O12	O	1.305605	0.652203	0.572027
O13	O	1.033226	0.154611	0.072053
O14	O	1.533226	0.654611	0.572053
Cu15	Cu	0.918748	0.153959	0.085178
Cu16	Cu	1.418748	0.653959	0.585178
Cu17	Cu	0.927387	0.146809	-0.084985
Cu18	Cu	1.427387	0.646809	0.415015
O19	O	0.912845	0.254654	0.072035
O20	O	1.412845	0.754654	0.572035
C21	C	0.780136	0.146991	0.000080
C22	C	1.280136	0.646991	0.500080
C23	C	0.693364	0.140459	0.000071
C24	C	1.193364	0.640459	0.500071
C25	C	0.643061	0.200425	0.000068
C26	C	1.143061	0.700425	0.500068
C27	C	0.561529	0.194285	0.000080
C28	C	1.061529	0.694285	0.500080
C29	C	0.530302	0.128177	0.000089
C30	C	1.030302	0.628177	0.500089
C31	C	0.580611	0.068206	0.000094
C32	C	1.080611	0.568206	0.500094
C33	C	0.662141	0.074347	0.000088
C34	C	1.162141	0.574347	0.500088
C35	C	0.284611	0.106480	0.000114
C36	C	0.784611	0.606480	0.500114
C37	C	0.203075	0.100342	0.000117
C38	C	0.703075	0.600342	0.500117
C39	C	0.183999	0.226422	0.000105
C40	C	0.683999	0.726422	0.500105
C41	C	0.265531	0.232558	0.000093
C42	C	0.765531	0.732558	0.500093
C43	C	0.315833	0.172587	0.000103
C44	C	0.815833	0.672587	0.500103
C45	C	0.446964	0.121898	0.000099
C46	C	0.946964	0.621898	0.500099
C47	C	0.399169	0.178866	0.000100
C48	C	0.899169	0.678866	0.500100
C49	C	0.929214	0.023099	0.000101
C50	C	1.429214	0.523099	0.500101
C51	C	0.927939	-0.054485	0.000099
C52	C	1.427939	0.445515	0.500099
C53	C	0.990036	-0.612398	0.000085
C54	C	1.490036	-0.112398	0.500085
C55	C	0.991240	-0.539500	0.000093
C56	C	1.491240	-0.039500	0.500093
C57	C	0.920604	-0.498954	0.000084
C58	C	1.420604	0.001046	0.500084
C59	C	0.848757	-0.531311	0.000090
C60	C	1.348757	-0.031311	0.500090
C61	C	0.847554	-0.604208	0.000091
C62	C	1.347554	-0.104208	0.500091
N63	N	0.871953	-0.383508	-0.048897
N64	N	1.371953	0.116492	0.451103
N65	N	0.873101	-0.314260	-0.048899
N66	N	1.373101	0.185740	0.451101
C67	C	0.924225	-0.279320	0.000084
C68	C	1.424225	0.220680	0.500084
N69	N	0.974170	-0.316245	0.049060
N70	N	1.474170	0.183755	0.549060
N71	N	0.973025	-0.385501	0.049058
N72	N	1.473025	0.114499	0.549058
C73	C	0.921901	-0.419909	0.000084
C74	C	1.421901	0.080091	0.500084
C75	C	0.997374	-0.167926	0.000093
C76	C	1.497374	0.332074	0.500093
C77	C	0.998575	-0.095026	0.000106
C78	C	1.498575	0.404974	0.500106
C79	C	0.856090	-0.086839	0.000095
C80	C	1.356090	0.413161	0.500095
C81	C	0.854890	-0.159738	0.000091
C82	C	1.354890	0.340262	0.500091
C83	C	0.925535	-0.200277	0.000085
C84	C	1.425535	0.299723	0.500085
C85	C	1.066000	0.153777	0.000110
C86	C	1.566000	0.653777	0.500110
C87	C	1.152772	0.160309	0.000114
C88	C	1.652772	0.660309	0.500114
C89	C	0.916922	0.277669	0.000090
C90	C	1.416922	0.777669	0.500090
C91	C	0.918198	0.355253	0.000086
C92	C	1.418198	0.855253	0.500086
N93	N	0.912678	0.158987	0.204862
N94	N	1.412678	0.658987	0.704862
N95	N	0.933464	0.141776	-0.204669
N96	N	1.433464	0.641776	0.295331
C97	C	0.963706	0.116613	0.250147
C98	C	1.463706	0.616613	0.750147
C99	C	0.959122	0.120423	0.340719
C100	C	1.459122	0.620423	0.840719
C101	C	0.903513	0.166611	0.386005
C102	C	1.403513	0.666611	0.886005
C103	C	0.852481	0.208986	0.340714
C104	C	1.352481	0.708986	0.840714
C105	C	0.857061	0.205173	0.250144
C106	C	1.357061	0.705173	0.750144
C107	C	0.887012	0.180338	0.659469
C108	C	1.387012	0.680338	1.159469
C109	C	0.882437	0.184150	0.750046
C110	C	1.382437	0.684150	1.250046
C111	C	0.989077	0.095585	0.750045
C112	C	1.489077	0.595585	1.250045
C113	C	0.993656	0.091778	0.659472
C114	C	1.493656	0.591778	1.159472
C115	C	0.942621	0.134151	0.614189
C116	C	1.442621	0.634151	1.114189
C117	C	0.898828	0.170507	0.478584
C118	C	1.398828	0.670507	0.978584
C119	C	0.947303	0.130250	0.521612
C120	C	1.447303	0.630250	1.021612
H121	H	0.520575	0.243116	0.000077
H122	H	1.020575	0.743116	0.500077
O123	O	0.831976	0.226049	0.610638
O124	O	1.331976	0.726049	1.110638
H125	H	0.796166	0.192654	0.569391
H126	H	1.296166	0.692654	1.069391
H127	H	0.791244	-0.498294	0.000086
H128	H	1.291244	0.001706	0.500086
H129	H	0.421528	0.068074	0.000131
H130	H	0.921528	0.568074	0.500131
O131	O	0.779905	-0.043112	0.000091
O132	O	1.279905	0.456888	0.500091
H133	H	0.742544	-0.052675	0.058741
H134	H	1.242544	0.447325	0.558741
O135	O	0.777408	-0.194637	0.000083
O136	O	1.277408	0.305363	0.500083
H137	H	0.728492	-0.154198	0.000073
H138	H	1.228492	0.345802	0.500073
H139	H	1.008991	0.079005	0.213281
H140	H	1.508991	0.579005	0.713281
H141	H	0.789053	-0.630546	0.000094
H142	H	1.289053	-0.130546	0.500094
H143	H	1.000672	0.085918	0.377589
H144	H	1.500672	0.585918	0.877589
O145	O	1.068725	-0.504595	0.000079
O146	O	1.568725	-0.004595	0.500079
H147	H	1.117646	-0.545032	0.000068
H148	H	1.617646	-0.045032	0.500068
O149	O	1.073562	-0.211658	0.000104
O150	O	1.573562	0.288342	0.500104
H151	H	1.123719	-0.176912	0.000121
H152	H	1.623719	0.323088	0.500121
H153	H	1.047560	-0.645401	0.000085
H154	H	1.547560	-0.145401	0.500085
H155	H	0.807199	0.246591	0.377591
H156	H	1.307199	0.746591	0.877591
O157	O	0.838858	0.220327	0.527435
O158	O	1.338858	0.720327	1.027435
H159	H	0.804140	0.249155	0.480733
H160	H	1.304140	0.749155	0.980733
H161	H	0.290950	0.286389	0.000076
H162	H	0.790950	0.786389	0.500076
H163	H	0.815508	0.239677	0.213274
H164	H	1.315508	0.739677	0.713274
H165	H	0.668479	0.254257	0.000060
H166	H	1.168479	0.754257	0.500060
H167	H	0.837151	0.221764	0.786914
H168	H	1.337151	0.721764	1.286914
O169	O	0.169396	0.029035	0.000133
O170	O	0.669396	0.529035	0.500133
H171	H	0.129731	0.025696	0.058779
H172	H	0.629731	0.525696	0.558779
O173	O	1.076062	-0.060129	0.000094
O174	O	1.576062	0.439871	0.500094
H175	H	1.124979	-0.100569	0.000078
H176	H	1.624979	0.399431	0.500078
O177	O	1.053627	0.041955	0.610627
O178	O	1.553627	0.541955	1.110627
H179	H	1.088335	0.013123	0.657333
H180	H	1.588335	0.513123	1.157333
O181	O	1.044115	0.049877	0.798883
O182	O	1.544115	0.549877	1.298883
H183	H	1.031586	0.060282	0.869470
H184	H	1.531586	0.560282	1.369470
H185	H	0.992576	0.092641	0.484737
H186	H	1.492576	0.592641	0.984737
H187	H	0.325558	0.057647	0.000122
H188	H	0.825558	0.557647	0.500122
O189	O	0.129742	0.291101	0.000113
O190	O	0.629742	0.791101	0.500113
H191	H	0.095100	0.288857	-0.058524
H192	H	0.595100	0.788857	0.441476
O193	O	0.546936	-0.003098	0.000111
O194	O	1.046936	0.496902	0.500111
H195	H	0.513222	-0.011383	-0.058535
H196	H	1.013222	0.488617	0.441465
O197	O	0.716403	0.009670	0.000089
O198	O	1.216403	0.509670	0.500089
H199	H	0.680994	-0.037331	0.000088
H200	H	1.180994	0.462669	0.500088
H201	H	0.424598	0.232691	0.000097
H202	H	0.924598	0.732691	0.500097
