data_functionalizedCrystal
_audit_creation_method	'MofGen! by Chris Wilmer'
_symmetry_space_group_name_H-M	'P1'
_symmetry_Int_Tables_number	1
_symmetry_cell_setting	triclinic
loop_
_symmetry_equiv_pos_as_xyz
  x,y,z
_cell_length_a	14.908571
_cell_length_b	18.050589
_cell_length_c	14.909241
_cell_angle_alpha	93.322478
_cell_angle_beta	96.789245
_cell_angle_gamma	86.724558
loop_
_atom_site_label
_atom_site_type_symbol
_atom_site_fract_x
_atom_site_fract_y
_atom_site_fract_z
Zn1	Zn	1.413308	-0.334777	0.591538
Zn2	Zn	1.913308	0.165223	1.091538
Zn3	Zn	1.404449	-0.465749	0.440176
Zn4	Zn	1.904449	0.034251	0.940176
Zn5	Zn	1.253204	-0.334795	0.431470
Zn6	Zn	1.753204	0.165205	0.931470
Zn7	Zn	1.261888	-0.452143	0.582777
Zn8	Zn	1.761888	0.047857	1.082777
O9	O	1.333212	-0.396866	0.511490
O10	O	1.833212	0.103134	1.011490
O11	O	1.538799	-0.357838	0.578770
O12	O	2.038799	0.142162	1.078770
O13	O	1.377044	-0.454079	0.312353
O14	O	1.877044	0.045921	0.812353
O15	O	1.274515	-0.230871	0.452726
O16	O	1.774515	0.269129	0.952726
O17	O	1.532290	-0.454062	0.467565
O18	O	2.032290	0.045938	0.967565
O19	O	1.392143	-0.230858	0.570328
O20	O	1.892143	0.269142	1.070328
O21	O	1.265925	-0.357868	0.305956
O22	O	1.765925	0.142132	0.805956
O23	O	1.127690	-0.344675	0.444231
O24	O	1.627690	0.155325	0.944231
O25	O	1.289316	-0.430872	0.710608
O26	O	1.789316	0.069128	1.210608
O27	O	1.134070	-0.430890	0.555396
O28	O	1.634070	0.069110	1.055396
O29	O	1.400563	-0.344644	0.717045
O30	O	1.900563	0.155356	1.217045
O31	O	1.385465	-0.567866	0.459070
O32	O	1.885465	-0.067866	0.959070
O33	O	1.280726	-0.557870	0.563838
O34	O	1.780726	-0.057870	1.063838
C35	C	1.098037	-0.386308	0.497918
C36	C	1.598037	0.113692	0.997918
C37	C	0.997429	-0.381809	0.492134
C38	C	1.497429	0.118191	0.992134
C39	C	0.815059	-0.463283	0.596864
C40	C	1.315059	0.036717	1.096864
C41	C	0.720529	-0.459057	0.591432
C42	C	1.220529	0.040943	1.091432
C43	C	0.713838	-0.369128	0.475843
C44	C	1.213838	0.130872	0.975843
C45	C	0.808368	-0.373354	0.481275
C46	C	1.308368	0.126646	0.981275
C47	C	0.858975	-0.420434	0.541787
C48	C	1.358975	0.079566	1.041787
C49	C	0.953506	-0.424663	0.547214
C50	C	1.453506	0.075337	1.047214
C51	C	0.946813	-0.334730	0.431629
C52	C	1.446813	0.165270	0.931629
C53	C	0.852284	-0.330505	0.426197
C54	C	1.352284	0.169495	0.926197
C55	C	1.333102	-0.589814	0.511469
C56	C	1.833102	-0.089814	1.011469
C57	C	1.333139	-0.672360	0.511495
C58	C	1.833139	-0.172360	1.011495
C59	C	1.276241	-0.866405	0.568450
C60	C	1.776241	-0.366405	1.068450
C61	C	1.249408	-0.918557	0.484582
C62	C	1.749408	-0.418557	0.984582
C63	C	1.333229	-0.823494	0.511512
C64	C	1.833229	-0.323494	1.011512
C65	C	1.360107	-0.918425	0.595392
C66	C	1.860107	-0.418425	1.095392
C67	C	1.333314	-0.969482	0.511536
C68	C	1.833314	-0.469482	1.011536
C69	C	1.306350	-0.874559	0.427598
C70	C	1.806350	-0.374559	0.927598
C71	C	1.417091	-0.874422	0.538465
C72	C	1.917091	-0.374422	1.038465
C73	C	1.390286	-0.926555	0.454542
C74	C	1.890286	-0.426555	0.954542
C75	C	1.333178	-0.739394	0.511500
C76	C	1.833178	-0.239394	1.011500
C77	C	1.333365	-1.053581	0.511539
C78	C	1.833365	-0.553581	1.011539
C79	C	1.569306	-0.407465	0.525116
C80	C	2.069306	0.092535	1.025116
C81	C	1.669915	-0.411982	0.530922
C82	C	2.169915	0.088018	1.030922
C83	C	1.346897	-0.386238	0.747588
C84	C	1.846897	0.113762	1.247588
C85	C	1.352728	-0.381710	0.848199
C86	C	1.852728	0.118290	1.348199
C87	C	1.333349	-0.203165	0.511533
C88	C	1.833349	0.296835	1.011533
C89	C	1.333407	-0.120621	0.511551
C90	C	1.833407	0.379379	1.011551
C91	C	1.319633	-0.407401	0.276314
C92	C	1.819633	0.092599	0.776314
C93	C	1.313977	-0.411728	0.175714
C94	C	1.813977	0.088272	0.675714
C95	C	1.247847	-0.463006	1.030557
C96	C	1.747847	0.036994	1.530557
C97	C	1.253323	-0.458753	1.125090
C98	C	1.753323	0.041247	1.625090
C99	C	1.369161	-0.368955	1.131799
C100	C	1.869161	0.131045	1.631799
C101	C	1.363685	-0.373208	1.037267
C102	C	1.863685	0.126792	1.537267
C103	C	1.303024	-0.420234	0.986649
C104	C	1.803024	0.079766	1.486649
C105	C	1.297544	-0.424483	0.892114
C106	C	1.797544	0.075517	1.392114
C107	C	1.413386	-0.334690	0.898825
C108	C	1.913386	0.165310	1.398825
C109	C	1.418863	-0.330437	0.993358
C110	C	1.918863	0.169563	1.493358
H111	H	0.811066	-0.292172	0.376933
H112	H	1.311066	0.207828	0.876933
N113	N	1.196956	-0.502429	1.169955
N114	N	1.696956	-0.002429	1.669955
N115	N	1.201849	-0.498624	1.254359
N116	N	1.701849	0.001376	1.754359
H117	H	1.162039	-0.529472	1.286047
H118	H	1.662039	-0.029472	1.786047
N119	N	1.431126	-0.320939	1.183527
N120	N	1.931126	0.179061	1.683527
N121	N	1.436012	-0.317158	1.267930
N122	N	1.936012	0.182842	1.767930
H123	H	1.479778	-0.283248	1.304465
H124	H	1.979778	0.216752	1.804465
N125	N	1.505985	-0.849959	0.567105
N126	N	2.005985	-0.349959	1.067105
N127	N	1.519428	-0.806798	0.635431
N128	N	2.019428	-0.306798	1.135431
H129	H	1.582210	-0.789519	0.655670
H130	H	2.082210	-0.289519	1.155670
N131	N	1.215704	-0.833486	0.628773
N132	N	1.715704	-0.333486	1.128773
N133	N	1.227798	-0.846838	0.710777
N134	N	1.727798	-0.346838	1.210777
H135	H	1.185044	-0.823587	0.753377
H136	H	1.685044	-0.323587	1.253377
N137	N	1.160492	-0.943007	0.455996
N138	N	1.660492	-0.443007	0.955996
N139	N	1.146446	-1.010815	0.450793
N140	N	1.646446	-0.510815	0.950793
H141	H	1.083648	-1.028081	0.430608
H142	H	1.583648	-0.528081	0.930608
H143	H	1.283569	-0.855288	0.356647
H144	H	1.783569	-0.355288	0.856647
N145	N	1.388571	-0.942711	0.684370
N146	N	1.888571	-0.442711	1.184370
N147	N	1.344332	-0.921761	0.748220
N148	N	1.844332	-0.421761	1.248220
H149	H	1.364427	-0.938911	0.811062
H150	H	1.864427	-0.438911	1.311062
H151	H	1.248142	-0.462766	0.850901
H152	H	1.748142	0.037234	1.350901
H153	H	1.438513	-0.952655	0.406342
H154	H	1.938513	-0.452655	0.906342
H155	H	0.684777	-0.493948	0.636284
H156	H	1.184777	0.006052	1.136284
H157	H	0.982580	-0.299841	0.386779
H158	H	1.482580	0.200159	0.886779
N159	N	1.480814	-0.282389	1.045052
N160	N	1.980814	0.217611	1.545052
N161	N	1.530068	-0.244198	1.005833
N162	N	2.030068	0.255802	1.505833
H163	H	1.573820	-0.210259	1.042339
H164	H	2.073820	0.289741	1.542339
N165	N	1.005189	-0.472760	0.609021
N166	N	1.505189	0.027240	1.109021
N167	N	0.965962	-0.511014	0.658191
N168	N	1.465962	-0.011014	1.158191
H169	H	1.002459	-0.544984	0.701846
H170	H	1.502459	-0.044984	1.201846
N171	N	0.866744	-0.511384	0.658664
N172	N	1.366744	-0.011384	1.158664
N173	N	0.827521	-0.549647	0.707829
N174	N	1.327521	-0.049647	1.207829
H175	H	0.864022	-0.583621	0.751476
H176	H	1.364022	-0.083621	1.251476
H177	H	1.198438	-0.501282	0.989342
H178	H	1.698438	-0.001282	1.489342
N179	N	1.469738	-0.290993	0.853959
N180	N	1.969738	0.209007	1.353959
N181	N	1.464835	-0.294789	0.769555
N182	N	1.964835	0.205211	1.269555
H183	H	1.504627	-0.263926	0.737866
H184	H	2.004627	0.236074	1.237866
H185	H	0.672617	-0.330793	0.426583
H186	H	1.172617	0.169207	0.926583
