data_functionalizedCrystal
_audit_creation_method	'MofGen! by Chris Wilmer'
_symmetry_space_group_name_H-M	'P1'
_symmetry_Int_Tables_number	1
_symmetry_cell_setting	triclinic
loop_
_symmetry_equiv_pos_as_xyz
  x,y,z
_cell_length_a	6.817900
_cell_length_b	11.102288
_cell_length_c	17.110486
_cell_angle_alpha	95.184196
_cell_angle_beta	99.060439
_cell_angle_gamma	108.605689
loop_
_atom_site_label
_atom_site_type_symbol
_atom_site_fract_x
_atom_site_fract_y
_atom_site_fract_z
V1	V	-4.002964	-0.175461	-0.246720
O2	O	-3.964063	0.008821	-0.242024
O3	O	-3.980483	-0.348284	-0.245033
O4	O	-3.932395	-0.172591	-0.354323
O5	O	-4.012484	-0.168088	-0.131977
V6	V	-4.486106	-0.153439	-0.232996
O7	O	-4.265058	-0.223768	-0.276826
O8	O	-4.674209	-0.105132	-0.202891
O9	O	-4.285380	0.019384	-0.234683
O10	O	-4.642403	-0.337720	-0.237693
O11	O	-4.593982	-0.160811	-0.347740
O12	O	-4.333468	-0.156308	-0.125393
C13	C	-3.832507	-0.390419	-0.241141
C14	C	-3.895266	-0.531703	-0.240479
C15	C	-4.107020	-0.604546	-0.244115
C16	C	-4.165979	-0.737298	-0.243499
C17	C	-3.801406	-0.724352	-0.235606
C18	C	-3.742453	-0.591604	-0.236228
C19	C	-3.771165	-0.166304	-0.380551
C20	C	-3.794922	-0.165101	-0.468517
C21	C	-3.988322	-0.170879	-0.513875
C22	C	-4.010632	-0.169748	-0.596528
C23	C	-3.839545	-0.162848	-0.633823
C24	C	-3.646128	-0.157066	-0.588458
C25	C	-3.623816	-0.158188	-0.505806
C26	C	-3.897793	-0.159135	-0.883178
C27	C	-3.920123	-0.158018	-0.965837
C28	C	-4.284625	-0.170697	-0.973900
C29	C	-4.262299	-0.171826	-0.891246
C30	C	-4.068882	-0.166037	-0.845889
C31	C	-3.862348	-0.161696	-0.718308
C32	C	-4.046078	-0.167181	-0.761404
C33	C	-4.096699	0.061513	-0.238573
C34	C	-4.013178	0.202796	-0.239241
C35	C	-4.158042	-0.162599	-0.099161
C36	C	-4.113522	-0.163796	-0.011194
H37	H	-3.570012	-0.532293	-0.233269
O38	O	-4.154289	-0.177409	-0.477544
C39	C	-4.288231	-0.075397	-0.378208
C40	C	-4.100093	-0.067859	-0.419270
H41	H	-4.244496	0.013176	-0.331097
H42	H	-4.329265	-0.165523	-0.348330
H43	H	-4.430289	-0.079391	-0.424848
H44	H	-3.957915	-0.063815	-0.372680
H45	H	-4.059242	0.022253	-0.449165
O46	O	-3.753991	-0.151141	-1.002142
C47	C	-3.515155	-0.031880	-1.080015
C48	C	-3.703317	-0.039521	-1.038948
H49	H	-3.474099	0.058372	-1.109769
H50	H	-3.558826	-0.120320	-1.127227
H51	H	-3.373132	-0.027996	-1.033395
H52	H	-3.845418	-0.043364	-1.085509
H53	H	-3.659471	0.048918	-0.991721
H54	H	-4.338406	-0.796602	-0.246462
H55	H	-4.185372	-0.172794	-0.731035
H56	H	-4.168112	-0.174446	-0.633454
H57	H	-3.723054	-0.156083	-0.748683
O58	O	-4.428550	-0.178757	-0.855011
C59	C	-4.667288	-0.297958	-0.777084
C60	C	-4.479021	-0.290271	-0.818097
H61	H	-4.708123	-0.388095	-0.747215
H62	H	-4.809454	-0.301981	-0.823680
H63	H	-4.623561	-0.209421	-0.729945
H64	H	-4.522544	-0.378785	-0.865232
H65	H	-4.336907	-0.286184	-0.771454
O66	O	-4.472467	-0.176478	-1.018065
C67	C	-4.761711	-0.293207	-1.126773
C68	C	-4.548970	-0.286806	-1.076831
H69	H	-4.823649	-0.382414	-1.174286
H70	H	-4.738963	-0.203719	-1.157057
H71	H	-4.880099	-0.298267	-1.085902
H72	H	-4.430475	-0.281788	-1.117647
H73	H	-4.571887	-0.376293	-1.046538
O74	O	-3.709969	-0.153435	-0.839043
C75	C	-3.420910	-0.037102	-0.730181
C76	C	-3.633513	-0.043293	-0.780133
H77	H	-3.359053	0.051925	-0.682530
H78	H	-3.302257	-0.031957	-0.770948
H79	H	-3.444106	-0.126760	-0.700048
H80	H	-3.610521	0.046343	-0.810273
H81	H	-3.752091	-0.048503	-0.739328
H82	H	-4.231454	-0.555779	-0.247575
O83	O	-3.480004	-0.150195	-0.624759
C84	C	-3.241125	-0.030938	-0.702619
C85	C	-3.429302	-0.038573	-0.661562
H86	H	-3.200046	0.059315	-0.732371
H87	H	-3.284793	-0.119377	-0.749832
H88	H	-3.099118	-0.027062	-0.655994
H89	H	-3.571386	-0.042408	-0.708129
H90	H	-3.385459	0.049864	-0.614334
H91	H	-3.676999	-0.773139	-0.232144
H92	H	-3.466317	-0.153452	-0.468873
