data_functionalizedCrystal
_audit_creation_method	'MofGen! by Chris Wilmer'
_symmetry_space_group_name_H-M	'P1'
_symmetry_Int_Tables_number	1
_symmetry_cell_setting	triclinic
loop_
_symmetry_equiv_pos_as_xyz
  x,y,z
_cell_length_a	19.805407
_cell_length_b	18.101395
_cell_length_c	19.805399
_cell_angle_alpha	90.025118
_cell_angle_beta	90.019573
_cell_angle_gamma	90.031104
loop_
_atom_site_label
_atom_site_type_symbol
_atom_site_fract_x
_atom_site_fract_y
_atom_site_fract_z
Zn1	Zn	1.034714	-0.294847	0.382731
Zn2	Zn	1.034619	-0.418690	0.269548
Zn3	Zn	0.921528	-0.294867	0.269556
Zn4	Zn	0.921482	-0.418651	0.382695
O5	O	0.978086	-0.356764	0.326132
O6	O	1.129418	-0.311283	0.367729
O7	O	1.019597	-0.402290	0.174832
O8	O	0.936601	-0.191232	0.284587
O9	O	1.129348	-0.402270	0.284574
O10	O	1.019758	-0.191217	0.367737
O11	O	0.936510	-0.311318	0.174838
O12	O	0.826806	-0.311279	0.284552
O13	O	0.936523	-0.402203	0.477416
O14	O	0.826772	-0.402223	0.367674
O15	O	1.019714	-0.311245	0.477443
O16	O	1.019553	-0.522318	0.284538
O17	O	0.936432	-0.522289	0.367667
C18	C	0.802230	-0.356750	0.326110
C19	C	0.726998	-0.356761	0.326117
C20	C	0.691654	-0.404187	0.369329
C21	C	0.620965	-0.404188	0.369339
C22	C	0.585622	-0.356767	0.326132
C23	C	0.620971	-0.309336	0.282919
C24	C	0.691658	-0.309332	0.282913
C25	C	0.335898	-0.309353	0.282941
C26	C	0.265206	-0.309363	0.282948
C27	C	0.265205	-0.404209	0.369367
C28	C	0.335892	-0.404205	0.369361
C29	C	0.371235	-0.356771	0.326150
C30	C	0.447883	-0.356770	0.326141
C31	C	0.508975	-0.356772	0.326137
C32	C	0.977995	-0.549174	0.326112
C33	C	0.978018	-0.631489	0.326127
C34	C	0.978167	-0.930579	0.326163
C35	C	0.925991	-0.899267	0.378595
C36	C	0.925743	-0.813649	0.378431
C37	C	0.978093	-0.782197	0.326146
C38	C	0.958782	-0.813345	0.254811
C39	C	0.958446	-0.898990	0.255125
C40	C	1.049768	-0.898924	0.344438
C41	C	1.049347	-0.813273	0.346002
C42	C	0.978053	-0.698337	0.326131
C43	C	0.978206	-1.014439	0.326173
C44	C	1.154629	-0.356779	0.326155
C45	C	1.229861	-0.356785	0.326164
C46	C	0.978124	-0.356717	0.502675
C47	C	0.978140	-0.356697	0.577907
C48	C	0.978195	-0.163602	0.326167
C49	C	0.978242	-0.081288	0.326182
C50	C	0.978087	-0.356757	0.150276
C51	C	0.978202	-0.356568	0.075045
C52	C	1.021458	-0.309333	0.613266
C53	C	1.021465	-0.309311	0.683955
C54	C	0.978157	-0.356659	0.719283
C55	C	0.934834	-0.404025	0.683919
C56	C	0.934824	-0.404042	0.613231
C57	C	0.934872	-0.403956	0.968992
C58	C	0.934887	-0.403937	1.039684
C59	C	1.021513	-0.309225	1.039716
C60	C	1.021503	-0.309242	0.969028
C61	C	0.978178	-0.356606	0.933670
C62	C	0.978170	-0.356628	0.857022
C63	C	0.978168	-0.356641	0.795930
H64	H	0.937953	-0.919817	0.431660
H65	H	0.720435	-0.270709	0.247729
H66	H	0.899569	-0.442573	0.712688
H67	H	0.592189	-0.270722	0.247742
H68	H	0.906997	-0.791960	0.239053
C69	C	0.887909	-0.455499	0.930653
C70	C	0.902610	-0.528772	0.947823
C71	C	0.859360	-0.576273	0.912512
H72	H	0.842421	-0.444740	0.942215
H73	H	0.894097	-0.448783	0.883486
H74	H	0.896416	-0.535484	0.994979
H75	H	0.948090	-0.539553	0.936259
H76	H	0.865549	-0.569557	0.865345
H77	H	0.813875	-0.565508	0.924077
H78	H	0.869333	-0.625994	0.924152
H79	H	0.720425	-0.442805	0.404510
H80	H	0.994801	-0.919706	0.214727
C81	C	0.374386	-0.455659	0.416200
C82	C	0.443856	-0.445516	0.406935
C83	C	0.479336	-0.492908	0.450069
H84	H	0.362906	-0.444931	0.461722
H85	H	0.362817	-0.505422	0.406213
H86	H	0.455420	-0.395765	0.416927
H87	H	0.455356	-0.456250	0.361422
H88	H	0.467767	-0.542670	0.440081
H89	H	0.467851	-0.482176	0.495588
H90	H	0.526475	-0.486037	0.443784
H91	H	1.056727	-0.270779	0.584508
H92	H	0.937825	-0.792587	0.431325
H93	H	0.236431	-0.270742	0.247765
C94	C	1.073381	-0.927602	0.412587
C95	C	1.137195	-0.898385	0.427256
C96	C	1.158965	-0.924796	0.490027
H97	H	1.042284	-0.912956	0.446546
H98	H	1.075971	-0.979990	0.411253
H99	H	1.134602	-0.846009	0.428595
H100	H	1.168308	-0.913029	0.393313
H101	H	1.161554	-0.977184	0.488693
H102	H	1.127863	-0.910148	0.523980
H103	H	1.202267	-0.904982	0.499985
H104	H	1.056788	-0.270657	1.068513
H105	H	0.873241	-0.920853	0.366642
C106	C	0.854943	-0.786554	0.362238
C107	C	0.812221	-0.847299	0.352565
C108	C	0.746996	-0.822369	0.337633
H109	H	0.838593	-0.757425	0.398627
H110	H	0.856026	-0.757574	0.322270
H111	H	0.811135	-0.876267	0.392528
H112	H	0.828549	-0.876434	0.316174
H113	H	0.748079	-0.793389	0.297665
H114	H	0.730653	-0.793240	0.374024
H115	H	0.718003	-0.863580	0.331062
H116	H	1.056741	-0.270744	0.712741
H117	H	0.592192	-0.442808	0.404525
C118	C	0.374304	-0.257771	0.236137
C119	C	0.414908	-0.210342	0.274534
C120	C	0.450294	-0.162808	0.231439
H121	H	0.401910	-0.285970	0.206586
H122	H	0.343153	-0.229488	0.210415
H123	H	0.446055	-0.238622	0.300244
H124	H	0.387318	-0.182127	0.304083
H125	H	0.419144	-0.134525	0.205717
H126	H	0.477897	-0.191014	0.201891
H127	H	0.477843	-0.130618	0.257485
C128	C	0.888604	-0.925575	0.234508
C129	C	0.847108	-0.864523	0.221881
C130	C	0.782762	-0.888979	0.202898
H131	H	0.891978	-0.954807	0.194811
H132	H	0.869724	-0.954339	0.269902
H133	H	0.865984	-0.835771	0.186490
H134	H	0.843715	-0.835285	0.261569
H135	H	0.763881	-0.917743	0.238292
H136	H	0.786142	-0.918211	0.163202
H137	H	0.754597	-0.847560	0.194335
H138	H	1.090278	-0.791859	0.310597
C139	C	0.226794	-0.455579	0.416373
C140	C	0.186266	-0.413711	0.459841
C141	C	0.150880	-0.461005	0.503155
H142	H	0.199136	-0.487824	0.390512
H143	H	0.257945	-0.483809	0.442143
H144	H	0.155118	-0.385493	0.434074
H145	H	0.213907	-0.381467	0.485717
H146	H	0.182031	-0.489236	0.528924
H147	H	0.123226	-0.493248	0.477288
H148	H	0.123382	-0.432605	0.532657
H149	H	0.995590	-0.792973	0.214680
C150	C	1.068909	-0.786122	0.415963
C151	C	1.128761	-0.745180	0.411807
C152	C	1.146806	-0.720179	0.476247
H153	H	1.033929	-0.755790	0.433487
H154	H	1.075542	-0.827273	0.444970
H155	H	1.122125	-0.704035	0.382810
H156	H	1.163755	-0.775497	0.394294
H157	H	1.153439	-0.761331	0.505254
H158	H	1.111822	-0.689850	0.493766
H159	H	1.187421	-0.692404	0.473437
H160	H	1.056772	-0.270690	0.940268
C161	C	0.887886	-0.455597	0.574869
C162	C	0.902603	-0.528867	0.592039
C163	C	0.859384	-0.576381	0.556705
H164	H	0.842389	-0.444858	0.586413
H165	H	0.894092	-0.448874	0.527706
H166	H	0.896391	-0.535587	0.639192
H167	H	0.948092	-0.539630	0.580494
H168	H	0.865590	-0.569658	0.509542
H169	H	0.813890	-0.565634	0.568251
H170	H	0.869367	-0.626099	0.568345
C171	C	1.101603	-0.926070	0.293587
C172	C	1.103836	-1.003366	0.294865
C173	C	1.151580	-1.028404	0.248037
H174	H	1.089301	-0.909893	0.249656
H175	H	1.144784	-0.906807	0.304894
H176	H	1.060665	-1.022622	0.283553
H177	H	1.116147	-1.019563	0.338785
H178	H	1.194760	-1.009141	0.259344
H179	H	1.139273	-1.012222	0.204109
H180	H	1.153106	-1.080851	0.248902
C181	C	0.887974	-0.455436	1.078076
C182	C	0.926278	-0.502912	1.118639
C183	C	0.883090	-0.550369	1.154007
H184	H	0.858493	-0.427183	1.105709
H185	H	0.862181	-0.483689	1.046914
H186	H	0.952059	-0.474663	1.149796
H187	H	0.955758	-0.531182	1.091022
H188	H	0.857298	-0.578622	1.122845
H189	H	0.853611	-0.522110	1.181636
H190	H	0.909074	-0.582591	1.181528
