data_functionalizedCrystal
_audit_creation_method	'MofGen! by Chris Wilmer'
_symmetry_space_group_name_H-M	'P1'
_symmetry_Int_Tables_number	1
_symmetry_cell_setting	triclinic
loop_
_symmetry_equiv_pos_as_xyz
  x,y,z
_cell_length_a	12.759401
_cell_length_b	11.169416
_cell_length_c	12.759393
_cell_angle_alpha	89.970865
_cell_angle_beta	89.980623
_cell_angle_gamma	90.011856
loop_
_atom_site_label
_atom_site_type_symbol
_atom_site_fract_x
_atom_site_fract_y
_atom_site_fract_z
Zn1	Zn	1.606289	-0.477682	-0.594024
Zn2	Zn	1.606197	-0.678414	-0.418351
Zn3	Zn	1.430591	-0.477750	-0.418361
Zn4	Zn	1.430593	-0.678327	-0.593990
O5	O	1.518417	-0.578043	-0.506181
O6	O	1.753297	-0.504317	-0.570731
O7	O	1.582863	-0.651861	-0.271331
O8	O	1.453935	-0.309791	-0.441681
O9	O	1.753230	-0.651795	-0.441665
O10	O	1.583019	-0.309741	-0.570740
O11	O	1.453846	-0.504433	-0.271338
O12	O	1.283570	-0.504349	-0.441648
O13	O	1.453939	-0.651646	-0.741016
O14	O	1.283572	-0.651713	-0.570682
O15	O	1.583022	-0.504233	-0.741040
O16	O	1.582865	-0.846353	-0.441632
O17	O	1.453850	-0.846289	-0.570673
C18	C	1.518377	-0.889868	-0.506171
C19	C	1.518455	-1.023268	-0.506202
C20	C	1.245450	-0.578030	-0.506163
C21	C	1.128673	-0.578053	-0.506180
C22	C	0.964127	-0.501395	-0.573500
C23	C	1.073851	-0.501392	-0.573489
C24	C	1.073766	-0.654730	-0.438886
C25	C	0.964043	-0.654739	-0.438903
C26	C	0.964178	-0.412863	-0.651209
C27	C	1.073902	-0.412859	-0.651198
C28	C	1.792451	-0.578058	-0.506201
C29	C	1.909227	-0.578064	-0.506209
C30	C	1.518491	-0.577922	-0.780215
C31	C	1.518522	-0.577871	-0.896992
C32	C	1.518487	-0.265001	-0.506215
C33	C	1.518516	-0.131601	-0.506229
C34	C	1.585745	-0.501105	-0.951868
C35	C	1.585770	-0.501062	-1.061592
C36	C	1.451347	-0.654560	-1.061554
C37	C	1.451317	-0.654596	-0.951832
C38	C	1.663356	-0.412488	-0.951892
C39	C	1.663381	-0.412444	-1.061616
C40	C	1.518405	-0.578077	-0.233214
C41	C	1.518577	-0.577791	-0.116438
H42	H	0.919348	-0.717180	-0.384117
H43	H	1.740630	-0.445806	-0.917858
O44	O	1.126970	-0.729376	-0.373618
C45	C	1.100130	-0.849023	-0.396394
H46	H	1.070004	-0.855191	-0.480320
H47	H	1.172275	-0.908303	-0.387251
H48	H	1.036412	-0.880325	-0.340028
O49	O	1.637248	-0.301702	-0.916253
C50	C	1.545566	-0.309436	-0.854903
H51	H	1.536676	-0.404533	-0.823653
H52	H	1.551298	-0.244276	-0.786404
H53	H	1.474590	-0.285754	-0.905042
H54	H	1.744754	-0.437336	-1.091396
H55	H	1.634261	-0.324131	-1.095660
H56	H	0.934439	-0.437863	-0.732549
H57	H	1.396574	-0.717102	-0.907155
O58	O	0.923638	-0.307373	-0.616781
C59	C	0.957957	-0.213642	-0.682422
H60	H	0.980517	-0.251513	-0.762251
H61	H	0.892172	-0.145550	-0.692453
H62	H	1.028929	-0.168071	-0.645642
O63	O	1.114494	-0.452496	-0.743436
C64	C	1.080294	-0.377781	-0.825691
H65	H	1.057754	-0.286475	-0.792782
H66	H	1.146141	-0.366527	-0.885302
H67	H	1.009336	-0.419922	-0.865504
O68	O	1.109401	-0.301985	-0.625142
C69	C	1.072422	-0.271255	-0.524549
H70	H	1.052873	-0.356260	-0.479078
H71	H	1.135490	-0.218883	-0.480951
H72	H	0.999006	-0.213772	-0.532276
O73	O	1.386172	-0.729055	-1.114990
C74	C	1.400589	-0.712539	-1.223601
H75	H	1.481681	-0.673232	-1.238602
H76	H	1.393452	-0.802423	-1.265286
H77	H	1.338293	-0.648612	-1.254743
