data_functionalizedCrystal
_audit_creation_method	'MofGen! by Chris Wilmer'
_symmetry_space_group_name_H-M	'P1'
_symmetry_Int_Tables_number	1
_symmetry_cell_setting	triclinic
loop_
_symmetry_equiv_pos_as_xyz
  x,y,z
_cell_length_a	12.594517
_cell_length_b	18.050589
_cell_length_c	12.594510
_cell_angle_alpha	89.966182
_cell_angle_beta	89.978880
_cell_angle_gamma	90.028021
loop_
_atom_site_label
_atom_site_type_symbol
_atom_site_fract_x
_atom_site_fract_y
_atom_site_fract_z
Zn1	Zn	1.627175	-0.295596	-0.601864
Zn2	Zn	1.627029	-0.419813	-0.423887
Zn3	Zn	1.449179	-0.295641	-0.423893
Zn4	Zn	1.449123	-0.419748	-0.601817
O5	O	1.538126	-0.357700	-0.512865
O6	O	1.776101	-0.312082	-0.578272
O7	O	1.603399	-0.403388	-0.274942
O8	O	1.472876	-0.191711	-0.447523
O9	O	1.775994	-0.403344	-0.447513
O10	O	1.603648	-0.191678	-0.578278
O11	O	1.472734	-0.312159	-0.274946
O12	O	1.300226	-0.312096	-0.447478
O13	O	1.472780	-0.403233	-0.750769
O14	O	1.300185	-0.403277	-0.578198
O15	O	1.603594	-0.312019	-0.750804
O16	O	1.603344	-0.523729	-0.447468
O17	O	1.472638	-0.523682	-0.578192
C18	C	1.261585	-0.357685	-0.512834
C19	C	1.143280	-0.357696	-0.512846
C20	C	1.074018	-0.308035	-0.441883
C21	C	1.003187	-0.375779	-0.415704
C22	C	1.003313	-0.289985	-0.539043
C23	C	1.074007	-0.425476	-0.486616
C24	C	1.074139	-0.339636	-0.610001
C25	C	1.003339	-0.407427	-0.583858
C26	C	1.537998	-0.550652	-0.512848
C27	C	1.538040	-0.633198	-0.512876
C28	C	1.467032	-0.832649	-0.583939
C29	C	1.441084	-0.882102	-0.486814
C30	C	1.538145	-0.784328	-0.512890
C31	C	1.564145	-0.881957	-0.610026
C32	C	1.538244	-0.930313	-0.512911
C33	C	1.512146	-0.832693	-0.415713
C34	C	1.635252	-0.832544	-0.538991
C35	C	1.609341	-0.881974	-0.441799
C36	C	1.538085	-0.700230	-0.512878
C37	C	1.538304	-1.014410	-0.512912
C38	C	1.815747	-0.357715	-0.512897
C39	C	1.934053	-0.357722	-0.512911
C40	C	1.538197	-0.357614	-0.790486
C41	C	1.538227	-0.357577	-0.908792
C42	C	1.538284	-0.163994	-0.512906
C43	C	1.538352	-0.081448	-0.512924
C44	C	1.609398	-0.307963	-0.978064
C45	C	1.512327	-0.289784	-1.048854
C46	C	1.635354	-0.375704	-1.048800
C47	C	1.441104	-0.339364	-0.978024
C48	C	1.564197	-0.425315	-0.977964
C49	C	1.467059	-0.407163	-1.048723
C50	C	1.538118	-0.357732	-0.236324
C51	C	1.538294	-0.357559	-0.118019
H52	H	1.104931	-0.482766	-0.464394
H53	H	1.669478	-0.265980	-0.947035
H54	H	1.586169	-0.482591	-0.946804
O55	O	1.486322	-0.221393	-1.085961
C56	C	1.561503	-0.169256	-1.049947
H57	H	1.638975	-0.198796	-1.030066
H58	H	1.576481	-0.126381	-1.114748
H59	H	1.529848	-0.140432	-0.975907
H60	H	1.406832	-0.449113	-1.079552
O61	O	1.485810	-0.806866	-0.317770
C62	C	1.486058	-0.728759	-0.318945
H63	H	1.474160	-0.708282	-0.403750
H64	H	1.418930	-0.707262	-0.266635
H65	H	1.565281	-0.707576	-0.287402
O66	O	1.590468	-0.907863	-0.707931
C67	C	1.683735	-0.950737	-0.700703
H68	H	1.693227	-0.972066	-0.616024
H69	H	1.678128	-0.999671	-0.757611
H70	H	1.755267	-0.915145	-0.722629
O71	O	1.111483	-0.321285	-0.707872
C72	C	1.174638	-0.256992	-0.700274
H73	H	1.205591	-0.251129	-0.615648
H74	H	1.244512	-0.261483	-0.757471
H75	H	1.124881	-0.206377	-0.721560
H76	H	0.972024	-0.391071	-0.333570
O77	O	1.395256	-0.806894	-0.655650
C78	C	1.421787	-0.833058	-0.757724
H79	H	1.471877	-0.885383	-0.750196
H80	H	1.346050	-0.846170	-0.803567
H81	H	1.468888	-0.788779	-0.801946
O82	O	0.966587	-0.457697	-0.655364
C83	C	1.002825	-0.528976	-0.627398
H84	H	1.022527	-0.530317	-0.539082
H85	H	0.938229	-0.571452	-0.645178
H86	H	1.077019	-0.542797	-0.675321
H87	H	0.972203	-0.232720	-0.561137
O88	O	1.343103	-0.908039	-0.460652
C89	C	1.268310	-0.882897	-0.535729
H90	H	1.310584	-0.868972	-0.613269
H91	H	1.206889	-0.928124	-0.550600
H92	H	1.226976	-0.831268	-0.504028
H93	H	1.669521	-0.903496	-0.381655
H94	H	1.358970	-0.323959	-0.947066
O95	O	1.733110	-0.806586	-0.565541
C96	C	1.760176	-0.831656	-0.668038
H97	H	1.684735	-0.845556	-0.713890
H98	H	1.805827	-0.786395	-0.711731
H99	H	1.811853	-0.883285	-0.661376
O100	O	1.733338	-0.393880	-1.085943
C101	C	1.772808	-0.335538	-1.149144
H102	H	1.731633	-0.281657	-1.126131
H103	H	1.861980	-0.329750	-1.136014
H104	H	1.756729	-0.348030	-1.236391
O105	O	1.110999	-0.258065	-0.370063
C106	C	1.074818	-0.277392	-0.267774
H107	H	1.054937	-0.338994	-0.265620
H108	H	1.139518	-0.264947	-0.207062
H109	H	1.000743	-0.243863	-0.247924
