data_functionalizedCrystal
_audit_creation_method	'MofGen! by Chris Wilmer'
_symmetry_space_group_name_H-M	'P1'
_symmetry_Int_Tables_number	1
_symmetry_cell_setting	triclinic
loop_
_symmetry_equiv_pos_as_xyz
  x,y,z
_cell_length_a	13.032831
_cell_length_b	12.594516
_cell_length_c	13.033454
_cell_angle_alpha	82.787220
_cell_angle_beta	89.091650
_cell_angle_gamma	82.821304
loop_
_atom_site_label
_atom_site_type_symbol
_atom_site_fract_x
_atom_site_fract_y
_atom_site_fract_z
Zn1	Zn	1.498563	-0.516762	-0.780905
Zn2	Zn	1.520294	-0.719846	-0.608926
Zn3	Zn	1.348404	-0.522436	-0.587135
Zn4	Zn	1.326555	-0.675245	-0.759057
O5	O	1.423454	-0.608572	-0.684006
O6	O	1.645368	-0.559993	-0.776354
O7	O	1.515731	-0.714700	-0.462112
O8	O	1.368372	-0.372741	-0.612863
O9	O	1.661334	-0.709198	-0.650002
O10	O	1.478693	-0.368572	-0.755225
O11	O	1.389444	-0.569663	-0.446102
O12	O	1.201583	-0.526415	-0.591678
O13	O	1.331134	-0.633181	-0.905879
O14	O	1.185530	-0.638683	-0.717988
O15	O	1.457507	-0.516745	-0.921930
O16	O	1.494545	-0.862872	-0.628817
O17	O	1.352206	-0.830104	-0.739118
C18	C	1.156239	-0.578326	-0.650099
C19	C	1.041920	-0.565408	-0.635617
C20	C	0.983050	-0.615314	-0.691563
C21	C	0.864896	-0.601965	-0.676598
C22	C	1.423388	-0.885107	-0.683987
C23	C	1.423449	-1.003416	-0.684025
C24	C	1.346030	-1.054891	-0.743969
C25	C	1.332888	-1.136611	-0.646947
C26	C	1.436683	-1.132503	-0.781075
C27	C	1.410264	-1.083579	-0.586947
C28	C	1.514094	-1.079460	-0.721145
C29	C	1.500996	-1.161162	-0.624063
C30	C	1.691712	-0.638938	-0.718046
C31	C	1.806028	-0.651878	-0.732551
C32	C	1.389459	-0.569355	-0.952266
C33	C	1.374973	-0.552643	-1.066582
C34	C	1.423545	-0.330958	-0.684050
C35	C	1.423584	-0.212655	-0.684069
C36	C	1.430999	-0.616953	-1.125469
C37	C	1.416027	-0.599682	-1.243621
C38	C	1.457375	-0.647567	-0.416797
C39	C	1.472061	-0.664002	-0.302506
H40	H	1.004847	-0.512793	-0.576645
H41	H	1.447823	-1.154349	-0.863132
H42	H	1.490052	-0.684795	-1.088413
O43	O	1.296764	-0.462757	-1.115652
H44	H	1.297280	-0.463295	-1.200754
H45	H	1.020123	-0.667920	-0.750544
O46	O	0.855118	-0.721571	-0.810682
H47	H	0.824347	-0.689327	-0.888847
O48	O	1.337814	-0.509792	-1.292687
H49	H	1.338331	-0.510329	-1.377788
O50	O	1.231433	-1.170175	-0.605367
H51	H	1.167233	-1.127106	-0.655231
O52	O	1.259194	-0.993838	-0.810986
H53	H	1.184096	-1.016573	-0.779946
H54	H	0.827827	-0.549346	-0.617621
O55	O	1.395382	-1.054817	-0.478206
H56	H	1.395399	-0.966585	-0.479047
O57	O	1.587811	-1.221964	-0.556863
H58	H	1.576627	-1.202490	-0.476401
O59	O	1.615655	-1.046126	-0.762640
H60	H	1.626453	-1.065420	-0.843194
H61	H	1.531119	-0.731848	-1.265457
