data_functionalizedCrystal
_audit_creation_method	'MofGen! by Chris Wilmer'
_symmetry_space_group_name_H-M	'P1'
_symmetry_Int_Tables_number	1
_symmetry_cell_setting	triclinic
loop_
_symmetry_equiv_pos_as_xyz
  x,y,z
_cell_length_a	14.908571
_cell_length_b	12.645330
_cell_length_c	14.908308
_cell_angle_alpha	86.731360
_cell_angle_beta	89.824947
_cell_angle_gamma	86.708920
loop_
_atom_site_label
_atom_site_type_symbol
_atom_site_fract_x
_atom_site_fract_y
_atom_site_fract_z
Zn1	Zn	1.345359	-0.553229	0.587594
Zn2	Zn	1.845359	-0.053229	1.087594
Zn3	Zn	1.353958	-0.720908	0.437238
Zn4	Zn	1.853958	-0.220908	0.937238
Zn5	Zn	1.203672	-0.532867	0.428592
Zn6	Zn	1.703672	-0.032867	0.928592
Zn7	Zn	1.194986	-0.719648	0.578890
Zn8	Zn	1.694986	-0.219648	1.078890
O9	O	1.274494	-0.631663	0.508078
O10	O	1.774494	-0.131663	1.008078
O11	O	1.472326	-0.584520	0.574911
O12	O	1.972326	-0.084520	1.074911
O13	O	1.341256	-0.687969	0.310266
O14	O	1.841256	-0.187969	0.810266
O15	O	1.222503	-0.387225	0.449708
O16	O	1.722503	0.112775	0.949708
O17	O	1.478645	-0.707714	0.464445
O18	O	1.978645	-0.207714	0.964445
O19	O	1.326600	-0.402184	0.566526
O20	O	1.826600	0.097816	1.066526
O21	O	1.230841	-0.549816	0.303914
O22	O	1.730841	-0.049816	0.803914
O23	O	1.076692	-0.548595	0.441267
O24	O	1.576692	-0.048595	0.941267
O25	O	1.207699	-0.705567	0.705869
O26	O	1.707699	-0.205567	1.205869
O27	O	1.070311	-0.685823	0.551691
O28	O	1.570311	-0.185823	1.051691
O29	O	1.318177	-0.583299	0.712264
O30	O	1.818177	-0.083299	1.212264
O31	O	1.332834	-0.869084	0.456004
O32	O	1.832834	-0.369084	0.956004
O33	O	1.216038	-0.868159	0.560075
O34	O	1.716038	-0.368159	1.060075
C35	C	1.040876	-0.614864	0.494597
C36	C	1.540876	-0.114864	0.994597
C37	C	0.940932	-0.607704	0.488851
C38	C	1.440932	-0.107704	0.988851
C39	C	1.274450	-0.907088	0.508055
C40	C	1.774450	-0.407088	1.008055
C41	C	1.274512	-1.024924	0.508079
C42	C	1.774512	-0.524924	1.008079
C43	C	0.746540	-0.737345	0.592883
C44	C	1.246540	-0.237345	1.092883
C45	C	0.652633	-0.730621	0.587487
C46	C	1.152633	-0.230621	1.087487
C47	C	0.659211	-0.587528	0.472668
C48	C	1.159211	-0.087528	0.972668
C49	C	0.753118	-0.594251	0.478064
C50	C	1.253118	-0.094251	0.978064
C51	C	0.796778	-0.669164	0.538172
C52	C	1.296778	-0.169164	1.038172
C53	C	0.890687	-0.675892	0.543563
C54	C	1.390687	-0.175892	1.043563
C55	C	0.897263	-0.532794	0.428750
C56	C	1.397263	-0.032794	0.928750
C57	C	0.803357	-0.526070	0.423354
C58	C	1.303357	-0.026070	0.923354
C59	C	1.347885	-1.193009	0.442461
C60	C	1.847885	-0.693009	0.942461
C61	C	1.348101	-1.070476	0.442644
C62	C	1.848101	-0.570476	0.942644
C63	C	1.294736	-1.077205	0.604337
C64	C	1.794736	-0.577205	1.104337
C65	C	1.295308	-1.199819	0.604000
C66	C	1.795308	-0.699819	1.104000
C67	C	1.180833	-1.183876	0.478372
C68	C	1.680833	-0.683876	0.978372
C69	C	1.181411	-1.061168	0.476273
C70	C	1.681411	-0.561168	0.976273
C71	C	1.509023	-0.648529	0.521613
C72	C	2.009023	-0.148529	1.021613
C73	C	1.608966	-0.655716	0.527381
C74	C	2.108966	-0.155716	1.027381
C75	C	1.261010	-0.646564	0.742604
C76	C	1.761010	-0.146564	1.242604
C77	C	1.255264	-0.652914	0.842545
C78	C	1.755264	-0.152914	1.342545
C79	C	1.274561	-0.355165	0.508123
C80	C	1.774561	0.144835	1.008123
C81	C	1.274590	-0.237338	0.508143
C82	C	1.774590	0.262662	1.008143
C83	C	1.287976	-0.616747	0.274468
C84	C	1.787976	-0.116747	0.774468
C85	C	1.293896	-0.610111	0.174538
C86	C	1.793896	-0.110111	0.674538
C87	C	1.359506	-0.537503	1.037005
C88	C	1.859506	-0.037503	1.537005
C89	C	1.354110	-0.543466	1.130909
C90	C	1.854110	-0.043466	1.630909
C91	C	1.239073	-0.670796	1.124257
C92	C	1.739073	-0.170796	1.624257
C93	C	1.244469	-0.664833	1.030353
C94	C	1.744469	-0.164833	1.530353
C95	C	1.304688	-0.598186	0.986731
C96	C	1.804688	-0.098186	1.486731
C97	C	1.310088	-0.592229	0.892826
C98	C	1.810088	-0.092229	1.392826
C99	C	1.195047	-0.719553	0.886176
C100	C	1.695047	-0.219553	1.386176
C101	C	1.189651	-0.725515	0.980079
C102	C	1.689651	-0.225515	1.480079
H103	H	0.926234	-0.736891	0.592505
H104	H	1.426234	-0.236891	1.092505
H105	H	1.140620	-0.779775	1.015609
H106	H	1.640620	-0.279775	1.515609
H107	H	1.362300	-1.052692	0.629216
H108	H	1.862300	-0.552692	1.129216
H109	H	0.782089	-0.798347	0.641820
H110	H	1.282089	-0.298347	1.141820
H111	H	0.623646	-0.526531	0.423737
H112	H	1.123646	-0.026531	0.923737
H113	H	1.408543	-0.483242	1.001487
H114	H	1.908543	0.016758	1.501487
H115	H	0.938178	-0.477278	0.384199
H116	H	1.438178	0.022722	0.884199
H117	H	1.150412	-0.768968	0.845232
H118	H	1.650412	-0.268968	1.345232
H119	H	1.398746	-0.494049	1.171838
H120	H	1.898746	0.005951	1.671838
H121	H	0.767795	-0.465076	0.374418
H122	H	1.267795	0.034924	0.874418
H123	H	1.190045	-0.725056	1.159791
H124	H	1.690045	-0.225056	1.659791
H125	H	1.336081	-1.034830	0.371442
H126	H	1.836081	-0.534830	0.871442
H127	H	0.611732	-0.786139	0.632039
H128	H	1.111732	-0.286139	1.132039
H129	H	1.336078	-1.216920	0.371064
H130	H	1.836078	-0.716920	0.871064
H131	H	1.161385	-1.208869	0.409117
H132	H	1.661385	-0.708869	0.909117
H133	H	1.417655	-1.047156	0.462770
H134	H	1.917655	-0.547156	0.962770
H135	H	1.417071	-1.229788	0.462385
H136	H	1.917071	-0.729788	0.962385
H137	H	1.126289	-1.212418	0.526144
H138	H	1.626289	-0.712418	1.026144
H139	H	1.363677	-1.234641	0.628581
H140	H	1.863677	-0.734641	1.128581
H141	H	1.243962	-1.229451	0.654920
H142	H	1.743962	-0.729451	1.154920
H143	H	1.124298	-1.029651	0.520164
H144	H	1.624298	-0.529651	1.020164
H145	H	1.242740	-1.047950	0.654821
H146	H	1.742740	-0.547950	1.154821
H147	H	1.166063	-1.026325	0.405408
H148	H	1.666063	-0.526325	0.905408
H149	H	1.359123	-0.537963	0.857310
H150	H	1.859123	-0.037963	1.357310
