data_functionalizedCrystal
_audit_creation_method	'MofGen! by Chris Wilmer'
_symmetry_space_group_name_H-M	'P1'
_symmetry_Int_Tables_number	1
_symmetry_cell_setting	triclinic
loop_
_symmetry_equiv_pos_as_xyz
  x,y,z
_cell_length_a	16.974800
_cell_length_b	14.519709
_cell_length_c	15.455313
_cell_angle_alpha	87.338395
_cell_angle_beta	90.973911
_cell_angle_gamma	96.464691
loop_
_atom_site_label
_atom_site_type_symbol
_atom_site_fract_x
_atom_site_fract_y
_atom_site_fract_z
O1	O	1.049241	-0.117561	0.001534
O2	O	0.819828	-0.131645	-0.014580
O3	O	0.940616	0.009630	-0.006071
O4	O	0.928453	-0.258836	-0.006974
O5	O	0.933709	0.001585	0.137704
O6	O	0.812921	-0.139690	0.129196
O7	O	1.042334	-0.125607	0.145310
Cu8	Cu	0.926997	-0.133383	0.150381
Cu9	Cu	0.935165	-0.123868	-0.019651
O10	O	0.921546	-0.266881	0.136801
C11	C	0.787014	-0.134985	0.055246
C12	C	0.699530	-0.132938	0.049103
C13	C	0.654669	-0.136360	0.124590
C14	C	0.572469	-0.134423	0.118820
C15	C	0.535132	-0.129070	0.037561
C16	C	0.579999	-0.125645	-0.037932
C17	C	0.662198	-0.127576	-0.032161
C18	C	0.289698	-0.122819	0.011898
C19	C	0.207493	-0.120891	0.006132
C20	C	0.199970	-0.129667	0.162885
C21	C	0.282170	-0.131603	0.168649
C22	C	0.327030	-0.128173	0.093156
N23	N	0.451110	-0.127092	0.031661
N24	N	0.411051	-0.130144	0.099056
C25	C	0.936595	0.039967	0.065781
C26	C	0.934896	0.142349	0.065675
C27	C	0.928640	0.517248	0.065259
C28	C	0.930377	0.412939	0.065375
C29	C	0.931768	0.329801	0.065468
C30	C	0.933505	0.225486	0.065582
C31	C	1.075148	-0.122267	0.075482
C32	C	1.162633	-0.124313	0.081620
C33	C	0.925565	0.702780	0.064978
C34	C	0.927261	0.600393	0.065170
N35	N	0.921257	-0.140075	0.269972
N36	N	0.940911	-0.117170	-0.139241
C37	C	0.972590	-0.080078	0.318982
C38	C	0.968256	-0.085147	0.409485
C39	C	0.912594	-0.150218	0.450976
C40	C	0.861255	-0.210217	0.401959
C41	C	0.865586	-0.205143	0.311458
C42	C	0.893903	-0.172095	0.721241
C43	C	0.889578	-0.177166	0.811749
C44	C	0.996579	-0.052095	0.819268
C45	C	1.000907	-0.047030	0.728765
C46	C	0.949566	-0.107026	0.679756
N47	N	0.908165	-0.155403	0.543484
N48	N	0.953992	-0.101836	0.587249
H49	H	0.698722	-0.124791	-0.093631
C50	C	1.131588	0.000064	0.856687
C51	C	1.053003	0.013861	0.873138
H52	H	1.166419	0.040785	0.889947
H53	H	1.142125	0.012396	0.796856
H54	H	1.139516	-0.062344	0.872115
H55	H	1.045073	0.076268	0.857703
H56	H	1.042462	0.001536	0.932981
C57	C	0.288866	-0.113953	-0.143622
C58	C	0.339001	-0.119053	-0.071084
H59	H	0.319308	-0.111633	-0.194853
H60	H	0.262584	-0.059659	-0.142182
H61	H	0.250713	-0.167118	-0.143033
H62	H	0.377151	-0.065884	-0.071670
H63	H	0.365296	-0.173353	-0.072525
H64	H	0.549593	-0.121280	-0.104095
H65	H	0.815929	-0.263196	0.435746
H66	H	1.046233	0.005955	0.694985
C67	C	0.784222	-0.300266	0.795229
C68	C	0.828378	-0.248684	0.857357
H69	H	0.746438	-0.344409	0.823388
H70	H	0.818748	-0.331581	0.762222
H71	H	0.757523	-0.259790	0.757951
H72	H	0.855082	-0.289160	0.894631
H73	H	0.793846	-0.217368	0.890378
C74	C	0.853032	-0.219868	0.579178
C75	C	0.837483	-0.238056	0.667377
H76	H	0.818198	-0.260592	0.545925
H77	H	0.906343	-0.229217	0.568031
H78	H	0.845087	-0.157461	0.563763
H79	H	0.845434	-0.300461	0.682795
H80	H	0.784159	-0.228715	0.678530
C81	C	0.638969	-0.144827	0.278952
C82	C	0.695707	-0.142239	0.213914
H83	H	0.664305	-0.148448	0.334097
H84	H	0.601132	-0.197619	0.273017
H85	H	0.613000	-0.090159	0.273857
H86	H	0.721672	-0.196911	0.219005
H87	H	0.733558	-0.089442	0.219851
C88	C	0.484438	-0.058119	0.203906
C89	C	0.523167	-0.138174	0.201804
H90	H	0.454008	-0.060430	0.255144
H91	H	0.450434	-0.054662	0.154697
H92	H	0.522612	-0.004972	0.203316
H93	H	0.484993	-0.191321	0.202388
H94	H	0.557173	-0.141640	0.251026
H95	H	0.823784	-0.253997	0.271554
H96	H	0.312565	-0.135957	0.234818
C97	C	0.111924	-0.053375	0.247962
C98	C	0.150661	-0.133424	0.245865
H99	H	0.081488	-0.055691	0.299196
H100	H	0.077924	-0.049921	0.198750
H101	H	0.150093	-0.000224	0.247378
H102	H	0.112491	-0.186575	0.246443
H103	H	0.184663	-0.136887	0.295091
C104	C	1.013008	0.072787	0.440605
C105	C	1.024695	-0.019204	0.463350
H106	H	1.047859	0.113497	0.473855
H107	H	0.959704	0.082151	0.451771
H108	H	1.023549	0.085103	0.380765
H109	H	1.014149	-0.031522	0.523189
H110	H	1.078012	-0.028572	0.452192
H111	H	0.177096	-0.116535	-0.060042
H112	H	1.017920	-0.027095	0.285206
