data_functionalizedCrystal
_audit_creation_method	'MofGen! by Chris Wilmer'
_symmetry_space_group_name_H-M	'P1'
_symmetry_Int_Tables_number	1
_symmetry_cell_setting	triclinic
loop_
_symmetry_equiv_pos_as_xyz
  x,y,z
_cell_length_a	21.295418
_cell_length_b	21.295416
_cell_length_c	21.295411
_cell_angle_alpha	90.019171
_cell_angle_beta	89.956262
_cell_angle_gamma	89.953856
loop_
_atom_site_label
_atom_site_type_symbol
_atom_site_fract_x
_atom_site_fract_y
_atom_site_fract_z
Zn1	Zn	0.962357	0.250415	-0.356244
Zn2	Zn	1.462357	0.750415	0.143756
Zn3	Zn	0.962259	0.355667	-0.250974
Zn4	Zn	1.462259	0.855667	0.249026
Zn5	Zn	0.857080	0.250445	-0.250954
Zn6	Zn	1.357080	0.750445	0.249046
Zn7	Zn	0.857049	0.355680	-0.356171
Zn8	Zn	1.357049	0.855680	0.143829
O9	O	0.909686	0.303052	-0.303586
O10	O	1.409686	0.803052	0.196414
O11	O	1.050433	0.264360	-0.342319
O12	O	1.550433	0.764360	0.157681
O13	O	0.948279	0.341716	-0.162882
O14	O	1.448279	0.841716	0.337118
O15	O	0.871098	0.162351	-0.264944
O16	O	1.371098	0.662351	0.235056
O17	O	1.050362	0.341688	-0.264978
O18	O	1.550362	0.841688	0.235022
O19	O	0.948445	0.162330	-0.342300
O20	O	1.448445	0.662330	0.157700
O21	O	0.871004	0.264410	-0.162867
O22	O	1.371004	0.764410	0.337133
O23	O	0.768986	0.264422	-0.264872
O24	O	1.268986	0.764422	0.235128
O25	O	0.871047	0.341709	-0.444270
O26	O	1.371047	0.841709	0.055730
O27	O	0.768964	0.341738	-0.342174
O28	O	1.268964	0.841738	0.157826
O29	O	0.948415	0.264372	-0.444324
O30	O	1.448415	0.764372	0.055676
O31	O	0.948250	0.443758	-0.264906
O32	O	1.448250	0.943758	0.235094
O33	O	0.870952	0.443767	-0.342194
O34	O	1.370952	0.943767	0.157806
C35	C	0.746135	0.303085	-0.303513
C36	C	1.246135	0.803085	0.196487
C37	C	0.676166	0.303114	-0.303497
C38	C	1.176166	0.803114	0.196503
C39	C	0.909604	0.466603	-0.303558
C40	C	1.409604	0.966603	0.196442
C41	C	0.909627	0.536571	-0.303567
C42	C	1.409627	1.036571	0.196433
C43	C	0.909739	0.303038	-0.467776
C44	C	1.409739	0.803038	0.032224
C45	C	0.909761	0.303033	-0.537744
C46	C	1.409761	0.803033	-0.037744
C47	C	0.643305	0.343426	-0.343689
C48	C	1.143305	0.843426	0.156311
C49	C	0.577562	0.343410	-0.343717
C50	C	1.077562	0.843410	0.156283
C51	C	0.544684	0.303090	-0.303543
C52	C	1.044684	0.803090	0.196457
C53	C	0.577554	0.262770	-0.263349
C54	C	1.077554	0.762770	0.236651
C55	C	0.643295	0.262783	-0.263326
C56	C	1.143295	0.762783	0.236674
N57	N	0.441408	0.298163	-0.248485
N58	N	0.941408	0.798163	0.251515
N59	N	0.378957	0.298155	-0.248508
N60	N	0.878957	0.798155	0.251492
C61	C	0.346609	0.303050	-0.303609
C62	C	0.846609	0.803050	0.196391
N63	N	0.379073	0.307965	-0.358688
N64	N	0.879073	0.807965	0.141312
N65	N	0.441530	0.307976	-0.358664
N66	N	0.941530	0.807976	0.141336
C67	C	0.473399	0.303072	-0.303563
C68	C	0.973399	0.803072	0.196437
C69	C	0.242462	0.343346	-0.343835
C70	C	0.742462	0.843346	0.156165
C71	C	0.176718	0.343326	-0.343864
C72	C	0.676718	0.843326	0.156136
C73	C	0.176711	0.262690	-0.263490
C74	C	0.676711	0.762690	0.236510
C75	C	0.242454	0.262707	-0.263467
C76	C	0.742454	0.762707	0.236533
C77	C	0.275325	0.303038	-0.303638
C78	C	0.775325	0.803038	0.196362
C79	C	1.073877	0.303019	-0.303659
C80	C	1.573877	0.803019	0.196341
C81	C	1.143845	0.303005	-0.303690
C82	C	1.643845	0.803005	0.196310
C83	C	0.949911	0.569412	-0.263366
C84	C	1.449911	1.069412	0.236634
C85	C	0.949941	0.635155	-0.263383
C86	C	1.449941	1.135155	0.236617
C87	C	0.909675	0.668054	-0.303595
C88	C	1.409675	1.168054	0.196405
C89	C	0.869388	0.635205	-0.343803
C90	C	1.369388	1.135205	0.156197
C91	C	0.869363	0.569464	-0.343790
C92	C	1.369363	1.069464	0.156210
N93	N	0.854608	0.771336	-0.308374
N94	N	1.354608	1.271336	0.191626
N95	N	0.854633	0.833787	-0.308383
N96	N	1.354633	1.333787	0.191617
C97	C	0.909746	0.866129	-0.303639
C98	C	1.409746	1.366129	0.196361
N99	N	0.964835	0.833659	-0.298874
N100	N	1.464835	1.333659	0.201126
N101	N	0.964809	0.771202	-0.298861
N102	N	1.464809	1.271202	0.201139
C103	C	0.909697	0.739339	-0.303614
C104	C	1.409697	1.239339	0.196386
C105	C	0.950066	0.970255	-0.263455
C106	C	1.450066	1.470255	0.236545
C107	C	0.950097	1.035999	-0.263476
C108	C	1.450097	1.535999	0.236524
C109	C	0.869538	1.036048	-0.343893
C110	C	1.369538	1.536048	0.156107
C111	C	0.869513	0.970305	-0.343875
C112	C	1.369513	1.470305	0.156125
C113	C	0.909776	0.937413	-0.303652
C114	C	1.409776	1.437413	0.196348
C115	C	0.909787	1.138861	-0.303639
C116	C	1.409787	1.638861	0.196361
C117	C	0.909831	1.068893	-0.303689
C118	C	1.409831	1.568893	0.196311
C119	C	0.950045	0.262761	-0.570640
C120	C	1.450045	0.762761	-0.070640
C121	C	0.950044	0.262734	-0.636383
C122	C	1.450044	0.762734	-0.136383
C123	C	0.909766	0.302989	-0.669227
C124	C	1.409766	0.802989	-0.169227
C125	C	0.869474	0.343263	-0.636323
C126	C	1.369474	0.843263	-0.136323
C127	C	0.869471	0.343285	-0.570582
C128	C	1.369471	0.843285	-0.070582
N129	N	0.904909	0.358058	-0.772443
N130	N	1.404909	0.858058	-0.272443
N131	N	0.904915	0.358036	-0.834895
N132	N	1.404915	0.858036	-0.334895
C133	C	0.909770	0.302926	-0.867302
C134	C	1.409770	0.802926	-0.367302
N135	N	0.914630	0.247837	-0.834898
N136	N	1.414630	0.747837	-0.334898
N137	N	0.914627	0.247860	-0.772441
N138	N	1.414627	0.747860	-0.272441
C139	C	0.909764	0.302970	-0.740512
C140	C	1.409764	0.802970	-0.240512
C141	C	0.950055	0.262621	-0.971483
C142	C	1.450055	0.762621	-0.471483
C143	C	0.950050	0.262593	-1.037227
C144	C	1.450050	0.762593	-0.537227
C145	C	0.869483	0.343128	-1.037166
C146	C	1.369483	0.843128	-0.537166
C147	C	0.869485	0.343151	-0.971424
C148	C	1.369485	0.843151	-0.471424
C149	C	0.909774	0.302898	-0.938586
C150	C	1.409774	0.802898	-0.438586
C151	C	0.909670	0.303019	-0.140034
C152	C	1.409670	0.803019	0.359966
C153	C	0.909770	0.302848	-0.070067
C154	C	1.409770	0.802848	0.429933
H155	H	0.670065	0.376266	-0.376400
H156	H	1.170065	0.876266	0.123600
H157	H	0.836707	0.943564	-0.376607
H158	H	1.336707	1.443564	0.123393
H159	H	0.982851	0.229984	-0.543908
H160	H	1.482851	0.729984	-0.043908
F161	F	0.277449	0.386267	-0.386591
F162	F	0.777449	0.886267	0.113409
F163	F	0.826610	0.385966	-1.072117
F164	F	1.326610	0.885966	-0.572117
H165	H	0.836604	0.661996	-0.376545
H166	H	1.336604	1.161996	0.123455
F167	F	0.542581	0.386317	-0.386496
F168	F	1.042581	0.886317	0.113504
F169	F	0.542562	0.219856	-0.220595
F170	F	1.042562	0.719856	0.279405
H171	H	0.982858	0.229842	-0.944745
H172	H	1.482858	0.729842	-0.444745
F173	F	0.992911	0.219860	-0.671400
F174	F	1.492911	0.719860	-0.171400
F175	F	0.992935	0.219735	-1.072237
F176	F	1.492935	0.719735	-0.572237
F177	F	0.678270	0.219875	-0.220548
F178	F	1.178270	0.719875	0.279452
H179	H	0.836677	0.376038	-0.663069
H180	H	1.336677	0.876038	-0.163069
H181	H	0.982905	1.062737	-0.230741
H182	H	1.482905	1.562737	0.269259
H183	H	0.836755	1.062833	-0.376636
H184	H	1.336755	1.562833	0.123364
H185	H	0.982748	0.661899	-0.230647
H186	H	1.482748	1.161899	0.269353
H187	H	0.836685	0.375948	-0.944640
H188	H	1.336685	0.875948	-0.444640
F189	F	0.826593	0.386149	-0.535571
F190	F	1.326593	0.886149	-0.035571
F191	F	0.141745	0.386231	-0.386647
F192	F	0.641745	0.886231	0.113353
H193	H	0.149942	0.229857	-0.230783
H194	H	0.649942	0.729857	0.269217
H195	H	0.269210	0.229884	-0.230736
H196	H	0.769210	0.729884	0.269264
F197	F	0.826485	0.534511	-0.386579
F198	F	1.326485	1.034511	0.113421
F199	F	0.992770	0.534410	-0.220565
F200	F	1.492770	1.034410	0.279435
H201	H	0.982853	0.943473	-0.230705
H202	H	1.482853	1.443473	0.269295
