data_functionalizedCrystal
_audit_creation_method	'MofGen! by Chris Wilmer'
_symmetry_space_group_name_H-M	'P1'
_symmetry_Int_Tables_number	1
_symmetry_cell_setting	triclinic
loop_
_symmetry_equiv_pos_as_xyz
  x,y,z
_cell_length_a	12.759400
_cell_length_b	13.897449
_cell_length_c	12.759393
_cell_angle_alpha	90.025824
_cell_angle_beta	89.974992
_cell_angle_gamma	89.996626
loop_
_atom_site_label
_atom_site_type_symbol
_atom_site_fract_x
_atom_site_fract_y
_atom_site_fract_z
Zn1	Zn	-0.418206	-1.474796	-0.594236
Zn2	Zn	-0.593925	-1.474731	-0.418577
Zn3	Zn	-0.418260	-1.313486	-0.418553
Zn4	Zn	-0.593843	-1.313507	-0.594195
O5	O	-0.506058	-1.394130	-0.506390
O6	O	-0.441527	-1.609769	-0.570962
O7	O	-0.570679	-1.453305	-0.271552
O8	O	-0.271232	-1.334902	-0.441865
O9	O	-0.570627	-1.609721	-0.441905
O10	O	-0.271192	-1.453416	-0.570939
O11	O	-0.441619	-1.334839	-0.271535
O12	O	-0.441540	-1.178507	-0.441825
O13	O	-0.570487	-1.334938	-0.741222
O14	O	-0.570540	-1.178522	-0.570869
O15	O	-0.441447	-1.453437	-0.741252
O16	O	-0.740935	-1.453326	-0.441866
O17	O	-0.740875	-1.334875	-0.570892
C18	C	-0.506038	-1.143515	-0.506341
C19	C	-0.506054	-1.036301	-0.506345
C20	C	-0.232025	-1.394164	-0.506404
C21	C	-0.115248	-1.394179	-0.506409
C22	C	-0.505952	-1.394197	-0.780424
C23	C	-0.505907	-1.394226	-0.897201
C24	C	-0.779026	-1.394122	-0.506400
C25	C	-0.895802	-1.394206	-0.506439
C26	C	-0.060406	-1.332485	-0.439213
C27	C	0.049318	-1.332496	-0.439230
C28	C	0.049347	-1.455903	-0.573643
C29	C	-0.060375	-1.455886	-0.573630
C30	C	-0.506056	-0.949232	-0.506358
C31	C	-0.506062	-0.839999	-0.506384
C32	C	-0.506075	-0.645723	-0.506428
C33	C	-0.506072	-0.752937	-0.506411
C34	C	-0.438693	-1.332563	-0.952053
C35	C	-0.438661	-1.332585	-1.061777
C36	C	-0.573059	-1.455942	-1.061787
C37	C	-0.573096	-1.455914	-0.952065
C38	C	-0.506088	-1.394118	-0.233423
C39	C	-0.505838	-1.394276	-0.116647
H40	H	-0.105081	-1.282236	-0.384480
H41	H	-0.383929	-1.282372	-1.106433
C42	C	-0.364792	-1.264696	-0.891707
N43	N	-0.309131	-1.213574	-0.846256
C44	C	0.109640	-1.264620	-0.365318
N45	N	0.155074	-1.213489	-0.309648
H46	H	0.094036	-1.506145	-0.628371
C47	C	-0.120705	-1.523762	-0.647550
N48	N	-0.166147	-1.574884	-0.703224
C49	C	-0.647192	-1.523584	-1.122147
N50	N	-0.703113	-1.574458	-1.167609
C51	C	-0.647021	-1.523769	-0.891723
N52	N	-0.702693	-1.574881	-0.846274
