data_functionalizedCrystal
_audit_creation_method	'MofGen! by Chris Wilmer'
_symmetry_space_group_name_H-M	'P1'
_symmetry_Int_Tables_number	1
_symmetry_cell_setting	triclinic
loop_
_symmetry_equiv_pos_as_xyz
  x,y,z
_cell_length_a	16.704494
_cell_length_b	12.970454
_cell_length_c	12.970454
_cell_angle_alpha	59.999776
_cell_angle_beta	90.000252
_cell_angle_gamma	56.632329
loop_
_atom_site_label
_atom_site_type_symbol
_atom_site_fract_x
_atom_site_fract_y
_atom_site_fract_z
Zr1	Zr	0.815199	1.020729	-0.081400
O2	O	0.680082	1.253685	-0.254960
O3	O	0.856620	0.800162	-0.028194
O4	O	0.856621	1.015251	-0.243285
O5	O	0.680080	1.038597	0.129798
O6	O	0.995877	0.996838	-0.234077
O7	O	0.680081	1.038596	-0.039869
O8	O	0.995875	0.612082	0.150681
O9	O	0.680082	1.423352	-0.254960
O10	O	0.978211	0.872554	0.001369
O11	O	0.874284	0.886297	0.121117
O12	O	0.874286	1.139537	-0.132125
O13	O	0.770359	1.153279	-0.012377
Zr14	Zr	1.037296	0.991363	0.203884
Zr15	Zr	1.037297	0.991362	-0.066714
Zr16	Zr	0.815198	1.020731	0.189198
Zr17	Zr	0.815199	1.291329	-0.081402
Zr18	Zr	1.037296	0.720764	0.203886
O19	O	0.995875	1.211931	0.150678
O20	O	0.995877	1.211929	-0.234078
O21	O	0.680080	1.253687	0.129797
O22	O	1.172412	0.758407	0.377444
O23	O	1.172415	0.758405	-0.007312
O24	O	0.856617	0.800164	0.356562
O25	O	1.172415	0.973496	-0.007313
O26	O	0.995874	0.996841	0.365769
O27	O	0.856617	1.015255	0.356561
O28	O	1.172414	0.973497	0.162353
O29	O	0.856621	1.400009	-0.243287
O30	O	0.995874	0.612083	0.365771
O31	O	1.172412	0.588740	0.377445
O32	O	1.172414	0.588739	0.162355
O33	O	0.680081	1.423354	-0.039871
O34	O	0.856620	1.400011	-0.028197
O35	O	0.978209	0.872556	0.254609
O36	O	1.082135	0.858813	0.134861
O37	O	0.978211	1.125796	0.001367
O38	O	0.874284	1.139538	0.121116
C39	C	0.926247	0.667567	0.061244
C40	C	0.926247	0.552690	0.061244
C41	C	0.648436	1.042780	0.042872
C42	C	0.554150	1.055247	0.036637
C43	C	0.485481	0.799920	0.164320
C44	C	0.396894	0.811627	0.158465
C45	C	0.288386	1.090367	0.019082
C46	C	0.376974	1.078660	0.024936
C47	C	0.475520	0.933431	0.097556
C48	C	0.564109	0.921726	0.103403
C49	C	0.455600	1.200464	-0.035973
C50	C	0.367012	1.212171	-0.041827
C51	C	1.204058	0.969312	0.079612
C52	C	1.298345	0.956845	0.085847
C53	C	0.926249	1.006044	-0.277235
C54	C	0.926250	1.006044	-0.392111
C55	C	0.926247	1.344525	0.061240
C56	C	0.926247	1.459402	0.061240
C57	C	0.926245	1.006048	0.399719
C58	C	0.926245	1.006049	0.514596
C59	C	1.204058	0.630833	0.079614
C60	C	1.298345	0.503489	0.085849
C61	C	0.926245	0.667569	0.399721
C62	C	0.926245	0.552693	0.514598
C63	C	1.204056	0.630835	0.418091
C64	C	1.298342	0.503492	0.539203
C65	C	0.648438	1.381257	-0.295607
C66	C	0.554153	1.508601	-0.416719
C67	C	0.648437	1.381260	0.042870
C68	C	0.554150	1.508603	0.036635
C69	C	0.926249	1.344523	-0.277237
C70	C	0.926250	1.459399	-0.392114
C71	C	1.288375	0.450860	0.019085
C72	C	1.376959	0.331223	0.024917
C73	C	1.475511	0.264210	0.097523
C74	C	1.485479	0.316850	0.164290
C75	C	1.396896	0.436492	0.158449
C76	C	1.396878	0.436515	0.533571
C77	C	1.485478	0.316877	0.647358
C78	C	1.475540	0.264210	0.766776
C79	C	1.376994	0.331198	0.772404
C80	C	1.288396	0.450842	0.658618
C81	C	0.455617	1.575590	-0.411087
C82	C	0.367017	1.695262	-0.524874
C83	C	0.376955	1.747935	-0.644292
C84	C	0.475501	1.680940	-0.649920
C85	C	0.564098	1.561277	-0.536134
C86	C	0.564120	1.561244	0.103388
C87	C	0.475536	1.680911	0.097526
C88	C	0.376984	1.747928	0.024916
C89	C	0.367016	1.695282	-0.041845
C90	C	0.455599	1.575625	-0.035989
H91	H	0.644348	0.803474	0.162541
H92	H	1.405028	0.479327	0.212825
H93	H	1.565710	0.262346	0.642753
H94	H	1.547690	0.166787	0.859418
H95	H	1.208168	0.505360	0.663221
H96	H	0.447467	1.532770	-0.090345
O97	O	1.571046	0.135169	0.103810
H98	H	1.641257	0.097411	0.165504
H99	H	0.304804	1.845373	-0.736934
O100	O	0.260742	1.767479	-0.518771
H101	H	0.217778	1.892220	-0.567587
O102	O	0.670364	1.489069	-0.542251
H103	H	0.713320	1.504124	-0.493420
O104	O	0.591775	0.643294	0.242635
H105	H	0.583819	0.552418	0.288080
H106	H	0.304862	1.845359	0.020159
O107	O	1.182088	0.523132	-0.059248
H108	H	1.122154	0.615170	-0.052102
H109	H	0.405012	0.702908	0.212832
H110	H	0.208137	1.208604	-0.040024
H111	H	1.404989	0.479379	0.436347
H112	H	1.368918	0.288298	0.869649
O113	O	0.260718	1.767570	-0.120159
H114	H	0.200805	1.859606	-0.112996
O115	O	1.591778	0.244567	0.242597
H116	H	1.600795	0.194193	0.344781
O117	O	0.260724	1.368806	-0.120167
H118	H	0.200795	1.354520	-0.113034
H119	H	0.447495	1.309180	-0.090341
O120	O	0.444886	1.518800	-0.282294
H121	H	0.361477	1.585515	-0.297516
H122	H	0.483580	1.723842	-0.747163
O123	O	0.670411	1.488995	0.181686
H124	H	0.662444	1.545738	0.227093
H125	H	1.368822	0.288379	-0.029453
H126	H	0.483672	1.723754	0.151897
