data_functionalizedCrystal
_audit_creation_method	'MofGen! by Chris Wilmer'
_symmetry_space_group_name_H-M	'P1'
_symmetry_Int_Tables_number	1
_symmetry_cell_setting	triclinic
loop_
_symmetry_equiv_pos_as_xyz
  x,y,z
_cell_length_a	11.026607
_cell_length_b	14.519731
_cell_length_c	9.482900
_cell_angle_alpha	99.351580
_cell_angle_beta	78.636152
_cell_angle_gamma	96.137435
loop_
_atom_site_label
_atom_site_type_symbol
_atom_site_fract_x
_atom_site_fract_y
_atom_site_fract_z
O1	O	1.629932	0.375019	-0.120915
O2	O	1.276526	0.331028	-0.120915
O3	O	1.462583	0.220329	-0.120902
O4	O	1.443874	0.485718	-0.120928
O5	O	1.424791	0.242930	0.120888
O6	O	1.238733	0.353629	0.120875
O7	O	1.592139	0.397620	0.120875
Cu8	Cu	1.411986	0.377688	0.142952
Cu9	Cu	1.456679	0.350960	-0.142992
O10	O	1.406082	0.508319	0.120862
C11	C	1.212400	0.334213	-0.000019
C12	C	1.077631	0.310021	-0.000019
C13	C	1.003978	0.376820	-0.000026
C14	C	0.864687	0.351817	-0.000026
C15	C	1.442810	0.197126	-0.000006
C16	C	1.440183	0.094313	-0.000005
C17	C	1.438048	0.010817	-0.000009
C18	C	1.435382	-0.093933	-0.000020
C19	C	1.433266	-0.177421	-0.000029
C20	C	1.430600	-0.282177	-0.000038
C21	C	1.656265	0.394435	-0.000023
C22	C	1.791036	0.418626	-0.000033
C23	C	1.425855	0.531522	-0.000037
C24	C	1.428485	0.634334	-0.000047
N25	N	1.380559	0.396488	0.344070
N26	N	1.488115	0.332154	-0.344110
C27	C	1.447402	0.356499	0.416274
C28	C	1.421263	0.372149	0.583690
H29	H	0.824634	0.276110	-0.000056
C30	C	1.591571	0.270245	0.571993
H31	H	1.630110	0.247181	0.639005
H32	H	1.651540	0.306220	0.512594
H33	H	1.556875	0.219125	0.512635
H34	H	0.831092	0.494332	-0.000031
H35	H	1.044042	0.452520	-0.000026
C36	C	1.023526	0.207755	-0.000008
H37	H	1.087796	0.169089	0.000006
H38	H	0.987883	0.187657	-0.084322
H39	H	0.961531	0.203425	0.084323
H40	H	1.523975	0.310672	0.354152
H41	H	1.344677	0.417971	0.645809
H42	H	1.303978	0.442307	0.406195
