data_functionalizedCrystal
_audit_creation_method	'MofGen! by Chris Wilmer'
_symmetry_space_group_name_H-M	'P1'
_symmetry_Int_Tables_number	1
_symmetry_cell_setting	triclinic
loop_
_symmetry_equiv_pos_as_xyz
  x,y,z
_cell_length_a	15.944499
_cell_length_b	15.944551
_cell_length_c	15.072220
_cell_angle_alpha	89.997918
_cell_angle_beta	89.984913
_cell_angle_gamma	83.488174
loop_
_atom_site_label
_atom_site_type_symbol
_atom_site_fract_x
_atom_site_fract_y
_atom_site_fract_z
O1	O	1.114562	0.108120	-0.073838
O2	O	1.614562	0.608120	0.426162
O3	O	0.870006	0.121521	-0.073828
O4	O	1.370006	0.621521	0.426172
O5	O	0.998962	-0.007456	-0.073825
O6	O	1.498962	0.492544	0.426175
O7	O	0.985606	0.237096	-0.073840
O8	O	1.485606	0.737096	0.426160
O9	O	0.998930	-0.007448	0.073740
O10	O	1.498930	0.492552	0.573740
O11	O	0.869974	0.121528	0.073737
O12	O	1.369974	0.621528	0.573737
O13	O	1.114530	0.108127	0.073728
O14	O	1.614530	0.608127	0.573728
Zn15	Zn	0.992247	0.114829	0.097161
Zn16	Zn	1.492247	0.614829	0.597161
Zn17	Zn	0.992289	0.114819	-0.097262
Zn18	Zn	1.492289	0.614819	0.402738
O19	O	0.985574	0.237104	0.073725
O20	O	1.485574	0.737104	0.573725
C21	C	0.838695	0.120976	-0.000044
C22	C	1.338695	0.620976	0.499956
C23	C	0.745447	0.119331	-0.000040
C24	C	1.245447	0.619331	0.499960
C25	C	0.453911	0.194263	-0.000058
C26	C	0.953911	0.694263	0.499942
C27	C	0.514956	0.155308	-0.072815
C28	C	1.014956	0.655308	0.427185
C29	C	0.409810	0.113355	-0.000060
C30	C	0.909810	0.613355	0.499940
C31	C	0.514910	0.155294	0.072673
C32	C	1.014910	0.655294	0.572673
C33	C	0.574719	0.116296	-0.000049
C34	C	1.074719	0.616296	0.499951
C35	C	0.469627	0.074377	-0.072877
C36	C	0.969627	0.574377	0.427123
C37	C	0.469575	0.074374	0.072676
C38	C	0.969575	0.574374	0.572676
C39	C	0.530603	0.035360	-0.000098
C40	C	1.030603	0.535360	0.499902
C41	C	0.314810	0.111663	-0.000068
C42	C	0.814810	0.611663	0.499932
C43	C	0.669718	0.117981	-0.000048
C44	C	1.169718	0.617981	0.499952
C45	C	0.998392	-0.038746	-0.000042
C46	C	1.498392	0.461254	0.499958
C47	C	0.996729	-0.131992	-0.000042
C48	C	1.496729	0.368008	0.499958
C49	C	0.912823	-0.346833	-0.000051
C50	C	1.412823	0.153167	0.499949
C51	C	0.951771	-0.407854	0.072706
C52	C	1.451771	0.092146	0.572706
C53	C	0.993722	-0.302717	-0.000048
C54	C	1.493722	0.197283	0.499952
C55	C	0.951821	-0.407844	-0.072781
C56	C	1.451821	0.092156	0.427219
C57	C	0.990811	-0.467629	-0.000059
C58	C	1.490811	0.032371	0.499941
C59	C	1.032692	-0.362510	0.072769
C60	C	1.532692	0.137490	0.572769
C61	C	1.032731	-0.362494	-0.072784
C62	C	1.532731	0.137506	0.427216
C63	C	1.071737	-0.423497	-0.000010
C64	C	1.571737	0.076503	0.499990
C65	C	0.995397	-0.207715	-0.000042
C66	C	1.495397	0.292285	0.499958
C67	C	0.989143	-0.562630	-0.000059
C68	C	1.489143	-0.062630	0.499941
C69	C	1.145840	0.108672	-0.000058
C70	C	1.645840	0.608672	0.499942
C71	C	1.239089	0.110317	-0.000068
C72	C	1.739089	0.610317	0.499932
C73	C	0.986144	0.268394	-0.000060
C74	C	1.486144	0.768394	0.499940
C75	C	0.987806	0.361640	-0.000066
C76	C	1.487806	0.861640	0.499934
N77	N	0.992224	0.114835	0.229850
N78	N	1.492224	0.614835	0.729850
N79	N	0.992318	0.114807	-0.229951
N80	N	1.492318	0.614807	0.270049
C81	C	0.992287	0.114816	0.589052
C82	C	1.492287	0.614816	1.089052
C83	C	0.923054	0.183598	0.551443
C84	C	1.423054	0.683598	1.051443
C85	C	0.923212	0.183849	0.448618
C86	C	1.423212	0.683849	0.948618
C87	C	0.992255	0.114825	0.410848
C88	C	1.492255	0.614825	0.910848
C89	C	1.079901	0.133956	0.448134
C90	C	1.579901	0.633956	0.948134
C91	C	1.079513	0.134445	0.550992
C92	C	1.579513	0.634445	1.050992
C93	C	0.974656	0.026700	0.551159
C94	C	1.474656	0.526700	1.051159
C95	C	0.972645	0.027288	0.448295
C96	C	1.472645	0.527288	0.948295
C97	C	0.992243	0.114829	0.310134
C98	C	1.492243	0.614829	0.810134
C99	C	0.992305	0.114814	0.689765
C100	C	1.492305	0.614814	1.189765
H101	H	0.449445	0.040184	0.134192
H102	H	0.949445	0.540184	0.634192
C103	C	0.885541	0.007674	0.415381
C104	C	1.385541	0.507674	0.915381
N105	N	0.819933	-0.007096	0.390586
N106	N	1.319933	0.492904	0.890586
C107	C	0.542011	0.201545	0.155769
C108	C	1.042011	0.701545	0.655769
N109	N	0.562419	0.236387	0.218354
N110	N	1.062419	0.736387	0.718354
C111	C	0.905526	-0.435011	0.155805
C112	C	1.405526	0.064989	0.655805
N113	N	0.870690	-0.455464	0.218392
N114	N	1.370690	0.044536	0.718392
C115	C	0.822110	-0.301812	0.000052
C116	C	1.322110	0.198188	0.500052
N117	N	0.753787	-0.267899	0.000135
N118	N	1.253787	0.232101	0.500135
H119	H	1.095808	0.197486	0.422360
H120	H	1.595808	0.697486	0.922360
C121	C	1.042860	-0.042450	0.584020
C122	C	1.542860	0.457550	1.084020
N123	N	1.094231	-0.094528	0.608776
N124	N	1.594231	0.405472	1.108776
H125	H	0.912133	0.008301	0.577153
H126	H	1.412133	0.508301	1.077153
H127	H	1.066867	-0.342523	0.134346
H128	H	1.566867	0.157477	0.634346
H129	H	1.095049	0.198708	0.574969
H130	H	1.595049	0.698708	1.074969
H131	H	1.138946	-0.456668	0.000029
H132	H	1.638946	0.043332	0.500029
C133	C	1.078934	-0.335307	-0.155891
C134	C	1.578934	0.164693	0.344109
N135	N	1.113729	-0.314828	-0.218494
N136	N	1.613729	0.185172	0.281506
H137	H	0.917607	-0.427918	-0.134296
H138	H	1.417607	0.072082	0.365704
C139	C	0.835195	0.168467	0.414561
C140	C	1.335195	0.668467	0.914561
N141	N	0.768895	0.156888	0.388915
N142	N	1.268895	0.656888	0.888915
C143	C	1.151221	0.069361	0.584600
C144	C	1.651221	0.569361	1.084600
N145	N	1.205239	0.020352	0.609911
N146	N	1.705239	0.520352	1.109911
H147	H	0.857694	0.172389	0.576208
H148	H	1.357694	0.672389	1.076208
C149	C	0.408877	0.284971	-0.000161
C150	C	0.908877	0.784971	0.499839
N151	N	0.374955	0.353290	-0.000244
N152	N	0.874955	0.853290	0.499756
C153	C	1.151167	0.068080	0.415078
C154	C	1.651167	0.568080	0.915078
N155	N	1.204843	0.018461	0.390178
N156	N	1.704843	0.518461	0.890178
H157	H	0.449662	0.040185	-0.134456
H158	H	0.949662	0.540185	0.365544
C159	C	0.542133	0.201540	-0.155908
C160	C	1.042133	0.701540	0.344092
N161	N	0.562603	0.236369	-0.218489
N162	N	1.062603	0.736369	0.281511
H163	H	0.563780	-0.031846	-0.000132
H164	H	1.063780	0.468154	0.499868
C165	C	0.938052	0.271441	0.586342
C166	C	1.438052	0.771441	1.086342
N167	N	0.949352	0.337604	0.612628
N168	N	1.449352	0.837604	1.112628
C169	C	0.938428	0.272187	0.415355
C170	C	1.438428	0.772187	0.915355
N171	N	0.949893	0.338726	0.390303
N172	N	1.449893	0.838726	0.890303
C173	C	1.036357	-0.045098	0.413586
C174	C	1.536357	0.454902	0.913586
N175	N	1.084356	-0.099617	0.387450
N176	N	1.584356	0.400383	0.887450
