data_functionalizedCrystal
_audit_creation_method	'MofGen! by Chris Wilmer'
_symmetry_space_group_name_H-M	'P1'
_symmetry_Int_Tables_number	1
_symmetry_cell_setting	triclinic
loop_
_symmetry_equiv_pos_as_xyz
  x,y,z
_cell_length_a	16.956984
_cell_length_b	27.732048
_cell_length_c	15.455313
_cell_angle_alpha	92.637842
_cell_angle_beta	87.518126
_cell_angle_gamma	79.348037
loop_
_atom_site_label
_atom_site_type_symbol
_atom_site_fract_x
_atom_site_fract_y
_atom_site_fract_z
O1	O	1.061316	0.017782	-0.072138
O2	O	0.828949	0.034760	-0.072141
O3	O	0.952348	-0.044381	-0.072123
O4	O	0.937916	0.096923	-0.072156
O5	O	0.945292	-0.039873	0.072138
O6	O	0.821893	0.039268	0.072120
O7	O	1.054259	0.022290	0.072124
Cu8	Cu	0.937432	0.031191	0.085294
Cu9	Cu	0.945777	0.025859	-0.085311
O10	O	0.930860	0.101431	0.072105
C11	C	0.795702	0.037884	-0.000011
C12	C	0.707150	0.040469	-0.000011
C13	C	0.675597	-0.002750	0.000000
C14	C	0.592392	-0.000318	-0.000006
C15	C	0.540741	0.045332	-0.000019
C16	C	0.572298	0.088554	-0.000033
C17	C	0.655502	0.086122	-0.000032
C18	C	0.290820	0.057371	-0.000028
C19	C	0.207612	0.059800	-0.000026
C20	C	0.227711	-0.029073	-0.000001
C21	C	0.310916	-0.031501	0.000005
C22	C	0.342466	0.011721	-0.000014
N23	N	0.455692	0.047819	-0.000023
N24	N	0.427514	0.009233	-0.000016
C25	C	0.948517	-0.060123	0.000010
C26	C	0.947604	-0.113745	0.000017
C27	C	1.014784	-0.454942	-0.000026
C28	C	1.011400	-0.656482	-0.000038
O29	O	1.072831	-0.689915	-0.000075
N30	N	0.938229	-0.673013	-0.000039
C31	C	0.865899	-0.639156	-0.000042
O32	O	0.803585	-0.657841	-0.000051
C33	C	0.869284	-0.437617	-0.000036
C34	C	0.942460	-0.421089	-0.000027
C35	C	1.087954	-0.438413	-0.000018
C36	C	1.088799	-0.388031	-0.000010
C37	C	1.016475	-0.354178	-0.000011
C38	C	0.943305	-0.370706	-0.000019
C39	C	0.796955	-0.403761	-0.000045
C40	C	0.797808	-0.353374	-0.000045
C41	C	0.870984	-0.336845	-0.000036
C42	C	0.871825	-0.286471	-0.000011
N43	N	0.944997	-0.269940	-0.000011
C44	C	1.017321	-0.303793	-0.000011
C45	C	0.864126	-0.744967	-0.000043
C46	C	0.863280	-0.795352	-0.000043
C47	C	1.008781	-0.812674	-0.000041
C48	C	1.009627	-0.762289	-0.000035
C49	C	0.937298	-0.728436	-0.000043
C50	C	1.019091	-0.197986	0.000006
C51	C	1.019929	-0.147599	0.000018
C52	C	0.874428	-0.130280	0.000012
C53	C	0.873589	-0.180663	0.000005
C54	C	0.945927	-0.214516	-0.000001
O55	O	0.810428	-0.253011	0.000016
O56	O	1.079627	-0.285098	-0.000020
C57	C	1.013939	-0.505324	-0.000034
C58	C	0.940770	-0.521853	-0.000042
C59	C	0.868445	-0.488000	-0.000042
C60	C	0.939923	-0.572238	-0.000042
C61	C	1.012248	-0.606091	-0.000042
C62	C	1.085419	-0.589560	-0.000041
C63	C	1.086264	-0.539178	-0.000034
C64	C	0.795274	-0.504531	-0.000043
C65	C	0.794435	-0.554914	-0.000049
C66	C	0.866759	-0.588767	-0.000049
C67	C	1.087506	0.019166	-0.000009
C68	C	1.176059	0.016581	-0.000014
C69	C	0.934691	0.117173	-0.000030
C70	C	0.935604	0.170795	-0.000043
N71	N	0.931568	0.034940	0.205289
N72	N	0.951647	0.022106	-0.205306
C73	C	0.984011	0.001329	0.250691
C74	C	0.979583	0.004169	0.341498
C75	C	0.922717	0.040622	0.386901
C76	C	0.870269	0.074235	0.341493
C77	C	0.874693	0.071392	0.250688
C78	C	0.903623	0.052877	0.658480
C79	C	0.899204	0.055717	0.749292
C80	C	1.008518	-0.014350	0.749290
C81	C	1.012940	-0.017187	0.658483
C82	C	0.960489	0.016424	0.613083
N83	N	0.918192	0.043526	0.479721
N84	N	0.965011	0.013517	0.520265
H85	H	0.202014	-0.064261	0.000005
C86	C	0.817010	0.108364	0.200741
H87	H	0.827784	0.101448	0.140159
H88	H	0.824546	0.140763	0.215604
H89	H	0.763107	0.105683	0.215639
C90	C	0.836649	0.095816	0.799239
H91	H	0.841535	0.092697	0.859821
H92	H	0.784196	0.092206	0.784379
H93	H	0.845639	0.127284	0.784339
H94	H	0.717647	-0.039923	0.000014
H95	H	0.352965	-0.068674	0.000019
H96	H	1.077995	-0.225544	-0.000001
H97	H	1.067671	-0.840247	-0.000041
C98	C	1.037278	-0.032799	0.391436
H99	H	1.071787	-0.054912	0.351390
H100	H	1.007113	-0.050689	0.426878
H101	H	1.068543	-0.015602	0.426841
H102	H	1.030320	-0.028353	0.213729
H103	H	0.566707	-0.035511	0.000002
H104	H	1.079520	-0.134145	0.000027
H105	H	0.803692	-0.808803	-0.000035
C106	C	0.515488	0.138769	-0.000053
H107	H	0.546199	0.164160	-0.000069
H108	H	0.480150	0.143140	0.050252
H109	H	0.485077	0.139990	-0.050368
C110	C	0.150796	0.110017	-0.000053
H111	H	0.181503	0.135409	-0.000075
H112	H	0.115457	0.114389	0.050252
H113	H	0.120386	0.111232	-0.050369
C114	C	0.325515	0.104913	-0.000032
H115	H	0.282835	0.132448	-0.000027
H116	H	0.360017	0.104245	-0.050337
H117	H	0.355092	0.107381	0.050284
H118	H	1.145851	-0.525726	-0.000026
C119	C	0.690210	0.133662	-0.000044
H120	H	0.647532	0.161198	-0.000044
H121	H	0.724710	0.132987	-0.050352
H122	H	0.719789	0.136133	0.050268
H123	H	0.815543	-0.102708	0.000014
C124	C	1.075488	-0.057288	0.608545
H125	H	1.106083	-0.076902	0.648591
H126	H	1.110206	-0.042317	0.573104
H127	H	1.048758	-0.077392	0.573141
C128	C	1.169294	-0.369857	-0.000017
H129	H	1.212241	-0.397240	-0.000028
H130	H	1.170201	-0.348994	0.050287
H131	H	1.175107	-0.352133	-0.050333
C132	C	1.164974	-0.626805	-0.000048
H133	H	1.153983	-0.659178	-0.000061
H134	H	1.192552	-0.620546	0.050257
H135	H	1.197460	-0.623675	-0.050363
H136	H	1.146853	-0.465973	-0.000021
H137	H	0.823964	0.103914	0.378466
C138	C	1.066202	-0.051324	0.799228
H139	H	1.100705	-0.073439	0.759181
H140	H	1.036028	-0.069209	0.834667
H141	H	1.097475	-0.034133	0.834635
C142	C	1.090119	-0.744112	-0.000033
H143	H	1.133068	-0.771494	-0.000037
H144	H	1.091018	-0.723248	0.050271
H145	H	1.095938	-0.726389	-0.050349
C146	C	0.784558	-0.707734	-0.000039
H147	H	0.740865	-0.724800	-0.000030
H148	H	0.784313	-0.689284	-0.050344
H149	H	0.779403	-0.686153	0.050277
C150	C	0.845936	0.089851	0.608551
H151	H	0.811443	0.111971	0.648599
H152	H	0.814665	0.072664	0.573143
H153	H	0.876114	0.107739	0.573113
H154	H	0.734842	-0.568365	-0.000049
H155	H	0.737368	-0.417209	-0.000057
C156	C	0.718244	-0.316138	-0.000050
H157	H	0.674547	-0.333201	-0.000050
H158	H	0.718009	-0.297689	-0.050354
H159	H	0.713085	-0.294557	0.050266
H160	H	0.814002	-0.194120	0.000021
C161	C	0.715712	-0.467298	-0.000034
H162	H	0.672018	-0.484364	-0.000028
H163	H	0.715466	-0.448846	-0.050335
H164	H	0.710558	-0.445720	0.050286
