data_functionalizedCrystal
_audit_creation_method	'MofGen! by Chris Wilmer'
_symmetry_space_group_name_H-M	'P1'
_symmetry_Int_Tables_number	1
_symmetry_cell_setting	triclinic
loop_
_symmetry_equiv_pos_as_xyz
  x,y,z
_cell_length_a	15.995350
_cell_length_b	9.065218
_cell_length_c	7.540329
_cell_angle_alpha	89.999384
_cell_angle_beta	89.998411
_cell_angle_gamma	95.745870
loop_
_atom_site_label
_atom_site_type_symbol
_atom_site_fract_x
_atom_site_fract_y
_atom_site_fract_z
O1	O	-1.112425	0.190157	-0.147326
O2	O	-0.612425	0.690157	0.352674
O3	O	-0.868828	0.213640	-0.147362
O4	O	-0.368828	0.713640	0.352638
O5	O	-0.995661	-0.012863	-0.147338
O6	O	-0.495661	0.487137	0.352662
O7	O	-0.985591	0.416659	-0.147350
O8	O	-0.485591	0.916659	0.352650
O9	O	-0.995656	-0.012859	0.147627
O10	O	-0.495656	0.487141	0.647627
O11	O	-0.868822	0.213643	0.147603
O12	O	-0.368822	0.713643	0.647603
O13	O	-1.112419	0.190160	0.147639
O14	O	-0.612419	0.690160	0.647639
Cu15	Cu	-0.990620	0.201902	0.174554
Cu16	Cu	-0.490620	0.701902	0.674554
Cu17	Cu	-0.990627	0.201898	-0.174277
Cu18	Cu	-0.490627	0.701898	0.325723
O19	O	-0.985585	0.416663	0.147615
O20	O	-0.485585	0.916663	0.647615
C21	C	-0.837623	0.212670	0.000116
C22	C	-0.337623	0.712670	0.500116
C23	C	-0.744650	0.209760	0.000102
C24	C	-0.244650	0.709760	0.500102
C25	C	-1.143624	0.191129	0.000157
C26	C	-0.643624	0.691129	0.500157
C27	C	-1.236597	0.194040	0.000159
C28	C	-0.736597	0.694040	0.500159
C29	C	-0.994691	-0.067825	0.000142
C30	C	-0.494691	0.432175	0.500142
C31	C	-0.991797	-0.231600	0.000134
C32	C	-0.491797	0.268400	0.500134
C33	C	-0.406824	0.199308	0.000139
C34	C	0.093176	0.699308	0.500139
C35	C	-0.453034	0.037997	0.000802
C36	C	0.046966	0.537997	0.500802
C37	C	-0.549747	0.040908	0.000125
C38	C	-0.049747	0.540908	0.500125
C39	C	-0.574423	0.204492	0.000122
C40	C	-0.074423	0.704492	0.500122
C41	C	-0.533943	0.284054	-0.168313
C42	C	-0.033943	0.784054	0.331687
C43	C	-0.437276	0.280002	-0.168441
C44	C	0.062724	0.780002	0.331559
C45	C	-0.436956	0.283339	0.166989
C46	C	0.063044	0.783339	0.666989
C47	C	-0.533901	0.283300	0.169203
C48	C	-0.033901	0.783300	0.669203
C49	C	-0.669143	0.207431	0.000106
C50	C	-0.169143	0.707431	0.500106
C51	C	-0.312103	0.196374	0.000143
C52	C	0.187897	0.696374	0.500143
C53	C	-0.986556	0.471625	0.000131
C54	C	-0.486556	0.971625	0.500131
C55	C	-0.989450	0.635400	0.000127
C56	C	-0.489450	1.135400	0.500127
N57	N	-0.990621	0.201904	0.419902
N58	N	-0.490621	0.701904	0.919902
N59	N	-0.990628	0.201901	0.580375
N60	N	-0.490628	0.701901	1.080375
H61	H	-0.577699	-0.021632	0.120866
H62	H	-0.077699	0.478368	0.620866
Cl63	Cl	-0.592001	-0.055880	-0.186931
Cl64	Cl	-0.092001	0.444120	0.313069
H65	H	-0.418531	0.221979	-0.294348
H66	H	0.081469	0.721979	0.205652
H67	H	-0.434021	-0.026482	0.121593
H68	H	0.065979	0.473518	0.621593
Cl69	Cl	-0.422032	-0.061111	-0.184645
Cl70	Cl	0.077968	0.438889	0.315355
Cl71	Cl	-0.388870	0.462845	-0.180250
Cl72	Cl	0.111130	0.962845	0.319750
H73	H	-0.548979	0.404235	-0.174578
H74	H	-0.048979	0.904235	0.325422
Cl75	Cl	-0.577102	0.198734	-0.361850
Cl76	Cl	-0.077102	0.698734	0.138150
Cl77	Cl	-0.404636	0.201914	0.364103
Cl78	Cl	0.095364	0.701914	0.864103
Cl79	Cl	-0.575287	0.193482	0.361588
Cl80	Cl	-0.075287	0.693482	0.861588
H81	H	-0.550171	0.402591	0.179375
H82	H	-0.050171	0.902591	0.679375
Cl83	Cl	-0.389313	0.466961	0.168748
Cl84	Cl	0.110687	0.966961	0.668748
