data_functionalizedCrystal
_audit_creation_method	'MofGen! by Chris Wilmer'
_symmetry_space_group_name_H-M	'P1'
_symmetry_Int_Tables_number	1
_symmetry_cell_setting	triclinic
loop_
_symmetry_equiv_pos_as_xyz
  x,y,z
_cell_length_a	18.050591
_cell_length_b	29.839131
_cell_length_c	18.050582
_cell_angle_alpha	89.974523
_cell_angle_beta	89.979078
_cell_angle_gamma	90.037426
loop_
_atom_site_label
_atom_site_type_symbol
_atom_site_fract_x
_atom_site_fract_y
_atom_site_fract_z
Zn1	Zn	1.135224	-0.178930	-0.420016
Zn2	Zn	1.635224	0.321070	0.079984
Zn3	Zn	1.135106	-0.254052	-0.295820
Zn4	Zn	1.635106	0.245948	0.204180
Zn5	Zn	1.011044	-0.178932	-0.295827
Zn6	Zn	1.511044	0.321068	0.204173
Zn7	Zn	1.010963	-0.254028	-0.419956
Zn8	Zn	1.510963	0.245972	0.080044
O9	O	1.073084	-0.216485	-0.357905
O10	O	1.573084	0.283515	0.142095
O11	O	1.239133	-0.188904	-0.403564
O12	O	1.739133	0.311096	0.096436
O13	O	1.118634	-0.244098	-0.191896
O14	O	1.618634	0.255902	0.308104
O15	O	1.027600	-0.116064	-0.312330
O16	O	1.527600	0.383936	0.187670
O17	O	1.239047	-0.244096	-0.312317
O18	O	1.739047	0.255904	0.187683
O19	O	1.118835	-0.116063	-0.403571
O20	O	1.618835	0.383937	0.096429
O21	O	1.027485	-0.188907	-0.191902
O22	O	1.527485	0.311093	0.308098
O23	O	0.907108	-0.188884	-0.312271
O24	O	1.407108	0.311116	0.187729
O25	O	1.027462	-0.244056	-0.523888
O26	O	1.527462	0.255944	-0.023888
O27	O	0.907049	-0.244057	-0.403467
O28	O	1.407049	0.255943	0.096533
O29	O	1.118756	-0.188881	-0.523933
O30	O	1.618756	0.311119	-0.023933
O31	O	1.118555	-0.316916	-0.312258
O32	O	1.618555	0.183084	0.187742
O33	O	1.027348	-0.316898	-0.403460
O34	O	1.527348	0.183102	0.096540
C35	C	0.880132	-0.216469	-0.357864
C36	C	1.380132	0.283531	0.142136
C37	C	0.797586	-0.216472	-0.357864
C38	C	1.297586	0.283528	0.142136
C39	C	0.598146	-0.186434	-0.308386
C40	C	1.098146	0.313566	0.191614
C41	C	0.548711	-0.227410	-0.290106
C42	C	1.048711	0.272590	0.209894
C43	C	0.646456	-0.216486	-0.357897
C44	C	1.146456	0.283514	0.142103
C45	C	0.548810	-0.175525	-0.376175
C46	C	1.048810	0.324475	0.123825
C47	C	0.500471	-0.216495	-0.357928
C48	C	1.000471	0.283505	0.142072
C49	C	0.598108	-0.257483	-0.339583
C50	C	1.098108	0.242517	0.160417
C51	C	0.598211	-0.205570	-0.425683
C52	C	1.098211	0.294430	0.074317
C53	C	0.548798	-0.246574	-0.407429
C54	C	1.048798	0.253426	0.092571
C55	C	0.730554	-0.216480	-0.357878
C56	C	1.230554	0.283520	0.142122
C57	C	0.416374	-0.216506	-0.357948
C58	C	0.916374	0.283494	0.142052
C59	C	1.072950	-0.333208	-0.357868
C60	C	1.572950	0.166792	0.142132
C61	C	1.072961	-0.383142	-0.357877
C62	C	1.572961	0.116858	0.142123
C63	C	1.120663	-0.692782	-0.310485
C64	C	1.620663	-0.192782	0.189515
C65	C	1.120754	-0.880455	-0.310514
C66	C	1.620754	-0.380455	0.189486
O67	O	1.161206	-0.904717	-0.270192
O68	O	1.661206	-0.404717	0.229808
N69	N	1.073238	-0.903927	-0.357961
N70	N	1.573238	-0.403927	0.142039
C71	C	1.025700	-0.880478	-0.405407
C72	C	1.525700	-0.380478	0.094593
O73	O	0.985292	-0.904749	-0.445769
O74	O	1.485292	-0.404749	0.054231
C75	C	1.025612	-0.692806	-0.405381
C76	C	1.525612	-0.192806	0.094619
C77	C	1.073126	-0.669337	-0.357926
C78	C	1.573126	-0.169337	0.142074
C79	C	1.168173	-0.669312	-0.263035
C80	C	1.668173	-0.169312	0.236965
C81	C	1.168147	-0.622397	-0.263025
C82	C	1.668147	-0.122397	0.236975
C83	C	1.120610	-0.598951	-0.310466
C84	C	1.620610	-0.098951	0.189534
C85	C	1.073100	-0.622421	-0.357917
C86	C	1.573100	-0.122421	0.142083
C87	C	0.978078	-0.669358	-0.452831
C88	C	1.478078	-0.169358	0.047169
C89	C	0.978062	-0.622437	-0.452822
C90	C	1.478062	-0.122437	0.047178
C91	C	1.025575	-0.598967	-0.405367
C92	C	1.525575	-0.098967	0.094633
C93	C	1.025537	-0.552060	-0.405348
C94	C	1.525537	-0.052060	0.094652
N95	N	1.073053	-0.528588	-0.357902
N96	N	1.573053	-0.028588	0.142098
C97	C	1.120589	-0.552033	-0.310461
C98	C	1.620589	-0.052033	0.189539
C99	C	1.025748	-0.979009	-0.405416
C100	C	1.525748	-0.479009	0.094584
C101	C	1.025769	-1.025927	-0.405422
C102	C	1.525769	-0.525927	0.094578
C103	C	1.120824	-1.025900	-0.310530
C104	C	1.620824	-0.525900	0.189470
C105	C	1.120799	-0.978982	-0.310521
C106	C	1.620799	-0.478982	0.189479
C107	C	1.073264	-0.955537	-0.357970
C108	C	1.573264	-0.455537	0.142030
C109	C	1.120530	-0.453508	-0.310444
C110	C	1.620530	0.046492	0.189556
C111	C	1.120497	-0.406588	-0.310436
C112	C	1.620497	0.093412	0.189564
C113	C	1.025445	-0.406619	-0.405331
C114	C	1.525445	0.093381	0.094669
C115	C	1.025474	-0.453534	-0.405336
C116	C	1.525474	0.046466	0.094664
C117	C	1.073023	-0.476977	-0.357890
C118	C	1.573023	0.023023	0.142110
O119	O	0.985113	-0.527769	-0.445655
O120	O	1.485113	-0.027769	0.054345
O121	O	1.161002	-0.527755	-0.270116
O122	O	1.661002	-0.027755	0.229884
C123	C	1.120689	-0.739698	-0.310495
C124	C	1.620689	-0.239698	0.189505
C125	C	1.073178	-0.763167	-0.357946
C126	C	1.573178	-0.263167	0.142054
C127	C	1.025642	-0.739722	-0.405387
C128	C	1.525642	-0.239722	0.094613
C129	C	1.073199	-0.810085	-0.357951
C130	C	1.573199	-0.310085	0.142049
C131	C	1.120736	-0.833531	-0.310510
C132	C	1.620736	-0.333531	0.189490
C133	C	1.168252	-0.810059	-0.263064
C134	C	1.668252	-0.310059	0.236936
C135	C	1.168225	-0.763143	-0.263054
C136	C	1.668225	-0.263143	0.236946
C137	C	0.978126	-0.763194	-0.452833
C138	C	1.478126	-0.263194	0.047167
C139	C	0.978155	-0.810109	-0.452838
C140	C	1.478155	-0.310109	0.047162
C141	C	1.025692	-0.833555	-0.405397
C142	C	1.525692	-0.333555	0.094603
C143	C	1.266790	-0.216502	-0.357947
C144	C	1.766790	0.283498	0.142053
C145	C	1.349336	-0.216510	-0.357964
C146	C	1.849336	0.283490	0.142036
C147	C	1.073113	-0.216465	-0.551611
C148	C	1.573113	0.283535	-0.051611
C149	C	1.073126	-0.216457	-0.634156
C150	C	1.573126	0.283543	-0.134156
C151	C	1.073239	-0.099307	-0.357958
C152	C	1.573239	0.400693	0.142042
C153	C	1.073305	-0.049373	-0.357981
C154	C	1.573305	0.450627	0.142019
C155	C	1.023518	-0.246420	-0.833583
C156	C	1.523518	0.253580	-0.333583
C157	C	1.091269	-0.257404	-0.882980
C158	C	1.591269	0.242596	-0.382980
C159	C	1.073162	-0.216423	-0.785287
C160	C	1.573162	0.283577	-0.285287
C161	C	1.005449	-0.205426	-0.882971
C162	C	1.505449	0.294574	-0.382971
C163	C	1.073192	-0.216390	-0.931272
C164	C	1.573192	0.283610	-0.431272
C165	C	1.140949	-0.227429	-0.833597
C166	C	1.640949	0.272571	-0.333597
C167	C	1.055083	-0.175431	-0.833584
C168	C	1.555083	0.324569	-0.333584
C169	C	1.122881	-0.186400	-0.882959
C170	C	1.622881	0.313600	-0.382959
C171	C	1.073145	-0.216442	-0.701189
C172	C	1.573145	0.283558	-0.201189
C173	C	1.073218	-0.216371	-1.015369
C174	C	1.573218	0.283629	-0.515369
C175	C	1.073098	-0.216473	-0.164953
C176	C	1.573098	0.283527	0.335047
C177	C	1.073230	-0.216355	-0.082407
C178	C	1.573230	0.283645	0.417593
H179	H	0.619673	-0.292138	-0.324073
H180	H	1.119673	0.207862	0.175927
C181	C	1.265920	-0.247740	-0.864343
C182	C	1.765920	0.252260	-0.364343
C183	C	1.218295	-0.240023	-0.804450
C184	C	1.718295	0.259977	-0.304450
H185	H	1.313669	-0.255513	-0.846346
H186	H	1.813669	0.244487	-0.346346
H187	H	1.247019	-0.271570	-0.893658
H188	H	1.747019	0.228430	-0.393658
H189	H	1.269381	-0.221366	-0.893638
H190	H	1.769381	0.278634	-0.393638
H191	H	1.214830	-0.266399	-0.775158
H192	H	1.714830	0.233601	-0.275158
H193	H	1.237200	-0.216191	-0.775123
H194	H	1.737200	0.283809	-0.275123
H195	H	1.206916	-0.744038	-0.224412
H196	H	1.706916	-0.244038	0.275588
H197	H	0.527115	-0.140885	-0.391596
H198	H	1.027115	0.359115	0.108404
C199	C	1.268166	-0.721977	-0.252875
C200	C	1.768166	-0.221977	0.247125
C201	C	1.220483	-0.695060	-0.210909
C202	C	1.720483	-0.195060	0.289091
H203	H	1.300477	-0.737862	-0.220696
H204	H	1.800477	-0.237862	0.279304
H205	H	1.239879	-0.742688	-0.281095
H206	H	1.739879	-0.242688	0.218905
H207	H	1.296488	-0.703632	-0.285286
H208	H	1.796488	-0.203632	0.214714
H209	H	1.192156	-0.713405	-0.178501
H210	H	1.692156	-0.213405	0.321499
H211	H	1.248772	-0.674347	-0.182676
H212	H	1.748772	-0.174347	0.317324
H213	H	0.986739	-0.387522	-0.443954
H214	H	1.486739	0.112478	0.056046
H215	H	0.527267	-0.272021	-0.449313
H216	H	1.027267	0.227979	0.050687
H217	H	0.619970	-0.196318	-0.482978
H218	H	1.119970	0.303682	0.017022
H219	H	1.159189	-0.387480	-0.271790
H220	H	1.659189	0.112520	0.228210
H221	H	0.939383	-0.688459	-0.491470
H222	H	1.439383	-0.188459	0.008530
H223	H	1.159250	-0.472590	-0.271810
H224	H	1.659250	0.027410	0.228190
C225	C	0.963404	-0.117234	-0.829136
C226	C	1.463404	0.382766	-0.329136
C227	C	1.034389	-0.128667	-0.804258
C228	C	1.534389	0.371333	-0.304258
H229	H	0.950622	-0.088366	-0.811025
H230	H	1.450622	0.411634	-0.311025
H231	H	0.962821	-0.116947	-0.881750
H232	H	1.462821	0.383053	-0.381750
H233	H	0.928627	-0.138634	-0.811492
H234	H	1.428627	0.361366	-0.311492
H235	H	1.069167	-0.107269	-0.821907
H236	H	1.569167	0.392731	-0.321907
H237	H	1.034977	-0.128952	-0.751633
H238	H	1.534977	0.371048	-0.251633
H239	H	1.206838	-0.603291	-0.224386
H240	H	1.706838	-0.103291	0.275614
H241	H	1.206956	-0.829156	-0.224433
H242	H	1.706956	-0.329156	0.275567
H243	H	0.619814	-0.161048	-0.266470
H244	H	1.119814	0.338952	0.233530
H245	H	0.526970	-0.236650	-0.232794
H246	H	1.026970	0.263350	0.267206
H247	H	1.106579	-0.292056	-0.904678
H248	H	1.606579	0.207944	-0.404678
C249	C	1.214918	-0.131362	-0.852113
C250	C	1.714918	0.368638	-0.352113
C251	C	1.179639	-0.152137	-0.912044
C252	C	1.679639	0.347863	-0.412044
H253	H	1.249962	-0.110214	-0.870071
H254	H	1.749962	0.389786	-0.370071
H255	H	1.179113	-0.116445	-0.822486
H256	H	1.679113	0.383555	-0.322486
H257	H	1.239614	-0.153338	-0.823145
H258	H	1.739614	0.346662	-0.323145
H259	H	1.154938	-0.130161	-0.941009
H260	H	1.654938	0.369839	-0.441009
H261	H	1.215449	-0.167055	-0.941683
H262	H	1.715449	0.332945	-0.441683
C263	C	1.214756	-0.983679	-0.216726
C264	C	1.714756	-0.483679	0.283274
C265	C	1.173032	-0.953186	-0.258362
C266	C	1.673032	-0.453186	0.241638
H267	H	1.247007	-0.967755	-0.184528
H268	H	1.747007	-0.467755	0.315472
H269	H	1.182423	-1.002003	-0.188291
H270	H	1.682423	-0.502003	0.311709
H271	H	1.243145	-1.001955	-0.249124
H272	H	1.743145	-0.501955	0.250876
H273	H	1.144638	-0.934913	-0.225964
H274	H	1.644638	-0.434913	0.274036
H275	H	1.205369	-0.934854	-0.286799
H276	H	1.705369	-0.434854	0.213201
C277	C	0.876225	-0.224362	-0.887320
C278	C	1.376225	0.275638	-0.387320
C279	C	0.928129	-0.192884	-0.912249
C280	C	1.428129	0.307116	-0.412249
H281	H	0.828490	-0.216619	-0.905390
H282	H	1.328490	0.283381	-0.405390
H283	H	0.889421	-0.253260	-0.904962
H284	H	1.389421	0.246740	-0.404962
H285	H	0.875556	-0.224548	-0.834698
H286	H	1.375556	0.275452	-0.334698
H287	H	0.928802	-0.192700	-0.964871
H288	H	1.428802	0.307300	-0.464871
H289	H	0.914930	-0.163978	-0.894610
H290	H	1.414930	0.336022	-0.394610
C291	C	1.163138	-1.097814	-0.268495
C292	C	1.663138	-0.597814	0.231505
C293	C	1.173134	-1.051678	-0.258438
C294	C	1.673134	-0.551678	0.241562
H295	H	1.195452	-1.113728	-0.236359
H296	H	1.695452	-0.613728	0.263641
H297	H	1.113274	-1.105547	-0.257519
H298	H	1.613274	-0.605547	0.242481
H299	H	1.173920	-1.105457	-0.318429
H300	H	1.673920	-0.605457	0.181571
H301	H	1.162347	-1.044035	-0.208505
H302	H	1.662347	-0.544035	0.291495
H303	H	1.223009	-1.043942	-0.269409
H304	H	1.723009	-0.543942	0.230591
H305	H	0.939353	-0.603351	-0.491462
H306	H	1.439353	-0.103351	0.008538
H307	H	0.987071	-1.045032	-0.444057
H308	H	1.487071	-0.545032	0.055943
H309	H	0.987037	-0.959923	-0.444056
H310	H	1.487037	-0.459923	0.055944
C311	C	0.931518	-0.448845	-0.499136
C312	C	1.431518	0.051155	0.000864
C313	C	0.973247	-0.479335	-0.457498
C314	C	1.473247	0.020665	0.042502
H315	H	0.899283	-0.464772	-0.531346
H316	H	1.399283	0.035228	-0.031346
H317	H	0.903118	-0.430578	-0.466745
H318	H	1.403118	0.069422	0.033255
H319	H	0.963855	-0.430512	-0.527564
H320	H	1.463855	0.069488	-0.027564
H321	H	0.940911	-0.497666	-0.429065
H322	H	1.440911	0.002334	0.070935
H323	H	1.001650	-0.497609	-0.489893
H324	H	1.501650	0.002391	0.010107
H325	H	0.939458	-0.829214	-0.491481
H326	H	1.439458	-0.329214	0.008519
C327	C	0.884164	-0.767942	-0.546617
C328	C	1.384164	-0.267942	-0.046617
C329	C	0.925862	-0.737427	-0.504978
C330	C	1.425862	-0.237427	-0.004978
H331	H	0.851891	-0.752035	-0.578805
H332	H	1.351891	-0.252035	-0.078805
H333	H	0.916513	-0.786209	-0.575063
H334	H	1.416513	-0.286209	-0.075063
H335	H	0.855800	-0.786273	-0.514221
H336	H	1.355800	-0.286273	-0.014221
H337	H	0.954231	-0.719099	-0.537374
H338	H	1.454231	-0.219099	-0.037374
H339	H	0.893509	-0.719152	-0.476530
H340	H	1.393509	-0.219152	0.023470
H341	H	0.981575	-0.271821	-0.811904
H342	H	1.481575	0.228179	-0.311904
