data_functionalizedCrystal
_audit_creation_method	'MofGen! by Chris Wilmer'
_symmetry_space_group_name_H-M	'P1'
_symmetry_Int_Tables_number	1
_symmetry_cell_setting	triclinic
loop_
_symmetry_equiv_pos_as_xyz
  x,y,z
_cell_length_a	10.967819
_cell_length_b	10.908878
_cell_length_c	10.065875
_cell_angle_alpha	83.401063
_cell_angle_beta	86.889148
_cell_angle_gamma	72.685094
loop_
_atom_site_label
_atom_site_type_symbol
_atom_site_fract_x
_atom_site_fract_y
_atom_site_fract_z
O1	O	1.526157	0.257477	-0.472439
O2	O	1.175394	0.261115	-0.389943
O3	O	1.397275	0.074591	-0.442122
O4	O	1.304277	0.444002	-0.420260
O5	O	1.439637	0.038906	-0.225096
O6	O	1.217757	0.225431	-0.172917
O7	O	1.568520	0.221793	-0.255413
Zn8	Zn	1.399864	0.217946	-0.179707
Zn9	Zn	1.344050	0.264962	-0.465649
O10	O	1.346639	0.408318	-0.203234
C11	C	1.152375	0.240311	-0.271034
C12	C	1.020676	0.231470	-0.240060
C13	C	0.803895	0.236892	-0.306688
C14	C	0.940017	0.246020	-0.338694
C15	C	1.427147	0.009323	-0.335654
C16	C	1.453028	-0.131989	-0.341746
C17	C	1.591538	0.242598	-0.374324
C18	C	1.723236	0.251440	-0.405307
C19	C	1.358589	-0.185521	-0.319537
C20	C	1.385336	-0.331574	-0.325833
C21	C	1.316767	0.473585	-0.309704
C22	C	1.290884	0.614899	-0.303621
N23	N	1.305960	0.297040	-0.660797
C24	C	1.357308	0.253783	-0.897815
C25	C	1.386630	0.229106	-0.747543
N26	N	1.437966	0.185859	0.015438
H27	H	1.257936	-0.123225	-0.295857
O28	O	1.157540	-0.302611	-0.272251
H29	H	1.123922	-0.227097	-0.356864
O30	O	0.978546	0.206192	-0.096835
H31	H	0.951109	0.115402	-0.084464
H32	H	1.528731	0.109442	-0.947581
O33	O	0.765239	0.276874	-0.548543
H34	H	0.865569	0.280036	-0.551206
H35	H	1.485998	-0.393868	-0.349503
H36	H	0.971729	0.265242	-0.446828
H37	H	1.553683	-0.194287	-0.365415
H38	H	1.266548	0.330210	-0.934796
O39	O	1.506865	0.127864	-0.698583
H40	H	1.511023	0.124361	-0.588236
O41	O	1.185718	0.398266	-0.709764
H42	H	1.211491	0.472605	-0.780955
O43	O	0.761637	0.212248	-0.163395
H44	H	0.661219	0.209359	-0.160713
