data_functionalizedCrystal
_audit_creation_method	'MofGen! by Chris Wilmer'
_symmetry_space_group_name_H-M	'P1'
_symmetry_Int_Tables_number	1
_symmetry_cell_setting	triclinic
loop_
_symmetry_equiv_pos_as_xyz
  x,y,z
_cell_length_a	19.121102
_cell_length_b	18.215405
_cell_length_c	18.215399
_cell_angle_alpha	90.030551
_cell_angle_beta	92.458396
_cell_angle_gamma	87.579072
loop_
_atom_site_label
_atom_site_type_symbol
_atom_site_fract_x
_atom_site_fract_y
_atom_site_fract_z
Zn1	Zn	1.073728	-0.341065	0.464034
Zn2	Zn	1.573728	0.158935	0.964034
Zn3	Zn	1.073640	-0.464132	0.340958
Zn4	Zn	1.573640	0.035868	0.840958
Zn5	Zn	0.956277	-0.335830	0.335738
Zn6	Zn	1.456277	0.164170	0.835738
Zn7	Zn	0.956244	-0.458834	0.458742
Zn8	Zn	1.456244	0.041166	0.958742
O9	O	1.014972	-0.399965	0.399868
O10	O	1.514972	0.100035	0.899868
O11	O	1.172001	-0.361798	0.452107
O12	O	1.672001	0.138202	0.952107
O13	O	1.058049	-0.447139	0.237280
O14	O	1.558049	0.052861	0.737280
O15	O	0.971907	-0.233542	0.352787
O16	O	1.471907	0.266458	0.852787
O17	O	1.171936	-0.452215	0.361683
O18	O	1.671936	0.047785	0.861683
O19	O	1.058198	-0.237388	0.447045
O20	O	1.558198	0.262612	0.947045
O21	O	0.971822	-0.352875	0.233445
O22	O	1.471822	0.147125	0.733445
O23	O	0.857988	-0.347738	0.347656
O24	O	1.357988	0.152262	0.847656
O25	O	0.971852	-0.443186	0.562430
O26	O	1.471852	0.056814	1.062430
O27	O	0.857964	-0.438109	0.438027
O28	O	1.357964	0.061891	0.938027
O29	O	1.058166	-0.356661	0.566317
O30	O	1.558166	0.143339	1.066317
O31	O	1.058017	-0.566412	0.356553
O32	O	1.558017	-0.066412	0.856553
O33	O	0.971767	-0.562519	0.443088
O34	O	1.471767	-0.062519	0.943088
C35	C	1.014898	-0.591168	0.399829
C36	C	1.514898	-0.091168	0.899829
C37	C	1.014931	-0.672969	0.399840
C38	C	1.514931	-0.172969	0.899840
C39	C	0.832492	-0.391781	0.391701
C40	C	1.332492	0.108219	0.891701
C41	C	0.754426	-0.388298	0.388225
C42	C	1.254426	0.111702	0.888225
C43	C	1.059947	-0.863170	0.354873
C44	C	1.559947	-0.363170	0.854873
C45	C	1.059978	-0.940030	0.354892
C46	C	1.559978	-0.440030	0.854892
C47	C	0.970088	-0.936013	0.444921
C48	C	1.470088	-0.436013	0.944921
C49	C	0.970060	-0.859154	0.444905
C50	C	1.470060	-0.359154	0.944905
C51	C	1.014989	-0.822735	0.399877
C52	C	1.514989	-0.322735	0.899877
C53	C	1.015048	-0.976453	0.399912
C54	C	1.515048	-0.476453	0.899912
C55	C	1.015081	-1.059788	0.399933
C56	C	1.515081	-0.559788	0.899933
C57	C	1.014956	-0.739394	0.399856
C58	C	1.514956	-0.239394	0.899856
C59	C	0.717756	-0.433783	0.433569
C60	C	1.217756	0.066217	0.933569
C61	C	0.644405	-0.430501	0.430306
C62	C	1.144405	0.069499	0.930306
C63	C	0.607725	-0.381735	0.381695
C64	C	1.107725	0.118265	0.881695
C65	C	0.644400	-0.336244	0.336349
C66	C	1.144400	0.163756	0.836349
C67	C	0.717750	-0.339524	0.339616
C68	C	1.217750	0.160476	0.839616
C69	C	0.386256	-0.369472	0.369483
C70	C	0.886256	0.130528	0.869483
C71	C	0.312901	-0.366197	0.366218
C72	C	0.812901	0.133803	0.866218
C73	C	0.312911	-0.460453	0.460176
C74	C	0.812911	0.039547	0.960176
C75	C	0.386262	-0.463731	0.463436
C76	C	0.886262	0.036269	0.963436
C77	C	0.422931	-0.418238	0.418093
C78	C	0.922931	0.081762	0.918093
C79	C	0.532748	-0.378380	0.378356
C80	C	1.032748	0.121620	0.878356
C81	C	0.497906	-0.421590	0.421435
C82	C	0.997906	0.078410	0.921435
C83	C	1.198165	-0.408182	0.408068
C84	C	1.698165	0.091818	0.908068
C85	C	1.276231	-0.411683	0.411562
C86	C	1.776231	0.088317	0.911562
C87	C	1.015015	-0.399916	0.591823
C88	C	1.515015	0.100084	1.091823
C89	C	1.015033	-0.399896	0.673623
C90	C	1.515033	0.100104	1.173623
C91	C	1.015066	-0.208016	0.399924
C92	C	1.515066	0.291984	0.899924
C93	C	1.015106	-0.126219	0.399948
C94	C	1.515106	0.373781	0.899948
C95	C	1.014970	-0.399963	0.208662
C96	C	1.514970	0.100037	0.708662
C97	C	1.015088	-0.399782	0.126869
C98	C	1.515088	0.100218	0.626869
C99	C	1.059993	-0.354799	0.863843
C100	C	1.559993	0.145201	1.363843
C101	C	1.060002	-0.354778	0.940702
C102	C	1.560002	0.145222	1.440702
C103	C	0.970123	-0.444881	0.936643
C104	C	1.470123	0.055119	1.436643
C105	C	0.970111	-0.444897	0.859785
C106	C	1.470111	0.055103	1.359785
C107	C	1.015051	-0.399858	0.823387
C108	C	1.515051	0.100142	1.323387
C109	C	1.015070	-0.399820	0.977104
C110	C	1.515070	0.100180	1.477104
C111	C	1.015079	-0.399798	1.060438
C112	C	1.515079	0.100202	1.560438
C113	C	1.015041	-0.399879	0.740048
C114	C	1.515041	0.100121	1.240048
H115	H	1.096531	-0.833519	0.318209
H116	H	1.596531	-0.333519	0.818209
Cl117	Cl	0.913634	-0.501503	0.982405
Cl118	Cl	1.413634	-0.001503	1.482405
H119	H	0.933507	-0.965675	0.481580
H120	H	1.433507	-0.465675	0.981580
H121	H	1.096598	-0.318085	0.973638
H122	H	1.596598	0.181915	1.473638
Cl123	Cl	0.544019	-0.482893	0.482544
Cl124	Cl	1.044019	0.017107	0.982544
H125	H	0.933508	-0.481589	0.826844
H126	H	1.433508	0.018411	1.326844
Cl127	Cl	0.913541	-0.808318	0.501490
Cl128	Cl	1.413541	-0.308318	1.001490
Cl129	Cl	1.116501	-0.990859	0.298315
Cl130	Cl	1.616501	-0.490859	0.798315
Cl131	Cl	0.266789	-0.304893	0.305096
Cl132	Cl	0.766789	0.195107	0.805096
H133	H	1.096584	-0.318123	0.834210
H134	H	1.596584	0.181877	1.334210
Cl135	Cl	0.763861	-0.495095	0.494680
Cl136	Cl	1.263861	0.004905	0.994680
H137	H	0.614552	-0.467541	0.467229
H138	H	1.114552	0.032459	0.967229
H139	H	0.283048	-0.497490	0.497093
H140	H	0.783048	0.002510	0.997093
Cl141	Cl	0.432369	-0.525041	0.524548
Cl142	Cl	0.932369	-0.025041	1.024548
Cl143	Cl	0.486630	-0.317077	0.317247
Cl144	Cl	0.986630	0.182923	0.817247
Cl145	Cl	0.432343	-0.312278	0.312482
Cl146	Cl	0.932343	0.187722	0.812482
H147	H	0.747605	-0.302481	0.302696
H148	H	1.247605	0.197519	0.802696
Cl149	Cl	0.598287	-0.274934	0.275242
Cl150	Cl	1.098287	0.225066	0.775242
