data_functionalizedCrystal
_audit_creation_method	'MofGen! by Chris Wilmer'
_symmetry_space_group_name_H-M	'P1'
_symmetry_Int_Tables_number	1
_symmetry_cell_setting	triclinic
loop_
_symmetry_equiv_pos_as_xyz
  x,y,z
_cell_length_a	16.625548
_cell_length_b	16.625546
_cell_length_c	16.625548
_cell_angle_alpha	89.986596
_cell_angle_beta	89.991764
_cell_angle_gamma	90.023536
loop_
_atom_site_label
_atom_site_type_symbol
_atom_site_fract_x
_atom_site_fract_y
_atom_site_fract_z
Zn1	Zn	-1.232582	0.321112	0.455897
Zn2	Zn	-1.232515	0.455916	0.321060
Zn3	Zn	-1.097773	0.321103	0.321078
Zn4	Zn	-1.097715	0.455909	0.455849
O5	O	-1.165146	0.388510	0.388471
O6	O	-1.345406	0.339001	0.438023
O7	O	-1.214637	0.438031	0.208230
O8	O	-1.115709	0.208272	0.338990
O9	O	-1.345356	0.438040	0.338959
O10	O	-1.214752	0.208279	0.438041
O11	O	-1.115643	0.338985	0.208243
O12	O	-0.984933	0.338979	0.338943
O13	O	-1.115609	0.438029	0.568688
O14	O	-0.984890	0.438020	0.437959
O15	O	-1.214696	0.338995	0.568723
O16	O	-1.214580	0.568747	0.338912
O17	O	-1.115543	0.568743	0.437942
C18	C	-0.955655	0.388499	0.388449
C19	C	-0.866034	0.388513	0.388458
C20	C	-1.165070	0.598001	0.388437
C21	C	-1.165111	0.687622	0.388450
C22	C	-1.165153	0.388512	0.598780
C23	C	-1.165156	0.388513	0.688401
C24	C	-1.375455	0.388522	0.388494
C25	C	-1.465076	0.388527	0.388504
C26	C	-0.537859	0.388518	0.388493
C27	C	-0.629167	0.388515	0.388480
C28	C	-0.701943	0.388516	0.388475
C29	C	-0.793258	0.388512	0.388464
C30	C	-1.165245	0.178201	0.388523
C31	C	-1.165287	0.088580	0.388545
C32	C	-1.165252	1.015798	0.388534
C33	C	-1.165210	0.924489	0.388513
C34	C	-1.165181	0.851713	0.388491
C35	C	-1.165140	0.760399	0.388471
C36	C	-1.165123	0.388520	1.016577
C37	C	-1.165130	0.388521	0.925268
C38	C	-1.165140	0.388518	0.852492
C39	C	-1.165146	0.388517	0.761178
C40	C	-1.165131	0.388524	1.178980
C41	C	-1.165123	0.388518	1.089359
