data_functionalizedCrystal
_audit_creation_method	'MofGen! by Chris Wilmer'
_symmetry_space_group_name_H-M	'P1'
_symmetry_Int_Tables_number	1
_symmetry_cell_setting	triclinic
loop_
_symmetry_equiv_pos_as_xyz
  x,y,z
_cell_length_a	18.101398
_cell_length_b	25.639239
_cell_length_c	18.101390
_cell_angle_alpha	89.965056
_cell_angle_beta	89.975319
_cell_angle_gamma	90.033952
loop_
_atom_site_label
_atom_site_type_symbol
_atom_site_fract_x
_atom_site_fract_y
_atom_site_fract_z
Zn1	Zn	1.132085	-0.208197	-0.418828
Zn2	Zn	1.465418	0.125137	-0.085495
Zn3	Zn	1.798751	0.458470	0.247838
Zn4	Zn	1.131963	-0.295640	-0.294982
Zn5	Zn	1.465297	0.037693	0.038351
Zn6	Zn	1.798630	0.371026	0.371684
Zn7	Zn	1.008243	-0.208214	-0.294989
Zn8	Zn	1.341576	0.125120	0.038344
Zn9	Zn	1.674909	0.458453	0.371677
Zn10	Zn	1.008178	-0.295596	-0.418771
Zn11	Zn	1.341511	0.037737	-0.085438
Zn12	Zn	1.674845	0.371071	0.247896
O13	O	1.070117	-0.251912	-0.356893
O14	O	1.403450	0.081422	-0.023559
O15	O	1.736784	0.414755	0.309774
O16	O	1.235701	-0.219808	-0.402421
O17	O	1.569035	0.113525	-0.069088
O18	O	1.902368	0.446859	0.264246
O19	O	1.115528	-0.284069	-0.191350
O20	O	1.448861	0.049265	0.141983
O21	O	1.782195	0.382598	0.475316
O22	O	1.024749	-0.135046	-0.311444
O23	O	1.358082	0.198287	0.021889
O24	O	1.691415	0.531621	0.355223
O25	O	1.235612	-0.284052	-0.311432
O26	O	1.568946	0.049281	0.021902
O27	O	1.902279	0.382614	0.355235
O28	O	1.115735	-0.135034	-0.402428
O29	O	1.449068	0.198300	-0.069094
O30	O	1.782401	0.531633	0.264239
O31	O	1.024631	-0.219836	-0.191356
O32	O	1.357964	0.113497	0.141978
O33	O	1.691298	0.446830	0.475311
O34	O	0.904601	-0.219793	-0.311388
O35	O	1.237935	0.113540	0.021945
O36	O	1.571268	0.446873	0.355278
O37	O	1.024638	-0.283977	-0.522411
O38	O	1.357971	0.049357	-0.189078
O39	O	1.691305	0.382690	0.144255
O40	O	0.904554	-0.283993	-0.402330
O41	O	1.237887	0.049341	-0.068997
O42	O	1.571220	0.382674	0.264337
O43	O	1.115672	-0.219765	-0.522454
O44	O	1.449005	0.113568	-0.189120
O45	O	1.782338	0.446902	0.144213
O46	O	1.115465	-0.368800	-0.311376
O47	O	1.448798	-0.035466	0.021957
O48	O	1.782132	0.297867	0.355290
O49	O	1.024520	-0.368767	-0.402323
O50	O	1.357854	-0.035434	-0.068990
O51	O	1.691187	0.297900	0.264344
C52	C	0.877707	-0.251890	-0.356854
C53	C	1.211040	0.081443	-0.023521
C54	C	1.544373	0.414776	0.309813
C55	C	0.795393	-0.251894	-0.356855
C56	C	1.128726	0.081439	-0.023522
C57	C	1.462059	0.414773	0.309812
C58	C	0.496302	-0.251927	-0.356917
C59	C	0.829635	0.081407	-0.023584
C60	C	1.162968	0.414740	0.309749
C61	C	0.527632	-0.211332	-0.299978
C62	C	0.860965	0.122001	0.033355
C63	C	1.194299	0.455335	0.366688
C64	C	0.613250	-0.211441	-0.299735
C65	C	0.946583	0.121892	0.033598
C66	C	1.279917	0.455226	0.366931
C67	C	0.644684	-0.251910	-0.356886
C68	C	0.978017	0.081423	-0.023553
C69	C	1.311351	0.414757	0.309780
C70	C	0.613555	-0.306988	-0.335559
C71	C	0.946889	0.026346	-0.002226
C72	C	1.280222	0.359679	0.331107
C73	C	0.527910	-0.306762	-0.335163
C74	C	0.861244	0.026571	-0.001830
C75	C	1.194577	0.359905	0.331503
C76	C	0.527919	-0.237922	-0.435317
C77	C	0.861253	0.095411	-0.101984
C78	C	1.194586	0.428745	0.231349
C79	C	0.613570	-0.236696	-0.434890
C80	C	0.946904	0.096638	-0.101556
C81	C	1.280237	0.429971	0.231777
C82	C	0.728544	-0.251904	-0.356870
C83	C	1.061877	0.081429	-0.023537
C84	C	1.395210	0.414763	0.309796
C85	C	0.412442	-0.251936	-0.356932
C86	C	0.745775	0.081397	-0.023598
C87	C	1.079109	0.414730	0.309735
C88	C	1.069993	-0.387754	-0.356859
C89	C	1.403326	-0.054421	-0.023525
C90	C	1.736659	0.278912	0.309808
C91	C	1.070007	-0.445868	-0.356869
C92	C	1.403340	-0.112535	-0.023536
C93	C	1.736674	0.220798	0.309798
C94	C	1.117596	-0.806236	-0.309617
C95	C	1.450929	-0.472902	0.023716
C96	C	1.784262	-0.139569	0.357049
C97	C	1.117624	-0.860840	-0.309627
C98	C	1.450958	-0.527507	0.023706
C99	C	1.784291	-0.194173	0.357039
O100	O	1.157957	-0.889081	-0.269415
O101	O	1.491290	-0.555747	0.063918
O102	O	1.824623	-0.222414	0.397252
N103	N	1.070247	-0.888151	-0.356942
N104	N	1.403581	-0.554817	-0.023608
N105	N	1.736914	-0.221484	0.309725
C106	C	1.022844	-0.860854	-0.404255
C107	C	1.356177	-0.527521	-0.070922
C108	C	1.689510	-0.194187	0.262412
O109	O	0.982549	-0.889098	-0.444501
O110	O	1.315882	-0.555765	-0.111168
O111	O	1.649216	-0.222431	0.222166
C112	C	1.022819	-0.806251	-0.404248
C113	C	1.356153	-0.472918	-0.070915
C114	C	1.689486	-0.139584	0.262419
C115	C	1.070194	-0.778943	-0.356925
C116	C	1.403528	-0.445610	-0.023592
C117	C	1.736861	-0.112276	0.309741
C118	C	1.164967	-0.778928	-0.262299
C119	C	1.498300	-0.445594	0.071034
C120	C	1.831634	-0.112261	0.404368
C121	C	1.164937	-0.724327	-0.262288
C122	C	1.498271	-0.390994	0.071045
C123	C	1.831604	-0.057661	0.404378
C124	C	1.117536	-0.697035	-0.309596
C125	C	1.450869	-0.363701	0.023737
C126	C	1.784202	-0.030368	0.357071
C127	C	1.070164	-0.724343	-0.356914
C128	C	1.403498	-0.391009	-0.023581
C129	C	1.736831	-0.057676	0.309752
C130	C	0.975420	-0.778955	-0.451564
C131	C	1.308754	-0.445622	-0.118231
C132	C	1.642087	-0.112289	0.215102
C133	C	0.975400	-0.724348	-0.451554
C134	C	1.308734	-0.391015	-0.118221
C135	C	1.642067	-0.057682	0.215113
C136	C	1.022775	-0.697041	-0.404231
C137	C	1.356108	-0.363707	-0.070898
C138	C	1.689442	-0.030374	0.262436
C139	C	1.022733	-0.642449	-0.404212
C140	C	1.356066	-0.309116	-0.070878
C141	C	1.689400	0.024217	0.262455
N142	N	1.070110	-0.615139	-0.356897
N143	N	1.403443	-0.281805	-0.023564
N144	N	1.736777	0.051528	0.309770
C145	C	1.117511	-0.642431	-0.309589
C146	C	1.450845	-0.309098	0.023744
C147	C	1.784178	0.024235	0.357077
C148	C	1.022900	-0.975525	-0.404266
C149	C	1.356233	-0.642191	-0.070933
C150	C	1.689566	-0.308858	0.262400
C151	C	1.022920	-1.030127	-0.404270
C152	C	1.356253	-0.696794	-0.070936
C153	C	1.689586	-0.363460	0.262397
C154	C	1.117701	-1.030109	-0.309643
C155	C	1.451035	-0.696776	0.023690
C156	C	1.784368	-0.363442	0.357024
C157	C	1.117677	-0.975506	-0.309636
C158	C	1.451010	-0.642173	0.023697
C159	C	1.784344	-0.308839	0.357030
C160	C	1.070277	-0.948214	-0.356952
C161	C	1.403610	-0.614881	-0.023618
C162	C	1.736943	-0.281547	0.309715
C163	C	1.117445	-0.527766	-0.309570
C164	C	1.450778	-0.194433	0.023763
C165	C	1.784111	0.138900	0.357097
C166	C	1.117408	-0.473161	-0.309561
C167	C	1.450742	-0.139828	0.023772
C168	C	1.784075	0.193506	0.357105
C169	C	1.022630	-0.473184	-0.404190
C170	C	1.355963	-0.139850	-0.070857
C171	C	1.689297	0.193483	0.262476
C172	C	1.022663	-0.527784	-0.404197
C173	C	1.355996	-0.194451	-0.070863
C174	C	1.689330	0.138882	0.262470
C175	C	1.070076	-0.555074	-0.356884
C176	C	1.403410	-0.221741	-0.023551
C177	C	1.736743	0.111592	0.309783
O178	O	0.982424	-0.614174	-0.444406
O179	O	1.315757	-0.280841	-0.111072
O180	O	1.649090	0.052493	0.222261
O181	O	1.157806	-0.614181	-0.269357
O182	O	1.491140	-0.280848	0.063977
O183	O	1.824473	0.052486	0.397310
C184	C	1.263279	-0.251933	-0.356932
C185	C	1.596612	0.081400	-0.023599
C186	C	1.929946	0.414733	0.309735
C187	C	1.345593	-0.251943	-0.356949
C188	C	1.678926	0.081391	-0.023615
C189	C	2.012260	0.414724	0.309718
C190	C	1.070161	-0.251864	-0.550055
C191	C	1.403494	0.081469	-0.216721
C192	C	1.736828	0.414803	0.116612
C193	C	1.070180	-0.251844	-0.632369
C194	C	1.403513	0.081490	-0.299036
C195	C	1.736847	0.414823	0.034298
C196	C	1.070262	-0.115539	-0.356943
C197	C	1.403596	0.217795	-0.023610
C198	C	1.736929	0.551128	0.309724
C199	C	1.070324	-0.057425	-0.356964
C200	C	1.403658	0.275909	-0.023631
C201	C	1.736991	0.609242	0.309702
C202	C	1.070220	-0.251811	-0.931460
C203	C	1.403553	0.081522	-0.598127
C204	C	1.736887	0.414856	-0.264793
C205	C	1.127684	-0.211553	-0.900161
C206	C	1.461018	0.121780	-0.566828
C207	C	1.794351	0.455114	-0.233495
C208	C	1.127505	-0.211403	-0.814543
C209	C	1.460839	0.121930	-0.481210
C210	C	1.794172	0.455263	-0.147876
C211	C	1.070201	-0.251827	-0.783077
C212	C	1.403534	0.081506	-0.449744
C213	C	1.736867	0.414840	-0.116411
C214	C	0.992187	-0.236853	-0.814145
C215	C	1.325520	0.096480	-0.480811
C216	C	1.658853	0.429814	-0.147478
C217	C	0.992531	-0.236551	-0.899790
C218	C	1.325864	0.096782	-0.566457
C219	C	1.659197	0.430115	-0.233123
C220	C	1.090082	-0.307147	-0.899871
C221	C	1.423416	0.026187	-0.566538
C222	C	1.756749	0.359520	-0.233205
C223	C	1.091794	-0.306865	-0.814221
C224	C	1.425128	0.026469	-0.480888
C225	C	1.758461	0.359802	-0.147555
C226	C	1.070185	-0.251837	-0.699218
C227	C	1.403518	0.081496	-0.365885
C228	C	1.736852	0.414830	-0.032551
C229	C	1.070230	-0.251800	-1.015320
C230	C	1.403564	0.081534	-0.681986
C231	C	1.736897	0.414867	-0.348653
C232	C	1.070116	-0.251921	-0.164482
C233	C	1.403449	0.081412	0.168851
C234	C	1.736783	0.414745	0.502184
C235	C	1.070241	-0.251794	-0.082169
C236	C	1.403574	0.081539	0.251165
C237	C	1.736907	0.414872	0.584498
H238	H	0.507069	-0.170365	-0.313200
H239	H	0.840403	0.162968	0.020133
H240	H	1.173736	0.496302	0.353467
O241	O	0.640520	-0.348131	-0.388766
O242	O	0.973853	-0.014798	-0.055433
O243	O	1.307187	0.318535	0.277901
H244	H	0.676483	-0.329716	-0.431074
H245	H	1.009817	0.003617	-0.097741
H246	H	1.343150	0.336950	0.235593
H247	H	0.975691	-0.196101	-0.919782
H248	H	1.309025	0.137232	-0.586448
H249	H	1.642358	0.470566	-0.253115
H250	H	1.185355	-0.220781	-0.793540
H251	H	1.518688	0.112552	-0.460206
H252	H	1.852021	0.445885	-0.126873
O253	O	1.168831	-1.059555	-0.258621
O254	O	1.502164	-0.726222	0.074713
O255	O	1.835498	-0.392888	0.408046
H256	H	1.201770	-1.031396	-0.225709
H257	H	1.535103	-0.698063	0.107624
H258	H	1.868437	-0.364729	0.440957
H259	H	0.948260	-0.264597	-0.920492
H260	H	1.281593	0.068736	-0.587159
H261	H	1.614926	0.402069	-0.253826
O262	O	1.034641	-0.346878	-0.926681
O263	O	1.367974	-0.013545	-0.593348
O264	O	1.701308	0.319788	-0.260015
H265	H	1.006520	-0.364911	-0.878513
H266	H	1.339853	-0.031578	-0.545179
H267	H	1.673186	0.301755	-0.211846
O268	O	1.168518	-0.443708	-0.258528
O269	O	1.501852	-0.110375	0.074806
O270	O	1.835185	0.222959	0.408139
H271	H	1.135390	-0.418874	-0.220803
H272	H	1.468723	-0.085541	0.112531
H273	H	1.802056	0.247793	0.445864
O274	O	0.641141	-0.157339	-0.317419
O275	O	0.974474	0.175995	0.015915
O276	O	1.307808	0.509328	0.349248
H277	H	0.593456	-0.130861	-0.326220
H278	H	0.926790	0.202473	0.007113
H279	H	1.260123	0.535806	0.340447
O280	O	0.499110	-0.223461	-0.223467
O281	O	0.832443	0.109872	0.109867
O282	O	1.165776	0.443205	0.443200
H283	H	0.462715	-0.258276	-0.225816
H284	H	0.796048	0.075057	0.107517
H285	H	1.129382	0.408390	0.440851
H286	H	0.975041	-0.196852	-0.792707
H287	H	1.308374	0.136481	-0.459374
H288	H	1.641707	0.469814	-0.126040
O289	O	1.110090	-0.157105	-0.787415
O290	O	1.443423	0.176229	-0.454082
O291	O	1.776756	0.509562	-0.120748
H292	H	1.156721	-0.142510	-0.753400
H293	H	1.490054	0.190824	-0.420067
H294	H	1.823388	0.524157	-0.086734
H295	H	0.633922	-0.196165	-0.450971
H296	H	0.967255	0.137169	-0.117638
H297	H	1.300589	0.470502	0.215696
O298	O	0.924266	-0.694918	-0.502587
O299	O	1.257599	-0.361584	-0.169253
O300	O	1.590933	-0.028251	0.164080
H301	H	0.957373	-0.670001	-0.540301
H302	H	1.290706	-0.336668	-0.206968
H303	H	1.624040	-0.003334	0.126365
H304	H	0.633702	-0.220699	-0.241642
H305	H	0.967035	0.112634	0.091692
H306	H	1.300368	0.445967	0.425025
O307	O	0.641917	-0.322990	-0.260459
O308	O	0.975251	0.010343	0.072874
O309	O	1.308584	0.343676	0.406208
H310	H	0.673859	-0.359752	-0.265584
H311	H	1.007192	-0.026418	0.067749
H312	H	1.340526	0.306915	0.401083
H313	H	1.156055	-0.549979	-0.271045
H314	H	1.489388	-0.216646	0.062288
H315	H	1.822721	0.116687	0.395622
H316	H	1.149206	-0.318156	-0.793916
H317	H	1.482539	0.015177	-0.460583
H318	H	1.815872	0.348511	-0.127249
O319	O	0.501389	-0.322485	-0.259244
O320	O	0.834722	0.010848	0.074090
O321	O	1.168056	0.344182	0.407423
H322	H	0.549735	-0.330175	-0.223157
H323	H	0.883069	0.003158	0.110176
H324	H	1.216402	0.336491	0.443510
H325	H	0.948210	-0.265272	-0.793760
H326	H	1.281543	0.068061	-0.460427
H327	H	1.614876	0.401395	-0.127094
H328	H	0.507183	-0.338032	-0.374826
H329	H	0.840516	-0.004699	-0.041493
H330	H	1.173849	0.328634	0.291840
O331	O	0.499365	-0.185646	-0.461007
O332	O	0.832698	0.147687	-0.127673
O333	O	1.166032	0.481020	0.205660
H334	H	0.462315	-0.169062	-0.418176
H335	H	0.795648	0.164272	-0.084842
H336	H	1.128981	0.497605	0.248491
O337	O	1.216045	-0.694876	-0.211258
O338	O	1.549378	-0.361543	0.122075
O339	O	1.882712	-0.028210	0.455408
H340	H	1.249014	-0.723035	-0.178375
H341	H	1.582347	-0.389702	0.154958
H342	H	1.915680	-0.056369	0.488291
O343	O	0.971809	-1.059575	-0.455301
O344	O	1.305143	-0.726241	-0.121968
O345	O	1.638476	-0.392908	0.211365
H346	H	0.979781	-1.102130	-0.447361
H347	H	1.313114	-0.768797	-0.114028
H348	H	1.646448	-0.435464	0.219305
O349	O	1.164146	-0.325190	-0.928486
O350	O	1.497479	0.008143	-0.595152
O351	O	1.830813	0.341477	-0.261819
H352	H	1.187628	-0.294914	-0.965546
H353	H	1.520961	0.038419	-0.632212
H354	H	1.854295	0.371752	-0.298879
H355	H	0.507657	-0.267490	-0.477742
H356	H	0.840991	0.065844	-0.144409
H357	H	1.174324	0.399177	0.188924
O358	O	1.204561	-0.223812	-0.927475
O359	O	1.537895	0.109521	-0.594142
O360	O	1.871228	0.442854	-0.260808
H361	H	1.220464	-0.263551	-0.909070
H362	H	1.553798	0.069782	-0.575737
H363	H	1.887131	0.403116	-0.242403
O364	O	1.040383	-0.348737	-0.785858
O365	O	1.373716	-0.015403	-0.452525
O366	O	1.707049	0.317930	-0.119192
H367	H	0.998446	-0.330893	-0.748961
H368	H	1.331779	0.002440	-0.415627
H369	H	1.665113	0.335773	-0.082294
O370	O	1.110476	-0.157553	-0.928673
O371	O	1.443809	0.175781	-0.595340
O372	O	1.777143	0.509114	-0.262007
H373	H	1.113326	-0.157494	-0.989927
H374	H	1.446660	0.175839	-0.656593
H375	H	1.779993	0.509173	-0.323260
O376	O	0.641898	-0.273019	-0.494090
O377	O	0.975232	0.060314	-0.160757
O378	O	1.308565	0.393648	0.172576
H379	H	0.703120	-0.270979	-0.496042
H380	H	1.036453	0.062354	-0.162709
H381	H	1.369787	0.395687	0.170624
O382	O	1.216095	-0.808364	-0.211272
O383	O	1.549428	-0.475031	0.122062
O384	O	1.882762	-0.141698	0.455395
H385	H	1.203414	-0.797920	-0.153137
H386	H	1.536747	-0.464587	0.180196
H387	H	1.870080	-0.131254	0.513529
H388	H	0.984294	-0.953306	-0.442794
H389	H	1.317628	-0.619973	-0.109461
H390	H	1.650961	-0.286640	0.223873
O391	O	1.168784	-0.946051	-0.258609
O392	O	1.502117	-0.612718	0.074724
O393	O	1.835450	-0.279385	0.408058
H394	H	1.156130	-0.956568	-0.200473
H395	H	1.489463	-0.623235	0.132861
H396	H	1.822797	-0.289901	0.466194
O397	O	0.924328	-0.808401	-0.502611
O398	O	1.257661	-0.475068	-0.169277
O399	O	1.590994	-0.141735	0.164056
H400	H	0.891375	-0.780241	-0.535508
H401	H	1.224709	-0.446908	-0.202174
H402	H	1.558042	-0.113574	0.131159
H403	H	0.984089	-0.550019	-0.442733
H404	H	1.317422	-0.216686	-0.109400
H405	H	1.650756	0.116647	0.223933
O406	O	0.971508	-0.443742	-0.455218
O407	O	1.304842	-0.110409	-0.121885
O408	O	1.638175	0.222924	0.211448
H409	H	0.979459	-0.401186	-0.447263
H410	H	1.312792	-0.067853	-0.113930
H411	H	1.646125	0.265480	0.219404
