data_functionalizedCrystal
_audit_creation_method	'MofGen! by Chris Wilmer'
_symmetry_space_group_name_H-M	'P1'
_symmetry_Int_Tables_number	1
_symmetry_cell_setting	triclinic
loop_
_symmetry_equiv_pos_as_xyz
  x,y,z
_cell_length_a	17.639762
_cell_length_b	17.637651
_cell_length_c	17.077396
_cell_angle_alpha	78.753225
_cell_angle_beta	101.179210
_cell_angle_gamma	114.333457
loop_
_atom_site_label
_atom_site_type_symbol
_atom_site_fract_x
_atom_site_fract_y
_atom_site_fract_z
Zn1	Zn	1.193613	-0.073042	-0.189900
Zn2	Zn	1.165673	-0.210926	-0.036524
Zn3	Zn	1.055796	-0.100981	-0.080659
Zn4	Zn	1.027925	-0.238770	-0.189764
O5	O	1.110752	-0.155930	-0.124211
O6	O	1.305232	-0.067987	-0.151141
O7	O	1.151069	-0.196382	0.067471
O8	O	1.097434	0.018095	-0.113678
O9	O	1.284705	-0.169290	-0.038456
O10	O	1.198688	0.038622	-0.193937
O11	O	1.070342	-0.115606	0.035045
O12	O	0.936773	-0.142605	-0.113545
O13	O	1.049933	-0.216745	-0.299631
O14	O	0.916297	-0.243837	-0.193704
O15	O	1.171663	-0.094986	-0.299731
O16	O	1.124044	-0.329990	-0.038323
O17	O	1.022841	-0.350446	-0.150908
C18	C	0.896633	-0.199274	-0.158400
C19	C	0.805027	-0.217837	-0.173041
C20	C	0.665260	-0.296779	-0.235314
C21	C	0.751338	-0.279330	-0.221551
C22	C	0.772654	-0.173765	-0.138278
C23	C	0.686577	-0.191202	-0.152037
C24	C	0.632886	-0.252710	-0.200555
C25	C	0.654203	-0.147134	-0.117278
C26	C	0.568132	-0.164573	-0.131032
C27	C	0.514435	-0.226080	-0.179546
C28	C	0.546815	-0.270149	-0.214309
C29	C	0.707894	-0.085630	-0.068755
C30	C	0.675520	-0.041562	-0.033996
C31	C	0.589449	-0.058996	-0.047755
C32	C	0.535753	-0.120503	-0.096269
C33	C	0.557070	-0.014927	-0.012992
C34	C	0.470999	-0.032366	-0.026747
C35	C	0.449682	-0.137942	-0.110024
C36	C	1.067409	-0.370127	-0.089825
C37	C	1.048942	-0.461747	-0.075129
C38	C	1.251578	-0.709384	-0.236020
C39	C	1.234200	-0.795480	-0.222201
C40	C	1.128834	-0.816948	-0.138519
C41	C	1.146207	-0.730852	-0.152328
C42	C	1.207579	-0.677076	-0.201080
C43	C	1.102208	-0.698544	-0.117387
C44	C	1.119576	-0.612456	-0.131199
C45	C	1.180944	-0.558675	-0.179950
C46	C	1.224948	-0.590988	-0.214891
C47	C	1.040832	-0.752321	-0.068640
C48	C	0.996832	-0.720013	-0.033700
C49	C	1.014205	-0.633923	-0.047507
C50	C	1.075572	-0.580143	-0.096258
C51	C	0.970201	-0.601610	-0.012566
C52	C	0.987569	-0.515522	-0.026377
C53	C	1.092941	-0.494055	-0.110069
C54	C	1.325707	-0.112417	-0.089890
C55	C	1.417308	-0.093874	-0.075265
C56	C	1.110806	-0.155855	-0.328960
C57	C	1.110829	-0.155823	-0.416212
C58	C	1.154286	0.059109	-0.158746
C59	C	1.172838	0.150745	-0.173462
C60	C	1.152958	-0.197772	-0.775148
C61	C	1.152932	-0.197800	-0.693167
C62	C	1.110894	-0.155754	-0.669062
C63	C	1.068872	-0.113684	-0.726943
C64	C	1.068893	-0.113661	-0.808922
C65	C	1.068832	-0.113733	-0.556071
C66	C	1.068812	-0.113754	-0.474086
C67	C	1.152871	-0.197872	-0.440316
C68	C	1.152893	-0.197849	-0.522295
C69	C	1.110871	-0.155777	-0.580170
C70	C	1.110757	-0.155935	0.079739
C71	C	1.110941	-0.155703	0.166978
H72	H	0.444351	-0.240278	-0.190743
O73	O	0.614980	0.051401	0.039348
H74	H	0.611552	0.112743	0.012767
H75	H	1.187195	-0.232006	-0.794767
H76	H	0.444641	0.003524	0.001553
H77	H	1.034639	-0.079454	-0.707310
H78	H	1.270022	-0.821782	-0.250670
O79	O	1.198233	-0.243205	-0.548285
H80	H	1.247650	-0.197811	-0.584863
O81	O	1.062649	-0.874958	-0.085934
H82	H	1.001281	-0.871578	-0.112315
O83	O	1.022105	-0.845173	-0.053744
H84	H	0.955353	-0.880495	-0.075848
O85	O	1.199681	-0.465821	-0.194848
H86	H	1.266441	-0.430508	-0.172758
H87	H	0.946861	-0.763809	0.005991
H88	H	0.920226	-0.645408	0.027121
O89	O	0.940123	-0.480664	0.011312
H90	H	0.894537	-0.532518	0.047540
O91	O	1.198270	-0.243154	-0.630743
H92	H	1.227521	-0.272371	-0.661277
H93	H	1.142923	-0.450267	-0.149761
O94	O	1.317782	-0.651373	-0.288593
H95	H	1.288787	-0.619616	-0.340684
H96	H	1.187087	-0.232128	-0.393189
H97	H	1.034584	-0.079513	-0.454463
O98	O	1.023516	-0.068351	-0.618498
H99	H	0.994290	-0.039108	-0.587965
O100	O	1.291148	-0.532974	-0.267466
H101	H	1.273649	-0.552326	-0.328684
O102	O	0.391768	-0.204291	-0.162348
H103	H	0.411154	-0.186891	-0.223592
O104	O	0.488892	-0.336498	-0.266631
H105	H	0.525860	-0.364220	-0.288488
O106	O	0.607350	-0.363122	-0.287647
H107	H	0.575609	-0.334218	-0.339825
O108	O	1.023589	-0.068276	-0.871353
H109	H	0.956041	-0.095500	-0.863679
O110	O	0.786273	-0.326843	-0.259053
H111	H	0.756673	-0.394880	-0.237755
O112	O	0.830564	-0.107423	-0.085953
H113	H	0.895855	-0.102695	-0.082231
O114	O	0.800730	-0.066816	-0.053913
H115	H	0.826807	-0.045618	-0.112175
H116	H	0.719247	0.008516	0.005510
