data_functionalizedCrystal
_audit_creation_method	'MofGen! by Chris Wilmer'
_symmetry_space_group_name_H-M	'P1'
_symmetry_Int_Tables_number	1
_symmetry_cell_setting	triclinic
loop_
_symmetry_equiv_pos_as_xyz
  x,y,z
_cell_length_a	10.686285
_cell_length_b	10.686220
_cell_length_c	10.686551
_cell_angle_alpha	90.308082
_cell_angle_beta	80.915481
_cell_angle_gamma	90.345431
loop_
_atom_site_label
_atom_site_type_symbol
_atom_site_fract_x
_atom_site_fract_y
_atom_site_fract_z
Zn1	Zn	-0.307898	1.994012	-0.537149
Zn2	Zn	-0.536485	1.993911	-0.308653
Zn3	Zn	-0.340205	1.770410	-0.340818
Zn4	Zn	-0.533926	1.800161	-0.534641
O5	O	-0.429629	1.889623	-0.430315
O6	O	-0.325771	2.168662	-0.494427
O7	O	-0.525040	1.951770	-0.136178
O8	O	-0.159182	1.787663	-0.381372
O9	O	-0.493713	2.168588	-0.326552
O10	O	-0.135446	1.951942	-0.525615
O11	O	-0.380834	1.787565	-0.159810
O12	O	-0.378352	1.599693	-0.378940
O13	O	-0.489351	1.838368	-0.711715
O14	O	-0.520678	1.621551	-0.521341
O15	O	-0.323289	1.980790	-0.713557
O16	O	-0.712883	1.980618	-0.324121
O17	O	-0.711003	1.838270	-0.490153
C18	C	-0.452744	1.565334	-0.453360
C19	C	-0.462661	1.426605	-0.463246
C20	C	-0.757764	1.912697	-0.403399
C21	C	-0.898130	1.922686	-0.391919
C22	C	-0.100207	1.866495	-0.457361
C23	C	0.040173	1.856639	-0.468887
C24	C	-0.402431	1.912909	-0.759745
C25	C	-0.390841	1.922832	-0.900128
C26	C	-0.406424	2.215179	-0.407181
C27	C	-0.396535	2.353912	-0.397323
C28	C	-0.456624	1.866493	-0.102170
C29	C	-0.467841	1.856787	0.038201
H30	H	-0.526872	1.382704	-0.527245
C31	C	-0.289796	2.009485	-0.973882
C32	C	-0.277950	2.019630	-1.118968
C33	C	-0.176907	2.106282	-1.192722
C34	C	-0.087711	2.182788	-1.121390
C35	C	-0.099554	2.172645	-0.976296
C36	C	-0.200597	2.085994	-0.902542
H37	H	-0.343981	1.962994	-1.171779
H38	H	-0.168140	2.113789	-1.300130
H39	H	-0.012913	2.246932	-1.175987
H40	H	-0.033523	2.229282	-0.923485
H41	H	-0.209364	2.078486	-0.795134
C42	C	-0.886124	1.769931	-0.569786
C43	C	-0.807026	1.661741	-0.529266
C44	C	-0.733314	1.575031	-0.630167
C45	C	-0.738700	1.596512	-0.771588
C46	C	-0.817801	1.704707	-0.812115
C47	C	-0.891513	1.791416	-0.711214
H48	H	-0.803036	1.645835	-0.424572
H49	H	-0.674758	1.494938	-0.600166
H50	H	-0.684133	1.532325	-0.846281
H51	H	-0.821791	1.720613	-0.916809
H52	H	-0.950069	1.871510	-0.741215
H53	H	-0.952701	1.986867	-0.317226
H54	H	-0.332337	1.397808	-0.333320
H55	H	-0.542634	1.792656	-0.907200
