data_functionalizedCrystal
_audit_creation_method	'MofGen! by Chris Wilmer'
_symmetry_space_group_name_H-M	'P1'
_symmetry_Int_Tables_number	1
_symmetry_cell_setting	triclinic
loop_
_symmetry_equiv_pos_as_xyz
  x,y,z
_cell_length_a	10.723024
_cell_length_b	11.892113
_cell_length_c	12.811487
_cell_angle_alpha	91.069264
_cell_angle_beta	95.744132
_cell_angle_gamma	94.333936
loop_
_atom_site_label
_atom_site_type_symbol
_atom_site_fract_x
_atom_site_fract_y
_atom_site_fract_z
O1	O	1.662418	0.078387	-0.152250
O2	O	1.299086	0.076955	-0.166249
O3	O	1.491070	0.093219	-0.007524
O4	O	1.470434	0.062123	-0.310975
O5	O	1.476850	-0.093558	0.004477
O6	O	1.284866	-0.109822	-0.154248
O7	O	1.648197	-0.108391	-0.140249
Zn8	Zn	1.464274	-0.138761	-0.145343
Zn9	Zn	1.483010	0.107326	-0.161155
O10	O	1.456213	-0.124655	-0.298974
C11	C	1.245490	-0.016328	-0.159230
C12	C	1.106975	-0.016015	-0.156182
N13	N	1.451496	-0.306709	-0.134551
C14	C	1.030855	-0.025115	-0.244996
C15	C	0.887692	-0.024791	-0.241848
C16	C	1.584697	-0.554892	-0.247086
C17	C	1.575775	-0.672460	-0.239534
C18	C	1.424739	-0.659414	-0.111889
C19	C	1.433660	-0.541846	-0.119442
C20	C	1.513641	-0.489590	-0.187044
C21	C	1.522555	-0.372020	-0.194601
C22	C	1.371526	-0.358977	-0.066951
C23	C	1.362604	-0.476544	-0.059399
C24	C	1.701794	-0.015104	-0.147268
C25	C	1.840310	-0.015411	-0.150317
C26	C	1.483238	0.003815	0.037331
C27	C	1.481073	0.015687	0.153107
N28	N	1.495798	0.275275	-0.171939
C29	C	1.464046	-0.035248	-0.343830
C30	C	1.466212	-0.047112	-0.459606
C31	C	1.461521	-0.165650	0.383762
C32	C	1.459486	-0.154501	0.492544
C33	C	1.474976	0.049134	0.479455
C34	C	1.477012	0.037985	0.370673
C35	C	1.470282	-0.069411	0.322831
C36	C	1.472308	-0.080559	0.214046
C37	C	1.487807	0.123074	0.200960
C38	C	1.485772	0.134224	0.309742
H39	H	0.822287	-0.032578	-0.317880
H40	H	1.071674	-0.033153	-0.323363
H41	H	0.905709	-0.007612	-0.074281
H42	H	1.633638	-0.725625	-0.288427
O43	O	1.058450	-0.006275	-0.062631
C44	C	1.106704	0.096320	-0.011798
H45	H	1.199414	0.125602	-0.042828
H46	H	1.123196	0.083453	0.076316
H47	H	1.036523	0.162865	-0.027774
O48	O	1.481677	0.153490	0.525877
C49	C	1.594867	0.213910	0.506328
H50	H	1.666464	0.152106	0.488015
H51	H	1.633241	0.267861	0.578586
H52	H	1.576426	0.270618	0.436578
H53	H	1.587674	-0.329475	-0.249650
H54	H	1.649808	-0.512345	-0.302140
H55	H	1.359636	-0.701981	-0.056840
H56	H	1.466811	-0.168007	0.175092
O57	O	1.302602	-0.295372	-0.008679
C58	C	1.327582	-0.180400	-0.029872
H59	H	1.423246	-0.167430	-0.061323
H60	H	1.327985	-0.127698	0.045426
H61	H	1.251717	-0.153102	-0.090852
O62	O	1.455000	-0.270051	0.337451
C63	C	1.446776	-0.352607	0.414553
H64	H	1.487110	-0.314410	0.494212
H65	H	1.502473	-0.426419	0.393875
H66	H	1.344100	-0.383748	0.417919
H67	H	1.297490	-0.519108	-0.004356
O68	O	1.450798	-0.247908	0.551820
C69	C	1.341105	-0.248699	0.604071
H70	H	1.311517	-0.159005	0.611012
H71	H	1.360680	-0.283704	0.685816
H72	H	1.262418	-0.304025	0.557639
O73	O	1.492068	0.238507	0.356260
C74	C	1.383331	0.249869	0.407777
H75	H	1.304056	0.187932	0.370980
H76	H	1.353877	0.339660	0.399537
H77	H	1.404132	0.231203	0.494470
H78	H	1.494926	0.201439	0.151336
