data_functionalizedCrystal
_audit_creation_method	'MofGen! by Chris Wilmer'
_symmetry_space_group_name_H-M	'P1'
_symmetry_Int_Tables_number	1
_symmetry_cell_setting	triclinic
loop_
_symmetry_equiv_pos_as_xyz
  x,y,z
_cell_length_a	25.639242
_cell_length_b	29.839131
_cell_length_c	25.639233
_cell_angle_alpha	89.984584
_cell_angle_beta	89.977834
_cell_angle_gamma	90.037230
loop_
_atom_site_label
_atom_site_type_symbol
_atom_site_fract_x
_atom_site_fract_y
_atom_site_fract_z
Zn1	Zn	0.799214	-0.178962	-0.295754
Zn2	Zn	0.799133	-0.254076	-0.208324
Zn3	Zn	0.711790	-0.178955	-0.208318
Zn4	Zn	0.711731	-0.254059	-0.295714
O5	O	0.755467	-0.216513	-0.252028
O6	O	0.872369	-0.188935	-0.284176
O7	O	0.787538	-0.244115	-0.135158
O8	O	0.723446	-0.116089	-0.219932
O9	O	0.872309	-0.244122	-0.219941
O10	O	0.787676	-0.116094	-0.284171
O11	O	0.723368	-0.188924	-0.135154
O12	O	0.638617	-0.188908	-0.219892
O13	O	0.723345	-0.244093	-0.368884
O14	O	0.638574	-0.244087	-0.284101
O15	O	0.787618	-0.188919	-0.368914
O16	O	0.787480	-0.316941	-0.219901
O17	O	0.723266	-0.316929	-0.284106
C18	C	0.619625	-0.216495	-0.251992
C19	C	0.561510	-0.216499	-0.251989
C20	C	0.201134	-0.245293	-0.285429
C21	C	0.146529	-0.245295	-0.285438
O22	O	0.118281	-0.269755	-0.313840
N23	N	0.119228	-0.216525	-0.252062
C24	C	0.146534	-0.187748	-0.218679
O25	O	0.118298	-0.163276	-0.190291
C26	C	0.201137	-0.187743	-0.218674
C27	C	0.228436	-0.216518	-0.252048
C28	C	0.228432	-0.274065	-0.318802
C29	C	0.283033	-0.274063	-0.318793
C30	C	0.310335	-0.245288	-0.285411
C31	C	0.283036	-0.216516	-0.252039
C32	C	0.228442	-0.158963	-0.185294
C33	C	0.283049	-0.158961	-0.185292
C34	C	0.310348	-0.187736	-0.218666
C35	C	0.364939	-0.187739	-0.218649
N36	N	0.392240	-0.216509	-0.252025
C37	C	0.364938	-0.245283	-0.285406
C38	C	0.031863	-0.187759	-0.218693
C39	C	-0.022739	-0.187766	-0.218695
C40	C	-0.022740	-0.245313	-0.285455
C41	C	0.031863	-0.245308	-0.285450
C42	C	0.059165	-0.216529	-0.252069
C43	C	0.479603	-0.245277	-0.285384
C44	C	0.534208	-0.245273	-0.285371
C45	C	0.534205	-0.187724	-0.218613
C46	C	0.479604	-0.187729	-0.218625
C47	C	0.452305	-0.216507	-0.252014
O48	O	0.393222	-0.163290	-0.190263
O49	O	0.393180	-0.269746	-0.313794
C50	C	0.755372	-0.333236	-0.252011
C51	C	0.755379	-0.383170	-0.252022
C52	C	0.722052	-0.739766	-0.285457
C53	C	0.721983	-0.552093	-0.285440
O54	O	0.693534	-0.527837	-0.313858
N55	N	0.755434	-0.528615	-0.252038
C56	C	0.788908	-0.552058	-0.218639
O57	O	0.817362	-0.527782	-0.190231
C58	C	0.788979	-0.739730	-0.218659
C59	C	0.755522	-0.763206	-0.252060
C60	C	0.688599	-0.763242	-0.318856
C61	C	0.688614	-0.810158	-0.318857
C62	C	0.722084	-0.833597	-0.285460
C63	C	0.755538	-0.810122	-0.252061
C64	C	0.822454	-0.763172	-0.185263
C65	C	0.822470	-0.810093	-0.185272
C66	C	0.789013	-0.833569	-0.218673
C67	C	0.789023	-0.880477	-0.218666
N68	N	0.755572	-0.903955	-0.252069
C69	C	0.722102	-0.880515	-0.285466
C70	C	0.788867	-0.453527	-0.218631
C71	C	0.788849	-0.406610	-0.218625
C72	C	0.721925	-0.406648	-0.285427
C73	C	0.721941	-0.453567	-0.285430
C74	C	0.755416	-0.477006	-0.252033
C75	C	0.722137	-0.979041	-0.285467
C76	C	0.722154	-1.025961	-0.285464
C77	C	0.789079	-1.025918	-0.218664
C78	C	0.789061	-0.979002	-0.218665
C79	C	0.755588	-0.955565	-0.252070
O80	O	0.817461	-0.904762	-0.190268
O81	O	0.693660	-0.904799	-0.313878
C82	C	0.722037	-0.692851	-0.285455
C83	C	0.755491	-0.669375	-0.252056
C84	C	0.788960	-0.692815	-0.218659
C85	C	0.755472	-0.622457	-0.252051
C86	C	0.722003	-0.599018	-0.285448
C87	C	0.688552	-0.622496	-0.318850
C88	C	0.688567	-0.669411	-0.318852
C89	C	0.822411	-0.669337	-0.185256
C90	C	0.822393	-0.622421	-0.185257
C91	C	0.788923	-0.598981	-0.218654
C92	C	0.891840	-0.216531	-0.252063
C93	C	0.949954	-0.216539	-0.252079
C94	C	0.755484	-0.216505	-0.388401
C95	C	0.755491	-0.216502	-0.446515
C96	C	0.755577	-0.099335	-0.252055
C97	C	0.755624	-0.049400	-0.252067
C98	C	0.789001	-0.187687	-0.806899
C99	C	0.789007	-0.187675	-0.861503
O100	O	0.817456	-0.163229	-0.889758
N101	N	0.755549	-0.216396	-0.888797
C102	C	0.722078	-0.245129	-0.861484
O103	O	0.693619	-0.269558	-0.889714
C104	C	0.722069	-0.245139	-0.806881
C105	C	0.755534	-0.216419	-0.779590
C106	C	0.822462	-0.158969	-0.779608
C107	C	0.822456	-0.158982	-0.725007
C108	C	0.788989	-0.187714	-0.697698
C109	C	0.755528	-0.216432	-0.724989
C110	C	0.688596	-0.273869	-0.779569
C111	C	0.688590	-0.273876	-0.724961
C112	C	0.722054	-0.245156	-0.697670
C113	C	0.722055	-0.245176	-0.643079
N114	N	0.755513	-0.216455	-0.615785
C115	C	0.788980	-0.187723	-0.643095
C116	C	0.722098	-0.245106	-0.976155
C117	C	0.722109	-0.245099	-1.030757
C118	C	0.789038	-0.187644	-1.030773
C119	C	0.789029	-0.187653	-0.976169
C120	C	0.755557	-0.216384	-0.948861
C121	C	0.788966	-0.187753	-0.528429
C122	C	0.788958	-0.187770	-0.473824
C123	C	0.722028	-0.245223	-0.473813
C124	C	0.722037	-0.245208	-0.528414
C125	C	0.755508	-0.216470	-0.555721
O126	O	0.693619	-0.269609	-0.614790
O127	O	0.817429	-0.163295	-0.614858
C128	C	0.755480	-0.216488	-0.116185
C129	C	0.755575	-0.216365	-0.058071
H130	H	0.305275	-0.135522	-0.158112
N131	N	0.562100	-0.274662	-0.319464
N132	N	0.610853	-0.274658	-0.319454
H133	H	0.630551	-0.295413	-0.343532
N134	N	0.823208	-0.158307	-0.948303
N135	N	0.819778	-0.116852	-0.954411
H136	H	0.843918	-0.096124	-0.934733
N137	N	0.856572	-0.598441	-0.151139
N138	N	0.889868	-0.572229	-0.169569
H139	H	0.914007	-0.555293	-0.145476
N140	N	0.856636	-0.129634	-0.697144
N141	N	0.853202	-0.088180	-0.703254
H142	H	0.877343	-0.067449	-0.683580
N143	N	0.687929	-0.274433	-1.058639
N144	N	0.687933	-0.274420	-1.107391
H145	H	0.663790	-0.295136	-1.127082
H146	H	0.694908	-1.045073	-0.312665
N147	N	0.823222	-0.158297	-1.058682
N148	N	0.823219	-0.158294	-1.107435
H149	H	0.847360	-0.137570	-1.127148
N150	N	0.451714	-0.274668	-0.319488
N151	N	0.421274	-0.258912	-0.352845
H152	H	0.401576	-0.279671	-0.376928
N153	N	0.451724	-0.158339	-0.184526
N154	N	0.476110	-0.132651	-0.154722
H155	H	0.456424	-0.111890	-0.130642
N156	N	0.823148	-0.158393	-0.556318
N157	N	0.819718	-0.116940	-0.550215
H158	H	0.843860	-0.096205	-0.569912
N159	N	0.823019	-0.382640	-0.184495
N160	N	0.852898	-0.403579	-0.154680
H161	H	0.877034	-0.386652	-0.130575
N162	N	0.059745	-0.274692	-0.319551
N163	N	0.090237	-0.258927	-0.352901
H164	H	0.109926	-0.279679	-0.376988
N165	N	0.310905	-0.303458	-0.352888
N166	N	0.286512	-0.329144	-0.382689
H167	H	0.306194	-0.349906	-0.406773
N168	N	-0.050628	-0.158374	-0.184608
N169	N	-0.099381	-0.158375	-0.184617
H170	H	-0.119077	-0.137614	-0.160545
H171	H	-0.044979	-0.268742	-0.312637
H172	H	0.849698	-0.744065	-0.158065
H173	H	0.816211	-0.164382	-0.451606
H174	H	0.694840	-0.268504	-0.953924
H175	H	0.054089	-0.164324	-0.191507
N176	N	0.200575	-0.129568	-0.151197
N177	N	0.224969	-0.103880	-0.121400
H178	H	0.205289	-0.083118	-0.097316
H179	H	0.849715	-0.135570	-0.801837
H180	H	0.661346	-0.297256	-0.801780
N181	N	0.687834	-0.274568	-0.445920
N182	N	0.657954	-0.300207	-0.470288
H183	H	0.633801	-0.320930	-0.450588
N184	N	0.562107	-0.158339	-0.184517
N185	N	0.610859	-0.158343	-0.184519
H186	H	0.630567	-0.137588	-0.160440
N187	N	0.687945	-0.955112	-0.319594
N188	N	0.658080	-0.976086	-0.349410
H189	H	0.633930	-0.959186	-0.373512
H190	H	0.206208	-0.297497	-0.345987
H191	H	0.661369	-0.829268	-0.346055
N192	N	0.654391	-0.303225	-0.697076
N193	N	0.624516	-0.328862	-0.721454
H194	H	0.600363	-0.349590	-0.701761
H195	H	0.694792	-0.268599	-0.550635
H196	H	0.694700	-0.472678	-0.312631
N197	N	0.654413	-0.739305	-0.352981
N198	N	0.657848	-0.744533	-0.401229
H199	H	0.633701	-0.727631	-0.425331
N200	N	0.687741	-0.382694	-0.319540
N201	N	0.687736	-0.340803	-0.319528
H202	H	0.663598	-0.323883	-0.343622
H203	H	0.816127	-0.472607	-0.191433
H204	H	0.849732	-0.829175	-0.158077
H205	H	0.816299	-0.959888	-0.191461
H206	H	0.816328	-1.045011	-0.191471
N207	N	0.654386	-0.693388	-0.352966
N208	N	0.606142	-0.688184	-0.349442
H209	H	0.582000	-0.705114	-0.373536
N210	N	0.654364	-0.598541	-0.352960
N211	N	0.654360	-0.556651	-0.352948
H212	H	0.630218	-0.539730	-0.377037
N213	N	0.856608	-0.693268	-0.151140
N214	N	0.886472	-0.672295	-0.121324
H215	H	0.910626	-0.689195	-0.097226
