data_functionalizedCrystal
_audit_creation_method	'MofGen! by Chris Wilmer'
_symmetry_space_group_name_H-M	'P1'
_symmetry_Int_Tables_number	1
_symmetry_cell_setting	triclinic
loop_
_symmetry_equiv_pos_as_xyz
  x,y,z
_cell_length_a	16.120490
_cell_length_b	18.215404
_cell_length_c	18.215399
_cell_angle_alpha	89.972485
_cell_angle_beta	92.915256
_cell_angle_gamma	92.883826
loop_
_atom_site_label
_atom_site_type_symbol
_atom_site_fract_x
_atom_site_fract_y
_atom_site_fract_z
Zn1	Zn	1.274549	0.350181	0.473068
Zn2	Zn	1.524549	0.600181	0.723068
Zn3	Zn	1.774549	0.850181	0.973068
Zn4	Zn	2.024549	1.100181	1.223068
Zn5	Zn	1.274448	0.473248	0.349998
Zn6	Zn	1.524448	0.723248	0.599998
Zn7	Zn	1.774448	0.973248	0.849998
Zn8	Zn	2.024448	1.223248	1.099998
Zn9	Zn	1.135132	0.343949	0.343786
Zn10	Zn	1.385132	0.593949	0.593786
Zn11	Zn	1.635132	0.843949	0.843786
Zn12	Zn	1.885132	1.093949	1.093786
Zn13	Zn	1.135096	0.466953	0.466797
Zn14	Zn	1.385096	0.716953	0.716797
Zn15	Zn	1.635096	0.966953	0.966797
Zn16	Zn	1.885096	1.216953	1.216797
O17	O	1.204806	0.408583	0.408412
O18	O	1.454806	0.658583	0.658412
O19	O	1.704806	0.908583	0.908412
O20	O	1.954806	1.158583	1.158412
O21	O	1.391202	0.371749	0.461967
O22	O	1.641202	0.621749	0.711967
O23	O	1.891202	0.871749	0.961967
O24	O	2.141202	1.121749	1.211967
O25	O	1.255940	0.456122	0.246189
O26	O	1.505940	0.706122	0.496189
O27	O	1.755940	0.956122	0.746189
O28	O	2.005940	1.206122	0.996189
O29	O	1.153683	0.241794	0.360960
O30	O	1.403683	0.491794	0.610960
O31	O	1.653683	0.741794	0.860960
O32	O	1.903683	0.991794	1.110960
O33	O	1.391128	0.462166	0.371548
O34	O	1.641128	0.712166	0.621548
O35	O	1.891128	0.962166	0.871548
O36	O	2.141128	1.212166	1.121548
O37	O	1.256113	0.246373	0.455944
O38	O	1.506113	0.496373	0.705944
O39	O	1.756113	0.746373	0.955944
O40	O	2.006113	0.996373	1.205944
O41	O	1.153585	0.361127	0.241625
O42	O	1.403585	0.611127	0.491625
O43	O	1.653585	0.861127	0.741625
O44	O	1.903585	1.111127	0.991625
O45	O	1.018461	0.355023	0.354879
O46	O	1.268461	0.605023	0.604879
O47	O	1.518461	0.855023	0.854879
O48	O	1.768461	1.105023	1.104879
O49	O	1.153622	0.451437	0.570614
O50	O	1.403622	0.701437	0.820614
O51	O	1.653622	0.951437	1.070614
O52	O	1.903622	1.201437	1.320614
O53	O	1.018434	0.445394	0.445255
O54	O	1.268434	0.695394	0.695255
O55	O	1.518434	0.945394	0.945255
O56	O	1.768434	1.195394	1.195255
O57	O	1.256078	0.365645	0.575222
O58	O	1.506078	0.615645	0.825222
O59	O	1.756078	0.865645	1.075222
O60	O	2.006078	1.115645	1.325222
O61	O	1.255905	0.575395	0.365467
O62	O	1.505905	0.825395	0.615467
O63	O	1.755905	1.075395	0.865467
O64	O	2.005905	1.325395	1.115467
O65	O	1.153524	0.570770	0.451278
O66	O	1.403524	0.820770	0.701278
O67	O	1.653524	1.070770	0.951278
O68	O	1.903524	1.320770	1.201278
C69	C	1.204722	0.599785	0.408383
C70	C	1.454722	0.849785	0.658383
C71	C	1.704722	1.099785	0.908383
C72	C	1.954722	1.349785	1.158383
C73	C	1.204762	0.681586	0.408399
C74	C	1.454762	0.931586	0.658399
C75	C	1.704762	1.181586	0.908399
C76	C	1.954762	1.431586	1.158399
C77	C	0.988197	0.398849	0.398713
C78	C	1.238197	0.648849	0.648713
C79	C	1.488197	0.898849	0.898713
C80	C	1.738197	1.148849	1.148713
C81	C	0.895531	0.394703	0.394580
C82	C	1.145531	0.644703	0.644580
C83	C	1.395531	0.894703	0.894580
C84	C	1.645531	1.144703	1.144580
C85	C	1.258202	0.872169	0.363819
C86	C	1.508202	1.122169	0.613819
C87	C	1.758202	1.372169	0.863819
C88	C	2.008202	1.622169	1.113819
C89	C	1.258241	0.949030	0.363843
C90	C	1.508241	1.199030	0.613843
C91	C	1.758241	1.449030	0.863843
C92	C	2.008241	1.699030	1.113843
C93	C	1.151538	0.944250	0.453117
C94	C	1.401538	1.194250	0.703117
C95	C	1.651538	1.444250	0.953117
C96	C	1.901538	1.694250	1.203117
C97	C	1.151504	0.867391	0.453097
C98	C	1.401504	1.117391	0.703097
C99	C	1.651504	1.367391	0.953097
C100	C	1.901504	1.617391	1.203097
C101	C	1.204835	0.831353	0.408444
C102	C	1.454835	1.081353	0.658444
C103	C	1.704835	1.331353	0.908444
C104	C	1.954835	1.581353	1.158444
C105	C	1.204908	0.985072	0.408488
C106	C	1.454908	1.235072	0.658488
C107	C	1.704908	1.485072	0.908488
C108	C	1.954908	1.735072	1.158488
C109	C	1.204949	1.068408	0.408513
C110	C	1.454949	1.318408	0.658513
C111	C	1.704949	1.568408	0.908513
C112	C	1.954949	1.818408	1.158513
C113	C	1.204794	0.748012	0.408419
C114	C	1.454794	0.998012	0.658419
C115	C	1.704794	1.248012	0.908419
C116	C	1.954794	1.498012	1.158419
C117	C	0.684589	0.430085	0.429848
C118	C	0.934589	0.680085	0.679848
C119	C	1.184589	0.930085	0.929848
C120	C	1.434589	1.180085	1.179848
C121	C	0.725874	0.387140	0.387035
C122	C	0.975874	0.637140	0.637035
C123	C	1.225874	0.887140	0.887035
C124	C	1.475874	1.137140	1.137035
C125	C	0.820280	0.391349	0.391235
C126	C	1.070280	0.641349	0.641235
C127	C	1.320280	0.891349	0.891235
C128	C	1.570280	1.141349	1.141235
C129	C	0.590175	0.425876	0.425649
C130	C	0.840175	0.675876	0.675649
C131	C	1.090175	0.925876	0.925649
C132	C	1.340175	1.175876	1.175649
C133	C	1.422261	0.418355	0.418150
C134	C	1.672261	0.668355	0.668150
C135	C	1.922261	0.918355	0.918150
C136	C	2.172261	1.168355	1.168150
C137	C	1.514927	0.422519	0.422300
C138	C	1.764927	0.672519	0.672300
C139	C	2.014927	0.922519	0.922300
C140	C	2.264927	1.172519	1.172300
C141	C	1.204857	0.408534	0.600368
C142	C	1.454857	0.658534	0.850368
C143	C	1.704857	0.908534	1.100368
C144	C	1.954857	1.158534	1.350368
C145	C	1.204879	0.408514	0.682168
C146	C	1.454879	0.658514	0.932168
C147	C	1.704879	0.908514	1.182168
C148	C	1.954879	1.158514	1.432168
C149	C	1.204919	1.216635	0.408472
C150	C	1.454919	1.466635	0.658472
C151	C	1.704919	1.716635	0.908472
C152	C	1.954919	1.966635	1.158472
C153	C	1.204980	1.134839	0.408532
C154	C	1.454980	1.384839	0.658532
C155	C	1.704980	1.634839	0.908532
C156	C	1.954980	1.884839	1.158532
C157	C	1.204804	0.408580	0.217206
C158	C	1.454804	0.658580	0.467206
C159	C	1.704804	0.908580	0.717206
C160	C	1.954804	1.158580	0.967206
C161	C	1.204943	0.408401	0.135414
C162	C	1.454943	0.658401	0.385414
C163	C	1.704943	0.908401	0.635414
C164	C	1.954943	1.158401	0.885414
C165	C	1.258247	0.363799	0.872763
C166	C	1.508247	0.613799	1.122763
C167	C	1.758247	0.863799	1.372763
C168	C	2.008247	1.113799	1.622763
C169	C	1.258257	0.363778	0.949622
C170	C	1.508257	0.613778	1.199622
C171	C	1.758257	0.863778	1.449622
C172	C	2.008257	1.113778	1.699622
C173	C	1.151570	0.453118	0.944813
C174	C	1.401570	0.703118	1.194813
C175	C	1.651570	0.953118	1.444813
C176	C	1.901570	1.203118	1.694813
C177	C	1.151556	0.453134	0.867955
C178	C	1.401556	0.703134	1.117955
C179	C	1.651556	0.953134	1.367955
C180	C	1.901556	1.203134	1.617955
C181	C	1.204899	0.408476	0.831932
C182	C	1.454899	0.658476	1.081932
C183	C	1.704899	0.908476	1.331932
C184	C	1.954899	1.158476	1.581932
C185	C	1.204923	0.408439	0.985649
C186	C	1.454923	0.658439	1.235649
C187	C	1.704923	0.908439	1.485649
C188	C	1.954923	1.158439	1.735649
C189	C	1.204933	0.408416	1.068983
C190	C	1.454933	0.658416	1.318983
C191	C	1.704933	0.908416	1.568983
C192	C	1.954933	1.158416	1.818983
C193	C	1.204888	0.408497	0.748593
C194	C	1.454888	0.658497	0.998593
C195	C	1.704888	0.908497	1.248593
C196	C	1.954888	1.158497	1.498593
H197	H	1.301628	0.842829	0.327461
H198	H	1.551628	1.092829	0.577461
H199	H	1.801628	1.342829	0.827461
H200	H	2.051628	1.592829	1.077461
H201	H	1.108141	0.489478	0.974152
H202	H	1.358141	0.739478	1.224152
H203	H	1.608141	0.989478	1.474152
H204	H	1.858141	1.239478	1.724152
H205	H	1.301699	0.982260	0.327507
H206	H	1.551699	1.232260	0.577507
H207	H	1.801699	1.482260	0.827507
H208	H	2.051699	1.732260	1.077507
H209	H	1.108108	0.489515	0.834709
H210	H	1.358108	0.739515	1.084709
H211	H	1.608108	0.989515	1.334709
H212	H	1.858108	1.239515	1.584709
H213	H	1.108117	0.973602	0.489471
H214	H	1.358117	1.223602	0.739471
H215	H	1.608117	1.473602	0.989471
H216	H	1.858117	1.723602	1.239471
Cl217	Cl	1.084413	0.816075	0.509205
Cl218	Cl	1.334413	1.066075	0.759205
Cl219	Cl	1.584413	1.316075	1.009205
Cl220	Cl	1.834413	1.566075	1.259205
Cl221	Cl	0.739483	0.491735	0.491294
Cl222	Cl	0.989483	0.741735	0.741294
Cl223	Cl	1.239483	0.991735	0.991294
Cl224	Cl	1.489483	1.241735	1.241294
H225	H	0.690318	0.347212	0.347228
H226	H	0.940318	0.597212	0.597228
H227	H	1.190318	0.847212	0.847228
H228	H	1.440318	1.097212	1.097228
H229	H	1.301680	0.327433	0.843435
H230	H	1.551680	0.577433	1.093435
H231	H	1.801680	0.827433	1.343435
H232	H	2.051680	1.077433	1.593435
Cl233	Cl	1.325332	0.307616	1.000950
Cl234	Cl	1.575332	0.557616	1.250950
Cl235	Cl	1.825332	0.807616	1.500950
Cl236	Cl	2.075332	1.057616	1.750950
