data_functionalizedCrystal
_audit_creation_method	'MofGen! by Chris Wilmer'
_symmetry_space_group_name_H-M	'P1'
_symmetry_Int_Tables_number	1
_symmetry_cell_setting	triclinic
loop_
_symmetry_equiv_pos_as_xyz
  x,y,z
_cell_length_a	16.625547
_cell_length_b	16.625546
_cell_length_c	18.101389
_cell_angle_alpha	90.019589
_cell_angle_beta	90.025473
_cell_angle_gamma	90.021654
loop_
_atom_site_label
_atom_site_type_symbol
_atom_site_fract_x
_atom_site_fract_y
_atom_site_fract_z
Zn1	Zn	-1.232668	0.321104	-0.418855
Zn2	Zn	-0.982668	0.571104	-0.168855
Zn3	Zn	-0.732668	0.821104	0.081145
Zn4	Zn	-0.482668	1.071104	0.331145
Zn5	Zn	-1.232575	0.455921	-0.295011
Zn6	Zn	-0.982575	0.705921	-0.045011
Zn7	Zn	-0.732575	0.955921	0.204989
Zn8	Zn	-0.482575	1.205921	0.454989
Zn9	Zn	-1.097833	0.321105	-0.295014
Zn10	Zn	-0.847833	0.571105	-0.045014
Zn11	Zn	-0.597833	0.821105	0.204986
Zn12	Zn	-0.347833	1.071105	0.454986
Zn13	Zn	-1.097800	0.455896	-0.418797
Zn14	Zn	-0.847800	0.705896	-0.168797
Zn15	Zn	-0.597800	0.955896	0.081203
Zn16	Zn	-0.347800	1.205896	0.331203
O17	O	-1.165219	0.388506	-0.356920
O18	O	-0.915219	0.638506	-0.106920
O19	O	-0.665219	0.888506	0.143080
O20	O	-0.415219	1.138506	0.393080
O21	O	-1.345488	0.338998	-0.402450
O22	O	-1.095488	0.588998	-0.152450
O23	O	-0.845488	0.838998	0.097550
O24	O	-0.595488	1.088998	0.347550
O25	O	-1.214676	0.438049	-0.191379
O26	O	-0.964676	0.688049	0.058621
O27	O	-0.714676	0.938049	0.308621
O28	O	-0.464676	1.188049	0.558621
O29	O	-1.115772	0.208272	-0.311467
O30	O	-0.865772	0.458272	-0.061467
O31	O	-0.615772	0.708272	0.188533
O32	O	-0.365772	0.958272	0.438533
O33	O	-1.345420	0.438048	-0.311463
O34	O	-1.095420	0.688048	-0.061463
O35	O	-0.845420	0.938048	0.188537
O36	O	-0.595420	1.188048	0.438537
O37	O	-1.214835	0.208271	-0.402453
O38	O	-0.964835	0.458271	-0.152453
O39	O	-0.714835	0.708271	0.097547
O40	O	-0.464835	0.958271	0.347547
O41	O	-1.115682	0.338999	-0.191381
O42	O	-0.865682	0.588999	0.058619
O43	O	-0.615682	0.838999	0.308619
O44	O	-0.365682	1.088999	0.558619
O45	O	-0.984997	0.338975	-0.311411
O46	O	-0.734997	0.588975	-0.061411
O47	O	-0.484997	0.838975	0.188589
O48	O	-0.234997	1.088975	0.438589
O49	O	-1.115716	0.438005	-0.522438
O50	O	-0.865716	0.688005	-0.272438
O51	O	-0.615716	0.938005	-0.022438
O52	O	-0.365716	1.188005	0.227562
O53	O	-0.984972	0.438005	-0.402354
O54	O	-0.734972	0.688005	-0.152354
O55	O	-0.484972	0.938005	0.097646
O56	O	-0.234972	1.188005	0.347646
O57	O	-1.214802	0.338973	-0.522481
O58	O	-0.964802	0.588973	-0.272481
O59	O	-0.714802	0.838973	-0.022481
O60	O	-0.464802	1.088973	0.227519
O61	O	-1.214644	0.568750	-0.311406
O62	O	-0.964644	0.818750	-0.061406
O63	O	-0.714644	1.068750	0.188594
O64	O	-0.464644	1.318750	0.438594
O65	O	-1.115625	0.568732	-0.402352
O66	O	-0.865625	0.818732	-0.152352
O67	O	-0.615625	1.068732	0.097648
O68	O	-0.365625	1.318732	0.347648
C69	C	-0.955728	0.388488	-0.356877
C70	C	-0.705728	0.638488	-0.106877
C71	C	-0.455728	0.888488	0.143123
C72	C	-0.205728	1.138488	0.393123
C73	C	-0.866107	0.388500	-0.356876
C74	C	-0.616107	0.638500	-0.106876
C75	C	-0.366107	0.888500	0.143124
C76	C	-0.116107	1.138500	0.393124
C77	C	-0.793325	0.388500	-0.356883
C78	C	-0.543325	0.638500	-0.106883
C79	C	-0.293325	0.888500	0.143117
C80	C	-0.043325	1.138500	0.393117
C81	C	-0.702016	0.388503	-0.356898
C82	C	-0.452016	0.638503	-0.106898
C83	C	-0.202016	0.888503	0.143102
C84	C	0.047984	1.138503	0.393102
C85	C	-0.629240	0.388510	-0.356914
C86	C	-0.379240	0.638510	-0.106914
C87	C	-0.129240	0.888510	0.143086
C88	C	0.120760	1.138510	0.393086
C89	C	-0.537925	0.388514	-0.356929
C90	C	-0.287925	0.638514	-0.106929
C91	C	-0.037925	0.888514	0.143071
C92	C	0.212075	1.138514	0.393071
C93	C	-1.165143	0.597997	-0.356889
C94	C	-0.915143	0.847997	-0.106889
C95	C	-0.665143	1.097997	0.143111
C96	C	-0.415143	1.347997	0.393111
C97	C	-1.165184	0.687618	-0.356900
C98	C	-0.915184	0.937618	-0.106900
C99	C	-0.665184	1.187618	0.143100
C100	C	-0.415184	1.437618	0.393100
C101	C	-0.375528	0.388522	-0.356954
C102	C	-0.125528	0.638522	-0.106954
C103	C	0.124472	0.888522	0.143046
C104	C	0.374472	1.138522	0.393046
C105	C	-0.465149	0.388520	-0.356945
C106	C	-0.215149	0.638520	-0.106945
C107	C	0.034851	0.888520	0.143055
C108	C	0.284851	1.138520	0.393055
C109	C	-1.165266	0.388486	-0.550082
C110	C	-0.915266	0.638486	-0.300082
C111	C	-0.665266	0.888486	-0.050082
C112	C	-0.415266	1.138486	0.199918
C113	C	-1.165285	0.388477	-0.632396
C114	C	-0.915285	0.638477	-0.382396
C115	C	-0.665285	0.888477	-0.132396
C116	C	-0.415285	1.138477	0.117604
C117	C	-1.165318	0.178197	-0.356967
C118	C	-0.915318	0.428197	-0.106967
C119	C	-0.665318	0.678197	0.143033
C120	C	-0.415318	0.928197	0.393033
C121	C	-1.165360	0.088576	-0.356987
C122	C	-0.915360	0.338576	-0.106987
C123	C	-0.665360	0.588576	0.143013
C124	C	-0.415360	0.838576	0.393013
C125	C	-1.165325	1.015794	-0.356977
C126	C	-0.915325	1.265794	-0.106977
C127	C	-0.665325	1.515794	0.143023
C128	C	-0.415325	1.765794	0.393023
C129	C	-1.165283	0.924485	-0.356958
C130	C	-0.915283	1.174485	-0.106958
C131	C	-0.665283	1.424485	0.143042
C132	C	-0.415283	1.674485	0.393042
C133	C	-1.165254	0.851709	-0.356938
C134	C	-0.915254	1.101709	-0.106938
C135	C	-0.665254	1.351709	0.143062
C136	C	-0.415254	1.601709	0.393062
C137	C	-1.165213	0.760395	-0.356920
C138	C	-0.915213	1.010395	-0.106920
C139	C	-0.665213	1.260395	0.143080
C140	C	-0.415213	1.510395	0.393080
C141	C	-1.165332	0.388326	-0.931487
C142	C	-0.915332	0.638326	-0.681487
C143	C	-0.665332	0.888326	-0.431487
C144	C	-0.415332	1.138326	-0.181487
C145	C	-1.102775	0.450436	-0.900135
C146	C	-0.852775	0.700436	-0.650135
C147	C	-0.602775	0.950436	-0.400135
C148	C	-0.352775	1.200436	-0.150135
C149	C	-1.102944	0.450724	-0.814516
C150	C	-0.852944	0.700724	-0.564516
C151	C	-0.602944	0.950724	-0.314516
C152	C	-0.352944	1.200724	-0.064516
C153	C	-1.165308	0.388401	-0.783104
C154	C	-0.915308	0.638401	-0.533104
C155	C	-0.665308	0.888401	-0.283104
C156	C	-0.415308	1.138401	-0.033104
C157	C	-1.250264	0.411467	-0.814211
C158	C	-1.000264	0.661467	-0.564211
C159	C	-0.750264	0.911467	-0.314211
C160	C	-0.500264	1.161467	-0.064211
C161	C	-1.249915	0.411875	-0.899856
C162	C	-0.999915	0.661875	-0.649856
C163	C	-0.749915	0.911875	-0.399856
C164	C	-0.499915	1.161875	-0.149856
C165	C	-1.143673	0.303012	-0.899912
C166	C	-0.893673	0.553012	-0.649912
C167	C	-0.643673	0.803012	-0.399912
C168	C	-0.393673	1.053012	-0.149912
C169	C	-1.141783	0.303505	-0.814261
C170	C	-0.891783	0.553505	-0.564261
C171	C	-0.641783	0.803505	-0.314261
C172	C	-0.391783	1.053505	-0.064261
C173	C	-1.165300	0.388442	-0.699245
C174	C	-0.915300	0.638442	-0.449245
C175	C	-0.665300	0.888442	-0.199245
C176	C	-0.415300	1.138442	0.050755
C177	C	-1.165346	0.388287	-1.015346
C178	C	-0.915346	0.638287	-0.765346
C179	C	-0.665346	0.888287	-0.515346
C180	C	-0.415346	1.138287	-0.265346
C181	C	-1.165219	0.388469	-0.164509
C182	C	-0.915219	0.638469	0.085491
C183	C	-0.665219	0.888469	0.335491
C184	C	-0.415219	1.138469	0.585491
C185	C	-1.165355	0.388250	-0.082195
C186	C	-0.915355	0.638250	0.167805
C187	C	-0.665355	0.888250	0.417805
C188	C	-0.415355	1.138250	0.667805
H189	H	-1.039947	0.436290	-0.793483
H190	H	-0.789947	0.686290	-0.543483
H191	H	-0.539947	0.936290	-0.293483
H192	H	-0.289947	1.186290	-0.043483
N193	N	-1.058974	0.280455	-0.787323
N194	N	-0.808974	0.530455	-0.537323
N195	N	-0.558974	0.780455	-0.287323
N196	N	-0.308974	1.030455	-0.037323
H197	H	-1.044177	0.225801	-0.807539
H198	H	-0.794177	0.475801	-0.557539
H199	H	-0.544177	0.725801	-0.307539
H200	H	-0.294177	0.975801	-0.057539
H201	H	-1.018574	0.321623	-0.804829
H202	H	-0.768574	0.571623	-0.554829
H203	H	-0.518574	0.821623	-0.304829
H204	H	-0.268574	1.071623	-0.054829
N205	N	-1.019069	0.431505	-0.927379
N206	N	-0.769069	0.681505	-0.677379
N207	N	-0.519069	0.931505	-0.427379
N208	N	-0.269069	1.181505	-0.177379
H209	H	-1.020883	0.382487	-0.960314
H210	H	-0.770883	0.632487	-0.710314
H211	H	-0.520883	0.882487	-0.460314
H212	H	-0.270883	1.132487	-0.210314
H213	H	-0.997567	0.478833	-0.956237
H214	H	-0.747567	0.728833	-0.706237
H215	H	-0.497567	0.978833	-0.456237
H216	H	-0.247567	1.228833	-0.206237
H217	H	-1.184021	0.254774	-0.792879
H218	H	-0.934021	0.504774	-0.542879
H219	H	-0.684021	0.754774	-0.292879
H220	H	-0.434021	1.004774	-0.042879
N221	N	-1.121541	0.533690	-0.928635
N222	N	-0.871541	0.783690	-0.678635
N223	N	-0.621541	1.033690	-0.428635
N224	N	-0.371541	1.283690	-0.178635
H225	H	-1.074100	0.554759	-0.957607
H226	H	-0.824100	0.804759	-0.707607
H227	H	-0.574100	1.054759	-0.457607
H228	H	-0.324100	1.304759	-0.207607
H229	H	-1.170403	0.531275	-0.961734
H230	H	-0.920403	0.781275	-0.711734
H231	H	-0.670403	1.031275	-0.461734
H232	H	-0.420403	1.281275	-0.211734
H233	H	-1.117245	0.513961	-0.794033
H234	H	-0.867245	0.763961	-0.544033
H235	H	-0.617245	1.013961	-0.294033
H236	H	-0.367245	1.263961	-0.044033
N237	N	-1.275003	0.493200	-0.785813
N238	N	-1.025003	0.743200	-0.535813
N239	N	-0.775003	0.993200	-0.285813
N240	N	-0.525003	1.243200	-0.035813
H241	H	-1.283681	0.530833	-0.828872
H242	H	-1.033681	0.780833	-0.578872
H243	H	-0.783681	1.030833	-0.328872
H244	H	-0.533681	1.280833	-0.078872
H245	H	-1.326572	0.488058	-0.756724
H246	H	-1.076572	0.738058	-0.506724
H247	H	-0.826572	0.988058	-0.256724
H248	H	-0.576572	1.238058	-0.006724
N249	N	-1.274228	0.494481	-0.926339
N250	N	-1.024228	0.744481	-0.676339
N251	N	-0.774228	0.994481	-0.426339
N252	N	-0.524228	1.244481	-0.176339
H253	H	-1.329916	0.507517	-0.907559
H254	H	-1.079916	0.757517	-0.657559
H255	H	-0.829916	1.007517	-0.407559
H256	H	-0.579916	1.257517	-0.157559
H257	H	-1.234763	0.535650	-0.907064
H258	H	-0.984763	0.785650	-0.657064
H259	H	-0.734763	1.035650	-0.407064
H260	H	-0.484763	1.285650	-0.157064
N261	N	-1.313757	0.354570	-0.927339
N262	N	-1.063757	0.604570	-0.677339
N263	N	-0.813757	0.854570	-0.427339
N264	N	-0.563757	1.104570	-0.177339
H265	H	-1.342003	0.329158	-0.883817
H266	H	-1.092003	0.579158	-0.633817
H267	H	-0.842003	0.829158	-0.383817
H268	H	-0.592003	1.079158	-0.133817
H269	H	-1.354094	0.385029	-0.958282
H270	H	-1.104094	0.635029	-0.708282
H271	H	-0.854094	0.885029	-0.458282
H272	H	-0.604094	1.135029	-0.208282
N273	N	-1.313667	0.353425	-0.787278
N274	N	-1.063667	0.603425	-0.537278
N275	N	-0.813667	0.853425	-0.287278
N276	N	-0.563667	1.103425	-0.037278
H277	H	-1.287868	0.311521	-0.754573
H278	H	-1.037868	0.561521	-0.504573
H279	H	-0.787868	0.811521	-0.254573
H280	H	-0.537868	1.061521	-0.004573
H281	H	-1.355750	0.383743	-0.758255
H282	H	-1.105750	0.633743	-0.508255
H283	H	-0.855750	0.883743	-0.258255
H284	H	-0.605750	1.133743	-0.008255
H285	H	-1.189237	0.256738	-0.920190
H286	H	-0.939237	0.506738	-0.670190
H287	H	-0.689237	0.756738	-0.420190
H288	H	-0.439237	1.006738	-0.170190
H289	H	-1.082800	0.281998	-0.921497
H290	H	-0.832800	0.531998	-0.671497
H291	H	-0.582800	0.781998	-0.421497
H292	H	-0.332800	1.031998	-0.171497
