data_functionalizedCrystal
_audit_creation_method	'MofGen! by Chris Wilmer'
_symmetry_space_group_name_H-M	'P1'
_symmetry_Int_Tables_number	1
_symmetry_cell_setting	triclinic
loop_
_symmetry_equiv_pos_as_xyz
  x,y,z
_cell_length_a	19.805407
_cell_length_b	19.805405
_cell_length_c	12.759393
_cell_angle_alpha	90.037628
_cell_angle_beta	90.027260
_cell_angle_gamma	90.025657
loop_
_atom_site_label
_atom_site_type_symbol
_atom_site_fract_x
_atom_site_fract_y
_atom_site_fract_z
Zn1	Zn	1.034756	-0.269437	0.594183
Zn2	Zn	1.034665	-0.382642	0.418484
Zn3	Zn	0.921565	-0.269470	0.418495
Zn4	Zn	0.921534	-0.382588	0.594099
O5	O	0.978130	-0.326034	0.506315
O6	O	1.129461	-0.284462	0.570906
O7	O	1.019637	-0.367666	0.271465
O8	O	0.936631	-0.174749	0.441840
O9	O	1.129394	-0.367633	0.441821
O10	O	1.019792	-0.174725	0.570917
O11	O	0.936542	-0.284519	0.271473
O12	O	0.826844	-0.284467	0.441759
O13	O	0.936579	-0.367541	0.741131
O14	O	0.826822	-0.367574	0.570774
O15	O	1.019762	-0.284410	0.741193
O16	O	1.019607	-0.477351	0.441740
O17	O	0.936490	-0.477311	0.570763
C18	C	0.802274	-0.326019	0.506259
C19	C	0.727042	-0.326029	0.506260
C20	C	0.265257	-0.369389	0.573455
C21	C	0.335946	-0.369388	0.573433
C22	C	0.371280	-0.326050	0.506356
C23	C	0.335923	-0.282716	0.439290
C24	C	0.265236	-0.282721	0.439308
C25	C	0.620996	-0.282695	0.439216
C26	C	0.691688	-0.282692	0.439206
C27	C	0.691706	-0.369362	0.573341
C28	C	0.621019	-0.369367	0.573359
C29	C	0.585668	-0.326036	0.506289
C30	C	0.509019	-0.326038	0.506313
C31	C	0.447927	-0.326044	0.506337
C32	C	0.978054	-0.501890	0.506264
C33	C	0.978083	-0.577122	0.506278
C34	C	1.021404	-0.612464	0.439166
C35	C	1.021433	-0.683153	0.439189
C36	C	0.978137	-0.718498	0.506320
C37	C	0.934814	-0.683150	0.573439
C38	C	0.934789	-0.612463	0.573421
C39	C	0.934914	-0.968224	0.573517
C40	C	0.934941	-1.038916	0.573528
C41	C	1.021557	-1.038913	0.439286
C42	C	1.021533	-0.968226	0.439267
C43	C	0.978213	-0.932885	0.506390
C44	C	0.978183	-0.856237	0.506365
C45	C	0.978163	-0.795145	0.506340
C46	C	1.154673	-0.326050	0.506372
C47	C	1.229905	-0.326057	0.506396
C48	C	0.978177	-0.325966	0.780349
C49	C	0.978198	-0.325937	0.897125
C50	C	0.978225	-0.149491	0.506389
C51	C	0.978265	-0.074259	0.506421
C52	C	0.978122	-0.326053	0.233348
C53	C	0.978233	-0.325892	0.116572
C54	C	1.021517	-0.282646	0.952021
C55	C	1.021533	-0.282622	1.061745
C56	C	0.934908	-0.369184	1.061668
C57	C	0.934889	-0.369205	0.951946
C58	C	1.071532	-0.232672	0.952067
C59	C	1.071548	-0.232647	1.061791
H60	H	0.720456	-0.247399	0.384582
C61	C	1.142360	-0.251622	1.102039
N62	N	1.195693	-0.265915	1.132353
H63	H	0.236493	-0.404676	0.628083
C64	C	1.069032	-0.573592	0.365313
N65	N	1.104909	-0.544315	0.309687
C66	C	1.138785	-0.258040	0.906092
N67	N	1.189443	-0.277144	0.871464
C68	C	0.226349	-0.235050	0.365540
N69	N	0.197060	-0.199144	0.309975
C70	C	0.582155	-0.417048	0.647140
N71	N	0.552883	-0.452966	0.702706
C72	C	0.887133	-0.573587	0.647250
N73	N	0.851239	-0.544307	0.702863
C74	C	1.069085	-0.722026	0.365354
N75	N	1.104978	-0.751305	0.309736
H76	H	1.056786	-0.939451	0.384599
C77	C	0.730599	-0.417035	0.647110
N78	N	0.759891	-0.452941	0.702671
C79	C	1.069214	-1.077795	0.365453
N80	N	1.105107	-1.107079	0.309842
H81	H	0.899647	-0.404410	1.106317
C82	C	0.582119	-0.235020	0.365452
N83	N	0.552835	-0.199105	0.309893
C84	C	0.887313	-1.077794	0.647386
N85	N	0.851442	-1.107077	0.703014
C86	C	0.887186	-0.722032	0.647280
N87	N	0.851308	-0.751318	0.702895
C88	C	0.887295	-0.929358	0.647408
N89	N	0.851439	-0.900081	0.703086
C90	C	0.374794	-0.235039	0.365513
N91	N	0.404071	-0.199124	0.309948
C92	C	0.374830	-0.417060	0.647200
N93	N	0.404117	-0.452969	0.702762
C94	C	0.887224	-0.416818	0.891565
N95	N	0.851319	-0.452680	0.846085
H96	H	1.057518	-0.180254	0.922316
C97	C	1.046255	-0.165352	1.107799
N98	N	1.027212	-0.114663	1.142453
