data_functionalizedCrystal
_audit_creation_method	'MofGen! by Chris Wilmer'
_symmetry_space_group_name_H-M	'P1'
_symmetry_Int_Tables_number	1
_symmetry_cell_setting	triclinic
loop_
_symmetry_equiv_pos_as_xyz
  x,y,z
_cell_length_a	18.050591
_cell_length_b	18.050590
_cell_length_c	16.625539
_cell_angle_alpha	90.029956
_cell_angle_beta	90.026599
_cell_angle_gamma	90.014558
loop_
_atom_site_label
_atom_site_type_symbol
_atom_site_fract_x
_atom_site_fract_y
_atom_site_fract_z
Zn1	Zn	1.135384	-0.295737	0.456030
Zn2	Zn	1.468717	0.037596	0.789363
Zn3	Zn	1.802051	0.370929	1.122696
Zn4	Zn	1.135303	-0.419935	0.321193
Zn5	Zn	1.468637	-0.086601	0.654526
Zn6	Zn	1.801970	0.246732	0.987860
Zn7	Zn	1.011191	-0.295755	0.321196
Zn8	Zn	1.344524	0.037579	0.654529
Zn9	Zn	1.677858	0.370912	0.987863
Zn10	Zn	1.011172	-0.419881	0.455969
Zn11	Zn	1.344506	-0.086548	0.789302
Zn12	Zn	1.677839	0.246785	1.122635
O13	O	1.073263	-0.357827	0.388597
O14	O	1.406596	-0.024494	0.721930
O15	O	1.739929	0.308840	1.055264
O16	O	1.239298	-0.312227	0.438168
O17	O	1.572631	0.021106	0.771501
O18	O	1.905965	0.354439	1.104834
O19	O	1.118814	-0.403492	0.208361
O20	O	1.452147	-0.070158	0.541694
O21	O	1.785480	0.263175	0.875028
O22	O	1.027707	-0.191828	0.339109
O23	O	1.361040	0.141506	0.672442
O24	O	1.694374	0.474839	1.005776
O25	O	1.239239	-0.403475	0.339104
O26	O	1.572572	-0.070142	0.672437
O27	O	1.905905	0.263192	1.005770
O28	O	1.118951	-0.191815	0.438171
O29	O	1.452285	0.141518	0.771504
O30	O	1.785618	0.474852	1.104837
O31	O	1.027629	-0.312257	0.208363
O32	O	1.360962	0.021076	0.541697
O33	O	1.694296	0.354410	0.875030
O34	O	0.907264	-0.312205	0.339050
O35	O	1.240597	0.021128	0.672383
O36	O	1.573931	0.354462	1.005716
O37	O	1.027675	-0.403384	0.568809
O38	O	1.361008	-0.070050	0.902143
O39	O	1.694342	0.263283	1.235476
O40	O	0.907250	-0.403400	0.438067
O41	O	1.240583	-0.070067	0.771400
O42	O	1.573917	0.263266	1.104733
O43	O	1.118933	-0.312175	0.568854
O44	O	1.452266	0.021158	0.902187
O45	O	1.785600	0.354491	1.235521
O46	O	1.118796	-0.523852	0.339045
O47	O	1.452129	-0.190519	0.672378
O48	O	1.785462	0.142814	1.005711
O49	O	1.027597	-0.523813	0.438064
O50	O	1.360930	-0.190480	0.771397
O51	O	1.694264	0.142854	1.104730
C52	C	0.880311	-0.357799	0.388552
C53	C	1.213644	-0.024466	0.721886
C54	C	1.546977	0.308867	1.055219
C55	C	0.797765	-0.357805	0.388552
C56	C	1.131098	-0.024472	0.721886
C57	C	1.464431	0.308861	1.055219
C58	C	0.598300	-0.308156	0.334831
C59	C	0.931633	0.025178	0.668164
C60	C	1.264967	0.358511	1.001498
C61	C	0.548890	-0.375894	0.314987
C62	C	0.882223	-0.042560	0.648321
C63	C	1.215557	0.290773	0.981654
C64	C	0.646634	-0.357828	0.388589
C65	C	0.979968	-0.024495	0.721922
C66	C	1.313301	0.308839	1.055256
C67	C	0.548963	-0.290113	0.408430
C68	C	0.882296	0.043220	0.741764
C69	C	1.215629	0.376553	1.075097
C70	C	0.500649	-0.357844	0.388623
C71	C	0.833983	-0.024510	0.721956
C72	C	1.167316	0.308823	1.055289
C73	C	0.598312	-0.425601	0.368707
C74	C	0.931645	-0.092268	0.702040
C75	C	1.264978	0.241065	1.035374
C76	C	0.598389	-0.339775	0.462184
C77	C	0.931722	-0.006442	0.795517
C78	C	1.265055	0.326891	1.128851
C79	C	0.549001	-0.407560	0.442368
C80	C	0.882334	-0.074227	0.775702
C81	C	1.215668	0.259107	1.109035
C82	C	0.730733	-0.357818	0.388567
C83	C	1.064066	-0.024484	0.721901
C84	C	1.397399	0.308849	1.055234
C85	C	0.416553	-0.357861	0.388644
C86	C	0.749886	-0.024528	0.721977
C87	C	1.083219	0.308805	1.055311
C88	C	1.073206	-0.550779	0.388565
C89	C	1.406539	-0.217446	0.721898
C90	C	1.739872	0.115888	1.055231
C91	C	1.073249	-0.633325	0.388578
C92	C	1.406582	-0.299991	0.721911
C93	C	1.739916	0.033342	1.055245
C94	C	1.122946	-0.832770	0.334807
C95	C	1.456279	-0.499437	0.668140
C96	C	1.789613	-0.166103	1.001473
C97	C	1.141088	-0.882102	0.408399
C98	C	1.474422	-0.548769	0.741732
C99	C	1.807755	-0.215435	1.075065
C100	C	1.073291	-0.784455	0.388610
C101	C	1.406625	-0.451122	0.721944
C102	C	1.739958	-0.117789	1.055277
C103	C	1.055225	-0.882205	0.315051
C104	C	1.388558	-0.548871	0.648385
C105	C	1.721891	-0.215538	0.981718
C106	C	1.073333	-0.930440	0.388635
C107	C	1.406667	-0.597107	0.721968
C108	C	1.740000	-0.263774	1.055301
C109	C	1.091468	-0.832700	0.462241
C110	C	1.424802	-0.499367	0.795574
C111	C	1.758135	-0.166033	1.128907
C112	C	1.005573	-0.832798	0.368844
C113	C	1.338906	-0.499465	0.702177
C114	C	1.672240	-0.166132	1.035511
C115	C	1.023689	-0.882108	0.442487
C116	C	1.357023	-0.548775	0.775820
C117	C	1.690356	-0.215442	1.109153
C118	C	1.073269	-0.700357	0.388595
C119	C	1.406602	-0.367024	0.721928
C120	C	1.739936	-0.033690	1.055262
C121	C	1.073356	-1.014537	0.388658
C122	C	1.406689	-0.681203	0.721992
C123	C	1.740022	-0.347870	1.055325
C124	C	1.266968	-0.357855	0.388642
C125	C	1.600302	-0.024522	0.721976
C126	C	1.933635	0.308811	1.055309
C127	C	1.349514	-0.357867	0.388661
C128	C	1.682847	-0.024534	0.721995
C129	C	2.016181	0.308799	1.055328
C130	C	1.073311	-0.357772	0.598906
C131	C	1.406644	-0.024438	0.932239
C132	C	1.739978	0.308895	1.265573
C133	C	1.073332	-0.357748	0.688527
C134	C	1.406665	-0.024415	1.021860
C135	C	1.739998	0.308919	1.355194
C136	C	1.073340	-0.164121	0.388647
C137	C	1.406674	0.169212	0.721980
C138	C	1.740007	0.502545	1.055314
C139	C	1.073373	-0.081576	0.388668
C140	C	1.406707	0.251758	0.722001
C141	C	1.740040	0.585091	1.055335
C142	C	1.073257	-0.357828	0.179106
C143	C	1.406591	-0.024495	0.512439
C144	C	1.739924	0.308838	0.845773
C145	C	1.073381	-0.357643	0.089485
C146	C	1.406714	-0.024309	0.422819
C147	C	1.740047	0.309024	0.756152
C148	C	1.073366	-0.357665	1.016703
C149	C	1.406699	-0.024332	1.350036
C150	C	1.740032	0.309002	1.683370
C151	C	1.073354	-0.357690	0.925394
C152	C	1.406687	-0.024357	1.258728
C153	C	1.740021	0.308976	1.592061
C154	C	1.073349	-0.357707	0.852618
C155	C	1.406682	-0.024374	1.185951
C156	C	1.740016	0.308960	1.519285
C157	C	1.073337	-0.357731	0.761304
C158	C	1.406670	-0.024398	1.094637
C159	C	1.740003	0.308935	1.427970
H160	H	0.527149	-0.391175	0.252764
H161	H	0.860482	-0.057841	0.586097
H162	H	1.193816	0.275492	0.919431
N163	N	0.521783	-0.218266	0.429482
N164	N	0.855116	0.115067	0.762816
N165	N	1.188449	0.448401	1.096149
N166	N	0.538551	-0.190187	0.495779
N167	N	0.871884	0.143146	0.829113
N168	N	1.205218	0.476480	1.162446
H169	H	0.519358	-0.139443	0.510643
H170	H	0.852692	0.193890	0.843976
H171	H	1.186025	0.527224	1.177310
N172	N	0.625476	-0.255514	0.277754
N173	N	0.958809	0.077819	0.611087
N174	N	1.292143	0.411152	0.944420
N175	N	0.665109	-0.202776	0.300688
N176	N	0.998443	0.130557	0.634022
N177	N	1.331776	0.463890	0.967355
H178	H	0.684304	-0.165601	0.260377
H179	H	1.017638	0.167733	0.593711
H180	H	1.350971	0.501066	0.927044
N181	N	1.110758	-0.805533	0.540308
N182	N	1.444092	-0.472200	0.873642
N183	N	1.777425	-0.138867	1.206975
N184	N	1.166699	-0.765499	0.549072
N185	N	1.500032	-0.432166	0.882406
N186	N	1.833365	-0.098833	1.215739
H187	H	1.180327	-0.746311	0.604205
H188	H	1.513660	-0.412978	0.937539
H189	H	1.846993	-0.079644	1.270872
H190	H	0.948304	-0.811124	0.352088
H191	H	1.281637	-0.477790	0.685421
H192	H	1.614970	-0.144457	1.018755
N193	N	1.036019	-0.909493	0.237009
N194	N	1.369353	-0.576159	0.570342
N195	N	1.702686	-0.242826	0.903675
N196	N	1.032430	-0.977717	0.224681
N197	N	1.365763	-0.644383	0.558015
N198	N	1.699096	-0.311050	0.891348
H199	H	1.018870	-0.996988	0.169563
H200	H	1.352203	-0.663655	0.502896
H201	H	1.685537	-0.330321	0.836229
H202	H	0.619898	-0.482890	0.351870
H203	H	0.953231	-0.149557	0.685203
H204	H	1.286565	0.183776	1.018537
H205	H	1.198374	-0.903761	0.425133
H206	H	1.531708	-0.570427	0.758466
H207	H	1.865041	-0.237094	1.091799
N208	N	1.175649	-0.805585	0.277799
N209	N	1.508982	-0.472252	0.611133
N210	N	1.842315	-0.138918	0.944466
N211	N	1.227741	-0.765062	0.300641
N212	N	1.561074	-0.431729	0.633975
N213	N	1.894407	-0.098396	0.967308
H214	H	1.264965	-0.745862	0.260385
H215	H	1.598298	-0.412528	0.593718
H216	H	1.931631	-0.079195	0.927051
N217	N	0.522022	-0.460329	0.499416
N218	N	0.855356	-0.126995	0.832749
N219	N	1.188689	0.206338	1.166082
N220	N	0.537994	-0.527353	0.491900
N221	N	0.871327	-0.194019	0.825234
N222	N	1.204660	0.139314	1.158567
H223	H	0.518940	-0.564623	0.532188
H224	H	0.852273	-0.231290	0.865521
H225	H	1.185607	0.102044	1.198854
H226	H	0.981716	-0.903635	0.488050
H227	H	1.315049	-0.570302	0.821383
H228	H	1.648383	-0.236969	1.154716
H229	H	0.620147	-0.324474	0.524389
H230	H	0.953481	0.008859	0.857722
H231	H	1.286814	0.342193	1.191056
