data_functionalizedCrystal
_audit_creation_method	'MofGen! by Chris Wilmer'
_symmetry_space_group_name_H-M	'P1'
_symmetry_Int_Tables_number	1
_symmetry_cell_setting	triclinic
loop_
_symmetry_equiv_pos_as_xyz
  x,y,z
_cell_length_a	29.839135
_cell_length_b	29.839131
_cell_length_c	21.395355
_cell_angle_alpha	90.020172
_cell_angle_beta	90.027781
_cell_angle_gamma	90.043950
loop_
_atom_site_label
_atom_site_type_symbol
_atom_site_fract_x
_atom_site_fract_y
_atom_site_fract_z
Zn1	Zn	0.686774	-0.178875	0.354308
Zn2	Zn	0.936774	0.071125	0.604308
Zn3	Zn	1.186774	0.321125	0.854308
Zn4	Zn	1.436774	0.571125	1.104308
Zn5	Zn	0.686690	-0.253990	0.249528
Zn6	Zn	0.936690	-0.003990	0.499528
Zn7	Zn	1.186690	0.246010	0.749528
Zn8	Zn	1.436690	0.496010	0.999528
Zn9	Zn	0.611641	-0.178878	0.249539
Zn10	Zn	0.861641	0.071122	0.499539
Zn11	Zn	1.111641	0.321122	0.749539
Zn12	Zn	1.361641	0.571122	0.999539
Zn13	Zn	0.611605	-0.253982	0.354262
Zn14	Zn	0.861605	-0.003982	0.604262
Zn15	Zn	1.111605	0.246018	0.854262
Zn16	Zn	1.361605	0.496018	1.104262
O17	O	0.649177	-0.216431	0.301909
O18	O	0.899177	0.033569	0.551909
O19	O	1.149177	0.283569	0.801909
O20	O	1.399177	0.533569	1.051909
O21	O	0.749630	-0.188841	0.340423
O22	O	0.999630	0.061159	0.590423
O23	O	1.249630	0.311159	0.840423
O24	O	1.499630	0.561159	1.090423
O25	O	0.676715	-0.244031	0.161851
O26	O	0.926715	0.005969	0.411851
O27	O	1.176715	0.255969	0.661851
O28	O	1.426715	0.505969	0.911851
O29	O	0.621658	-0.116011	0.263461
O30	O	0.871658	0.133989	0.513461
O31	O	1.121658	0.383989	0.763461
O32	O	1.371658	0.633989	1.013461
O33	O	0.749568	-0.244028	0.263442
O34	O	0.999568	0.005972	0.513442
O35	O	1.249568	0.255972	0.763442
O36	O	1.499568	0.505972	1.013442
O37	O	0.676858	-0.116008	0.340434
O38	O	0.926858	0.133992	0.590434
O39	O	1.176858	0.383992	0.840434
O40	O	1.426858	0.633992	1.090434
O41	O	0.621576	-0.188847	0.161860
O42	O	0.871576	0.061153	0.411860
O43	O	1.121576	0.311153	0.661860
O44	O	1.371576	0.561153	0.911860
O45	O	0.548769	-0.188839	0.263416
O46	O	0.798769	0.061161	0.513416
O47	O	1.048769	0.311161	0.763416
O48	O	1.298769	0.561161	1.013416
O49	O	0.621596	-0.244014	0.441946
O50	O	0.871596	0.005986	0.691946
O51	O	1.121596	0.255986	0.941946
O52	O	1.371596	0.505986	1.191946
O53	O	0.548742	-0.244017	0.340356
O54	O	0.798742	0.005983	0.590356
O55	O	1.048742	0.255983	0.840356
O56	O	1.298742	0.505983	1.090356
O57	O	0.676823	-0.188833	0.441980
O58	O	0.926823	0.061167	0.691980
O59	O	1.176823	0.311167	0.941980
O60	O	1.426823	0.561167	1.191980
O61	O	0.676680	-0.316856	0.263397
O62	O	0.926680	-0.066856	0.513397
O63	O	1.176680	0.183144	0.763397
O64	O	1.426680	0.433144	1.013397
O65	O	0.621515	-0.316850	0.340345
O66	O	0.871515	-0.066850	0.590345
O67	O	1.121515	0.183150	0.840345
O68	O	1.371515	0.433150	1.090345
C69	C	0.649096	-0.333154	0.301878
C70	C	0.899096	-0.083154	0.551878
C71	C	1.149096	0.166846	0.801878
C72	C	1.399096	0.416846	1.051878
C73	C	0.649103	-0.383088	0.301886
C74	C	0.899103	-0.133088	0.551886
C75	C	1.149103	0.116912	0.801886
C76	C	1.399103	0.366912	1.051886
C77	C	0.532455	-0.216428	0.301882
C78	C	0.782455	0.033572	0.551882
C79	C	1.032455	0.283572	0.801882
C80	C	1.282455	0.533572	1.051882
C81	C	0.482520	-0.216437	0.301886
C82	C	0.732520	0.033563	0.551886
C83	C	0.982520	0.283563	0.801886
C84	C	1.232520	0.533563	1.051886
C85	C	0.677954	-0.692722	0.261901
C86	C	0.927954	-0.442722	0.511901
C87	C	1.177954	-0.192722	0.761901
C88	C	1.427954	0.057278	1.011901
C89	C	0.678010	-0.880395	0.261925
C90	C	0.928010	-0.630395	0.511925
C91	C	1.178010	-0.380395	0.761925
C92	C	1.428010	-0.130395	1.011925
O93	O	0.702476	-0.904652	0.227905
O94	O	0.952476	-0.654652	0.477905
O95	O	1.202476	-0.404652	0.727905
O96	O	1.452476	-0.154652	0.977905
N97	N	0.649271	-0.903873	0.301956
N98	N	0.899271	-0.653873	0.551956
N99	N	1.149271	-0.403873	0.801956
N100	N	1.399271	-0.153873	1.051956
C101	C	0.620518	-0.880430	0.341987
C102	C	0.870518	-0.630430	0.591987
C103	C	1.120518	-0.380430	0.841987
C104	C	1.370518	-0.130430	1.091987
O105	O	0.596078	-0.904706	0.376041
O106	O	0.846078	-0.654706	0.626041
O107	O	1.096078	-0.404706	0.876041
O108	O	1.346078	-0.154706	1.126041
C109	C	0.620465	-0.692758	0.341966
C110	C	0.870465	-0.442758	0.591966
C111	C	1.120465	-0.192758	0.841966
C112	C	1.370465	0.057242	1.091966
C113	C	0.649203	-0.669283	0.301927
C114	C	0.899203	-0.419283	0.551927
C115	C	1.149203	-0.169283	0.801927
C116	C	1.399203	0.080717	1.051927
C117	C	0.706690	-0.669247	0.221867
C118	C	0.956690	-0.419247	0.471867
C119	C	1.206690	-0.169247	0.721867
C120	C	1.456690	0.080753	0.971867
C121	C	0.706674	-0.622331	0.221858
C122	C	0.956674	-0.372331	0.471858
C123	C	1.206674	-0.122331	0.721858
C124	C	1.456674	0.127669	0.971858
C125	C	0.677922	-0.598891	0.261885
C126	C	0.927922	-0.348891	0.511885
C127	C	1.177922	-0.098891	0.761885
C128	C	1.427922	0.151109	1.011885
C129	C	0.649187	-0.622367	0.301919
C130	C	0.899187	-0.372367	0.551919
C131	C	1.149187	-0.122367	0.801919
C132	C	1.399187	0.127633	1.051919
C133	C	0.591715	-0.669316	0.381999
C134	C	0.841715	-0.419316	0.631999
C135	C	1.091715	-0.169316	0.881999
C136	C	1.341715	0.080684	1.131999
C137	C	0.591705	-0.622395	0.381991
C138	C	0.841705	-0.372395	0.631991
C139	C	1.091705	-0.122395	0.881991
C140	C	1.341705	0.127605	1.131991
C141	C	0.620443	-0.598919	0.341953
C142	C	0.870443	-0.348919	0.591953
C143	C	1.120443	-0.098919	0.841953
C144	C	1.370443	0.151081	1.091953
C145	C	0.620419	-0.552012	0.341938
C146	C	0.870419	-0.302012	0.591938
C147	C	1.120419	-0.052012	0.841938
C148	C	1.370419	0.197988	1.091938
N149	N	0.649158	-0.528534	0.301906
N150	N	0.899158	-0.278534	0.551906
N151	N	1.149158	-0.028534	0.801906
N152	N	1.399158	0.221466	1.051906
C153	C	0.677910	-0.551974	0.261880
C154	C	0.927910	-0.301974	0.511880
C155	C	1.177910	-0.051974	0.761880
C156	C	1.427910	0.198026	1.011880
C157	C	0.620547	-0.978961	0.341995
C158	C	0.870547	-0.728961	0.591995
C159	C	1.120547	-0.478961	0.841995
C160	C	1.370547	-0.228961	1.091995
C161	C	0.620560	-1.025879	0.342000
C162	C	0.870560	-0.775879	0.592000
C163	C	1.120560	-0.525879	0.842000
C164	C	1.370560	-0.275879	1.092000
C165	C	0.678052	-1.025841	0.261938
C166	C	0.928052	-0.775841	0.511938
C167	C	1.178052	-0.525841	0.761938
C168	C	1.428052	-0.275841	1.011938
C169	C	0.678037	-0.978922	0.261931
C170	C	0.928037	-0.728922	0.511931
C171	C	1.178037	-0.478922	0.761931
C172	C	1.428037	-0.228922	1.011931
C173	C	0.649286	-0.955483	0.301964
C174	C	0.899286	-0.705483	0.551964
C175	C	1.149286	-0.455483	0.801964
C176	C	1.399286	-0.205483	1.051964
C177	C	0.677874	-0.453448	0.261866
C178	C	0.927874	-0.203448	0.511866
C179	C	1.177874	0.046552	0.761866
C180	C	1.427874	0.296552	1.011866
C181	C	0.677854	-0.406528	0.261859
C182	C	0.927854	-0.156528	0.511859
C183	C	1.177854	0.093472	0.761859
C184	C	1.427854	0.343472	1.011859
C185	C	0.620364	-0.406571	0.341923
C186	C	0.870364	-0.156571	0.591923
C187	C	1.120364	0.093429	0.841923
C188	C	1.370364	0.343429	1.091923
C189	C	0.620382	-0.453486	0.341927
C190	C	0.870382	-0.203486	0.591927
C191	C	1.120382	0.046514	0.841927
C192	C	1.370382	0.296514	1.091927
C193	C	0.649140	-0.476924	0.301896
C194	C	0.899140	-0.226924	0.551896
C195	C	1.149140	0.023076	0.801896
C196	C	1.399140	0.273076	1.051896
O197	O	0.595970	-0.527726	0.375945
O198	O	0.845970	-0.277726	0.625945
O199	O	1.095970	-0.027726	0.875945
O200	O	1.345970	0.222274	1.125945
O201	O	0.702353	-0.527690	0.227841
O202	O	0.952353	-0.277690	0.477841
O203	O	1.202353	-0.027690	0.727841
O204	O	1.452353	0.222310	0.977841
C205	C	0.677970	-0.739638	0.261909
C206	C	0.927970	-0.489638	0.511909
C207	C	1.177970	-0.239638	0.761909
C208	C	1.427970	0.010362	1.011909
C209	C	0.649234	-0.763114	0.301944
C210	C	0.899234	-0.513114	0.551944
C211	C	1.149234	-0.263114	0.801944
C212	C	1.399234	-0.013114	1.051944
C213	C	0.620483	-0.739674	0.341970
C214	C	0.870483	-0.489674	0.591970
C215	C	1.120483	-0.239674	0.841970
C216	C	1.370483	0.010326	1.091970
C217	C	0.649247	-0.810031	0.301948
C218	C	0.899247	-0.560031	0.551948
C219	C	1.149247	-0.310031	0.801948
C220	C	1.399247	-0.060031	1.051948
C221	C	0.677998	-0.833471	0.261922
C222	C	0.927998	-0.583471	0.511922
C223	C	1.177998	-0.333471	0.761922
C224	C	1.427998	-0.083471	1.011922
C225	C	0.706737	-0.809993	0.221891
C226	C	0.956737	-0.559993	0.471891
C227	C	1.206737	-0.309993	0.721891
C228	C	1.456737	-0.059993	0.971891
C229	C	0.706721	-0.763078	0.221883
C230	C	0.956721	-0.513078	0.471883
C231	C	1.206721	-0.263078	0.721883
C232	C	1.456721	-0.013078	0.971883
C233	C	0.591744	-0.763152	0.382001
C234	C	0.841744	-0.513152	0.632001
C235	C	1.091744	-0.263152	0.882001
C236	C	1.341744	-0.013152	1.132001
C237	C	0.591762	-0.810067	0.382005
C238	C	0.841762	-0.560067	0.632005
C239	C	1.091762	-0.310067	0.882005
C240	C	1.341762	-0.060067	1.132005
C241	C	0.620513	-0.833507	0.341979
C242	C	0.870513	-0.583507	0.591979
C243	C	1.120513	-0.333507	0.841979
C244	C	1.370513	-0.083507	1.091979
C245	C	0.172906	-0.187739	0.342053
C246	C	0.422906	0.062261	0.592053
C247	C	0.672906	0.312261	0.842053
C248	C	0.922906	0.562261	1.092053
C249	C	-0.014767	-0.187742	0.342070
C250	C	0.235233	0.062258	0.592070
C251	C	0.485233	0.312258	0.842070
C252	C	0.735233	0.562258	1.092070
O253	O	-0.039007	-0.163332	0.376192
O254	O	0.210993	0.086668	0.626192
O255	O	0.460993	0.336668	0.876192
O256	O	0.710993	0.586668	1.126192
N257	N	-0.038265	-0.216432	0.301932
N258	N	0.211735	0.033568	0.551932
N259	N	0.461735	0.283568	0.801932
N260	N	0.711735	0.533568	1.051932
C261	C	-0.014841	-0.245121	0.261784
C262	C	0.235159	0.004879	0.511784
C263	C	0.485159	0.254879	0.761784
C264	C	0.735159	0.504879	1.011784
O265	O	-0.039134	-0.269520	0.227639
O266	O	0.210866	-0.019520	0.477639
O267	O	0.460866	0.230480	0.727639
O268	O	0.710866	0.480480	0.977639
C269	C	0.172831	-0.245115	0.261763
C270	C	0.422831	0.004885	0.511763
C271	C	0.672831	0.254885	0.761763
C272	C	0.922831	0.504885	1.011763
C273	C	0.196326	-0.216427	0.301909
C274	C	0.446326	0.033573	0.551909
C275	C	0.696326	0.283573	0.801909
C276	C	0.946326	0.533573	1.051909
C277	C	0.196402	-0.159053	0.382194
C278	C	0.446402	0.090947	0.632194
C279	C	0.696402	0.340947	0.882194
C280	C	0.946402	0.590947	1.132194
C281	C	0.243317	-0.159054	0.382192
C282	C	0.493317	0.090946	0.632192
C283	C	0.743317	0.340946	0.882192
C284	C	0.993317	0.590946	1.132192
C285	C	0.266737	-0.187742	0.342048
C286	C	0.516737	0.062258	0.592048
C287	C	0.766737	0.312258	0.842048
C288	C	1.016737	0.562258	1.092048
C289	C	0.243242	-0.216428	0.301906
C290	C	0.493242	0.033572	0.551906
C291	C	0.743242	0.283572	0.801906
C292	C	0.993242	0.533572	1.051906
C293	C	0.196253	-0.273801	0.221612
C294	C	0.446253	-0.023801	0.471612
C295	C	0.696253	0.226199	0.721612
C296	C	0.946253	0.476199	0.971612
C297	C	0.243174	-0.273797	0.221609
C298	C	0.493174	-0.023797	0.471609
C299	C	0.743174	0.226203	0.721609
C300	C	0.993174	0.476203	0.971609
C301	C	0.266670	-0.245108	0.261755
C302	C	0.516670	0.004892	0.511755
C303	C	0.766670	0.254892	0.761755
C304	C	1.016670	0.504892	1.011755
C305	C	0.313577	-0.245117	0.261760
C306	C	0.563577	0.004883	0.511760
C307	C	0.813577	0.254883	0.761760
C308	C	1.063577	0.504883	1.011760
N309	N	0.337075	-0.216427	0.301898
N310	N	0.587075	0.033573	0.551898
N311	N	0.837075	0.283573	0.801898
N312	N	1.087075	0.533573	1.051898
C313	C	0.313655	-0.187740	0.342042
C314	C	0.563655	0.062260	0.592042
C315	C	0.813655	0.312260	0.842042
C316	C	1.063655	0.562260	1.092042
C317	C	-0.113372	-0.245122	0.261798
C318	C	0.136628	0.004878	0.511798
C319	C	0.386628	0.254878	0.761798
C320	C	0.636628	0.504878	1.011798
C321	C	-0.160290	-0.245124	0.261804
C322	C	0.089710	0.004876	0.511804
C323	C	0.339710	0.254876	0.761804
C324	C	0.589710	0.504876	1.011804
C325	C	-0.160212	-0.187745	0.342090
C326	C	0.089788	0.062255	0.592090
C327	C	0.339788	0.312255	0.842090
C328	C	0.589788	0.562255	1.092090
C329	C	-0.113293	-0.187746	0.342087
C330	C	0.136707	0.062254	0.592087
C331	C	0.386707	0.312254	0.842087
C332	C	0.636707	0.562254	1.092087
C333	C	-0.089874	-0.216433	0.301936
C334	C	0.160126	0.033567	0.551936
C335	C	0.410126	0.283567	0.801936
C336	C	0.660126	0.533567	1.051936
C337	C	0.412181	-0.187745	0.342034
C338	C	0.662181	0.062255	0.592034
C339	C	0.912181	0.312255	0.842034
C340	C	1.162181	0.562255	1.092034
C341	C	0.459100	-0.187750	0.342030
C342	C	0.709100	0.062250	0.592030
C343	C	0.959100	0.312250	0.842030
C344	C	1.209100	0.562250	1.092030
C345	C	0.459019	-0.245127	0.261742
C346	C	0.709019	0.004873	0.511742
C347	C	0.959019	0.254873	0.761742
C348	C	1.209019	0.504873	1.011742
C349	C	0.412103	-0.245124	0.261748
C350	C	0.662103	0.004876	0.511748
C351	C	0.912103	0.254876	0.761748
C352	C	1.162103	0.504876	1.011748
C353	C	0.388685	-0.216429	0.301896
C354	C	0.638685	0.033571	0.551896
C355	C	0.888685	0.283571	0.801896
C356	C	1.138685	0.533571	1.051896
O357	O	0.337846	-0.269511	0.227651
O358	O	0.587846	-0.019511	0.477651
O359	O	0.837846	0.230489	0.727651
O360	O	1.087846	0.480489	0.977651
O361	O	0.337956	-0.163337	0.376171
O362	O	0.587956	0.086663	0.626171
O363	O	0.837956	0.336663	0.876171
O364	O	1.087956	0.586663	1.126171
C365	C	0.125991	-0.187738	0.342055
C366	C	0.375991	0.062262	0.592055
C367	C	0.625991	0.312262	0.842055
C368	C	0.875991	0.562262	1.092055
C369	C	0.102495	-0.216424	0.301913
C370	C	0.352495	0.033576	0.551913
C371	C	0.602495	0.283576	0.801913
C372	C	0.852495	0.533576	1.051913
C373	C	0.125915	-0.245112	0.261769
C374	C	0.375915	0.004888	0.511769
C375	C	0.625915	0.254888	0.761769
C376	C	0.875915	0.504888	1.011769
C377	C	0.055578	-0.216426	0.301919
C378	C	0.305578	0.033574	0.551919
C379	C	0.555578	0.283574	0.801919
C380	C	0.805578	0.533574	1.051919
C381	C	0.032157	-0.187739	0.342063
C382	C	0.282157	0.062261	0.592063
C383	C	0.532157	0.312261	0.842063
C384	C	0.782157	0.562261	1.092063
C385	C	0.055655	-0.159049	0.382202
C386	C	0.305655	0.090951	0.632202
C387	C	0.555655	0.340951	0.882202
C388	C	0.805655	0.590951	1.132202
C389	C	0.102571	-0.159050	0.382199
C390	C	0.352571	0.090950	0.632199
C391	C	0.602571	0.340950	0.882199
C392	C	0.852571	0.590950	1.132199
C393	C	0.102418	-0.273801	0.221631
C394	C	0.352418	-0.023801	0.471631
C395	C	0.602418	0.226199	0.721631
C396	C	0.852418	0.476199	0.971631
C397	C	0.055502	-0.273798	0.221637
C398	C	0.305502	-0.023798	0.471637
C399	C	0.555502	0.226202	0.721637
C400	C	0.805502	0.476202	0.971637
C401	C	0.032082	-0.245111	0.261781
C402	C	0.282082	0.004889	0.511781
C403	C	0.532082	0.254889	0.761781
C404	C	0.782082	0.504889	1.011781
C405	C	0.766356	-0.216435	0.301936
C406	C	1.016356	0.033565	0.551936
C407	C	1.266356	0.283565	0.801936
C408	C	1.516356	0.533565	1.051936
C409	C	0.816290	-0.216437	0.301948
C410	C	1.066290	0.033563	0.551948
C411	C	1.316290	0.283563	0.801948
C412	C	1.566290	0.533563	1.051948
C413	C	0.649215	-0.216422	0.465333
C414	C	0.899215	0.033578	0.715333
C415	C	1.149215	0.283578	0.965333
C416	C	1.399215	0.533578	1.215333
C417	C	0.649231	-0.216418	0.534974
C418	C	0.899231	0.033582	0.784974
C419	C	1.149231	0.283582	1.034974
C420	C	1.399231	0.533582	1.284974
C421	C	0.649271	-0.099253	0.301954
C422	C	0.899271	0.150747	0.551954
C423	C	1.149271	0.400747	0.801954
C424	C	1.399271	0.650747	1.051954
C425	C	0.649311	-0.049319	0.301973
C426	C	0.899311	0.200681	0.551973
C427	C	1.149311	0.450681	0.801973
C428	C	1.399311	0.700681	1.051973
C429	C	0.649166	-0.216408	0.139122
C430	C	0.899166	0.033592	0.389122
C431	C	1.149166	0.283592	0.639122
C432	C	1.399166	0.533592	0.889122
C433	C	0.649237	-0.216285	0.069481
C434	C	0.899237	0.033715	0.319481
C435	C	1.149237	0.283715	0.569481
C436	C	1.399237	0.533715	0.819481
C437	C	0.677986	-0.187685	0.567706
C438	C	0.927986	0.062315	0.817706
C439	C	1.177986	0.312315	1.067706
C440	C	1.427986	0.562315	1.317706
C441	C	0.677985	-0.187665	0.633141
C442	C	0.927985	0.062335	0.883141
C443	C	1.177985	0.312335	1.133141
C444	C	1.427985	0.562335	1.383141
C445	C	0.649234	-0.216388	0.665842
C446	C	0.899234	0.033612	0.915842
C447	C	1.149234	0.283612	1.165842
C448	C	1.399234	0.533612	1.415842
C449	C	0.620473	-0.245124	0.633102
C450	C	0.870473	0.004876	0.883102
C451	C	1.120473	0.254876	1.133102
C452	C	1.370473	0.504876	1.383102
C453	C	0.620472	-0.245139	0.567668
C454	C	0.870472	0.004861	0.817668
C455	C	1.120472	0.254861	1.067668
C456	C	1.370472	0.504861	1.317668
C457	C	0.645659	-0.256839	0.769506
C458	C	0.895659	-0.006839	1.019506
C459	C	1.145659	0.243161	1.269506
C460	C	1.395659	0.493161	1.519506
C461	C	0.645664	-0.256825	0.834939
C462	C	0.895664	-0.006825	1.084939
C463	C	1.145664	0.243175	1.334939
C464	C	1.395664	0.493175	1.584939
C465	C	0.649237	-0.216340	0.867663
C466	C	0.899237	0.033660	1.117663
C467	C	1.149237	0.283660	1.367663
C468	C	1.399237	0.533660	1.617663
C469	C	0.652815	-0.175870	0.834946
C470	C	0.902815	0.074130	1.084946
C471	C	1.152815	0.324130	1.334946
C472	C	1.402815	0.574130	1.584946
C473	C	0.652813	-0.175885	0.769512
C474	C	0.902813	0.074115	1.019512
C475	C	1.152813	0.324115	1.269512
C476	C	1.402813	0.574115	1.519512
C477	C	0.649233	-0.216374	0.736795
C478	C	0.899233	0.033626	0.986795
C479	C	1.149233	0.283626	1.236795
C480	C	1.399233	0.533626	1.486795
C481	C	0.677993	-0.187583	0.971347
C482	C	0.927993	0.062417	1.221347
C483	C	1.177993	0.312417	1.471347
C484	C	1.427993	0.562417	1.721347
C485	C	0.677989	-0.187563	1.036784
C486	C	0.927989	0.062437	1.286784
C487	C	1.177989	0.312437	1.536784
C488	C	1.427989	0.562437	1.786784
C489	C	0.620480	-0.245026	1.036744
C490	C	0.870480	0.004974	1.286744
C491	C	1.120480	0.254974	1.536744
C492	C	1.370480	0.504974	1.786744
C493	C	0.620481	-0.245042	0.971309
C494	C	0.870481	0.004958	1.221309
C495	C	1.120481	0.254958	1.471309
C496	C	1.370481	0.504958	1.721309
C497	C	0.649240	-0.216321	0.938614
C498	C	0.899240	0.033679	1.188614
C499	C	1.149240	0.283679	1.438614
C500	C	1.399240	0.533679	1.688614
H501	H	0.701256	-0.387416	0.229253
H502	H	0.951256	-0.137416	0.479253
H503	H	1.201256	0.112584	0.729253
H504	H	1.451256	0.362584	0.979253
F505	F	0.589865	-0.275723	0.532832
F506	F	0.839865	-0.025723	0.782832
F507	F	1.089865	0.224277	1.032832
F508	F	1.339865	0.474277	1.282832
F509	F	0.589877	-0.275626	0.936472
F510	F	0.839877	-0.025626	1.186472
F511	F	1.089877	0.224374	1.436472
F512	F	1.339877	0.474374	1.686472
F513	F	0.641860	-0.299897	0.869752
F514	F	0.891860	-0.049897	1.119752
F515	F	1.141860	0.200103	1.369752
F516	F	1.391860	0.450103	1.619752
F517	F	0.268317	-0.128519	0.424919
F518	F	0.518317	0.121481	0.674919
F519	F	0.768317	0.371481	0.924919
F520	F	1.018317	0.621481	1.174919
H521	H	0.642629	-0.289798	0.742867
H522	H	0.892629	-0.039798	0.992867
H523	H	1.142629	0.210202	1.242867
H524	H	1.392629	0.460202	1.492867
H525	H	0.478228	-0.164388	0.374723
H526	H	0.728228	0.085612	0.624723
H527	H	0.978228	0.335612	0.874723
H528	H	1.228228	0.585612	1.124723
H529	H	0.393120	-0.164377	0.374725
H530	H	0.643120	0.085623	0.624725
H531	H	0.893120	0.335623	0.874725
H532	H	1.143120	0.585623	1.124725
H533	H	-0.179416	-0.268490	0.229120
H534	H	0.070584	-0.018490	0.479120
H535	H	0.320584	0.231510	0.729120
H536	H	0.570584	0.481510	0.979120
H537	H	0.568311	-0.688422	0.414600
H538	H	0.818311	-0.438422	0.664600
H539	H	1.068311	-0.188422	0.914600
H540	H	1.318311	0.061578	1.164600
F541	F	-0.088453	-0.275654	0.219057
F542	F	0.161547	-0.025654	0.469057
F543	F	0.411547	0.224346	0.719057
F544	F	0.661547	0.474346	0.969057
H545	H	-0.094167	-0.164384	0.374776
H546	H	0.155833	0.085616	0.624776
H547	H	0.405833	0.335616	0.874776
H548	H	0.655833	0.585616	1.124776
F549	F	0.708592	-0.157116	0.532913
F550	F	0.958592	0.092884	0.782913
F551	F	1.208592	0.342884	1.032913
F552	F	1.458592	0.592884	1.282913
H553	H	0.730076	-0.603220	0.189258
H554	H	0.980076	-0.353220	0.439258
H555	H	1.230076	-0.103220	0.689258
H556	H	1.480076	0.146780	0.939258
H557	H	0.655725	-0.142932	0.742877
H558	H	0.905725	0.107068	0.992877
H559	H	1.155725	0.357068	1.242877
H560	H	1.405725	0.607068	1.492877
H561	H	0.392972	-0.268489	0.229066
H562	H	0.642972	-0.018489	0.479066
H563	H	0.892972	0.231511	0.729066
H564	H	1.142972	0.481511	0.979066
H565	H	0.596982	-0.472601	0.374531
H566	H	0.846982	-0.222601	0.624531
H567	H	1.096982	0.027399	0.874531
H568	H	1.346982	0.277399	1.124531
H569	H	0.730105	-0.688326	0.189272
H570	H	0.980105	-0.438326	0.439272
H571	H	1.230105	-0.188326	0.689272
H572	H	1.480105	0.061674	0.939272
H573	H	0.701438	-0.959811	0.229329
H574	H	0.951438	-0.709811	0.479329
H575	H	1.201438	-0.459811	0.729329
H576	H	1.451438	-0.209811	0.979329
F577	F	0.737310	-0.738099	0.179270
F578	F	0.987310	-0.488099	0.429270
F579	F	1.237310	-0.238099	0.679270
F580	F	1.487310	0.011901	0.929270
H581	H	0.568293	-0.603313	0.414593
H582	H	0.818293	-0.353313	0.664593
H583	H	1.068293	-0.103313	0.914593
H584	H	1.318293	0.146687	1.164593
H585	H	0.701463	-1.044933	0.229347
H586	H	0.951463	-0.794933	0.479347
H587	H	1.201463	-0.544933	0.729347
H588	H	1.451463	-0.294933	0.979347
H589	H	0.568331	-0.744071	0.414596
H590	H	0.818331	-0.494071	0.664596
H591	H	1.068331	-0.244071	0.914596
H592	H	1.318331	0.005929	1.164596
H593	H	0.177338	-0.135690	0.414885
H594	H	0.427338	0.114310	0.664885
H595	H	0.677338	0.364310	0.914885
H596	H	0.927338	0.614310	1.164885
H597	H	0.701400	-0.164264	0.659797
H598	H	0.951400	0.085736	0.909797
H599	H	1.201400	0.335736	1.159797
H600	H	1.451400	0.585736	1.409797
H601	H	0.730147	-0.829086	0.189298
H602	H	0.980147	-0.579086	0.439298
H603	H	1.230147	-0.329086	0.689298
H604	H	1.480147	-0.079086	0.939298
H605	H	0.701408	-0.164195	0.944726
H606	H	0.951408	0.085805	1.194726
H607	H	1.201408	0.335805	1.444726
H608	H	1.451408	0.585805	1.694726
H609	H	0.568356	-0.829177	0.414609
H610	H	0.818356	-0.579177	0.664609
H611	H	1.068356	-0.329177	0.914609
H612	H	1.318356	-0.079177	1.164609
F613	F	0.030722	-0.128519	0.424928
F614	F	0.280722	0.121481	0.674928
F615	F	0.530722	0.371481	0.924928
F616	F	0.780722	0.621481	1.174928
F617	F	-0.185145	-0.157213	0.384814
F618	F	0.064855	0.092787	0.634814
F619	F	0.314855	0.342787	0.884814
F620	F	0.564855	0.592787	1.134814
F621	F	0.171258	-0.304329	0.178873
F622	F	0.421258	-0.054329	0.428873
F623	F	0.671258	0.195671	0.678873
F624	F	0.921258	0.445671	0.928873
H625	H	0.596953	-0.387479	0.374510
H626	H	0.846953	-0.137479	0.624510
H627	H	1.096953	0.112521	0.874510
H628	H	1.346953	0.362521	1.124510
H629	H	0.701405	-0.164162	1.063433
H630	H	0.951405	0.085838	1.313433
H631	H	1.201405	0.335838	1.563433
H632	H	1.451405	0.585838	1.813433
H633	H	0.597062	-0.268508	0.659732
H634	H	0.847062	-0.018508	0.909732
H635	H	1.097062	0.231492	1.159732
H636	H	1.347062	0.481492	1.409732
H637	H	0.597065	-0.268407	1.063369
H638	H	0.847065	-0.018407	1.313369
H639	H	1.097065	0.231593	1.563369
H640	H	1.347065	0.481593	1.813369
H641	H	0.262240	-0.297157	0.188912
H642	H	0.512240	-0.047157	0.438912
H643	H	0.762240	0.202843	0.688912
H644	H	1.012240	0.452843	0.938912
H645	H	0.478096	-0.268485	0.229059
H646	H	0.728096	-0.018485	0.479059
H647	H	0.978096	0.231515	0.729059
H648	H	1.228096	0.481515	0.979059
H649	H	0.655725	-0.142903	0.861589
H650	H	0.905725	0.107097	1.111589
H651	H	1.155725	0.357097	1.361589
H652	H	1.405725	0.607097	1.611589
H653	H	0.701293	-0.472525	0.229270
H654	H	0.951293	-0.222525	0.479270
H655	H	1.201293	0.027475	0.729270
H656	H	1.451293	0.277475	0.979270
H657	H	0.597154	-1.044989	0.374597
H658	H	0.847154	-0.794989	0.624597
H659	H	1.097154	-0.544989	0.874597
H660	H	1.347154	-0.294989	1.124597
H661	H	0.121696	-0.135689	0.414889
H662	H	0.371696	0.114311	0.664889
H663	H	0.621696	0.364311	0.914889
H664	H	0.871696	0.614311	1.164889
H665	H	0.597133	-0.959880	0.374595
H666	H	0.847133	-0.709880	0.624595
H667	H	1.097133	-0.459880	0.874595
H668	H	1.347133	-0.209880	1.124595
F669	F	0.127337	-0.304332	0.178896
F670	F	0.377337	-0.054332	0.428896
F671	F	0.627337	0.195668	0.678896
F672	F	0.877337	0.445668	0.928896
F673	F	0.030502	-0.304335	0.178906
F674	F	0.280502	-0.054335	0.428906
F675	F	0.530502	0.195665	0.678906
F676	F	0.780502	0.445665	0.928906
