data_functionalizedCrystal
_audit_creation_method	'MofGen! by Chris Wilmer'
_symmetry_space_group_name_H-M	'P1'
_symmetry_Int_Tables_number	1
_symmetry_cell_setting	triclinic
loop_
_symmetry_equiv_pos_as_xyz
  x,y,z
_cell_length_a	10.686285
_cell_length_b	19.077241
_cell_length_c	19.076919
_cell_angle_alpha	90.113904
_cell_angle_beta	88.081200
_cell_angle_gamma	92.254942
loop_
_atom_site_label
_atom_site_type_symbol
_atom_site_fract_x
_atom_site_fract_y
_atom_site_fract_z
Zn1	Zn	-0.455273	-1.078598	-0.421955
Zn2	Zn	-0.656251	-1.092202	-0.296233
Zn3	Zn	-0.454612	-0.965784	-0.299760
Zn4	Zn	-0.672979	-0.970768	-0.408285
O5	O	-0.559779	-1.026838	-0.356558
O6	O	-0.475209	-1.178436	-0.409523
O7	O	-0.622226	-1.079041	-0.198668
O8	O	-0.279202	-0.972970	-0.323166
O9	O	-0.622867	-1.188431	-0.317156
O10	O	-0.279687	-1.055853	-0.412943
O11	O	-0.474083	-0.986161	-0.201259
O12	O	-0.490303	-0.868411	-0.309911
O13	O	-0.651377	-0.981464	-0.508132
O14	O	-0.650736	-0.872073	-0.389644
O15	O	-0.491429	-1.060686	-0.518175
O16	O	-0.833968	-1.083873	-0.303900
O17	O	-0.846258	-0.994656	-0.386224
C18	C	-0.572264	-0.844823	-0.348677
C19	C	-0.577636	-0.766957	-0.345321
C20	C	-0.503415	-0.725175	-0.391898
C21	C	-0.508457	-0.652012	-0.388738
C22	C	-0.587727	-0.620632	-0.339004
C23	C	-0.661951	-0.662419	-0.292422
C24	C	-0.656902	-0.735581	-0.295579
C25	C	-0.611051	-0.402379	-0.324397
C26	C	-0.616097	-0.329212	-0.321245
C27	C	-0.462601	-0.318810	-0.417560
C28	C	-0.457564	-0.391973	-0.420715
C29	C	-0.531783	-0.433754	-0.374131
N30	N	-0.592885	-0.545847	-0.335775
N31	N	-0.526618	-0.508537	-0.377357
C32	C	-0.885617	-1.041300	-0.343212
C33	C	-1.025009	-1.047550	-0.337529
C34	C	-0.232668	-1.012338	-0.369973
C35	C	-0.093273	-1.006159	-0.375689
C36	C	-0.573343	-1.020113	-0.539283
C37	C	-0.579123	-1.017248	-0.617149
C38	C	-0.547239	-0.209563	-0.364466
C39	C	-0.541876	-0.287430	-0.367822
C40	C	-0.498566	-1.057146	-0.658961
C41	C	-0.503993	-1.054445	-0.732125
C42	C	-0.589983	-1.011849	-0.763475
C43	C	-0.670544	-0.971946	-0.721658
C44	C	-0.665110	-0.974644	-0.648496
C45	C	-0.615158	-0.999353	-0.981725
C46	C	-0.620589	-0.996660	-1.054893
C47	C	-0.454035	-1.079158	-1.065355
C48	C	-0.448614	-1.081856	-0.992190
C49	C	-0.529170	-1.041950	-0.950380
N50	N	-0.595535	-1.009088	-0.838260
N51	N	-0.523611	-1.044707	-0.875597
C52	C	-0.546174	-1.033573	-0.174550
C53	C	-0.540032	-1.036558	-0.096704
H54	H	-0.671487	-0.436389	-0.286465
C55	C	-1.028172	-0.951832	-0.425705
H56	H	-0.939883	-0.954623	-0.423099
H57	H	-1.052122	-0.906100	-0.412513
H58	H	-1.052329	-0.961267	-0.472366
H59	H	-0.690616	-0.961971	-1.080415
C60	C	-1.090115	-1.101879	-0.287509
H61	H	-1.178405	-1.099094	-0.290120
H62	H	-1.065953	-1.092450	-0.240852
H63	H	-1.066168	-1.147613	-0.300708
C64	C	-0.753720	-0.930757	-0.602500
H65	H	-0.738160	-0.938459	-0.554438
H66	H	-0.838173	-0.944299	-0.611476
H67	H	-0.739472	-0.882430	-0.613203
C68	C	-0.749149	-0.627906	-0.237716
H69	H	-0.792622	-0.663270	-0.210424
H70	H	-0.807822	-0.600819	-0.260992
H71	H	-0.700792	-0.598346	-0.207970
C72	C	-0.403969	-1.103999	-0.624482
H73	H	-0.356761	-1.127367	-0.659865
H74	H	-0.447720	-1.137703	-0.595296
H75	H	-0.349042	-1.075823	-0.597024
C76	C	-0.370375	-0.426490	-0.475424
H77	H	-0.378010	-0.476047	-0.470639
H78	H	-0.286152	-0.411129	-0.468191
H79	H	-0.393199	-0.413596	-0.521203
C80	C	-0.415386	-1.098337	-0.778115
H81	H	-0.363407	-1.124099	-0.748965
H82	H	-0.364694	-1.068068	-0.807734
H83	H	-0.463398	-1.129936	-0.806010
C84	C	-0.354025	-1.128712	-0.957710
H85	H	-0.306819	-1.152085	-0.993091
H86	H	-0.397791	-1.162413	-0.928526
H87	H	-0.299094	-1.100542	-0.930248
C88	C	-0.365423	-1.123045	-1.111347
H89	H	-0.380964	-1.115335	-1.159410
H90	H	-0.379654	-1.171370	-1.100646
H91	H	-0.280970	-1.109492	-1.102367
C92	C	-0.703742	-0.955443	-0.935743
H93	H	-0.755730	-0.929689	-0.964895
H94	H	-0.655714	-0.923848	-0.907858
H95	H	-0.754446	-0.985702	-0.906113
H96	H	-0.402174	-0.284784	-0.455486
C97	C	-0.765133	-0.925092	-0.756141
H98	H	-0.756842	-0.929204	-0.805702
H99	H	-0.749119	-0.877650	-0.742864
H100	H	-0.847805	-0.939527	-0.741138
C101	C	-0.703289	-0.294691	-0.266533
H102	H	-0.695673	-0.245135	-0.271332
H103	H	-0.680479	-0.307579	-0.220754
H104	H	-0.787515	-0.310056	-0.273772
C105	C	-0.416217	-0.759687	-0.446605
H106	H	-0.372728	-0.724322	-0.473888
H107	H	-0.464564	-0.789248	-0.476350
H108	H	-0.357539	-0.786773	-0.423325
H109	H	-0.448020	-0.617996	-0.426667
H110	H	-0.717340	-0.769599	-0.257651
