data_functionalizedCrystal
_audit_creation_method	'MofGen! by Chris Wilmer'
_symmetry_space_group_name_H-M	'P1'
_symmetry_Int_Tables_number	1
_symmetry_cell_setting	triclinic
loop_
_symmetry_equiv_pos_as_xyz
  x,y,z
_cell_length_a	17.699077
_cell_length_b	14.519731
_cell_length_c	16.776229
_cell_angle_alpha	90.008389
_cell_angle_beta	90.000648
_cell_angle_gamma	83.484715
loop_
_atom_site_label
_atom_site_type_symbol
_atom_site_fract_x
_atom_site_fract_y
_atom_site_fract_z
O1	O	1.004416	0.116599	0.066279
O2	O	1.504416	0.616599	0.566279
O3	O	0.784081	0.131778	0.066284
O4	O	1.284081	0.631778	0.566284
O5	O	0.900082	-0.010074	0.066274
O6	O	1.400082	0.489926	0.566274
O7	O	0.888415	0.258450	0.066289
O8	O	1.388415	0.758450	0.566289
O9	O	0.900080	-0.010086	-0.066302
O10	O	1.400080	0.489914	0.433698
O11	O	0.784079	0.131765	-0.066293
O12	O	1.284079	0.631765	0.433707
O13	O	1.004414	0.116586	-0.066297
O14	O	1.504414	0.616586	0.433703
Zn15	Zn	0.894246	0.124174	-0.087344
Zn16	Zn	1.394246	0.624174	0.412656
Zn17	Zn	0.894249	0.124190	0.087331
Zn18	Zn	1.394249	0.624190	0.587331
O19	O	0.888413	0.258438	-0.066288
O20	O	1.388413	0.758438	0.433712
C21	C	0.755881	0.131228	-0.000004
C22	C	1.255881	0.631228	0.499996
C23	C	0.671858	0.129599	-0.000003
C24	C	1.171858	0.629599	0.499997
C25	C	0.632388	0.128825	-0.072271
C26	C	1.132388	0.628825	0.427729
C27	C	0.553441	0.127280	-0.072272
C28	C	1.053441	0.627280	0.427728
C29	C	0.513965	0.126516	-0.000004
C30	C	1.013965	0.626516	0.499996
C31	C	0.553442	0.127287	0.072270
C32	C	1.053442	0.627287	0.572270
C33	C	0.632388	0.128826	0.072270
C34	C	1.132388	0.628826	0.572270
C35	C	0.235060	0.121081	0.072271
C36	C	0.735060	0.621081	0.572271
C37	C	0.156108	0.119545	0.072265
C38	C	0.656108	0.619545	0.572265
C39	C	0.156113	0.119535	-0.072271
C40	C	0.656113	0.619535	0.427729
C41	C	0.235059	0.121074	-0.072271
C42	C	0.735059	0.621074	0.427729
C43	C	0.274529	0.121840	0.000002
C44	C	0.774529	0.621840	0.500002
C45	C	0.360133	0.123514	0.000003
C46	C	0.860133	0.623514	0.500003
C47	C	0.428362	0.124849	-0.000003
C48	C	0.928362	0.624849	0.499997
C49	C	0.899534	-0.044437	-0.000014
C50	C	1.399534	0.455563	0.499986
C51	C	0.897896	-0.146811	-0.000015
C52	C	1.397896	0.353189	0.499985
C53	C	0.896565	-0.229949	-0.000013
C54	C	1.396565	0.270051	0.499987
C55	C	0.894902	-0.334251	-0.000007
C56	C	1.394902	0.165749	0.499993
C57	C	0.893582	-0.417384	-0.000002
C58	C	1.393582	0.082616	0.499998
C59	C	0.891919	-0.521692	0.000003
C60	C	1.391919	-0.021692	0.500003
C61	C	1.032613	0.117136	-0.000008
C62	C	1.532613	0.617136	0.499992
C63	C	1.116636	0.118764	-0.000004
C64	C	1.616636	0.618764	0.499996
C65	C	0.888961	0.292801	0.000002
C66	C	1.388961	0.792801	0.500002
C67	C	0.890599	0.395174	0.000008
C68	C	1.390599	0.895174	0.500008
N69	N	0.894251	0.124195	0.206542
N70	N	1.394251	0.624195	0.706542
N71	N	0.894250	0.124162	-0.206556
N72	N	1.394250	0.624162	0.293444
C73	C	0.945712	0.061506	0.248255
C74	C	1.445712	0.561506	0.748255
C75	C	0.945715	0.061504	0.331707
C76	C	1.445715	0.561504	0.831707
C77	C	0.894253	0.124186	0.373445
C78	C	1.394253	0.624186	0.873445
C79	C	0.842789	0.186882	0.331726
C80	C	1.342789	0.686882	0.831726
C81	C	0.842791	0.186888	0.248275
C82	C	1.342791	0.686888	0.748275
C83	C	0.842783	0.186859	0.668273
C84	C	1.342783	0.686859	1.168273
C85	C	0.842785	0.186847	0.751730
C86	C	1.342785	0.686847	1.251730
C87	C	0.945708	0.061476	0.751705
C88	C	1.445708	0.561476	1.251705
C89	C	0.945709	0.061482	0.668254
C90	C	1.445709	0.561482	1.168254
C91	C	0.894249	0.124180	0.626543
C92	C	1.394249	0.624180	1.126543
C93	C	0.894247	0.124183	0.536055
C94	C	1.394247	0.624183	1.036055
C95	C	0.894250	0.124180	0.463932
C96	C	1.394250	0.624180	0.963932
H97	H	0.521309	0.126634	-0.131120
H98	H	1.021309	0.626634	0.368880
C99	C	0.665098	0.050036	-0.195470
C100	C	1.165098	0.550036	0.304530
C101	C	0.675778	0.129661	-0.151711
C102	C	1.175778	0.629661	0.348289
H103	H	0.691889	0.050548	-0.244512
H104	H	1.191889	0.550548	0.255488
H105	H	0.612437	0.049016	-0.205811
H106	H	1.112437	0.549016	0.294189
H107	H	0.683738	-0.003459	-0.165768
H108	H	1.183738	0.496541	0.334232
H109	H	0.657133	0.183156	-0.181411
H110	H	1.157133	0.683156	0.318589
H111	H	0.728450	0.130690	-0.141372
H112	H	1.228450	0.630690	0.358628
C113	C	0.456262	0.204817	0.156126
C114	C	0.956262	0.704817	0.656126
C115	C	0.510051	0.126451	0.151710
C116	C	1.010051	0.626451	0.651710
H117	H	0.429480	0.204304	0.205172
H118	H	0.929480	0.704304	0.705172
H119	H	0.421460	0.204128	0.113090
H120	H	0.921460	0.704128	0.613090
H121	H	0.481373	0.259166	0.153124
H122	H	0.981373	0.759166	0.653124
H123	H	0.484940	0.072101	0.154706
H124	H	0.984940	0.572101	0.654706
H125	H	0.544858	0.127131	0.194757
H126	H	1.044858	0.627131	0.694757
C127	C	1.047443	-0.062434	0.323301
C128	C	1.547443	0.437566	0.823301
C129	C	1.002279	-0.007411	0.377558
C130	C	1.502279	0.492589	0.877558
H131	H	1.082360	-0.104984	0.351608
H132	H	1.582360	0.395016	0.851608
H133	H	1.074655	-0.024018	0.290761
H134	H	1.574655	0.475982	0.790761
H135	H	1.015940	-0.095629	0.290744
H136	H	1.515940	0.404371	0.790744
H137	H	1.033781	0.025790	0.410111
H138	H	1.533781	0.525790	0.910111
H139	H	0.975064	-0.045832	0.410111
H140	H	1.475064	0.454168	0.910111
H141	H	0.800876	0.237894	0.785711
H142	H	1.300876	0.737894	1.285711
H143	H	0.123967	0.118907	-0.131120
H144	H	0.623967	0.618907	0.368880
C145	C	0.315442	0.202041	-0.156123
C146	C	0.815442	0.702041	0.343877
C147	C	0.278450	0.121911	-0.151710
C148	C	0.778450	0.621911	0.348290
H149	H	0.342225	0.202555	-0.205169
H150	H	0.842225	0.702555	0.294831
H151	H	0.350245	0.202718	-0.113087
H152	H	0.850245	0.702718	0.386913
H153	H	0.278939	0.255193	-0.153119
H154	H	0.778939	0.755193	0.346881
H155	H	0.314954	0.068758	-0.154708
H156	H	0.814954	0.568758	0.345292
H157	H	0.243644	0.121226	-0.194758
H158	H	0.743644	0.621226	0.305242
H159	H	0.800887	0.237936	0.214314
H160	H	1.300887	0.737936	0.714314
C161	C	0.164031	0.119689	0.215147
C162	C	0.664031	0.619689	0.715147
C163	C	0.112715	0.118697	0.151709
C164	C	0.612715	0.618697	0.651709
H165	H	0.137241	0.119161	0.264187
H166	H	0.637241	0.619161	0.764187
H167	H	0.189124	0.174042	0.212152
H168	H	0.689124	0.674042	0.712152
H169	H	0.200522	0.066526	0.212129
H170	H	0.700522	0.566526	0.712129
H171	H	0.076227	0.171864	0.154723
H172	H	0.576227	0.671864	0.654723
H173	H	0.087610	0.064338	0.154705
H174	H	0.587610	0.564338	0.654705
C175	C	0.315431	0.202063	0.156135
C176	C	0.815431	0.702063	0.656135
C177	C	0.278436	0.121935	0.151714
C178	C	0.778436	0.621935	0.651714
H179	H	0.342214	0.202586	0.205181
H180	H	0.842214	0.702586	0.705181
H181	H	0.278936	0.255210	0.153131
H182	H	0.778936	0.755210	0.653131
H183	H	0.350242	0.202724	0.113096
H184	H	0.850242	0.702724	0.613096
H185	H	0.243621	0.121277	0.194750
H186	H	0.743621	0.621277	0.694750
H187	H	0.314936	0.068773	0.154725
H188	H	0.814936	0.568773	0.654725
H189	H	0.664524	0.129458	0.131118
H190	H	1.164524	0.629458	0.631118
H191	H	0.987612	0.010426	0.785675
H192	H	1.487612	0.510426	1.285675
H193	H	0.987615	0.010459	0.214278
H194	H	1.487615	0.510459	0.714278
C195	C	1.047455	-0.062440	0.676614
C196	C	1.547455	0.437560	1.176614
C197	C	1.002281	-0.007417	0.622377
C198	C	1.502281	0.492583	1.122377
H199	H	1.082385	-0.104969	0.648290
H200	H	1.582385	0.395031	1.148290
H201	H	1.015966	-0.095649	0.709152
H202	H	1.515966	0.404351	1.209152
H203	H	1.074661	-0.024014	0.709174
H204	H	1.574661	0.475986	1.209174
H205	H	0.975070	-0.045843	0.589821
H206	H	1.475070	0.454157	1.089821
H207	H	1.033774	0.025794	0.589826
H208	H	1.533774	0.525794	1.089826
H209	H	0.800881	0.237908	0.634318
H210	H	1.300881	0.737908	1.134318
C211	C	0.797078	0.242535	0.459659
C212	C	1.297078	0.742535	0.959659
C213	C	0.786218	0.255781	0.377603
C214	C	1.286218	0.755781	0.877603
H215	H	0.762147	0.285067	0.487979
H216	H	1.262147	0.785067	0.987979
H217	H	0.847568	0.252594	0.473337
H218	H	1.347568	0.752594	0.973337
H219	H	0.788872	0.180961	0.473313
H220	H	1.288872	0.680961	0.973313
H221	H	0.794430	0.317354	0.363948
H222	H	1.294430	0.817354	0.863948
H223	H	0.735716	0.245729	0.363919
H224	H	1.235716	0.745729	0.863919
