data_functionalizedCrystal
_audit_creation_method	'MofGen! by Chris Wilmer'
_symmetry_space_group_name_H-M	'P1'
_symmetry_Int_Tables_number	1
_symmetry_cell_setting	triclinic
loop_
_symmetry_equiv_pos_as_xyz
  x,y,z
_cell_length_a	19.288840
_cell_length_b	10.489716
_cell_length_c	17.766277
_cell_angle_alpha	89.997726
_cell_angle_beta	89.983415
_cell_angle_gamma	83.827576
loop_
_atom_site_label
_atom_site_type_symbol
_atom_site_fract_x
_atom_site_fract_y
_atom_site_fract_z
O1	O	0.922422	0.158959	-0.062714
O2	O	1.422422	0.658959	0.437286
O3	O	0.720303	0.180457	-0.062687
O4	O	1.220303	0.680457	0.437313
O5	O	0.825971	-0.015997	-0.062703
O6	O	1.325971	0.484003	0.437297
O7	O	0.816754	0.355413	-0.062697
O8	O	1.316754	0.855413	0.437303
O9	O	0.825952	-0.016007	0.062485
O10	O	1.325952	0.483993	0.562485
O11	O	0.720284	0.180447	0.062502
O12	O	1.220284	0.680447	0.562502
O13	O	0.922404	0.158950	0.062475
O14	O	1.422404	0.658950	0.562475
Cu15	Cu	0.821342	0.169697	0.073919
Cu16	Cu	1.321342	0.669697	0.573919
Cu17	Cu	0.821364	0.169709	-0.074131
Cu18	Cu	1.321364	0.669709	0.425869
O19	O	0.816736	0.355403	0.062492
O20	O	1.316736	0.855403	0.562492
C21	C	0.694412	0.179765	-0.000089
C22	C	1.194412	0.679765	0.499911
C23	C	0.617294	0.177705	-0.000079
C24	C	1.117294	0.677705	0.499921
C25	C	0.581094	0.176721	-0.068321
C26	C	1.081094	0.676721	0.431679
C27	C	0.508634	0.174770	-0.068330
C28	C	1.008634	0.674770	0.431670
C29	C	0.472378	0.173779	-0.000094
C30	C	0.972378	0.673779	0.499906
C31	C	0.508586	0.174771	0.068158
C32	C	1.008586	0.674771	0.568158
C33	C	0.581044	0.176734	0.068165
C34	C	1.081044	0.676734	0.568165
C35	C	0.362525	0.095957	0.052174
C36	C	0.862525	0.595957	0.552174
C37	C	0.290069	0.093986	0.052163
C38	C	0.790069	0.593986	0.552163
C39	C	0.248894	0.167730	-0.000113
C40	C	0.748894	0.667730	0.499887
C41	C	0.280186	0.243428	-0.052393
C42	C	0.780186	0.743428	0.447607
C43	C	0.352643	0.245391	-0.052385
C44	C	0.852643	0.745391	0.447615
C45	C	0.393810	0.171651	-0.000094
C46	C	0.893810	0.671651	0.499906
C47	C	0.134125	0.164633	-0.068370
C48	C	0.634125	0.664633	0.431630
C49	C	0.061663	0.162690	-0.068377
C50	C	0.561663	0.662690	0.431623
C51	C	0.061618	0.162678	0.068113
C52	C	0.561618	0.662678	0.568113
C53	C	0.134078	0.164633	0.068118
C54	C	0.634078	0.664633	0.568118
C55	C	0.170327	0.165604	-0.000126
C56	C	0.670327	0.665604	0.499874
C57	C	0.825269	-0.063518	-0.000111
C58	C	1.325269	0.436482	0.499889
C59	C	0.823197	-0.205102	-0.000118
C60	C	1.323197	0.294898	0.499882
C61	C	0.887996	-0.304252	-0.000120
C62	C	1.387996	0.195748	0.499880
C63	C	0.853764	-0.380828	-0.061838
C64	C	1.353764	0.119172	0.438162
C65	C	0.853730	-0.380801	0.061588
C66	C	1.353730	0.119199	0.561588
C67	C	0.788992	-0.279813	-0.061887
C68	C	1.288992	0.220187	0.438113
C69	C	0.788968	-0.279781	0.061595
C70	C	1.288968	0.220219	0.561595
C71	C	0.754689	-0.356307	-0.000138
C72	C	1.254689	0.143693	0.499862
C73	C	0.948294	0.159641	-0.000124
C74	C	1.448294	0.659641	0.499876
C75	C	1.025413	0.161701	-0.000139
C76	C	1.525413	0.661701	0.499861
C77	C	0.817438	0.402924	-0.000102
C78	C	1.317438	0.902924	0.499898
C79	C	0.819509	0.544508	-0.000100
C80	C	1.319509	1.044508	0.499900
N81	N	0.821331	0.169688	0.178050
N82	N	1.321331	0.669688	0.678050
N83	N	0.821380	0.169708	-0.178261
N84	N	1.321380	0.669708	0.321739
C85	C	0.868137	0.082741	0.217429
C86	C	1.368137	0.582741	0.717429
C87	C	0.868141	0.082735	0.296231
C88	C	1.368141	0.582735	0.796231
C89	C	0.821346	0.169698	0.335650
C90	C	1.321346	0.669698	0.835650
C91	C	0.774532	0.256652	0.296261
C92	C	1.274532	0.756652	0.796261
C93	C	0.774525	0.256647	0.217461
C94	C	1.274525	0.756647	0.717461
C95	C	0.812821	0.285914	0.460491
C96	C	1.312821	0.785914	0.960491
C97	C	0.812833	0.285921	0.539290
C98	C	1.312833	0.785921	1.039290
C99	C	0.821365	0.169714	0.578696
C100	C	1.321365	0.669714	1.078696
C101	C	0.829899	0.053495	0.539295
C102	C	1.329899	0.553495	1.039295
C103	C	0.829892	0.053490	0.460494
C104	C	1.329892	0.553490	0.960494
C105	C	0.821349	0.169713	0.421096
C106	C	1.321349	0.669713	0.921096
C107	C	0.868177	0.082753	0.703522
C108	C	1.368177	0.582753	1.203522
C109	C	0.868176	0.082745	0.782325
C110	C	1.368176	0.582745	1.282325
C111	C	0.774571	0.256673	0.782354
C112	C	1.274571	0.756673	1.282354
C113	C	0.774568	0.256670	0.703552
C114	C	1.274568	0.756670	1.203552
C115	C	0.821375	0.169711	0.664141
C116	C	1.321375	0.669711	1.164141
H117	H	0.479154	0.173971	-0.123903
H118	H	0.979154	0.673971	0.376097
H119	H	0.944360	-0.280859	-0.000190
H120	H	1.444360	0.219141	0.499810
F121	F	0.172606	0.165674	0.140751
F122	F	0.672606	0.665674	0.640751
F123	F	0.889490	-0.438440	0.129788
F124	F	1.389490	0.061560	0.629788
H125	H	0.264598	0.032342	0.094729
H126	H	0.764598	0.532342	0.594729
F127	F	0.803791	0.409608	0.418559
F128	F	1.303791	0.909608	0.918559
H129	H	0.906288	0.011942	0.671432
H130	H	1.406288	0.511942	1.171432
H131	H	0.761661	-0.235882	-0.114123
H132	H	1.261661	0.264118	0.385877
F133	F	0.724706	0.349192	0.175548
F134	F	1.224706	0.849192	0.675548
F135	F	0.889527	-0.438491	-0.130049
F136	F	1.389527	0.061509	0.369951
H137	H	0.479062	0.173966	0.123716
H138	H	0.979062	0.673966	0.623716
H139	H	0.736430	0.327457	0.328360
H140	H	1.236430	0.827457	0.828360
F141	F	0.172706	0.165676	-0.141000
F142	F	0.672706	0.665676	0.359000
F143	F	0.838984	-0.070191	0.581227
F144	F	1.338984	0.429809	1.081227
F145	F	0.680962	-0.386564	-0.000170
F146	F	1.180962	0.113436	0.499830
H147	H	0.032099	0.161879	0.123673
H148	H	0.532099	0.661879	0.623673
H149	H	0.761630	-0.235645	0.113783
H150	H	1.261630	0.264355	0.613783
F151	F	0.724755	0.349217	0.661638
F152	F	1.224755	0.849217	1.161638
H153	H	0.906248	0.011931	0.185343
H154	H	1.406248	0.511931	0.685343
H155	H	0.906256	0.011930	0.328299
H156	H	1.406256	0.511930	0.828299
F157	F	0.838968	-0.070195	0.418563
F158	F	1.338968	0.429805	0.918563
F159	F	0.406339	0.017465	0.107819
F160	F	0.906339	0.517465	0.607819
F161	F	0.917991	-0.009807	0.824237
F162	F	1.417991	0.490193	1.324237
F163	F	0.724764	0.349218	0.824303
F164	F	1.224764	0.849218	1.324303
F165	F	0.023136	0.161653	-0.141014
F166	F	0.523136	0.661653	0.358986
F167	F	0.619572	0.177781	0.140801
F168	F	1.119572	0.677781	0.640801
H169	H	0.610604	0.177511	-0.123891
H170	H	1.110604	0.677511	0.376109
F171	F	0.236370	0.321923	-0.108032
F172	F	0.736370	0.821923	0.391968
F173	F	0.385943	0.325956	-0.108021
F174	F	0.885943	0.825956	0.391979
F175	F	0.803755	0.409609	0.581217
F176	F	1.303755	0.909609	1.081217
