data_functionalizedCrystal
_audit_creation_method	'MofGen! by Chris Wilmer'
_symmetry_space_group_name_H-M	'P1'
_symmetry_Int_Tables_number	1
_symmetry_cell_setting	triclinic
loop_
_symmetry_equiv_pos_as_xyz
  x,y,z
_cell_length_a	19.902436
_cell_length_b	20.875641
_cell_length_c	20.875641
_cell_angle_alpha	60.089808
_cell_angle_beta	90.002930
_cell_angle_gamma	62.436880
loop_
_atom_site_label
_atom_site_type_symbol
_atom_site_fract_x
_atom_site_fract_y
_atom_site_fract_z
Zr1	Zr	0.678075	0.694275	-0.105717
O2	O	0.579604	0.820525	-0.208989
O3	O	0.704577	0.563017	-0.070784
O4	O	0.714473	0.687039	-0.204255
O5	O	0.566093	0.703957	0.026041
O6	O	0.825051	0.687027	-0.204246
O7	O	0.569708	0.696503	-0.075518
O8	O	0.807349	0.465174	0.034510
O9	O	0.583795	0.925810	-0.212715
O10	O	0.802854	0.618851	-0.059835
O11	O	0.717634	0.624422	0.015950
O12	O	0.729284	0.770442	-0.141195
O13	O	0.644064	0.776014	-0.065409
Zr14	Zr	0.848669	0.706144	0.056271
Zr15	Zr	0.854434	0.694256	-0.105703
Zr16	Zr	0.672310	0.706163	0.056257
Zr17	Zr	0.684759	0.862192	-0.111659
Zr18	Zr	0.841985	0.538227	0.062213
O19	O	0.822166	0.837402	0.021338
O20	O	0.830364	0.820499	-0.208969
O21	O	0.571406	0.837429	0.021318
O22	O	0.947140	0.579893	0.159543
O23	O	0.955337	0.562990	-0.070764
O24	O	0.696380	0.579920	0.159523
O25	O	0.960650	0.696461	-0.075487
O26	O	0.812271	0.713380	0.154809
O27	O	0.701693	0.713391	0.154800
O28	O	0.957035	0.703915	0.026072
O29	O	0.723977	0.925795	-0.212704
O30	O	0.802767	0.474623	0.163258
O31	O	0.942949	0.474608	0.163269
O32	O	0.947531	0.465159	0.034521
O33	O	0.579212	0.935259	-0.083967
O34	O	0.719394	0.935244	-0.083956
O35	O	0.797459	0.629976	0.091749
O36	O	0.882680	0.624405	0.015963
O37	O	0.809110	0.775996	-0.065396
O38	O	0.723889	0.781568	0.010389
C39	C	0.755011	0.490171	-0.017290
C40	C	0.752173	0.418886	-0.014768
C41	C	0.542773	0.700233	-0.024740
C42	C	0.467904	0.700241	-0.024746
C43	C	0.795322	0.382487	-0.053142
C44	C	0.792658	0.315503	-0.050765
C45	C	0.746839	0.284923	-0.010017
C46	C	0.703689	0.321324	0.028362
C47	C	0.706358	0.388303	0.025989
C48	C	0.734089	0.084913	0.001328
C49	C	0.731421	0.017931	0.003696
C50	C	0.820392	0.012114	-0.075430
C51	C	0.823053	0.079098	-0.077803
C52	C	0.779906	0.115490	-0.039421
N53	N	0.744112	0.216456	-0.007588
N54	N	0.782638	0.183951	-0.041846
C55	C	0.195900	0.700198	-0.024715
C56	C	0.177972	0.795842	-0.075809
C57	C	0.255822	0.795885	-0.076076
C58	C	0.330844	0.700220	-0.024731
C59	C	0.327714	0.648428	-0.057854
C60	C	0.249524	0.649036	-0.058229
C61	C	0.246241	0.655639	0.059549
C62	C	0.323241	0.657493	0.059356
C63	C	0.407111	0.700227	-0.024739
C64	C	0.119634	0.700188	-0.024710
C65	C	0.983970	0.700186	-0.024706
C66	C	1.058839	0.700178	-0.024700
C67	C	0.770583	0.685339	-0.227329
C68	C	0.773030	0.680292	-0.296091
C69	C	0.771733	0.910248	-0.032156
C70	C	0.774570	0.981533	-0.034678
C71	C	0.735779	0.757049	-0.370865
C72	C	0.738089	0.752302	-0.435472
C73	C	0.777646	0.670797	-0.425303
C74	C	0.814903	0.594035	-0.350522
C75	C	0.812597	0.598783	-0.285917
C76	C	0.788664	0.648112	-0.613968
C77	C	0.790965	0.643370	-0.678581
C78	C	0.714152	0.801637	-0.763527
C79	C	0.711846	0.806377	-0.698916
C80	C	0.749106	0.729616	-0.624141
N81	N	0.780006	0.665943	-0.491341
N82	N	0.746750	0.734471	-0.558105
C83	C	0.756160	0.715079	0.177883
C84	C	0.753713	0.720126	0.246645
C85	C	0.975609	0.490147	-0.017273
C86	C	1.047641	0.418854	-0.014745
C87	C	0.747800	0.505041	0.185315
C88	C	0.742514	0.438802	0.256600
C89	C	0.968398	0.505017	0.185333
C90	C	1.037982	0.438771	0.256623
C91	C	0.558346	0.895401	-0.234778
C92	C	0.488762	0.961648	-0.306069
C93	C	0.551134	0.910271	-0.032173
C94	C	0.479103	0.981564	-0.034701
C95	C	0.778944	0.895378	-0.234761
C96	C	0.784229	0.961616	-0.306046
C97	C	1.039800	0.382474	-0.053130
C98	C	1.107475	0.315495	-0.050770
C99	C	1.182990	0.284892	-0.010019
C100	C	1.190830	0.321279	0.028367
C101	C	1.123156	0.388261	0.026002
C102	C	0.781700	0.410596	0.329649
C103	C	0.776731	0.348368	0.396635
C104	C	0.732581	0.314343	0.390570
C105	C	0.693390	0.342555	0.317513
C106	C	0.698355	0.404787	0.250529
C107	C	1.115151	0.404753	0.250543
C108	C	1.180540	0.342516	0.317522
C109	C	1.168758	0.314294	0.390581
C110	C	1.091581	0.348319	0.396659
C111	C	1.026194	0.410559	0.329681
C112	C	0.411593	0.995674	-0.299989
C113	C	0.346205	1.057931	-0.366969
C114	C	0.357987	1.086157	-0.440028
C115	C	0.435164	1.052128	-0.446106
C116	C	0.500550	0.989876	-0.379128
C117	C	0.486944	1.017950	0.003677
C118	C	0.419270	1.084947	0.001299
C119	C	0.343755	1.115552	-0.039455
C120	C	0.335915	1.079163	-0.077838
C121	C	0.403589	1.012172	-0.075463
C122	C	0.828386	0.995622	-0.299956
C123	C	0.833368	1.057851	-0.366930
C124	C	0.794187	1.086079	-0.439992
C125	C	0.750028	1.052067	-0.446081
C126	C	0.745052	0.989834	-0.379108
H127	H	0.832629	0.407385	-0.086327
H128	H	1.129551	0.417873	0.057265
N129	N	0.828828	0.565321	-0.533326
H130	H	0.821367	0.580689	-0.493938
H131	H	0.887432	0.529921	-0.526059
H132	H	0.304738	1.136846	-0.494560
H133	H	0.666387	0.296416	0.061544
H134	H	0.709091	0.962153	-0.384077
N135	N	0.583784	0.953166	-0.385684
H136	H	0.593428	1.002169	-0.416033
H137	H	0.590213	0.923280	-0.413225
H138	H	0.707756	0.814805	-0.496354
H139	H	0.827793	0.285867	-0.082011
N140	N	0.205820	0.689491	-0.140259
H141	H	0.151982	0.743039	-0.157190
H142	H	0.198826	0.645723	-0.142658
H143	H	0.666447	0.427744	0.191052
H144	H	0.657443	0.314843	0.312586
N145	N	0.829324	0.447284	0.336202
H146	H	0.853388	0.419968	0.392648
H147	H	0.793340	0.512685	0.308733
N148	N	0.872468	0.112084	-0.121757
H149	H	0.899399	0.078861	-0.145707
H150	H	0.914019	0.103092	-0.085018
H151	H	0.823176	0.576996	-0.670293
N152	N	1.127870	0.435176	0.171750
H153	H	1.186683	0.404175	0.178073
H154	H	1.104248	0.500323	0.140833
H155	H	1.238089	0.230350	-0.008099
H156	H	1.243375	0.314819	0.312559
H157	H	0.332765	0.678209	-0.119176
H158	H	0.698959	0.114533	0.032585
N159	N	0.857575	0.506125	-0.339550
H160	H	0.853383	0.514763	-0.391823
H161	H	0.832515	0.472402	-0.309712
N162	N	0.269778	0.555847	-0.011878
H163	H	0.329413	0.514555	0.008704
H164	H	0.246696	0.545437	-0.046221
H165	H	0.380450	0.577929	-0.022281
N166	N	0.669188	0.894287	-0.709888
H167	H	0.673379	0.885647	-0.657614
H168	H	0.611390	0.928018	-0.739733
N169	N	1.099005	0.276249	-0.092163
H170	H	1.153331	0.229174	-0.084489
H171	H	1.071890	0.323351	-0.149301
N172	N	0.568388	0.984950	0.047635
H173	H	0.563075	1.018177	0.071579
H174	H	0.601206	0.993935	0.010895
N175	N	0.707766	1.082524	-0.524888
H176	H	0.679034	1.051542	-0.518592
H177	H	0.747876	1.068768	-0.552998
H178	H	0.444748	1.075117	-0.505599
H179	H	0.283370	1.085628	-0.362004
H180	H	0.425669	1.114564	0.032558
H181	H	0.210155	0.689500	0.087551
N182	N	0.270769	1.187794	-0.041996
H183	H	0.221736	1.201663	-0.073633
H184	H	0.273827	1.241670	-0.066454
H185	H	0.798245	1.136753	-0.494520
H186	H	0.963361	0.438249	0.334643
N187	N	0.323415	0.707564	0.092183
H188	H	0.318513	0.679777	0.146271
H189	H	0.277121	0.770114	0.058164
N190	N	1.272281	0.288268	0.072317
H191	H	1.313955	0.240313	0.067989
H192	H	1.275730	0.264578	0.128630
H193	H	0.860293	0.972649	-0.240471
H194	H	1.081999	0.325331	0.456153
N195	N	0.819019	0.317934	0.475424
H196	H	0.809178	0.273349	0.516944
H197	H	0.798234	0.369533	0.479591
H198	H	0.274422	1.104092	-0.111018
H199	H	0.401984	0.972696	-0.240507
N200	N	1.239282	0.247150	0.462822
H201	H	1.239147	0.272731	0.493103
H202	H	1.289918	0.229901	0.447821
N203	N	0.395125	0.972929	-0.116859
H204	H	0.337016	1.002487	-0.143033
H205	H	0.418458	0.908358	-0.078152
N206	N	0.852780	0.515997	-0.205265
H207	H	0.878189	0.463643	-0.208625
H208	H	0.812069	0.514521	-0.176611
H209	H	0.728545	0.263670	0.445119
N210	N	0.659824	0.427560	0.067383
H211	H	0.630392	0.398025	0.093556
H212	H	0.620488	0.492135	0.028675
N213	N	0.393720	0.565386	0.113672
H214	H	0.431746	0.549980	0.084409
H215	H	0.374870	0.523480	0.135643
N216	N	0.267108	0.562363	0.110161
H217	H	0.244084	0.548999	0.078703
H218	H	0.244429	0.554238	0.154965
N219	N	0.880999	1.094523	-0.360345
H220	H	0.858484	1.124410	-0.332792
H221	H	0.878204	1.138190	-0.413876
N222	N	0.866924	-0.027135	-0.116828
H223	H	0.858282	-0.074205	-0.109144
H224	H	0.925323	-0.053357	-0.095071
H225	H	0.694107	-0.006964	0.036878
N226	N	0.255222	0.849296	-0.046885
H227	H	0.204265	0.873028	-0.033732
H228	H	0.259015	0.899422	-0.088370
H229	H	0.139527	0.836461	-0.053920
H230	H	0.141754	0.830123	-0.137650
H231	H	0.703561	0.823418	-0.379153
N232	N	0.258391	0.841458	-0.158481
H233	H	0.208899	0.861593	-0.194774
H234	H	0.306796	0.799604	-0.163729
H235	H	0.683818	0.864132	-0.824414
H236	H	0.978318	0.407389	-0.086324
