data_functionalizedCrystal
_audit_creation_method	'MofGen! by Chris Wilmer'
_symmetry_space_group_name_H-M	'P1'
_symmetry_Int_Tables_number	1
_symmetry_cell_setting	triclinic
loop_
_symmetry_equiv_pos_as_xyz
  x,y,z
_cell_length_a	19.077105
_cell_length_b	16.625546
_cell_length_c	19.076919
_cell_angle_alpha	87.730083
_cell_angle_beta	89.923776
_cell_angle_gamma	87.718759
loop_
_atom_site_label
_atom_site_type_symbol
_atom_site_fract_x
_atom_site_fract_y
_atom_site_fract_z
Zn1	Zn	1.058283	-0.390077	0.440407
Zn2	Zn	1.558283	0.109923	0.940407
Zn3	Zn	1.062927	-0.519720	0.322896
Zn4	Zn	1.562927	-0.019720	0.822896
Zn5	Zn	0.945500	-0.379275	0.318200
Zn6	Zn	1.445500	0.120725	0.818200
Zn7	Zn	0.940748	-0.519234	0.435649
Zn8	Zn	1.440748	-0.019234	0.935649
O9	O	1.001864	-0.452076	0.379288
O10	O	1.501864	0.047924	0.879288
O11	O	1.157231	-0.411998	0.428775
O12	O	1.657231	0.088002	0.928775
O13	O	1.051282	-0.496773	0.223942
O14	O	1.551282	0.003227	0.723942
O15	O	0.960506	-0.267879	0.334437
O16	O	1.460506	0.232121	0.834437
O17	O	1.160642	-0.507246	0.342441
O18	O	1.660642	-0.007246	0.842441
O19	O	1.043367	-0.275815	0.424222
O20	O	1.543367	0.224185	0.924222
O21	O	0.965009	-0.393589	0.220492
O22	O	1.465009	0.106411	0.720492
O23	O	0.846538	-0.393117	0.329824
O24	O	1.346538	0.106883	0.829824
O25	O	0.952407	-0.506418	0.534611
O26	O	1.452407	-0.006418	1.034611
O27	O	0.843047	-0.495944	0.416113
O28	O	1.343047	0.004056	0.916113
O29	O	1.038759	-0.411527	0.538107
O30	O	1.538759	0.088473	1.038107
O31	O	1.046674	-0.632485	0.337827
O32	O	1.546674	-0.132485	0.837827
O33	O	0.956910	-0.632127	0.420666
O34	O	1.456910	-0.132127	0.920666
C35	C	0.819296	-0.443306	0.371943
C36	C	1.319296	0.056694	0.871943
C37	C	0.741192	-0.439575	0.368817
C38	C	1.241192	0.060425	0.868817
C39	C	1.001799	-0.661563	0.379256
C40	C	1.501799	-0.161563	0.879256
C41	C	1.001834	-0.751186	0.379268
C42	C	1.501834	-0.251186	0.879268
C43	C	0.702702	-0.491432	0.412204
C44	C	1.202702	0.008568	0.912204
C45	C	0.629314	-0.487916	0.409270
C46	C	1.129314	0.012084	0.909270
C47	C	0.594418	-0.432544	0.362946
C48	C	1.094418	0.067456	0.862946
C49	C	0.632913	-0.380681	0.319557
C50	C	1.132913	0.119319	0.819557
C51	C	0.706299	-0.384194	0.322495
C52	C	1.206299	0.115806	0.822495
C53	C	0.375130	-0.416284	0.349354
C54	C	0.875130	0.083716	0.849354
C55	C	0.301739	-0.412776	0.346418
C56	C	0.801739	0.087224	0.846418
C57	C	0.298145	-0.520010	0.436133
C58	C	0.798145	-0.020010	0.936133
C59	C	0.371533	-0.523522	0.439063
C60	C	0.871533	-0.023522	0.939063
C61	C	0.410021	-0.471655	0.395677
C62	C	0.910021	0.028345	0.895677
N63	N	0.519405	-0.428950	0.359945
N64	N	1.019405	0.071050	0.859945
N65	N	0.485034	-0.475247	0.398682
N66	N	0.985034	0.024753	0.898682
C67	C	1.001954	-1.079371	0.379346
C68	C	1.501954	-0.579371	0.879346
C69	C	1.001918	-0.988060	0.379327
C70	C	1.501918	-0.488060	0.879327
C71	C	1.001894	-0.915281	0.379307
C72	C	1.501894	-0.415281	0.879307
C73	C	1.001859	-0.823965	0.379288
C74	C	1.501859	-0.323965	0.879288
C75	C	1.185146	-0.460881	0.386662
C76	C	1.685146	0.039119	0.886662
C77	C	1.263249	-0.464634	0.389805
C78	C	1.763249	0.035366	0.889805
C79	C	0.994535	-0.460123	0.562568
C80	C	1.494535	0.039877	1.062568
C81	C	0.991412	-0.463552	0.640671
C82	C	1.491412	0.036448	1.140671
C83	C	1.001948	-0.241774	0.379336
C84	C	1.501948	0.258226	0.879336
C85	C	1.001984	-0.152155	0.379357
C86	C	1.501984	0.347845	0.879357
C87	C	1.009205	-0.444005	0.196723
C88	C	1.509205	0.055995	0.696723
C89	C	1.012465	-0.440356	0.118626
C90	C	1.512465	0.059644	0.618626
C91	C	1.034901	-0.415760	0.679185
C92	C	1.534901	0.084240	1.179185
C93	C	1.031958	-0.418978	0.752571
C94	C	1.531958	0.081022	1.252571
C95	C	0.985529	-0.469993	0.787441
C96	C	1.485529	0.030007	1.287441
C97	C	0.942035	-0.517786	0.748922
C98	C	1.442035	-0.017786	1.248922
C99	C	0.944975	-0.514563	0.675537
C100	C	1.444975	-0.014563	1.175537
C101	C	0.971911	-0.484926	1.006722
C102	C	1.471911	0.015074	1.506722
C103	C	0.968976	-0.488147	1.080112
C104	C	1.468976	0.011853	1.580112
C105	C	1.058898	-0.389338	1.083755
C106	C	1.558898	0.110662	1.583755
C107	C	1.061837	-0.386123	1.010369
C108	C	1.561837	0.113877	1.510369
C109	C	1.018341	-0.433913	0.971856
C110	C	1.518341	0.066087	1.471856
N111	N	0.982521	-0.473286	0.862453
N112	N	1.482521	0.026714	1.362453
N113	N	1.021346	-0.430616	0.896846
N114	N	1.521346	0.069384	1.396846
H115	H	0.597979	-0.530145	0.444600
H116	H	1.097979	-0.030145	0.944600
H117	H	0.909554	-0.553472	0.644180
H118	H	1.409554	-0.053472	1.144180
H119	H	0.399940	-0.568613	0.476784
H120	H	0.899940	-0.068613	0.976784
N121	N	0.595274	-0.320969	0.269587
N122	N	1.095274	0.179031	0.769587
H123	H	0.607614	-0.264469	0.281096
H124	H	1.107614	0.235531	0.781096
H125	H	0.542956	-0.326692	0.274333
H126	H	1.042956	0.173308	0.774333
N127	N	1.111889	-0.331080	0.972745
N128	N	1.611889	0.168920	1.472745
H129	H	1.145659	-0.364063	0.943594
H130	H	1.645659	0.135937	1.443594
H131	H	1.138946	-0.301287	1.008311
H132	H	1.638946	0.198713	1.508311
N133	N	0.918896	-0.543160	1.117739
N134	N	1.418896	-0.043160	1.617739
H135	H	0.930286	-0.600737	1.105401
H136	H	1.430286	-0.100737	1.605401
H137	H	0.869224	-0.527590	1.102943
H138	H	1.369224	-0.027590	1.602943
N139	N	0.747817	-0.328257	0.275704
N140	N	1.247817	0.171743	0.775704
H141	H	0.714576	-0.292646	0.245912
H142	H	1.214576	0.207354	0.745912
H143	H	0.779555	-0.361043	0.244352
H144	H	1.279555	0.138957	0.744352
N145	N	1.084984	-0.360742	0.641577
N146	N	1.584984	0.139258	1.141577
H147	H	1.112086	-0.330954	0.677114
H148	H	1.612086	0.169046	1.177114
H149	H	1.057616	-0.320717	0.609985
H150	H	1.557616	0.179283	1.109985
H151	H	0.904228	-0.559320	0.777319
H152	H	1.404228	-0.059320	1.277319
N153	N	1.105809	-0.337794	1.125293
N154	N	1.605809	0.162206	1.625293
H155	H	1.096903	-0.347573	1.177073
H156	H	1.596903	0.152427	1.677073
H157	H	1.095408	-0.279121	1.112038
H158	H	1.595408	0.220879	1.612038
H159	H	1.067373	-0.380063	0.783926
H160	H	1.567373	0.119937	1.283926
H161	H	0.273329	-0.367677	0.308699
H162	H	0.773329	0.132323	0.808699
N163	N	0.740337	-0.551160	0.462164
N164	N	1.240337	-0.051160	0.962164
H165	H	0.704815	-0.583477	0.489204
H166	H	1.204815	-0.083477	0.989204
H167	H	0.769500	-0.521287	0.495954
H168	H	1.269500	-0.021287	0.995954
N169	N	0.256633	-0.575948	0.482925
N170	N	0.756633	-0.075948	0.982925
H171	H	0.204848	-0.565323	0.474037
H172	H	0.704848	-0.065323	0.974037
H173	H	0.267468	-0.566307	0.533643
H174	H	0.767468	-0.066307	1.033643
N175	N	0.924976	-0.536441	0.965187
N176	N	1.424976	-0.036441	1.465187
H177	H	0.895113	-0.569239	0.998415
H178	H	1.395113	-0.069239	1.498415
H179	H	0.954758	-0.573800	0.935867
H180	H	1.454758	-0.073800	1.435867
H181	H	0.406459	-0.374056	0.314021
H182	H	0.906459	0.125944	0.814021
