data_functionalizedCrystal
_audit_creation_method	'MofGen! by Chris Wilmer'
_symmetry_space_group_name_H-M	'P1'
_symmetry_Int_Tables_number	1
_symmetry_cell_setting	triclinic
loop_
_symmetry_equiv_pos_as_xyz
  x,y,z
_cell_length_a	10.489741
_cell_length_b	14.044220
_cell_length_c	12.503572
_cell_angle_alpha	86.156832
_cell_angle_beta	93.551639
_cell_angle_gamma	88.864026
loop_
_atom_site_label
_atom_site_type_symbol
_atom_site_fract_x
_atom_site_fract_y
_atom_site_fract_z
O1	O	-1.714360	-0.128402	-0.089257
O2	O	-1.214360	0.371598	0.410743
O3	O	-1.344439	-0.140964	-0.089274
O4	O	-0.844439	0.359036	0.410726
O5	O	-1.523846	0.003339	-0.089255
O6	O	-1.023846	0.503339	0.410745
O7	O	-1.534953	-0.272705	-0.089275
O8	O	-1.034953	0.227295	0.410725
O9	O	-1.510356	-0.007531	0.089386
O10	O	-1.010356	0.492469	0.589386
O11	O	-1.330949	-0.151834	0.089367
O12	O	-0.830949	0.348166	0.589367
O13	O	-1.700869	-0.139273	0.089384
O14	O	-1.200869	0.360727	0.589384
Cu15	Cu	-1.514677	-0.146546	0.105687
Cu16	Cu	-1.014677	0.353454	0.605687
Cu17	Cu	-1.530631	-0.133690	-0.105576
Cu18	Cu	-1.030631	0.366310	0.394424
O19	O	-1.521462	-0.283575	0.089365
O20	O	-1.021462	0.216425	0.589365
C21	C	-1.290066	-0.145450	0.000045
C22	C	-0.790066	0.354550	0.500045
C23	C	-1.148150	-0.142611	0.000038
C24	C	-0.648150	0.357389	0.500038
C25	C	-1.755242	-0.134786	0.000063
C26	C	-1.255242	0.365214	0.500063
C27	C	-1.897160	-0.137625	0.000062
C28	C	-1.397160	0.362375	0.500062
C29	C	-1.070696	-0.050796	0.000055
C30	C	-0.570696	0.449204	0.500055
C31	C	-0.989620	-0.088809	-0.088025
C32	C	-0.489620	0.411191	0.411975
C33	C	-0.976355	-0.099548	0.088101
C34	C	-0.476355	0.400452	0.588101
C35	C	-1.068948	-0.180657	-0.088114
C36	C	-0.568948	0.319343	0.411886
C37	C	-1.055686	-0.191389	0.088090
C38	C	-0.555686	0.308611	0.588090
C39	C	-0.974646	-0.229468	-0.000011
C40	C	-0.474646	0.270532	0.499989
C41	C	-1.512240	0.033251	0.000066
C42	C	-1.012240	0.533251	0.500066
C43	C	-1.497740	0.138576	0.000066
C44	C	-0.997740	0.638576	0.500066
C45	C	-1.533069	-0.313487	0.000042
C46	C	-1.033069	0.186513	0.500042
C47	C	-1.547569	-0.418812	0.000034
C48	C	-1.047569	0.081188	0.500034
N49	N	-1.503465	-0.155587	0.254278
N50	N	-1.003465	0.344413	0.754278
C51	C	-1.471233	0.331419	0.000050
C52	C	-0.971233	0.831419	0.500050
C53	C	-1.574071	0.388351	0.000051
C54	C	-1.074071	0.888351	0.500051
C55	C	-1.559322	0.495655	0.000042
C56	C	-1.059322	0.995655	0.500042
C57	C	-1.485980	0.224105	0.000059
C58	C	-0.985980	0.724105	0.500059
N59	N	-1.541853	-0.124641	-0.254168
N60	N	-1.041853	0.375359	0.245832
C61	C	-1.486973	-0.168896	0.473391
C62	C	-0.986973	0.331104	0.973391
C63	C	-1.558341	-0.111336	0.526726
C64	C	-1.058341	0.388664	1.026726
C65	C	-1.549164	-0.118741	0.648648
C66	C	-1.049164	0.381259	1.148648
C67	C	-1.496148	-0.161492	0.351458
C68	C	-0.996148	0.338508	0.851458
H69	H	-1.112738	0.024690	-0.000049
H70	H	-0.612738	0.524690	0.499951
H71	H	-1.626334	-0.056497	0.480820
H72	H	-1.126334	0.443503	0.980820
C73	C	-1.023200	-0.252790	-0.250668
C74	C	-0.523200	0.247210	0.249332
C75	C	-1.123467	-0.226933	-0.188760
C76	C	-0.623467	0.273067	0.311240
H77	H	-1.056862	-0.281360	-0.312797
H78	H	-0.556862	0.218640	0.187203
H79	H	-0.977665	-0.197548	-0.271706
H80	H	-0.477665	0.302452	0.228294
H81	H	-0.967086	-0.297010	-0.209486
H82	H	-0.467086	0.202990	0.290514
H83	H	-1.179576	-0.182707	-0.229939
H84	H	-0.679576	0.317293	0.270061
H85	H	-1.169023	-0.282182	-0.167723
H86	H	-0.669023	0.217818	0.332277
C87	C	-1.729566	0.294657	-0.091749
C88	C	-1.229566	0.794657	0.408251
C89	C	-1.707881	0.345364	0.000072
C90	C	-1.207881	0.845364	0.500072
H91	H	-1.812169	0.268112	-0.091727
H92	H	-1.312169	0.768112	0.408273
H93	H	-1.724271	0.336622	-0.154039
H94	H	-1.224271	0.836622	0.345961
H95	H	-1.666975	0.244838	-0.091741
H96	H	-1.166975	0.744838	0.408259
H97	H	-1.770467	0.395188	0.000061
H98	H	-1.270467	0.895188	0.500061
H99	H	-1.713187	0.303396	0.062379
H100	H	-1.213187	0.803396	0.562379
H101	H	-1.418987	-0.223732	0.519292
H102	H	-0.918987	0.276268	1.019292
C103	C	-0.784884	-0.328032	0.000805
C104	C	-0.284884	0.171968	0.500805
C105	C	-0.918259	-0.331460	-0.000078
C106	C	-0.418259	0.168540	0.499922
H107	H	-0.750074	-0.390997	0.000767
H108	H	-0.250074	0.109003	0.500767
H109	H	-0.761197	-0.291408	-0.061164
H110	H	-0.261197	0.208592	0.438836
H111	H	-0.752928	-0.299378	0.063424
H112	H	-0.252928	0.200622	0.563424
H113	H	-0.950217	-0.360107	-0.062701
H114	H	-0.450217	0.139893	0.437299
H115	H	-0.941957	-0.368098	0.061898
H116	H	-0.441957	0.131902	0.561898
H117	H	-1.372122	0.363266	0.000043
H118	H	-0.872122	0.863266	0.500043
H119	H	-0.960288	-0.045428	-0.162486
H120	H	-0.460288	0.454572	0.337514
H121	H	-1.085046	-0.234738	0.162555
H122	H	-0.585046	0.265262	0.662555
H123	H	-0.935812	-0.065213	0.162566
H124	H	-0.435812	0.434787	0.662566
