data_functionalizedCrystal
_audit_creation_method	'MofGen! by Chris Wilmer'
_symmetry_space_group_name_H-M	'P1'
_symmetry_Int_Tables_number	1
_symmetry_cell_setting	triclinic
loop_
_symmetry_equiv_pos_as_xyz
  x,y,z
_cell_length_a	10.654541
_cell_length_b	15.944551
_cell_length_c	15.021413
_cell_angle_alpha	90.009504
_cell_angle_beta	90.003628
_cell_angle_gamma	83.991333
loop_
_atom_site_label
_atom_site_type_symbol
_atom_site_fract_x
_atom_site_fract_y
_atom_site_fract_z
O1	O	1.666318	0.117972	0.074007
O2	O	1.300693	0.129214	0.074015
O3	O	1.493490	0.001375	0.074003
O4	O	1.473521	0.245810	0.074019
O5	O	1.493473	0.001362	-0.074062
O6	O	1.300676	0.129200	-0.074049
O7	O	1.666301	0.117958	-0.074057
Zn8	Zn	1.483486	0.123577	-0.097562
Zn9	Zn	1.483508	0.123595	0.097519
O10	O	1.473504	0.245796	-0.074045
C11	C	1.253897	0.128382	-0.000016
C12	C	1.114486	0.125914	-0.000014
C13	C	1.492652	-0.029930	-0.000030
C14	C	1.490167	-0.123190	-0.000030
C15	C	1.084537	0.278779	0.000008
C16	C	1.004069	0.354048	0.000022
C17	C	0.873081	0.351724	0.000023
C18	C	0.822560	0.274122	0.000007
C19	C	0.903028	0.198852	-0.000008
C20	C	1.034017	0.201185	-0.000006
C21	C	0.932976	0.045989	-0.000035
C22	C	1.063965	0.048311	-0.000030
C23	C	0.882455	-0.031613	-0.000052
C24	C	0.962924	-0.106885	-0.000059
C25	C	1.093919	-0.104557	-0.000059
C26	C	1.144433	-0.026958	-0.000044
C27	C	1.364722	-0.338772	-0.000015
C28	C	1.422966	-0.399459	-0.073021
C29	C	1.485671	-0.293942	-0.000023
C30	C	1.423012	-0.399430	0.072959
C31	C	1.481319	-0.458880	-0.000013
C32	C	1.543948	-0.353401	-0.073089
C33	C	1.543977	-0.353365	0.072956
C34	C	1.602309	-0.414034	-0.000068
C35	C	1.488175	-0.198925	-0.000030
C36	C	1.478825	-0.553896	-0.000012
C37	C	1.713097	0.118790	-0.000024
C38	C	1.852508	0.121258	-0.000021
C39	C	1.474342	0.277102	-0.000011
C40	C	1.476827	0.370362	-0.000005
N41	N	1.483480	0.123565	-0.230699
C42	C	1.571961	0.063975	-0.529696
C43	C	1.597359	0.139792	-0.470325
C44	C	1.483510	0.123590	-0.587736
C45	C	1.458157	0.047763	-0.470366
C46	C	1.483498	0.123574	-0.412312
C47	C	1.508964	0.199446	-0.529671
C48	C	1.369712	0.107367	-0.529717
C49	C	1.395062	0.183239	-0.470373
C50	C	1.483519	0.123599	-0.688794
C51	C	1.483488	0.123574	-0.311257
N52	N	1.483524	0.123601	0.230657
H53	H	1.045218	0.417231	0.000033
H54	H	1.702790	-0.446611	-0.000111
N55	N	1.671110	-0.002712	-0.564216
H56	H	1.629469	-0.044863	-0.601240
H57	H	1.716607	-0.032557	-0.512358
H58	H	1.595055	-0.333120	-0.134878
N59	N	1.355196	-0.426507	-0.154767
H60	H	1.414658	-0.466226	-0.191335
H61	H	1.325377	-0.375232	-0.191528
N62	N	1.611701	-0.326300	0.154708
H63	H	1.565939	-0.342862	0.209828
H64	H	1.613577	-0.263108	0.153706
N65	N	1.724820	0.157975	-0.435766
H66	H	1.791585	0.112919	-0.457339
H67	H	1.723509	0.158397	-0.368538
N68	N	1.537504	0.284402	-0.564023
H69	H	1.537368	0.283877	-0.631258
H70	H	1.623149	0.296740	-0.541830
N71	N	1.285712	-0.024453	-0.000045
H72	H	1.311394	0.006115	0.054847
H73	H	1.311277	0.006100	-0.054964
N74	N	0.786286	0.432906	0.000046
H75	H	0.695642	0.419653	0.000046
H76	H	0.802630	0.466692	-0.054837
H77	H	0.921778	-0.170062	-0.000072
N78	N	1.355239	-0.426431	0.154709
H79	H	1.265509	-0.398784	0.154642
H80	H	1.400115	-0.408854	0.209804
H81	H	1.320252	0.233701	-0.444490
H82	H	0.715901	0.272236	-0.000004
N83	N	1.242283	0.089166	-0.564307
H84	H	1.223213	0.031849	-0.542774
H85	H	1.243091	0.089906	-0.631533
N86	N	1.231748	-0.295413	-0.000100
H87	H	1.185578	-0.312856	0.054472
H88	H	1.186322	-0.312076	-0.055334
N89	N	1.225816	0.281285	0.000023
H90	H	1.245611	0.341864	0.000039
H91	H	1.263158	0.251799	-0.054871
N92	N	1.180696	-0.185747	-0.000075
H93	H	1.235716	-0.188194	0.054813
H94	H	1.235625	-0.188141	-0.054999
N95	N	1.429750	-0.037165	-0.435851
H96	H	1.496628	-0.082143	-0.457431
H97	H	1.344422	-0.049800	-0.458391
H98	H	0.775797	-0.033501	-0.000056
