data_functionalizedCrystal
_audit_creation_method	'MofGen! by Chris Wilmer'
_symmetry_space_group_name_H-M	'P1'
_symmetry_Int_Tables_number	1
_symmetry_cell_setting	triclinic
loop_
_symmetry_equiv_pos_as_xyz
  x,y,z
_cell_length_a	14.044220
_cell_length_b	15.944551
_cell_length_c	12.503572
_cell_angle_alpha	93.522593
_cell_angle_beta	86.164750
_cell_angle_gamma	88.343808
loop_
_atom_site_label
_atom_site_type_symbol
_atom_site_fract_x
_atom_site_fract_y
_atom_site_fract_z
O1	O	1.263178	0.198062	-0.089210
O2	O	0.987210	0.190753	-0.089237
O3	O	1.132730	0.072697	-0.089213
O4	O	1.117659	0.316117	-0.089234
O5	O	1.121786	0.081592	0.089427
O6	O	0.976267	0.199647	0.089403
O7	O	1.252235	0.206956	0.089430
Cu8	Cu	1.113251	0.204114	0.105728
Cu9	Cu	1.126194	0.193595	-0.105535
O10	O	1.106715	0.325012	0.089406
C11	C	0.946424	0.192001	0.000079
C12	C	0.841198	0.182459	0.000069
C13	C	0.648534	0.165017	0.000092
C14	C	0.590906	0.232688	0.000091
C15	C	0.483701	0.222983	0.000104
C16	C	0.755749	0.174721	0.000079
C17	C	1.126632	0.045804	0.000107
C18	C	1.124756	-0.047583	0.000107
C19	C	1.030073	-0.269530	0.000083
C20	C	1.068645	-0.322870	0.088168
C21	C	1.121363	-0.218563	0.000099
C22	C	1.079457	-0.331621	-0.087957
C23	C	1.118079	-0.383722	0.000086
C24	C	1.159956	-0.270669	0.088256
C25	C	1.170759	-0.279418	-0.087948
C26	C	1.209396	-0.332734	0.000158
C27	C	1.123252	-0.123419	0.000107
C28	C	1.116197	-0.478865	0.000085
C29	C	1.293021	0.205708	0.000111
C30	C	1.398247	0.215249	0.000114
C31	C	1.112813	0.351905	0.000083
C32	C	1.114689	0.445291	0.000076
N33	N	1.104155	0.211512	0.254318
N34	N	1.135297	0.186191	-0.254126
C35	C	1.090774	0.222403	0.473431
C36	C	1.148675	0.175303	0.526768
C37	C	1.141230	0.181362	0.648690
C38	C	1.098218	0.216344	0.351498
H39	H	0.954293	-0.241893	0.000164
O40	O	0.628252	0.310436	0.000003
C41	C	0.728530	0.302947	0.000008
H42	H	0.753687	0.237414	-0.033781
H43	H	0.750838	0.313333	0.085699
C44	C	0.743050	0.449750	-0.028601
C45	C	0.773950	0.369264	-0.070110
H46	H	0.771068	0.490659	-0.071849
H47	H	0.675491	0.454797	-0.028600
H48	H	0.761642	0.458393	0.042808
H49	H	0.755347	0.360618	-0.141512
H50	H	0.841507	0.364217	-0.070124
H51	H	1.203838	0.130429	0.480864
O52	O	1.024845	0.275842	0.528138
C53	C	0.932615	0.253933	0.500746
H54	H	0.933876	0.185135	0.469744
H55	H	0.908778	0.295246	0.435576
C56	C	0.860818	0.351624	0.638814
C57	C	0.862365	0.267123	0.600746
H58	H	0.817482	0.359764	0.700497
H59	H	0.922954	0.366387	0.657267
H60	H	0.840956	0.386042	0.584497
H61	H	0.882238	0.232708	0.655058
H62	H	0.800230	0.252354	0.582305
O63	O	1.222233	-0.256227	-0.176698
C64	C	1.223971	-0.167784	-0.174931
H65	H	1.210209	-0.140358	-0.088732
H66	H	1.166258	-0.143323	-0.226073
C67	C	1.339324	-0.174951	-0.326230
C68	C	1.322430	-0.141266	-0.220357
H69	H	1.400056	-0.158593	-0.354255
H70	H	1.338151	-0.234537	-0.327424
H71	H	1.291223	-0.154564	-0.368834
H72	H	1.370523	-0.161662	-0.177753
H73	H	1.323614	-0.081683	-0.219158
H74	H	1.193969	-0.244078	0.162806
O75	O	0.611386	0.087200	0.000283
C76	C	0.636700	0.047899	0.092783
H77	H	0.653406	0.097822	0.157453
H78	H	0.702336	0.004787	0.071858
C79	C	0.532605	-0.065548	0.055305
C80	C	0.553115	-0.004231	0.134737
H81	H	0.481048	-0.097707	0.081183
H82	H	0.515552	-0.039072	-0.007016
H83	H	0.587308	-0.101465	0.037875
H84	H	0.498416	0.031691	0.152156
H85	H	0.570156	-0.030702	0.197062
H86	H	1.025471	-0.342162	0.162629
H87	H	1.045395	-0.358298	-0.162431
O88	O	1.299872	-0.365474	0.000411
C89	C	1.341946	-0.334137	0.093389
H90	H	1.283569	-0.313089	0.157998
H91	H	1.387317	-0.278349	0.073220
C92	C	1.477172	-0.429549	0.055570
C93	C	1.405472	-0.403705	0.134926
H94	H	1.516361	-0.472460	0.081190
H95	H	1.448828	-0.450660	-0.007074
H96	H	1.514971	-0.383053	0.038769
H97	H	1.367668	-0.450198	0.151716
H98	H	1.433811	-0.382603	0.197574
