data_functionalizedCrystal
_audit_creation_method	'MofGen! by Chris Wilmer'
_symmetry_space_group_name_H-M	'P1'
_symmetry_Int_Tables_number	1
_symmetry_cell_setting	triclinic
loop_
_symmetry_equiv_pos_as_xyz
  x,y,z
_cell_length_a	12.827893
_cell_length_b	12.645330
_cell_length_c	12.827885
_cell_angle_alpha	90.028978
_cell_angle_beta	90.019272
_cell_angle_gamma	90.017662
loop_
_atom_site_label
_atom_site_type_symbol
_atom_site_fract_x
_atom_site_fract_y
_atom_site_fract_z
Zn1	Zn	1.597653	-0.421989	0.590855
Zn2	Zn	2.097653	0.078011	1.090855
Zn3	Zn	1.597540	-0.599290	0.416117
Zn4	Zn	2.097540	-0.099290	0.916117
Zn5	Zn	1.422894	-0.422040	0.416128
Zn6	Zn	1.922894	0.077960	0.916128
Zn7	Zn	1.422873	-0.599211	0.590817
Zn8	Zn	1.922873	-0.099211	1.090817
O9	O	1.510240	-0.510632	0.503479
O10	O	2.010240	-0.010632	1.003479
O11	O	1.743874	-0.445520	0.567686
O12	O	2.243874	0.054480	1.067686
O13	O	1.574335	-0.575832	0.269883
O14	O	2.074335	-0.075832	0.769883
O15	O	1.446133	-0.273686	0.439326
O16	O	1.946133	0.226314	0.939326
O17	O	1.743791	-0.575782	0.439308
O18	O	2.243791	-0.075782	0.939308
O19	O	1.574527	-0.273648	0.567697
O20	O	2.074527	0.226352	1.067697
O21	O	1.446023	-0.445608	0.269891
O22	O	1.946023	0.054392	0.769891
O23	O	1.276655	-0.445531	0.439290
O24	O	1.776655	0.054469	0.939290
O25	O	1.446096	-0.575647	0.737058
O26	O	1.946096	-0.075647	1.237058
O27	O	1.276639	-0.575697	0.567633
O28	O	1.776639	-0.075697	1.067633
O29	O	1.574506	-0.445443	0.737086
O30	O	2.074506	0.054557	1.237086
O31	O	1.574314	-0.747626	0.439271
O32	O	2.074314	-0.247626	0.939271
O33	O	1.445986	-0.747568	0.567623
O34	O	1.945986	-0.247568	1.067623
C35	C	1.238730	-0.510612	0.503459
C36	C	1.738730	-0.010612	1.003459
C37	C	1.122577	-0.510629	0.503476
C38	C	1.622577	-0.010629	1.003476
C39	C	1.070812	-0.575140	0.566886
C40	C	1.570812	-0.075140	1.066886
C41	C	0.950762	-0.575159	0.566904
C42	C	1.450762	-0.075159	1.066904
C43	C	1.510164	-0.786062	0.503465
C44	C	2.010164	-0.286062	1.003465
C45	C	1.510227	-0.903892	0.503493
C46	C	2.010227	-0.403892	1.003493
C47	C	1.429829	-1.071464	0.584488
C48	C	1.929829	-0.571464	1.084488
C49	C	1.429418	-0.948904	0.584228
C50	C	1.929418	-0.448904	1.084228
C51	C	1.480414	-0.948494	0.393362
C52	C	1.980414	-0.448494	0.893362
C53	C	1.479923	-1.071093	0.393854
C54	C	1.979923	-0.571093	0.893854
C55	C	1.620929	-1.070979	0.531736
C56	C	2.120929	-0.570979	1.031736
C57	C	1.620251	-0.948372	0.534144
C58	C	2.120251	-0.448372	1.034144
C59	C	1.782810	-0.510654	0.503500
C60	C	2.282810	-0.010654	1.003500
C61	C	1.898963	-0.510663	0.503509
C62	C	2.398963	-0.010663	1.003509
C63	C	1.510311	-0.510531	0.776050
C64	C	2.010311	-0.010531	1.276050
C65	C	1.510341	-0.510487	0.892203
C66	C	2.010341	-0.010487	1.392203
C67	C	1.510345	-0.234127	0.503517
C68	C	2.010345	0.265873	1.003517
C69	C	1.510390	-0.116297	0.503533
C70	C	2.010390	0.383703	1.003533
C71	C	1.510229	-0.510657	0.231969
C72	C	2.010229	-0.010657	0.731969
C73	C	1.510401	-0.510402	0.115817
C74	C	2.010401	-0.010402	0.615817
C75	C	1.573890	-0.446045	0.944001
C76	C	2.073890	0.053955	1.444001
C77	C	1.573923	-0.445999	1.064052
C78	C	2.073923	0.054001	1.564052
H79	H	0.943473	-0.455433	0.449214
H80	H	1.443473	0.044567	0.949214
O81	O	1.438293	-0.583522	0.951174
O82	O	1.938293	-0.083522	1.451174
H83	H	1.485099	-0.637402	1.000895
H84	H	1.985099	-0.137402	1.500895
H85	H	1.642733	-0.919216	0.615195
H86	H	2.142733	-0.419216	1.115195
H87	H	1.115371	-0.630352	0.621164
H88	H	1.615371	-0.130352	1.121164
H89	H	1.683433	-0.917726	0.479474
H90	H	2.183433	-0.417726	0.979474
O91	O	1.063556	-0.437504	0.431566
O92	O	1.563556	0.062496	0.931566
H93	H	1.013845	-0.383683	0.478470
H94	H	1.513845	0.116317	0.978470
H95	H	0.906245	-0.630392	0.621189
H96	H	1.406245	-0.130392	1.121189
O97	O	1.645939	-0.373011	0.885031
O98	O	2.145939	0.126989	1.385031
H99	H	1.634615	-0.384517	0.799993
H100	H	2.134615	0.115483	1.299993
O101	O	1.454099	-0.908980	0.692413
O102	O	1.954099	-0.408980	1.192413
H103	H	1.525865	-0.859994	0.689859
H104	H	2.025865	-0.359994	1.189859
H105	H	1.455996	-0.565580	1.071278
H106	H	1.955996	-0.065580	1.571278
O107	O	1.700493	-1.109618	0.453810
O108	O	2.200493	-0.609618	0.953810
H109	H	1.661559	-1.160819	0.395251
H110	H	2.161559	-0.660819	0.895251
O111	O	1.453922	-1.110923	0.692922
O112	O	1.953922	-0.610923	1.192922
H113	H	1.523620	-1.162846	0.690292
H114	H	2.023620	-0.662846	1.190292
O115	O	1.321948	-1.112374	0.560055
O116	O	1.821948	-0.612374	1.060055
H117	H	1.325457	-1.164498	0.490502
H118	H	1.825457	-0.664498	0.990502
H119	H	1.347469	-0.919671	0.565543
H120	H	1.847469	-0.419671	1.065543
H121	H	1.399118	-1.099786	0.369962
H122	H	1.899118	-0.599786	0.869962
O123	O	1.645978	-0.372893	1.123043
O124	O	2.145978	0.127107	1.623043
H125	H	1.634682	-0.384314	1.208077
H126	H	2.134682	0.115686	1.708077
O127	O	1.554261	-1.110408	0.311232
O128	O	2.054261	-0.610408	0.811232
H129	H	1.528874	-1.080960	0.233784
H130	H	2.028874	-0.580960	0.733784
O131	O	1.555662	-0.909879	0.311269
O132	O	2.055662	-0.409879	0.811269
H133	H	1.615247	-0.858361	0.348181
H134	H	2.115247	-0.358361	0.848181
H135	H	1.400452	-0.917885	0.369038
H136	H	1.900452	-0.417885	0.869038
H137	H	1.648124	-1.101818	0.610678
H138	H	2.148124	-0.601818	1.110678
