data_functionalizedCrystal
_audit_creation_method	'MofGen! by Chris Wilmer'
_symmetry_space_group_name_H-M	'P1'
_symmetry_Int_Tables_number	1
_symmetry_cell_setting	triclinic
loop_
_symmetry_equiv_pos_as_xyz
  x,y,z
_cell_length_a	14.853558
_cell_length_b	14.853576
_cell_length_c	13.930277
_cell_angle_alpha	89.996507
_cell_angle_beta	89.993309
_cell_angle_gamma	83.634809
loop_
_atom_site_label
_atom_site_type_symbol
_atom_site_fract_x
_atom_site_fract_y
_atom_site_fract_z
O1	O	1.196377	0.117663	-0.079817
O2	O	0.933917	0.131693	-0.079821
O3	O	1.072154	-0.006551	-0.079815
O4	O	1.058140	0.255908	-0.079823
O5	O	1.072135	-0.006554	0.079847
O6	O	0.933898	0.131690	0.079841
O7	O	1.196358	0.117660	0.079845
Zn8	Zn	1.065125	0.124675	0.105193
Zn9	Zn	1.065150	0.124679	-0.105169
O10	O	1.058121	0.255905	0.079839
C11	C	0.900319	0.131058	0.000009
C12	C	0.800234	0.129157	0.000008
C13	C	1.071508	-0.040141	0.000015
C14	C	1.069601	-0.140225	0.000012
C15	C	0.753225	0.128267	-0.087028
C16	C	0.753202	0.128253	0.087042
C17	C	0.659168	0.126463	0.087044
C18	C	0.612159	0.125573	0.000008
C19	C	0.659183	0.126474	-0.087029
C20	C	0.612139	0.125553	0.174079
C21	C	0.518099	0.123761	0.174084
C22	C	0.471087	0.122878	0.087048
C23	C	0.518116	0.123780	0.000007
C24	C	0.471107	0.122890	-0.087028
C25	C	0.518134	0.123799	-0.174070
C26	C	0.612170	0.125591	-0.174065
C27	C	0.377050	0.121086	0.087043
C28	C	0.377065	0.121097	-0.087029
C29	C	1.229956	0.118296	0.000013
C30	C	1.330041	0.120196	0.000008
C31	C	1.068714	-0.187238	-0.087025
C32	C	1.068703	-0.187254	0.087045
C33	C	1.066917	-0.281288	0.087045
C34	C	1.066030	-0.328302	0.000009
C35	C	1.066930	-0.281281	-0.087027
C36	C	1.066026	-0.328317	0.174080
C37	C	1.064240	-0.422357	0.174083
C38	C	1.063346	-0.469372	0.087046
C39	C	1.064245	-0.422345	0.000006
C40	C	1.063358	-0.469358	-0.087030
C41	C	1.064251	-0.422332	-0.174070
C42	C	1.066036	-0.328295	-0.174064
C43	C	1.061561	-0.563409	0.087040
C44	C	1.061574	-0.563401	-0.087032
C45	C	1.058767	0.289495	0.000007
C46	C	1.060674	0.389578	0.000004
N47	N	1.065114	0.124672	0.248759
N48	N	1.065168	0.124675	-0.248735
C49	C	1.003937	0.185869	0.701025
C50	C	1.126389	0.063481	0.701000
C51	C	1.126378	0.063478	0.600504
C52	C	1.065146	0.124673	0.550265
C53	C	1.003926	0.185870	0.600520
C54	C	1.187604	0.002288	0.550241
C55	C	1.187596	0.002283	0.449739
C56	C	1.126360	0.063474	0.399497
C57	C	1.065136	0.124674	0.449759
C58	C	1.003904	0.185868	0.399520
C59	C	0.942675	0.247064	0.449780
C60	C	0.942689	0.247061	0.550279
C61	C	1.126346	0.063477	0.298999
C62	C	1.003893	0.185869	0.299015
H63	H	0.338795	0.120378	-0.157905
F64	F	0.803236	0.129198	0.179665
H65	H	0.650422	0.126269	0.244938
H66	H	1.066766	-0.289999	-0.244928
F67	F	1.063286	-0.472397	0.266718
H68	H	1.060837	-0.601693	0.157907
H69	H	1.060845	-0.601672	-0.157908
F70	F	0.938717	0.250998	0.245553
H71	H	1.237451	-0.047546	0.408823
H72	H	0.338764	0.120355	0.157911
H73	H	0.650468	0.126329	-0.244929
H74	H	1.237461	-0.047530	0.591149
H75	H	1.176201	0.013657	0.258081
H76	H	0.954082	0.235692	0.741950
F77	F	0.468057	0.122804	0.266720
F78	F	1.063317	-0.472379	-0.266697
H79	H	1.069437	-0.148945	-0.157891
F80	F	1.069654	-0.137218	0.179669
H81	H	0.892824	0.296893	0.408863
F82	F	1.066976	-0.278279	0.266703
H83	H	0.892840	0.296885	0.591207
F84	F	1.191558	-0.001638	0.754468
H85	H	0.479847	0.123069	-0.244934
H86	H	0.791518	0.129011	-0.157895
