data_functionalizedCrystal
_audit_creation_method	'MofGen! by Chris Wilmer'
_symmetry_space_group_name_H-M	'P1'
_symmetry_Int_Tables_number	1
_symmetry_cell_setting	triclinic
loop_
_symmetry_equiv_pos_as_xyz
  x,y,z
_cell_length_a	14.044220
_cell_length_b	8.559649
_cell_length_c	12.503567
_cell_angle_alpha	86.974501
_cell_angle_beta	93.840205
_cell_angle_gamma	81.483771
loop_
_atom_site_label
_atom_site_type_symbol
_atom_site_fract_x
_atom_site_fract_y
_atom_site_fract_z
O1	O	-1.236026	-0.372906	-0.089199
O2	O	-0.961060	-0.359145	-0.089227
O3	O	-1.122768	-0.136877	-0.089210
O4	O	-1.074319	-0.595174	-0.089217
O5	O	-1.110592	-0.153610	0.089432
O6	O	-0.948884	-0.375879	0.089414
O7	O	-1.223850	-0.389639	0.089442
Cu8	Cu	-1.085255	-0.384287	0.105739
Cu9	Cu	-1.099655	-0.364498	-0.105525
O10	O	-1.062142	-0.611908	0.089425
C11	C	-1.120352	-0.086237	0.000109
C12	C	-1.131281	0.089586	0.000104
C13	C	-0.920096	-0.361489	0.000090
C14	C	-0.816179	-0.343524	0.000080
C15	C	-1.264814	-0.387295	0.000122
C16	C	-1.368732	-0.405259	0.000126
C17	C	-0.625907	-0.310685	0.000101
C18	C	-0.558999	-0.438092	0.000104
C19	C	-0.453125	-0.419819	0.000116
C20	C	-0.731791	-0.328955	0.000089
C21	C	-1.064559	-0.662547	0.000103
C22	C	-1.053630	-0.838370	0.000101
N23	N	-1.075134	-0.398206	0.254331
C24	C	-1.124662	-0.330105	0.526769
C25	C	-1.060254	-0.418681	0.473439
C26	C	-1.068535	-0.407286	0.351516
C27	C	-1.116382	-0.341499	0.648703
N28	N	-1.109778	-0.350586	0.745884
H29	H	-0.603676	-0.187896	0.000109
H30	H	-1.206127	0.162423	0.000121
H31	H	-0.978788	0.088801	0.000097
H32	H	-0.998893	-0.503073	0.519348
N33	N	-1.201629	-0.224248	0.469171
N34	N	-1.208329	-0.215030	0.368774
H35	H	-1.262688	-0.140272	0.328082
H36	H	-0.581231	-0.560891	0.000097
