data_functionalizedCrystal
_audit_creation_method	'MofGen! by Chris Wilmer'
_symmetry_space_group_name_H-M	'P1'
_symmetry_Int_Tables_number	1
_symmetry_cell_setting	triclinic
loop_
_symmetry_equiv_pos_as_xyz
  x,y,z
_cell_length_a	25.639239
_cell_length_b	12.759401
_cell_length_c	12.759393
_cell_angle_alpha	90.020011
_cell_angle_beta	89.962948
_cell_angle_gamma	89.965235
loop_
_atom_site_label
_atom_site_type_symbol
_atom_site_fract_x
_atom_site_fract_y
_atom_site_fract_z
Zn1	Zn	-0.208175	-1.606080	-0.593984
Zn2	Zn	-0.295621	-1.605901	-0.418287
Zn3	Zn	-0.208196	-1.430382	-0.418318
Zn4	Zn	-0.295575	-1.430297	-0.593924
O5	O	-0.251892	-1.518165	-0.506128
O6	O	-0.219785	-1.753077	-0.570689
O7	O	-0.284052	-1.582579	-0.271270
O8	O	-0.135028	-1.453799	-0.441659
O9	O	-0.284032	-1.752946	-0.441605
O10	O	-0.135012	-1.582884	-0.570719
O11	O	-0.219821	-1.453626	-0.271293
O12	O	-0.219776	-1.283350	-0.441601
O13	O	-0.283953	-1.453655	-0.740953
O14	O	-0.283973	-1.283288	-0.570617
O15	O	-0.219740	-1.582802	-0.740997
O16	O	-0.368780	-1.582496	-0.441547
O17	O	-0.368746	-1.453481	-0.570587
C18	C	-0.251872	-1.245198	-0.506107
C19	C	-0.251877	-1.128421	-0.506122
C20	C	-0.218485	-1.073621	-0.573439
C21	C	-0.218492	-0.963897	-0.573443
C22	C	-0.285287	-0.963783	-0.438811
C23	C	-0.285277	-1.073505	-0.438802
C24	C	-0.185085	-1.128537	-0.640759
C25	C	-0.151691	-1.073736	-0.708082
C26	C	-0.151698	-0.964012	-0.708086
C27	C	-0.185099	-0.909089	-0.640767
C28	C	-0.387734	-1.517988	-0.506080
C29	C	-0.445848	-1.518009	-0.506095
C30	C	-0.806217	-1.585519	-0.439052
C31	C	-0.860821	-1.585559	-0.439066
O32	O	-0.889062	-1.642775	-0.382011
N33	N	-0.888131	-1.518350	-0.506198
C34	C	-0.860833	-1.451103	-0.573328
O35	O	-0.889077	-1.393940	-0.630431
C36	C	-0.806230	-1.451068	-0.573318
C37	C	-0.778923	-1.518275	-0.506174
C38	C	-0.778909	-1.652721	-0.371914
C39	C	-0.724309	-1.652678	-0.371899
C40	C	-0.697015	-1.585434	-0.439021
C41	C	-0.724323	-1.518232	-0.506159
C42	C	-0.778934	-1.383827	-0.640452
C43	C	-0.724327	-1.383799	-0.640438
C44	C	-0.697020	-1.451005	-0.573294
C45	C	-0.642429	-1.450946	-0.573266
N46	N	-0.615119	-1.518155	-0.506134
C47	C	-0.642412	-1.585399	-0.439012
C48	C	-0.975504	-1.451182	-0.573344
C49	C	-1.030106	-1.451210	-0.573349
C50	C	-1.030090	-1.585669	-0.439088
C51	C	-0.975487	-1.585634	-0.439079
C52	C	-0.948194	-1.518391	-0.506212
C53	C	-0.527747	-1.585305	-0.438984
C54	C	-0.473142	-1.585253	-0.438972
C55	C	-0.473163	-1.450799	-0.573236
C56	C	-0.527764	-1.450846	-0.573245
C57	C	-0.555054	-1.518107	-0.506116
O58	O	-0.614153	-1.393762	-0.630295
O59	O	-0.614162	-1.642562	-0.381928
C60	C	-0.115519	-1.518371	-0.506199
C61	C	-0.057405	-1.518459	-0.506230
C62	C	-0.251839	-1.518239	-0.780162
C63	C	-0.251816	-1.518270	-0.896938
C64	C	-0.251905	-0.792198	-0.506144
C65	C	-0.251894	-0.908975	-0.506135
C66	C	-0.218378	-1.585526	-0.951825
C67	C	-0.218359	-1.585551	-1.061549
C68	C	-0.285222	-1.451061	-1.061490
C69	C	-0.285238	-1.451032	-0.951768
C70	C	-0.184957	-1.652765	-0.896995
C71	C	-0.151516	-1.720027	-0.951882
C72	C	-0.151497	-1.720052	-1.061606
C73	C	-0.184919	-1.652815	-1.116444
C74	C	-0.251907	-1.518152	-0.233161
C75	C	-0.251782	-1.518325	-0.116385
H76	H	-0.185091	-0.819744	-0.640753
H77	H	-0.124301	-1.774763	-0.907226
C78	C	-0.114710	-1.794037	-1.121978
N79	N	-0.087002	-1.849770	-1.167449
C80	C	-0.945487	-1.377209	-0.647205
N81	N	-0.922881	-1.321498	-0.702843
C82	C	-0.322025	-1.377052	-0.891389
N83	N	-0.349733	-1.321328	-0.845912
H84	H	-0.312482	-0.919056	-0.384005
C85	C	-0.808960	-1.309896	-0.714321
N86	N	-0.831574	-1.254209	-0.769964
C87	C	-0.184893	-1.652841	-1.237144
N88	N	-0.184875	-1.652865	-1.328054
C89	C	-0.184973	-1.652740	-0.776297
N90	N	-0.184985	-1.652720	-0.685386
C91	C	-0.322011	-1.133789	-0.364754
N92	N	-0.349680	-1.179195	-0.308978
H93	H	-0.312432	-1.396319	-1.106148
H94	H	-1.052322	-1.640426	-0.384437
C95	C	-0.557802	-1.376912	-0.647103
N96	N	-0.580424	-1.321232	-0.702742
H97	H	-0.450910	-1.639981	-0.384292
H98	H	-0.702079	-1.707406	-0.317228
C99	C	-0.185072	-1.249235	-0.640757
N100	N	-0.185062	-1.340145	-0.640753
C101	C	-0.443130	-1.376838	-0.647072
N102	N	-0.420507	-1.321137	-0.702691
C103	C	-0.808924	-1.726696	-0.298062
N104	N	-0.831527	-1.782411	-0.242424
C105	C	-0.114949	-1.134154	-0.782123
N106	N	-0.087275	-1.179659	-0.837893
C107	C	-0.694309	-1.309824	-0.714292
N108	N	-0.671700	-1.254106	-0.769917
C109	C	-0.114963	-0.903735	-0.782138
N110	N	-0.087295	-0.858336	-0.837921
H111	H	-0.549961	-1.640077	-0.384324
H112	H	-0.953256	-1.640360	-0.384405
C113	C	-1.060138	-1.377268	-0.647202
N114	N	-1.082756	-1.321576	-0.702836
