data_functionalizedCrystal
_audit_creation_method	'MofGen! by Chris Wilmer'
_symmetry_space_group_name_H-M	'P1'
_symmetry_Int_Tables_number	1
_symmetry_cell_setting	triclinic
loop_
_symmetry_equiv_pos_as_xyz
  x,y,z
_cell_length_a	14.519709
_cell_length_b	14.519709
_cell_length_c	13.448316
_cell_angle_alpha	90.007547
_cell_angle_beta	90.001142
_cell_angle_gamma	83.680145
loop_
_atom_site_label
_atom_site_type_symbol
_atom_site_fract_x
_atom_site_fract_y
_atom_site_fract_z
O1	O	1.223870	0.120893	0.082565
O2	O	1.557204	0.454227	0.415898
O3	O	1.890537	0.787560	0.749231
O4	O	0.955393	0.135130	0.082595
O5	O	1.288727	0.468463	0.415929
O6	O	1.622060	0.801797	0.749262
O7	O	1.096750	-0.006227	0.082570
O8	O	1.430083	0.327107	0.415903
O9	O	1.763417	0.660440	0.749237
O10	O	1.082514	0.262250	0.082590
O11	O	1.415847	0.595583	0.415923
O12	O	1.749180	0.928917	0.749256
O13	O	1.096732	-0.006236	-0.082814
O14	O	1.430066	0.327098	0.250520
O15	O	1.763399	0.660431	0.583853
O16	O	0.955376	0.135121	-0.082789
O17	O	1.288709	0.468455	0.250545
O18	O	1.622042	0.801788	0.583878
O19	O	1.223852	0.120885	-0.082819
O20	O	1.557186	0.454218	0.250514
O21	O	1.890519	0.787551	0.583847
Cu22	Cu	1.089612	0.128002	-0.097905
Cu23	Cu	1.422946	0.461335	0.235429
Cu24	Cu	1.756279	0.794669	0.568762
Cu25	Cu	1.089633	0.128012	0.097681
Cu26	Cu	1.422967	0.461346	0.431014
Cu27	Cu	1.756300	0.794679	0.764347
O28	O	1.082496	0.262241	-0.082794
O29	O	1.415829	0.595575	0.250539
O30	O	1.749162	0.928908	0.583872
C31	C	0.921025	0.134462	-0.000093
C32	C	1.254358	0.467795	0.333240
C33	C	1.587691	0.801129	0.666574
C34	C	0.818643	0.132474	-0.000081
C35	C	1.151977	0.465807	0.333252
C36	C	1.485310	0.799141	0.666585
C37	C	0.443748	0.125154	-0.000127
C38	C	0.777081	0.458488	0.333206
C39	C	1.110414	0.791821	0.666539
C40	C	0.548056	0.127187	-0.000114
C41	C	0.881389	0.460520	0.333219
C42	C	1.214722	0.793854	0.666552
C43	C	0.631192	0.128814	-0.000103
C44	C	0.964526	0.462147	0.333230
C45	C	1.297859	0.795481	0.666563
C46	C	0.735507	0.130847	-0.000092
C47	C	1.068840	0.464180	0.333241
C48	C	1.402173	0.797514	0.666574
C49	C	1.096078	-0.040591	-0.000122
C50	C	1.429411	0.292742	0.333211
C51	C	1.762744	0.626076	0.666545
C52	C	1.094090	-0.142972	-0.000122
C53	C	1.427423	0.190361	0.333211
C54	C	1.760756	0.523694	0.666544
C55	C	1.086770	-0.517868	-0.000096
C56	C	1.420103	-0.184535	0.333238
C57	C	1.753437	0.148799	0.666571
C58	C	1.088803	-0.413560	-0.000103
C59	C	1.422136	-0.080227	0.333230
C60	C	1.755469	0.253107	0.666563
C61	C	1.090430	-0.330423	-0.000110
C62	C	1.423763	0.002910	0.333224
C63	C	1.757096	0.336243	0.666557
C64	C	1.092463	-0.226109	-0.000116
C65	C	1.425796	0.107224	0.333218
C66	C	1.759129	0.440558	0.666551
C67	C	1.258221	0.121553	-0.000129
C68	C	1.591554	0.454886	0.333204
C69	C	1.924888	0.788219	0.666538
C70	C	1.360602	0.123541	-0.000134
C71	C	1.693936	0.456874	0.333199
C72	C	2.027269	0.790207	0.666533
C73	C	1.083168	0.296605	-0.000100
C74	C	1.416501	0.629939	0.333233
C75	C	1.749835	0.963272	0.666567
C76	C	1.085156	0.398987	-0.000093
C77	C	1.418490	0.732320	0.333240
C78	C	1.751823	1.065653	0.666574
N79	N	1.089604	0.127994	-0.235469
N80	N	1.422938	0.461328	0.097864
N81	N	1.756271	0.794661	0.431198
C82	C	1.152217	0.065427	-0.287521
C83	C	1.485550	0.398761	0.045813
C84	C	1.818883	0.732094	0.379146
C85	C	1.152222	0.065427	-0.391624
C86	C	1.485556	0.398760	-0.058290
C87	C	1.818889	0.732093	0.275043
C88	C	1.089620	0.127998	-0.443674
C89	C	1.422953	0.461331	-0.110340
C90	C	1.756286	0.794665	0.222993
C91	C	1.027001	0.190568	-0.391615
C92	C	1.360334	0.523901	-0.058282
C93	C	1.693667	0.857235	0.275052
C94	C	1.026991	0.190563	-0.287514
C95	C	1.360325	0.523897	0.045820
C96	C	1.693658	0.857230	0.379153
C97	C	1.027026	0.190574	-0.608595
C98	C	1.360360	0.523907	-0.275262
C99	C	1.693693	0.857241	0.058072
C100	C	1.027037	0.190580	-0.712704
C101	C	1.360370	0.523913	-0.379370
C102	C	1.693703	0.857247	-0.046037
C103	C	1.152257	0.065437	-0.712705
C104	C	1.485591	0.398771	-0.379372
C105	C	1.818924	0.732104	-0.046039
C106	C	1.152248	0.065433	-0.608604
C107	C	1.485581	0.398766	-0.275271
C108	C	1.818915	0.732099	0.058063
C109	C	1.089630	0.128004	-0.556552
C110	C	1.422963	0.461338	-0.223219
C111	C	1.756297	0.794671	0.110114
N112	N	1.089649	0.128013	0.235245
N113	N	1.422982	0.461346	0.568578
N114	N	1.756315	0.794680	0.901912
H115	H	1.203199	0.014478	-0.245148
H116	H	1.536532	0.347812	0.088185
H117	H	1.869865	0.681145	0.421518
H118	H	1.203243	0.014490	-0.755092
H119	H	1.536576	0.347823	-0.421758
H120	H	1.869909	0.681156	-0.088425
H121	H	1.203228	0.014487	-0.566225
H122	H	1.536561	0.347820	-0.232892
H123	H	1.869895	0.681154	0.100442
H124	H	1.203205	0.014479	-0.434004
H125	H	1.536539	0.347813	-0.100670
H126	H	1.869872	0.681146	0.232663
H127	H	0.976058	0.241531	-0.755077
H128	H	1.309391	0.574864	-0.421744
H129	H	1.642725	0.908198	-0.088411
H130	H	0.976033	0.241524	-0.566218
H131	H	1.309366	0.574857	-0.232885
H132	H	1.642700	0.908190	0.100449
H133	H	0.976024	0.241512	-0.434000
H134	H	1.309357	0.574845	-0.100667
H135	H	1.642690	0.908178	0.232667
H136	H	0.976005	0.241511	-0.245134
H137	H	1.309338	0.574844	0.088199
H138	H	1.642671	0.908177	0.421532
