data_functionalizedCrystal
_audit_creation_method	'MofGen! by Chris Wilmer'
_symmetry_space_group_name_H-M	'P1'
_symmetry_Int_Tables_number	1
_symmetry_cell_setting	triclinic
loop_
_symmetry_equiv_pos_as_xyz
  x,y,z
_cell_length_a	14.519731
_cell_length_b	17.038272
_cell_length_c	13.596369
_cell_angle_alpha	90.006163
_cell_angle_beta	90.005416
_cell_angle_gamma	87.400204
loop_
_atom_site_label
_atom_site_type_symbol
_atom_site_fract_x
_atom_site_fract_y
_atom_site_fract_z
O1	O	1.231705	0.102582	0.081795
O2	O	0.964153	0.114636	0.081796
O3	O	1.096339	-0.005209	0.081788
O4	O	1.099519	0.222427	0.081803
O5	O	1.096324	-0.005215	-0.081795
O6	O	0.964138	0.114629	-0.081787
O7	O	1.231690	0.102576	-0.081788
Zn8	Zn	1.097912	0.108602	-0.107760
Zn9	Zn	1.097931	0.108610	0.107768
O10	O	1.099505	0.222421	-0.081780
C11	C	0.929743	0.114068	0.000005
C12	C	0.827233	0.112375	0.000005
C13	C	0.743984	0.111000	0.000009
C14	C	0.639544	0.109282	0.000010
C15	C	0.556300	0.107918	0.000009
C16	C	0.451854	0.106200	0.000011
C17	C	1.093439	-0.034345	-0.000004
C18	C	1.084809	-0.121153	-0.000003
C19	C	1.164041	-0.171133	-0.000005
C20	C	1.155927	-0.252698	0.000005
C21	C	1.068580	-0.284280	0.000008
C22	C	0.989342	-0.234293	0.000013
C23	C	0.997457	-0.152730	0.000011
C24	C	1.039911	-0.530086	0.000022
C25	C	1.031802	-0.611655	0.000021
C26	C	1.198388	-0.630054	0.000015
C27	C	1.206496	-0.548489	0.000007
C28	C	1.127257	-0.498509	0.000016
C29	C	1.060284	-0.367651	0.000015
C30	C	1.135554	-0.415140	0.000017
C31	C	1.266100	0.103144	0.000005
C32	C	1.368610	0.104836	0.000011
C33	C	1.102404	0.251557	0.000014
C34	C	1.111034	0.338364	0.000020
N35	N	1.097906	0.108595	-0.254852
C36	C	1.097930	0.108611	-0.656143
C37	C	1.097921	0.108609	-0.544491
C38	C	1.097918	0.108604	-0.455501
C39	C	1.097908	0.108601	-0.343842
N40	N	1.097945	0.108610	0.254860
H41	H	1.220447	-0.293389	0.000001
O42	O	1.220451	-0.384558	-0.000116
C43	C	1.269121	-0.410073	-0.084853
H44	H	1.239549	-0.466681	-0.113098
H45	H	1.345044	-0.421274	-0.065804
H46	H	1.262128	-0.362897	-0.144177
O47	O	0.946877	-0.642205	0.000080
C48	C	0.878679	-0.580602	0.000067
H49	H	0.908883	-0.525154	0.031032
H50	H	0.818094	-0.597733	0.047571
H51	H	0.853911	-0.569106	-0.078407
H52	H	0.989165	-0.393374	0.000016
H53	H	0.932937	-0.112036	0.000012
H54	H	1.235169	-0.145426	-0.000014
H55	H	1.277623	-0.522782	0.000003
H56	H	0.975389	-0.489401	0.000030
O57	O	0.904543	-0.265062	0.000148
C58	C	0.894865	-0.311669	0.084881
H59	H	0.965969	-0.331874	0.113125
H60	H	0.853907	-0.365132	0.065826
H61	H	0.856894	-0.275691	0.144207
H62	H	1.262899	-0.670756	0.000009
