data_functionalizedCrystal
_audit_creation_method	'MofGen! by Chris Wilmer'
_symmetry_space_group_name_H-M	'P1'
_symmetry_Int_Tables_number	1
_symmetry_cell_setting	triclinic
loop_
_symmetry_equiv_pos_as_xyz
  x,y,z
_cell_length_a	25.639242
_cell_length_b	16.994747
_cell_length_c	25.639233
_cell_angle_alpha	89.993240
_cell_angle_beta	90.022166
_cell_angle_gamma	90.006589
loop_
_atom_site_label
_atom_site_type_symbol
_atom_site_fract_x
_atom_site_fract_y
_atom_site_fract_z
Zn1	Zn	0.799326	-0.314218	0.295835
Zn2	Zn	0.799291	-0.446103	0.208438
Zn3	Zn	0.711902	-0.314207	0.208399
Zn4	Zn	0.711889	-0.446074	0.295828
O5	O	0.755602	-0.380150	0.252125
O6	O	0.872486	-0.331730	0.284261
O7	O	0.787690	-0.428614	0.135268
O8	O	0.723518	-0.203827	0.219984
O9	O	0.872461	-0.428625	0.220051
O10	O	0.787748	-0.203835	0.284223
O11	O	0.723485	-0.331710	0.135239
O12	O	0.638735	-0.331682	0.219977
O13	O	0.723497	-0.428575	0.368994
O14	O	0.638726	-0.428564	0.284211
O15	O	0.787736	-0.331702	0.368999
O16	O	0.787677	-0.556480	0.220044
O17	O	0.723463	-0.556459	0.284249
C18	C	0.619759	-0.380119	0.252090
C19	C	0.561645	-0.380125	0.252087
C20	C	0.755572	-0.585090	0.252149
C21	C	0.755575	-0.674412	0.252147
Zn22	Zn	0.711917	-0.945293	0.208384
Zn23	Zn	0.799349	-0.945283	0.295812
Zn24	Zn	0.711907	-0.813466	0.295819
Zn25	Zn	0.799301	-0.813358	0.208421
O26	O	0.755618	-0.879350	0.252109
O27	O	0.723539	-1.055673	0.219963
O28	O	0.787765	-0.927838	0.368978
O29	O	0.638743	-0.831003	0.284209
O30	O	0.787775	-1.055666	0.284196
O31	O	0.638750	-0.927855	0.219971
O32	O	0.723522	-0.830993	0.368984
O33	O	0.723476	-0.703071	0.284244
O34	O	0.787693	-0.830819	0.135251
O35	O	0.787683	-0.702991	0.220033
O36	O	0.723492	-0.927751	0.135224
O37	O	0.872508	-0.927734	0.284232
O38	O	0.872472	-0.830809	0.220026
C39	C	0.201286	-0.430681	0.285540
C40	C	0.146682	-0.430686	0.285548
O41	O	0.118449	-0.473632	0.313961
N42	N	0.119363	-0.380172	0.252159
C43	C	0.146651	-0.329644	0.218764
O44	O	0.118400	-0.286678	0.190365
C45	C	0.201254	-0.329636	0.218758
C46	C	0.228570	-0.380159	0.252146
C47	C	0.228603	-0.481199	0.318925
C48	C	0.283203	-0.481195	0.318916
C49	C	0.310487	-0.430673	0.285522
C50	C	0.283171	-0.380155	0.252137
C51	C	0.228541	-0.279105	0.185366
C52	C	0.283148	-0.279101	0.185364
C53	C	0.310464	-0.329624	0.218751
C54	C	0.365056	-0.329629	0.218733
N55	N	0.392375	-0.380143	0.252122
C56	C	0.365091	-0.430665	0.285517
C57	C	0.031980	-0.329664	0.218778
C58	C	-0.022622	-0.329676	0.218780
C59	C	-0.022587	-0.430717	0.285565
C60	C	0.032016	-0.430709	0.285560
C61	C	0.059299	-0.380178	0.252167
C62	C	0.479756	-0.430653	0.285495
C63	C	0.534361	-0.430647	0.285481
C64	C	0.534321	-0.329604	0.218698
C65	C	0.479721	-0.329612	0.218709
C66	C	0.452439	-0.380140	0.252112
O67	O	0.393324	-0.286702	0.190336
O68	O	0.393348	-0.473617	0.313916
C69	C	0.891975	-0.380182	0.252161
C70	C	0.950089	-0.380196	0.252176
C71	C	0.755619	-0.380137	0.388498
C72	C	0.755626	-0.380131	0.446612
C73	C	0.755635	-0.174410	0.252098
C74	C	0.755651	-0.085088	0.252087
C75	C	0.755615	-0.380107	0.116283
C76	C	0.755709	-0.379891	0.058169
C77	C	0.789118	-0.329539	0.806984
C78	C	0.789124	-0.329517	0.861588
O79	O	0.817558	-0.286595	0.889832
N80	N	0.755684	-0.379946	0.888895
C81	C	0.722231	-0.430394	0.861595
O82	O	0.693787	-0.473285	0.889835
C83	C	0.722222	-0.430411	0.806991
C84	C	0.755668	-0.379985	0.779687
C85	C	0.822561	-0.279115	0.779680
C86	C	0.822555	-0.279139	0.725079
C87	C	0.789106	-0.329585	0.697783
C88	C	0.755662	-0.380008	0.725087
C89	C	0.688767	-0.480855	0.779692
C90	C	0.688761	-0.480868	0.725085
C91	C	0.722207	-0.430441	0.697781
C92	C	0.722207	-0.430477	0.643190
N93	N	0.755648	-0.380048	0.615883
C94	C	0.789097	-0.329602	0.643179
C95	C	0.722251	-0.430353	0.976265
C96	C	0.722262	-0.430340	1.030868
C97	C	0.789155	-0.329462	1.030857
C98	C	0.789146	-0.329479	0.976254
C99	C	0.755691	-0.379924	0.948958
C100	C	0.789083	-0.329655	0.528514
C101	C	0.789075	-0.329684	0.473909
C102	C	0.722181	-0.430560	0.473924
C103	C	0.722190	-0.430533	0.528524
C104	C	0.755642	-0.380074	0.555818
O105	O	0.693787	-0.473375	0.614911
O106	O	0.817531	-0.286711	0.614932
C107	C	0.891461	-0.879261	0.252133
C108	C	0.949575	-0.879245	0.252159
C109	C	0.755588	-0.879274	0.115736
C110	C	0.755576	-0.879241	0.057622
C111	C	0.619245	-0.879442	0.252086
C112	C	0.561131	-0.879481	0.252077
C113	C	0.755611	-0.879471	0.387952
C114	C	0.755477	-0.879654	0.446065
C115	C	0.976869	-0.929749	0.285572
C116	C	1.031473	-0.929750	0.285597
C117	C	1.058783	-0.879243	0.252210
C118	C	1.031485	-0.828737	0.218793
C119	C	0.976881	-0.828741	0.218766
C120	C	0.722140	-0.929694	0.030314
C121	C	0.722118	-0.929663	-0.024290
C122	C	0.755534	-0.879184	-0.051586
C123	C	0.788971	-0.828726	-0.024274
C124	C	0.788991	-0.828753	0.030330
C125	C	0.533834	-0.829068	0.285518
C126	C	0.479229	-0.829089	0.285509
C127	C	0.451924	-0.879529	0.252061
C128	C	0.479225	-0.929944	0.218616
C129	C	0.533828	-0.929919	0.218623
C130	C	0.722207	-0.828952	0.473337
C131	C	0.722071	-0.829124	0.527941
C132	C	0.755210	-0.879994	0.555273
C133	C	0.788482	-0.930701	0.527998
C134	C	0.788615	-0.930533	0.473394
H135	H	0.457550	-0.471796	0.312696
H136	H	0.206394	-0.522341	0.346122
C137	C	0.685884	-0.984629	0.059875
C138	C	0.697267	-1.062658	0.046569
C139	C	0.663870	-1.113284	0.073781
H140	H	0.690646	-0.977534	0.096315
H141	H	0.650742	-0.973142	0.050911
H142	H	0.732400	-1.074140	0.055536
H143	H	0.692502	-1.069778	0.010133
H144	H	0.628728	-1.101798	0.064817
H145	H	0.668634	-1.106182	0.110219
H146	H	0.671585	-1.166232	0.064753
C147	C	0.449480	-0.984679	0.182363
C148	C	0.395820	-0.973920	0.189532
C149	C	0.368401	-1.024339	0.156153
H150	H	0.458349	-0.973170	0.147212
H151	H	0.458407	-1.037694	0.190016
H152	H	0.386897	-0.920917	0.181876
H153	H	0.386935	-0.985435	0.224676
H154	H	0.377327	-1.077354	0.163806
H155	H	0.377274	-1.012826	0.121005
H156	H	0.331990	-1.017051	0.161016
H157	H	-0.044812	-0.471852	0.312759
C158	C	0.312921	-0.535913	0.355204
C159	C	0.344293	-0.491320	0.388746
C160	C	0.371677	-0.541699	0.422182
H161	H	0.288904	-0.566013	0.375142
H162	H	0.334243	-0.570230	0.335192
H163	H	0.322973	-0.457017	0.408756
H164	H	0.368320	-0.461222	0.368823
H165	H	0.392999	-0.576016	0.402170
H166	H	0.347656	-0.571796	0.442115
H167	H	0.392970	-0.511450	0.444940
C168	C	0.563857	-0.274727	0.182383
C169	C	0.528251	-0.230495	0.153133
C170	C	0.555441	-0.179940	0.119670
H171	H	0.585172	-0.240335	0.202355
H172	H	0.585132	-0.304834	0.159545
H173	H	0.506985	-0.200390	0.175967
H174	H	0.506934	-0.264867	0.133150
H175	H	0.576717	-0.210048	0.096833
H176	H	0.576756	-0.145553	0.139646
H177	H	0.531287	-0.149929	0.099817
H178	H	0.407462	-0.879539	0.252058
C179	C	1.061009	-0.984611	0.321941
C180	C	1.025402	-1.028816	0.351187
C181	C	1.052589	-1.079353	0.384678
H182	H	1.082312	-1.019020	0.301991
H183	H	1.082298	-0.954492	0.344781
H184	H	1.004122	-1.058934	0.328350
H185	H	1.004098	-0.994428	0.371148
H186	H	1.073877	-1.049234	0.407518
H187	H	1.073890	-1.113757	0.364723
H188	H	1.028433	-1.109347	0.404529
H189	H	0.816321	-0.288564	0.550730
C190	C	0.686308	-0.773624	0.443643
C191	C	0.716209	-0.723250	0.412452
C192	C	0.683154	-0.672265	0.385102
H193	H	0.663431	-0.803407	0.422199
H194	H	0.666485	-0.743414	0.467696
H195	H	0.736024	-0.753457	0.388402
H196	H	0.739086	-0.693450	0.433883
H197	H	0.663330	-0.642055	0.409154
H198	H	0.660278	-0.702055	0.363660
H199	H	0.703437	-0.638076	0.363939
H200	H	1.053728	-0.787616	0.191610
H201	H	0.849800	-0.238032	0.801899
H202	H	0.694978	-0.787829	0.550140
C203	C	0.947178	-0.773869	0.182569
C204	C	0.915815	-0.723377	0.212187
C205	C	0.888440	-0.672830	0.178855
H206	H	0.971201	-0.743714	0.162675
H207	H	0.925850	-0.803990	0.159767
H208	H	0.937141	-0.693258	0.234980
H209	H	0.891783	-0.753510	0.232080
H210	H	0.867113	-0.702952	0.156053
H211	H	0.912467	-0.642681	0.158962
H212	H	0.867154	-0.638571	0.198945
H213	H	0.954641	-0.970877	0.312763
C214	C	0.755630	-0.879167	-0.110870
C215	C	0.805411	-0.899233	-0.128930
C216	C	0.805522	-0.899219	-0.183539
H217	H	0.730972	-0.916444	-0.123293
H218	H	0.746603	-0.828258	-0.123240
H219	H	0.814431	-0.950133	-0.116565
H220	H	0.830078	-0.861962	-0.116521
H221	H	0.796495	-0.848311	-0.195910
H222	H	0.780862	-0.936497	-0.195957
H223	H	0.839299	-0.912827	-0.195800
C224	C	0.825274	-0.773841	-0.053819
C225	C	0.854556	-0.729643	-0.018222
C226	C	0.888001	-0.679073	-0.045422
H227	H	0.848096	-0.803912	-0.075123
H228	H	0.805271	-0.739434	-0.075107
H229	H	0.874557	-0.764046	0.003057
H230	H	0.831748	-0.699557	0.003083
H231	H	0.867998	-0.644666	-0.066710
H232	H	0.910819	-0.709150	-0.066725
H233	H	0.907869	-0.649074	-0.021274
H234	H	-0.044858	-0.288543	0.191587
H235	H	0.054253	-0.471848	0.312748
C236	C	0.824527	-0.985795	0.557706
C237	C	0.858169	-0.941559	0.589192
C238	C	0.891386	-0.992279	0.616564
H239	H	0.804378	-1.020036	0.578952
H240	H	0.844395	-1.015958	0.533665
H241	H	0.838302	-0.911408	0.613230
H242	H	0.878329	-0.907320	0.567959
H243	H	0.911255	-1.022443	0.592523
H244	H	0.871234	-1.026517	0.637806
H245	H	0.914220	-0.962272	0.637927
H246	H	0.054191	-0.288517	0.191581
H247	H	0.816221	-0.787670	0.052560
C248	C	0.198987	-0.224158	0.149099
C249	C	0.234579	-0.179900	0.119870
C250	C	0.207375	-0.129262	0.086460
H251	H	0.177670	-0.254183	0.126242
H252	H	0.177711	-0.189793	0.169123
H253	H	0.255846	-0.214260	0.099847
H254	H	0.255897	-0.149859	0.142714
H255	H	0.186099	-0.094897	0.106485
H256	H	0.186059	-0.159293	0.063606
H257	H	0.231519	-0.099221	0.066628
H258	H	0.457008	-0.788034	0.312745
H259	H	1.103244	-0.879248	0.252237
C260	C	0.312837	-0.224369	0.149074
C261	C	0.344174	-0.268950	0.115525
C262	C	0.371536	-0.218561	0.082092
H263	H	0.288806	-0.194265	0.129143
H264	H	0.334181	-0.190056	0.169088
H265	H	0.322833	-0.303249	0.095513
H266	H	0.368215	-0.299052	0.135442
H267	H	0.392879	-0.184248	0.102106
H268	H	0.347501	-0.188460	0.062164
H269	H	0.392805	-0.248802	0.059328
H270	H	0.457479	-0.288474	0.191521
H271	H	0.816313	-0.288620	0.451680
H272	H	0.815711	-0.971818	0.451195
H273	H	0.556059	-0.787991	0.312755
H274	H	0.849790	-0.238074	0.702853
C275	C	0.686018	-0.485182	0.946564
C276	C	0.715608	-0.535744	0.915227
C277	C	0.682249	-0.586255	0.887857
H278	H	0.666094	-0.515287	0.970590
H279	H	0.663244	-0.455038	0.925221
H280	H	0.738373	-0.565886	0.936569
H281	H	0.735531	-0.505661	0.891191
H282	H	0.659476	-0.556111	0.866513
H283	H	0.662327	-0.616354	0.911886
H284	H	0.702321	-0.620562	0.866587
C285	C	0.685902	-0.984501	-0.054003
C286	C	0.715508	-1.035005	-0.085367
C287	C	0.682166	-1.085526	-0.112749
H288	H	0.665997	-1.014648	-0.029984
H289	H	0.663110	-0.954361	-0.075330
H290	H	0.738291	-1.065142	-0.064042
H291	H	0.735413	-1.004880	-0.109395
H292	H	0.659374	-1.055386	-0.134076
H293	H	0.662262	-1.115667	-0.088727
H294	H	0.702249	-1.119794	-0.134036
C295	C	0.825476	-0.274639	0.946706
C296	C	0.854761	-0.230448	0.982305
C297	C	0.888229	-0.179910	0.955109
H298	H	0.848296	-0.304732	0.925414
H299	H	0.805490	-0.240226	0.925407
H300	H	0.874745	-0.264856	1.003596
H301	H	0.831955	-0.200338	1.003599
H302	H	0.868243	-0.145497	0.933809
H303	H	0.911045	-0.210010	0.933817
H304	H	0.908099	-0.149916	0.979258
C305	C	0.563557	-0.984581	0.182339
C306	C	0.617222	-0.973761	0.189489
C307	C	0.644620	-1.024098	0.156067
H308	H	0.554675	-1.037616	0.189953
H309	H	0.554627	-0.973019	0.147198
H310	H	0.626148	-0.985329	0.224622
H311	H	0.626119	-0.920737	0.181872
H312	H	0.635690	-1.012536	0.120926
H313	H	0.635734	-1.077130	0.163684
H314	H	0.681034	-1.016759	0.160911
H315	H	0.816390	-0.288384	1.053092
C316	C	0.755015	-0.880313	0.614556
C317	C	0.741278	-0.955316	0.632499
C318	C	0.741086	-0.955631	0.687108
H319	H	0.788770	-0.867103	0.627082
H320	H	0.730439	-0.842863	0.626902
H321	H	0.765853	-0.992754	0.620159
H322	H	0.707523	-0.968541	0.619988
H323	H	0.716510	-0.918181	0.699454
H324	H	0.774842	-0.942419	0.699629
H325	H	0.731761	-1.006517	0.699289
H326	H	0.695032	-0.471411	1.053094
H327	H	0.556600	-0.471792	0.312670
H328	H	0.661511	-0.521939	0.702864
C329	C	0.652427	-0.535480	0.809398
C330	C	0.618935	-0.490805	0.840739
C331	C	0.585456	-0.541103	0.868118
H332	H	0.632455	-0.565542	0.785378
H333	H	0.672410	-0.569835	0.830741
H334	H	0.598953	-0.456464	0.819399
H335	H	0.638892	-0.460744	0.864770
H336	H	0.605440	-0.575458	0.889461
H337	H	0.565488	-0.571163	0.844094
H338	H	0.562732	-0.510799	0.889390
C339	C	0.685965	-0.485378	0.558202
C340	C	0.715558	-0.535942	0.589568
C341	C	0.682202	-0.586474	0.616905
H342	H	0.663182	-0.455274	0.579527
H343	H	0.666052	-0.515473	0.534141
H344	H	0.735462	-0.505849	0.613626
H345	H	0.738340	-0.566062	0.568255
H346	H	0.662288	-0.616570	0.592845
H347	H	0.659420	-0.556364	0.638228
H348	H	0.702276	-0.620792	0.638186
C349	C	0.685884	-0.485239	0.444187
C350	C	0.693029	-0.474442	0.390525
C351	C	0.659594	-0.524787	0.363114
H352	H	0.693488	-0.538272	0.453083
H353	H	0.650746	-0.473670	0.453092
H354	H	0.728159	-0.486017	0.381623
H355	H	0.685421	-0.421420	0.381613
H356	H	0.624456	-0.513218	0.372019
H357	H	0.667201	-0.577816	0.372014
H358	H	0.664434	-0.517463	0.326701
