data_functionalizedCrystal
_audit_creation_method	'MofGen! by Chris Wilmer'
_symmetry_space_group_name_H-M	'P1'
_symmetry_Int_Tables_number	1
_symmetry_cell_setting	triclinic
loop_
_symmetry_equiv_pos_as_xyz
  x,y,z
_cell_length_a	12.594516
_cell_length_b	19.077105
_cell_length_c	19.077174
_cell_angle_alpha	94.516248
_cell_angle_beta	92.277804
_cell_angle_gamma	92.287367
loop_
_atom_site_label
_atom_site_type_symbol
_atom_site_fract_x
_atom_site_fract_y
_atom_site_fract_z
Zn1	Zn	-0.517166	-1.093758	-0.441877
Zn2	Zn	-0.687708	-1.088960	-0.324000
Zn3	Zn	-0.502287	-0.971142	-0.319274
Zn4	Zn	-0.687638	-0.975854	-0.437118
O5	O	-0.598700	-1.032429	-0.380567
O6	O	-0.546045	-1.191772	-0.430210
O7	O	-0.656914	-1.069351	-0.224723
O8	O	-0.355318	-0.987443	-0.335551
O9	O	-0.671341	-1.188248	-0.343607
O10	O	-0.366249	-1.077528	-0.425627
O11	O	-0.520686	-0.982790	-0.221250
O12	O	-0.520618	-0.873116	-0.330936
O13	O	-0.671223	-0.995475	-0.536400
O14	O	-0.656795	-0.876578	-0.417516
O15	O	-0.545977	-1.082098	-0.539896
O16	O	-0.836642	-1.073921	-0.338992
O17	O	-0.836590	-0.990822	-0.422099
C18	C	-0.587085	-0.849268	-0.373197
C19	C	-0.582143	-0.770912	-0.370061
C20	C	-0.875237	-1.032382	-0.380559
C21	C	-0.993547	-1.032428	-0.380581
C22	C	-0.610252	-1.039847	-0.564442
C23	C	-0.615174	-1.043008	-0.642798
C24	C	-1.062809	-0.987224	-0.425750
C25	C	-1.128514	-0.967469	-0.360734
C26	C	-1.138645	-1.052247	-0.445610
C27	C	-1.057690	-1.012637	-0.315530
C28	C	-1.067820	-1.097447	-0.400450
C29	C	-1.133492	-1.077715	-0.335392
C30	C	-0.321084	-1.032495	-0.380592
C31	C	-0.202781	-1.032523	-0.380603
C32	C	-0.610360	-1.216304	-0.387967
C33	C	-0.615329	-1.294661	-0.391120
C34	C	-0.650820	-0.735918	-0.413594
C35	C	-0.646162	-0.662294	-0.410651
C36	C	-0.572833	-0.623666	-0.364170
C37	C	-0.504149	-0.658664	-0.320635
C38	C	-0.508802	-0.732287	-0.323583
C39	C	-0.551299	-0.403282	-0.350532
C40	C	-0.546653	-0.329655	-0.347586
C41	C	-0.688665	-0.333290	-0.437603
C42	C	-0.693316	-0.406914	-0.440544
C43	C	-0.624629	-0.441906	-0.397011
N44	N	-0.568073	-0.548410	-0.361159
N45	N	-0.629384	-0.517161	-0.400027
C46	C	-0.546562	-0.999428	-0.677802
C47	C	-0.551196	-1.002396	-0.751426
C48	C	-0.624438	-1.048948	-0.790045
C49	C	-0.693058	-1.092530	-0.755037
C50	C	-0.688428	-1.089558	-0.681414
C51	C	-0.645895	-1.062665	-1.010428
C52	C	-0.650517	-1.065635	-1.084056
C53	C	-0.508656	-0.975499	-1.080440
C54	C	-0.504028	-0.972535	-1.006816
C55	C	-0.572652	-1.016114	-0.971814
N56	N	-0.629174	-1.051984	-0.865301
N57	N	-0.567920	-1.013074	-0.896559
C58	C	-0.587119	-1.025079	-0.197410
C59	C	-0.581905	-1.022055	-0.119059
H60	H	-1.031765	-0.948924	-0.463887
H61	H	-0.444389	-0.934625	-0.975377
H62	H	-0.486914	-0.961524	-0.646363
Br63	Br	-0.458074	-0.450763	-0.291456
Br64	Br	-0.447139	-0.277229	-0.284493
Br65	Br	-0.415531	-0.916358	-1.127946
H66	H	-0.444438	-0.627207	-0.282793
H67	H	-1.164331	-1.115981	-0.297157
Br68	Br	-0.749911	-1.128826	-1.136468
Br69	Br	-0.739368	-0.614806	-0.469736
Br70	Br	-0.458130	-0.943210	-0.798926
Br71	Br	-1.023064	-1.189002	-0.428482
Br72	Br	-0.415589	-0.779780	-0.264503
Br73	Br	-0.739021	-1.121813	-0.962934
Br74	Br	-1.197638	-1.080121	-0.537253
Br75	Br	-0.792469	-1.155703	-0.807447
H76	H	-0.744585	-0.304791	-0.473046
Br77	Br	-0.750351	-0.788336	-0.476673
Br78	Br	-0.792844	-0.459334	-0.503623
H79	H	-0.744292	-1.125052	-0.652915
H80	H	-1.155368	-0.912529	-0.343946
Br81	Br	-0.998920	-0.984659	-0.223853
