data_functionalizedCrystal
_audit_creation_method	'MofGen! by Chris Wilmer'
_symmetry_space_group_name_H-M	'P1'
_symmetry_Int_Tables_number	1
_symmetry_cell_setting	triclinic
loop_
_symmetry_equiv_pos_as_xyz
  x,y,z
_cell_length_a	11.169417
_cell_length_b	19.077068
_cell_length_c	11.169409
_cell_angle_alpha	87.740935
_cell_angle_beta	90.019824
_cell_angle_gamma	92.327792
loop_
_atom_site_label
_atom_site_type_symbol
_atom_site_fract_x
_atom_site_fract_y
_atom_site_fract_z
Zn1	Zn	1.815630	-0.280126	0.697665
Zn2	Zn	2.148963	0.053207	1.030998
Zn3	Zn	2.482296	0.386540	1.364332
Zn4	Zn	1.807395	-0.397846	0.505018
Zn5	Zn	2.140728	-0.064513	0.838351
Zn6	Zn	2.474061	0.268820	1.171685
Zn7	Zn	1.614913	-0.280169	0.497002
Zn8	Zn	1.948246	0.053164	0.830336
Zn9	Zn	2.281579	0.386497	1.163669
Zn10	Zn	1.606803	-0.397789	0.705659
Zn11	Zn	1.940136	-0.064456	1.038992
Zn12	Zn	2.273469	0.268878	1.372326
O13	O	1.711185	-0.338983	0.601336
O14	O	2.044518	-0.005649	0.934669
O15	O	2.377851	0.327684	1.268003
O16	O	1.982486	-0.295748	0.672119
O17	O	2.315820	0.037585	1.005452
O18	O	2.649153	0.370918	1.338786
O19	O	1.781809	-0.382278	0.336008
O20	O	2.115142	-0.048945	0.669341
O21	O	2.448476	0.284388	1.002674
O22	O	1.648378	-0.181673	0.516921
O23	O	1.981712	0.151660	0.850254
O24	O	2.315045	0.484994	1.183587
O25	O	1.976436	-0.382237	0.530582
O26	O	2.309770	-0.048903	0.863915
O27	O	2.643103	0.284430	1.197249
O28	O	1.795844	-0.181642	0.664347
O29	O	2.129178	0.151692	0.997680
O30	O	2.462511	0.485025	1.331013
O31	O	1.640393	-0.295821	0.330119
O32	O	1.973727	0.037512	0.663452
O33	O	2.307060	0.370845	0.996785
O34	O	1.445887	-0.295766	0.524672
O35	O	1.779221	0.037568	0.858005
O36	O	2.112554	0.370901	1.191339
O37	O	1.634556	-0.382139	0.872546
O38	O	1.967890	-0.048806	1.205879
O39	O	2.301223	0.284528	1.539212
O40	O	1.439929	-0.382181	0.677971
O41	O	1.773262	-0.048847	1.011304
O42	O	2.106596	0.284486	1.344638
O43	O	1.787981	-0.295693	0.866672
O44	O	2.121314	0.037641	1.200006
O45	O	2.454647	0.370974	1.533339
O46	O	1.773945	-0.496329	0.538333
O47	O	2.107279	-0.162996	0.871667
O48	O	2.440612	0.170337	1.205000
O49	O	1.626571	-0.496287	0.685743
O50	O	1.959904	-0.162954	1.019077
O51	O	2.293238	0.170379	1.352410
C52	C	1.399361	-0.338972	0.601320
C53	C	1.732694	-0.005639	0.934653
C54	C	2.066028	0.327695	1.267987
C55	C	1.265960	-0.338984	0.601343
C56	C	1.599293	-0.005651	0.934676
C57	C	1.932627	0.327682	1.268009
C58	C	1.698517	-0.521846	0.613802
C59	C	2.031850	-0.188512	0.947135
C60	C	2.365184	0.144821	1.280469
C61	C	1.693208	-0.600075	0.619175
C62	C	2.026541	-0.266742	0.952508
C63	C	2.359874	0.066591	1.285842
C64	C	1.767503	-0.636826	0.545014
C65	C	2.100836	-0.303493	0.878348
C66	C	2.434169	0.029840	1.211681
C67	C	1.762516	-0.710331	0.550075
C68	C	2.095849	-0.376998	0.883408
C69	C	2.429182	-0.043665	1.216742
C70	C	1.683227	-0.747084	0.629291
C71	C	2.016561	-0.413751	0.962624
C72	C	2.349894	-0.080417	1.295958
C73	C	1.608929	-0.710328	0.703460
C74	C	1.942263	-0.376994	1.036793
C75	C	2.275596	-0.043661	1.370126
C76	C	1.613923	-0.636824	0.698404
C77	C	1.947256	-0.303491	1.031738
C78	C	2.280589	0.029843	1.365071
C79	C	1.660064	-0.966916	0.652640
C80	C	1.993397	-0.633583	0.985973
C81	C	2.326730	-0.300250	1.319306
C82	C	1.655073	-1.040425	0.657687
C83	C	1.988406	-0.707092	0.991020
C84	C	2.321740	-0.373758	1.324353
C85	C	1.808662	-1.040424	0.504303
C86	C	2.141995	-0.707090	0.837636
C87	C	2.475329	-0.373757	1.170970
C88	C	1.813643	-0.966918	0.499250
C89	C	2.146977	-0.633585	0.832583
C90	C	2.480310	-0.300252	1.165916
C91	C	1.739350	-0.930169	0.573423
C92	C	2.072683	-0.596835	0.906756
C93	C	2.406017	-0.263502	1.240089
N94	N	1.678125	-0.822218	0.634463
N95	N	2.011459	-0.488884	0.967796
N96	N	2.344792	-0.155551	1.301130
N97	N	1.744459	-0.855036	0.568256
N98	N	2.077792	-0.521703	0.901589
N99	N	2.411125	-0.188370	1.234922
C100	C	2.024226	-0.338994	0.601353
C101	C	2.357560	-0.005661	0.934686
C102	C	2.690893	0.327673	1.268020
C103	C	2.157626	-0.338999	0.601360
C104	C	2.490959	-0.005665	0.934694
C105	C	2.824293	0.327668	1.268027
C106	C	1.711282	-0.338905	0.914373
C107	C	2.044616	-0.005571	1.247707
C108	C	2.377949	0.327762	1.581040
C109	C	1.711324	-0.338871	1.047771
C110	C	2.044657	-0.005538	1.381105
C111	C	2.377991	0.327795	1.714438
C112	C	1.723935	-0.155406	0.588848
C113	C	2.057268	0.177928	0.922181
C114	C	2.390601	0.511261	1.255515
C115	C	1.729368	-0.077176	0.583526
C116	C	2.062701	0.256157	0.916860
C117	C	2.396035	0.589491	1.250193
C118	C	1.711160	-0.339010	0.289513
C119	C	2.044494	-0.005676	0.622847
C120	C	2.377827	0.327657	0.956180
C121	C	1.711365	-0.338845	0.156103
C122	C	2.044698	-0.005512	0.489436
C123	C	2.378031	0.327822	0.822769
H124	H	1.832062	-0.606907	0.480503
H125	H	2.165396	-0.273574	0.813836
H126	H	2.498729	0.059760	1.147170
H127	H	1.599569	-0.937001	0.713032
H128	H	1.932902	-0.603667	1.046365
H129	H	2.266235	-0.270334	1.379699
F130	F	1.898046	-0.927809	0.414950
F131	F	2.231380	-0.594475	0.748284
F132	F	2.564713	-0.261142	1.081617
H133	H	1.823014	-0.740251	0.489685
H134	H	2.156347	-0.406917	0.823018
H135	H	2.489680	-0.073584	1.156351
H136	H	1.553426	-0.606902	0.758795
H137	H	1.886759	-0.273569	1.092128
H138	H	2.220092	0.059764	1.425462
H139	H	1.590521	-1.070347	0.722215
H140	H	1.923854	-0.737014	1.055548
H141	H	2.257188	-0.403680	1.388882
F142	F	1.887730	-1.079540	0.425374
F143	F	2.221063	-0.746207	0.758707
F144	F	2.554397	-0.412874	1.092041
F145	F	1.524551	-0.749445	0.787775
F146	F	1.857884	-0.416111	1.121108
F147	F	2.191217	-0.082778	1.454441
