data_functionalizedCrystal
_audit_creation_method	'MofGen! by Chris Wilmer'
_symmetry_space_group_name_H-M	'P1'
_symmetry_Int_Tables_number	1
_symmetry_cell_setting	triclinic
loop_
_symmetry_equiv_pos_as_xyz
  x,y,z
_cell_length_a	16.992694
_cell_length_b	15.944551
_cell_length_c	16.053802
_cell_angle_alpha	92.564789
_cell_angle_beta	87.249047
_cell_angle_gamma	87.083481
loop_
_atom_site_label
_atom_site_type_symbol
_atom_site_fract_x
_atom_site_fract_y
_atom_site_fract_z
O1	O	1.043704	0.174798	-0.069327
O2	O	1.543704	0.674798	0.430673
O3	O	0.815419	0.172843	-0.069352
O4	O	1.315419	0.672843	0.430648
O5	O	0.935795	0.051964	-0.069332
O6	O	1.435795	0.551964	0.430668
O7	O	0.923328	0.295677	-0.069348
O8	O	1.423328	0.795677	0.430652
O9	O	0.929169	0.058588	0.069526
O10	O	1.429169	0.558588	0.569526
O11	O	0.808793	0.179467	0.069506
O12	O	1.308793	0.679467	0.569506
O13	O	1.037078	0.181422	0.069530
O14	O	1.537078	0.681422	0.569530
Zn15	Zn	0.921884	0.181497	0.091565
Zn16	Zn	1.421884	0.681497	0.591565
Zn17	Zn	0.930613	0.172769	-0.091386
Zn18	Zn	1.430613	0.672769	0.408614
O19	O	0.916702	0.302301	0.069510
O20	O	1.416702	0.802301	0.569510
C21	C	0.782894	0.173641	0.000074
C22	C	1.282894	0.673641	0.500074
C23	C	0.695850	0.166141	0.000065
C24	C	1.195850	0.666141	0.500065
C25	C	0.645613	0.238506	0.000061
C26	C	1.145613	0.738506	0.500061
C27	C	0.563826	0.231454	0.000073
C28	C	1.063826	0.731454	0.500073
C29	C	0.532276	0.152037	0.000083
C30	C	1.032276	0.652037	0.500083
C31	C	0.582519	0.079667	0.000089
C32	C	1.082519	0.579667	0.500089
C33	C	0.664305	0.086719	0.000083
C34	C	1.164305	0.586719	0.500083
C35	C	0.288676	0.122807	0.000107
C36	C	0.788676	0.622807	0.500107
C37	C	0.206884	0.115759	0.000111
C38	C	0.706884	0.615759	0.500111
C39	C	0.188196	0.267548	0.000095
C40	C	0.688196	0.767548	0.500095
C41	C	0.269984	0.274593	0.000084
C42	C	0.769984	0.774593	0.500084
C43	C	0.320220	0.202223	0.000095
C44	C	0.820220	0.702223	0.500095
N45	N	0.448677	0.144827	0.000092
N46	N	0.948677	0.644827	0.500092
N47	N	0.403818	0.209434	0.000092
N48	N	0.903818	0.709434	0.500092
C49	C	0.931964	0.023948	0.000097
C50	C	1.431964	0.523948	0.500097
C51	C	0.930413	-0.069402	0.000098
C52	C	1.430413	0.430598	0.500098
C53	C	0.852090	-0.289513	0.000078
C54	C	1.352090	0.210487	0.500078
C55	C	0.885194	-0.344825	0.068547
C56	C	1.385194	0.155175	0.568547
C57	C	0.927606	-0.240317	0.000091
C58	C	1.427606	0.259683	0.500091
C59	C	0.891744	-0.351338	-0.068356
C60	C	1.391744	0.148662	0.431644
C61	C	0.924889	-0.405412	0.000081
C62	C	1.424889	0.094588	0.500081
C63	C	0.960728	-0.294396	0.068617
C64	C	1.460728	0.205604	0.568617
C65	C	0.967271	-0.300907	-0.068348
C66	C	1.467271	0.199093	0.431652
C67	C	1.000429	-0.356196	0.000138
C68	C	1.500429	0.143804	0.500138
C69	C	0.929169	-0.145209	0.000098
C70	C	1.429169	0.354791	0.500098
C71	C	0.923332	-0.500518	0.000080
C72	C	1.423332	-0.000518	0.500080
C73	C	1.069603	0.180624	0.000103
C74	C	1.569603	0.680624	0.500103
C75	C	1.156648	0.188124	0.000106
C76	C	1.656648	0.688124	0.500106
C77	C	0.920533	0.330318	0.000079
C78	C	1.420533	0.830318	0.500079
C79	C	0.922085	0.423667	0.000073
C80	C	1.422085	0.923667	0.500073
N81	N	0.915931	0.187453	0.216424
N82	N	1.415931	0.687453	0.716424
N83	N	0.936572	0.166806	-0.216246
N84	N	1.436572	0.666806	0.283754
C85	C	0.967170	0.136040	0.260127
C86	C	1.467170	0.636040	0.760127
C87	C	0.963014	0.140215	0.347533
C88	C	1.463014	0.640215	0.847533
C89	C	0.907622	0.195808	0.391235
C90	C	1.407622	0.695808	0.891235
C91	C	0.856378	0.247223	0.347526
C92	C	1.356378	0.747223	0.847526
C93	C	0.860531	0.243043	0.260121
C94	C	1.360531	0.743043	0.760121
C95	C	0.889481	0.214042	0.652641
C96	C	1.389481	0.714042	1.152641
C97	C	0.885333	0.218220	0.740052
C98	C	1.385333	0.718220	1.240052
C99	C	0.991968	0.111209	0.740053
C100	C	1.491968	0.611209	1.240053
C101	C	0.996120	0.107038	0.652646
C102	C	1.496120	0.607038	1.152646
C103	C	0.944873	0.158450	0.608945
C104	C	1.444873	0.658450	1.108945
N105	N	0.903374	0.200078	0.480578
N106	N	1.403374	0.700078	0.980578
N107	N	0.949118	0.154175	0.519604
N108	N	1.449118	0.654175	1.019604
H109	H	0.705207	0.027792	0.000086
H110	H	1.205207	0.527792	0.500086
H111	H	0.789404	-0.260406	0.000139
H112	H	1.289404	0.239594	0.500139
C113	C	1.085141	-0.395393	0.000243
C114	C	1.585141	0.104607	0.500243
H115	H	1.095607	-0.431129	-0.048396
H116	H	1.595607	0.068871	0.451604
H117	H	1.090602	-0.427217	0.048454
H118	H	1.590602	0.072783	0.548454
H119	H	1.121468	-0.352032	0.000739
H120	H	1.621468	0.147968	0.500739
H121	H	0.818806	0.284908	0.224539
H122	H	1.318806	0.784908	0.724539
H123	H	1.001946	-0.281397	-0.126229
H124	H	1.501946	0.218603	0.373771
C125	C	0.838317	-0.371159	0.146733
C126	C	1.338317	0.128841	0.646733
H127	H	0.785625	-0.348197	0.146646
H128	H	1.285625	0.151803	0.646646
H129	H	0.862316	-0.350792	0.195353
H130	H	1.362316	0.149208	0.695353
H131	H	0.838076	-0.430740	0.146423
H132	H	1.338076	0.069260	0.646423
H133	H	0.862556	-0.376319	-0.126245
H134	H	1.362556	0.123681	0.373755
H135	H	1.041224	0.061770	0.617066
H136	H	1.541224	0.561770	1.117066
C137	C	1.000098	-0.260771	0.146905
C138	C	1.500098	0.239229	0.646905
H139	H	1.000814	-0.201253	0.146446
H140	H	1.500814	0.298747	0.646446
H141	H	1.052625	-0.284167	0.147113
H142	H	1.552625	0.215833	0.647113
H143	H	0.971127	-0.276137	0.195459
H144	H	1.471127	0.223863	0.695459
C145	C	0.680314	0.325863	0.000047
C146	C	1.180314	0.825863	0.500047
H147	H	0.736218	0.319702	0.000036
H148	H	1.236218	0.819702	0.500036
H149	H	0.660768	0.358203	0.048467
H150	H	1.160768	0.858203	0.548467
H151	H	0.665372	0.353576	-0.048384
H152	H	1.165372	0.853576	0.451616
C153	C	1.028101	0.074885	0.212062
C154	C	1.528101	0.574885	0.712062
H155	H	1.058015	0.044858	0.250612
H156	H	1.558015	0.544858	0.750612
H157	H	1.062361	0.105678	0.177954
H158	H	1.562361	0.605678	0.677954
H159	H	1.001509	0.036375	0.177979
H160	H	1.501509	0.536375	0.677979
H161	H	1.033690	0.069351	0.775642
H162	H	1.533690	0.569351	1.275642
C163	C	1.019384	0.083668	0.395602
C164	C	1.519384	0.583668	0.895602
H165	H	1.052976	0.049970	0.357057
H166	H	1.552976	0.549970	0.857057
H167	H	0.989567	0.048417	0.429711
H168	H	1.489567	0.548417	0.929711
H169	H	1.050401	0.117738	0.429686
H170	H	1.550401	0.617738	0.929686
H171	H	0.181201	0.051085	0.000118
H172	H	0.681201	0.551085	0.500118
H173	H	0.522926	0.290381	0.000068
H174	H	1.022926	0.790381	0.500068
H175	H	0.840224	0.263494	0.775630
H176	H	1.340224	0.763494	1.275630
H177	H	0.329568	0.063878	0.000117
H178	H	0.829568	0.563878	0.500117
C179	C	0.833118	0.270601	0.604581
C180	C	1.333118	0.770601	1.104581
H181	H	0.799542	0.304314	0.643129
H182	H	1.299542	0.804314	1.143129
H183	H	0.802096	0.236547	0.570494
H184	H	1.302096	0.736547	1.070494
H185	H	0.862948	0.305851	0.570475
H186	H	1.362948	0.805851	1.070475
C187	C	0.795450	0.308376	0.395595
C188	C	1.295450	0.808376	0.895595
H189	H	0.800319	0.303509	0.453910
H190	H	1.300319	0.803509	0.953910
H191	H	0.743801	0.295026	0.381282
H192	H	1.243801	0.795026	0.881282
H193	H	0.804652	0.364329	0.381257
H194	H	1.304652	0.864329	0.881257
H195	H	0.295666	0.339262	0.000066
H196	H	0.795666	0.839262	0.500066
C197	C	0.132940	0.347149	0.000087
C198	C	0.632940	0.847149	0.500087
H199	H	0.163444	0.395456	0.000074
H200	H	0.663444	0.895456	0.500074
H201	H	0.098341	0.349867	0.048510
H202	H	0.598341	0.849867	0.548510
H203	H	0.102953	0.345241	-0.048341
H204	H	0.602953	0.845241	0.451659
H205	H	0.556825	0.015004	0.000110
H206	H	1.056825	0.515004	0.500110
