data_functionalizedCrystal
_audit_creation_method	'MofGen! by Chris Wilmer'
_symmetry_space_group_name_H-M	'P1'
_symmetry_Int_Tables_number	1
_symmetry_cell_setting	triclinic
loop_
_symmetry_equiv_pos_as_xyz
  x,y,z
_cell_length_a	19.121063
_cell_length_b	21.395364
_cell_length_c	21.395355
_cell_angle_alpha	90.025298
_cell_angle_beta	92.420740
_cell_angle_gamma	87.514290
loop_
_atom_site_label
_atom_site_type_symbol
_atom_site_fract_x
_atom_site_fract_y
_atom_site_fract_z
Zn1	Zn	-0.279388	-0.947241	-0.364896
Zn2	Zn	0.220612	-0.447241	0.135104
Zn3	Zn	-0.396824	-0.942680	-0.264583
Zn4	Zn	0.103176	-0.442680	0.235417
Zn5	Zn	-0.279423	-0.842455	-0.260133
Zn6	Zn	0.220577	-0.342455	0.239867
Zn7	Zn	-0.396840	-0.837961	-0.369323
Zn8	Zn	0.103160	-0.337961	0.130677
O9	O	-0.338119	-0.892584	-0.314734
O10	O	0.161881	-0.392584	0.185266
O11	O	-0.294945	-1.034315	-0.351599
O12	O	0.205055	-0.534315	0.148401
O13	O	-0.381258	-0.929357	-0.176315
O14	O	0.118742	-0.429357	0.323685
O15	O	-0.181131	-0.860144	-0.270315
O16	O	0.318869	-0.360144	0.229685
O17	O	-0.381224	-1.030964	-0.277900
O18	O	0.118776	-0.530964	0.222100
O19	O	-0.181106	-0.937130	-0.347284
O20	O	0.318894	-0.437130	0.152716
O21	O	-0.295004	-0.855722	-0.173045
O22	O	0.204996	-0.355722	0.326955
O23	O	-0.295019	-0.754180	-0.274607
O24	O	0.204981	-0.254180	0.225393
O25	O	-0.381252	-0.852486	-0.456413
O26	O	0.118748	-0.352486	0.043587
O27	O	-0.381285	-0.750879	-0.354828
O28	O	0.118715	-0.250879	0.145172
O29	O	-0.294961	-0.932773	-0.453161
O30	O	0.205039	-0.432773	0.046839
O31	O	-0.495112	-0.925000	-0.282192
O32	O	0.004888	-0.425000	0.217808
O33	O	-0.495124	-0.848064	-0.359144
O34	O	0.004876	-0.348064	0.140856
C35	C	-0.338158	-0.729795	-0.314715
C36	C	0.161842	-0.229795	0.185285
C37	C	-0.338192	-0.660153	-0.314723
C38	C	0.161808	-0.160153	0.185277
C39	C	-0.293341	-0.629204	-0.353163
C40	C	0.206659	-0.129204	0.146837
C41	C	-0.293325	-0.563769	-0.353164
C42	C	0.206675	-0.063769	0.146836
C43	C	-0.338172	-0.529285	-0.314732
C44	C	0.161828	-0.029285	0.185268
C45	C	-0.383026	-0.560242	-0.276285
C46	C	0.116974	-0.060242	0.223715
C47	C	-0.383036	-0.625676	-0.276280
C48	C	0.116964	-0.125676	0.223720
C49	C	-0.401427	-0.423157	-0.312098
C50	C	0.098573	0.076843	0.187902
C51	C	-0.401418	-0.357724	-0.312107
C52	C	0.098582	0.142276	0.187893
C53	C	-0.338140	-0.327466	-0.314742
C54	C	0.161860	0.172534	0.185258
C55	C	-0.274869	-0.362648	-0.317382
C56	C	0.225131	0.137352	0.182618
C57	C	-0.274879	-0.428082	-0.317377
C58	C	0.225121	0.071918	0.182623
C59	C	-0.338166	-0.458333	-0.314732
C60	C	0.161834	0.041667	0.185268
C61	C	-0.293267	-0.225565	-0.353185
C62	C	0.206733	0.274435	0.146815
C63	C	-0.293250	-0.160129	-0.353181
C64	C	0.206750	0.339871	0.146819
C65	C	-0.382957	-0.156603	-0.276306
C66	C	0.117043	0.343397	0.223694
C67	C	-0.382969	-0.222038	-0.276306
C68	C	0.117031	0.277962	0.223694
C69	C	-0.338125	-0.256515	-0.314749
C70	C	0.161875	0.243485	0.185251
C71	C	-0.520603	-0.885566	-0.321645
C72	C	-0.020603	-0.385566	0.178355
C73	C	-0.598671	-0.882621	-0.324623
C74	C	-0.098671	-0.382621	0.175377
C75	C	-0.635317	-0.921326	-0.285991
C76	C	-0.135317	-0.421326	0.214009
C77	C	-0.708670	-0.918560	-0.288795
C78	C	-0.208670	-0.418560	0.211205
C79	C	-0.745375	-0.877086	-0.330229
C80	C	-0.245375	-0.377086	0.169771
C81	C	-0.708723	-0.838380	-0.368865
C82	C	-0.208723	-0.338380	0.131135
C83	C	-0.635371	-0.841149	-0.366064
C84	C	-0.135371	-0.341149	0.133936
C85	C	-0.966850	-0.866720	-0.340693
C86	C	-0.466850	-0.366720	0.159307
C87	C	-1.040207	-0.863952	-0.343490
C88	C	-0.540207	-0.363952	0.156510
C89	C	-1.040149	-0.944133	-0.263420
C90	C	-0.540149	-0.444133	0.236580
C91	C	-0.966796	-0.946897	-0.260620
C92	C	-0.466796	-0.446897	0.239380
C93	C	-0.930151	-0.908193	-0.299259
C94	C	-0.430151	-0.408193	0.200741
C95	C	-0.820353	-0.874256	-0.333095
C96	C	-0.320353	-0.374256	0.166905
C97	C	-0.855174	-0.911026	-0.296395
C98	C	-0.355174	-0.411026	0.203605
C99	C	-0.154921	-0.899647	-0.307809
C100	C	0.345079	-0.399647	0.192191
C101	C	-0.076854	-0.902657	-0.304858
C102	C	0.423146	-0.402657	0.195142
C103	C	-0.338104	-0.892637	-0.478156
C104	C	0.161896	-0.392637	0.021844
C105	C	-0.338098	-0.892659	-0.547798
C106	C	0.161902	-0.392659	-0.047798
C107	C	-0.338088	-0.056009	-0.314749
C108	C	0.161912	0.443991	0.185251
C109	C	-0.338097	-0.125650	-0.314749
C110	C	0.161903	0.374350	0.185251
C111	C	-0.293165	-0.934463	-0.578818
C112	C	0.206835	-0.434463	-0.078818
C113	C	-0.293134	-0.934464	-0.644252
C114	C	0.206866	-0.434464	-0.144252
C115	C	-0.338050	-0.892666	-0.678664
C116	C	0.161950	-0.392666	-0.178664
C117	C	-0.382987	-0.850854	-0.647636
C118	C	0.117013	-0.350854	-0.147636
C119	C	-0.383011	-0.850851	-0.582202
C120	C	0.116989	-0.350851	-0.082202
C121	C	-0.401293	-0.885287	-0.784734
C122	C	0.098707	-0.385287	-0.284734
C123	C	-0.401271	-0.885294	-0.850166
C124	C	0.098729	-0.385294	-0.350166
C125	C	-0.337976	-0.892673	-0.880482
C126	C	0.162024	-0.392673	-0.380482
C127	C	-0.274702	-0.900057	-0.845358
C128	C	0.225298	-0.400057	-0.345358
C129	C	-0.274726	-0.900053	-0.779925
C130	C	0.225274	-0.400053	-0.279925
C131	C	-0.338029	-0.892665	-0.749616
C132	C	0.161971	-0.392665	-0.249616
C133	C	-0.293006	-0.934479	-0.982454
C134	C	0.206994	-0.434479	-0.482454
C135	C	-0.292975	-0.934475	-1.047889
C136	C	0.207025	-0.434475	-0.547889
C137	C	-0.382834	-0.850869	-1.051272
C138	C	0.117166	-0.350869	-0.551272
C139	C	-0.382859	-0.850870	-0.985837
C140	C	0.117141	-0.350870	-0.485837
C141	C	-0.337946	-0.892678	-0.951432
C142	C	0.162054	-0.392678	-0.451432
C143	C	-0.338082	-0.892570	-0.151945
C144	C	0.161918	-0.392570	0.348055
C145	C	-0.337890	-0.892677	-0.082297
C146	C	0.162110	-0.392677	0.417703
H147	H	-0.419540	-0.532161	-0.244993
H148	H	0.080460	-0.032161	0.255007
N149	N	-0.431330	-0.119417	-0.234856
N150	N	0.068670	0.380583	0.265144
H151	H	-0.459747	-0.148955	-0.210505
H152	H	0.040253	0.351045	0.289495
H153	H	-0.402686	-0.093368	-0.204819
H154	H	0.097314	0.406632	0.295181
N155	N	-0.748304	-0.793645	-0.413556
N156	N	-0.248304	-0.293645	0.086444
H157	H	-0.778692	-0.817944	-0.443776
H158	H	-0.278692	-0.317944	0.056224
H159	H	-0.778745	-0.763480	-0.389184
H160	H	-0.278745	-0.263480	0.110816
H161	H	-0.223162	-0.906066	-0.870039
H162	H	0.276838	-0.406066	-0.370039
N163	N	-0.431282	-0.805790	-1.088380
N164	N	0.068718	-0.305790	-0.588380
H165	H	-0.459755	-0.779307	-1.058796
H166	H	0.040245	-0.279307	-0.558796
H167	H	-0.402689	-0.777897	-1.114429
H168	H	0.097311	-0.277897	-0.614429
H169	H	-0.937019	-0.835205	-0.372153
H170	H	-0.437019	-0.335205	0.127847
H171	H	-0.223362	-0.456724	-0.319524
H172	H	0.276638	0.043276	0.180476
H173	H	-0.419453	-0.816832	-0.960580
H174	H	0.080547	-0.316832	-0.460580
H175	H	-0.850246	-0.840486	-0.366829
H176	H	-0.350246	-0.340486	0.133171
H177	H	-0.452937	-0.329084	-0.309961
H178	H	0.047063	0.170916	0.190039
N179	N	-0.431479	-0.805768	-0.548733
N180	N	0.068521	-0.305768	-0.048733
H181	H	-0.402948	-0.777836	-0.520486
H182	H	0.097052	-0.277836	-0.020486
H183	H	-0.459922	-0.779325	-0.580493
H184	H	0.040078	-0.279325	-0.080493
H185	H	-0.256540	-0.968504	-0.669514
H186	H	0.243460	-0.468504	-0.169514
N187	N	-0.815584	-0.955756	-0.251708
N188	N	-0.315584	-0.455756	0.248292
H189	H	-0.828383	-0.945562	-0.207421
H190	H	-0.328383	-0.445562	0.292579
H191	H	-0.828300	-1.000022	-0.262016
H192	H	-0.328300	-0.500022	0.237984
N193	N	-0.469513	-0.877329	-0.888045
N194	N	0.030487	-0.377329	-0.388045
H195	H	-0.459895	-0.878455	-0.934097
H196	H	0.040105	-0.378455	-0.434097
H197	H	-0.500911	-0.912349	-0.877813
H198	H	-0.000911	-0.412349	-0.377813
N199	N	-0.595849	-0.799398	-0.407730
N200	N	-0.095849	-0.299398	0.092270
H201	H	-0.565465	-0.771523	-0.381081
H202	H	-0.065465	-0.271523	0.118919
H203	H	-0.565408	-0.826038	-0.435621
H204	H	-0.065408	-0.326038	0.064379
N205	N	-0.244975	-0.666390	-0.394623
N206	N	0.255025	-0.166390	0.105377
H207	H	-0.216559	-0.636850	-0.418974
H208	H	0.283441	-0.136850	0.081026
H209	H	-0.212431	-0.694790	-0.367933
H210	H	0.287569	-0.194790	0.132067
H211	H	-0.936913	-0.980668	-0.226881
H212	H	-0.436913	-0.480668	0.273119
N213	N	-0.244724	-0.979553	-0.541710
N214	N	0.255276	-0.479553	-0.041710
H215	H	-0.216253	-1.006036	-0.571295
H216	H	0.283747	-0.506036	-0.071295
H217	H	-0.212234	-0.955302	-0.513316
H218	H	0.287766	-0.455302	-0.013316
N219	N	-0.206488	-0.908019	-0.742040
N220	N	0.293512	-0.408019	-0.242040
H221	H	-0.166385	-0.912696	-0.771169
H222	H	0.333615	-0.412696	-0.271169
H223	H	-0.199986	-0.870094	-0.714627
H224	H	0.300014	-0.370094	-0.214627
N225	N	-0.469566	-0.877336	-0.752039
N226	N	0.030434	-0.377336	-0.252039
H227	H	-0.509645	-0.872669	-0.784217
H228	H	-0.009645	-0.372669	-0.284217
H229	H	-0.476079	-0.915264	-0.725158
H230	H	0.023921	-0.415264	-0.225158
N231	N	-0.206617	-0.330015	-0.320217
N232	N	0.293383	0.169985	0.179783
H233	H	-0.175129	-0.342611	-0.282840
H234	H	0.324871	0.157389	0.217160
H235	H	-0.182840	-0.342354	-0.359921
H236	H	0.317160	0.157646	0.140079
H237	H	-0.256431	-0.968519	-0.954440
H238	H	0.243569	-0.468519	-0.454440
N239	N	-0.244495	-0.979555	-1.081350
N240	N	0.255505	-0.479555	-0.581350
H241	H	-0.216047	-1.006036	-1.049623
H242	H	0.283953	-0.506036	-0.549623
H243	H	-0.273061	-1.007449	-1.109604
H244	H	0.226939	-0.507449	-0.609604
H245	H	-0.452960	-0.447787	-0.309952
H246	H	0.047040	0.052213	0.190048
N247	N	-1.079794	-0.819218	-0.388185
N248	N	-0.579794	-0.319218	0.111815
H249	H	-1.110184	-0.843520	-0.418399
H250	H	-0.610184	-0.343520	0.081601
H251	H	-1.110234	-0.789053	-0.363811
H252	H	-0.610234	-0.289053	0.136189
N253	N	-0.244948	-0.530378	-0.394624
N254	N	0.255052	-0.030378	0.105376
H255	H	-0.216541	-0.562148	-0.418976
H256	H	0.283459	-0.062148	0.081024
H257	H	-0.273588	-0.502132	-0.424661
H258	H	0.226412	-0.002132	0.075339
N259	N	-0.595737	-0.966063	-0.241301
N260	N	-0.095737	-0.466063	0.258699
H261	H	-0.565253	-0.996236	-0.265628
H262	H	-0.065253	-0.496236	0.234372
H263	H	-0.565392	-0.941719	-0.211088
H264	H	-0.065392	-0.441719	0.288912
H265	H	-0.256748	-0.253638	-0.384483
H266	H	0.243252	0.246362	0.115517
N267	N	-0.431421	-0.805769	-0.684755
N268	N	0.068579	-0.305769	-0.184755
H269	H	-0.463955	-0.829974	-0.713152
H270	H	0.036045	-0.329974	-0.213152
H271	H	-0.459845	-0.779289	-0.655135
H272	H	0.040155	-0.279289	-0.155135
N273	N	-0.244860	-0.126746	-0.394632
N274	N	0.255140	0.373254	0.105368
H275	H	-0.216453	-0.158518	-0.418980
H276	H	0.283547	0.341482	0.081020
H277	H	-0.273487	-0.098492	-0.424671
H278	H	0.226513	0.401508	0.075329
H279	H	-0.419494	-0.247236	-0.245007
H280	H	0.080506	0.252764	0.254993
N281	N	-1.079676	-0.985883	-0.221757
N282	N	-0.579676	-0.485883	0.278243
H283	H	-1.045293	-1.012578	-0.195085
H284	H	-0.545293	-0.512578	0.304915
H285	H	-1.110159	-0.959246	-0.193900
H286	H	-0.610159	-0.459246	0.306100
H287	H	-0.419560	-0.650874	-0.244977
H288	H	0.080440	-0.150874	0.255023
H289	H	-0.738505	-0.950076	-0.257336
H290	H	-0.238505	-0.450076	0.242664
