data_functionalizedCrystal
_audit_creation_method	'MofGen! by Chris Wilmer'
_symmetry_space_group_name_H-M	'P1'
_symmetry_Int_Tables_number	1
_symmetry_cell_setting	triclinic
loop_
_symmetry_equiv_pos_as_xyz
  x,y,z
_cell_length_a	15.944545
_cell_length_b	14.421503
_cell_length_c	15.944551
_cell_angle_alpha	90.000609
_cell_angle_beta	96.502545
_cell_angle_gamma	89.990135
loop_
_atom_site_label
_atom_site_type_symbol
_atom_site_fract_x
_atom_site_fract_y
_atom_site_fract_z
O1	O	1.114514	0.077054	-0.108301
O2	O	0.869964	0.077069	-0.121663
O3	O	0.998917	0.077053	0.007293
O4	O	0.985561	0.077070	-0.237257
O5	O	0.998933	-0.077171	0.007285
O6	O	0.869979	-0.077154	-0.121671
O7	O	1.114530	-0.077170	-0.108309
Cu8	Cu	0.992256	-0.091244	-0.114991
Cu9	Cu	0.992237	0.091143	-0.114981
O10	O	0.985576	-0.077153	-0.237265
C11	C	0.838677	-0.000041	-0.121113
C12	C	0.745431	-0.000035	-0.119453
C13	C	0.474798	-0.000051	-0.034559
C14	C	0.525388	-0.076091	-0.075492
C15	C	0.409787	-0.000052	-0.113532
C16	C	0.525353	0.075961	-0.075505
C17	C	0.574701	-0.000042	-0.116437
C18	C	0.459148	-0.076154	-0.154444
C19	C	0.459110	0.075967	-0.154445
C20	C	0.509667	-0.000092	-0.195436
C21	C	0.314785	-0.000058	-0.111856
C22	C	0.669700	-0.000042	-0.118119
N23	N	0.992275	-0.219525	-0.114997
C24	C	1.051916	-0.469162	-0.055355
C25	C	0.976016	-0.530955	-0.039039
C26	C	0.992256	-0.408687	-0.114987
C27	C	1.068138	-0.530987	-0.131253
C28	C	0.992245	-0.591408	-0.114975
C29	C	0.916318	-0.469119	-0.098634
C30	C	1.008490	-0.469146	-0.190881
C31	C	0.932536	-0.530911	-0.174598
C32	C	0.992264	-0.303426	-0.114992
C33	C	0.992229	-0.696667	-0.114971
C34	C	1.145816	-0.000058	-0.108859
C35	C	1.239062	-0.000057	-0.110519
C36	C	0.998370	-0.000059	0.038583
C37	C	0.996708	-0.000060	0.131829
N38	N	0.992225	0.219424	-0.114968
C39	C	0.986123	-0.000039	-0.268555
C40	C	0.987785	-0.000033	-0.361801
C41	C	0.912803	-0.000042	0.346684
C42	C	0.951774	-0.076086	0.407698
C43	C	0.993701	-0.000052	0.302555
C44	C	0.951777	0.075967	0.407690
C45	C	0.990790	-0.000041	0.467468
C46	C	1.032693	-0.076159	0.362341
C47	C	1.032686	0.075961	0.362326
C48	C	1.071715	-0.000101	0.423322
C49	C	0.995375	-0.000060	0.207553
C50	C	0.989122	-0.000041	0.562469
H51	H	0.554325	-0.140381	-0.042143
H52	H	1.102315	-0.442048	-0.004898
O53	O	0.421010	-0.161414	-0.198578
H54	H	0.351600	-0.160770	-0.196969
H55	H	1.138922	-0.000148	0.456483
H56	H	0.525159	-0.000131	-0.263501
O57	O	1.153147	-0.566981	-0.149490
H58	H	1.145301	-0.609321	-0.207985
H59	H	0.962274	-0.558106	0.025147
O60	O	1.026723	-0.433152	-0.275877
H61	H	0.972582	-0.390817	-0.304072
H62	H	0.917564	-0.140370	0.427802
H63	H	0.554264	0.140243	-0.042136
H64	H	1.066866	0.140250	0.342200
O65	O	0.831295	-0.433287	-0.080276
H66	H	0.831981	-0.356327	-0.080383
O67	O	0.420742	0.161129	-0.198571
H68	H	0.471453	0.203930	-0.221254
O69	O	0.454048	-0.000150	0.055525
H70	H	0.480719	-0.063372	0.088114
O71	O	0.865634	-0.566626	-0.241387
H72	H	0.802742	-0.541718	-0.227673
O73	O	0.823864	-0.000130	0.302549
H74	H	0.790490	-0.063348	0.320594
O75	O	1.077984	-0.161418	0.335869
H76	H	1.078828	-0.160772	0.266360
O77	O	0.906437	0.161127	0.434303
H78	H	0.840500	0.160964	0.403299
