data_functionalizedCrystal
_audit_creation_method	'MofGen! by Chris Wilmer'
_symmetry_space_group_name_H-M	'P1'
_symmetry_Int_Tables_number	1
_symmetry_cell_setting	triclinic
loop_
_symmetry_equiv_pos_as_xyz
  x,y,z
_cell_length_a	18.050589
_cell_length_b	16.120566
_cell_length_c	16.120256
_cell_angle_alpha	89.874858
_cell_angle_beta	92.877403
_cell_angle_gamma	92.875476
loop_
_atom_site_label
_atom_site_type_symbol
_atom_site_fract_x
_atom_site_fract_y
_atom_site_fract_z
Zn1	Zn	-0.376254	-1.247401	-0.534657
Zn2	Zn	0.123746	-0.747401	-0.034657
Zn3	Zn	-0.494475	-1.254340	-0.395606
Zn4	Zn	0.005525	-0.754340	0.104394
Zn5	Zn	-0.363701	-1.115393	-0.388566
Zn6	Zn	0.136299	-0.615393	0.111434
Zn7	Zn	-0.493796	-1.108297	-0.527568
Zn8	Zn	0.006204	-0.608297	-0.027568
O9	O	-0.432056	-1.181358	-0.461599
O10	O	0.067944	-0.681358	0.038401
O11	O	-0.397474	-1.364687	-0.522124
O12	O	0.102526	-0.864687	-0.022124
O13	O	-0.472158	-1.241782	-0.278306
O14	O	0.027842	-0.741782	0.221694
O15	O	-0.261446	-1.132969	-0.407966
O16	O	0.238554	-0.632969	0.092034
O17	O	-0.484330	-1.369785	-0.419964
O18	O	0.015670	-0.869785	0.080036
O19	O	-0.270668	-1.229955	-0.515298
O20	O	0.229332	-0.729955	-0.015298
O21	O	-0.376080	-1.139698	-0.273134
O22	O	0.123920	-0.639698	0.226866
O23	O	-0.375421	-0.998086	-0.401092
O24	O	0.124579	-0.498086	0.098908
O25	O	-0.483172	-1.120876	-0.644874
O26	O	0.016828	-0.620876	-0.144874
O27	O	-0.471001	-0.992873	-0.503216
O28	O	0.028999	-0.492873	-0.003216
O29	O	-0.396815	-1.223074	-0.650082
O30	O	0.103185	-0.723074	-0.150082
O31	O	-0.598305	-1.234902	-0.413091
O32	O	-0.098305	-0.734902	0.086909
O33	O	-0.597806	-1.127605	-0.510042
O34	O	-0.097806	-0.627605	-0.010042
C35	C	-0.421776	-0.965307	-0.450622
C36	C	0.078224	-0.465307	0.049378
C37	C	-0.417396	-0.872879	-0.445945
C38	C	0.082604	-0.372879	0.054055
C39	C	-0.409383	-0.703650	-0.437414
C40	C	0.090617	-0.203650	0.062586
C41	C	-0.454794	-0.659905	-0.485791
C42	C	0.045206	-0.159905	0.014209
C43	C	-0.450335	-0.565740	-0.481045
C44	C	0.049665	-0.065740	0.018955
C45	C	-0.413841	-0.797823	-0.442160
C46	C	0.086159	-0.297823	0.057840
C47	C	-0.625003	-1.181258	-0.461580
C48	C	-0.125003	-0.681258	0.038420
C49	C	-0.707551	-1.181290	-0.461604
C50	C	-0.207551	-0.681290	0.038396
C51	C	-0.906759	-1.122997	-0.514310
C52	C	-0.406759	-0.622997	-0.014310
C53	C	-0.951979	-1.106574	-0.437403
C54	C	-0.451979	-0.606574	0.062597
C55	C	-0.858686	-1.181371	-0.461619
C56	C	-0.358686	-0.681371	0.038381
C57	C	-0.960550	-1.197834	-0.538537
C58	C	-0.460550	-0.697834	-0.038537
C59	C	-1.004676	-1.181448	-0.461640
C60	C	-0.504676	-0.681448	0.038360
C61	C	-0.902815	-1.164910	-0.384670
C62	C	-0.402815	-0.664910	0.115330
C63	C	-0.911386	-1.256203	-0.485857
C64	C	-0.411386	-0.756203	0.014143
C65	C	-0.956582	-1.239812	-0.408899
C66	C	-0.456582	-0.739812	0.091101
C67	C	-0.774585	-1.181325	-0.461608
C68	C	-0.274585	-0.681325	0.038392
C69	C	-1.088774	-1.181494	-0.461643
C70	C	-0.588774	-0.681494	0.038357
C71	C	-0.238358	-1.181479	-0.461638
C72	C	0.261642	-0.681479	0.038362
C73	C	-0.155815	-1.181531	-0.461654
C74	C	0.344185	-0.681531	0.038346
C75	C	-0.441318	-1.170409	-0.678494
C76	C	0.058682	-0.670409	-0.178494
C77	C	-0.445265	-1.165744	-0.770922
C78	C	0.054735	-0.665744	-0.270922
C79	C	-0.442380	-0.398252	-0.472607
C80	C	0.057620	0.101748	0.027393
C81	C	-0.446783	-0.490682	-0.477263
C82	C	0.053217	0.009318	0.022737
C83	C	-0.411455	-1.205686	-0.983906
C84	C	0.088545	-0.705686	-0.483906
C85	C	-0.452439	-1.157198	-0.940142
C86	C	0.047561	-0.657198	-0.440142
C87	C	-0.448446	-1.161955	-0.845979
C88	C	0.051554	-0.661955	-0.345979
C89	C	-0.415447	-1.200931	-1.078077
C90	C	0.084553	-0.700931	-0.578077
C91	C	-0.422779	-1.192311	-0.245551
C92	C	0.077221	-0.692311	0.254449
C93	C	-0.418631	-1.197138	-0.153131
C94	C	0.081369	-0.697138	0.346869
H95	H	-0.497018	-0.693173	-0.530774
H96	H	0.002982	-0.193173	-0.030774
O97	O	-0.359079	-0.663840	-0.383770
O98	O	0.140921	-0.163840	0.116230
C99	C	-0.365768	-0.577322	-0.390927
C100	C	0.134232	-0.077322	0.109073
H101	H	-0.423730	-0.564179	-0.417476
H102	H	0.076270	-0.064179	0.082524
H103	H	-0.322529	-0.550464	-0.434074
H104	H	0.177471	-0.050464	0.065926
C105	C	-0.281998	-0.552994	-0.271987
C106	C	0.218002	-0.052994	0.228013
C107	C	-0.353190	-0.536850	-0.304588
C108	C	0.146810	-0.036850	0.195412
H109	H	-0.274236	-0.528027	-0.218730
H110	H	0.225764	-0.028027	0.281270
H111	H	-0.277489	-0.611282	-0.267167
H112	H	0.222511	-0.111282	0.232833
H113	H	-0.245974	-0.530611	-0.307951
H114	H	0.254026	-0.030611	0.192049
H115	H	-0.389212	-0.559242	-0.268630
H116	H	0.110788	-0.059242	0.231370
H117	H	-0.357705	-0.478564	-0.309400
H118	H	0.142295	0.021436	0.190600
O119	O	-0.880683	-1.063924	-0.567286
O120	O	-0.380683	-0.563924	-0.067286
C121	C	-0.901221	-0.985167	-0.541441
C122	C	-0.401221	-0.485167	-0.041441
H123	H	-0.912074	-0.987144	-0.472389
H124	H	-0.412074	-0.487144	0.027611
H125	H	-0.953770	-0.967677	-0.578179
H126	H	-0.453770	-0.467677	-0.078179
C127	C	-0.824676	-0.917667	-0.641669
C128	C	-0.324676	-0.417667	-0.141669
C129	C	-0.838001	-0.920093	-0.556857
C130	C	-0.338001	-0.420093	-0.056857
H131	H	-0.785681	-0.877525	-0.651181
H132	H	-0.285681	-0.377525	-0.151181
H133	H	-0.810841	-0.970727	-0.659084
H134	H	-0.310841	-0.470727	-0.159084
H135	H	-0.868472	-0.903095	-0.672274
H136	H	-0.368472	-0.403095	-0.172274
H137	H	-0.794208	-0.934675	-0.526254
H138	H	-0.294208	-0.434675	-0.026254
H139	H	-0.851827	-0.867034	-0.539437
H140	H	-0.351827	-0.367034	-0.039437
O141	O	-0.973525	-1.031122	-0.413065
O142	O	-0.473525	-0.531122	0.086935
C143	C	-1.018901	-0.996988	-0.476812
C144	C	-0.518901	-0.496988	0.023188
H145	H	-1.044721	-1.048999	-0.518306
H146	H	-0.544721	-0.548999	-0.018306
H147	H	-0.983885	-0.952213	-0.515425
H148	H	-0.483885	-0.452213	-0.015425
C149	C	-1.049179	-0.886046	-0.387272
C150	C	-0.549179	-0.386046	0.112728
C151	C	-1.080896	-0.949928	-0.438232
C152	C	-0.580896	-0.449928	0.061768
H153	H	-1.087419	-0.857014	-0.363476
H154	H	-0.587419	-0.357014	0.136524
H155	H	-1.018606	-0.909040	-0.344325
H156	H	-0.518606	-0.409040	0.155675
H157	H	-1.019999	-0.848742	-0.419458
H158	H	-0.519999	-0.348742	0.080542
H159	H	-1.110067	-0.987235	-0.406044
H160	H	-0.610067	-0.487235	0.093956
H161	H	-1.111476	-0.926938	-0.481173
H162	H	-0.611476	-0.426938	0.018827
H163	H	-0.877681	-1.150942	-0.319608
H164	H	-0.377681	-0.650942	0.180392
O165	O	-0.982470	-1.298658	-0.355573
O166	O	-0.482470	-0.798658	0.144427
C167	C	-0.952748	-1.281037	-0.274611
C168	C	-0.452748	-0.781037	0.225389
H169	H	-0.935670	-1.212123	-0.269467
H170	H	-0.435670	-0.712123	0.230533
H171	H	-0.902091	-1.319284	-0.261095
H172	H	-0.402091	-0.819284	0.238905
C173	C	-1.032754	-1.387857	-0.217699
C174	C	-0.532754	-0.887857	0.282301
C175	C	-1.011784	-1.303214	-0.211378
C176	C	-0.511784	-0.803214	0.288622
H177	H	-1.069168	-1.401540	-0.178693
H178	H	-0.569168	-0.901540	0.321307
H179	H	-1.052777	-1.399731	-0.272245
H180	H	-0.552777	-0.899731	0.227755
H181	H	-0.990534	-1.419720	-0.206438
H182	H	-0.490534	-0.919720	0.293562
H183	H	-1.054001	-1.271353	-0.222650
H184	H	-0.554001	-0.771353	0.277350
H185	H	-0.991770	-1.291335	-0.156833
H186	H	-0.491770	-0.791335	0.343167
H187	H	-0.893393	-1.319434	-0.506375
H188	H	-0.393393	-0.819434	-0.006375
O189	O	-0.366091	-1.259454	-0.944117
O190	O	0.133909	-0.759454	-0.444117
C191	C	-0.372152	-1.252282	-0.857596
C192	C	0.127848	-0.752282	-0.357596
H193	H	-0.427676	-1.225583	-0.844457
H194	H	0.072324	-0.725583	-0.344457
H195	H	-0.324967	-1.209256	-0.830682
H196	H	0.175033	-0.709256	-0.330682
C197	C	-0.299315	-1.371428	-0.833326
C198	C	0.200685	-0.871428	-0.333326
C199	C	-0.367513	-1.338642	-0.817189
C200	C	0.132487	-0.838642	-0.317189
H201	H	-0.296449	-1.424697	-0.808400
H202	H	0.203551	-0.924697	-0.308400
H203	H	-0.295228	-1.376258	-0.891617
H204	H	0.204772	-0.876258	-0.391617
H205	H	-0.260001	-1.335564	-0.810897
H206	H	0.239999	-0.835564	-0.310897
H207	H	-0.406824	-1.374500	-0.839627
H208	H	0.093176	-0.874500	-0.339627
H209	H	-0.371606	-1.333820	-0.758902
H210	H	0.128394	-0.833820	-0.258902
H211	H	-0.985770	-1.211729	-0.603577
H212	H	-0.485770	-0.711729	-0.103577
H213	H	-0.490520	-1.112110	-0.973393
H214	H	0.009480	-0.612110	-0.473393
