data_functionalizedCrystal
_audit_creation_method	'MofGen! by Chris Wilmer'
_symmetry_space_group_name_H-M	'P1'
_symmetry_Int_Tables_number	1
_symmetry_cell_setting	triclinic
loop_
_symmetry_equiv_pos_as_xyz
  x,y,z
_cell_length_a	11.169416
_cell_length_b	11.169417
_cell_length_c	11.169409
_cell_angle_alpha	89.980487
_cell_angle_beta	89.968635
_cell_angle_gamma	90.011398
loop_
_atom_site_label
_atom_site_type_symbol
_atom_site_fract_x
_atom_site_fract_y
_atom_site_fract_z
Zn1	Zn	-0.477670	1.834964	-0.678541
Zn2	Zn	0.022330	2.334964	-0.178541
Zn3	Zn	-0.678410	1.834854	-0.477861
Zn4	Zn	-0.178410	2.334854	0.022139
Zn5	Zn	-0.477744	1.634250	-0.477876
Zn6	Zn	0.022256	2.134250	0.022124
Zn7	Zn	-0.678314	1.634258	-0.678507
Zn8	Zn	-0.178314	2.134258	-0.178507
O9	O	-0.578035	1.734581	-0.578196
O10	O	-0.078035	2.234581	-0.078196
O11	O	-0.504308	2.002899	-0.651928
O12	O	-0.004308	2.502899	-0.151928
O13	O	-0.651863	1.808194	-0.309913
O14	O	-0.151863	2.308194	0.190087
O15	O	-0.309785	1.660918	-0.504515
O16	O	0.190215	2.160918	-0.004515
O17	O	-0.651791	2.002818	-0.504490
O18	O	-0.151791	2.502818	-0.004490
O19	O	-0.309730	1.808381	-0.651943
O20	O	0.190270	2.308381	-0.151943
O21	O	-0.504435	1.660811	-0.309925
O22	O	-0.004435	2.160811	0.190075
O23	O	-0.504341	1.466301	-0.504483
O24	O	-0.004341	1.966301	-0.004483
O25	O	-0.651627	1.660931	-0.846461
O26	O	-0.151627	2.160931	-0.346461
O27	O	-0.651699	1.466307	-0.651885
O28	O	-0.151699	1.966307	-0.151885
O29	O	-0.504214	1.808389	-0.846486
O30	O	-0.004214	2.308389	-0.346486
O31	O	-0.846347	1.808202	-0.504457
O32	O	-0.346347	2.308202	-0.004457
O33	O	-0.846277	1.660825	-0.651871
O34	O	-0.346277	2.160825	-0.151871
C35	C	-0.578019	1.422757	-0.578183
C36	C	-0.078019	1.922757	-0.078183
C37	C	-0.578041	1.289357	-0.578205
C38	C	-0.078041	1.789357	-0.078205
C39	C	-0.889859	1.734535	-0.578185
C40	C	-0.389859	2.234535	-0.078185
C41	C	-1.023259	1.734625	-0.578220
C42	C	-0.523259	2.234625	-0.078220
C43	C	-0.264992	1.734661	-0.578235
C44	C	0.235008	2.234661	-0.078235
C45	C	-0.131592	1.734695	-0.578251
C46	C	0.368408	2.234695	-0.078251
C47	C	-0.577901	1.734674	-0.891239
C48	C	-0.077901	2.234674	-0.391239
C49	C	-0.577845	1.734713	-1.024639
C50	C	-0.077845	2.234713	-0.524639
C51	C	-0.578052	2.047624	-0.578211
C52	C	-0.078052	2.547624	-0.078211
C53	C	-0.578059	2.181024	-0.578217
C54	C	-0.078059	2.681024	-0.078217
C55	C	-0.578081	1.734559	-0.266372
C56	C	-0.078081	2.234559	0.233628
C57	C	-0.577800	1.734752	-0.132972
C58	C	-0.077800	2.234752	0.367028
