data_functionalizedCrystal
_audit_creation_method	'MofGen! by Chris Wilmer'
_symmetry_space_group_name_H-M	'P1'
_symmetry_Int_Tables_number	1
_symmetry_cell_setting	triclinic
loop_
_symmetry_equiv_pos_as_xyz
  x,y,z
_cell_length_a	13.033291
_cell_length_b	13.032721
_cell_length_c	19.805399
_cell_angle_alpha	82.844098
_cell_angle_beta	97.208163
_cell_angle_gamma	105.184202
loop_
_atom_site_label
_atom_site_type_symbol
_atom_site_fract_x
_atom_site_fract_y
_atom_site_fract_z
Zn1	Zn	1.570185	-0.216859	0.529924
Zn2	Zn	1.547507	-0.394496	0.429478
Zn3	Zn	1.392554	-0.239424	0.403969
Zn4	Zn	1.369964	-0.416965	0.529846
O5	O	1.470052	-0.316936	0.473304
O6	O	1.715818	-0.221576	0.527307
O7	O	1.526916	-0.373965	0.331378
O8	O	1.435062	-0.087787	0.410034
O9	O	1.699157	-0.352085	0.453511
O10	O	1.565567	-0.071209	0.502572
O11	O	1.413073	-0.260035	0.312637
O12	O	1.240916	-0.281822	0.409959
O13	O	1.396560	-0.390381	0.624572
O14	O	1.224319	-0.412261	0.502440
O15	O	1.543662	-0.243364	0.624630
O16	O	1.505011	-0.546120	0.453436
O17	O	1.374570	-0.562628	0.527175
C18	C	1.194076	-0.351929	0.453423
C19	C	1.076009	-0.366925	0.444936
C20	C	1.434907	-0.592912	0.493082
C21	C	1.419969	-0.710963	0.501572
C22	C	0.909577	-0.324626	0.468969
C23	C	1.031606	-0.309129	0.477741
C24	C	1.477905	-0.755384	0.468908
C25	C	1.462467	-0.877396	0.477682
C26	C	1.747106	-0.281807	0.493263
C27	C	1.865170	-0.266838	0.501769
C28	C	1.470121	-0.316862	0.649847
C29	C	1.470150	-0.316830	0.725078
C30	C	1.505364	-0.039879	0.453467
C31	C	1.520412	0.078186	0.445013
C32	C	1.470055	-0.316926	0.297448
C33	C	1.470270	-0.316632	0.222210
C34	C	1.546747	-0.240275	0.760453
C35	C	1.546762	-0.240242	0.831140
C36	C	1.470183	-0.316771	0.866452
C37	C	1.393577	-0.393331	0.831072
C38	C	1.393559	-0.393357	0.760385
C39	C	1.393650	-0.393224	1.116142
C40	C	1.393676	-0.393193	1.186834
C41	C	1.546853	-0.240109	1.186897
C42	C	1.546835	-0.240136	1.116211
C43	C	1.470226	-0.316691	1.080836
C44	C	1.470210	-0.316724	1.004189
C45	C	1.470203	-0.316744	0.943099
H46	H	0.857255	-0.385568	0.434391
H47	H	1.538941	-0.703088	0.434449
N48	N	1.006723	-0.447668	0.399134
H49	H	1.028054	-0.428647	0.350973
H50	H	0.929395	-0.447261	0.399415
N51	N	1.310934	-0.475918	0.722226
H52	H	1.262423	-0.524395	0.755320
H53	H	1.347889	-0.519608	0.699529
H54	H	1.358942	-0.763261	0.536037
N55	N	1.100895	-0.228396	0.523548
H56	H	1.178245	-0.228773	0.523324
H57	H	1.079470	-0.247474	0.571683
H58	H	0.917493	-0.205886	0.536340
N59	N	1.381623	-0.946654	0.523338
H60	H	1.382055	-1.023998	0.523136
H61	H	1.308189	-0.937022	0.505925
H62	H	1.581451	-0.869520	0.410552
H63	H	1.609110	-0.177959	0.731708
N64	N	1.629360	-0.157654	0.869292
H65	H	1.677867	-0.109177	0.836196
H66	H	1.673019	-0.194629	0.905268
N67	N	1.629482	-0.157533	1.225051
H68	H	1.617876	-0.169121	1.275188
H69	H	1.622620	-0.083771	1.206070
H70	H	1.609196	-0.177821	1.087464
N71	N	1.311077	-0.475739	1.224923
H72	H	1.262540	-0.524239	1.191788
H73	H	1.267448	-0.438715	1.247615
H74	H	1.331284	-0.455574	1.087351
H75	H	1.331222	-0.455638	0.859828
