data_functionalizedCrystal
_audit_creation_method	'MofGen! by Chris Wilmer'
_symmetry_space_group_name_H-M	'P1'
_symmetry_Int_Tables_number	1
_symmetry_cell_setting	triclinic
loop_
_symmetry_equiv_pos_as_xyz
  x,y,z
_cell_length_a	14.044220
_cell_length_b	16.992695
_cell_length_c	15.455313
_cell_angle_alpha	87.152573
_cell_angle_beta	92.919879
_cell_angle_gamma	91.928550
loop_
_atom_site_label
_atom_site_type_symbol
_atom_site_fract_x
_atom_site_fract_y
_atom_site_fract_z
O1	O	-1.276013	-0.186891	-0.072039
O2	O	-0.999526	-0.180033	-0.072061
O3	O	-1.136661	-0.069242	-0.072043
O4	O	-1.138878	-0.297682	-0.072057
O5	O	-1.128817	-0.075549	0.072218
O6	O	-0.991682	-0.186340	0.072200
O7	O	-1.268169	-0.193198	0.072222
Cu8	Cu	-1.129209	-0.190345	0.085383
Cu9	Cu	-1.138486	-0.182886	-0.085222
O10	O	-1.131034	-0.303989	0.072204
C11	C	-1.129887	-0.042984	0.000087
C12	C	-1.121378	0.044656	0.000086
C13	C	-0.960062	-0.180184	0.000067
C14	C	-0.854158	-0.171230	0.000058
C15	C	-1.307633	-0.193047	0.000092
C16	C	-1.413537	-0.202001	0.000095
C17	C	-0.660256	-0.154861	0.000077
C18	C	-0.607433	-0.218367	0.000076
C19	C	-0.499539	-0.209259	0.000087
C20	C	-0.768160	-0.163967	0.000066
C21	C	-1.137808	-0.330247	0.000072
C22	C	-1.146317	-0.417886	0.000067
N23	N	-1.122691	-0.195591	0.205378
C24	C	-1.203475	0.089154	0.000093
C25	C	-1.195475	0.171500	0.000084
C26	C	-1.105377	0.209347	0.000074
C27	C	-1.023275	0.164843	0.000064
C28	C	-1.031276	0.082498	0.000067
C29	C	-1.072216	0.455265	0.000060
C30	C	-1.064220	0.537615	0.000060
C31	C	-1.236421	0.544267	0.000078
C32	C	-1.244414	0.461920	0.000086
C33	C	-1.162312	0.417424	0.000071
N34	N	-1.097198	0.293518	0.000068
N35	N	-1.170493	0.333254	0.000072
N36	N	-1.145011	-0.177634	-0.205217
C37	C	-1.180974	-0.148544	0.250779
C38	C	-1.176054	-0.152519	0.341587
C39	C	-1.112856	-0.203546	0.386991
C40	C	-1.054567	-0.250595	0.341583
C41	C	-1.059482	-0.246615	0.250777
C42	C	-1.091637	-0.220704	0.658569
C43	C	-1.086728	-0.224682	0.749381
C44	C	-1.208215	-0.126604	0.749379
C45	C	-1.213129	-0.122632	0.658572
C46	C	-1.154836	-0.169678	0.613172
N47	N	-1.107828	-0.207613	0.479810
N48	N	-1.159860	-0.165607	0.520354
H49	H	-0.624450	-0.093656	0.000085
H50	H	-0.643242	-0.279576	0.000069
C51	C	-0.891000	0.054713	-0.074104
C52	C	-0.941033	0.033583	0.000060
H53	H	-0.835284	0.024518	-0.074107
H54	H	-0.930425	0.044778	-0.124397
H55	H	-0.873347	0.109171	-0.074095
H56	H	-0.958692	-0.020874	0.000048
H57	H	-0.901600	0.043511	0.050366
C58	C	-1.397689	0.445477	-0.074059
C59	C	-1.343454	0.420324	0.000096
H60	H	-1.458831	0.419794	-0.074050
H61	H	-1.404669	0.500881	-0.074055
H62	H	-1.366354	0.432803	-0.124364
H63	H	-1.374786	0.433005	0.050401
H64	H	-1.336478	0.364909	0.000099
H65	H	-1.276841	0.058345	0.000107
H66	H	-1.044174	-0.259012	0.621612
H67	H	-1.232441	-0.106996	0.213817
H68	H	-1.262326	0.207727	0.000092
C69	C	-0.993096	-0.300252	0.480780
C70	C	-0.985099	-0.306688	0.391489
H71	H	-0.950214	-0.334887	0.511587
H72	H	-0.977957	-0.247572	0.495671
H73	H	-1.056541	-0.313944	0.495640
H74	H	-0.921656	-0.292990	0.376627
H75	H	-1.000233	-0.359379	0.376592
C76	C	-1.300621	0.673449	0.000073
C77	C	-1.326665	0.593180	0.000082
H78	H	-1.356339	0.703645	0.000068
H79	H	-1.261209	0.683379	0.050376
H80	H	-1.266667	0.687764	-0.050239
H81	H	-1.360613	0.578864	0.050398
H82	H	-1.366092	0.583246	-0.050225
C83	C	-0.894804	0.522775	0.000015
C84	C	-0.965179	0.579219	0.000035
H85	H	-0.833665	0.548462	-0.000007
H86	H	-0.898756	0.488602	0.050321
H87	H	-0.904256	0.492990	-0.050294
H88	H	-0.955730	0.609000	0.050347
H89	H	-0.961223	0.613406	-0.050276
H90	H	-1.005362	0.419045	0.000048
C91	C	-0.938915	-0.343968	0.259894
C92	C	-0.995421	-0.298335	0.200868
H93	H	-0.899368	-0.375900	0.229081
H94	H	-0.900238	-0.310294	0.295320
H95	H	-0.978820	-0.376667	0.295303
H96	H	-0.955515	-0.265631	0.165464
H97	H	-1.034101	-0.332013	0.165427
H98	H	-0.949916	0.195665	0.000051
C99	C	-1.328780	-0.029252	0.740254
C100	C	-1.272275	-0.074882	0.799284
H101	H	-1.368330	0.002679	0.771065
H102	H	-1.288882	0.003440	0.704847
H103	H	-1.367463	-0.062933	0.704828
H104	H	-1.233587	-0.041200	0.834706
H105	H	-1.312178	-0.107578	0.834706
H106	H	-1.223512	-0.114209	0.378552
H107	H	-1.264590	-0.081082	0.621606
C108	C	-0.967104	-0.321210	0.740267
C109	C	-1.017240	-0.280763	0.799291
H110	H	-0.924203	-0.355825	0.771082
H111	H	-1.010823	-0.350816	0.704843
H112	H	-0.932272	-0.284419	0.704857
H113	H	-1.052079	-0.317555	0.834698
H114	H	-0.973515	-0.251155	0.834730
