data_functionalizedCrystal
_audit_creation_method	'MofGen! by Chris Wilmer'
_symmetry_space_group_name_H-M	'P1'
_symmetry_Int_Tables_number	1
_symmetry_cell_setting	triclinic
loop_
_symmetry_equiv_pos_as_xyz
  x,y,z
_cell_length_a	27.732064
_cell_length_b	27.731996
_cell_length_c	13.596369
_cell_angle_alpha	89.988048
_cell_angle_beta	90.002301
_cell_angle_gamma	82.635407
loop_
_atom_site_label
_atom_site_type_symbol
_atom_site_fract_x
_atom_site_fract_y
_atom_site_fract_z
O1	O	0.640912	0.057557	-0.081628
O2	O	0.500118	0.066295	-0.081671
O3	O	0.574900	-0.008472	-0.081627
O4	O	0.566129	0.132324	-0.081672
O5	O	0.574893	-0.008476	0.081956
O6	O	0.500110	0.066291	0.081912
O7	O	0.640904	0.057554	0.081954
Zn8	Zn	0.570506	0.061922	0.107906
Zn9	Zn	0.570516	0.061927	-0.107622
O10	O	0.566121	0.132321	0.081911
C11	C	0.482107	0.066108	0.000116
C12	C	0.428453	0.065552	0.000100
C13	C	0.051389	0.017584	0.000172
C14	C	0.253049	0.019630	0.000146
O15	O	0.284309	-0.017592	0.000194
N16	N	0.272168	0.063966	0.000127
C17	C	0.240869	0.107792	0.000121
O18	O	0.261758	0.145549	0.000115
C19	C	0.039210	0.105746	0.000155
C20	C	0.020094	0.061407	0.000163
C21	C	0.032272	-0.026751	0.000182
C22	C	-0.018140	-0.027262	0.000183
C23	C	-0.049435	0.016562	0.000174
C24	C	-0.030318	0.060896	0.000165
C25	C	0.007912	0.149572	0.000156
C26	C	-0.042506	0.149057	0.000167
C27	C	-0.061622	0.104718	0.000176
C28	C	-0.112026	0.104209	0.000157
N29	N	-0.131145	0.059873	0.000176
C30	C	-0.099849	0.016050	0.000184
C31	C	0.346743	0.108864	0.000102
C32	C	0.397158	0.109376	0.000092
C33	C	0.409334	0.021213	0.000118
C34	C	0.358919	0.020702	0.000121
C35	C	0.327624	0.064529	0.000121
C36	C	-0.205719	0.014980	0.000186
C37	C	-0.256136	0.014473	0.000183
C38	C	-0.268308	0.102635	0.000162
C39	C	-0.217895	0.103142	0.000160
C40	C	-0.186601	0.059311	0.000175
O41	O	-0.143313	0.141411	0.000120
O42	O	-0.120748	-0.021702	0.000212
C43	C	0.101801	0.018095	0.000171
C44	C	0.120918	0.062430	0.000161
C45	C	0.089623	0.106253	0.000152
C46	C	0.171332	0.062941	0.000151
C47	C	0.202628	0.019118	0.000159
C48	C	0.183508	-0.025218	0.000178
C49	C	0.133096	-0.025729	0.000179
C50	C	0.108742	0.150589	0.000134
C51	C	0.159154	0.151096	0.000131
C52	C	0.190450	0.107273	0.000140
C53	C	0.574717	-0.026482	0.000168
C54	C	0.574174	-0.080138	0.000178
C55	C	0.570763	-0.412852	-0.089041
C56	C	0.568702	-0.614511	-0.089058
O57	O	0.568418	-0.640579	-0.164894
N58	N	0.568442	-0.639730	0.000110
C59	C	0.568694	-0.614531	0.089289
O60	O	0.568421	-0.640608	0.165131
C61	C	0.570752	-0.412873	0.089306
C62	C	0.571017	-0.387657	0.000132
C63	C	0.571028	-0.387636	-0.178207
C64	C	0.571545	-0.337225	-0.178202
C65	C	0.571799	-0.312030	-0.089030
C66	C	0.571535	-0.337246	0.000137
C67	C	0.571000	-0.387675	0.178483
C68	C	0.571514	-0.337257	0.178480
C69	C	0.571778	-0.312041	0.089306
C70	C	0.572306	-0.261640	0.089314
N71	N	0.572566	-0.236420	0.000146
C72	C	0.572312	-0.261615	-0.089026
C73	C	0.567615	-0.720404	0.089273
C74	C	0.567102	-0.770819	0.089270
C75	C	0.567109	-0.770795	-0.089078
C76	C	0.567626	-0.720380	-0.089073
C77	C	0.567875	-0.695185	0.000105
C78	C	0.573400	-0.155748	-0.089008
C79	C	0.573920	-0.105333	-0.088994
C80	C	0.573911	-0.105361	0.089352
C81	C	0.573393	-0.155772	0.089340
C82	C	0.573137	-0.180964	0.000152
O83	O	0.572585	-0.235539	0.165110
O84	O	0.572575	-0.235528	-0.164857
C85	C	0.570245	-0.463263	-0.089046
C86	C	0.569981	-0.488479	0.000121
C87	C	0.570234	-0.463284	0.089293
C88	C	0.569467	-0.538894	0.000117
C89	C	0.569214	-0.564089	-0.089055
C90	C	0.569474	-0.538870	-0.178223
C91	C	0.569992	-0.488458	-0.178218
C92	C	0.569974	-0.488504	0.178461
C93	C	0.569457	-0.538915	0.178448
C94	C	0.569204	-0.564110	0.089276
C95	C	0.658915	0.057740	0.000166
C96	C	0.712569	0.058296	0.000175
C97	C	0.566305	0.150330	0.000114
C98	C	0.566848	0.203986	0.000097
N99	N	0.570503	0.061918	0.254997
N100	N	0.570523	0.061927	-0.254714
C101	C	0.570515	0.061927	0.656288
C102	C	0.570510	0.061926	0.544637
C103	C	0.570509	0.061923	0.455646
C104	C	0.570504	0.061921	0.343988
H105	H	0.412717	0.145480	0.000071
H106	H	0.321266	0.144555	0.000100
H107	H	0.023467	0.185677	0.000145
F108	F	0.570757	-0.414443	-0.273125
F109	F	-0.075810	0.195704	0.000171
H110	H	0.569270	-0.559393	-0.250831
F111	F	0.574182	-0.078538	0.184251
F112	F	0.338579	-0.026488	0.000133
F113	F	0.569178	-0.565747	0.273367
H114	H	0.434824	-0.014470	0.000121
H115	H	0.570785	-0.408197	0.251099
F116	F	0.570273	-0.461628	-0.273130
F117	F	0.179493	0.198290	0.000114
F118	F	0.075441	0.197234	0.000122
H119	H	-0.271697	-0.021635	0.000188
H120	H	0.566893	-0.791346	0.161884
H121	H	0.567821	-0.699896	0.161897
H122	H	0.574137	-0.084804	-0.161614
F123	F	0.112758	-0.072920	0.000184
H124	H	-0.202330	0.139246	0.000152
H125	H	0.567840	-0.699852	-0.161686
H126	H	-0.293798	0.138315	0.000150
H127	H	0.566903	-0.791317	-0.161685
F128	F	0.573120	-0.182611	0.184248
F129	F	0.571779	-0.310446	0.273398
F130	F	0.216824	-0.071858	0.000183
F131	F	0.573127	-0.182553	-0.183932
H132	H	0.570182	-0.467995	0.251077
H133	H	-0.180245	-0.020712	0.000198
F134	F	-0.038478	-0.074453	0.000184
H135	H	0.571759	-0.316698	-0.250817
H136	H	0.057749	-0.062439	0.000192
