data_functionalizedCrystal
_audit_creation_method	'MofGen! by Chris Wilmer'
_symmetry_space_group_name_H-M	'P1'
_symmetry_Int_Tables_number	1
_symmetry_cell_setting	triclinic
loop_
_symmetry_equiv_pos_as_xyz
  x,y,z
_cell_length_a	12.759394
_cell_length_b	12.759401
_cell_length_c	12.759393
_cell_angle_alpha	89.979062
_cell_angle_beta	90.031220
_cell_angle_gamma	89.983638
loop_
_atom_site_label
_atom_site_type_symbol
_atom_site_fract_x
_atom_site_fract_y
_atom_site_fract_z
Zn1	Zn	-0.418173	-1.606265	0.594015
Zn2	Zn	-0.593889	-1.606156	0.418333
Zn3	Zn	-0.418229	-1.430564	0.418350
Zn4	Zn	-0.593815	-1.430556	0.593970
O5	O	-0.506026	-1.518385	0.506167
O6	O	-0.441489	-1.753272	0.570722
O7	O	-0.570641	-1.582821	0.271314
O8	O	-0.271200	-1.453921	0.441678
O9	O	-0.570587	-1.753192	0.441649
O10	O	-0.271159	-1.583008	0.570739
O11	O	-0.441585	-1.453815	0.271327
O12	O	-0.441513	-1.283542	0.441635
O13	O	-0.570462	-1.453906	0.740997
O14	O	-0.570516	-1.283536	0.570662
O15	O	-0.441418	-1.582999	0.741030
O16	O	-0.740900	-1.582813	0.441605
O17	O	-0.740846	-1.453800	0.570645
C18	C	-0.778994	-1.518322	0.506141
C19	C	-0.895771	-1.518391	0.506166
C20	C	-0.506014	-1.245418	0.506146
C21	C	-0.506033	-1.128641	0.506162
C22	C	-0.505925	-1.518464	0.780200
C23	C	-0.505883	-1.518497	0.896977
C24	C	-0.895773	-1.652833	0.371897
C25	C	-0.950636	-1.720082	0.304775
C26	C	-1.060357	-1.720143	0.304804
C27	C	-1.115219	-1.652951	0.371964
C28	C	-1.060357	-1.585703	0.439086
C29	C	-0.950633	-1.585647	0.439048
C30	C	-1.060354	-1.451268	0.573358
C31	C	-0.950632	-1.451200	0.573326
C32	C	-1.115216	-1.384076	0.640518
C33	C	-1.060354	-1.316821	0.707636
C34	C	-0.950626	-1.316761	0.707604
C35	C	-0.895770	-1.383951	0.640448
C36	C	-0.231993	-1.518477	0.506215
C37	C	-0.115216	-1.518516	0.506236
C38	C	-0.506040	-1.792419	0.506188
C39	C	-0.506046	-1.909195	0.506198
C40	C	-0.573307	-1.073804	0.573241
C41	C	-0.573311	-0.964080	0.573262
C42	C	-0.438765	-0.964041	0.439116
C43	C	-0.438756	-1.073763	0.439101
C44	C	-0.506051	-1.518367	0.233200
C45	C	-0.505798	-1.518537	0.116423
C46	C	-0.438679	-1.585721	0.951858
C47	C	-0.438633	-1.585739	1.061582
C48	C	-0.573005	-1.451306	1.061535
C49	C	-0.573044	-1.451284	0.951813
H50	H	-0.905957	-1.774791	0.250096
H51	H	-0.627687	-1.396586	1.106195
O52	O	-0.645854	-1.133000	0.645579
H53	H	-0.692625	-1.076429	0.692234
H54	H	-0.628091	-0.919435	0.627885
H55	H	-0.627768	-1.396535	0.907128
O56	O	-0.366209	-1.132922	0.366733
H57	H	-0.319445	-1.076330	0.320087
H58	H	-0.383908	-1.640478	1.106261
H59	H	-1.204560	-1.653017	0.371990
H60	H	-0.383989	-1.640448	0.907214
O61	O	-0.777431	-1.652761	0.371865
H62	H	-0.748499	-1.710782	0.313896
O63	O	-1.119534	-1.244358	0.780059
H64	H	-1.098399	-1.262328	0.862526
O65	O	-0.366237	-0.904852	0.366753
H66	H	-0.377561	-0.819342	0.378013
O67	O	-0.777428	-1.383868	0.640420
H68	H	-0.748404	-1.463081	0.661715
H69	H	-1.204557	-1.384136	0.640541
O70	O	-1.119541	-1.792669	0.232408
H71	H	-1.062964	-1.839377	0.185698
H72	H	-0.905962	-1.262004	0.762267
