data_functionalizedCrystal
_audit_creation_method	'MofGen! by Chris Wilmer'
_symmetry_space_group_name_H-M	'P1'
_symmetry_Int_Tables_number	1
_symmetry_cell_setting	triclinic
loop_
_symmetry_equiv_pos_as_xyz
  x,y,z
_cell_length_a	14.519731
_cell_length_b	19.188930
_cell_length_c	12.996460
_cell_angle_alpha	89.988736
_cell_angle_beta	89.994327
_cell_angle_gamma	83.416817
loop_
_atom_site_label
_atom_site_type_symbol
_atom_site_fract_x
_atom_site_fract_y
_atom_site_fract_z
O1	O	1.223288	0.091595	-0.085581
O2	O	0.954747	0.102358	-0.085584
O3	O	1.096767	-0.004651	-0.085562
O4	O	1.081268	0.198604	-0.085603
O5	O	1.096752	-0.004657	0.085571
O6	O	0.954732	0.102352	0.085550
O7	O	1.223273	0.091589	0.085553
Cu8	Cu	1.089001	0.096970	0.101177
Cu9	Cu	1.089018	0.096977	-0.101208
O10	O	1.081253	0.198598	0.085531
C11	C	0.920383	0.101851	-0.000017
C12	C	0.818012	0.100339	-0.000018
C13	C	0.734876	0.099112	-0.000021
C14	C	0.630576	0.097577	-0.000022
C15	C	0.547445	0.096360	-0.000021
C16	C	0.443139	0.094826	-0.000023
C17	C	1.096257	-0.030667	0.000007
C18	C	1.094751	-0.108177	0.000016
C19	C	1.178083	-0.152799	0.000022
C20	C	1.176668	-0.225628	0.000006
C21	C	1.091915	-0.253831	0.000004
C22	C	1.008571	-0.209199	-0.000008
C23	C	1.009989	-0.136372	-0.000002
N24	N	1.027126	-0.362073	0.058243
N25	N	1.025785	-0.431256	0.058240
C26	C	1.087638	-0.473255	-0.000017
N27	N	1.150897	-0.443459	-0.058257
N28	N	1.152241	-0.374269	-0.058248
C29	C	1.090368	-0.332799	-0.000003
C30	C	1.169442	-0.596848	-0.000030
C31	C	1.168023	-0.669678	-0.000053
C32	C	0.999924	-0.653247	-0.000056
C33	C	1.001345	-0.580419	-0.000044
C34	C	1.086106	-0.552224	-0.000026
C35	C	1.257637	0.092097	-0.000016
C36	C	1.360007	0.093608	-0.000023
C37	C	1.081762	0.224614	-0.000041
C38	C	1.083269	0.302124	-0.000057
N39	N	1.088996	0.096965	0.243524
N40	N	1.089031	0.096977	-0.243556
C41	C	1.089017	0.096978	0.663338
C42	C	1.089008	0.096977	0.546533
C43	C	1.089007	0.096972	0.453435
C44	C	1.088997	0.096969	0.336622
H45	H	1.247103	-0.129848	0.000033
O46	O	0.917512	-0.680519	-0.000104
C47	C	0.844262	-0.625512	-0.000073
H48	H	0.869915	-0.576000	-0.032465
H49	H	0.785075	-0.640800	-0.049762
H50	H	0.818563	-0.615256	0.082029
O51	O	0.920418	-0.537041	-0.000220
C52	C	0.916226	-0.494396	-0.088835
H53	H	0.963499	-0.520993	-0.150785
H54	H	0.841910	-0.486301	-0.118588
H55	H	0.939877	-0.441411	-0.068791
H56	H	1.244530	-0.261967	0.000006
O57	O	1.248954	-0.713054	-0.000234
C58	C	1.253168	-0.755665	-0.088861
H59	H	1.205909	-0.729045	-0.150810
H60	H	1.327491	-0.763748	-0.118605
H61	H	1.229513	-0.808658	-0.068836
H62	H	0.942127	-0.100039	-0.000006
H63	H	0.939565	-0.232167	-0.000011
H64	H	1.238459	-0.573890	-0.000021
