data_functionalizedCrystal
_audit_creation_method	'MofGen! by Chris Wilmer'
_symmetry_space_group_name_H-M	'P1'
_symmetry_Int_Tables_number	1
_symmetry_cell_setting	triclinic
loop_
_symmetry_equiv_pos_as_xyz
  x,y,z
_cell_length_a	6.817900
_cell_length_b	11.452834
_cell_length_c	19.452420
_cell_angle_alpha	83.155818
_cell_angle_beta	78.303285
_cell_angle_gamma	71.302722
loop_
_atom_site_label
_atom_site_type_symbol
_atom_site_fract_x
_atom_site_fract_y
_atom_site_fract_z
V1	V	4.048719	-0.380960	-0.050614
V2	V	4.548719	0.119040	0.449386
O3	O	4.044824	-0.373094	0.050278
O4	O	4.544824	0.126906	0.550278
O5	O	3.991421	-0.378945	-0.146375
O6	O	4.491421	0.121055	0.353625
O7	O	4.013848	-0.546840	-0.028842
O8	O	4.513848	-0.046840	0.471158
O9	O	4.022241	-0.204036	-0.068069
O10	O	4.522241	0.295964	0.431931
V11	V	4.531747	-0.359727	-0.041027
V12	V	5.031747	0.140273	0.458973
O13	O	4.311064	-0.427537	-0.071644
O14	O	4.811064	0.072463	0.428356
O15	O	4.719600	-0.313150	-0.019996
O16	O	5.219600	0.186850	0.480004
O17	O	4.365839	-0.361741	0.054734
O18	O	4.865839	0.138259	0.554734
O19	O	4.653039	-0.367593	-0.141918
O20	O	5.153039	0.132407	0.358082
O21	O	4.675621	-0.536650	-0.023571
O22	O	5.175621	-0.036650	0.476429
O23	O	4.343411	-0.193846	-0.062799
O24	O	4.843411	0.306154	0.437201
C25	C	3.833819	-0.373088	-0.170375
C26	C	4.333819	0.126912	0.329625
C27	C	3.868348	-0.372546	-0.248526
C28	C	4.368348	0.127454	0.251474
C29	C	3.836208	-0.260497	-0.288852
C30	C	4.336208	0.239503	0.211148
C31	C	3.868720	-0.259951	-0.362285
C32	C	4.368720	0.240049	0.137715
C33	C	3.933333	-0.371458	-0.395389
C34	C	4.433333	0.128542	0.104611
C35	C	3.965486	-0.483522	-0.355054
C36	C	4.465486	0.016478	0.144946
C37	C	3.932994	-0.484066	-0.281622
C38	C	4.432994	0.015934	0.218378
N39	N	3.906536	-0.449991	-0.506237
N40	N	4.406536	0.050009	-0.006237
N41	N	3.937394	-0.449467	-0.575995
N42	N	4.437394	0.050533	-0.075995
C43	C	4.031238	-0.369827	-0.616634
C44	C	4.531238	0.130173	-0.116634
N45	N	4.093023	-0.290711	-0.584881
N46	N	4.593023	0.209289	-0.084881
N47	N	4.062151	-0.291232	-0.515118
N48	N	4.562151	0.208768	-0.015118
C49	C	3.968572	-0.370881	-0.475013
C50	C	4.468572	0.129119	0.024987
C51	C	4.034351	-0.257178	-0.736585
C52	C	4.534351	0.242822	-0.236585
C53	C	4.066877	-0.256636	-0.810020
C54	C	4.566877	0.243364	-0.310020
C55	C	4.163624	-0.480210	-0.802787
C56	C	4.663624	0.019790	-0.302787
C57	C	4.131117	-0.480749	-0.729354
C58	C	4.631117	0.019251	-0.229354
C59	C	4.066471	-0.369229	-0.696257
C60	C	4.566471	0.130771	-0.196257
C61	C	3.862426	-0.587253	-0.020449
C62	C	4.362426	-0.087253	0.479551
C63	C	3.915140	-0.722865	-0.003282
C64	C	4.415140	-0.222865	0.496718
C65	C	3.972677	-0.800259	-0.054687
C66	C	4.472677	-0.300259	0.445313
C67	C	4.027160	-0.940421	-0.036945
C68	C	4.527160	-0.440421	0.463055
C69	C	4.186782	-0.367596	0.078730
C70	C	4.686782	0.132404	0.578730
C71	C	4.131492	-0.368145	0.156881
C72	C	4.631492	0.131855	0.656881
C73	C	4.158175	-0.153427	-0.071194
C74	C	4.658175	0.346573	0.428806
C75	C	4.084699	-0.017814	-0.088359
C76	C	4.584699	0.482186	0.411641
H77	H	3.783584	-0.169689	-0.261910
H78	H	4.283584	0.330311	0.238090
C79	C	4.036544	-0.606180	-0.391469
C80	C	4.536544	-0.106180	0.108531
N81	N	4.090067	-0.698570	-0.418897
N82	N	4.590067	-0.198570	0.081103
H83	H	4.093634	-0.980316	-0.145508
H84	H	4.593634	-0.480316	0.354492
H85	H	4.216234	-0.571002	-0.829739
H86	H	4.716234	-0.071002	-0.329739
C87	C	3.833348	-0.136683	-0.406652
C88	C	4.333348	0.363317	0.093348
N89	N	3.806697	-0.043837	-0.440067
N90	N	4.306697	0.456163	0.059933
C91	C	4.166433	-0.604012	-0.684992
C92	C	4.666433	-0.104012	-0.184992
N93	N	4.193033	-0.696859	-0.651580
N94	N	4.693033	-0.196859	-0.151580
C95	C	3.984756	-0.749597	-0.131891
C96	C	4.484756	-0.249597	0.368109
N97	N	3.993860	-0.711440	-0.190042
N98	N	4.493860	-0.211440	0.309958
H99	H	3.981711	-0.166371	-0.709637
H100	H	4.481711	0.333629	-0.209637
C101	C	4.031519	-0.133367	-0.854379
C102	C	4.531519	0.366633	-0.354379
N103	N	4.004883	-0.040518	-0.887791
N104	N	4.504883	0.459482	-0.387791
C105	C	3.903076	-0.773527	0.073922
C106	C	4.403076	-0.273527	0.573922
N107	N	3.893983	-0.811684	0.132073
N108	N	4.393983	-0.311684	0.632073
H109	H	3.959175	-0.575313	-0.248788
H110	H	4.459175	-0.075313	0.251212
H111	H	4.018243	-0.977922	0.020204
H112	H	4.518243	-0.477922	0.520204
