data_functionalizedCrystal
_audit_creation_method	'MofGen! by Chris Wilmer'
_symmetry_space_group_name_H-M	'P1'
_symmetry_Int_Tables_number	1
_symmetry_cell_setting	triclinic
loop_
_symmetry_equiv_pos_as_xyz
  x,y,z
_cell_length_a	8.559649
_cell_length_b	13.339070
_cell_length_c	7.681481
_cell_angle_alpha	82.700297
_cell_angle_beta	94.913240
_cell_angle_gamma	92.703979
loop_
_atom_site_label
_atom_site_type_symbol
_atom_site_fract_x
_atom_site_fract_y
_atom_site_fract_z
O1	O	2.094922	-0.022785	-0.146401
O2	O	1.652108	0.027721	-0.146409
O3	O	1.822694	-0.140848	-0.146401
O4	O	1.924335	0.145783	-0.146409
O5	O	1.843672	-0.161637	0.146458
O6	O	1.673086	0.006931	0.146450
O7	O	2.115899	-0.043574	0.146458
Zn8	Zn	1.897823	-0.021623	0.192951
Zn9	Zn	1.870184	0.005769	-0.192903
O10	O	1.945313	0.124994	0.146449
C11	C	1.604764	0.021153	0.000020
C12	C	1.432434	0.032546	0.000017
C13	C	1.816014	-0.187598	0.000026
C14	C	1.764836	-0.295923	0.000018
C15	C	2.162764	-0.691632	0.000026
C16	C	2.210854	-0.589856	0.000043
C17	C	2.099353	-0.516368	0.000036
C18	C	1.939755	-0.544665	0.000013
C19	C	1.891662	-0.646451	0.000010
C20	C	1.828251	-0.471188	0.000020
C21	C	1.668653	-0.499485	-0.000003
C22	C	1.620567	-0.601262	-0.000008
C23	C	1.732068	-0.674750	-0.000001
C24	C	1.876344	-0.369401	0.000024
C25	C	1.605242	-0.324221	0.000008
C26	C	1.557152	-0.425997	-0.000010
C27	C	2.163243	-0.037007	0.000025
C28	C	2.335572	-0.048399	0.000017
C29	C	1.951993	0.171744	0.000019
C30	C	2.003170	0.280070	0.000015
N31	N	1.916697	-0.040318	0.456287
N32	N	1.851319	0.024455	-0.456238
H33	H	2.006290	-0.346373	0.000043
C34	C	2.162551	-0.122669	0.513338
C35	C	2.006810	-0.129576	0.557800
H36	H	2.218179	-0.177771	0.576017
H37	H	2.164576	-0.124704	0.390402
H38	H	2.210526	-0.060853	0.543471
H39	H	1.958831	-0.191390	0.527655
H40	H	2.004777	-0.127551	0.680764
C41	C	1.565250	-0.145004	0.000033
C42	C	1.401586	-0.153724	0.000026
H43	H	1.606008	-0.210030	0.000049
H44	H	1.593055	-0.102297	-0.102089
H45	H	1.607681	-0.116786	0.102165
H46	H	1.359154	-0.181935	-0.102113
H47	H	1.373767	-0.196447	0.102158
H48	H	1.383518	0.110568	0.000005
C49	C	1.831971	0.204815	0.486677
C50	C	1.761213	0.113709	0.442254
H51	H	1.776346	0.259916	0.423992
H52	H	1.829920	0.206842	0.609611
H53	H	1.937631	0.209478	0.456523
H54	H	1.655556	0.109042	0.472420
H55	H	1.763248	0.111681	0.319292
H56	H	2.253531	-0.751474	0.000046
C57	C	2.315837	-0.395172	0.000045
C58	C	2.152209	-0.404492	0.000034
H59	H	2.348467	-0.326101	0.000026
H60	H	2.362314	-0.433782	0.102175
H61	H	2.347694	-0.419300	-0.102079
H62	H	2.120352	-0.380372	0.102165
H63	H	2.105715	-0.365869	-0.102106
H64	H	2.340798	-0.566825	0.000065
H65	H	1.490613	-0.624297	-0.000013
C66	C	1.578614	-0.797553	-0.150590
C67	C	1.679214	-0.786628	-0.000031
H68	H	1.545999	-0.866624	-0.150613
H69	H	1.489372	-0.757852	-0.150569
H70	H	1.632259	-0.775604	-0.252697
H71	H	1.625565	-0.808569	0.102077
H72	H	1.768470	-0.826342	-0.000036
H73	H	1.514449	-0.264387	0.000011
H74	H	1.427204	-0.449051	-0.000028
