data_functionalizedCrystal
_audit_creation_method	'MofGen! by Chris Wilmer'
_symmetry_space_group_name_H-M	'P1'
_symmetry_Int_Tables_number	1
_symmetry_cell_setting	triclinic
loop_
_symmetry_equiv_pos_as_xyz
  x,y,z
_cell_length_a	19.376995
_cell_length_b	14.395555
_cell_length_c	19.377574
_cell_angle_alpha	104.492386
_cell_angle_beta	55.721819
_cell_angle_gamma	72.115099
loop_
_atom_site_label
_atom_site_type_symbol
_atom_site_fract_x
_atom_site_fract_y
_atom_site_fract_z
Zr1	Zr	0.780219	1.001236	-0.236137
O2	O	0.928937	0.840837	-0.377144
O3	O	0.631505	1.032191	-0.174058
O4	O	0.780219	1.008372	-0.349949
O5	O	0.780221	0.904167	-0.083952
O6	O	0.780214	1.161247	-0.349942
O7	O	0.780223	0.864656	-0.201253
O8	O	0.514191	1.203856	-0.035305
O9	O	1.046244	0.861558	-0.398589
O10	O	0.692667	1.181490	-0.170354
O11	O	0.692669	1.096887	-0.082818
O12	O	0.867761	1.068843	-0.289908
O13	O	0.867764	0.984239	-0.202372
Zr14	Zr	0.780207	1.308068	-0.049043
Zr15	Zr	0.780210	1.245054	-0.236125
Zr16	Zr	0.780215	1.064250	-0.049055
Zr17	Zr	0.967309	1.034283	-0.270339
Zr18	Zr	0.593117	1.275021	-0.014841
O19	O	0.928920	1.277113	-0.111122
O20	O	0.928925	1.187515	-0.377128
O21	O	0.928932	0.930435	-0.111138
O22	O	0.631488	1.468468	0.091964
O23	O	0.631493	1.378870	-0.174042
O24	O	0.631500	1.121789	0.091948
O25	O	0.780204	1.405138	-0.201228
O26	O	0.780206	1.300933	0.064769
O27	O	0.780211	1.148057	0.064762
O28	O	0.780202	1.444648	-0.083927
O29	O	1.046237	1.055361	-0.398580
O30	O	0.514188	1.253944	0.113400
O31	O	0.514181	1.447747	0.113409
O32	O	0.514184	1.397659	-0.035296
O33	O	1.046241	0.911646	-0.249884
O34	O	1.046234	1.105449	-0.249875
O35	O	0.692664	1.240462	0.004727
O36	O	0.692661	1.325065	-0.082808
O37	O	0.867756	1.212418	-0.202362
O38	O	0.867758	1.127814	-0.114827
C39	C	0.546192	1.113315	-0.099808
C40	C	0.466767	1.099286	-0.085289
C41	C	0.354823	1.035351	-0.019136
C42	C	0.429454	1.048540	-0.032784
C43	C	0.429461	1.136858	-0.124171
C44	C	0.354832	1.123671	-0.110534
C45	C	0.317518	1.072919	-0.058015
C46	C	0.317528	1.161239	-0.149413
C47	C	0.242901	1.148059	-0.135773
C48	C	0.205580	1.097312	-0.083254
C49	C	0.242892	1.059739	-0.044375
C50	C	0.354838	1.211999	-0.201926
C51	C	0.317534	1.249566	-0.240805
C52	C	0.242911	1.236379	-0.227172
C53	C	0.205589	1.185632	-0.174652
C54	C	0.205599	1.273952	-0.266051
C55	C	0.130973	1.260772	-0.252411
C56	C	0.130963	1.172452	-0.161012
C57	C	0.780223	0.849673	-0.142604
C58	C	0.780227	0.746165	-0.142609
C59	C	0.875696	0.624159	-0.207788
C60	C	0.827972	0.573243	-0.233651
C61	C	0.827947	0.612655	-0.116752
C62	C	0.732502	0.696597	-0.168520
C63	C	0.732491	0.736023	-0.051578
C64	C	0.684697	0.685176	-0.077408
C65	C	1.014234	1.195989	-0.185372
C66	C	1.093658	1.210019	-0.199891
C67	C	0.780217	1.075831	-0.376601
C68	C	0.780218	1.049080	-0.456022
C69	C	0.780202	1.459632	-0.142576
C70	C	0.780198	1.563139	-0.142571
C71	C	0.780202	1.382168	-0.717226
C72	C	0.780205	1.357002	-0.791855
C73	C	0.780211	1.188571	-0.791844
C74	C	0.780213	1.213721	-0.717217
C75	C	0.780207	1.310522	-0.679913
C76	C	0.780218	1.142074	-0.679904
C77	C	0.780214	1.167225	-0.605280
C78	C	0.780206	1.264023	-0.567968
C79	C	0.780204	1.335673	-0.605288
C80	C	0.780216	1.045278	-0.717205
C81	C	0.780221	0.973632	-0.679892
C82	C	0.780225	0.998778	-0.605271
C83	C	0.780217	1.095576	-0.567959
C84	C	0.780227	0.927128	-0.567951
C85	C	0.780224	0.952279	-0.493326
C86	C	0.780213	1.120727	-0.493335
C87	C	0.780208	1.233473	0.091421
C88	C	0.780207	1.260224	0.170842
C89	C	0.546181	1.418295	-0.099794
C90	C	0.466753	1.507773	-0.085269
C91	C	0.546187	1.192136	0.134202
C92	C	0.466761	1.204858	0.228143
C93	C	0.546177	1.497116	0.134217
C94	C	0.466747	1.613345	0.228162
C95	C	1.014249	0.812189	-0.419397
C96	C	1.093678	0.695960	-0.513342
C97	C	1.014244	0.891010	-0.185386
C98	C	1.093672	0.801532	-0.199911
C99	C	1.014238	1.117168	-0.419382
C100	C	1.093664	1.104447	-0.513323
C101	C	0.429455	1.474845	-0.124154
C102	C	0.354834	1.558905	-0.110526
C103	C	0.317507	1.675894	-0.058007
C104	C	0.354812	1.708821	-0.019122
C105	C	0.429437	1.624760	-0.032756
C106	C	0.429459	1.285779	0.317965
C107	C	0.354840	1.297732	0.406237
C108	C	0.317520	1.228769	0.404687
C109	C	0.354829	1.147838	0.314856
C110	C	0.429452	1.135880	0.226584
C111	C	0.429445	1.712099	0.226588
C112	C	0.354822	1.821317	0.314851
C113	C	0.317499	1.831778	0.404688
C114	C	0.354808	1.733012	0.406260
C115	C	0.429434	1.623798	0.317997
C116	C	1.130990	0.597207	-0.511770
C117	C	1.205635	0.487993	-0.600037
C118	C	1.242963	0.477533	-0.689875
C119	C	1.205648	0.576298	-0.691445
C120	C	1.131009	0.685510	-0.603180
C121	C	1.130978	0.834458	-0.161035
C122	C	1.205619	0.750394	-0.174687
C123	C	1.242949	0.633406	-0.227210
C124	C	1.205641	0.600479	-0.266091
C125	C	1.131006	0.684542	-0.252444
C126	C	1.130961	1.173427	-0.511741
C127	C	1.205580	1.161497	-0.599999
C128	C	1.242907	1.080580	-0.689840
C129	C	1.205602	1.011597	-0.691419
C130	C	1.130979	1.023533	-0.603161
H131	H	0.324448	0.994011	0.023620
H132	H	0.868321	0.503413	-0.310617
H133	H	0.256742	1.744330	-0.046911
F134	F	0.579121	0.717735	-0.005389
F135	F	0.238098	1.241509	0.498643
F136	F	1.091301	0.950100	-0.604861
F137	F	0.315073	1.833335	0.036774
H138	H	1.303738	0.388599	-0.761739
H139	H	0.256733	1.920714	0.476550
H140	H	0.324432	1.091692	0.313608
F141	F	0.315125	1.926415	0.313158
F142	F	0.469118	1.659823	0.008642
H143	H	0.415611	1.222717	-0.213038
H144	H	1.100601	0.605701	-0.438627
F145	F	0.091257	1.300772	-0.293777
F146	F	0.469162	1.359191	0.319637
H147	H	0.459831	1.017935	-0.001128
F148	F	0.469171	1.350341	-0.180056
H149	H	0.324471	1.363637	0.479373
F150	F	1.245332	0.382895	-0.598344
H151	H	0.459814	1.069989	0.153452
H152	H	1.236046	0.505216	-0.308855
H153	H	0.459823	1.703603	0.153447
F154	F	0.679822	0.744107	-0.197222
H155	H	1.100631	0.765914	-0.604472
F156	F	0.981211	0.591750	-0.279909
H157	H	0.324408	1.741547	0.479417
F158	F	1.091264	0.958962	-0.105135
F159	F	0.469122	1.518700	0.319688
F160	F	0.780212	1.438692	-0.565594
F161	F	1.091248	1.259554	-0.416135
F162	F	0.780223	0.870615	-0.719598
F163	F	1.245384	0.565147	-0.787066
F164	F	1.245309	0.785461	-0.133296
H165	H	1.303670	1.070871	-0.761698
F166	F	0.357253	1.303579	-0.296697
H167	H	1.235945	1.217672	-0.598695
H168	H	1.303722	0.564968	-0.238314
F169	F	0.679796	0.827298	0.048995
H170	H	0.780198	1.284502	-0.507200
H171	H	0.868314	0.576126	-0.094899
H172	H	0.780227	0.893938	-0.462945
F173	F	1.091305	0.649481	-0.293819
F174	F	1.245345	0.925475	-0.787045
H175	H	0.780222	0.848320	-0.598327
H176	H	0.780219	1.199545	-0.462967
F177	F	0.091257	1.118419	-0.105127
H178	H	0.459849	1.178185	-0.166929
H179	H	0.144813	1.086583	-0.072148
H180	H	0.212517	1.018398	-0.001619
H181	H	0.780208	1.460987	-0.686858
H182	H	0.780199	1.415354	-0.822230
H183	H	0.780212	1.109758	-0.822224
F184	F	0.245313	1.327975	-0.321934
H185	H	0.324470	1.532074	-0.142193
F186	F	0.780213	1.018520	-0.796624
