data_functionalizedCrystal
_audit_creation_method	'MofGen! by Chris Wilmer'
_symmetry_space_group_name_H-M	'P1'
_symmetry_Int_Tables_number	1
_symmetry_cell_setting	triclinic
loop_
_symmetry_equiv_pos_as_xyz
  x,y,z
_cell_length_a	16.120297
_cell_length_b	17.077404
_cell_length_c	17.077402
_cell_angle_alpha	90.023108
_cell_angle_beta	87.129208
_cell_angle_gamma	87.121653
loop_
_atom_site_label
_atom_site_type_symbol
_atom_site_fract_x
_atom_site_fract_y
_atom_site_fract_z
Zn1	Zn	-0.471375	-1.177551	0.335028
Zn2	Zn	-0.331961	-1.184114	0.459641
Zn3	Zn	-0.331979	-1.052937	0.328395
Zn4	Zn	-0.471326	-1.046253	0.466254
O5	O	-0.401660	-1.115214	0.397330
O6	O	-0.452894	-1.288268	0.351567
O7	O	-0.215300	-1.172257	0.436687
O8	O	-0.350497	-1.069519	0.219429
O9	O	-0.350467	-1.293089	0.443120
O10	O	-0.452911	-1.161072	0.224303
O11	O	-0.215313	-1.075882	0.340261
O12	O	-0.350451	-0.942204	0.346674
O13	O	-0.587995	-1.058126	0.454391
O14	O	-0.452829	-0.937293	0.447958
O15	O	-0.588031	-1.154590	0.357980
O16	O	-0.350420	-1.165775	0.570364
O17	O	-0.452811	-1.064489	0.575223
C18	C	-0.401627	-1.115140	0.601276
C19	C	-0.401640	-1.115178	0.688526
C20	C	-0.401637	-0.911267	0.397314
C21	C	-0.401647	-0.824017	0.397328
C22	C	-0.619108	-1.104880	0.407663
C23	C	-0.711772	-1.100476	0.412066
C24	C	-0.881429	-1.092408	0.420088
C25	C	-0.922743	-1.138174	0.374336
C26	C	-1.017146	-1.133685	0.378800
C27	C	-0.787017	-1.096896	0.415626
C28	C	-0.185058	-1.125552	0.386980
C29	C	-0.092395	-1.130108	0.382356
C30	C	-0.401684	-1.319957	0.397346
C31	C	-0.401694	-1.407206	0.397352
C32	C	-0.454870	-0.780494	0.450138
C33	C	-0.454883	-0.698513	0.450141
C34	C	-0.401669	-0.660056	0.397335
C35	C	-0.348444	-0.703585	0.344519
C36	C	-0.348435	-0.785564	0.344514
C37	C	-0.348464	-0.532714	0.344536
C38	C	-0.348471	-0.450729	0.344542
C39	C	-0.454912	-0.445662	0.450162
C40	C	-0.454903	-0.527642	0.450157
C41	C	-0.401677	-0.571165	0.397341
C42	C	-0.401712	-1.115309	0.192588
C43	C	-0.401734	-1.115349	0.105339
C44	C	-0.348382	-1.167966	0.726963
C45	C	-0.348404	-1.168004	0.808945
C46	C	-0.401679	-1.115249	0.852488
C47	C	-0.454943	-1.062458	0.814045
C48	C	-0.454925	-1.062425	0.732065
C49	C	-0.454975	-1.062529	0.984917
C50	C	-0.454992	-1.062561	1.066902
C51	C	-0.348453	-1.168108	1.061796
C52	C	-0.348435	-1.168075	0.979816
C53	C	-0.401698	-1.115283	0.941379
H54	H	-0.916956	-1.049858	0.462607
C55	C	-0.512732	-0.398553	0.507595
C56	C	-0.559311	-0.449779	0.553857
C57	C	-0.612568	-0.406408	0.606781
H58	H	-0.549196	-0.364854	0.479449
H59	H	-0.480793	-0.368090	0.540273
H60	H	-0.591248	-0.480228	0.521183
H61	H	-0.522869	-0.483479	0.582020
H62	H	-0.580629	-0.375945	0.639459
H63	H	-0.649026	-0.372711	0.578628
H64	H	-0.644173	-0.441158	0.638181
H65	H	-0.305050	-1.211028	0.944363
C66	C	-0.290663	-1.225253	0.850850
C67	C	-0.237208	-1.183502	0.895534
C68	C	-0.184073	-1.236246	0.934189
H69	H	-0.258846	-1.256751	0.813320
H70	H	-0.322703	-1.257848	0.884306
H71	H	-0.205171	-1.150921	0.862081
H72	H	-0.269003	-1.152007	0.933078
H73	H	-0.216113	-1.268841	0.967645
H74	H	-0.152261	-1.267741	0.896654
H75	H	-0.147802	-1.207926	0.964517
C76	C	-0.512739	-0.822097	0.507505
C77	C	-0.559369	-0.766430	0.553739
C78	C	-0.612698	-0.804722	0.606585
H79	H	-0.480876	-0.855577	0.540216
H80	H	-0.549162	-0.852346	0.479275
H81	H	-0.522951	-0.736194	0.581967
H82	H	-0.591249	-0.732947	0.521050
H83	H	-0.649121	-0.834971	0.578355
H84	H	-0.580828	-0.838201	0.639290
H85	H	-0.644348	-0.766958	0.637956
C86	C	-0.290669	-0.409117	0.287119
C87	C	-0.244075	-0.464775	0.240845
C88	C	-0.190828	-0.426471	0.187932
H89	H	-0.254215	-0.378850	0.315274
H90	H	-0.322617	-0.375652	0.254448
H91	H	-0.212130	-0.498226	0.273513
H92	H	-0.280507	-0.495045	0.212674
H93	H	-0.222776	-0.393006	0.155260
H94	H	-0.154379	-0.396205	0.216093
H95	H	-0.159213	-0.464229	0.156524
H96	H	-0.305087	-1.211095	1.093095
C97	C	-0.290625	-0.580075	0.287322
C98	C	-0.237120	-0.629670	0.329150
C99	C	-0.183834	-0.673319	0.276477
H100	H	-0.258850	-0.545529	0.255852
H101	H	-0.322554	-0.610602	0.254694
H102	H	-0.205195	-0.599145	0.361765
H103	H	-0.268873	-0.664232	0.360617
H104	H	-0.215763	-0.703847	0.243849
H105	H	-0.152065	-0.638767	0.245010
H106	H	-0.147530	-0.706979	0.304850
H107	H	-0.304996	-1.210922	0.691516
C108	C	-0.875278	-1.194791	0.317577
C109	C	-0.825271	-1.152698	0.264954
C110	C	-0.781528	-1.204824	0.212661
H111	H	-0.913527	-1.222933	0.289381
H112	H	-0.841263	-1.230558	0.346000
H113	H	-0.859283	-1.116945	0.236533
H114	H	-0.787007	-1.124559	0.293127
H115	H	-0.747513	-1.240590	0.241084
H116	H	-0.819782	-1.232962	0.184471
H117	H	-0.747587	-1.176272	0.176955
H118	H	-0.305119	-0.672267	0.301521
C119	C	-0.290506	-0.832788	0.287271
C120	C	-0.207990	-0.816764	0.300338
C121	C	-0.154603	-0.860260	0.247626
H122	H	-0.302696	-0.818830	0.235098
H123	H	-0.298068	-0.887129	0.294835
H124	H	-0.200432	-0.762435	0.292768
H125	H	-0.195774	-0.830725	0.352501
H126	H	-0.162165	-0.914600	0.255190
H127	H	-0.166800	-0.846297	0.195456
H128	H	-0.098610	-0.849398	0.256490
H129	H	-0.498389	-1.019617	1.102353
H130	H	-0.498350	-1.019543	0.953625
H131	H	-0.498325	-1.019507	0.849505
H132	H	-0.498295	-1.019441	0.700771
H133	H	-0.498222	-0.663080	0.493145
H134	H	-0.498230	-0.558951	0.493160
