data_functionalizedCrystal
_audit_creation_method	'MofGen! by Chris Wilmer'
_symmetry_space_group_name_H-M	'P1'
_symmetry_Int_Tables_number	1
_symmetry_cell_setting	triclinic
loop_
_symmetry_equiv_pos_as_xyz
  x,y,z
_cell_length_a	12.811457
_cell_length_b	12.837942
_cell_length_c	11.295483
_cell_angle_alpha	94.530417
_cell_angle_beta	91.289320
_cell_angle_gamma	89.411937
loop_
_atom_site_label
_atom_site_type_symbol
_atom_site_fract_x
_atom_site_fract_y
_atom_site_fract_z
O1	O	1.403247	0.143361	0.052516
O2	O	1.903247	0.643361	0.552516
O3	O	1.101285	0.156262	0.019904
O4	O	1.601285	0.656262	0.519904
O5	O	1.245570	-0.001170	0.035494
O6	O	1.745570	0.498830	0.535494
O7	O	1.258962	0.300794	0.036926
O8	O	1.758962	0.800794	0.536926
O9	O	1.232895	0.012636	0.232175
O10	O	1.732895	0.512636	0.732175
O11	O	1.088610	0.170068	0.216585
O12	O	1.588610	0.670068	0.716585
O13	O	1.390572	0.157167	0.249197
O14	O	1.890572	0.657167	0.749197
Cu15	Cu	1.238434	0.164878	0.250850
Cu16	Cu	1.738434	0.664878	0.750850
Cu17	Cu	1.253424	0.148551	0.018251
Cu18	Cu	1.753424	0.648551	0.518251
O19	O	1.246287	0.314600	0.233607
O20	O	1.746287	0.814600	0.733607
C21	C	1.056030	0.162019	0.114041
C22	C	1.556030	0.662019	0.614041
C23	C	0.940064	0.158592	0.101517
C24	C	1.440064	0.658592	0.601517
C25	C	0.708333	0.167186	0.292429
C26	C	1.208333	0.667186	0.792429
C27	C	0.599373	0.163965	0.280667
C28	C	1.099373	0.663965	0.780667
C29	C	0.613183	0.148924	0.066234
C30	C	1.113183	0.648924	0.566234
C31	C	0.722143	0.152145	0.077995
C32	C	1.222143	0.652145	0.577995
C33	C	0.769714	0.161277	0.191097
C34	C	1.269714	0.661277	0.691097
C35	C	0.878675	0.164504	0.202857
C36	C	1.378675	0.664504	0.702857
C37	C	0.892483	0.149456	-0.011575
C38	C	1.392483	0.649456	0.488425
C39	C	0.783524	0.146236	-0.023337
C40	C	1.283524	0.646236	0.476663
C41	C	1.234709	-0.032942	0.133346
C42	C	1.734709	0.467058	0.633346
C43	C	1.221217	-0.148180	0.131886
C44	C	1.721217	0.351820	0.631886
C45	C	1.383418	-0.387207	0.149379
C46	C	1.883418	0.112793	0.649379
C47	C	1.370746	-0.495484	0.148009
C48	C	1.870746	0.004516	0.648009
C49	C	1.183202	-0.473014	0.127766
C50	C	1.683202	0.026986	0.627766
C51	C	1.195874	-0.364737	0.129137
C52	C	1.695874	0.135263	0.629137
C53	C	1.295985	-0.321837	0.139946
C54	C	1.795985	0.178163	0.639946
C55	C	1.308656	-0.213558	0.141324
C56	C	1.808656	0.286442	0.641324
C57	C	1.121113	-0.191090	0.121074
C58	C	1.621113	0.308910	0.621074
C59	C	1.108441	-0.299367	0.119703
C60	C	1.608441	0.200633	0.619703
C61	C	1.435828	0.151410	0.155057
C62	C	1.935828	0.651410	0.655057
C63	C	1.551794	0.154837	0.167573
C64	C	2.051794	0.654837	0.667573
C65	C	1.257149	0.346371	0.135753
C66	C	1.757149	0.846371	0.635753
C67	C	1.270641	0.461609	0.137204
C68	C	1.770641	0.961609	0.637204
N69	N	1.227899	0.176362	0.414448
N70	N	1.727899	0.676362	0.914448
N71	N	1.263966	0.137060	-0.145346
N72	N	1.763966	0.637060	0.354654
C73	C	1.339800	0.054339	0.675828
C74	C	1.839800	0.554339	1.175828
C75	C	1.331847	0.063025	0.799633
C76	C	1.831847	0.563025	1.299633
C77	C	1.204033	0.202412	0.785862
C78	C	1.704033	0.702412	1.285862
C79	C	1.211987	0.193727	0.662058
C80	C	1.711987	0.693727	1.162058
C81	C	1.279873	0.119689	0.607046
C82	C	1.779873	0.619689	1.107046
C83	C	1.287832	0.111009	0.483240
C84	C	1.787832	0.611009	0.983240
C85	C	1.160014	0.250391	0.469471
C86	C	1.660014	0.750391	0.969471
C87	C	1.152060	0.259076	0.593275
C88	C	1.652060	0.759076	1.093275
H89	H	0.747065	0.174635	0.384520
H90	H	1.247065	0.674635	0.884520
F91	F	1.131777	0.281195	0.844423
F92	F	1.631777	0.781195	1.344423
F93	F	0.732884	0.136489	-0.143701
F94	F	1.232884	0.636489	0.356299
F95	F	1.415201	-0.167902	0.152836
F96	F	1.915201	0.332098	0.652836
H97	H	0.942472	0.144651	-0.094088
H98	H	1.442472	0.644651	0.405912
F99	F	1.028054	-0.121510	0.111045
F100	F	1.528054	0.378490	0.611045
H101	H	1.380643	0.009809	0.855632
H102	H	1.880643	0.509809	1.355632
H103	H	1.026933	-0.334311	0.110898
H104	H	1.526933	0.165689	0.610898
F105	F	0.562539	0.139126	-0.054126
F106	F	1.062539	0.639126	0.445874
H107	H	1.343111	0.050727	0.438450
H108	H	1.843111	0.550727	0.938450
H109	H	1.395084	-0.005938	0.631038
H110	H	1.895084	0.494062	1.131038
F111	F	1.079810	0.337866	0.651834
F112	F	1.579810	0.837866	1.151834
H113	H	0.917405	0.171947	0.294950
H114	H	1.417405	0.671947	0.794950
F115	F	0.534050	0.170252	0.388519
F116	F	1.034050	0.670252	0.888519
F117	F	1.096238	0.319949	0.396256
F118	F	1.596238	0.819949	0.896256
H119	H	1.464932	-0.352277	0.158192
H120	H	1.964932	0.147723	0.658192
H121	H	1.101697	-0.507963	0.118954
H122	H	1.601697	-0.007963	0.618954
F123	F	1.463805	-0.565052	0.158046
F124	F	1.963805	-0.065052	0.658046
