data_functionalizedCrystal
_audit_creation_method	'MofGen! by Chris Wilmer'
_symmetry_space_group_name_H-M	'P1'
_symmetry_Int_Tables_number	1
_symmetry_cell_setting	triclinic
loop_
_symmetry_equiv_pos_as_xyz
  x,y,z
_cell_length_a	19.288865
_cell_length_b	10.654534
_cell_length_c	9.130313
_cell_angle_alpha	89.995479
_cell_angle_beta	90.008224
_cell_angle_gamma	96.192674
loop_
_atom_site_label
_atom_site_type_symbol
_atom_site_fract_x
_atom_site_fract_y
_atom_site_fract_z
O1	O	0.097500	-1.665765	0.121846
O2	O	0.106806	-1.300084	0.121844
O3	O	0.001092	-1.493491	0.121816
O4	O	0.203215	-1.472358	0.121874
O5	O	0.001092	-1.493476	-0.121783
O6	O	0.106806	-1.300070	-0.121754
O7	O	0.097500	-1.665750	-0.121753
Cu8	Cu	0.102153	-1.482909	-0.143996
Cu9	Cu	0.102153	-1.482926	0.144088
O10	O	0.203215	-1.472344	-0.121725
C11	C	0.106125	-1.253293	0.000044
C12	C	0.104088	-1.113893	0.000043
C13	C	0.103129	-1.048401	-0.132746
C14	C	0.101203	-0.917422	-0.132750
C15	C	0.101198	-0.917438	0.132835
C16	C	0.103119	-1.048416	0.132837
C17	C	-0.024789	-1.492804	0.000012
C18	C	-0.101906	-1.490763	-0.000001
C19	C	-0.145863	-1.604245	-0.000007
C20	C	-0.218322	-1.602327	0.000016
C21	C	-0.246822	-1.486921	0.000016
C22	C	-0.202855	-1.373424	0.000031
C23	C	-0.130397	-1.375345	0.000023
C24	C	-0.355700	-1.396193	-0.085311
C25	C	-0.428157	-1.394277	-0.085312
C26	C	-0.470306	-1.480991	0.000049
C27	C	-0.439990	-1.569643	0.085392
C28	C	-0.367532	-1.571564	0.085383
C29	C	-0.325389	-1.484825	0.000026
C30	C	-0.592832	-1.592402	0.000070
C31	C	-0.665293	-1.590479	0.000102
C32	C	-0.649824	-1.361573	0.000103
C33	C	-0.577365	-1.363499	0.000085
C34	C	-0.548874	-1.478917	0.000062
C35	C	0.229096	-1.473031	0.000082
C36	C	0.306213	-1.475072	0.000105
C37	C	0.098187	-0.712540	0.000044
C38	C	0.100241	-0.851936	0.000036
N39	N	0.102153	-1.482906	-0.346619
C40	C	0.144669	-1.558827	-0.423252
C41	C	0.144665	-1.558848	-0.576589
C42	C	0.059627	-1.407014	-0.576646
C43	C	0.059628	-1.407001	-0.423312
N44	N	0.102148	-1.482939	0.346710
H45	H	0.103898	-1.101742	0.240976
H46	H	-0.342852	-1.643745	0.154875
O47	O	0.186005	-1.632417	-0.651193
C48	C	0.233016	-1.555582	-0.739870
H49	H	0.210921	-1.462538	-0.762870
H50	H	0.241009	-1.606030	-0.847680
H51	H	0.285130	-1.536047	-0.680769
H52	H	0.103918	-1.101708	-0.240876
H53	H	-0.474307	-1.640254	0.154902
H54	H	0.025006	-1.345214	-0.639107
O55	O	0.100387	-0.853741	0.261785
C56	C	0.159317	-0.763389	0.269727
H57	H	0.201865	-0.792678	0.194386
H58	H	0.179452	-0.757016	0.387178
H59	H	0.144287	-0.667416	0.234042
H60	H	0.100422	-0.864104	-0.240880
O61	O	-0.118302	-1.716468	0.000044
C62	C	-0.172644	-1.816220	0.000005
H63	H	-0.222023	-1.781301	0.046131
H64	H	-0.157113	-1.896830	0.070719
H65	H	-0.182738	-1.851192	-0.116864
O66	O	0.018307	-1.333129	-0.349087
C67	C	-0.019235	-1.266152	-0.449654
H68	H	0.009479	-1.258659	-0.558950
H69	H	-0.024051	-1.167432	-0.405365
H70	H	-0.073490	-1.318202	-0.465968
O71	O	-0.230619	-1.261397	0.000225
C72	C	-0.272045	-1.253435	0.126407
H73	H	-0.289610	-1.352520	0.168465
H74	H	-0.319728	-1.203645	0.098037
H75	H	-0.240298	-1.197703	0.214752
H76	H	-0.254119	-1.694741	0.000016
O77	O	-0.565265	-1.704623	0.000138
C78	C	-0.619605	-1.804378	0.000121
H79	H	-0.668984	-1.769455	0.046242
H80	H	-0.604071	-1.884975	0.070852
H81	H	-0.629701	-1.839369	-0.116740
H82	H	-0.541575	-1.271089	0.000082
O83	O	-0.708095	-1.700607	0.000168
C84	C	-0.778159	-1.674167	0.000156
H85	H	-0.781403	-1.575550	0.046283
H86	H	-0.810626	-1.746537	0.070883
H87	H	-0.799103	-1.679035	-0.116705
H88	H	-0.673028	-1.267607	0.000110
H89	H	-0.452834	-1.322085	-0.154794
H90	H	-0.321388	-1.325576	-0.154831
O91	O	-0.087793	-1.264987	-0.000043
C92	C	-0.128481	-1.162710	0.000008
H93	H	-0.182404	-1.194886	-0.046099
H94	H	-0.102144	-1.083215	-0.070718
H95	H	-0.133795	-1.127324	0.116878
H96	H	0.179295	-1.620634	-0.360814
