data_functionalizedCrystal
_audit_creation_method	'MofGen! by Chris Wilmer'
_symmetry_space_group_name_H-M	'P1'
_symmetry_Int_Tables_number	1
_symmetry_cell_setting	triclinic
loop_
_symmetry_equiv_pos_as_xyz
  x,y,z
_cell_length_a	11.792241
_cell_length_b	15.995350
_cell_length_c	10.268362
_cell_angle_alpha	89.996947
_cell_angle_beta	89.999626
_cell_angle_gamma	83.842895
loop_
_atom_site_label
_atom_site_type_symbol
_atom_site_fract_x
_atom_site_fract_y
_atom_site_fract_z
O1	O	1.505952	0.114763	-0.108167
O2	O	2.005952	0.614763	0.391833
O3	O	1.175512	0.126591	-0.108197
O4	O	1.675512	0.626591	0.391803
O5	O	1.349764	-0.001170	-0.108180
O6	O	1.849764	0.498830	0.391820
O7	O	1.331699	0.242524	-0.108184
O8	O	1.831699	0.742524	0.391816
O9	O	1.349749	-0.001175	0.108421
O10	O	1.849749	0.498825	0.608421
O11	O	1.175497	0.126586	0.108404
O12	O	1.675497	0.626586	0.608404
O13	O	1.505936	0.114758	0.108434
O14	O	2.005936	0.614758	0.608434
Cu15	Cu	1.340715	0.120671	0.128196
Cu16	Cu	1.840715	0.620671	0.628196
Cu17	Cu	1.340733	0.120678	-0.127959
Cu18	Cu	1.840733	0.620678	0.372041
O19	O	1.331684	0.242518	0.108417
O20	O	1.831684	0.742518	0.608417
C21	C	1.133220	0.125845	0.000100
C22	C	1.633220	0.625845	0.500100
C23	C	1.007224	0.123621	0.000088
C24	C	1.507224	0.623621	0.500088
C25	C	0.776546	0.119532	0.000126
C26	C	1.276546	0.619532	0.500126
C27	C	0.904913	0.121804	0.000105
C28	C	1.404913	0.621804	0.500105
C29	C	1.349010	-0.032370	0.000118
C30	C	1.849010	0.467630	0.500118
C31	C	1.346771	-0.125331	0.000111
C32	C	1.846771	0.374669	0.500111
C33	C	1.338730	-0.463115	0.000114
C34	C	1.838730	0.036885	0.500114
C35	C	1.214630	-0.416244	-0.000383
C36	C	1.714630	0.083756	0.499617
C37	C	1.216870	-0.319544	0.000106
C38	C	1.716870	0.180456	0.500106
C39	C	1.342718	-0.295536	0.000112
C40	C	1.842718	0.204464	0.500112
C41	C	1.403920	-0.336339	0.123804
C42	C	1.903920	0.163661	0.623804
C43	C	1.400803	-0.432989	0.123908
C44	C	1.900803	0.067011	0.623908
C45	C	1.403383	-0.433329	-0.122408
C46	C	1.903383	0.066671	0.377592
C47	C	1.403354	-0.336384	-0.124042
C48	C	1.903354	0.163616	0.375958
C49	C	1.344979	-0.200829	0.000115
C50	C	1.844979	0.299171	0.500115
C51	C	1.336473	-0.557823	0.000120
C52	C	1.836473	-0.057823	0.500120
C53	C	1.548229	0.115504	0.000134
C54	C	2.048229	0.615504	0.500134
C55	C	1.674224	0.117727	0.000137
C56	C	2.174224	0.617727	0.500137
C57	C	1.332438	0.273719	0.000116
C58	C	1.832438	0.773719	0.500116
C59	C	1.334677	0.366680	0.000115
C60	C	1.834677	0.866680	0.500115
N61	N	1.340711	0.120666	0.308362
N62	N	1.840711	0.620666	0.808362
N63	N	1.340746	0.120676	-0.308125
N64	N	1.840746	0.620676	0.191875
C65	C	1.340727	0.120676	0.574033
C66	C	1.840727	0.620676	1.074033
C67	C	1.340715	0.120673	0.426195
C68	C	1.840715	0.620673	0.926195
H69	H	1.168761	-0.291338	-0.088562
H70	H	1.668761	0.208662	0.411438
H71	H	1.361400	-0.308153	0.215848
H72	H	1.861400	0.191847	0.715848
H73	H	1.168425	-0.291901	0.088916
H74	H	1.668425	0.208099	0.588916
C75	C	1.348574	-0.461319	-0.249062
C76	C	1.848574	0.038681	0.250938
N77	N	1.307279	-0.482399	-0.344452
N78	N	1.807279	0.017601	0.155548
H79	H	1.165035	-0.434999	-0.089086
H80	H	1.665035	0.065001	0.410914
H81	H	1.165243	-0.436065	0.087817
H82	H	1.665243	0.063935	0.587817
C83	C	1.340481	-0.457991	0.248806
C84	C	1.840481	0.042009	0.748806
N85	N	1.295042	-0.476818	0.342880
N86	N	1.795042	0.023182	0.842880
H87	H	1.491914	-0.464823	0.129524
H88	H	1.991914	0.035177	0.629524
H89	H	1.358608	-0.309336	-0.215547
H90	H	1.858608	0.190664	0.284453
H91	H	1.496377	-0.321794	0.128409
H92	H	1.996377	0.178206	0.628409
H93	H	1.495129	-0.320605	-0.131506
H94	H	1.995129	0.179395	0.368494
H95	H	1.494881	-0.464675	-0.123234
H96	H	1.994881	0.035325	0.376766
