data_functionalizedCrystal
_audit_creation_method	'MofGen! by Chris Wilmer'
_symmetry_space_group_name_H-M	'P1'
_symmetry_Int_Tables_number	1
_symmetry_cell_setting	triclinic
loop_
_symmetry_equiv_pos_as_xyz
  x,y,z
_cell_length_a	8.634740
_cell_length_b	10.654551
_cell_length_c	7.088929
_cell_angle_alpha	83.718726
_cell_angle_beta	97.174953
_cell_angle_gamma	92.527834
loop_
_atom_site_label
_atom_site_type_symbol
_atom_site_fract_x
_atom_site_fract_y
_atom_site_fract_z
O1	O	2.034739	0.420982	-0.158956
O2	O	1.585418	0.386604	-0.158962
O3	O	1.820408	0.222230	-0.158960
O4	O	1.799749	0.585355	-0.158958
O5	O	1.851812	0.200205	0.159016
O6	O	1.616822	0.364579	0.159013
O7	O	2.066142	0.398956	0.159020
Cu8	Cu	1.844349	0.379756	0.188050
Cu9	Cu	1.807211	0.405804	-0.187993
O10	O	1.831152	0.563330	0.159017
C11	C	1.543586	0.367803	0.000024
C12	C	1.372154	0.344583	0.000021
C13	C	1.834592	0.164247	0.000024
C14	C	1.830051	0.024288	0.000011
C15	C	1.810804	-0.029461	-0.173314
C16	C	1.806526	-0.160969	-0.173306
C17	C	1.840751	-0.184969	0.173369
C18	C	1.845018	-0.053463	0.173358
C19	C	1.795838	0.048290	-0.346662
C20	C	1.776591	-0.005458	-0.520001
C21	C	1.772313	-0.136966	-0.519992
C22	C	1.787282	-0.214726	-0.346644
C23	C	2.107973	0.417757	0.000029
C24	C	2.279404	0.440978	0.000019
C25	C	1.816968	0.621313	0.000030
C26	C	1.821507	0.761274	0.000030
N27	N	1.870481	0.361437	0.452538
N28	N	1.781091	0.424115	-0.452481
H29	H	1.320406	0.244294	-0.000029
Br30	Br	1.801657	0.226766	-0.346683
H31	H	1.764389	0.057863	-0.661134
H32	H	1.688448	0.489067	0.465872
Br33	Br	2.024927	0.253191	0.588625
H34	H	1.331156	0.541277	0.000033
Br35	Br	1.781455	-0.393204	-0.346637
Br36	Br	1.746170	-0.209908	-0.755232
H37	H	1.852939	-0.248292	0.314500
H38	H	1.860658	-0.009701	0.314494
