data_functionalizedCrystal
_audit_creation_method	'MofGen! by Chris Wilmer'
_symmetry_space_group_name_H-M	'P1'
_symmetry_Int_Tables_number	1
_symmetry_cell_setting	triclinic
loop_
_symmetry_equiv_pos_as_xyz
  x,y,z
_cell_length_a	19.077105
_cell_length_b	19.121063
_cell_length_c	19.076919
_cell_angle_alpha	94.606347
_cell_angle_beta	90.076224
_cell_angle_gamma	90.263052
loop_
_atom_site_label
_atom_site_type_symbol
_atom_site_fract_x
_atom_site_fract_y
_atom_site_fract_z
Zn1	Zn	1.043169	-0.339734	-0.454309
Zn2	Zn	1.042790	-0.452646	-0.341419
Zn3	Zn	0.930805	-0.330327	-0.331718
Zn4	Zn	0.920631	-0.452222	-0.454155
O5	O	0.984349	-0.393732	-0.395400
O6	O	1.141268	-0.358826	-0.443459
O7	O	1.032035	-0.432660	-0.241647
O8	O	0.950127	-0.233307	-0.343985
O9	O	1.140989	-0.441782	-0.360519
O10	O	1.032681	-0.240219	-0.434052
O11	O	0.949760	-0.342793	-0.234520
O12	O	0.831307	-0.342382	-0.343835
O13	O	0.932786	-0.441060	-0.552660
O14	O	0.823831	-0.431938	-0.433788
O15	O	1.022815	-0.358416	-0.552774
O16	O	1.022169	-0.550857	-0.360369
O17	O	0.932419	-0.550546	-0.443195
C18	C	0.802120	-0.386094	-0.387742
C19	C	0.724160	-0.382844	-0.384484
C20	C	0.683661	-0.428009	-0.429719
C21	C	0.610410	-0.424946	-0.426660
C22	C	0.577659	-0.376721	-0.378362
C23	C	0.618164	-0.331551	-0.333125
C24	C	0.691414	-0.334611	-0.336188
C25	C	0.359002	-0.362559	-0.364190
C26	C	0.285746	-0.359503	-0.361130
C27	C	0.277998	-0.452898	-0.454666
C28	C	0.351249	-0.455957	-0.457722
C29	C	0.391747	-0.410784	-0.412487
N30	N	0.502785	-0.373590	-0.375233
N31	N	0.466620	-0.413912	-0.415620
C32	C	0.976167	-0.576182	-0.402834
C33	C	0.972730	-0.654239	-0.406041
C34	C	1.017877	-0.691052	-0.364463
C35	C	1.014648	-0.764395	-0.367483
C36	C	0.966269	-0.800923	-0.412078
C37	C	0.921120	-0.764105	-0.453660
C38	C	0.924353	-0.690764	-0.450644
C39	C	0.954173	-1.022359	-0.423346
C40	C	0.950942	-1.095705	-0.426358
C41	C	1.044471	-1.095990	-0.340181
C42	C	1.047697	-1.022647	-0.337165
C43	C	1.002551	-0.985836	-0.378750
C44	C	0.962966	-0.875891	-0.415164
C45	C	1.005857	-0.910869	-0.375667
C46	C	1.167289	-0.401401	-0.403088
C47	C	1.245247	-0.404669	-0.406365
C48	C	0.976708	-0.400740	-0.578967
C49	C	0.973452	-0.403726	-0.657192
C50	C	0.992581	-0.210571	-0.387953
C51	C	0.996089	-0.132518	-0.384780
C52	C	1.018793	-0.362103	-0.694003
C53	C	1.015725	-0.364906	-0.767503
C54	C	0.967319	-0.409336	-0.804192
C55	C	0.921973	-0.450962	-0.767376
C56	C	0.925038	-0.448154	-0.693877
C57	C	0.953123	-0.422342	-1.024005
C58	C	0.950063	-0.425148	-1.097510
C59	C	1.043814	-0.339090	-1.097632
C60	C	1.046877	-0.336290	-1.024131
C61	C	1.001529	-0.377913	-0.987321
N62	N	0.964183	-0.412204	-0.879321
N63	N	1.004662	-0.375041	-0.912193
C64	C	0.992003	-0.386702	-0.212547
C65	C	0.995403	-0.383524	-0.134320
H66	H	0.377909	-0.495228	-0.497049
C67	C	0.860134	-0.507671	-1.031276
C68	C	0.903268	-0.468084	-0.983549
H69	H	0.829354	-0.535910	-1.006297
H70	H	0.833501	-0.477041	-1.057578
H71	H	0.888295	-0.536918	-1.062315
H72	H	0.875107	-0.438833	-0.952513
H73	H	0.929903	-0.498717	-0.957236
C74	C	0.852541	-1.174673	-0.435494
C75	C	0.897760	-1.135856	-0.475382
H76	H	0.819707	-1.199455	-0.465758
H77	H	0.878964	-1.207092	-0.411168
H78	H	0.828276	-1.143794	-0.402513
H79	H	0.922028	-1.166736	-0.508361
H80	H	0.871333	-1.103434	-0.499720
C81	C	1.082379	-0.222479	-1.116858
C82	C	1.093654	-0.293334	-1.138092
H83	H	1.113152	-0.194230	-1.141834
H84	H	1.035219	-0.210693	-1.126507
H85	H	1.091132	-0.214460	-1.067833
H86	H	1.084896	-0.301355	-1.187116
H87	H	1.140825	-0.305124	-1.128448
H88	H	1.045250	-0.881126	-0.339361
H89	H	0.910642	-0.461330	-1.127379
H90	H	0.917412	-0.992393	-0.457205
H91	H	1.086296	-0.300112	-0.994264
C92	C	0.277697	-0.545513	-0.547435
C93	C	0.233481	-0.502541	-0.504395
H94	H	0.250213	-0.576162	-0.578136
H95	H	0.306520	-0.517179	-0.574348
H96	H	0.306336	-0.572351	-0.519009
H97	H	0.204846	-0.475699	-0.532821
H98	H	0.204646	-0.530878	-0.477480
H99	H	0.391967	-0.325781	-0.327352
C100	C	0.833230	-0.604777	-0.452996
C101	C	0.874726	-0.650297	-0.496347
H102	H	0.802597	-0.579793	-0.481216
H103	H	0.806440	-0.631129	-0.422370
H104	H	0.862512	-0.572529	-0.426009
H105	H	0.845444	-0.682548	-0.523331
H106	H	0.901519	-0.623942	-0.526985
C107	C	0.494682	-0.461721	-0.463503
C108	C	0.565892	-0.474593	-0.476383
H109	H	0.467201	-0.492369	-0.494206
H110	H	0.484181	-0.469617	-0.416119
H111	H	0.484371	-0.414448	-0.471461
H112	H	0.576205	-0.521865	-0.468420
H113	H	0.576398	-0.466703	-0.523778
H114	H	1.087091	-0.992907	-0.300852
H115	H	0.259084	-0.320225	-0.321804
H116	H	0.881732	-0.793853	-0.489974
C117	C	0.509320	-0.285390	-0.286898
C118	C	0.582166	-0.278538	-0.280037
H119	H	0.487099	-0.252663	-0.254120
H120	H	0.495818	-0.276492	-0.333279
H121	H	0.495638	-0.331660	-0.277936
H122	H	0.595848	-0.232269	-0.289004
H123	H	0.595674	-0.287430	-0.233645
C124	C	0.904535	-0.548170	-0.853457
C125	C	0.868764	-0.499802	-0.807702
H126	H	0.871685	-0.578325	-0.878348
H127	H	0.931093	-0.523782	-0.885897
H128	H	0.935079	-0.575214	-0.827153
H129	H	0.838224	-0.472754	-0.834007
H130	H	0.842194	-0.524192	-0.775258
C131	C	0.832081	-0.533520	-0.701136
C132	C	0.875210	-0.493921	-0.653413
H133	H	0.801323	-0.561779	-0.676154
H134	H	0.805425	-0.502897	-0.727424
H135	H	0.860248	-0.562748	-0.732187
H136	H	0.847043	-0.464689	-0.622364
H137	H	0.901868	-0.524547	-0.627113
C138	C	1.110003	-0.698707	-0.279588
C139	C	1.071057	-0.650903	-0.315442
H140	H	1.142838	-0.673922	-0.249329
H141	H	1.079325	-0.725042	-0.252540
H142	H	1.134268	-0.729572	-0.312584
H143	H	1.046787	-0.620042	-0.282447
H144	H	1.101739	-0.624557	-0.342492
H145	H	0.923575	-0.905641	-0.451472
H146	H	1.058212	-0.325924	-0.664136
C147	C	0.668637	-0.520010	-0.521874
C148	C	0.719657	-0.481018	-0.482813
H149	H	0.690859	-0.552731	-0.554656
H150	H	0.640140	-0.544458	-0.491065
H151	H	0.640317	-0.489282	-0.546400
H152	H	0.747974	-0.511745	-0.458282
H153	H	0.748166	-0.456568	-0.513625
C154	C	1.135605	-1.181960	-0.337843
C155	C	1.094106	-1.136451	-0.294482
H156	H	1.166254	-1.206933	-0.309630
H157	H	1.106329	-1.214210	-0.364821
H158	H	1.162383	-1.155595	-0.368477
H159	H	1.067323	-1.162816	-0.263851
H160	H	1.123385	-1.104196	-0.267491
H161	H	1.052648	-0.331013	-0.797471
C162	C	0.691720	-0.241998	-0.243414
C163	C	0.735933	-0.284970	-0.286458
H164	H	0.719206	-0.211355	-0.212710
H165	H	0.663083	-0.215162	-0.271833
H166	H	0.662895	-0.270338	-0.216498
H167	H	0.764756	-0.256630	-0.313378
H168	H	0.764583	-0.311809	-0.258036
H169	H	1.051411	-0.794364	-0.333625
