data_functionalizedCrystal
_audit_creation_method	'MofGen! by Chris Wilmer'
_symmetry_space_group_name_H-M	'P1'
_symmetry_Int_Tables_number	1
_symmetry_cell_setting	triclinic
loop_
_symmetry_equiv_pos_as_xyz
  x,y,z
_cell_length_a	27.732048
_cell_length_b	10.654550
_cell_length_c	9.730223
_cell_angle_alpha	90.003749
_cell_angle_beta	89.993758
_cell_angle_gamma	96.436222
loop_
_atom_site_label
_atom_site_type_symbol
_atom_site_fract_x
_atom_site_fract_y
_atom_site_fract_z
O1	O	0.067884	-1.664980	-0.114419
O2	O	0.074351	-1.299230	-0.114399
O3	O	0.000792	-1.493465	-0.114384
O4	O	0.141444	-1.470746	-0.114435
O5	O	0.000793	-1.493462	0.114196
O6	O	0.074353	-1.299228	0.114181
O7	O	0.067886	-1.664978	0.114161
Zn8	Zn	0.071120	-1.482102	0.150463
Zn9	Zn	0.071117	-1.482105	-0.150701
O10	O	0.141445	-1.470743	0.114145
C11	C	-0.017217	-1.492987	-0.000090
C12	C	-0.070881	-1.491551	-0.000078
C13	C	0.073878	-1.252451	-0.000106
C14	C	0.072457	-1.113067	-0.000097
C15	C	0.068360	-1.711757	-0.000135
C16	C	0.069780	-1.851141	-0.000153
C17	C	-0.409038	-1.597290	-0.000155
C18	C	-0.610731	-1.591962	-0.000174
O19	O	-0.641384	-1.688653	-0.000239
N20	N	-0.630572	-1.476789	-0.000166
C21	C	-0.599986	-1.362940	-0.000163
O22	O	-0.621490	-1.264856	-0.000171
C23	C	-0.398294	-1.368269	-0.000154
C24	C	-0.378456	-1.483449	-0.000147
C25	C	-0.389199	-1.712461	-0.000150
C26	C	-0.338779	-1.713792	-0.000138
C27	C	-0.308197	-1.599951	-0.000131
C28	C	-0.328036	-1.484780	-0.000135
C29	C	-0.367709	-1.254421	-0.000160
C30	C	-0.317284	-1.255764	-0.000161
C31	C	-0.297446	-1.370944	-0.000155
C32	C	-0.247034	-1.372271	-0.000115
N33	N	-0.227193	-1.487444	-0.000123
C34	C	-0.257775	-1.601284	-0.000131
C35	C	-0.705877	-1.360150	-0.000165
C36	C	-0.756300	-1.358817	-0.000164
C37	C	-0.767041	-1.587840	-0.000178
C38	C	-0.716618	-1.589171	-0.000169
C39	C	-0.686036	-1.475323	-0.000172
C40	C	-0.151888	-1.604070	-0.000104
C41	C	-0.101463	-1.605391	-0.000086
C42	C	-0.090726	-1.376369	-0.000080
C43	C	-0.141147	-1.375047	-0.000090
C44	C	-0.171727	-1.488908	-0.000107
O45	O	-0.216352	-1.275631	-0.000065
O46	O	-0.236261	-1.699354	-0.000153
C47	C	-0.459458	-1.595959	-0.000167
C48	C	-0.479296	-1.480788	-0.000172
C49	C	-0.448715	-1.366948	-0.000164
C50	C	-0.529719	-1.479455	-0.000172
C51	C	-0.560301	-1.593296	-0.000179
C52	C	-0.540460	-1.708469	-0.000187
C53	C	-0.490040	-1.709800	-0.000175
C54	C	-0.468556	-1.251774	-0.000157
C55	C	-0.518976	-1.250453	-0.000167
C56	C	-0.549558	-1.364293	-0.000175
C57	C	0.159454	-1.471221	-0.000152
C58	C	0.213118	-1.472657	-0.000172
N59	N	0.071121	-1.482110	0.355999
C60	C	0.115768	-1.031761	-0.000133
C61	C	0.114430	-0.900796	-0.000156
C62	C	0.026466	-0.932457	-0.000114
C63	C	0.027805	-1.063419	-0.000080
C64	C	0.166553	-1.013480	-0.000163
C65	C	0.165215	-0.882516	-0.000187
N66	N	0.071112	-1.482108	-0.356238
C67	C	0.038560	-1.568138	0.427932
C68	C	0.038554	-1.568135	0.571815
C69	C	0.103675	-1.396071	0.571820
C70	C	0.103678	-1.396069	0.427939
C71	C	0.000964	-1.667482	0.427930
C72	C	0.000959	-1.667479	0.571813
H73	H	-0.085314	-1.699189	-0.000077
N74	N	0.016556	-1.787603	0.368787
H75	H	0.024087	-1.845645	0.446038
H76	H	-0.010469	-1.830838	0.310335
H77	H	-0.007463	-1.129616	-0.000032
H78	H	0.180563	-0.836198	0.098492
H79	H	-0.009888	-0.892018	-0.000121
H80	H	0.186415	-1.041976	0.095495
H81	H	-0.565369	-1.801162	-0.000187
H82	H	-0.036185	-1.647601	0.388891
N83	N	-0.540370	-1.126214	-0.000151
H84	H	-0.513341	-1.054306	-0.000144
H85	H	-0.561051	-1.120668	-0.084893
H86	H	-0.414094	-1.805169	-0.000162
N87	N	-0.045544	-1.629033	0.630943
H88	H	-0.043849	-1.630435	0.734611
H89	H	-0.050064	-1.540977	0.598822
H90	H	-0.176781	-1.696787	-0.000123
H91	H	-0.157300	-1.281258	-0.000057
H92	H	-0.700469	-1.682961	-0.000165
N93	N	-0.435575	-1.128983	-0.000150
H94	H	-0.455800	-1.055829	-0.000146
H95	H	-0.414427	-1.124543	0.084595
N96	N	0.187968	-1.059828	-0.130890
H97	H	0.197332	-0.985896	-0.194076
H98	H	0.217695	-1.102526	-0.108071
H99	H	0.009240	-1.763642	0.610855
H100	H	0.184349	-0.839980	-0.095861
H101	H	0.130188	-1.326007	0.369373
N102	N	0.138787	-1.303270	0.649412
H103	H	0.133844	-1.316320	0.751476
H104	H	0.173129	-1.317099	0.624262
H105	H	-0.322632	-1.807584	-0.000139
N106	N	-0.777689	-1.234581	-0.000140
H107	H	-0.766560	-1.184753	-0.084871
H108	H	-0.814269	-1.251095	-0.000085
H109	H	-0.791950	-1.680533	-0.000184
H110	H	-0.383852	-1.160629	-0.000173
N111	N	-0.672896	-1.237348	-0.000166
H112	H	-0.693121	-1.164195	-0.000157
H113	H	-0.651745	-1.232907	0.084573
H114	H	-0.065818	-1.283683	-0.000069
N115	N	-0.284300	-1.132967	-0.000172
H116	H	-0.304522	-1.059808	-0.000177
H117	H	-0.263150	-1.128521	0.084569
H118	H	-0.473893	-1.803591	-0.000170
