data_functionalizedCrystal
_audit_creation_method	'MofGen! by Chris Wilmer'
_symmetry_space_group_name_H-M	'P1'
_symmetry_Int_Tables_number	1
_symmetry_cell_setting	triclinic
loop_
_symmetry_equiv_pos_as_xyz
  x,y,z
_cell_length_a	16.959455
_cell_length_b	16.959454
_cell_length_c	17.077396
_cell_angle_alpha	90.024735
_cell_angle_beta	90.024524
_cell_angle_gamma	90.017095
loop_
_atom_site_label
_atom_site_type_symbol
_atom_site_fract_x
_atom_site_fract_y
_atom_site_fract_z
Zn1	Zn	1.208416	-0.314744	0.443968
Zn2	Zn	1.208329	-0.446932	0.312711
Zn3	Zn	1.076235	-0.314765	0.312705
Zn4	Zn	1.076209	-0.446878	0.443923
O5	O	1.142297	-0.380830	0.378327
O6	O	1.319016	-0.332294	0.426578
O7	O	1.190781	-0.429431	0.202863
O8	O	1.093816	-0.204151	0.330134
O9	O	1.318952	-0.429411	0.330144
O10	O	1.190929	-0.204136	0.426572
O11	O	1.093732	-0.332328	0.202859
O12	O	0.965621	-0.332276	0.330090
O13	O	1.093772	-0.429319	0.553776
O14	O	0.965602	-0.429339	0.426495
O15	O	1.190904	-0.332241	0.553809
O16	O	1.190756	-0.557536	0.330100
O17	O	1.093688	-0.557496	0.426501
C18	C	0.936931	-0.380804	0.378287
C19	C	0.849075	-0.380812	0.378289
C20	C	0.477555	-0.431349	0.328088
C21	C	0.477643	-0.330376	0.428661
C22	C	0.560189	-0.330363	0.428642
C23	C	0.601422	-0.380845	0.378346
C24	C	0.560109	-0.431339	0.328069
C25	C	0.601508	-0.279875	0.478924
C26	C	0.684059	-0.279861	0.478907
C27	C	0.725293	-0.330339	0.428607
C28	C	0.683975	-0.380835	0.378327
C29	C	0.725208	-0.431316	0.328031
C30	C	0.683891	-0.481809	0.277746
C31	C	0.601343	-0.481817	0.277768
C32	C	0.807842	-0.330331	0.428585
C33	C	0.807761	-0.431306	0.328012
C34	C	1.142231	-0.586196	0.378313
C35	C	1.142275	-0.674053	0.378334
C36	C	1.091828	-1.045537	0.428517
C37	C	1.192987	-1.045519	0.328216
C38	C	1.192960	-0.962973	0.328209
C39	C	1.142364	-0.921706	0.378356
C40	C	1.091797	-0.962984	0.428510
C41	C	1.243521	-0.921689	0.278050
C42	C	1.243495	-0.839138	0.278040
C43	C	1.192903	-0.797869	0.328192
C44	C	1.142334	-0.839152	0.378348
C45	C	1.091738	-0.797884	0.428495
C46	C	1.041172	-0.839166	0.478657
C47	C	1.041205	-0.921715	0.478662
C48	C	1.192871	-0.715320	0.328187
C49	C	1.091707	-0.715331	0.428488
C50	C	1.348466	-0.380856	0.378367
C51	C	1.436322	-0.380868	0.378384
C52	C	1.142345	-0.380772	0.583071
C53	C	1.142366	-0.380747	0.670321
C54	C	1.142385	-0.174662	0.378357
C55	C	1.142423	-0.086805	0.378370
C56	C	1.142295	-0.380831	0.174379
C57	C	1.142428	-0.380633	0.087130
C58	C	1.192944	-0.330194	0.711330
C59	C	1.192954	-0.330168	0.793310
C60	C	1.142388	-0.380699	0.834280
C61	C	1.091804	-0.431254	0.793266
C62	C	1.091791	-0.431275	0.711287
C63	C	1.091836	-0.431206	0.964136
C64	C	1.091850	-0.431186	1.046121
C65	C	1.192998	-0.330098	1.046159
C66	C	1.192985	-0.330120	0.964180
C67	C	1.142402	-0.380676	0.923172
H68	H	0.841478	-0.289222	0.469527
H69	H	1.234123	-0.289048	0.677978
H70	H	1.050673	-0.472331	1.079477
H71	H	0.841327	-0.472412	0.287051
H72	H	1.050509	-0.681736	0.469327
H73	H	1.234037	-0.681712	0.287343
C74	C	0.432107	-0.486888	0.272778
N75	N	0.397874	-0.528721	0.231118
C76	C	1.248595	-0.274557	0.838416
N77	N	1.290507	-0.232668	0.872389
H78	H	1.234165	-0.288978	0.930825
H79	H	0.717692	-0.238746	0.519852
H80	H	1.234184	-0.288932	1.079553
H81	H	1.050633	-0.472362	0.930749
H82	H	1.050660	-1.079153	0.469360
C83	C	1.248631	-1.090916	0.273050
N84	N	1.290544	-1.125113	0.231496
C85	C	1.036174	-0.486831	0.838336
N86	N	0.994271	-0.528692	0.872282
H87	H	1.284707	-0.955295	0.237217
C88	C	0.985578	-0.967131	0.533825
N89	N	0.943677	-1.001342	0.575370
H90	H	1.050597	-0.472433	0.677899
H91	H	0.999974	-0.805557	0.519483
H92	H	0.717474	-0.522915	0.236799
H93	H	0.567695	-0.522925	0.236829
C94	C	0.556147	-0.224331	0.534227
N95	N	0.521978	-0.182484	0.575875
C96	C	0.432284	-0.274838	0.483972
N97	N	0.398116	-0.232997	0.525627
C98	C	1.299113	-0.793735	0.222857
N99	N	1.341004	-0.759537	0.181292
