data_functionalizedCrystal
_audit_creation_method	'MofGen! by Chris Wilmer'
_symmetry_space_group_name_H-M	'P1'
_symmetry_Int_Tables_number	1
_symmetry_cell_setting	triclinic
loop_
_symmetry_equiv_pos_as_xyz
  x,y,z
_cell_length_a	19.188930
_cell_length_b	16.974885
_cell_length_c	15.455313
_cell_angle_alpha	90.969048
_cell_angle_beta	92.650876
_cell_angle_gamma	83.269424
loop_
_atom_site_label
_atom_site_type_symbol
_atom_site_fract_x
_atom_site_fract_y
_atom_site_fract_z
O1	O	0.089022	1.048759	0.001411
O2	O	0.422356	1.382092	0.334744
O3	O	0.755689	1.715425	0.668077
O4	O	0.099680	0.819292	-0.014685
O5	O	0.433014	1.152625	0.318648
O6	O	0.766347	1.485958	0.651981
O7	O	-0.007272	0.940646	-0.006156
O8	O	0.326061	1.273980	0.327177
O9	O	0.659394	1.607313	0.660511
O10	O	0.195975	0.927404	-0.007119
O11	O	0.529309	1.260737	0.326215
O12	O	0.862642	1.594071	0.659548
O13	O	-0.001182	0.933707	0.137618
O14	O	0.332152	1.267040	0.470952
O15	O	0.665485	1.600373	0.804285
O16	O	0.105771	0.812352	0.129089
O17	O	0.439105	1.145685	0.462423
O18	O	0.772438	1.479019	0.795756
O19	O	0.095113	1.041819	0.145185
O20	O	0.428447	1.375153	0.478518
O21	O	0.761780	1.708486	0.811852
Cu22	Cu	0.100998	0.926452	0.150265
Cu23	Cu	0.434332	1.259785	0.483598
Cu24	Cu	0.767665	1.593119	0.816932
Cu25	Cu	0.093795	0.934659	-0.019765
Cu26	Cu	0.427129	1.267992	0.313568
Cu27	Cu	0.760462	1.601325	0.646902
O28	O	0.202066	0.920465	0.136656
O29	O	0.535399	1.253798	0.469989
O30	O	0.868733	1.587131	0.803322
C31	C	0.102208	0.786464	0.055143
C32	C	0.435541	1.119798	0.388476
C33	C	0.768875	1.453131	0.721810
C34	C	0.100657	0.698989	0.049008
C35	C	0.433991	1.032322	0.382341
C36	C	0.767324	1.365656	0.715674
C37	C	0.091545	0.207007	0.006001
C38	C	0.424878	0.540341	0.339335
C39	C	0.758212	0.873674	0.672668
C40	C	0.093003	0.289199	0.011778
C41	C	0.426336	0.622533	0.345111
C42	C	0.759669	0.955866	0.678444
C43	C	0.097057	0.326504	0.093038
C44	C	0.430390	0.659837	0.426371
C45	C	0.763724	0.993170	0.759705
C46	C	0.099646	0.281613	0.168527
C47	C	0.432980	0.614946	0.501860
C48	C	0.766313	0.948280	0.835193
C49	C	0.098183	0.199423	0.162750
C50	C	0.431517	0.532757	0.496083
C51	C	0.764850	0.866090	0.829416
C52	C	0.101784	0.571908	0.118720
C53	C	0.435117	0.905242	0.452053
C54	C	0.768450	1.238575	0.785386
C55	C	0.103249	0.654104	0.124491
C56	C	0.436582	0.987437	0.457824
C57	C	0.769915	1.320770	0.791158
C58	C	0.096603	0.661685	-0.032259
C59	C	0.429937	0.995018	0.301074
C60	C	0.763270	1.328351	0.634408
C61	C	0.095145	0.579493	-0.038029
C62	C	0.428478	0.912826	0.295304
C63	C	0.761812	1.246159	0.628638
C64	C	0.097731	0.534609	0.037460
C65	C	0.431064	0.867943	0.370793
C66	C	0.764398	1.201276	0.704127
N67	N	0.098549	0.410517	0.098944
N68	N	0.431883	0.743850	0.432277
N69	N	0.765216	1.077183	0.765611
N70	N	0.096233	0.450599	0.031553
N71	N	0.429567	0.783932	0.364886
N72	N	0.762900	1.117265	0.698220
C73	C	-0.030240	0.936747	0.065704
C74	C	0.303093	1.270081	0.399037
C75	C	0.636427	1.603414	0.732370
C76	C	-0.107750	0.935460	0.065621
C77	C	0.225583	1.268793	0.398954
C78	C	0.558916	1.602126	0.732288
C79	C	-0.152340	1.006667	0.070620
C80	C	0.180993	1.340000	0.403953
C81	C	0.514327	1.673334	0.737286
C82	C	-0.225170	1.005458	0.070521
C83	C	0.108163	1.338791	0.403854
C84	C	0.441497	1.672125	0.737188
C85	C	-0.253406	0.933037	0.065441
C86	C	0.079927	1.266370	0.398774
C87	C	0.413260	1.599704	0.732107
C88	C	-0.208807	0.861821	0.060436
C89	C	0.124526	1.195154	0.393769
C90	C	0.457860	1.528487	0.727103
C91	C	-0.135979	0.863032	0.060526
C92	C	0.197354	1.196365	0.393860
C93	C	0.530688	1.529699	0.727193
N94	N	-0.359598	0.875318	0.110487
N95	N	-0.026265	1.208651	0.443820
N96	N	0.307069	1.541985	0.777153
N97	N	-0.428782	0.874172	0.110403
N98	N	-0.095449	1.207506	0.443737
N99	N	0.237884	1.540839	0.777070
C100	C	-0.472833	0.929383	0.065167
C101	C	-0.139499	1.262717	0.398500
C102	C	0.193834	1.596050	0.731833
N103	N	-0.445087	0.985795	0.020028
N104	N	-0.111753	1.319128	0.353362
N105	N	0.221580	1.652462	0.686695
N106	N	-0.375896	0.986943	0.020116
N107	N	-0.042563	1.320276	0.353449
N108	N	0.290770	1.653610	0.686783
C109	C	-0.332375	0.931716	0.065342
C110	C	0.000958	1.265049	0.398675
C111	C	0.334291	1.598382	0.732008
C112	C	-0.596394	0.999285	0.070058
C113	C	-0.263061	1.332618	0.403391
C114	C	0.070273	1.665951	0.736724
C115	C	-0.669225	0.998073	0.069953
C116	C	-0.335892	1.331406	0.403287
C117	C	-0.002558	1.664740	0.736620
C118	C	-0.652860	0.854433	0.059877
C119	C	-0.319527	1.187767	0.393210
C120	C	0.013807	1.521100	0.726544
C121	C	-0.580031	0.855647	0.059973
C122	C	-0.246697	1.188981	0.393306
C123	C	0.086636	1.522314	0.726639
C124	C	-0.551802	0.928075	0.065067
C125	C	-0.218469	1.261408	0.398401
C126	C	0.114865	1.594742	0.731734
C127	C	0.225034	0.924363	0.064794
C128	C	0.558367	1.257697	0.398128
C129	C	0.891700	1.591030	0.731461
C130	C	0.302544	0.925651	0.064871
C131	C	0.635877	1.258985	0.398205
C132	C	0.969210	1.592318	0.731538
C133	C	0.092585	1.074646	0.075355
C134	C	0.425919	1.407980	0.408688
C135	C	0.759252	1.741313	0.742022
C136	C	0.094136	1.162122	0.081484
C137	C	0.427470	1.495456	0.414818
C138	C	0.760803	1.828789	0.748151
N139	N	0.106064	0.920686	0.269855
N140	N	0.439398	1.254019	0.603188
N141	N	0.772731	1.587352	0.936522
N142	N	0.088724	0.940432	-0.139355
N143	N	0.422057	1.273765	0.193979
N144	N	0.755391	1.607098	0.527312
C145	C	0.060644	0.972259	0.318874
C146	C	0.393977	1.305592	0.652207
C147	C	0.727310	1.638926	0.985541
C148	C	0.064481	0.967905	0.409376
C149	C	0.397815	1.301239	0.742709
C150	C	0.731148	1.634572	1.076043
C151	C	0.113743	0.911981	0.450857
C152	C	0.447076	1.245315	0.784191
C153	C	0.780410	1.578648	1.117524
C154	C	0.159166	0.860402	0.401832
C155	C	0.492499	1.193736	0.735165
C156	C	0.825832	1.527069	1.068498
C157	C	0.155324	0.864753	0.311331
C158	C	0.488658	1.198086	0.644665
C159	C	0.821991	1.531419	0.977998
C160	C	0.130305	0.893203	0.721119
C161	C	0.463638	1.226536	1.054452
C162	C	0.796972	1.559870	1.387786
C163	C	0.134145	0.888858	0.811626
C164	C	0.467478	1.222191	1.144960
C165	C	0.800811	1.555525	1.478293
C166	C	0.039459	0.996361	0.819164
C167	C	0.372792	1.329694	1.152497
C168	C	0.706125	1.663027	1.485831
C169	C	0.035625	1.000709	0.728662
C170	C	0.368958	1.334043	1.061995
C171	C	0.702291	1.667376	1.395328
C172	C	0.081045	0.949128	0.679644
C173	C	0.414378	1.282461	1.012977
C174	C	0.747711	1.615794	1.346311
N175	N	0.117668	0.907531	0.543365
N176	N	0.451002	1.240865	0.876698
N177	N	0.784335	1.574198	1.210032
N178	N	0.077115	0.953574	0.587138
N179	N	0.410449	1.286908	0.920471
N180	N	0.743782	1.620241	1.253804
H181	H	0.102943	0.311993	0.234691
H182	H	0.436276	0.645327	0.568024
H183	H	0.769610	0.978660	0.901358
H184	H	0.002479	1.038355	0.859083
H185	H	0.335812	1.371688	1.192416
H186	H	0.669146	1.705022	1.525749
N187	N	-0.087887	0.786221	0.055147
N188	N	0.245446	1.119554	0.388481
N189	N	0.578780	1.452888	0.721814
H190	H	-0.055060	0.780951	0.108261
H191	H	0.278273	1.114285	0.441594
H192	H	0.611606	1.447618	0.774928
H193	H	-0.059598	0.786137	0.001634
H194	H	0.273735	1.119470	0.334967
H195	H	0.607069	1.452803	0.668301
N196	N	0.104989	0.523667	0.200292
N197	N	0.438323	0.857000	0.533625
N198	N	0.771656	1.190334	0.866958
H199	H	0.147898	0.483041	0.200749
H200	H	0.481231	0.816375	0.534082
H201	H	0.814565	1.149708	0.867415
H202	H	0.061412	0.495779	0.202313
H203	H	0.394746	0.829112	0.535646
H204	H	0.728079	1.162445	0.868979
H205	H	0.027496	1.009900	0.449287
H206	H	0.360829	1.343233	0.782620
H207	H	0.694162	1.676567	1.115954
H208	H	0.100301	0.162877	0.224216
H209	H	0.433634	0.496211	0.557550
H210	H	0.766968	0.829544	0.890883
H211	H	-0.004488	1.046247	0.694890
H212	H	0.328845	1.379580	1.028223
H213	H	0.662178	1.712914	1.361556
N214	N	-0.121893	1.084782	0.076113
N215	N	0.211440	1.418115	0.409446
N216	N	0.544774	1.751448	0.742779
H217	H	-0.161196	1.129708	0.079264
H218	H	0.172137	1.463042	0.412598
H219	H	0.505470	1.796375	0.745931
H220	H	-0.094283	1.090989	0.023071
H221	H	0.239050	1.424323	0.356404
H222	H	0.572383	1.757656	0.689737
N223	N	0.212294	0.800078	0.446567
N224	N	0.545628	1.133411	0.779900
N225	N	0.878961	1.466744	1.113234
H226	H	0.207838	0.805147	0.511337
H227	H	0.541171	1.138481	0.844671
H228	H	0.874504	1.471814	1.178004
H229	H	0.261176	0.809765	0.431355
H230	H	0.594510	1.143098	0.764688
H231	H	0.927843	1.476432	1.098022
N232	N	0.179288	0.837567	0.668256
N233	N	0.512621	1.170900	1.001589
N234	N	0.845955	1.504234	1.334923
H235	H	0.211077	0.801482	0.708270
H236	H	0.544410	1.134815	1.041603
H237	H	0.877744	1.468148	1.374937
H238	H	0.208638	0.869423	0.632792
H239	H	0.541972	1.202757	0.966125
H240	H	0.875305	1.536090	1.299458
N241	N	-0.273276	1.082263	0.075911
N242	N	0.060058	1.415596	0.409244
N243	N	0.393391	1.748929	0.742578
H244	H	-0.244342	1.128328	0.079151
H245	H	0.088992	1.461661	0.412484
H246	H	0.422325	1.794995	0.745817
H247	H	-0.301597	1.082308	0.129393
H248	H	0.031736	1.415641	0.462726
H249	H	0.365069	1.748975	0.796060
H250	H	0.192310	0.822755	0.271420
H251	H	0.525643	1.156089	0.604754
H252	H	0.858976	1.489422	0.938087
N253	N	-0.239257	0.783709	0.054952
N254	N	0.094077	1.117042	0.388285
N255	N	0.427410	1.450375	0.721618
H256	H	-0.292159	0.793745	0.055656
H257	H	0.041174	1.127079	0.388989
H258	H	0.374507	1.460412	0.722322
H259	H	-0.220703	0.749985	0.106064
H260	H	0.112631	1.083318	0.439398
H261	H	0.445964	1.416651	0.772731
H262	H	-0.573409	1.058260	0.074202
H263	H	-0.240076	1.391593	0.407535
H264	H	0.093258	1.724926	0.740869
H265	H	0.174262	0.843315	0.845396
H266	H	0.507596	1.176649	1.178729
H267	H	0.840929	1.509982	1.512062
N268	N	-0.717323	1.074879	0.075342
N269	N	-0.383990	1.408212	0.408675
N270	N	-0.050656	1.741546	0.742009
H271	H	-0.688386	1.120942	0.078586
H272	H	-0.355052	1.454275	0.411919
H273	H	-0.021719	1.787608	0.745252
H274	H	-0.745647	1.074925	0.128821
H275	H	-0.412314	1.408259	0.462155
H276	H	-0.078981	1.741592	0.795488
N277	N	0.107618	0.694340	0.212142
N278	N	0.440952	1.027673	0.545475
N279	N	0.774285	1.361006	0.878808
H280	H	0.108158	0.753216	0.204343
H281	H	0.441491	1.086549	0.537676
H282	H	0.774824	1.419883	0.871010
H283	H	0.152055	0.671774	0.244888
H284	H	0.485388	1.005108	0.578221
H285	H	0.818721	1.338441	0.911555
H286	H	-0.675849	0.795467	0.055736
H287	H	-0.342516	1.128800	0.389069
H288	H	-0.009183	1.462133	0.722403
H289	H	-0.543724	0.797662	0.055907
H290	H	-0.210391	1.130996	0.389240
H291	H	0.122942	1.464329	0.722574
H292	H	0.020532	1.017802	0.285106
H293	H	0.353866	1.351135	0.618440
H294	H	0.687199	1.684468	0.951773
H295	H	0.088248	0.176640	-0.060170
H296	H	0.421582	0.509973	0.273163
H297	H	0.754915	0.843306	0.606497
H298	H	0.090888	0.325742	-0.049689
H299	H	0.424222	0.659076	0.283644
H300	H	0.757555	0.992409	0.616978
H301	H	0.094497	0.698237	-0.093718
H302	H	0.427831	1.031571	0.239616
H303	H	0.761164	1.364904	0.572949
N304	N	0.090765	0.539259	-0.125674
N305	N	0.424099	0.872593	0.207660
N306	N	0.757432	1.205926	0.540993
H307	H	0.089341	0.580167	-0.172617
H308	H	0.422675	0.913501	0.160716
H309	H	0.756008	1.246834	0.494049
H310	H	0.046770	0.511867	-0.131007
H311	H	0.380103	0.845200	0.202326
H312	H	0.713436	1.178533	0.535659
