data_functionalizedCrystal
_audit_creation_method	'MofGen! by Chris Wilmer'
_symmetry_space_group_name_H-M	'P1'
_symmetry_Int_Tables_number	1
_symmetry_cell_setting	triclinic
loop_
_symmetry_equiv_pos_as_xyz
  x,y,z
_cell_length_a	15.297475
_cell_length_b	16.959453
_cell_length_c	15.296720
_cell_angle_alpha	80.355972
_cell_angle_beta	88.382886
_cell_angle_gamma	80.322456
loop_
_atom_site_label
_atom_site_type_symbol
_atom_site_fract_x
_atom_site_fract_y
_atom_site_fract_z
Zn1	Zn	1.253431	-0.615175	0.726583
Zn2	Zn	1.753431	-0.115175	1.226583
Zn3	Zn	1.278700	-0.728993	0.580096
Zn4	Zn	1.778700	-0.228993	1.080096
Zn5	Zn	1.132307	-0.570770	0.554825
Zn6	Zn	1.632307	-0.070770	1.054825
Zn7	Zn	1.106926	-0.721223	0.701225
Zn8	Zn	1.606926	-0.221223	1.201225
O9	O	1.192841	-0.659040	0.640683
O10	O	1.692841	-0.159040	1.140683
O11	O	1.379362	-0.652108	0.728340
O12	O	1.879362	-0.152108	1.228340
O13	O	1.280477	-0.692672	0.454170
O14	O	1.780477	-0.192672	0.954170
O15	O	1.148422	-0.466062	0.577646
O16	O	1.648422	0.033938	1.077646
O17	O	1.397927	-0.735730	0.620717
O18	O	1.897927	-0.235730	1.120717
O19	O	1.237411	-0.498686	0.703836
O20	O	1.737411	0.001314	1.203836
O21	O	1.172923	-0.576427	0.435603
O22	O	1.672923	-0.076427	0.935603
O23	O	1.006361	-0.568893	0.553057
O24	O	1.506361	-0.068893	1.053057
O25	O	1.105163	-0.722487	0.827163
O26	O	1.605163	-0.222487	1.327163
O27	O	0.987713	-0.679430	0.660616
O28	O	1.487713	-0.179430	1.160616
O29	O	1.212800	-0.644574	0.845794
O30	O	1.712800	-0.144574	1.345794
O31	O	1.255866	-0.838560	0.596128
O32	O	1.755866	-0.338560	1.096128
O33	O	1.129664	-0.832852	0.685120
O34	O	1.629664	-0.332852	1.185120
C35	C	0.965254	-0.618500	0.601343
C36	C	1.465254	-0.118500	1.101343
C37	C	0.867887	-0.601179	0.584534
C38	C	1.367887	-0.101179	1.084534
C39	C	1.192773	-0.864389	0.640638
C40	C	1.692773	-0.364389	1.140638
C41	C	1.192820	-0.952257	0.640662
C42	C	1.692820	-0.452257	1.140662
C43	C	0.554750	-0.782846	0.760820
C44	C	1.054750	-0.282846	1.260820
C45	C	0.646231	-0.799126	0.776610
C46	C	1.146231	-0.299126	1.276610
C47	C	0.701650	-0.749640	0.728593
C48	C	1.201650	-0.249640	1.228593
C49	C	0.665578	-0.683872	0.664782
C50	C	1.165578	-0.183872	1.164782
C51	C	0.574089	-0.667594	0.648985
C52	C	1.074089	-0.167594	1.148985
C53	C	0.720989	-0.634389	0.616758
C54	C	1.220989	-0.134389	1.116758
C55	C	0.684917	-0.568621	0.552947
C56	C	1.184917	-0.068621	1.052947
C57	C	0.593437	-0.552346	0.537154
C58	C	1.093437	-0.052346	1.037154
C59	C	0.538018	-0.601831	0.585171
C60	C	1.038018	-0.101831	1.085171
C61	C	0.812478	-0.650667	0.632555
C62	C	1.312478	-0.150667	1.132555
C63	C	0.831817	-0.535415	0.520720
C64	C	1.331817	-0.035415	1.020720
C65	C	0.740336	-0.519135	0.504930
C66	C	1.240336	-0.019135	1.004930
C67	C	1.239231	-1.340693	0.706508
C68	C	1.739231	-0.840693	1.206508
C69	C	1.146673	-1.306843	0.575030
C70	C	1.646673	-0.806843	1.075030
C71	C	1.146644	-1.224289	0.575004
C72	C	1.646644	-0.724289	1.075004
C73	C	1.192908	-1.199934	0.640732
C74	C	1.692908	-0.699934	1.140732
C75	C	1.239201	-1.258132	0.706486
C76	C	1.739201	-0.758132	1.206486
C77	C	1.100344	-1.166085	0.509257
C78	C	1.600344	-0.666085	1.009257
C79	C	1.100312	-1.083525	0.509229
C80	C	1.600312	-0.583525	1.009229
C81	C	1.146582	-1.059168	0.574954
C82	C	1.646582	-0.559168	1.074954
C83	C	1.192878	-1.117372	0.640710
C84	C	1.692878	-0.617372	1.140710
C85	C	1.239143	-1.093016	0.706438
C86	C	1.739143	-0.593016	1.206438
C87	C	1.285445	-1.151220	0.772191
C88	C	1.785445	-0.651220	1.272191
C89	C	1.285472	-1.233775	0.772211
C90	C	1.785472	-0.733775	1.272211
C91	C	1.146555	-0.976612	0.574934
C92	C	1.646555	-0.476612	1.074934
C93	C	1.239113	-1.010455	0.706416
C94	C	1.739113	-0.510455	1.206416
C95	C	1.421317	-0.699739	0.680176
C96	C	1.921317	-0.199739	1.180176
C97	C	1.518679	-0.717082	0.697006
C98	C	2.018679	-0.217082	1.197006
C99	C	1.153332	-0.687617	0.869149
C100	C	1.653332	-0.187617	1.369149
C101	C	1.136495	-0.699795	0.966508
C102	C	1.636495	-0.199795	1.466508
C103	C	1.192929	-0.452896	0.640751
C104	C	1.692929	0.047104	1.140751
C105	C	1.192967	-0.365049	0.640780
C106	C	1.692967	0.134951	1.140780
C107	C	1.232247	-0.630526	0.413113
C108	C	1.732247	-0.130526	0.913113
C109	C	1.249253	-0.618156	0.315784
C110	C	1.749253	-0.118156	0.815784
C111	C	1.313207	-0.571870	1.279748
C112	C	1.813207	-0.071870	1.779748
C113	C	1.329031	-0.560430	1.188276
C114	C	1.829031	-0.060430	1.688276
C115	C	1.280898	-0.595270	1.132829
C116	C	1.780898	-0.095270	1.632829
C117	C	1.216939	-0.641552	1.168864
C118	C	1.716939	-0.141552	1.668864
C119	C	1.201118	-0.652998	1.260347
C120	C	1.701118	-0.152998	1.760347
C121	C	1.168809	-0.676399	1.113428
C122	C	1.668809	-0.176399	1.613428
C123	C	1.104850	-0.722681	1.149463
C124	C	1.604850	-0.222681	1.649463
C125	C	1.089031	-0.734124	1.240937
C126	C	1.589031	-0.234124	1.740937
C127	C	1.137164	-0.699284	1.296383
C128	C	1.637164	-0.199284	1.796383
C129	C	1.184630	-0.664953	1.021946
C130	C	1.684630	-0.164953	1.521946
C131	C	1.072541	-0.746081	1.002544
C132	C	1.572541	-0.246081	1.502544
C133	C	1.056717	-0.757521	1.094017
C134	C	1.556717	-0.257521	1.594017
H135	H	0.841838	-0.704215	0.684511
H136	H	1.341838	-0.204215	1.184511
H137	H	1.036958	-0.771818	1.270274
H138	H	1.536958	-0.271818	1.770274
Br139	Br	0.544486	-0.463097	0.450544
Br140	Br	1.044486	0.036903	0.950544
Br141	Br	1.115694	-0.714811	1.420531
Br142	Br	1.615694	-0.214811	1.920531
H143	H	0.876939	-0.495121	0.481619
H144	H	1.376939	0.004879	0.981619
H145	H	0.675594	-0.852676	0.828563
H146	H	1.175594	-0.352676	1.328563
Br147	Br	1.301912	-0.977409	0.795617
Br148	Br	1.801912	-0.477409	1.295617
H149	H	1.108852	-0.929227	0.521402
H150	H	1.608852	-0.429227	1.021402
Br151	Br	0.479542	-0.850014	0.825955
Br152	Br	0.979542	-0.350014	1.325955
Br153	Br	0.413858	-0.579733	0.563752
Br154	Br	0.913858	-0.079733	1.063752
H155	H	0.776137	-0.762899	0.741454
H156	H	1.276137	-0.262899	1.241454
Br157	Br	1.348301	-1.312767	0.861441
Br158	Br	1.848301	-0.812767	1.361441
H159	H	1.236706	-0.627269	0.992615
H160	H	1.736706	-0.127269	1.492615
H161	H	0.710953	-0.465587	0.452974
H162	H	1.210953	0.034413	0.952974
H163	H	1.381109	-0.522750	1.158943
H164	H	1.881109	-0.022750	1.658943
Br165	Br	1.083870	-1.339898	0.485845
Br166	Br	1.583870	-0.839898	0.985845
Br167	Br	1.378533	-0.524604	1.355000
Br168	Br	1.878533	-0.024604	1.855000
Br169	Br	1.348217	-1.118154	0.861399
Br170	Br	1.848217	-0.618154	1.361399
Br171	Br	0.969917	-0.820329	1.142932
Br172	Br	1.469917	-0.320329	1.642932
Br173	Br	1.302374	-0.579743	1.008686
Br174	Br	1.802374	-0.079743	1.508686
Br175	Br	1.007222	-0.793375	0.927304
Br176	Br	1.507222	-0.293375	1.427304
H177	H	1.276932	-1.388086	0.760040
H178	H	1.776932	-0.888086	1.260040
H179	H	1.062675	-1.185922	0.455746
H180	H	1.562675	-0.685922	0.955746
Br181	Br	1.037471	-1.004542	0.419998
Br182	Br	1.537471	-0.504542	0.919998
