data_functionalizedCrystal
_audit_creation_method	'MofGen! by Chris Wilmer'
_symmetry_space_group_name_H-M	'P1'
_symmetry_Int_Tables_number	1
_symmetry_cell_setting	triclinic
loop_
_symmetry_equiv_pos_as_xyz
  x,y,z
_cell_length_a	10.654550
_cell_length_b	14.971482
_cell_length_c	13.448316
_cell_angle_alpha	89.993798
_cell_angle_beta	89.994587
_cell_angle_gamma	84.048756
loop_
_atom_site_label
_atom_site_type_symbol
_atom_site_fract_x
_atom_site_fract_y
_atom_site_fract_z
O1	O	0.163637	1.187840	-0.082676
O2	O	0.183240	0.927546	-0.082681
O3	O	-0.009365	1.063678	-0.082675
O4	O	0.356242	1.051708	-0.082682
O5	O	-0.009377	1.063660	0.082709
O6	O	0.183228	0.927529	0.082703
O7	O	0.163625	1.187823	0.082707
Cu8	Cu	0.173426	1.057674	0.097806
Cu9	Cu	0.173440	1.057694	-0.097780
O10	O	0.356230	1.051691	0.082701
C11	C	0.182359	0.894208	0.000010
C12	C	0.179734	0.794896	0.000009
C13	C	0.178491	0.748235	0.090160
C14	C	0.176005	0.654923	0.090162
C15	C	0.174770	0.608273	0.000010
C16	C	0.176009	0.654941	-0.090149
C17	C	0.178487	0.748252	-0.090149
C18	C	0.170849	0.460451	-0.090142
C19	C	0.168374	0.367133	-0.090143
C20	C	0.168367	0.367122	0.090168
C21	C	0.170845	0.460433	0.090168
C22	C	0.172086	0.507094	0.000009
C23	C	-0.056159	1.062790	0.000016
C24	C	-0.195574	1.060161	0.000012
C25	C	-0.275921	1.140313	0.000017
C26	C	-0.406916	1.137837	0.000010
C27	C	-0.377203	0.975050	-0.000002
C28	C	-0.246211	0.977526	-0.000002
C29	C	-0.293077	1.234297	0.000028
C30	C	-0.424071	1.231821	0.000021
C31	C	0.403025	1.052578	0.000008
C32	C	0.542440	1.055208	0.000005
C33	C	0.164507	1.221161	0.000014
C34	C	0.167132	1.320472	0.000009
N35	N	0.173415	1.057666	0.235370
N36	N	0.173440	1.057709	-0.235344
C37	C	0.088165	1.117964	0.287413
C38	C	0.088163	1.117970	0.391517
C39	C	0.173420	1.057681	0.443575
C40	C	0.258674	0.997376	0.391525
C41	C	0.258669	0.997367	0.287423
C42	C	0.258683	0.997401	0.608505
C43	C	0.258691	0.997411	0.712613
C44	C	0.088178	1.118004	0.712598
C45	C	0.088172	1.117995	0.608497
C46	C	0.173428	1.057691	0.556454
H47	H	0.174995	0.616951	-0.163552
O48	O	0.341537	0.938749	0.763030
C49	C	0.416792	0.885526	0.694776
H50	H	0.365305	0.884202	0.620570
H51	H	0.510169	0.915120	0.683695
C52	C	0.505646	0.790825	0.826567
C53	C	0.442404	0.789193	0.735429
H54	H	0.521451	0.731403	0.851644
H55	H	0.454949	0.826684	0.872552
H56	H	0.583454	0.815491	0.817321
H57	H	0.364592	0.764538	0.744679
H58	H	0.493089	0.753327	0.689446
H59	H	-0.180796	0.912259	-0.000019
H60	H	0.328088	0.948283	0.433916
O61	O	0.179477	0.793639	-0.177698
C62	C	0.072246	0.857090	-0.183081
H63	H	-0.004465	0.835579	-0.131918
H64	H	0.098692	0.925668	-0.158863
C65	C	0.117229	0.889241	-0.353626
C66	C	0.023007	0.862817	-0.290794
H67	H	0.086858	0.892778	-0.420069
H68	H	0.189475	0.846496	-0.349999
H69	H	0.139258	0.946388	-0.333432
H70	H	0.000991	0.805667	-0.310981
H71	H	-0.049245	0.905553	-0.294427
H72	H	-0.264109	1.271065	-0.069180
O73	O	-0.251145	1.269997	0.085279
C74	C	-0.308336	1.358629	0.096673
H75	H	-0.340247	1.386716	0.020958
H76	H	-0.393512	1.358735	0.148004
C77	C	-0.173449	1.382865	0.235054
C78	C	-0.212633	1.417364	0.142058
H79	H	-0.114418	1.419096	0.263054
H80	H	-0.134921	1.323151	0.227381
H81	H	-0.244439	1.382955	0.277818
H82	H	-0.141647	1.417263	0.099292
H83	H	-0.251147	1.477080	0.149725
H84	H	0.328104	0.948292	0.566135
O85	O	0.005236	1.176592	0.558079
C86	C	-0.069993	1.229834	0.626334
H87	H	-0.071499	1.193166	0.700552
H88	H	-0.029060	1.296530	0.637382
C89	C	-0.203578	1.292466	0.494554
C90	C	-0.205437	1.247427	0.585708
H91	H	-0.287125	1.303322	0.469493
H92	H	-0.152893	1.256599	0.448568
H93	H	-0.169462	1.348041	0.503773
H94	H	-0.239538	1.191848	0.576485
H95	H	-0.256131	1.283285	0.631691
O96	O	0.171989	0.505618	0.177829
C97	C	0.170392	0.444424	0.257406
H98	H	0.128899	0.381368	0.230984
H99	H	0.270801	0.425735	0.285122
C100	C	0.140027	0.565452	0.375032
C101	C	0.089054	0.488008	0.342583
H102	H	0.089858	0.592336	0.427577
H103	H	0.141107	0.606679	0.321421
H104	H	0.223699	0.549866	0.398123
H105	H	0.005389	0.503596	0.319482
H106	H	0.087958	0.446784	0.396194
H107	H	-0.466217	1.267225	0.069233
H108	H	0.179507	0.786210	0.163573
O109	O	-0.426603	0.894860	0.000032
C110	C	-0.559450	0.909858	0.000003
H111	H	-0.590114	0.979465	0.031318
H112	H	-0.595905	0.905309	-0.079342
C113	C	-0.576234	0.752868	0.026391
C114	C	-0.613897	0.838357	0.064860
H115	H	-0.609822	0.708761	0.066393
H116	H	-0.486733	0.742761	0.026407
H117	H	-0.606616	0.749089	-0.039730
H118	H	-0.583501	0.842138	0.130974
H119	H	-0.703394	0.848462	0.064857
H120	H	0.018744	1.167062	0.245034
H121	H	0.174972	0.616938	0.163572
H122	H	-0.470014	1.260232	-0.071387
O123	O	0.166919	0.321787	0.177728
C124	C	0.056812	0.277265	0.183117
H125	H	-0.018391	0.312003	0.131952
H126	H	0.079498	0.204406	0.158906
C127	C	0.099846	0.237462	0.353666
C128	C	0.007476	0.280133	0.290830
H129	H	0.069415	0.239226	0.420109
H130	H	0.174030	0.267454	0.350035
H131	H	0.118742	0.176750	0.333478
H132	H	-0.011407	0.340846	0.311011
H133	H	-0.066712	0.250151	0.294467
O134	O	0.172285	0.505721	-0.177746
C135	C	0.280353	0.473445	-0.232597
H136	H	0.355621	0.441172	-0.179844
H137	H	0.254352	0.421430	-0.288815
C138	C	0.239405	0.591690	-0.352625
C139	C	0.331854	0.552057	-0.287831
H140	H	0.271172	0.640180	-0.386700
H141	H	0.166595	0.613433	-0.315673
H142	H	0.217746	0.548335	-0.399464
H143	H	0.353501	0.595409	-0.240986
H144	H	0.404670	0.530323	-0.324777
O145	O	0.167388	0.321752	-0.177685
C146	C	0.274620	0.258302	-0.183072
H147	H	0.351332	0.279813	-0.131927
H148	H	0.248177	0.189723	-0.158833
C149	C	0.229633	0.226151	-0.353602
C150	C	0.323855	0.252576	-0.290792
H151	H	0.260001	0.222616	-0.420049
H152	H	0.157385	0.268897	-0.349973
H153	H	0.207605	0.169005	-0.333392
H154	H	0.345870	0.309727	-0.310996
H155	H	0.396108	0.209841	-0.294427
H156	H	0.328087	0.948265	0.245051
H157	H	0.018745	1.167068	0.433890
H158	H	0.018759	1.167105	0.754978
