data_functionalizedCrystal
_audit_creation_method	'MofGen! by Chris Wilmer'
_symmetry_space_group_name_H-M	'P1'
_symmetry_Int_Tables_number	1
_symmetry_cell_setting	triclinic
loop_
_symmetry_equiv_pos_as_xyz
  x,y,z
_cell_length_a	16.109318
_cell_length_b	10.489716
_cell_length_c	14.586319
_cell_angle_alpha	90.000245
_cell_angle_beta	90.000075
_cell_angle_gamma	83.998849
loop_
_atom_site_label
_atom_site_type_symbol
_atom_site_fract_x
_atom_site_fract_y
_atom_site_fract_z
O1	O	1.104124	0.164054	-0.076156
O2	O	1.604124	0.664054	0.423844
O3	O	0.862188	0.184434	-0.076173
O4	O	1.362188	0.684434	0.423827
O5	O	0.988672	-0.011435	-0.076167
O6	O	1.488672	0.488565	0.423833
O7	O	0.977640	0.359924	-0.076162
O8	O	1.477640	0.859924	0.423838
O9	O	0.988663	-0.011438	0.076313
O10	O	1.488663	0.488562	0.576313
O11	O	0.862179	0.184431	0.076308
O12	O	1.362179	0.684431	0.576308
O13	O	1.104115	0.164051	0.076325
O14	O	1.604115	0.664051	0.576325
Cu15	Cu	0.983146	0.174241	0.090239
Cu16	Cu	1.483146	0.674241	0.590239
Cu17	Cu	0.983157	0.174244	-0.090087
Cu18	Cu	1.483157	0.674244	0.409913
O19	O	0.977631	0.359921	0.076319
O20	O	1.477631	0.859921	0.576319
C21	C	0.831204	0.183603	0.000065
C22	C	1.331204	0.683603	0.500065
C23	C	0.738894	0.181117	0.000058
C24	C	1.238894	0.681117	0.500058
C25	C	0.439776	0.173087	-0.083044
C26	C	0.939776	0.673087	0.416956
C27	C	0.526512	0.175415	-0.083049
C28	C	1.026512	0.675415	0.416951
C29	C	0.526521	0.175394	0.083194
C30	C	1.026521	0.675394	0.583194
C31	C	0.439788	0.173057	0.083198
C32	C	0.939788	0.673057	0.583198
C33	C	0.396417	0.171910	0.000077
C34	C	0.896417	0.671910	0.500077
C35	C	0.569886	0.176575	0.000067
C36	C	1.069886	0.676575	0.500067
C37	C	0.663928	0.179099	0.000061
C38	C	1.163928	0.679099	0.500061
C39	C	0.302369	0.169384	0.000082
C40	C	0.802369	0.669384	0.500082
C41	C	0.987838	-0.058957	0.000070
C42	C	1.487838	0.441043	0.500070
C43	C	0.985358	-0.200552	0.000062
C44	C	1.485358	0.299448	0.500062
C45	C	1.062922	-0.299344	0.000076
C46	C	1.562922	0.200656	0.500076
C47	C	1.021940	-0.376112	-0.075106
C48	C	1.521940	0.123888	0.424894
C49	C	1.021913	-0.376079	0.075228
C50	C	1.521913	0.123921	0.575228
C51	C	0.944409	-0.275456	-0.075182
C52	C	1.444409	0.224544	0.424818
C53	C	0.944394	-0.275417	0.075220
C54	C	1.444394	0.224583	0.575220
C55	C	0.903355	-0.352136	0.000020
C56	C	1.403355	0.147864	0.500020
C57	C	1.135099	0.164882	0.000085
C58	C	1.635099	0.664882	0.500085
C59	C	1.227409	0.167369	0.000086
C60	C	1.727409	0.667369	0.500086
C61	C	0.978464	0.407442	0.000080
C62	C	1.478464	0.907442	0.500080
C63	C	0.980944	0.549038	0.000082
C64	C	1.480944	1.049038	0.500082
N65	N	0.983145	0.174238	0.217071
N66	N	1.483145	0.674238	0.717071
N67	N	0.983164	0.174238	-0.216919
N68	N	1.483164	0.674238	0.283081
C69	C	1.039171	0.087536	0.452080
C70	C	1.539171	0.587536	0.952080
C71	C	1.039173	0.087533	0.548061
C72	C	1.539173	0.587533	1.048061
C73	C	0.927133	0.260944	0.548065
C74	C	1.427133	0.760944	1.048065
C75	C	0.927127	0.260940	0.452086
C76	C	1.427127	0.760940	0.952086
C77	C	0.983151	0.174237	0.404096
C78	C	1.483151	0.674237	0.904096
C79	C	0.983159	0.174238	0.596056
C80	C	1.483159	0.674238	1.096056
C81	C	0.983161	0.174235	0.700123
C82	C	1.483161	0.674235	1.200123
C83	C	0.983148	0.174238	0.300022
C84	C	1.483148	0.674238	0.800022
H85	H	0.404467	0.172151	-0.150726
H86	H	0.904467	0.672151	0.349274
H87	H	1.084787	0.016936	0.413008
H88	H	1.584787	0.516936	0.913008
Br89	Br	1.076516	-0.449394	-0.181039
Br90	Br	1.576516	0.050606	0.318961
Br91	Br	1.175370	-0.259831	-0.000037
Br92	Br	1.675370	0.240169	0.499963
Br93	Br	0.380938	0.171452	0.196013
Br94	Br	0.880938	0.671452	0.696013
H95	H	1.054669	-0.420025	0.138787
H96	H	1.554669	0.079975	0.638787
H97	H	0.911676	-0.231429	0.138779
H98	H	1.411676	0.268571	0.638779
Br99	Br	1.115199	-0.030144	0.613181
Br100	Br	1.615199	0.469856	1.113181
Br101	Br	0.851088	0.378604	0.386957
Br102	Br	1.351088	0.878604	0.886957
H103	H	0.561811	0.176372	-0.150734
H104	H	1.061811	0.676372	0.349266
H105	H	0.911688	-0.231679	-0.138813
H106	H	1.411688	0.268321	0.361187
Br107	Br	0.851105	0.378609	0.613198
Br108	Br	1.351105	0.878609	1.113198
Br109	Br	0.585385	0.176962	0.195996
Br110	Br	1.085385	0.676962	0.695996
H111	H	0.835837	-0.375593	-0.000026
H112	H	1.335837	0.124407	0.499974
