data_functionalizedCrystal
_audit_creation_method	'MofGen! by Chris Wilmer'
_symmetry_space_group_name_H-M	'P1'
_symmetry_Int_Tables_number	1
_symmetry_cell_setting	triclinic
loop_
_symmetry_equiv_pos_as_xyz
  x,y,z
_cell_length_a	16.625547
_cell_length_b	12.594516
_cell_length_c	16.625539
_cell_angle_alpha	89.974997
_cell_angle_beta	89.975178
_cell_angle_gamma	90.011753
loop_
_atom_site_label
_atom_site_type_symbol
_atom_site_fract_x
_atom_site_fract_y
_atom_site_fract_z
Zn1	Zn	1.232740	-0.423742	-0.456019
Zn2	Zn	1.232668	-0.601743	-0.321194
Zn3	Zn	1.097902	-0.423779	-0.321190
Zn4	Zn	1.097897	-0.601679	-0.455974
O5	O	1.165302	-0.512736	-0.388594
O6	O	1.345563	-0.447366	-0.438155
O7	O	1.214763	-0.578178	-0.208361
O8	O	1.115820	-0.274828	-0.339092
O9	O	1.345510	-0.578142	-0.339100
O10	O	1.214886	-0.274801	-0.438151
O11	O	1.115751	-0.447429	-0.208358
O12	O	0.985069	-0.447366	-0.339049
O13	O	1.115813	-0.578032	-0.568813
O14	O	0.985066	-0.578068	-0.438074
O15	O	1.214881	-0.447303	-0.568846
O16	O	1.214759	-0.750680	-0.339056
O17	O	1.115743	-0.750633	-0.438078
C18	C	0.955811	-0.512715	-0.388556
C19	C	0.866190	-0.512732	-0.388559
C20	C	0.793408	-0.512734	-0.388569
C21	C	0.702099	-0.512739	-0.388589
C22	C	0.629323	-0.512749	-0.388610
C23	C	0.538008	-0.512757	-0.388629
C24	C	1.165265	-0.789277	-0.388580
C25	C	1.165322	-0.907582	-0.388601
C26	C	1.219240	-0.976822	-0.334801
C27	C	1.238943	-1.047524	-0.408397
C28	C	1.145720	-1.047680	-0.315052
C29	C	1.185064	-0.976725	-0.462236
C30	C	1.091806	-0.976875	-0.368842
C31	C	1.111482	-1.047544	-0.442489
C32	C	1.375611	-0.512757	-0.388633
C33	C	1.465232	-0.512766	-0.388650
C34	C	1.165354	-0.512656	-0.598903
C35	C	1.165377	-0.512623	-0.688525
C36	C	1.165362	-0.235115	-0.388626
C37	C	1.165387	-0.116809	-0.388640
C38	C	1.165414	-0.512503	-1.016700
C39	C	1.165401	-0.512540	-0.925392
C40	C	1.165396	-0.512564	-0.852615
C41	C	1.165382	-0.512599	-0.761301
C42	C	1.165296	-0.512738	-0.179104
C43	C	1.165430	-0.512472	-0.089483
H44	H	1.264843	-0.945768	-0.289344
H45	H	1.201609	-0.945691	-0.524505
N46	N	1.321328	-1.088642	-0.430568
H47	H	1.361995	-1.062925	-0.389882
H48	H	1.320532	-1.168824	-0.430943
N49	N	1.123707	-1.088941	-0.232641
H50	H	1.073136	-1.133100	-0.236436
H51	H	1.169081	-1.134132	-0.211225
H52	H	1.065913	-1.078401	-0.488055
N53	N	1.009440	-0.935728	-0.346653
H54	H	0.994655	-0.961493	-0.291041
H55	H	1.009961	-0.855545	-0.347371
