data_functionalizedCrystal
_audit_creation_method	'MofGen! by Chris Wilmer'
_symmetry_space_group_name_H-M	'P1'
_symmetry_Int_Tables_number	1
_symmetry_cell_setting	triclinic
loop_
_symmetry_equiv_pos_as_xyz
  x,y,z
_cell_length_a	14.971486
_cell_length_b	8.559649
_cell_length_c	14.048226
_cell_angle_alpha	89.995035
_cell_angle_beta	89.998499
_cell_angle_gamma	76.696397
loop_
_atom_site_label
_atom_site_type_symbol
_atom_site_fract_x
_atom_site_fract_y
_atom_site_fract_z
O1	O	1.172520	0.208203	-0.079048
O2	O	0.910393	0.233135	-0.079073
O3	O	1.064550	-0.011889	-0.079057
O4	O	1.018363	0.453227	-0.079064
O5	O	1.064535	-0.011903	0.079264
O6	O	0.910377	0.233121	0.079248
O7	O	1.172505	0.208188	0.079274
Zn8	Zn	1.041438	0.220652	0.104398
Zn9	Zn	1.041459	0.220671	-0.104197
O10	O	1.018347	0.453212	0.079258
C11	C	0.877137	0.232013	0.000084
C12	C	0.778072	0.228672	0.000074
C13	C	0.710872	0.372617	0.000074
C14	C	0.617791	0.369468	0.000088
C15	C	0.591911	0.222372	0.000096
C16	C	0.659119	0.078416	0.000099
C17	C	0.752198	0.081566	0.000092
C18	C	0.465111	0.071859	0.000113
C19	C	0.372025	0.068707	0.000118
C20	C	0.330704	0.359760	0.000108
C21	C	0.423783	0.362910	0.000101
C22	C	0.490984	0.218954	0.000103
C23	C	1.068043	-0.071419	0.000102
C24	C	1.078461	-0.248779	0.000098
C25	C	1.205760	0.209310	0.000114
C26	C	1.304826	0.212652	0.000118
C27	C	1.014855	0.512743	0.000096
C28	C	1.004436	0.690103	0.000094
N29	N	1.041431	0.220638	0.246758
N30	N	1.041474	0.220673	-0.246558
C31	C	1.109708	0.112186	0.296583
C32	C	1.109714	0.112186	0.396241
C33	C	1.041446	0.220645	0.446072
C34	C	0.973163	0.329102	0.396240
C35	C	0.973153	0.329094	0.296584
C36	C	0.973188	0.329114	0.603954
C37	C	0.973197	0.329124	0.703617
C38	C	1.109748	0.112205	0.703611
C39	C	1.109739	0.112197	0.603955
C40	C	1.041456	0.220657	0.554130
H41	H	0.444850	0.482689	0.000085
F42	F	1.171725	-0.357743	0.000118
H43	H	0.933089	-0.226536	0.000090
F44	F	0.900481	0.444520	0.243558
F45	F	1.182373	-0.003246	0.243559
H46	H	0.731935	0.492399	0.000066
H47	H	0.275983	0.476974	0.000111
H48	H	0.638040	-0.041353	0.000120
H49	H	1.165332	0.023889	0.563383
F50	F	0.546275	0.522674	0.000083
H51	H	0.350958	-0.051071	0.000126
F52	F	0.536630	-0.081358	0.000118
H53	H	1.165346	0.023894	0.744185
F54	F	0.900502	0.444528	0.449274
F55	F	1.182381	-0.003242	0.449269
F56	F	0.823718	-0.071640	0.000096
H57	H	0.917606	0.417442	0.744184
F58	F	0.900509	0.444546	0.550930
