data_functionalizedCrystal
_audit_creation_method	'MofGen! by Chris Wilmer'
_symmetry_space_group_name_H-M	'P1'
_symmetry_Int_Tables_number	1
_symmetry_cell_setting	triclinic
loop_
_symmetry_equiv_pos_as_xyz
  x,y,z
_cell_length_a	25.639242
_cell_length_b	25.639239
_cell_length_c	16.959447
_cell_angle_alpha	90.029510
_cell_angle_beta	90.027385
_cell_angle_gamma	90.034213
loop_
_atom_site_label
_atom_site_type_symbol
_atom_site_fract_x
_atom_site_fract_y
_atom_site_fract_z
Zn1	Zn	0.799252	-0.208221	0.447102
Zn2	Zn	0.799168	-0.295656	0.314917
Zn3	Zn	0.711820	-0.208230	0.314917
Zn4	Zn	0.711773	-0.295621	0.447033
O5	O	0.755503	-0.251932	0.380992
O6	O	0.872406	-0.219831	0.429597
O7	O	0.787565	-0.284078	0.204306
O8	O	0.723473	-0.135064	0.332480
O9	O	0.872344	-0.284069	0.332481
O10	O	0.787709	-0.135057	0.429596
O11	O	0.723391	-0.219846	0.204306
O12	O	0.638649	-0.219811	0.332413
O13	O	0.723393	-0.284008	0.557653
O14	O	0.638614	-0.284017	0.429478
O15	O	0.787664	-0.219796	0.557704
O16	O	0.787520	-0.368817	0.332414
O17	O	0.723311	-0.368791	0.429479
C18	C	0.619661	-0.251911	0.380939
C19	C	0.561547	-0.251915	0.380935
C20	C	0.201175	-0.285420	0.431486
C21	C	0.146570	-0.285423	0.431499
O22	O	0.118326	-0.313884	0.474434
N23	N	0.119264	-0.251946	0.381044
C24	C	0.146565	-0.218461	0.330579
O25	O	0.118325	-0.189986	0.287665
C26	C	0.201169	-0.218455	0.330571
C27	C	0.228472	-0.251938	0.381023
C28	C	0.228478	-0.318899	0.481935
C29	C	0.283078	-0.318896	0.481921
C30	C	0.310376	-0.285414	0.431459
C31	C	0.283072	-0.251935	0.381010
C32	C	0.228469	-0.184968	0.280111
C33	C	0.283076	-0.184965	0.280108
C34	C	0.310379	-0.218447	0.330560
C35	C	0.364970	-0.218451	0.330533
N36	N	0.392276	-0.251927	0.380988
C37	C	0.364979	-0.285409	0.431451
C38	C	0.031895	-0.218474	0.330600
C39	C	-0.022708	-0.218482	0.330604
C40	C	-0.022699	-0.285443	0.431525
C41	C	0.031904	-0.285438	0.431517
C42	C	0.059201	-0.251951	0.381055
C43	C	0.479644	-0.285401	0.431418
C44	C	0.534249	-0.285397	0.431397
C45	C	0.534236	-0.218434	0.330480
C46	C	0.479635	-0.218440	0.330497
C47	C	0.452341	-0.251925	0.380972
O48	O	0.393249	-0.190002	0.287622
O49	O	0.393226	-0.313874	0.474365
C50	C	0.755415	-0.387775	0.380956
C51	C	0.755426	-0.445889	0.380967
C52	C	0.789024	-0.806253	0.330537
C53	C	0.789044	-0.860857	0.330547
O54	O	0.817519	-0.889095	0.287630
N55	N	0.755595	-0.888171	0.381045
C56	C	0.722128	-0.860878	0.431540
O57	O	0.693679	-0.889125	0.474494
C58	C	0.722111	-0.806275	0.431533
C59	C	0.755558	-0.778963	0.381027
C60	C	0.822469	-0.778942	0.280035
C61	C	0.822448	-0.724341	0.280024
C62	C	0.788982	-0.697052	0.330514
C63	C	0.755537	-0.724363	0.381016
C64	C	0.688646	-0.778982	0.482032
C65	C	0.688632	-0.724375	0.482021
C66	C	0.722079	-0.697064	0.431515
C67	C	0.722050	-0.642473	0.431494
N68	N	0.755498	-0.615159	0.380997
C69	C	0.788964	-0.642448	0.330507
C70	C	0.722167	-0.975549	0.431553
C71	C	0.722181	-1.030151	0.431556
C72	C	0.789098	-1.030126	0.330564
C73	C	0.789081	-0.975523	0.330557
C74	C	0.755616	-0.948235	0.381055
C75	C	0.788917	-0.527783	0.330486
C76	C	0.788892	-0.473178	0.330477
C77	C	0.721977	-0.473207	0.431472
C78	C	0.722000	-0.527808	0.431478
C79	C	0.755475	-0.555095	0.380983
O80	O	0.693591	-0.614201	0.474392
O81	O	0.817413	-0.614195	0.287568
C82	C	0.891876	-0.251953	0.381047
C83	C	0.949990	-0.251962	0.381070
C84	C	0.755533	-0.251897	0.587161
C85	C	0.755545	-0.251882	0.675017
C86	C	0.755606	-0.115559	0.381046
C87	C	0.755650	-0.057445	0.381069
C88	C	0.755504	-0.251929	0.175626
C89	C	0.755593	-0.251797	0.087770
C90	C	0.722089	-0.285308	0.716266
C91	C	0.789010	-0.218439	0.716322
C92	C	0.789021	-0.218422	0.798868
C93	C	0.755565	-0.251848	0.840117
C94	C	0.722098	-0.285291	0.798820
C95	C	0.822483	-0.184976	0.840171
C96	C	0.822495	-0.184957	0.922722
C97	C	0.789041	-0.218386	0.963972
C98	C	0.755573	-0.251831	0.922670
C99	C	0.722117	-0.285257	0.963919
C100	C	0.688652	-0.318704	0.922619
C101	C	0.688644	-0.318720	0.840070
C102	C	0.789049	-0.218371	1.046521
C103	C	0.722126	-0.285239	1.046473
H104	H	0.305304	-0.346160	0.523007
H105	H	0.816176	-0.549994	0.289370
H106	H	0.816292	-0.191134	1.080144
Br107	Br	0.867924	-0.139578	0.978765
H108	H	0.694844	-0.312542	0.682636
H109	H	0.816128	-0.450943	0.289346
H110	H	0.849685	-0.702108	0.238900
H111	H	0.556477	-0.312665	0.472482
H112	H	0.661381	-0.702160	0.523146
H113	H	0.661407	-0.801210	0.523156
Br114	Br	0.867852	-0.139582	0.784187
Br115	Br	0.191428	-0.139521	0.211639
H116	H	0.556471	-0.191175	0.289392
H117	H	0.457427	-0.312667	0.472522
H118	H	0.054116	-0.191205	0.289503
Br119	Br	0.191442	-0.364344	0.550431
H120	H	0.054131	-0.312702	0.472601
Br121	Br	0.676563	-0.436161	0.499994
Br122	Br	0.834475	-0.938464	0.262010
Br123	Br	0.834391	-0.173057	0.660341
H124	H	-0.044933	-0.191222	0.289512
Br125	Br	-0.059756	-0.330879	0.500017
Br126	Br	0.320118	-0.139513	0.211622
Br127	Br	0.442580	-0.173009	0.262010
H128	H	0.849723	-0.801155	0.238920
Br129	Br	0.643227	-0.364105	0.784016
H130	H	0.816350	-1.052355	0.289455
Br131	Br	0.676779	-1.067209	0.500092
H132	H	0.694911	-0.953333	0.472672
H133	H	0.694884	-0.312461	1.080052
Br134	Br	0.676595	-0.564874	0.500004
H135	H	0.661409	-0.345917	0.956215
