data_functionalizedCrystal
_audit_creation_method	'MofGen! by Chris Wilmer'
_symmetry_space_group_name_H-M	'P1'
_symmetry_Int_Tables_number	1
_symmetry_cell_setting	triclinic
loop_
_symmetry_equiv_pos_as_xyz
  x,y,z
_cell_length_a	15.624803
_cell_length_b	14.519731
_cell_length_c	14.185569
_cell_angle_alpha	76.818244
_cell_angle_beta	85.691254
_cell_angle_gamma	83.971016
loop_
_atom_site_label
_atom_site_type_symbol
_atom_site_fract_x
_atom_site_fract_y
_atom_site_fract_z
O1	O	1.079930	0.239583	-0.476361
O2	O	0.838918	0.231989	-0.388669
O3	O	0.965807	0.102125	-0.434828
O4	O	0.953041	0.369447	-0.430202
O5	O	1.003291	0.063766	-0.281630
O6	O	0.876402	0.193631	-0.235470
O7	O	1.117414	0.201224	-0.323162
Cu8	Cu	1.000330	0.193925	-0.265328
Cu9	Cu	0.956001	0.239289	-0.446503
O10	O	0.990525	0.331089	-0.277003
C11	C	0.826815	0.209353	-0.300847
C12	C	0.734907	0.199040	-0.267406
C13	C	0.330540	0.269641	-0.575059
C14	C	0.244181	0.259932	-0.543635
C15	C	0.285024	0.218113	-0.376616
C16	C	0.371389	0.227814	-0.408026
C17	C	0.394139	0.253579	-0.507248
C18	C	0.434988	0.211752	-0.340216
C19	C	0.521344	0.221457	-0.371623
C20	C	0.544102	0.247224	-0.470841
C21	C	0.480496	0.263284	-0.538656
C22	C	0.412235	0.185993	-0.240994
C23	C	0.475834	0.169931	-0.173183
C24	C	0.562193	0.179630	-0.204591
C25	C	0.584951	0.205397	-0.303809
C26	C	0.625799	0.163570	-0.136776
C27	C	0.712156	0.173275	-0.168184
C28	C	0.671308	0.215102	-0.335216
C29	C	0.983951	0.048532	-0.358011
C30	C	0.982159	-0.054011	-0.357359
C31	C	0.980703	-0.137286	-0.356831
C32	C	0.978882	-0.241758	-0.356176
C33	C	0.977436	-0.325026	-0.355657
C34	C	0.975616	-0.429505	-0.355000
C35	C	1.129516	0.223861	-0.410986
C36	C	1.221423	0.234176	-0.444433
C37	C	0.972380	0.384682	-0.353822
C38	C	0.974170	0.487226	-0.354481
N39	N	1.031515	0.162019	-0.137901
N40	N	0.924823	0.271188	-0.573932
C41	C	0.833201	0.364889	0.301890
C42	C	0.856829	0.340727	0.398317
C43	C	0.969212	0.225780	0.357396
C44	C	0.945591	0.249929	0.260965
C45	C	0.877586	0.319485	0.233220
C46	C	0.989975	0.204526	0.192295
C47	C	0.966359	0.228676	0.095871
C48	C	0.898358	0.298231	0.068118
C49	C	0.853969	0.343636	0.136797
C50	C	1.057985	0.134975	0.220039
C51	C	1.102369	0.089571	0.151369
C52	C	1.078749	0.113717	0.054945
C53	C	1.010748	0.183272	0.027192
C54	C	1.123137	0.068313	-0.013734
C55	C	1.099521	0.092463	-0.110157
C56	C	0.987131	0.207423	-0.069231
H57	H	0.931748	0.264055	-0.091818
O58	O	0.355078	0.297417	-0.682082
H59	H	0.400731	0.240685	-0.703026
H60	H	0.777819	0.421521	0.279304
O61	O	0.808947	0.389703	0.472381
H62	H	0.854619	0.426782	0.503590
H63	H	0.763940	0.160200	-0.112965
H64	H	0.341915	0.178098	-0.215425
O65	O	0.451491	0.142271	-0.066111
H66	H	0.470697	0.196366	-0.029681
H67	H	0.499020	0.284262	-0.619453
H68	H	0.192398	0.273017	-0.598862
O69	O	1.042557	0.150759	0.387322
H70	H	1.051520	0.141587	0.465909
O71	O	0.260215	0.190759	-0.269638
H72	H	0.228986	0.123281	-0.253734
O73	O	1.083466	0.108921	0.324037
H74	H	1.027839	0.082025	0.371990
H75	H	0.879133	0.317897	-0.010398
H76	H	0.607261	0.142600	-0.055989
O77	O	0.780619	0.418656	0.106859
H78	H	0.753721	0.446177	0.170807
O79	O	1.196487	-0.006699	0.016203
H80	H	1.256501	0.015707	-0.025808
H81	H	1.135664	0.055491	-0.166071
O82	O	0.695867	0.242881	-0.442234
H83	H	0.662218	0.313192	-0.473615
O84	O	0.637241	0.257700	-0.504733
H85	H	0.676125	0.189088	-0.479625
O86	O	1.175713	0.014550	0.181295
H87	H	1.184677	0.005378	0.259883
