data_functionalizedCrystal
_audit_creation_method	'MofGen! by Chris Wilmer'
_symmetry_space_group_name_H-M	'P1'
_symmetry_Int_Tables_number	1
_symmetry_cell_setting	triclinic
loop_
_symmetry_equiv_pos_as_xyz
  x,y,z
_cell_length_a	18.760487
_cell_length_b	14.560438
_cell_length_c	14.560438
_cell_angle_alpha	60.000713
_cell_angle_beta	90.036188
_cell_angle_gamma	60.019793
loop_
_atom_site_label
_atom_site_type_symbol
_atom_site_fract_x
_atom_site_fract_y
_atom_site_fract_z
Zr1	Zr	0.686676	1.005283	-0.119969
O2	O	0.572856	1.196888	-0.266706
O3	O	0.721569	0.813680	-0.074988
O4	O	0.721564	1.005285	-0.266590
O5	O	0.572863	1.005280	0.076037
O6	O	0.838867	1.005285	-0.266497
O7	O	0.572860	1.005282	-0.075104
O8	O	0.838875	0.662538	0.076244
O9	O	0.572855	1.348027	-0.266704
O10	O	0.823991	0.892488	-0.055733
O11	O	0.736451	0.892486	0.056992
O12	O	0.736446	1.118077	-0.168594
O13	O	0.648906	1.118075	-0.055869
Zr14	Zr	0.873765	1.005278	0.121231
Zr15	Zr	0.873761	1.005283	-0.119821
Zr16	Zr	0.686681	1.005279	0.121083
Zr17	Zr	0.686675	1.246332	-0.119966
Zr18	Zr	0.873766	0.764229	0.121228
O19	O	0.838873	1.196881	0.076250
O20	O	0.838866	1.196887	-0.266495
O21	O	0.572862	1.196882	0.076039
O22	O	0.987586	0.813674	0.267968
O23	O	0.987579	0.813680	-0.074778
O24	O	0.721575	0.813674	0.267757
O25	O	0.987578	1.005282	-0.074775
O26	O	0.838877	1.005276	0.267852
O27	O	0.721574	1.005276	0.267759
O28	O	0.987581	1.005279	0.076366
O29	O	0.721562	1.348026	-0.266586
O30	O	0.838879	0.662535	0.267848
O31	O	0.987586	0.662535	0.267966
O32	O	0.987582	0.662538	0.076361
O33	O	0.572859	1.348023	-0.075100
O34	O	0.721566	1.348023	-0.074982
O35	O	0.823995	0.892484	0.169856
O36	O	0.911535	0.892486	0.057131
O37	O	0.823990	1.118075	-0.055730
O38	O	0.736450	1.118073	0.056995
C39	C	0.780222	0.703765	0.000627
C40	C	0.780223	0.601433	0.000626
C41	C	0.825915	0.457196	-0.058208
C42	C	0.825915	0.553352	-0.058217
C43	C	0.734520	0.553361	0.059472
C44	C	0.734516	0.457213	0.059473
C45	C	0.546206	1.005281	0.000445
C46	C	0.466784	1.005281	0.000382
C47	C	0.085269	1.123040	-0.058086
C48	C	0.176673	0.887522	0.059743
C49	C	0.251295	0.887520	0.059647
C50	C	0.242907	1.005280	0.000681
C51	C	0.159897	1.123042	-0.058187
C52	C	0.334309	0.769760	0.118505
C53	C	0.408938	0.769753	0.118409
C54	C	0.400551	0.887515	0.059450
C55	C	0.317534	1.005282	0.000580
C56	C	0.309147	1.123042	-0.058385
C57	C	0.226131	1.240810	-0.117249
C58	C	0.151510	1.240804	-0.117146
C59	C	0.475172	0.887521	0.059348
C60	C	0.383774	1.123043	-0.058486
C61	C	1.014235	1.005280	0.000816
C62	C	1.093657	1.005280	0.000879
C63	C	0.780215	1.005286	-0.300889
C64	C	0.780213	1.005287	-0.403222
C65	C	0.780219	1.306797	0.000635
C66	C	0.780219	1.409128	0.000636
C67	C	0.734516	1.123040	-0.510210
C68	C	0.734526	1.123034	-0.606359
C69	C	0.825931	0.887512	-0.488517
C70	C	0.825925	0.887519	-0.392370
C71	C	0.780227	1.005276	0.302150
C72	C	0.780229	1.005274	0.404483
C73	C	1.014236	0.703764	0.000813
C74	C	1.093659	0.601432	0.000874
C75	C	0.780228	0.703760	0.302147
C76	C	0.780230	0.601426	0.404478
C77	C	1.014242	0.703759	0.302332
C78	C	1.093667	0.601426	0.404727
C79	C	0.546199	1.306802	-0.301070
C80	C	0.466774	1.409136	-0.403465
C81	C	0.546205	1.306797	0.000449
C82	C	0.466782	1.409129	0.000387
C83	C	0.780213	1.306802	-0.300885
C84	C	0.780211	1.409135	-0.403217
C85	C	1.085260	0.553377	-0.058021
C86	C	1.159879	0.457239	-0.057985
C87	C	1.242896	0.409151	0.000953
C88	C	1.251294	0.457215	0.059849
C89	C	1.176676	0.553359	0.059807
C90	C	1.176668	0.553370	0.393971
C91	C	1.251304	0.457230	0.490172
C92	C	1.242936	0.409141	0.597129
C93	C	1.159925	0.457206	0.607882
C94	C	1.085292	0.553351	0.511682
C95	C	0.383773	1.457203	-0.392709
C96	C	0.309138	1.553373	-0.488911
C97	C	0.317506	1.601467	-0.595867
C98	C	0.400516	1.553395	-0.606621
C99	C	0.475149	1.457234	-0.510420
C100	C	0.475181	1.457194	0.059272
C101	C	0.400562	1.553359	0.059210
C102	C	0.317545	1.601450	0.000269
C103	C	0.309147	1.553381	-0.058623
C104	C	0.383766	1.457225	-0.058567
C105	C	0.825928	0.553347	0.511468
C106	C	0.825920	0.457203	0.607615
C107	C	0.734517	0.457222	0.489770
C108	C	0.734520	0.553371	0.393625
H109	H	0.863124	0.592488	-0.106134
Br110	Br	0.672502	0.618620	0.139323
Br111	Br	0.411980	1.618572	0.139144
H112	H	0.697302	0.418082	0.480947
H113	H	1.017712	0.592466	0.520455
Br114	Br	0.672484	1.282867	-0.524939
H115	H	0.256727	1.679767	-0.674190
H116	H	0.476525	0.673859	0.166338
Br117	Br	0.672487	0.391983	0.139328
H118	H	1.303714	0.330854	0.675452
Br119	Br	-0.027388	1.282861	-0.137959
H120	H	0.863145	0.592475	0.520311
H121	H	1.318897	0.418048	0.107834
Br122	Br	0.188053	0.727712	0.139754
H123	H	0.376914	1.418093	-0.106515
Br124	Br	0.372392	1.391951	-0.247566
H125	H	0.376934	1.218939	-0.106491
H126	H	0.863147	0.791629	-0.479696
H127	H	0.863141	0.791625	-0.305249
Br128	Br	0.587827	0.727707	0.139215
H129	H	0.219312	1.336690	-0.165264
Br130	Br	0.411858	1.618677	-0.751785
Br131	Br	0.196493	1.618590	-0.474290
Br132	Br	0.887935	0.391962	0.752816
H133	H	0.083915	1.336684	-0.165069
Br134	Br	0.345687	0.609952	0.198516
H135	H	0.542772	1.418045	0.107277
Br136	Br	1.188049	0.618619	0.248828
H137	H	1.017670	0.592530	-0.106029
H138	H	0.542731	1.418098	-0.519191
H139	H	0.697316	1.218920	-0.693471
H140	H	1.153024	0.418116	-0.105946
Br141	Br	0.216285	1.731951	0.000205
Br142	Br	0.196474	1.618659	-0.138606
Br143	Br	0.672488	0.618639	0.248413
Br144	Br	1.363949	0.392015	0.475552
Br145	Br	1.344156	0.278669	0.000999
H146	H	1.183527	0.592473	0.107773
H147	H	0.863128	0.418049	-0.106119
Br148	Br	1.148584	0.391930	0.753046
