data_functionalizedCrystal
_audit_creation_method	'MofGen! by Chris Wilmer'
_symmetry_space_group_name_H-M	'P1'
_symmetry_Int_Tables_number	1
_symmetry_cell_setting	triclinic
loop_
_symmetry_equiv_pos_as_xyz
  x,y,z
_cell_length_a	10.967874
_cell_length_b	11.026607
_cell_length_c	7.088929
_cell_angle_alpha	82.408099
_cell_angle_beta	84.223058
_cell_angle_gamma	96.380181
loop_
_atom_site_label
_atom_site_type_symbol
_atom_site_fract_x
_atom_site_fract_y
_atom_site_fract_z
O1	O	1.649717	0.225277	-0.702495
O2	O	1.297402	0.232552	-0.586425
O3	O	1.444360	0.051263	-0.634833
O4	O	1.502758	0.406566	-0.654087
O5	O	1.463987	0.026979	-0.323324
O6	O	1.317029	0.208267	-0.274915
O7	O	1.669344	0.200993	-0.390985
Cu8	Cu	1.494979	0.202413	-0.304507
Cu9	Cu	1.471767	0.231132	-0.672903
O10	O	1.522386	0.382282	-0.342577
C11	C	1.261410	0.218046	-0.415580
C12	C	1.124923	0.210987	-0.370614
C13	C	1.053905	0.220420	-0.511938
C14	C	0.912838	0.213124	-0.465468
C15	C	1.443400	-0.006458	-0.475531
C16	C	1.411283	-0.142269	-0.464957
C17	C	1.499962	-0.213044	-0.494175
C18	C	1.466770	-0.353412	-0.483247
C19	C	1.705335	0.215499	-0.561834
C20	C	1.841822	0.222559	-0.606812
C21	C	1.523345	0.440003	-0.501883
C22	C	1.555462	0.575815	-0.512469
N23	N	1.511313	0.182213	-0.045399
N24	N	1.455440	0.251322	-0.932013
H25	H	0.885451	0.236045	-0.762220
H26	H	1.366268	-0.396732	-0.450150
H27	H	1.397534	0.322939	0.005415
H28	H	1.569234	0.110601	0.017177
H29	H	1.655954	-0.380855	-0.545720
H30	H	1.097541	0.233903	-0.667335
H31	H	0.869208	0.199654	-0.310061
Cl32	Cl	1.256122	-0.209149	-0.413859
Cl33	Cl	1.655121	-0.146162	-0.545304
H34	H	1.081288	0.197517	-0.215218
