data_functionalizedCrystal
_audit_creation_method	'MofGen! by Chris Wilmer'
_symmetry_space_group_name_H-M	'P1'
_symmetry_Int_Tables_number	1
_symmetry_cell_setting	triclinic
loop_
_symmetry_equiv_pos_as_xyz
  x,y,z
_cell_length_a	21.395364
_cell_length_b	16.959453
_cell_length_c	21.395355
_cell_angle_alpha	90.017325
_cell_angle_beta	90.024516
_cell_angle_gamma	90.015752
loop_
_atom_site_label
_atom_site_type_symbol
_atom_site_fract_x
_atom_site_fract_y
_atom_site_fract_z
Zn1	Zn	0.957906	-0.314862	0.354266
Zn2	Zn	1.291239	0.018471	0.687599
Zn3	Zn	1.624572	0.351804	1.020933
Zn4	Zn	0.957828	-0.447023	0.249491
Zn5	Zn	1.291161	-0.113690	0.582824
Zn6	Zn	1.624494	0.219643	0.916157
Zn7	Zn	0.853121	-0.314853	0.249503
Zn8	Zn	1.186454	0.018481	0.582836
Zn9	Zn	1.519787	0.351814	0.916169
Zn10	Zn	0.853109	-0.446993	0.354231
Zn11	Zn	1.186443	-0.113660	0.687564
Zn12	Zn	1.519776	0.219674	1.020898
O13	O	0.905491	-0.380933	0.301873
O14	O	1.238824	-0.047600	0.635206
O15	O	1.572158	0.285734	0.968539
O16	O	1.045573	-0.332410	0.340377
O17	O	1.378907	0.000923	0.673710
O18	O	1.712240	0.334256	1.007044
O19	O	0.943910	-0.429499	0.161814
O20	O	1.277244	-0.096166	0.495148
O21	O	1.610577	0.237168	0.828481
O22	O	0.867058	-0.204243	0.263420
O23	O	1.200391	0.129090	0.596753
O24	O	1.533725	0.462423	0.930086
O25	O	1.045516	-0.429508	0.263399
O26	O	1.378849	-0.096175	0.596732
O27	O	1.712183	0.237158	0.930066
O28	O	0.944043	-0.204250	0.340389
O29	O	1.277376	0.129083	0.673722
O30	O	1.610710	0.462416	1.007055
O31	O	0.866982	-0.332394	0.161823
O32	O	1.200316	0.000939	0.495157
O33	O	1.533649	0.334273	0.828490
O34	O	0.765441	-0.332365	0.263386
O35	O	1.098775	0.000968	0.596719
O36	O	1.432108	0.334302	0.930052
O37	O	0.867039	-0.429457	0.441914
O38	O	1.200372	-0.096124	0.775247
O39	O	1.533705	0.237210	1.108580
O40	O	0.765433	-0.429448	0.340329
O41	O	1.098766	-0.096114	0.673662
O42	O	1.432100	0.237219	1.006996
O43	O	0.944032	-0.332381	0.441939
O44	O	1.277365	0.000952	0.775273
O45	O	1.610699	0.334285	1.108606
O46	O	0.943899	-0.557630	0.263365
O47	O	1.277233	-0.224297	0.596698
O48	O	1.610566	0.109037	0.930032
O49	O	0.866963	-0.557608	0.340317
O50	O	1.200297	-0.224275	0.673651
O51	O	1.533630	0.109059	1.006984
C52	C	0.742703	-0.380903	0.301855
C53	C	1.076037	-0.047569	0.635188
C54	C	1.409370	0.285764	0.968522
C55	C	0.673062	-0.380909	0.301863
C56	C	1.006395	-0.047575	0.635196
C57	C	1.339729	0.285758	0.968529
C58	C	0.905439	-0.586299	0.301850
C59	C	1.238772	-0.252966	0.635183
C60	C	1.572105	0.080368	0.968516
C61	C	0.905474	-0.674156	0.301861
C62	C	1.238807	-0.340822	0.635194
C63	C	1.572140	-0.007489	0.968527
C64	C	0.171295	-0.330493	0.342029
C65	C	0.504628	0.002840	0.675363
C66	C	0.837962	0.336173	1.008696
C67	C	0.236730	-0.330487	0.342029
C68	C	0.570064	0.002846	0.675362
C69	C	0.903397	0.336179	1.008696
C70	C	0.269424	-0.380957	0.301887
C71	C	0.602757	-0.047624	0.635220
C72	C	0.936090	0.285710	0.968553
C73	C	0.236676	-0.431451	0.261753
C74	C	0.570010	-0.098117	0.595086
C75	C	0.903343	0.235216	0.928420
C76	C	0.171242	-0.431461	0.261759
C77	C	0.504575	-0.098127	0.595092
C78	C	0.837909	0.235206	0.928425
C79	C	0.373061	-0.387078	0.245420
C80	C	0.706394	-0.053744	0.578753
C81	C	1.039728	0.279589	0.912086
C82	C	0.438494	-0.387062	0.245413
C83	C	0.771827	-0.053729	0.578746
C84	C	1.105161	0.279604	0.912079
C85	C	0.471244	-0.380931	0.301869
C86	C	0.804578	-0.047597	0.635203
C87	C	1.137911	0.285736	0.968536
C88	C	0.438554	-0.374798	0.358334
C89	C	0.771887	-0.041465	0.691668
C90	C	1.105221	0.291868	1.025001
C91	C	0.373120	-0.374808	0.358340
C92	C	0.706453	-0.041475	0.691674
C93	C	1.039786	0.291858	1.025007
C94	C	0.340376	-0.380952	0.301876
C95	C	0.673709	-0.047619	0.635210
C96	C	1.007043	0.285715	0.968543
C97	C	0.574937	-0.330438	0.342004
C98	C	0.908270	0.002895	0.675337
C99	C	1.241603	0.336229	1.008670
C100	C	0.640373	-0.330438	0.342005
C101	C	0.973707	0.002896	0.675338
C102	C	1.307040	0.336229	1.008671
C103	C	0.640318	-0.431397	0.261723
C104	C	0.973651	-0.098063	0.595056
C105	C	1.306984	0.235270	0.928389
C106	C	0.574882	-0.431401	0.261727
C107	C	0.908216	-0.098068	0.595061
C108	C	1.241549	0.235266	0.928394
C109	C	0.542196	-0.380918	0.301867
C110	C	0.875529	-0.047584	0.635200
C111	C	1.208862	0.285749	0.968534
C112	C	0.945628	-1.045576	0.342026
C113	C	1.278962	-0.712243	0.675359
C114	C	1.612295	-0.378910	1.008693
C115	C	0.865528	-1.045686	0.261812
C116	C	1.198862	-0.712353	0.595146
C117	C	1.532195	-0.379019	0.928479
C118	C	0.865505	-0.963140	0.261798
C119	C	1.198839	-0.629807	0.595131
C120	C	1.532172	-0.296474	0.928464
C121	C	0.905544	-0.921809	0.301899
C122	C	1.238877	-0.588475	0.635232
C123	C	1.572210	-0.255142	0.968565
C124	C	0.945605	-0.963023	0.342014
C125	C	1.278938	-0.629690	0.675348
C126	C	1.612272	-0.296356	1.008681
C127	C	0.825440	-0.921920	0.221688
C128	C	1.158773	-0.588586	0.555021
C129	C	1.492107	-0.255253	0.888354
C130	C	0.825415	-0.839369	0.221672
C131	C	1.158748	-0.506035	0.555005
C132	C	1.492081	-0.172702	0.888339
C133	C	0.865457	-0.798036	0.261770
C134	C	1.198790	-0.464702	0.595104
C135	C	1.532123	-0.131369	0.928437
C136	C	0.905520	-0.839255	0.301887
C137	C	1.238854	-0.505922	0.635220
C138	C	1.572187	-0.172588	0.968554
C139	C	0.945558	-0.797924	0.341988
C140	C	1.278892	-0.464590	0.675321
C141	C	1.612225	-0.131257	1.008655
C142	C	0.985626	-0.839141	0.382102
C143	C	1.318959	-0.505808	0.715435
C144	C	1.652292	-0.172475	1.048768
C145	C	0.985647	-0.921690	0.382113
C146	C	1.318980	-0.588357	0.715446
C147	C	1.652314	-0.255023	1.048779
C148	C	0.865435	-0.715487	0.261760
C149	C	1.198769	-0.382154	0.595093
C150	C	1.532102	-0.048821	0.928426
C151	C	0.945535	-0.715370	0.341976
C152	C	1.278868	-0.382037	0.675310
C153	C	1.612202	-0.048703	1.008643
C154	C	1.068914	-0.380964	0.301891
C155	C	1.402247	-0.047631	0.635224
C156	C	1.735581	0.285703	0.968557
C157	C	1.138555	-0.380977	0.301898
C158	C	1.471889	-0.047644	0.635231
C159	C	1.805222	0.285690	0.968565
C160	C	0.905543	-0.380917	0.465296
C161	C	1.238876	-0.047584	0.798629
C162	C	1.572210	0.285750	1.131963
C163	C	0.905565	-0.380910	0.534937
C164	C	1.238898	-0.047577	0.868271
C165	C	1.572232	0.285757	1.201604
C166	C	0.905560	-0.174765	0.301909
C167	C	1.238894	0.158569	0.635243
C168	C	1.572227	0.491902	0.968576
C169	C	0.905590	-0.086908	0.301925
C170	C	1.238923	0.246425	0.635258
C171	C	1.572257	0.579759	0.968592
C172	C	0.905475	-0.380892	0.139085
C173	C	1.238808	-0.047558	0.472418
C174	C	1.572142	0.285775	0.805752
C175	C	0.905574	-0.380676	0.069444
C176	C	1.238908	-0.047343	0.402777
C177	C	1.572241	0.285991	0.736111
C178	C	0.945654	-0.330361	0.567665
C179	C	1.278987	0.002973	0.900998
C180	C	1.612320	0.336306	1.234331
C181	C	0.945653	-0.330327	0.633100
C182	C	1.278986	0.003007	0.966434
C183	C	1.612320	0.336340	1.299767
C184	C	0.905570	-0.380856	0.665806
C185	C	1.238903	-0.047523	0.999139
C186	C	1.572237	0.285810	1.332472
C187	C	0.865473	-0.431409	0.633070
C188	C	1.198807	-0.098076	0.966404
C189	C	1.532140	0.235257	1.299737
C190	C	0.865471	-0.431436	0.567636
C191	C	1.198804	-0.098103	0.900969
C192	C	1.532138	0.235230	1.234303
C193	C	0.900605	-0.452027	0.769472
C194	C	1.233938	-0.118694	1.102806
C195	C	1.567271	0.214640	1.436139
C196	C	0.900611	-0.452001	0.834905
C197	C	1.233945	-0.118668	1.168239
C198	C	1.567278	0.214665	1.501572
C199	C	0.905574	-0.380773	0.867626
C200	C	1.238907	-0.047439	1.200960
C201	C	1.572241	0.285894	1.534293
C202	C	0.910543	-0.309567	0.834907
C203	C	1.243876	0.023766	1.168240
C204	C	1.577209	0.357099	1.501573
C205	C	0.910540	-0.309594	0.769472
C206	C	1.243873	0.023739	1.102806
C207	C	1.577207	0.357072	1.436139
C208	C	0.905568	-0.380832	0.736758
C209	C	1.238901	-0.047499	1.070091
C210	C	1.572235	0.285834	1.403425
C211	C	0.945664	-0.330182	0.971307
C212	C	1.278997	0.003151	1.304640
C213	C	1.612330	0.336485	1.637973
C214	C	0.945659	-0.330147	1.036743
C215	C	1.278992	0.003187	1.370077
C216	C	1.612325	0.336520	1.703410
C217	C	0.865482	-0.431236	1.036712
C218	C	1.198816	-0.097903	1.370045
C219	C	1.532149	0.235430	1.703379
C220	C	0.865484	-0.431265	0.971277
C221	C	1.198818	-0.097931	1.304610
C222	C	1.532151	0.235402	1.637943
C223	C	0.905578	-0.380739	0.938578
C224	C	1.238912	-0.047405	1.271911
C225	C	1.572245	0.285928	1.605244
H226	H	0.144686	-0.289389	0.374717
H227	H	0.478019	0.043944	0.708050
H228	H	0.811352	0.377278	1.041383
H229	H	0.978252	-1.079140	0.374684
H230	H	1.311585	-0.745806	0.708017
H231	H	1.644919	-0.412473	1.041351
N232	N	0.988720	-0.670801	0.385234
N233	N	1.322054	-0.337467	0.718567
N234	N	1.655387	-0.004134	1.051900
H235	H	0.963233	-0.636557	0.414242
H236	H	1.296566	-0.303224	0.747575
H237	H	1.629899	0.030110	1.080909
H238	H	1.017751	-0.636586	0.359752
H239	H	1.351084	-0.303252	0.693085
H240	H	1.684417	0.030081	1.026418
H241	H	1.018267	-0.955257	0.414772
H242	H	1.351600	-0.621923	0.748105
H243	H	1.684934	-0.288590	1.081438
H244	H	0.978301	-0.289217	0.541045
H245	H	1.311634	0.044116	0.874379
H246	H	1.644967	0.377449	1.207712
N247	N	0.915901	-0.232735	0.870188
N248	N	1.249235	0.100598	1.203521
N249	N	1.582568	0.433932	1.536854
H250	H	0.915147	-0.243519	0.916605
H251	H	1.248480	0.089814	1.249938
H252	H	1.581814	0.423148	1.583271
H253	H	0.879682	-0.197393	0.858733
H254	H	1.213015	0.135941	1.192066
H255	H	1.546349	0.469274	1.525400
N256	N	0.988903	-0.275688	0.936033
N257	N	1.322236	0.057646	1.269366
N258	N	1.655570	0.390979	1.602699
H259	H	1.014296	-0.243654	0.966698
H260	H	1.347630	0.089680	1.300031
H261	H	1.680963	0.423013	1.633364
H262	H	0.963411	-0.239117	0.908870
H263	H	1.296745	0.094217	1.242203
H264	H	1.630078	0.427550	1.575537
N265	N	0.822237	-0.485970	0.532335
N266	N	1.155571	-0.152637	0.865668
N267	N	1.488904	0.180697	1.199001
H268	H	0.828321	-0.478322	0.485920
H269	H	1.161654	-0.144989	0.819254
H270	H	1.494987	0.188345	1.152587
H271	H	0.777493	-0.473655	0.543751
H272	H	1.110826	-0.140322	0.877084
H273	H	1.444160	0.193012	1.210417
N274	N	0.473755	-0.393681	0.184518
N275	N	0.807089	-0.060347	0.517852
N276	N	1.140422	0.272986	0.851185
H277	H	0.500906	-0.345513	0.178702
H278	H	0.834239	-0.012180	0.512036
H279	H	1.167572	0.321154	0.845369
H280	H	0.443045	-0.397603	0.148789
H281	H	0.776379	-0.064270	0.482123
H282	H	1.109712	0.269063	0.815456
N283	N	0.539565	-0.485847	0.218439
N284	N	0.872899	-0.152514	0.551772
N285	N	1.206232	0.180820	0.885106
H286	H	0.570204	-0.517819	0.193007
H287	H	0.903537	-0.184485	0.526341
H288	H	1.236870	0.148848	0.859674
H289	H	0.512406	-0.453621	0.189491
H290	H	0.845740	-0.120288	0.522824
H291	H	1.179073	0.213045	0.856158
H292	H	0.832929	-1.079343	0.229166
H293	H	1.166262	-0.746010	0.562500
H294	H	1.499595	-0.412677	0.895833
H295	H	0.346401	-0.392074	0.199443
H296	H	0.679735	-0.058741	0.532776
H297	H	1.013068	0.274593	0.866109
H298	H	0.978303	-0.288979	1.063389
H299	H	1.311636	0.044355	1.396722
H300	H	1.644969	0.377688	1.730056
H301	H	0.832840	-0.472371	1.063340
H302	H	1.166173	-0.139037	1.396673
H303	H	1.499506	0.194296	1.730007
N304	N	0.895260	-0.528858	0.734183
N305	N	1.228594	-0.195525	1.067516
N306	N	1.561927	0.137809	1.400850
H307	H	0.892123	-0.573961	0.764838
H308	H	1.225456	-0.240627	1.098171
H309	H	1.558789	0.092706	1.431505
H310	H	0.933437	-0.536205	0.707054
H311	H	1.266770	-0.202872	1.040387
H312	H	1.600104	0.130462	1.373721
H313	H	0.667029	-0.289330	0.374689
H314	H	1.000362	0.044003	0.708022
H315	H	1.333696	0.377337	1.041355
H316	H	0.666936	-0.472496	0.229043
H317	H	1.000269	-0.139163	0.562376
H318	H	1.333603	0.194170	0.895710
N319	N	0.822235	-0.485774	0.935972
N320	N	1.155569	-0.152440	1.269306
N321	N	1.488902	0.180893	1.602639
H322	H	0.796838	-0.517775	0.966618
H323	H	1.130171	-0.184442	1.299952
H324	H	1.463505	0.148892	1.633285
H325	H	0.847714	-0.522375	0.908827
H326	H	1.181047	-0.189041	1.242160
H327	H	1.514380	0.144292	1.575494
N328	N	0.782263	-0.966496	0.178434
N329	N	1.115596	-0.633162	0.511767
N330	N	1.448930	-0.299829	0.845100
H331	H	0.788364	-1.025044	0.184524
H332	H	1.121697	-0.691711	0.517857
H333	H	1.455030	-0.358377	0.851190
H334	H	0.792039	-0.952079	0.133696
H335	H	1.125373	-0.618745	0.467029
H336	H	1.458706	-0.285412	0.800362
H337	H	0.792791	-0.805814	0.189009
H338	H	1.126124	-0.472481	0.522342
H339	H	1.459457	-0.139148	0.855676
H340	H	0.832810	-0.681932	0.229103
H341	H	1.166144	-0.348598	0.562436
H342	H	1.499477	-0.015265	0.895769
N343	N	0.988892	-0.275803	0.668410
N344	N	1.322226	0.057530	1.001743
N345	N	1.655559	0.390864	1.335077
H346	H	1.014290	-0.243799	0.637766
H347	H	1.347624	0.089534	0.971100
H348	H	1.680957	0.422868	1.304433
H349	H	1.017874	-0.307980	0.695570
H350	H	1.351207	0.025354	1.028903
H351	H	1.684541	0.358687	1.362237
N352	N	1.028806	-0.794551	0.425350
N353	N	1.362139	-0.461218	0.758684
N354	N	1.695473	-0.127885	1.092017
H355	H	1.073584	-0.808878	0.415663
H356	H	1.406917	-0.475545	0.748997
H357	H	1.740250	-0.142212	1.082330
H358	H	1.019006	-0.808913	0.470094
H359	H	1.352340	-0.475580	0.803428
H360	H	1.685673	-0.142246	1.136761
H361	H	0.914584	-0.251616	0.742835
H362	H	1.247918	0.081717	1.076168
H363	H	1.581251	0.415050	1.409501
H364	H	0.263299	-0.472545	0.229070
H365	H	0.596633	-0.139212	0.562404
H366	H	0.929966	0.194121	0.895737
N367	N	0.822245	-0.485905	0.668350
N368	N	1.155578	-0.152572	1.001684
N369	N	1.488911	0.180761	1.335017
H370	H	0.831952	-0.542390	0.656969
H371	H	1.165285	-0.209056	0.990303
H372	H	1.498619	0.124277	1.323636
H373	H	0.777498	-0.473556	0.656936
H374	H	1.110831	-0.140222	0.990269
H375	H	1.444165	0.193111	1.323602
N376	N	0.272053	-0.276036	0.385315
N377	N	0.605387	0.057297	0.718649
N378	N	0.938720	0.390630	1.051982
H379	H	0.241417	-0.244058	0.410745
H380	H	0.574751	0.089275	0.744078
H381	H	0.908084	0.422608	1.077411
H382	H	0.299193	-0.239411	0.359854
H383	H	0.632526	0.093922	0.693187
H384	H	0.965859	0.427255	1.026520
N385	N	0.337992	-0.368536	0.419334
N386	N	0.671325	-0.035202	0.752668
N387	N	1.004659	0.298131	1.086001
H388	H	0.349365	-0.317517	0.440889
H389	H	0.682698	0.015817	0.774222
H390	H	1.016032	0.349150	1.107556
H391	H	0.349593	-0.414466	0.447040
H392	H	0.682926	-0.081133	0.780373
H393	H	1.016259	0.252200	1.113707
N394	N	0.473867	-0.368174	0.419232
N395	N	0.807200	-0.034841	0.752566
N396	N	1.140533	0.298492	1.085899
H397	H	0.520279	-0.369100	0.410664
H398	H	0.853612	-0.035767	0.743997
H399	H	1.186946	0.297566	1.077330
H400	H	0.462436	-0.413933	0.447185
H401	H	0.795770	-0.080600	0.780518
H402	H	1.129103	0.252734	1.113852
N403	N	0.539676	-0.275995	0.385296
N404	N	0.873009	0.057339	0.718630
N405	N	1.206343	0.390672	1.051963
H406	H	0.570348	-0.244016	0.410724
H407	H	0.903682	0.089317	0.744058
H408	H	1.237015	0.422651	1.077391
H409	H	0.512535	-0.308226	0.414248
H410	H	0.845869	0.025107	0.747581
H411	H	1.179202	0.358441	1.080915
H412	H	0.896569	-0.509981	0.861541
H413	H	1.229903	-0.176648	1.194874
H414	H	1.563236	0.156686	1.528207
H415	H	0.144586	-0.472572	0.229078
H416	H	0.477919	-0.139239	0.562412
H417	H	0.811252	0.194094	0.895745
