data_functionalizedCrystal
_audit_creation_method	'MofGen! by Chris Wilmer'
_symmetry_space_group_name_H-M	'P1'
_symmetry_Int_Tables_number	1
_symmetry_cell_setting	triclinic
loop_
_symmetry_equiv_pos_as_xyz
  x,y,z
_cell_length_a	24.447405
_cell_length_b	24.446649
_cell_length_c	24.443239
_cell_angle_alpha	60.006064
_cell_angle_beta	60.011844
_cell_angle_gamma	59.992812
loop_
_atom_site_label
_atom_site_type_symbol
_atom_site_fract_x
_atom_site_fract_y
_atom_site_fract_z
O1	O	0.075907	-0.799232	0.668277
O2	O	0.028634	-0.622262	0.538455
O3	O	0.140702	-0.734230	0.538349
O4	O	-0.036160	-0.687265	0.668384
O5	O	0.177886	-0.697056	0.575424
O6	O	0.065818	-0.585088	0.575530
O7	O	0.113091	-0.762059	0.705353
Cu8	Cu	0.092850	-0.670179	0.643827
Cu9	Cu	0.048876	-0.714142	0.599981
O10	O	0.001024	-0.650091	0.705459
N11	N	0.123780	-0.639263	0.674669
N12	N	0.017951	-0.745064	0.569139
C13	C	0.170236	-0.489965	0.721065
C14	C	0.170249	-0.592837	0.721058
C15	C	0.195989	-0.567121	0.746758
C16	C	0.308182	-0.547773	0.687664
C17	C	0.378316	-0.571143	0.664253
C18	C	0.378353	-0.684626	0.707525
C19	C	0.308220	-0.661254	0.730938
C20	C	0.187125	-0.454882	0.652117
C21	C	0.163710	-0.384741	0.628763
C22	C	0.106523	-0.384772	0.743308
C23	C	0.129938	-0.454913	0.766662
C24	C	0.101291	-0.575906	0.738041
C25	C	0.077897	-0.599283	0.714670
C26	C	0.192412	-0.656523	0.657348
C27	C	0.215809	-0.633146	0.680711
C28	C	0.101393	-0.575928	0.859014
C29	C	0.078071	-0.599328	0.929152
C30	C	0.192636	-0.656582	0.929078
C31	C	0.215955	-0.633184	0.858938
C32	C	0.170332	-0.592855	0.823908
C33	C	0.273137	-0.592827	0.721004
C34	C	-0.131205	-0.791294	0.522327
C35	C	-0.028388	-0.791420	0.522551
C36	C	-0.054056	-0.817099	0.496741
C37	C	-0.073479	-0.929255	0.555734
C38	C	-0.050156	-0.999396	0.579142
C39	C	0.063326	-0.999525	0.536064
C40	C	0.040001	-0.929386	0.512654
C41	C	-0.166365	-0.808188	0.591256
C42	C	-0.236499	-0.784726	0.614512
C43	C	-0.236309	-0.727482	0.499907
C44	C	-0.166175	-0.750944	0.476651
C45	C	-0.045285	-0.722468	0.505590
C46	C	-0.021951	-0.699130	0.529061
C47	C	0.035176	-0.813691	0.586439
C48	C	0.011842	-0.837031	0.562976
C49	C	-0.045097	-0.722476	0.384488
C50	C	-0.021613	-0.699140	0.314350
C51	C	0.035607	-0.813706	0.314419
C52	C	0.012124	-0.837041	0.384558
C53	C	-0.028229	-0.791425	0.419591
C54	C	-0.028402	-0.894253	0.522492
N55	N	0.412405	-0.639229	0.674505
O56	O	0.626552	-0.645384	0.514503
O57	O	0.626802	-0.775625	0.691288
O58	O	0.626698	-0.775326	0.579168
O59	O	0.626656	-0.645683	0.626623
O60	O	0.515277	-0.738265	0.616407
O61	O	0.515382	-0.738564	0.728527
O62	O	0.515131	-0.608323	0.551742
Cu63	Cu	0.505083	-0.670059	0.643535
Cu64	Cu	0.636850	-0.713889	0.599495
O65	O	0.515236	-0.608622	0.663862
N66	N	0.729529	-0.744719	0.568518
N67	N	0.123755	-0.350686	0.674680
O68	O	-0.036153	-0.136410	0.668391
O69	O	0.140633	-0.136380	0.538141
O70	O	0.028472	-0.136412	0.538488
O71	O	0.076007	-0.136377	0.668044
O72	O	0.065663	-0.247842	0.575621
O73	O	0.177823	-0.247810	0.575274
O74	O	0.001037	-0.247840	0.705524
Cu75	Cu	0.092826	-0.258000	0.643789
Cu76	Cu	0.048844	-0.126220	0.599875
O77	O	0.113198	-0.247808	0.705177
N78	N	0.017907	-0.033534	0.568986
N79	N	0.124013	-0.639306	0.963182
O80	O	0.117754	-0.799195	1.177439
O81	O	-0.012458	-0.622342	1.177485
O82	O	-0.012155	-0.734480	1.177444
O83	O	0.117450	-0.687057	1.177480
O84	O	0.024954	-0.697317	1.066020
O85	O	0.024650	-0.585179	1.066061
O86	O	0.154862	-0.762032	1.066014
Cu87	Cu	0.093145	-0.670212	1.055863
Cu88	Cu	0.049259	-0.714162	1.187636
O89	O	0.154559	-0.649894	1.066055
N90	N	0.018389	-0.745075	1.280318
C91	C	0.042795	-0.581375	0.539107
C92	C	0.181576	-0.720034	0.538975
C93	C	0.098930	-0.802946	0.704700
C94	C	-0.039851	-0.664287	0.704832
C95	C	0.571122	-0.775030	0.732180
C96	C	0.570995	-0.774660	0.593332
C97	C	0.570808	-0.608917	0.510851
C98	C	0.570939	-0.609288	0.649698
C99	C	0.181453	-0.191954	0.538725
C100	C	0.042602	-0.192131	0.539201
C101	C	-0.039829	-0.192128	0.704893
C102	C	0.099069	-0.192090	0.704464
C103	C	-0.011836	-0.581480	1.121779
C104	C	-0.011453	-0.720342	1.121706
C105	C	0.154240	-0.802894	1.121720
C106	C	0.153865	-0.664024	1.121769
H107	H	0.064236	-0.543084	0.830495
O108	O	-0.093864	-1.033505	0.611548
C109	C	-0.091177	-1.074041	0.676769
H110	H	-0.040900	-1.084549	0.678333
H111	H	-0.097071	-1.123365	0.691027
H112	H	-0.133385	-1.046988	0.713685
H113	H	0.032695	-0.530537	0.498334
H114	H	-0.090599	-0.192138	0.745784
H115	H	0.032420	-0.192135	0.498498
O116	O	0.241954	-0.191663	0.489903
C117	C	0.292718	-0.249246	0.512524
H118	H	0.274485	-0.268704	0.569629
H119	H	0.339309	-0.236001	0.492888
H120	H	0.305410	-0.289594	0.493347
H121	H	0.195123	-0.853684	1.121698
H122	H	0.571186	-0.815915	0.782955
H123	H	-0.090650	-0.654278	0.745664
O124	O	0.570955	-0.560637	0.661685
C125	C	0.570848	-0.502798	0.604179
H126	H	0.591905	-0.517414	0.558110
H127	H	0.603183	-0.477821	0.598289
H128	H	0.517371	-0.466390	0.609636
O129	O	0.570597	-0.560070	0.450335
C130	C	0.512865	-0.503642	0.459226
H131	H	0.472587	-0.519828	0.508304
H132	H	0.493434	-0.479663	0.415796
H133	H	0.525890	-0.465808	0.460767
H134	H	0.109248	-0.192079	0.745165
H135	H	-0.052152	-0.730472	1.121651
O136	O	0.570895	-0.823188	0.581230
C137	C	0.513162	-0.800136	0.565496
H138	H	0.472820	-0.758554	0.587151
H139	H	0.493838	-0.843306	0.587853
H140	H	0.526145	-0.779909	0.508763
O141	O	-0.060545	-0.520859	1.121824
C142	C	-0.036425	-0.479164	1.121824
H143	H	0.006590	-0.511384	1.142916
H144	H	-0.078524	-0.447068	1.154185
H145	H	-0.017838	-0.445325	1.068374
O146	O	0.202380	-0.651803	1.121742
C147	C	0.177969	-0.585948	1.121778
H148	H	0.134952	-0.554244	1.100691
H149	H	0.219919	-0.563409	1.089431
H150	H	0.159299	-0.586939	1.175239
H151	H	0.021932	-0.585534	0.957726
O152	O	0.242171	-0.732080	0.490279
C153	C	0.254142	-0.786289	0.474796
H154	H	0.222840	-0.818480	0.519102
H155	H	0.309528	-0.817841	0.463920
H156	H	0.239739	-0.766381	0.428848
O157	O	0.237046	-0.695762	0.962997
C158	C	0.302894	-0.705663	0.916968
H159	H	0.302726	-0.697821	0.866984
H160	H	0.336228	-0.758854	0.937203
H161	H	0.322976	-0.668321	0.909498
H162	H	0.272095	-0.646975	0.830359
H163	H	0.064189	-0.543085	0.770891
H164	H	0.021747	-0.585481	0.728482
H165	H	0.229515	-0.689349	0.624505
H166	H	0.271959	-0.646925	0.666876
O167	O	0.412542	-0.751072	0.717088
C168	C	0.481959	-0.762040	0.689290
H169	H	0.491505	-0.713766	0.649088
H170	H	0.508606	-0.803019	0.665977
H171	H	0.501899	-0.778204	0.730326
H172	H	0.279688	-0.697946	0.758086
H173	H	0.406848	-0.534453	0.637104
H174	H	0.279622	-0.492055	0.679573
O175	O	0.111074	-0.863640	0.753262
C176	C	0.176920	-0.905188	0.728953
H177	H	0.194583	-0.886929	0.671887
H178	H	0.177835	-0.958893	0.749417
H179	H	0.211585	-0.903342	0.745899
H180	H	0.219934	-0.483420	0.614988
H181	H	0.177459	-0.356175	0.572617
H182	H	0.116177	-0.483478	0.822809
O183	O	0.067368	-0.350821	0.787690
C184	C	0.057508	-0.396828	0.853556
H185	H	0.065351	-0.446827	0.853431
H186	H	0.004332	-0.376578	0.886885
H187	H	0.094868	-0.404280	0.873615
O188	O	-0.038127	-0.632152	0.280289
C189	C	-0.108365	-0.602960	0.297323
H190	H	-0.130987	-0.642859	0.316551
H191	H	-0.121715	-0.561611	0.251152
H192	H	-0.129189	-0.580804	0.338039
O193	O	-0.084190	-0.678141	0.418494
C194	C	-0.048763	-0.637640	0.401423
H195	H	0.007347	-0.664780	0.382223
H196	H	-0.061361	-0.627033	0.447568
H197	H	-0.063626	-0.588359	0.360675
H198	H	0.068452	-0.850855	0.285902
O199	O	0.028431	-0.904028	0.418627
C200	C	0.004491	-0.933117	0.401394
H201	H	-0.038709	-0.893144	0.382021
H202	H	-0.013784	-0.974427	0.447499
H203	H	0.046606	-0.955302	0.360728
O204	O	-0.084463	-0.678132	0.466428
C205	C	-0.143297	-0.637517	0.501767
H206	H	-0.153134	-0.664581	0.557894
H207	H	-0.187435	-0.626860	0.489118
H208	H	-0.136899	-0.588267	0.486867
H209	H	0.067938	-0.850836	0.619346
O210	O	-0.038234	-0.632168	0.512562
C211	C	0.020732	-0.615314	0.477354
H212	H	0.064745	-0.661580	0.490094
H213	H	0.014455	-0.574652	0.492300
H214	H	0.030677	-0.596080	0.421199
O215	O	0.028342	-0.904033	0.579483
C216	C	0.068841	-0.939289	0.620208
H217	H	0.094342	-0.905882	0.611328
H218	H	0.108518	-0.986126	0.607110
H219	H	0.036412	-0.954368	0.675115
H220	H	0.119026	-1.028132	0.528057
O221	O	0.083878	-0.895487	0.480402
C222	C	0.149255	-0.941540	0.476729
H223	H	0.146522	-0.991515	0.518157
H224	H	0.178021	-0.921313	0.483155
H225	H	0.176087	-0.949031	0.425908
H226	H	-0.129177	-0.900656	0.563750
H227	H	-0.265127	-0.798479	0.670643
O228	O	-0.132497	-0.847351	0.635713
C229	C	-0.178572	-0.857238	0.701541
H230	H	-0.228534	-0.814906	0.701329
H231	H	-0.158368	-0.857629	0.734910
H232	H	-0.186071	-0.907174	0.721613
H233	H	-0.264783	-0.694634	0.462714
H234	H	-0.137547	-0.737181	0.420520
