data_functionalizedCrystal
_audit_creation_method	'MofGen! by Chris Wilmer'
_symmetry_space_group_name_H-M	'P1'
_symmetry_Int_Tables_number	1
_symmetry_cell_setting	triclinic
loop_
_symmetry_equiv_pos_as_xyz
  x,y,z
_cell_length_a	16.992695
_cell_length_b	10.654556
_cell_length_c	16.053810
_cell_angle_alpha	92.591495
_cell_angle_beta	87.247275
_cell_angle_gamma	87.577880
loop_
_atom_site_label
_atom_site_type_symbol
_atom_site_fract_x
_atom_site_fract_y
_atom_site_fract_z
O1	O	0.106929	1.682305	0.069398
O2	O	0.606929	2.182305	0.569398
O3	O	0.117421	1.317735	0.069407
O4	O	0.617421	1.817735	0.569407
O5	O	-0.001975	1.498558	0.069396
O6	O	0.498025	1.998558	0.569396
O7	O	0.226325	1.501482	0.069409
O8	O	0.726325	2.001482	0.569409
O9	O	0.004595	1.488648	-0.069462
O10	O	0.504595	1.988648	0.430538
O11	O	0.123991	1.307825	-0.069451
O12	O	0.623991	1.807825	0.430549
O13	O	0.113499	1.672395	-0.069460
O14	O	0.613499	2.172395	0.430540
Zn15	Zn	0.119788	1.488537	-0.091502
Zn16	Zn	0.619788	1.988537	0.408498
Zn17	Zn	0.111132	1.501593	0.091449
Zn18	Zn	0.611132	2.001593	0.591449
O19	O	0.232895	1.491572	-0.069449
O20	O	0.732895	1.991572	0.430551
C21	C	0.119935	1.265916	-0.000021
C22	C	0.619935	1.765916	0.499979
C23	C	0.117626	1.126274	-0.000018
C24	C	0.617626	1.626274	0.499982
C25	C	0.110795	0.934849	0.075667
C26	C	0.610795	1.434849	0.575667
C27	C	0.112959	1.066058	0.075672
C28	C	0.612959	1.566058	0.575672
C29	C	0.120122	1.055273	-0.075718
C30	C	0.620122	1.555273	0.424282
C31	C	0.117953	0.924066	-0.075723
C32	C	0.617953	1.424066	0.424277
C33	C	-0.027924	1.489843	-0.000033
C34	C	0.472076	1.989843	0.499967
C35	C	-0.115029	1.478624	-0.000032
C36	C	0.384971	1.978624	0.499968
C37	C	-0.164679	1.586874	-0.000036
C38	C	0.335321	2.086874	0.499964
C39	C	-0.246523	1.576326	-0.000028
C40	C	0.253477	2.076326	0.499972
C41	C	-0.278716	1.457525	-0.000022
C42	C	0.221284	1.957525	0.499978
C43	C	-0.229060	1.349267	-0.000016
C44	C	0.270940	1.849267	0.499984
C45	C	-0.147217	1.359817	-0.000018
C46	C	0.352783	1.859817	0.499982
C47	C	-0.522553	1.413799	-0.000009
C48	C	-0.022553	1.913799	0.499991
C49	C	-0.604402	1.403257	-0.000010
C50	C	-0.104402	1.903257	0.499990
C51	C	-0.621860	1.630317	-0.000020
C52	C	-0.121860	2.130317	0.499980
C53	C	-0.540015	1.640856	-0.000027
C54	C	-0.040015	2.140856	0.499973
C55	C	-0.490366	1.532598	-0.000017
C56	C	0.009634	2.032598	0.499983
N57	N	-0.362374	1.446740	-0.000016
N58	N	0.137626	1.946740	0.499984
N59	N	-0.406710	1.543385	-0.000016
N60	N	0.093290	2.043385	0.499984
C61	C	0.258843	1.500287	-0.000018
C62	C	0.758843	2.000287	0.499982
C63	C	0.345948	1.511507	-0.000013
C64	C	0.845948	2.011507	0.499987
C65	C	0.110985	1.724215	-0.000030
C66	C	0.610985	2.224215	0.499970
C67	C	0.113293	1.863857	-0.000028
C68	C	0.613293	2.363857	0.499972
N69	N	0.125695	1.479635	-0.216362
N70	N	0.625695	1.979635	0.283638
C71	C	0.156009	1.433543	-0.739991
C72	C	0.656009	1.933543	-0.239991
C73	C	0.151892	1.439799	-0.652585
C74	C	0.651892	1.939799	-0.152585
C75	C	0.096987	1.523023	-0.608880
C76	C	0.596987	2.023023	-0.108880
C77	C	0.046191	1.599988	-0.652586
C78	C	0.546191	2.099988	-0.152586
C79	C	0.050305	1.593725	-0.739991
C80	C	0.550305	2.093725	-0.239991
C81	C	0.079013	1.550337	-0.347472
C82	C	0.579013	2.050337	0.152528
C83	C	0.074904	1.556597	-0.260062
C84	C	0.574904	2.056597	0.239938
C85	C	0.180605	1.396405	-0.260067
C86	C	0.680605	1.896405	0.239933
C87	C	0.184717	1.390155	-0.347473
C88	C	0.684717	1.890155	0.152527
C89	C	0.133918	1.467115	-0.391171
C90	C	0.633918	1.967115	0.108829
N91	N	0.092779	1.529422	-0.519537
N92	N	0.592779	2.029422	-0.019537
N93	N	0.138123	1.460708	-0.480513
N94	N	0.638123	1.960708	0.019487
N95	N	0.105218	1.510504	0.216309
N96	N	0.605218	2.010504	0.716309
H97	H	0.119986	0.866263	-0.137366
H98	H	0.619986	1.366263	0.362634
H99	H	0.110924	1.123854	0.137311
H100	H	0.610924	1.623854	0.637311
H101	H	0.229425	1.322387	-0.383056
H102	H	0.729425	1.822387	0.116944
H103	H	0.001482	1.667746	-0.616996
H104	H	0.501482	2.167746	-0.116996
H105	H	0.030192	1.624373	-0.224481
H106	H	0.530192	2.124373	0.275519
F107	F	0.125087	1.119362	-0.156274
F108	F	0.625087	1.619362	0.343726
H109	H	0.037652	1.613003	-0.383045
H110	H	0.537652	2.113003	0.116955
H111	H	0.107000	0.885831	0.137303
H112	H	0.607000	1.385831	0.637303
F113	F	-0.299362	1.691541	-0.000033
F114	F	0.200638	2.191541	0.499967
F115	F	-0.505760	1.767301	-0.000012
F116	F	-0.005760	2.267301	0.499988
F117	F	-0.674705	1.745524	-0.000030
F118	F	-0.174705	2.245524	0.499970
F119	F	-0.130425	1.713318	-0.000050
F120	F	0.369575	2.213318	0.499950
F121	F	-0.638661	1.276807	-0.000008
F122	F	-0.138661	1.776807	0.499992
H123	H	-0.482138	1.325647	-0.000001
H124	H	0.017862	1.825647	0.499999
F125	F	-0.263324	1.222830	-0.000001
F126	F	0.236676	1.722830	0.499999
F127	F	-0.094376	1.244602	-0.000012
F128	F	0.405624	1.744602	0.499988
H129	H	0.200722	1.365779	-0.775570
H130	H	0.700722	1.865779	-0.275570
H131	H	0.193249	1.377130	-0.617005
H132	H	0.693249	1.877130	-0.117005
F133	F	-0.003757	1.675635	-0.786498
F134	F	0.496243	2.175635	-0.286498
H135	H	0.221962	1.333747	-0.224479
H136	H	0.721962	1.833747	0.275521
