data_functionalizedCrystal
_audit_creation_method	'MofGen! by Chris Wilmer'
_symmetry_space_group_name_H-M	'P1'
_symmetry_Int_Tables_number	1
_symmetry_cell_setting	triclinic
loop_
_symmetry_equiv_pos_as_xyz
  x,y,z
_cell_length_a	14.044209
_cell_length_b	13.101039
_cell_length_c	14.044190
_cell_angle_alpha	86.336293
_cell_angle_beta	86.810135
_cell_angle_gamma	86.340786
loop_
_atom_site_label
_atom_site_type_symbol
_atom_site_fract_x
_atom_site_fract_y
_atom_site_fract_z
O1	O	-1.281975	0.085110	0.225339
O2	O	-0.781975	0.585110	0.725339
O3	O	-1.005305	0.085139	0.217034
O4	O	-0.505305	0.585139	0.717034
O5	O	-1.139482	0.085105	0.082851
O6	O	-0.639482	0.585105	0.582851
O7	O	-1.147797	0.085144	0.359521
O8	O	-0.647797	0.585144	0.859521
O9	O	-1.129857	-0.085323	0.092496
O10	O	-0.629857	0.414677	0.592496
O11	O	-0.995679	-0.085289	0.226678
O12	O	-0.495679	0.414711	0.726678
O13	O	-1.272349	-0.085317	0.234983
O14	O	-0.772349	0.414683	0.734983
Zn15	Zn	-1.132486	-0.112362	0.232362
Zn16	Zn	-0.632486	0.387638	0.732362
Zn17	Zn	-1.145168	0.112184	0.219655
Zn18	Zn	-0.645168	0.612184	0.719655
O19	O	-1.138171	-0.085283	0.369166
O20	O	-0.638171	0.414717	0.869166
C21	C	-0.964870	-0.000071	0.218220
C22	C	-0.464870	0.499929	0.718220
C23	C	-0.858728	-0.000061	0.207376
C24	C	-0.358728	0.499939	0.707376
N25	N	-1.123837	-0.265608	0.241035
N26	N	-0.623837	0.234392	0.741035
C27	C	-0.664388	-0.000082	0.187553
C28	C	-0.164388	0.499918	0.687553
C29	C	-0.613260	-0.000075	0.264467
C30	C	-0.113260	0.499925	0.764467
C31	C	-0.505123	-0.000087	0.253437
C32	C	-0.005123	0.499913	0.753437
C33	C	-0.772535	-0.000071	0.198581
C34	C	-0.272535	0.499929	0.698581
C35	C	-1.112072	-0.474648	0.252843
C36	C	-0.612072	0.025352	0.752843
C37	C	-1.165586	-0.525537	0.199170
C38	C	-0.665586	-0.025537	0.699170
C39	C	-1.159039	-0.641854	0.205740
C40	C	-0.659039	-0.141854	0.705740
C41	C	-1.118617	-0.358320	0.246274
C42	C	-0.618617	0.141680	0.746274
C43	C	-0.312784	-0.000101	0.233798
C44	C	0.187216	0.499899	0.733798
C45	C	-0.418927	-0.000096	0.244648
C46	C	0.081073	0.499904	0.744648
C47	C	-1.131033	-0.000111	0.052052
C48	C	-0.631033	0.499889	0.552052
C49	C	-1.120185	-0.000119	-0.054091
C50	C	-0.620185	0.499881	0.445909
N51	N	-1.153823	0.265430	0.210975
N52	N	-0.653823	0.765430	0.710975
C53	C	-1.177287	-0.000085	-0.299552
C54	C	-0.677287	0.499915	0.200448
C55	C	-1.100371	-0.000084	-0.248426
C56	C	-0.600371	0.499916	0.251574
C57	C	-1.111398	-0.000104	-0.140288
C58	C	-0.611398	0.499896	0.359712
C59	C	-1.166262	-0.000065	-0.407700
C60	C	-0.666262	0.499935	0.092300
C61	C	-1.146621	-0.000064	0.399965
C62	C	-0.646621	0.499936	0.899965
C63	C	-1.157469	-0.000050	0.506107
C64	C	-0.657469	0.499950	1.006107
H65	H	-0.650702	-0.000060	0.338600
H66	H	-0.150702	0.499940	0.838600
H67	H	-1.026239	-0.000071	-0.285869
H68	H	-0.526239	0.499929	0.214131
H69	H	-1.216318	-0.481748	0.148286
H70	H	-0.716318	0.018252	0.648286
H71	H	-1.061344	-0.518432	0.303725
H72	H	-0.561344	-0.018432	0.803725
H73	H	-0.626948	-0.000098	0.113426
H74	H	-0.126948	0.499902	0.613426
H75	H	-1.251413	-0.000103	-0.262110
H76	H	-0.751413	0.499897	0.237890
