data_functionalizedCrystal
_audit_creation_method	'MofGen! by Chris Wilmer'
_symmetry_space_group_name_H-M	'P1'
_symmetry_Int_Tables_number	1
_symmetry_cell_setting	triclinic
loop_
_symmetry_equiv_pos_as_xyz
  x,y,z
_cell_length_a	12.811457
_cell_length_b	12.837942
_cell_length_c	11.892095
_cell_angle_alpha	85.697431
_cell_angle_beta	91.498327
_cell_angle_gamma	90.588063
loop_
_atom_site_label
_atom_site_type_symbol
_atom_site_fract_x
_atom_site_fract_y
_atom_site_fract_z
O1	O	1.403418	-0.143175	0.049870
O2	O	1.101350	-0.156192	0.018901
O3	O	1.245685	0.001296	0.033706
O4	O	1.259082	-0.300663	0.035066
O5	O	1.233649	-0.011815	0.220479
O6	O	1.089313	-0.169303	0.205674
O7	O	1.391381	-0.156286	0.236643
Zn8	Zn	1.238436	-0.164876	0.250813
Zn9	Zn	1.254295	-0.147602	0.004732
O10	O	1.247046	-0.313774	0.221838
C11	C	1.056400	-0.161616	0.108296
C12	C	0.940394	-0.158233	0.096403
C13	C	0.709282	-0.166152	0.277697
C14	C	0.600284	-0.162973	0.266528
C15	C	0.613398	-0.148690	0.062897
C16	C	0.722396	-0.151869	0.074066
C17	C	0.770334	-0.160601	0.181470
C18	C	0.879334	-0.163787	0.192638
C19	C	0.892446	-0.149497	-0.010992
C20	C	0.783448	-0.146318	-0.022161
C21	C	1.235142	0.033413	0.126628
C22	C	1.221645	0.148646	0.125242
C23	C	1.436332	-0.150862	0.147246
C24	C	1.552338	-0.154244	0.159132
C25	C	1.257590	-0.345891	0.128914
C26	C	1.271087	-0.461124	0.130292
N27	N	1.227621	-0.176664	0.418758
C28	C	1.383903	0.387735	0.141854
C29	C	1.371227	0.496007	0.140552
C30	C	1.183617	0.473465	0.121330
C31	C	1.196293	0.365193	0.122631
C32	C	1.296440	0.322332	0.132895
C33	C	1.309115	0.214057	0.134205
C34	C	1.121506	0.191518	0.114974
C35	C	1.108830	0.299790	0.113673
N36	N	1.265118	-0.135806	-0.163212
C37	C	1.340371	-0.053718	0.666970
C38	C	1.332819	-0.061965	0.784538
C39	C	1.204961	-0.201401	0.771461
C40	C	1.212513	-0.193154	0.653894
C41	C	1.280221	-0.119311	0.601653
C42	C	1.287778	-0.111069	0.484084
C43	C	1.159914	-0.250499	0.471009
C44	C	1.152363	-0.258747	0.588576
H45	H	0.550579	-0.167498	0.344887
C46	C	1.373913	0.114419	0.825169
C47	C	1.398938	0.010136	0.856336
H48	H	1.414738	0.158933	0.869491
H49	H	1.301943	0.125167	0.837208
H50	H	1.388103	0.129885	0.747671
H51	H	1.384741	-0.005332	0.933832
H52	H	1.470925	-0.000617	0.844307
H53	H	1.395509	0.006402	0.624436
H54	H	1.149827	-0.261516	0.814010
H55	H	1.097233	-0.318866	0.631124
H56	H	1.390659	0.179162	0.142567
C57	C	1.568076	0.420887	0.160723
C58	C	1.493980	0.340615	0.153133
H59	H	1.636033	0.391796	0.167677
H60	H	1.555038	0.458075	0.224946
H61	H	1.563416	0.467221	0.094680
H62	H	1.498634	0.294285	0.219179
H63	H	1.507022	0.303410	0.088903
C64	C	0.934302	-0.227327	-0.181413
C65	C	0.959556	-0.143396	-0.116776
H66	H	0.975738	-0.223565	-0.246714
H67	H	0.862535	-0.224174	-0.203430
H68	H	0.947525	-0.291166	-0.137935
H69	H	0.946326	-0.079557	-0.160253
H70	H	1.031341	-0.146540	-0.094762
H71	H	1.442450	0.549255	0.147844
C72	C	1.159801	-0.382202	0.337928
C73	C	1.093795	-0.322612	0.399212
H74	H	1.118985	-0.426719	0.293600
H75	H	1.203976	-0.423263	0.388619
H76	H	1.201196	-0.337036	0.289986
H77	H	1.052406	-0.367778	0.447159
H78	H	1.049603	-0.281548	0.348515
C79	C	0.904594	-0.087904	0.369923
C80	C	0.932034	-0.173378	0.310691
H81	H	0.937134	-0.093821	0.442803
H82	H	0.830950	-0.086814	0.377041
H83	H	0.927107	-0.025111	0.330101
H84	H	0.909514	-0.236171	0.350509
H85	H	1.005694	-0.174478	0.303578
H86	H	1.102083	0.508383	0.112961
H87	H	1.027293	0.334703	0.105312
C88	C	1.435964	-0.080904	0.366097
C89	C	1.362149	-0.029873	0.426622
H90	H	1.481865	-0.030764	0.330621
H91	H	1.401222	-0.118806	0.310395
H92	H	1.474878	-0.127740	0.416234
H93	H	1.323229	0.016958	0.376483
H94	H	1.396895	0.008047	0.482330
C95	C	0.495537	-0.225845	-0.068075
C96	C	0.560687	-0.139089	-0.055151
H97	H	0.462999	-0.219918	-0.140956
H98	H	0.443589	-0.228686	-0.012362
H99	H	0.535844	-0.287767	-0.059692
H100	H	0.520378	-0.077167	-0.063526
H101	H	0.612641	-0.136237	-0.110881
C102	C	0.665604	-0.223488	-0.153138
C103	C	0.730747	-0.136727	-0.140215
H104	H	0.633076	-0.217571	-0.226024
H105	H	0.613649	-0.226326	-0.097433
H106	H	0.705914	-0.285408	-0.144741
H107	H	0.690435	-0.074808	-0.148604
H108	H	0.782709	-0.133879	-0.195936
C109	C	0.734550	-0.090288	0.454996
C110	C	0.761987	-0.175752	0.395748
H111	H	0.767094	-0.096213	0.527873
H112	H	0.660906	-0.089200	0.462119
H113	H	0.757060	-0.027489	0.415181
H114	H	0.739471	-0.238550	0.435558
H115	H	0.835647	-0.176850	0.388629
C116	C	1.057628	0.015537	0.108426
C117	C	1.025358	0.119624	0.105118
H118	H	0.998270	-0.028844	0.102337
H119	H	1.094043	-0.002138	0.177718
H120	H	1.102444	0.007002	0.047454
H121	H	0.980548	0.128161	0.166095
H122	H	0.988926	0.137305	0.035818
