data_functionalizedCrystal
_audit_creation_method	'MofGen! by Chris Wilmer'
_symmetry_space_group_name_H-M	'P1'
_symmetry_Int_Tables_number	1
_symmetry_cell_setting	triclinic
loop_
_symmetry_equiv_pos_as_xyz
  x,y,z
_cell_length_a	14.908783
_cell_length_b	14.908520
_cell_length_c	11.169409
_cell_angle_alpha	86.739668
_cell_angle_beta	93.322817
_cell_angle_gamma	96.791586
loop_
_atom_site_label
_atom_site_type_symbol
_atom_site_fract_x
_atom_site_fract_y
_atom_site_fract_z
Zn1	Zn	1.363092	-0.280524	0.804930
Zn2	Zn	1.354240	-0.431926	0.615169
Zn3	Zn	1.211707	-0.289301	0.593288
Zn4	Zn	1.202952	-0.440569	0.804834
O5	O	1.282998	-0.360580	0.704555
O6	O	1.488587	-0.293317	0.788955
O7	O	1.335293	-0.413062	0.444317
O8	O	1.239157	-0.161468	0.612246
O9	O	1.482084	-0.404551	0.649538
O10	O	1.350379	-0.155019	0.767738
O11	O	1.230574	-0.308277	0.428242
O12	O	1.083876	-0.316658	0.612153
O13	O	1.224235	-0.419283	0.972796
O14	O	1.077444	-0.427794	0.767575
O15	O	1.341889	-0.301698	0.972866
O16	O	1.326803	-0.559741	0.649445
O17	O	1.215652	-0.566091	0.788792
C18	C	1.047816	-0.374117	0.687480
C19	C	0.947202	-0.379930	0.680205
C20	C	0.764900	-0.275183	0.811956
C21	C	0.670365	-0.280642	0.805125
C22	C	0.663596	-0.396301	0.659705
C23	C	0.758131	-0.390842	0.666537
C24	C	0.808780	-0.330282	0.742666
C25	C	0.903316	-0.324829	0.749503
C26	C	0.896546	-0.440483	0.604078
C27	C	0.802011	-0.445941	0.597246
C28	C	1.269342	-0.595758	0.721510
C29	C	1.263583	-0.696364	0.728810
C30	C	1.368621	-0.878732	0.597558
C31	C	1.363212	-0.973259	0.604413
C32	C	1.247363	-0.979948	0.749381
C33	C	1.252771	-0.885421	0.742526
C34	C	1.313401	-0.834816	0.666610
C35	C	1.318804	-0.740286	0.659750
C36	C	1.202960	-0.746977	0.804723
C37	C	1.197552	-0.841504	0.811578
C38	C	1.519098	-0.346991	0.721698
C39	C	1.619710	-0.341200	0.729003
C40	C	1.283073	-0.360475	1.017596
C41	C	1.283105	-0.360431	1.150995
C42	C	1.296732	-0.124482	0.687562
C43	C	1.302584	-0.023871	0.680320
C44	C	1.282979	-0.360616	0.392732
C45	C	1.283137	-0.360395	0.259328
H46	H	0.622343	-0.445596	0.597710
H47	H	1.417982	-0.837529	0.535736
H48	H	0.634643	-0.235772	0.861545
O49	O	0.752760	-0.504866	0.523477
C50	C	0.694694	-0.566521	0.591955
H51	H	0.722893	-0.570537	0.688940
H52	H	0.689565	-0.636211	0.553349
H53	H	0.624674	-0.542672	0.588950
H54	H	1.148191	-0.882720	0.873390
H55	H	1.408180	-1.009012	0.548185
H56	H	1.198007	-1.021167	0.811196
O57	O	0.813970	-0.216289	0.885935
C58	C	0.754967	-0.168850	0.945662
H59	H	0.687744	-0.169558	0.891409
H60	H	0.786424	-0.095968	0.955464
H61	H	0.743021	-0.202660	1.038409
O62	O	0.939316	-0.493919	0.536809
C63	C	1.033615	-0.476139	0.559189
H64	H	1.050595	-0.405567	0.594535
H65	H	1.069158	-0.480142	0.472313
H66	H	1.057345	-0.528328	0.628812
O67	O	1.149446	-0.704270	0.871943
C68	C	1.204075	-0.646511	0.949267
H69	H	1.273741	-0.670815	0.964004
H70	H	1.171355	-0.647304	1.039131
H71	H	1.211302	-0.574709	0.907194
O72	O	0.952553	-0.266131	0.823590
C73	C	1.004292	-0.314563	0.908658
H74	H	0.971672	-0.387505	0.919009
H75	H	1.007296	-0.281832	0.998813
H76	H	1.075744	-0.313516	0.876944
O77	O	1.377647	-0.691228	0.585847
C78	C	1.356579	-0.715537	0.466452
H79	H	1.317855	-0.786208	0.466377
H80	H	1.421749	-0.714978	0.417692
H81	H	1.313099	-0.665082	0.418740
