data_functionalizedCrystal
_audit_creation_method	'MofGen! by Chris Wilmer'
_symmetry_space_group_name_H-M	'P1'
_symmetry_Int_Tables_number	1
_symmetry_cell_setting	triclinic
loop_
_symmetry_equiv_pos_as_xyz
  x,y,z
_cell_length_a	6.817900
_cell_length_b	11.102233
_cell_length_c	17.329378
_cell_angle_alpha	90.445903
_cell_angle_beta	103.025558
_cell_angle_gamma	108.604738
loop_
_atom_site_label
_atom_site_type_symbol
_atom_site_fract_x
_atom_site_fract_y
_atom_site_fract_z
V1	V	-4.032526	-0.149862	-0.245031
O2	O	-3.993066	0.033932	-0.240364
O3	O	-4.009840	-0.322861	-0.243358
O4	O	-3.974852	-0.135828	-0.351897
O5	O	-4.028296	-0.154395	-0.131074
V6	V	-4.514024	-0.129264	-0.231401
O7	O	-4.298227	-0.195046	-0.274931
O8	O	-4.698520	-0.084081	-0.201501
O9	O	-4.313503	0.043734	-0.233074
O10	O	-4.670881	-0.313059	-0.236068
O11	O	-4.635650	-0.124732	-0.345358
O12	O	-4.348491	-0.143299	-0.124535
C13	C	-3.861397	-0.365400	-0.239494
C14	C	-3.924073	-0.506753	-0.238838
C15	C	-3.829658	-0.699923	-0.233983
C16	C	-3.770769	-0.567108	-0.234606
C17	C	-4.136286	-0.579222	-0.242455
C18	C	-4.195175	-0.712035	-0.241837
C19	C	-3.618627	-0.692927	-0.229448
C20	C	-3.559738	-0.560112	-0.230071
C21	C	-3.816765	-0.126820	-0.377944
C22	C	-3.851064	-0.116491	-0.465307
C23	C	-3.923719	-0.226833	-0.517575
C24	C	-3.955955	-0.217125	-0.599662
C25	C	-3.915518	-0.097073	-0.629479
C26	C	-3.842862	0.013278	-0.577205
C27	C	-3.810642	0.003568	-0.495120
C28	C	-4.009984	-0.061993	-0.876761
C29	C	-4.042204	-0.052292	-0.958852
C30	C	-4.155299	-0.282696	-0.981304
C31	C	-4.123062	-0.292395	-0.899216
C32	C	-4.050419	-0.182044	-0.846949
C33	C	-3.948460	-0.087147	-0.713384
C34	C	-4.017493	-0.191972	-0.763046
C35	C	-4.125290	0.086267	-0.236937
C36	C	-4.041851	0.227619	-0.237597
C37	C	-4.169922	-0.152311	-0.098484
C38	C	-4.114860	-0.162634	-0.011120
H39	H	-3.542138	-0.723618	-0.170844
C40	C	-3.798371	0.145337	-0.610006
N41	N	-3.764846	0.244808	-0.634710
C42	C	-4.061978	-0.324026	-0.730245
N43	N	-4.095475	-0.423490	-0.705531
C44	C	-3.390367	-0.496870	-0.153303
N45	N	-3.262806	-0.449237	-0.095482
C46	C	-3.930043	0.059398	-0.819277
N47	N	-3.869815	0.150836	-0.775976
C48	C	-3.569107	-0.748909	-0.301515
N49	N	-3.531815	-0.791075	-0.355795
H50	H	-4.009315	0.045473	-0.983126
C51	C	-4.167569	-0.424462	-0.866425
N52	N	-4.201092	-0.523937	-0.841727
C53	C	-3.486118	-0.512784	-0.305439
N54	N	-3.430664	-0.477134	-0.362205
H55	H	-4.214448	-0.372537	-1.023868
H56	H	-3.956636	-0.324592	-0.493305
H57	H	-4.015125	-0.306978	-0.642216
C58	C	-3.730709	0.124954	-0.437624
N59	N	-3.670506	0.216386	-0.394320
H60	H	-4.367963	-0.771028	-0.244791
H61	H	-3.915535	0.010601	-0.737671
H62	H	-4.261108	-0.530072	-0.245908
