data_functionalizedCrystal
_audit_creation_method	'MofGen! by Chris Wilmer'
_symmetry_space_group_name_H-M	'P1'
_symmetry_Int_Tables_number	1
_symmetry_cell_setting	triclinic
loop_
_symmetry_equiv_pos_as_xyz
  x,y,z
_cell_length_a	9.065218
_cell_length_b	12.837942
_cell_length_c	11.892095
_cell_angle_alpha	85.697431
_cell_angle_beta	93.956904
_cell_angle_gamma	89.922413
loop_
_atom_site_label
_atom_site_type_symbol
_atom_site_fract_x
_atom_site_fract_y
_atom_site_fract_z
O1	O	1.987419	0.145650	0.094006
O2	O	1.559652	0.158134	0.094007
O3	O	1.764050	0.000901	0.094000
O4	O	1.783022	0.302884	0.094014
O5	O	1.747005	0.013990	-0.094007
O6	O	1.542607	0.171224	-0.093999
O7	O	1.970374	0.158740	-0.094001
Zn8	Zn	1.753784	0.167060	-0.123850
Zn9	Zn	1.776242	0.149814	0.123857
O10	O	1.765977	0.315973	-0.093993
C11	C	1.495997	0.163479	0.000004
C12	C	1.331718	0.159892	0.000005
C13	C	1.749119	-0.031235	-0.000003
C14	C	1.730006	-0.146492	-0.000001
C15	C	1.959785	-0.385294	0.000022
C16	C	1.941833	-0.493589	0.000024
C17	C	1.676153	-0.471378	0.000013
C18	C	1.694105	-0.363083	0.000011
C19	C	1.835925	-0.320046	0.000014
C20	C	1.853874	-0.211749	0.000004
C21	C	1.588196	-0.189540	0.000001
C22	C	1.570245	-0.297835	0.000003
C23	C	2.034029	0.153395	0.000005
C24	C	2.198309	0.156982	0.000012
C25	C	1.780908	0.348109	0.000012
C26	C	1.800022	0.463365	0.000017
N27	N	1.738468	0.178829	-0.292904
C28	C	1.898137	0.056081	-0.529558
C29	C	1.887443	0.064316	-0.647899
C30	C	1.706379	0.203526	-0.647930
C31	C	1.717073	0.195292	-0.529589
C32	C	1.812957	0.121568	-0.470407
C33	C	1.823658	0.113340	-0.352063
C34	C	1.642587	0.252545	-0.352097
C35	C	1.631893	0.260779	-0.470438
N36	N	1.791569	0.138037	0.292910
H37	H	1.969351	-0.176709	0.000002
H38	H	1.956803	0.010989	-0.696057
C39	C	2.076164	-0.564543	-0.000146
C40	C	2.064842	-0.620656	-0.096855
C41	C	2.188555	-0.686040	-0.097039
H42	H	2.163291	-0.523523	-0.000201
H43	H	2.080620	-0.611869	0.065384
H44	H	2.060401	-0.573336	-0.162367
H45	H	1.977740	-0.661696	-0.096820
H46	H	2.193011	-0.733366	-0.031509
H47	H	2.275673	-0.645012	-0.097091
H48	H	2.180883	-0.724127	-0.162648
C49	C	1.522294	-0.518276	0.000192
C50	C	1.513020	-0.586544	0.096909
C51	C	1.371316	-0.629779	0.097105
H52	H	1.450948	-0.464025	0.000244
H53	H	1.503817	-0.555567	-0.065332
H54	H	1.531481	-0.549254	0.162416
H55	H	1.584334	-0.640814	0.096877
H56	H	1.352839	-0.667070	0.031581
H57	H	1.299981	-0.575520	0.097155
H58	H	1.365009	-0.676110	0.162721
H59	H	1.553822	0.320801	-0.518638
C60	C	1.927880	0.033434	-0.287715
C61	C	2.032259	0.084837	-0.219744
C62	C	2.128271	0.011246	-0.160452
H63	H	1.872941	-0.013507	-0.241488
H64	H	1.977168	-0.004405	-0.339836
H65	H	1.982976	0.122658	-0.167629
H66	H	2.087233	0.131772	-0.265943
H67	H	2.177558	-0.026592	-0.212574
H68	H	2.073319	-0.035691	-0.114232
H69	H	2.199111	0.046113	-0.114336
C70	C	1.453591	-0.118835	0.000168
C71	C	1.377821	-0.145220	0.096874
C72	C	1.253808	-0.080119	0.097053
H73	H	1.484385	-0.048143	0.000221
H74	H	1.390053	-0.127484	-0.065363
H75	H	1.441347	-0.136562	0.162388
H76	H	1.346991	-0.215900	0.096841
H77	H	1.190269	-0.088768	0.031522
H78	H	1.284615	-0.009432	0.097104
H79	H	1.202375	-0.098019	0.162661
H80	H	1.454779	-0.332892	0.000005
H81	H	1.976220	-0.003940	-0.481371
H82	H	1.628302	0.263543	-0.696132
C83	C	1.550285	0.323827	-0.287938
C84	C	1.586016	0.428060	-0.316707
C85	C	1.501040	0.493756	-0.257618
H86	H	1.448313	0.313081	-0.307299
H87	H	1.570401	0.308441	-0.208970
H88	H	1.565889	0.443440	-0.395658
H89	H	1.687973	0.438838	-0.297344
H90	H	1.521155	0.478370	-0.178650
H91	H	1.399072	0.483001	-0.276984
H92	H	1.525280	0.564484	-0.277122
C93	C	2.113697	-0.338488	-0.000214
C94	C	2.123006	-0.270256	-0.096954
C95	C	2.264775	-0.227132	-0.097217
H96	H	2.132318	-0.301187	0.065271
H97	H	2.184934	-0.392827	-0.000275
H98	H	2.051790	-0.215924	-0.096883
H99	H	2.104413	-0.307532	-0.162455
H100	H	2.336013	-0.281472	-0.097278
H101	H	2.283384	-0.189837	-0.031729
H102	H	2.271114	-0.180840	-0.162859
