data_functionalizedCrystal
_audit_creation_method	'MofGen! by Chris Wilmer'
_symmetry_space_group_name_H-M	'P1'
_symmetry_Int_Tables_number	1
_symmetry_cell_setting	triclinic
loop_
_symmetry_equiv_pos_as_xyz
  x,y,z
_cell_length_a	19.077105
_cell_length_b	18.050589
_cell_length_c	19.076919
_cell_angle_alpha	87.724745
_cell_angle_beta	89.923776
_cell_angle_gamma	87.724731
loop_
_atom_site_label
_atom_site_type_symbol
_atom_site_fract_x
_atom_site_fract_y
_atom_site_fract_z
Zn1	Zn	1.058247	-0.359281	0.440438
Zn2	Zn	1.062879	-0.478689	0.322938
Zn3	Zn	0.945466	-0.349333	0.318231
Zn4	Zn	0.940701	-0.478241	0.435691
O5	O	1.001823	-0.416386	0.379325
O6	O	1.157193	-0.379472	0.428809
O7	O	1.051237	-0.457554	0.223983
O8	O	0.960482	-0.246731	0.334459
O9	O	1.160596	-0.467201	0.342482
O10	O	1.043342	-0.254040	0.424244
O11	O	0.964973	-0.362516	0.220524
O12	O	0.846502	-0.362082	0.329856
O13	O	0.952361	-0.466437	0.534652
O14	O	0.843002	-0.456790	0.416153
O15	O	1.038722	-0.379038	0.538140
O16	O	1.046617	-0.582551	0.337879
O17	O	0.956853	-0.582222	0.420717
C18	C	0.819256	-0.408308	0.371979
C19	C	0.741152	-0.404871	0.368853
C20	C	0.702657	-0.452635	0.412244
C21	C	0.629270	-0.449396	0.409310
C22	C	0.594379	-0.398396	0.362981
C23	C	0.632879	-0.350627	0.319588
C24	C	0.706264	-0.353863	0.322526
C25	C	0.375093	-0.383419	0.349388
C26	C	0.301702	-0.380188	0.346452
C27	C	0.298098	-0.478956	0.436175
C28	C	0.371485	-0.482191	0.439105
C29	C	0.409979	-0.434419	0.395715
N30	N	0.519366	-0.395085	0.359980
N31	N	0.484990	-0.437727	0.398721
C32	C	1.001739	-0.609334	0.379310
C33	C	1.001766	-0.691882	0.379329
C34	C	0.952999	-0.891182	0.424363
C35	C	0.938449	-0.937256	0.359556
C36	C	1.001835	-0.843016	0.379341
C37	C	1.016419	-0.944025	0.444157
C38	C	1.001900	-0.989004	0.379358
C39	C	0.987253	-0.887999	0.314499
C40	C	1.065250	-0.894768	0.399145
C41	C	1.050726	-0.940818	0.334295
C42	C	1.001796	-0.758915	0.379332
C43	C	1.001939	-1.073102	0.379360
C44	C	1.185104	-0.424496	0.386700
C45	C	1.263207	-0.427952	0.389843
C46	C	0.994493	-0.423797	0.562605
C47	C	0.991370	-0.426955	0.640709
C48	C	1.001926	-0.222686	0.379356
C49	C	1.001970	-0.140143	0.379369
C50	C	1.009165	-0.408952	0.196759
C51	C	1.012425	-0.405591	0.118661
C52	C	1.034863	-0.382937	0.679219
C53	C	1.031920	-0.385901	0.752605
C54	C	0.985486	-0.432888	0.787479
C55	C	0.941988	-0.476908	0.748964
C56	C	0.944928	-0.473940	0.675579
C57	C	0.971867	-0.446642	1.006761
C58	C	0.968931	-0.449609	1.080151
C59	C	1.058863	-0.358601	1.083787
C60	C	1.061802	-0.355639	1.010401
C61	C	1.018301	-0.399657	0.971892
N62	N	0.982478	-0.435921	0.862492
N63	N	1.021307	-0.396619	0.896881
H64	H	0.737606	-0.314965	0.287196
O65	O	0.267917	-0.330576	0.301429
C66	C	0.317628	-0.289117	0.263749
H67	H	0.368796	-0.290059	0.294628
H68	H	0.296737	-0.229360	0.255502
H69	H	0.327549	-0.314404	0.210648
O70	O	1.101214	-0.315922	1.121168
C71	C	1.171958	-0.334509	1.106042
H72	H	1.176285	-0.393178	1.086004
H73	H	1.204743	-0.331596	1.155703
H74	H	1.192051	-0.293784	1.064191
H75	H	0.911645	-0.869387	0.462377
O76	O	0.874556	-0.959697	0.339460
C77	C	0.881944	-1.000403	0.278137
H78	H	0.931961	-0.984420	0.249527
H79	H	0.834809	-0.987427	0.242432
H80	H	0.885034	-1.062278	0.292864
O81	O	0.972608	-0.858922	0.249054
C82	C	1.023872	-0.884813	0.201639
H83	H	1.073918	-0.902295	0.231534
H84	H	1.035529	-0.838657	0.161282
H85	H	1.003624	-0.934419	0.173760
H86	H	1.118835	-0.875974	0.415910
O87	O	1.079874	-0.337246	0.645265
C88	C	1.041591	-0.285782	0.601227
H89	H	0.988768	-0.309176	0.588079
H90	H	1.072286	-0.275004	0.550779
H91	H	1.032762	-0.231553	0.629210
O92	O	0.412510	-0.336949	0.307339
C93	C	0.453396	-0.292553	0.349121
H94	H	0.429079	-0.289317	0.403586
H95	H	0.455260	-0.234373	0.323831
H96	H	0.508909	-0.318066	0.353732
O97	O	1.099944	-0.966740	0.288784
C98	C	1.067258	-1.007169	0.237112
H99	H	1.015221	-1.027675	0.258128
H100	H	1.102804	-1.056687	0.223185
H101	H	1.057320	-0.969837	0.188241
O102	O	0.929577	-0.489463	0.969467
C103	C	0.887948	-0.531551	1.015987
H104	H	0.914643	-0.537528	1.069452
H105	H	0.881248	-0.588867	0.994466
H106	H	0.834292	-0.502294	1.021660
H107	H	1.067339	-0.350058	0.783957
H108	H	1.099616	-0.317380	0.982011
H109	H	0.604465	-0.309099	0.281869
H110	H	0.904177	-0.515163	0.777365
O111	O	1.031025	-0.973162	0.509589
C112	C	0.979360	-0.947866	0.556865
H113	H	0.953421	-0.893873	0.534941
H114	H	1.004801	-0.937812	0.609504
H115	H	0.938083	-0.991457	0.564381
O116	O	0.923916	-0.495331	1.114069
C117	C	0.962190	-0.546774	1.158136
H118	H	1.018414	-0.552930	1.138245
H119	H	0.936701	-0.602829	1.157944
H120	H	0.962405	-0.526163	1.213852
H121	H	0.909504	-0.509777	0.644225
H122	H	0.731060	-0.494167	0.449968
O123	O	0.591954	-0.495774	0.451556
C124	C	0.607094	-0.483283	0.522337
H125	H	0.660326	-0.457142	0.525975
H126	H	0.608341	-0.538320	0.553849
H127	H	0.564861	-0.444290	0.544423
O128	O	0.405337	-0.531655	0.484213
C129	C	0.384609	-0.517594	0.553554
H130	H	0.364317	-0.457529	0.556391
H131	H	0.431485	-0.527583	0.590193
H132	H	0.341265	-0.556300	0.570150
O133	O	0.260597	-0.525278	0.478299
C134	C	0.188344	-0.511502	0.465762
H135	H	0.179254	-0.452784	0.442439
H136	H	0.158359	-0.517523	0.517273
H137	H	0.168992	-0.553058	0.427439
