data_functionalizedCrystal
_audit_creation_method	'MofGen! by Chris Wilmer'
_symmetry_space_group_name_H-M	'P1'
_symmetry_Int_Tables_number	1
_symmetry_cell_setting	triclinic
loop_
_symmetry_equiv_pos_as_xyz
  x,y,z
_cell_length_a	15.944551
_cell_length_b	10.654550
_cell_length_c	9.730223
_cell_angle_alpha	90.000193
_cell_angle_beta	90.004286
_cell_angle_gamma	96.008179
loop_
_atom_site_label
_atom_site_type_symbol
_atom_site_fract_x
_atom_site_fract_y
_atom_site_fract_z
O1	O	1.115457	-0.161961	-0.114143
O2	O	1.615457	0.338039	0.385857
O3	O	0.871023	-0.181930	-0.114177
O4	O	1.371023	0.318070	0.385823
O5	O	0.998860	0.010867	-0.114154
O6	O	1.498860	0.510867	0.385846
O7	O	0.987620	-0.354757	-0.114166
O8	O	1.487620	0.145243	0.385834
O9	O	0.998858	0.010862	0.114426
O10	O	1.498858	0.510862	0.614426
O11	O	0.871021	-0.181934	0.114403
O12	O	1.371021	0.318066	0.614403
O13	O	1.115455	-0.161966	0.114437
O14	O	1.615455	0.338034	0.614437
Zn15	Zn	0.993238	-0.171951	0.150712
Zn16	Zn	1.493238	0.328049	0.650712
Zn17	Zn	0.993240	-0.171944	-0.150452
Zn18	Zn	1.493240	0.328056	0.349548
O19	O	0.987618	-0.354762	0.114414
O20	O	1.487618	0.145238	0.614414
C21	C	0.839723	-0.181103	0.000109
C22	C	1.339723	0.318897	0.500109
C23	C	0.746463	-0.178618	0.000096
C24	C	1.246463	0.321382	0.500096
C25	C	0.998034	0.057652	0.000134
C26	C	1.498034	0.557652	0.500134
C27	C	0.995565	0.197063	0.000129
C28	C	1.495565	0.697063	0.500129
N29	N	0.993243	-0.171954	0.356249
N30	N	1.493243	0.328046	0.856249
C31	C	0.530880	-0.053173	0.000127
C32	C	1.030880	0.446827	0.500127
C33	C	0.470198	-0.111423	-0.112577
C34	C	0.970198	0.388577	0.387423
C35	C	0.575711	-0.174122	0.000112
C36	C	1.075711	0.325878	0.500112
C37	C	0.470219	-0.111456	0.112785
C38	C	0.970219	0.388544	0.612785
C39	C	0.410773	-0.169770	0.000134
C40	C	0.910773	0.330230	0.500134
C41	C	0.516257	-0.232405	-0.112684
C42	C	1.016257	0.267595	0.387316
C43	C	0.516284	-0.232421	0.112779
C44	C	1.016284	0.267579	0.612779
C45	C	0.455620	-0.290759	0.000047
C46	C	0.955620	0.209241	0.500047
C47	C	0.670728	-0.176625	0.000099
C48	C	1.170728	0.323375	0.500099
C49	C	0.315757	-0.167276	0.000138
C50	C	0.815757	0.332724	0.500138
C51	C	1.146755	-0.162792	0.000148
C52	C	1.646755	0.337208	0.500148
C53	C	1.240015	-0.165278	0.000152
C54	C	1.740015	0.334722	0.500152
C55	C	0.988444	-0.401547	0.000123
C56	C	1.488444	0.098453	0.500123
C57	C	0.990913	-0.540958	0.000119
C58	C	1.490913	-0.040958	0.500119
C59	C	1.070833	0.277522	0.000144
C60	C	1.570833	0.777522	0.500144
C61	C	1.068508	0.408513	0.000134
C62	C	1.568508	0.908513	0.500134
C63	C	0.915639	0.378572	0.000100
C64	C	1.415639	0.878572	0.500100
C65	C	0.917965	0.247584	0.000101
C66	C	1.417965	0.747584	0.500101
C67	C	1.148432	0.227002	0.000172
C68	C	1.648432	0.727002	0.500172
C69	C	1.223707	0.307463	0.000188
C70	C	1.723707	0.807463	0.500188
C71	C	1.221382	0.438453	0.000178
C72	C	1.721382	0.938453	0.500178
C73	C	1.143782	0.488983	0.000152
C74	C	1.643782	0.988983	0.500152
N75	N	0.993242	-0.171931	-0.355988
N76	N	1.493242	0.328069	0.144012
C77	C	1.049864	-0.086613	0.428185
C78	C	1.549864	0.413387	0.928185
C79	C	1.049862	-0.086598	0.572068
C80	C	1.549862	0.413402	1.072068
C81	C	0.936615	-0.257276	0.572066
C82	C	1.436615	0.242724	1.072066
C83	C	0.936614	-0.257285	0.428185
C84	C	1.436614	0.242715	0.928185
C85	C	1.106493	-0.001283	0.356248
C86	C	1.606493	0.498717	0.856248
C87	C	1.163119	0.084065	0.428184
C88	C	1.663119	0.584065	0.928184
C89	C	1.163117	0.084080	0.572067
C90	C	1.663117	0.584080	1.072067
C91	C	1.106489	-0.001252	0.644014
C92	C	1.606489	0.498748	1.144014
H93	H	0.563632	0.047204	-0.000009
H94	H	1.063632	0.547204	0.499991
F95	F	0.443527	-0.044559	-0.237118
F96	F	0.943527	0.455441	0.262882
F97	F	1.306289	0.253683	0.000200
F98	F	1.806289	0.753683	0.500200
F99	F	1.141311	0.628398	0.000187
F100	F	1.641311	1.128398	0.500187
F101	F	0.413037	-0.422093	-0.000036
F102	F	0.913037	0.077907	0.499964
H103	H	0.852461	0.419724	0.000081
H104	H	1.352461	0.919724	0.500081
F105	F	1.106484	-0.001219	0.797149
F106	F	1.606484	0.498781	1.297149
H107	H	0.449836	-0.060280	0.208064
H108	H	0.949836	0.439720	0.708064
F109	F	0.876353	-0.348089	0.648640
F110	F	1.376353	0.151911	1.148640
F111	F	1.150913	0.087592	0.000187
F112	F	1.650913	0.587592	0.500187
H113	H	0.536541	-0.283521	-0.208071
H114	H	1.036541	0.216479	0.291929
F115	F	0.542986	-0.299234	0.237322
F116	F	1.042986	0.200766	0.737322
F117	F	1.301494	0.524082	0.000181
F118	F	1.801494	1.024082	0.500181
H119	H	0.856675	0.182071	0.000091
H120	H	1.356675	0.682071	0.500091
F121	F	1.106502	-0.001297	0.203116
F122	F	1.606502	0.498703	0.703116
H123	H	1.209218	0.153581	0.630636
H124	H	1.709218	0.653581	1.130636
F125	F	1.223377	0.174886	0.351613
F126	F	1.723377	0.674886	0.851613
F127	F	0.876348	-0.348113	0.351625
F128	F	1.376348	0.151887	0.851625
