data_functionalizedCrystal
_audit_creation_method	'MofGen! by Chris Wilmer'
_symmetry_space_group_name_H-M	'P1'
_symmetry_Int_Tables_number	1
_symmetry_cell_setting	triclinic
loop_
_symmetry_equiv_pos_as_xyz
  x,y,z
_cell_length_a	19.805407
_cell_length_b	18.050590
_cell_length_c	19.805399
_cell_angle_alpha	90.027426
_cell_angle_beta	90.019573
_cell_angle_gamma	90.018553
loop_
_atom_site_label
_atom_site_type_symbol
_atom_site_fract_x
_atom_site_fract_y
_atom_site_fract_z
Zn1	Zn	1.034773	-0.295677	0.382720
Zn2	Zn	1.034703	-0.419869	0.269532
Zn3	Zn	0.921587	-0.295697	0.269545
Zn4	Zn	0.921566	-0.419829	0.382679
O5	O	0.978157	-0.357768	0.326119
O6	O	1.129480	-0.312159	0.367718
O7	O	1.019678	-0.403422	0.174817
O8	O	0.936639	-0.191770	0.284580
O9	O	1.129429	-0.403402	0.284559
O10	O	1.019796	-0.191755	0.367730
O11	O	0.936572	-0.312194	0.174827
O12	O	0.826868	-0.312156	0.284540
O13	O	0.936604	-0.403335	0.477401
O14	O	0.826853	-0.403355	0.367660
O15	O	1.019776	-0.312121	0.477432
O16	O	1.019657	-0.523788	0.284519
O17	O	0.936536	-0.523759	0.367648
C18	C	0.802301	-0.357754	0.326097
C19	C	0.727069	-0.357766	0.326104
C20	C	0.691735	-0.405325	0.369314
C21	C	0.621046	-0.405326	0.369324
C22	C	0.585694	-0.357771	0.326119
C23	C	0.621033	-0.310207	0.282907
C24	C	0.691720	-0.310203	0.282902
C25	C	0.335960	-0.310224	0.282930
C26	C	0.265268	-0.310233	0.282937
C27	C	0.265286	-0.405347	0.369352
C28	C	0.335973	-0.405342	0.369346
C29	C	0.371306	-0.357776	0.326137
C30	C	0.447955	-0.357774	0.326128
C31	C	0.509047	-0.357776	0.326124
C32	C	0.978105	-0.550720	0.326092
C33	C	0.978145	-0.633266	0.326103
C34	C	1.023440	-0.832705	0.280961
C35	C	1.039973	-0.882039	0.342736
C36	C	0.978183	-0.784396	0.326130
C37	C	0.961720	-0.882144	0.264383
C38	C	0.978222	-0.930381	0.326151
C39	C	0.994748	-0.832643	0.387938
C40	C	0.916466	-0.832743	0.309543
C41	C	0.932975	-0.882055	0.371361
C42	C	0.978163	-0.700298	0.326118
C43	C	0.978242	-1.014478	0.326171
C44	C	1.154700	-0.357783	0.326142
C45	C	1.229932	-0.357789	0.326151
C46	C	0.978195	-0.357721	0.502662
C47	C	0.978211	-0.357701	0.577894
C48	C	0.978228	-0.164062	0.326161
C49	C	0.978258	-0.081517	0.326179
C50	C	0.978158	-0.357761	0.150263
C51	C	0.978273	-0.357572	0.075032
C52	C	1.021520	-0.310204	0.613255
C53	C	1.021527	-0.310182	0.683944
C54	C	0.978228	-0.357662	0.719270
C55	C	0.934915	-0.405162	0.683904
C56	C	0.934905	-0.405180	0.613217
C57	C	0.934953	-0.405093	0.968977
C58	C	0.934968	-0.405074	1.039669
C59	C	1.021575	-0.310096	1.039704
C60	C	1.021565	-0.310113	0.969017
C61	C	0.978250	-0.357609	0.933657
C62	C	0.978242	-0.357631	0.857009
C63	C	0.978239	-0.357645	0.795917
H64	H	0.720489	-0.271471	0.247719
C65	C	1.013668	-0.803401	0.458514
C66	C	1.017173	-0.719374	0.471537
C67	C	1.036096	-0.690130	0.542111
C68	C	1.051514	-0.744914	0.599663
C69	C	1.048010	-0.828947	0.586642
C70	C	1.029087	-0.858190	0.516068
H71	H	1.005759	-0.678815	0.428932
H72	H	1.038690	-0.627924	0.551750
H73	H	1.065522	-0.723267	0.651906
H74	H	1.059424	-0.869506	0.629246
H75	H	1.026493	-0.920397	0.506429
H76	H	1.061725	-0.811036	0.242803
C77	C	0.942880	-0.911516	0.193829
C78	C	0.879772	-0.960357	0.184659
C79	C	0.860939	-0.989727	0.114104
C80	C	0.905214	-0.970255	0.052720
C81	C	0.968325	-0.921411	0.061889
C82	C	0.987158	-0.892042	0.132444
H83	H	0.846994	-0.974774	0.230100
H84	H	0.814219	-1.025884	0.107317
H85	H	0.891272	-0.991996	0.000491
H86	H	1.001103	-0.906995	0.016447
H87	H	1.033878	-0.855884	0.139231
C88	C	0.887285	-0.457314	0.930087
C89	C	0.887245	-0.457316	0.852334
C90	C	0.839562	-0.509527	0.813441
C91	C	0.791920	-0.561735	0.852301
C92	C	0.791959	-0.561735	0.930058
C93	C	0.839641	-0.509525	0.968952
H94	H	0.922514	-0.418667	0.823564
H95	H	0.839534	-0.509527	0.755880
H96	H	0.756623	-0.600385	0.823510
H97	H	0.756689	-0.600385	0.958829
H98	H	0.839669	-0.509525	1.026513
H99	H	1.056781	-0.271542	0.584498
H100	H	0.894719	-0.903587	0.409612
H101	H	0.592280	-0.444054	0.404509
H102	H	1.056795	-0.271506	0.712731
H103	H	1.056843	-0.271419	1.068503
C104	C	0.887268	-0.457429	0.574314
C105	C	0.810326	-0.451362	0.584017
C106	C	0.762686	-0.503611	0.545114
C107	C	0.791989	-0.561927	0.496508
C108	C	0.868935	-0.567997	0.486802
C109	C	0.916575	-0.515748	0.525705
H110	H	0.788631	-0.408191	0.620000
H111	H	0.705726	-0.499117	0.552299
H112	H	0.756723	-0.600605	0.467709
H113	H	0.890630	-0.611168	0.450819
H114	H	0.973535	-0.520242	0.518520
H115	H	0.720514	-0.444052	0.404494
C116	C	0.887330	-0.457300	1.078529
C117	C	0.892809	-0.541730	1.068793
C118	C	0.845175	-0.593953	1.107653
C119	C	0.792062	-0.561747	1.156249
C120	C	0.786581	-0.477313	1.165988
C121	C	0.834215	-0.425090	1.127128
H122	H	0.932128	-0.565575	1.032817
H123	H	0.849232	-0.656457	1.100444
H124	H	0.756800	-0.600406	1.185016
H125	H	0.747262	-0.453468	1.201964
H126	H	0.830158	-0.362586	1.134337
C127	C	0.374860	-0.457651	0.416873
C128	C	0.335994	-0.509962	0.464409
C129	C	0.374880	-0.562269	0.511940
C130	C	0.452633	-0.562265	0.511935
C131	C	0.491504	-0.509951	0.464398
C132	C	0.452618	-0.457645	0.416867
H133	H	0.278432	-0.509967	0.464414
H134	H	0.346104	-0.600995	0.547130
H135	H	0.481419	-0.600986	0.547120
H136	H	0.549066	-0.509946	0.464392
H137	H	0.481393	-0.418919	0.381676
H138	H	1.056826	-0.271452	0.940258
H139	H	0.236509	-0.444075	0.404537
C140	C	0.226378	-0.257916	0.235413
C141	C	0.265241	-0.205592	0.187885
C142	C	0.226351	-0.153279	0.140363
C143	C	0.148598	-0.153290	0.140368
C144	C	0.109730	-0.205616	0.187897
C145	C	0.148620	-0.257929	0.235419
H146	H	0.322802	-0.205582	0.187880
H147	H	0.255123	-0.114544	0.105179
H148	H	0.119809	-0.114565	0.105189
H149	H	0.052169	-0.205627	0.187902
H150	H	0.119848	-0.296664	0.270603
H151	H	1.092183	-0.903694	0.356779
H152	H	0.364720	-0.271497	0.247741
H153	H	0.899658	-0.443819	0.712672
C154	C	0.845955	-0.803460	0.290549
C155	C	0.837126	-0.753590	0.228105
C156	C	0.766615	-0.724305	0.209102
C157	C	0.704933	-0.744889	0.252542
C158	C	0.713760	-0.794761	0.314990
C159	C	0.784271	-0.824046	0.333994
H160	H	0.882788	-0.738351	0.195944
H161	H	0.760081	-0.687387	0.162873
H162	H	0.652737	-0.723211	0.238475
H163	H	0.668098	-0.810001	0.347151
H164	H	0.790805	-0.860965	0.380222
H165	H	0.592243	-0.271484	0.247732
