data_functionalizedCrystal
_audit_creation_method	'MofGen! by Chris Wilmer'
_symmetry_space_group_name_H-M	'P1'
_symmetry_Int_Tables_number	1
_symmetry_cell_setting	triclinic
loop_
_symmetry_equiv_pos_as_xyz
  x,y,z
_cell_length_a	15.021413
_cell_length_b	16.109301
_cell_length_c	16.109301
_cell_angle_alpha	83.461481
_cell_angle_beta	90.002593
_cell_angle_gamma	89.995406
loop_
_atom_site_label
_atom_site_type_symbol
_atom_site_fract_x
_atom_site_fract_y
_atom_site_fract_z
O1	O	0.073979	-1.103137	-0.106856
O2	O	0.323979	-0.853137	0.143144
O3	O	0.573979	-0.603137	0.393144
O4	O	0.823979	-0.353137	0.643144
O5	O	0.073993	-0.861075	-0.120155
O6	O	0.323993	-0.611075	0.129845
O7	O	0.573993	-0.361075	0.379845
O8	O	0.823993	-0.111075	0.629845
O9	O	0.073976	-0.988755	0.007525
O10	O	0.323976	-0.738755	0.257525
O11	O	0.573976	-0.488755	0.507525
O12	O	0.823976	-0.238755	0.757525
O13	O	0.073995	-0.975456	-0.234537
O14	O	0.323995	-0.725456	0.015463
O15	O	0.573995	-0.475456	0.265463
O16	O	0.823995	-0.225456	0.515463
O17	O	-0.074088	-0.988735	0.007507
O18	O	0.175912	-0.738735	0.257507
O19	O	0.425912	-0.488735	0.507507
O20	O	0.675912	-0.238735	0.757507
O21	O	-0.074071	-0.861054	-0.120174
O22	O	0.175929	-0.611054	0.129826
O23	O	0.425929	-0.361054	0.379826
O24	O	0.675929	-0.111054	0.629826
O25	O	-0.074086	-1.103116	-0.106874
O26	O	0.175914	-0.853116	0.143126
O27	O	0.425914	-0.603116	0.393126
O28	O	0.675914	-0.353116	0.643126
Zn29	Zn	-0.097587	-0.982082	-0.113527
Zn30	Zn	0.152413	-0.732082	0.136473
Zn31	Zn	0.402413	-0.482082	0.386473
Zn32	Zn	0.652413	-0.232082	0.636473
Zn33	Zn	0.097494	-0.982109	-0.113503
Zn34	Zn	0.347494	-0.732109	0.136497
Zn35	Zn	0.597494	-0.482109	0.386497
Zn36	Zn	0.847494	-0.232109	0.636497
O37	O	-0.074069	-0.975436	-0.234555
O38	O	0.175931	-0.725436	0.015445
O39	O	0.425931	-0.475436	0.265445
O40	O	0.675931	-0.225436	0.515445
C41	C	-0.000037	-0.830090	-0.119626
C42	C	0.249963	-0.580090	0.130374
C43	C	0.499963	-0.330090	0.380374
C44	C	0.749963	-0.080090	0.630374
C45	C	-0.000032	-0.737794	-0.118011
C46	C	0.249968	-0.487794	0.131989
C47	C	0.499968	-0.237794	0.381989
C48	C	0.749968	0.012206	0.631989
C49	C	-0.000056	-0.988206	0.038491
C50	C	0.249944	-0.738206	0.288491
C51	C	0.499944	-0.488206	0.538491
C52	C	0.749944	-0.238206	0.788491
C53	C	-0.000057	-0.986591	0.130786
C54	C	0.249943	-0.736591	0.380786
C55	C	0.499943	-0.486591	0.630786
C56	C	0.749943	-0.236591	0.880786
N57	N	-0.230724	-0.982070	-0.113543
N58	N	0.019276	-0.732070	0.136457
N59	N	0.269276	-0.482070	0.386457
N60	N	0.519276	-0.232070	0.636457
C61	C	-0.470400	-0.923021	-0.172554
C62	C	-0.220400	-0.673021	0.077446
C63	C	0.029600	-0.423021	0.327446
C64	C	0.279600	-0.173021	0.577446
C65	C	-0.529737	-0.998143	-0.188671
C66	C	-0.279737	-0.748143	0.061329
C67	C	-0.029737	-0.498143	0.311329
C68	C	0.220263	-0.248143	0.561329
C69	C	-0.412331	-0.982091	-0.113522
C70	C	-0.162331	-0.732091	0.136478
C71	C	0.087669	-0.482091	0.386478
C72	C	0.337669	-0.232091	0.636478
C73	C	-0.529735	-0.906990	-0.097424
C74	C	-0.279735	-0.656990	0.152576
C75	C	-0.029735	-0.406990	0.402576
C76	C	0.220265	-0.156990	0.652576
C77	C	-0.587755	-0.982105	-0.113504
C78	C	-0.337755	-0.732105	0.136496
C79	C	-0.087755	-0.482105	0.386496
C80	C	0.162245	-0.232105	0.636496
C81	C	-0.470362	-1.057251	-0.129676
C82	C	-0.220362	-0.807251	0.120324
C83	C	0.029638	-0.557251	0.370324
C84	C	0.279638	-0.307251	0.620324
C85	C	-0.470355	-0.966048	-0.038396
C86	C	-0.220355	-0.716048	0.211604
C87	C	0.029645	-0.466048	0.461604
C88	C	0.279645	-0.216048	0.711604
C89	C	-0.529666	-1.041224	-0.054481
C90	C	-0.279666	-0.791224	0.195519
C91	C	-0.029666	-0.541224	0.445519
C92	C	0.220334	-0.291224	0.695519
C93	C	-0.311274	-0.982082	-0.113535
C94	C	-0.061274	-0.732082	0.136465
C95	C	0.188726	-0.482082	0.386465
C96	C	0.438726	-0.232082	0.636465
C97	C	-0.688811	-0.982123	-0.113491
C98	C	-0.438811	-0.732123	0.136509
C99	C	-0.188811	-0.482123	0.386509
C100	C	0.061189	-0.232123	0.636509
N101	N	0.230632	-0.982128	-0.113480
N102	N	0.480632	-0.732128	0.136520
N103	N	0.730632	-0.482128	0.386520
N104	N	0.980632	-0.232128	0.636520
C105	C	-0.000053	-1.134101	-0.107404
C106	C	0.249947	-0.884101	0.142596
C107	C	0.499947	-0.634101	0.392596
C108	C	0.749947	-0.384101	0.642596
C109	C	-0.000053	-1.226397	-0.109019
C110	C	0.249947	-0.976397	0.140981
C111	C	0.499947	-0.726397	0.390981
C112	C	0.749947	-0.476397	0.640981
C113	C	-0.000037	-0.515522	-0.190018
C114	C	0.249963	-0.265522	0.059982
C115	C	0.499963	-0.015522	0.309982
C116	C	0.749963	0.234478	0.559982
C117	C	-0.000043	-0.428801	-0.188494
C118	C	0.249957	-0.178801	0.061506
C119	C	0.499957	0.071199	0.311506
C120	C	0.749957	0.321199	0.561506
C121	C	-0.000051	-0.448676	-0.037006
C122	C	0.249949	-0.198676	0.212994
C123	C	0.499949	0.051324	0.462994
C124	C	0.749949	0.301324	0.712994
C125	C	-0.000051	-0.535394	-0.038530
C126	C	0.249949	-0.285394	0.211470
C127	C	0.499949	-0.035394	0.461470
C128	C	0.749949	0.214606	0.711470
C129	C	-0.000040	-0.568815	-0.115039
C130	C	0.249960	-0.318815	0.134961
C131	C	0.499960	-0.068815	0.384961
C132	C	0.749960	0.181185	0.634961
C133	C	-0.000045	-0.395376	-0.111990
C134	C	0.249955	-0.145376	0.138010
C135	C	0.499955	0.104624	0.388010
C136	C	0.749955	0.354624	0.638010
C137	C	-0.000051	-0.301350	-0.110337
C138	C	0.249949	-0.051350	0.139663
C139	C	0.499949	0.198650	0.389663
C140	C	0.749949	0.448650	0.639663
C141	C	-0.000035	-0.662847	-0.116693
C142	C	0.249965	-0.412847	0.133307
C143	C	0.499965	-0.162847	0.383307
C144	C	0.749965	0.087153	0.633307
C145	C	-0.000034	-0.975984	-0.265521
C146	C	0.249966	-0.725984	-0.015521
C147	C	0.499966	-0.475984	0.234479
C148	C	0.749966	-0.225984	0.484479
C149	C	-0.000027	-0.977600	-0.357816
C150	C	0.249973	-0.727600	-0.107816
C151	C	0.499973	-0.477600	0.142184
C152	C	0.749973	-0.227600	0.392184
C153	C	-0.000048	-1.058599	0.353059
C154	C	0.249952	-0.808599	0.603059
C155	C	0.499952	-0.558599	0.853059
C156	C	0.749952	-0.308599	1.103059
C157	C	-0.000040	-1.057075	0.439779
C158	C	0.249960	-0.807075	0.689779
C159	C	0.499960	-0.557075	0.939779
C160	C	0.749960	-0.307075	1.189779
C161	C	-0.000035	-0.905586	0.419905
C162	C	0.249965	-0.655586	0.669905
C163	C	0.499965	-0.405586	0.919905
C164	C	0.749965	-0.155586	1.169905
C165	C	-0.000036	-0.907111	0.333186
C166	C	0.249964	-0.657111	0.583186
C167	C	0.499964	-0.407111	0.833186
C168	C	0.749964	-0.157111	1.083186
C169	C	-0.000047	-0.983620	0.299766
C170	C	0.249953	-0.733620	0.549766
C171	C	0.499953	-0.483620	0.799766
C172	C	0.749953	-0.233620	1.049766
C173	C	-0.000038	-0.980571	0.473205
C174	C	0.249962	-0.730571	0.723205
C175	C	0.499962	-0.480571	0.973205
C176	C	0.749962	-0.230571	1.223205
C177	C	-0.000030	-0.978918	0.567231
C178	C	0.249970	-0.728918	0.817231
C179	C	0.499970	-0.478918	1.067231
C180	C	0.749970	-0.228918	1.317231
C181	C	-0.000053	-0.985273	0.205734
C182	C	0.249947	-0.735273	0.455734
C183	C	0.499947	-0.485273	0.705734
C184	C	0.749947	-0.235273	0.955734
H185	H	-0.444378	-0.873118	-0.222517
H186	H	-0.194378	-0.623118	0.027483
H187	H	0.055622	-0.373118	0.277483
H188	H	0.305622	-0.123118	0.527483
F189	F	-0.000058	-1.140026	0.317493
F190	F	0.249942	-0.890026	0.567493
F191	F	0.499942	-0.640026	0.817493
F192	F	0.749942	-0.390026	1.067493
H193	H	-0.000027	-0.843295	0.447127
H194	H	0.249973	-0.593295	0.697127
H195	H	0.499973	-0.343295	0.947127
H196	H	0.749973	-0.093295	1.197127
F197	F	-0.563470	-1.106594	0.010784
F198	F	-0.313470	-0.856594	0.260784
F199	F	-0.063470	-0.606594	0.510784
F200	F	0.186530	-0.356594	0.760784
H201	H	-0.000039	-1.118130	0.483168
H202	H	0.249961	-0.868130	0.733168
H203	H	0.499961	-0.618130	0.983168
H204	H	0.749961	-0.368130	1.233168
F205	F	-0.436233	-0.948266	0.044608
F206	F	-0.186233	-0.698266	0.294608
F207	F	0.063767	-0.448266	0.544608
F208	F	0.313767	-0.198266	0.794608
F209	F	-0.563826	-0.823969	-0.079636
F210	F	-0.313826	-0.573969	0.170364
F211	F	-0.063826	-0.323969	0.420364
F212	F	0.186174	-0.073969	0.670364
F213	F	-0.000060	-0.592117	0.041277
F214	F	0.249940	-0.342117	0.291277
F215	F	0.499940	-0.092117	0.541277
F216	F	0.749940	0.157883	0.791277
H217	H	-0.000032	-0.846050	0.289792
H218	H	0.249968	-0.596050	0.539792
H219	H	0.499968	-0.346050	0.789792
H220	H	0.749968	-0.096050	1.039792
H221	H	-0.000034	-0.542730	-0.252317
H222	H	0.249966	-0.292730	-0.002317
H223	H	0.499966	-0.042730	0.247683
H224	H	0.749966	0.207270	0.497683
H225	H	-0.555820	-1.011725	-0.252195
H226	H	-0.305820	-0.761725	-0.002195
H227	H	-0.055820	-0.511725	0.247805
H228	H	0.194180	-0.261725	0.497805
F229	F	-0.000059	-0.413100	0.044416
F230	F	0.249941	-0.163100	0.294416
F231	F	0.499941	0.086900	0.544416
F232	F	0.749941	0.336900	0.794416
H233	H	-0.444392	-1.120782	-0.143359
H234	H	-0.194392	-0.870782	0.106641
H235	H	0.055608	-0.620782	0.356641
H236	H	0.305608	-0.370782	0.606641
F237	F	-0.000041	-0.372086	-0.268298
F238	F	0.249959	-0.122086	-0.018298
F239	F	0.499959	0.127914	0.231702
F240	F	0.749959	0.377914	0.481702
