data_functionalizedCrystal
_audit_creation_method	'MofGen! by Chris Wilmer'
_symmetry_space_group_name_H-M	'P1'
_symmetry_Int_Tables_number	1
_symmetry_cell_setting	triclinic
loop_
_symmetry_equiv_pos_as_xyz
  x,y,z
_cell_length_a	17.640112
_cell_length_b	18.050590
_cell_length_c	17.640968
_cell_angle_alpha	101.233828
_cell_angle_beta	87.860920
_cell_angle_gamma	101.243844
loop_
_atom_site_label
_atom_site_type_symbol
_atom_site_fract_x
_atom_site_fract_y
_atom_site_fract_z
Zn1	Zn	1.247780	-0.021338	0.195079
Zn2	Zn	1.222020	-0.174557	0.068090
Zn3	Zn	1.095115	-0.069647	0.093723
Zn4	Zn	1.120761	-0.164781	0.220672
O5	O	1.171419	-0.107581	0.144391
O6	O	1.350631	-0.025537	0.156795
O7	O	1.183673	-0.184949	-0.034784
O8	O	1.115414	0.040698	0.107185
O9	O	1.331706	-0.138106	0.063497
O10	O	1.227576	0.076190	0.181651
O11	O	1.090436	-0.107872	-0.015951
O12	O	0.992249	-0.098393	0.132001
O13	O	1.159123	-0.121445	0.323551
O14	O	1.011090	-0.168288	0.225271
O15	O	1.252443	-0.016058	0.304748
O16	O	1.208540	-0.277197	0.088314
O17	O	1.134145	-0.270015	0.200415
C18	C	0.974116	-0.137522	0.184195
C19	C	0.889712	-0.150345	0.201242
C20	C	0.563040	-0.010153	0.014898
C21	C	0.483732	-0.022215	0.030926
C22	C	0.503372	-0.095166	0.127879
C23	C	0.582684	-0.083107	0.111862
C24	C	0.612511	-0.040601	0.055370
C25	C	0.632155	-0.113555	0.152334
C26	C	0.711459	-0.101500	0.136315
C27	C	0.741292	-0.058998	0.079824
C28	C	0.691815	-0.028547	0.039351
C29	C	0.602326	-0.156065	0.208822
C30	C	0.651797	-0.186513	0.249295
C31	C	0.731103	-0.174454	0.233280
C32	C	0.760936	-0.131952	0.176788
C33	C	0.780581	-0.204905	0.273753
C34	C	0.859885	-0.192851	0.257734
C35	C	0.840241	-0.119897	0.160769
C36	C	1.171354	-0.300549	0.144373
C37	C	1.171401	-0.383085	0.144376
C38	C	1.211977	-0.586382	0.083465
C39	C	1.244542	-0.617065	0.149036
C40	C	1.171451	-0.534202	0.144398
C41	C	1.138970	-0.650582	0.078842
C42	C	1.171498	-0.680175	0.144412
C43	C	1.204058	-0.563783	0.209998
C44	C	1.098444	-0.597312	0.139764
C45	C	1.130992	-0.627965	0.205388
C46	C	1.171425	-0.450110	0.144388
C47	C	1.171526	-0.764263	0.144430
C48	C	1.369493	-0.077523	0.104432
C49	C	1.453900	-0.064714	0.087404
C50	C	1.211517	-0.062272	0.342476
C51	C	1.228605	-0.042964	0.426888
C52	C	1.171508	0.086148	0.144422
C53	C	1.171546	0.168703	0.144435
C54	C	1.131520	-0.152653	-0.052932
C55	C	1.114580	-0.171729	-0.137373
C56	C	1.041898	-0.253812	0.753452
C57	C	1.057970	-0.235658	0.832766
C58	C	1.155137	-0.125928	0.813178
C59	C	1.139070	-0.144071	0.733860
C60	C	1.082450	-0.208015	0.704004
C61	C	1.179622	-0.098273	0.684412
C62	C	1.163559	-0.116417	0.605101
C63	C	1.106944	-0.180359	0.575238
C64	C	1.066387	-0.226159	0.624693
C65	C	1.236245	-0.034332	0.714270
C66	C	1.276797	0.011465	0.664822
C67	C	1.260731	-0.006676	0.585510
C68	C	1.204116	-0.070618	0.555647
C69	C	1.301287	0.039124	0.536056
C70	C	1.285224	0.020980	0.456744
C71	C	1.188053	-0.088762	0.476336
H72	H	0.587329	0.024473	-0.031093
O73	O	0.723996	0.017307	-0.021575
H74	H	0.752286	-0.019235	-0.067566
O75	O	0.430357	0.010602	-0.012740
H76	H	0.401113	0.050627	0.028604
H77	H	1.249323	-0.019563	0.778850
H78	H	1.246273	-0.567974	0.031977
H79	H	0.900166	-0.217643	0.290691
O80	O	1.362339	0.108097	0.568276
H81	H	1.408277	0.088991	0.596617
O82	O	1.326350	-0.629204	0.154255
H83	H	1.359857	-0.612695	0.103610
O84	O	1.240550	-0.514199	0.283450
H85	H	1.207150	-0.531177	0.333965
O86	O	1.005314	-0.295126	0.592487
H87	H	0.959376	-0.276004	0.564161
H88	H	1.318245	0.058274	0.416483
H89	H	0.995775	-0.305867	0.729145
O90	O	1.085629	-0.652138	0.273711
H91	H	1.112773	-0.616722	0.328017
O92	O	1.337843	0.080449	0.697029
H93	H	1.342191	0.085382	0.760489
H94	H	0.864529	-0.085271	0.114779
O95	O	0.471202	-0.141005	0.188813
H96	H	0.407746	-0.144268	0.193158
H97	H	0.805867	-0.049186	0.066781
H98	H	1.093869	-0.195134	0.510657
O99	O	1.016655	-0.585139	0.134525
H100	H	0.989789	-0.620392	0.080023
O101	O	0.748425	-0.250767	0.334673
H102	H	0.720140	-0.214242	0.380683
O103	O	0.516792	-0.169092	0.226111
H104	H	0.498999	-0.112755	0.245802
H105	H	1.111479	-0.688087	0.023396
H106	H	1.141929	-0.140816	0.452029
O107	O	1.014225	-0.285053	0.886105
H108	H	0.972153	-0.332559	0.852017
O109	O	1.216182	-0.056944	0.845385
H110	H	1.220530	-0.052011	0.908845
H111	H	0.627500	-0.221124	0.295288
