data_functionalizedCrystal
_audit_creation_method	'MofGen! by Chris Wilmer'
_symmetry_space_group_name_H-M	'P1'
_symmetry_Int_Tables_number	1
_symmetry_cell_setting	triclinic
loop_
_symmetry_equiv_pos_as_xyz
  x,y,z
_cell_length_a	15.995292
_cell_length_b	11.026607
_cell_length_c	9.482900
_cell_angle_alpha	78.636152
_cell_angle_beta	80.670579
_cell_angle_gamma	83.972684
loop_
_atom_site_label
_atom_site_type_symbol
_atom_site_fract_x
_atom_site_fract_y
_atom_site_fract_z
O1	O	-0.340352	1.628981	-0.120936
O2	O	-0.300428	1.275686	-0.120933
O3	O	-0.199962	1.462024	-0.120914
O4	O	-0.440818	1.442642	-0.120955
O5	O	-0.220474	1.424175	0.120875
O6	O	-0.320940	1.237837	0.120856
O7	O	-0.360864	1.591131	0.120853
Cu8	Cu	-0.342775	1.411028	0.142932
Cu9	Cu	-0.318517	1.455789	-0.143011
O10	O	-0.461330	1.404793	0.120834
C11	C	-0.303319	1.211553	-0.000038
C12	C	-0.281362	1.076845	-0.000036
C13	C	-0.341987	1.003023	-0.000047
C14	C	-0.319295	0.863795	-0.000045
C15	C	-0.482388	1.424507	-0.000066
C16	C	-0.575696	1.426876	-0.000082
C17	C	-0.914750	1.435566	-0.000035
C18	C	-0.871210	1.300985	0.000502
C19	C	-0.774102	1.298517	-0.000058
C20	C	-0.746541	1.431254	-0.000058
C21	C	-0.774077	1.520108	-0.138123
C22	C	-0.871103	1.521743	-0.138223
C23	C	-0.894676	1.481447	0.136735
C24	C	-0.797586	1.476180	0.138545
C25	C	-0.651477	1.428824	-0.000075
C26	C	-1.009813	1.438000	-0.000027
C27	C	-0.178904	1.442310	-0.000017
C28	C	-0.085595	1.439943	-0.000011
C29	C	-0.357973	1.655265	-0.000045
C30	C	-0.379928	1.789974	-0.000057
N31	N	-0.359837	1.379554	0.344048
N32	N	-0.301450	1.487273	-0.344128
C33	C	-0.323544	1.446497	0.416255
C34	C	-0.337748	1.420319	0.583669
H35	H	-0.755525	1.230353	0.098902
H36	H	-0.899788	1.233643	0.099514
H37	H	-0.448636	0.829838	-0.000059
H38	H	-0.884110	1.264847	-0.097958
H39	H	-0.212658	1.036978	-0.000062
H40	H	-0.899986	1.621337	-0.144492
H41	H	-0.756496	1.618588	-0.143256
O42	O	-0.732629	1.254035	-0.118498
C43	C	-0.755222	1.331483	-0.245817
H44	H	-0.778509	1.427606	-0.221685
H45	H	-0.697455	1.339123	-0.334109
H46	H	-0.807969	1.290347	-0.284613
O47	O	-0.776941	1.398874	0.260504
C48	C	-0.742413	1.466616	0.345857
H49	H	-0.764995	1.568868	0.317986
H50	H	-0.764234	1.430054	0.465875
H51	H	-0.670091	1.455704	0.322731
H52	H	-0.882153	1.491329	-0.241432
H53	H	-0.410689	1.042894	-0.000051
H54	H	-0.401420	1.302856	0.406171
O55	O	-0.387255	1.328741	0.657924
C56	C	-0.338656	1.239978	0.745965
H57	H	-0.282242	1.284555	0.768614
H58	H	-0.379787	1.204244	0.853061
H59	H	-0.314641	1.159359	0.687416
O60	O	-0.237281	0.816420	-0.000227
C61	C	-0.186586	0.875659	-0.125465
H62	H	-0.219018	0.970029	-0.167220
H63	H	-0.121872	0.888703	-0.097293
H64	H	-0.177875	0.816148	-0.213151
O65	O	-0.776430	1.590213	0.148280
C66	C	-0.714686	1.632045	0.029451
H67	H	-0.718471	1.582487	-0.063830
H68	H	-0.726864	1.736331	-0.007596
H69	H	-0.648798	1.611147	0.063691
O70	O	-0.731283	1.483771	-0.260759
C71	C	-0.683418	1.580569	-0.343509
H72	H	-0.670867	1.644549	-0.269594
H73	H	-0.620352	1.539802	-0.396251
H74	H	-0.720331	1.635627	-0.431595
O75	O	-0.931412	1.411485	0.261453
C76	C	-0.975902	1.319969	0.226971
H77	H	-0.948544	1.302011	0.113606
H78	H	-0.969175	1.230531	0.309681
H79	H	-1.045962	1.353363	0.229744
H80	H	-0.281953	1.523187	0.354134
H81	H	-0.259856	1.563967	0.593755
H82	H	-0.923674	1.580297	0.137677
