data_functionalizedCrystal
_audit_creation_method	'MofGen! by Chris Wilmer'
_symmetry_space_group_name_H-M	'P1'
_symmetry_Int_Tables_number	1
_symmetry_cell_setting	triclinic
loop_
_symmetry_equiv_pos_as_xyz
  x,y,z
_cell_length_a	19.805407
_cell_length_b	19.805405
_cell_length_c	19.805407
_cell_angle_alpha	90.013352
_cell_angle_beta	90.005535
_cell_angle_gamma	90.026410
loop_
_atom_site_label
_atom_site_type_symbol
_atom_site_fract_x
_atom_site_fract_y
_atom_site_fract_z
Zn1	Zn	1.034642	-0.269585	0.382711
Zn2	Zn	1.284642	-0.019585	0.632711
Zn3	Zn	1.534642	0.230415	0.882711
Zn4	Zn	1.784642	0.480415	1.132711
Zn5	Zn	1.034584	-0.382742	0.269520
Zn6	Zn	1.284584	-0.132742	0.519520
Zn7	Zn	1.534584	0.117258	0.769520
Zn8	Zn	1.784584	0.367258	1.019520
Zn9	Zn	0.921484	-0.269573	0.269536
Zn10	Zn	1.171484	-0.019573	0.519536
Zn11	Zn	1.421484	0.230427	0.769536
Zn12	Zn	1.671484	0.480427	1.019536
Zn13	Zn	0.921420	-0.382738	0.382666
Zn14	Zn	1.171420	-0.132738	0.632666
Zn15	Zn	1.421420	0.117262	0.882666
Zn16	Zn	1.671420	0.367262	1.132666
O17	O	0.978033	-0.326160	0.326108
O18	O	1.228033	-0.076160	0.576108
O19	O	1.478033	0.173840	0.826108
O20	O	1.728033	0.423840	1.076108
O21	O	1.129351	-0.284603	0.367708
O22	O	1.379351	-0.034603	0.617708
O23	O	1.629351	0.215397	0.867708
O24	O	1.879351	0.465397	1.117708
O25	O	1.019584	-0.367727	0.174805
O26	O	1.269584	-0.117727	0.424805
O27	O	1.519584	0.132273	0.674805
O28	O	1.769584	0.382273	0.924805
O29	O	0.936546	-0.174858	0.284575
O30	O	1.186546	0.075142	0.534575
O31	O	1.436546	0.325142	0.784575
O32	O	1.686546	0.575142	1.034575
O33	O	1.129309	-0.367739	0.284547
O34	O	1.379309	-0.117739	0.534547
O35	O	1.629309	0.132261	0.784547
O36	O	1.879309	0.382261	1.034547
O37	O	1.019682	-0.174867	0.367724
O38	O	1.269682	0.075133	0.617724
O39	O	1.519682	0.325133	0.867724
O40	O	1.769682	0.575133	1.117724
O41	O	0.936490	-0.284581	0.174817
O42	O	1.186490	-0.034581	0.424817
O43	O	1.436490	0.215419	0.674817
O44	O	1.686490	0.465419	0.924817
O45	O	0.826759	-0.284577	0.284531
O46	O	1.076759	-0.034577	0.534531
O47	O	1.326759	0.215423	0.784531
O48	O	1.576759	0.465423	1.034531
O49	O	0.936436	-0.367731	0.477389
O50	O	1.186436	-0.117731	0.727389
O51	O	1.436436	0.132269	0.977389
O52	O	1.686436	0.382269	1.227389
O53	O	0.826712	-0.367719	0.367647
O54	O	1.076712	-0.117719	0.617647
O55	O	1.326712	0.132281	0.867647
O56	O	1.576712	0.382281	1.117647
O57	O	1.019620	-0.284599	0.477422
O58	O	1.269620	-0.034599	0.727422
O59	O	1.519620	0.215401	0.977422
O60	O	1.769620	0.465401	1.227422
O61	O	1.019522	-0.477458	0.284503
O62	O	1.269522	-0.227458	0.534503
O63	O	1.519522	0.022542	0.784503
O64	O	1.769522	0.272542	1.034503
O65	O	0.936381	-0.477455	0.367632
O66	O	1.186381	-0.227455	0.617632
O67	O	1.436381	0.022545	0.867632
O68	O	1.686381	0.272545	1.117632
C69	C	0.802177	-0.326147	0.326086
C70	C	1.052177	-0.076147	0.576086
C71	C	1.302177	0.173853	0.826086
C72	C	1.552177	0.423853	1.076086
C73	C	0.726945	-0.326157	0.326093
C74	C	0.976945	-0.076157	0.576093
C75	C	1.226945	0.173843	0.826093
C76	C	1.476945	0.423843	1.076093
C77	C	0.691594	-0.369515	0.369302
C78	C	0.941594	-0.119515	0.619302
C79	C	1.191594	0.130485	0.869302
C80	C	1.441594	0.380485	1.119302
C81	C	0.620905	-0.369516	0.369311
C82	C	0.870905	-0.119516	0.619311
C83	C	1.120905	0.130484	0.869311
C84	C	1.370905	0.380484	1.119311
C85	C	0.585569	-0.326163	0.326108
C86	C	0.835569	-0.076163	0.576108
C87	C	1.085569	0.173837	0.826108
C88	C	1.335569	0.423837	1.076108
C89	C	0.620925	-0.282801	0.282898
C90	C	0.870925	-0.032801	0.532898
C91	C	1.120925	0.217199	0.782898
C92	C	1.370925	0.467199	1.032898
C93	C	0.691612	-0.282797	0.282892
C94	C	0.941612	-0.032797	0.532892
C95	C	1.191612	0.217203	0.782892
C96	C	1.441612	0.467203	1.032892
C97	C	0.335852	-0.282816	0.282920
C98	C	0.585852	-0.032816	0.532920
C99	C	0.835852	0.217184	0.782920
C100	C	1.085852	0.467184	1.032920
C101	C	0.265160	-0.282825	0.282928
C102	C	0.515160	-0.032825	0.532928
C103	C	0.765160	0.217175	0.782928
C104	C	1.015160	0.467175	1.032928
C105	C	0.265145	-0.369535	0.369339
C106	C	0.515145	-0.119535	0.619339
C107	C	0.765145	0.130465	0.869339
C108	C	1.015145	0.380465	1.119339
C109	C	0.335832	-0.369531	0.369334
C110	C	0.585832	-0.119531	0.619334
C111	C	0.835832	0.130469	0.869334
C112	C	1.085832	0.380469	1.119334
C113	C	0.371182	-0.326167	0.326126
C114	C	0.621182	-0.076167	0.576126
C115	C	0.871182	0.173833	0.826126
C116	C	1.121182	0.423833	1.076126
C117	C	0.447830	-0.326165	0.326117
C118	C	0.697830	-0.076165	0.576117
C119	C	0.947830	0.173835	0.826117
C120	C	1.197830	0.423835	1.076117
C121	C	0.508922	-0.326167	0.326113
C122	C	0.758922	-0.076167	0.576113
C123	C	1.008922	0.173833	0.826113
C124	C	1.258922	0.423833	1.076113
C125	C	0.977956	-0.502016	0.326076
C126	C	1.227956	-0.252016	0.576076
C127	C	1.477956	-0.002016	0.826076
C128	C	1.727956	0.247984	1.076076
C129	C	0.977986	-0.577248	0.326084
C130	C	1.227986	-0.327248	0.576084
C131	C	1.477986	-0.077248	0.826084
C132	C	1.727986	0.172752	1.076084
C133	C	1.021320	-0.612571	0.282845
C134	C	1.271320	-0.362571	0.532845
C135	C	1.521320	-0.112571	0.782845
C136	C	1.771320	0.137429	1.032845
C137	C	1.021348	-0.683259	0.282860
C138	C	1.271348	-0.433259	0.532860
C139	C	1.521348	-0.183259	0.782860
C140	C	1.771348	0.066741	1.032860
C141	C	0.978039	-0.718623	0.326111
C142	C	1.228039	-0.468623	0.576111
C143	C	1.478039	-0.218623	0.826111
C144	C	1.728039	0.031377	1.076111
C145	C	0.934704	-0.683295	0.369356
C146	C	1.184704	-0.433295	0.619356
C147	C	1.434704	-0.183295	0.869356
C148	C	1.684704	0.066705	1.119356
C149	C	0.934679	-0.612608	0.369344
C150	C	1.184679	-0.362608	0.619344
C151	C	1.434679	-0.112608	0.869344
C152	C	1.684679	0.137392	1.119344
C153	C	0.934804	-0.968368	0.369406
C154	C	1.184804	-0.718368	0.619406
C155	C	1.434804	-0.468368	0.869406
C156	C	1.684804	-0.218368	1.119406
C157	C	0.934830	-1.039060	0.369413
C158	C	1.184830	-0.789060	0.619413
C159	C	1.434830	-0.539060	0.869413
C160	C	1.684830	-0.289060	1.119413
C161	C	1.021473	-1.039020	0.282922
C162	C	1.271473	-0.789020	0.532922
C163	C	1.521473	-0.539020	0.782922
C164	C	1.771473	-0.289020	1.032922
C165	C	1.021448	-0.968333	0.282910
C166	C	1.271448	-0.718333	0.532910
C167	C	1.521448	-0.468333	0.782910
C168	C	1.771448	-0.218333	1.032910
C169	C	0.978115	-0.933010	0.326156
C170	C	1.228115	-0.683010	0.576156
C171	C	1.478115	-0.433010	0.826156
C172	C	1.728115	-0.183010	1.076156
C173	C	0.978086	-0.856362	0.326141
C174	C	1.228086	-0.606362	0.576141
C175	C	1.478086	-0.356362	0.826141
C176	C	1.728086	-0.106362	1.076141
C177	C	0.978065	-0.795270	0.326124
C178	C	1.228065	-0.545270	0.576124
C179	C	1.478065	-0.295270	0.826124
C180	C	1.728065	-0.045270	1.076124
C181	C	1.154575	-0.326173	0.326131
C182	C	1.404575	-0.076173	0.576131
C183	C	1.654575	0.173827	0.826131
C184	C	1.904575	0.423827	1.076131
C185	C	1.229807	-0.326179	0.326140
C186	C	1.479807	-0.076179	0.576140
C187	C	1.729807	0.173821	0.826140
C188	C	1.979807	0.423821	1.076140
C189	C	0.978027	-0.326166	0.502651
C190	C	1.228027	-0.076166	0.752651
C191	C	1.478027	0.173834	1.002651
C192	C	1.728027	0.423834	1.252651
C193	C	0.978025	-0.326169	0.577883
C194	C	1.228025	-0.076169	0.827883
C195	C	1.478025	0.173831	1.077883
C196	C	1.728025	0.423831	1.327883
C197	C	0.978128	-0.149617	0.326156
C198	C	1.228128	0.100383	0.576156
C199	C	1.478128	0.350383	0.826156
C200	C	1.728128	0.600383	1.076156
C201	C	0.978168	-0.074385	0.326176
C202	C	1.228168	0.175615	0.576176
C203	C	1.478168	0.425615	0.826176
C204	C	1.728168	0.675615	1.076176
C205	C	1.021337	-0.282877	1.039692
C206	C	1.271337	-0.032877	1.289692
C207	C	1.521337	0.217123	1.539692
C208	C	1.771337	0.467123	1.789692
C209	C	1.021339	-0.282880	0.969004
C210	C	1.271339	-0.032880	1.219004
C211	C	1.521339	0.217120	1.469004
C212	C	1.771339	0.467120	1.719004
C213	C	0.978030	-0.326163	0.933645
C214	C	1.228030	-0.076163	1.183645
C215	C	1.478030	0.173837	1.433645
C216	C	1.728030	0.423837	1.683645
C217	C	0.934721	-0.369451	0.968978
C218	C	1.184721	-0.119451	1.218978
C219	C	1.434721	0.130549	1.468978
C220	C	1.684721	0.380549	1.718978
C221	C	0.934723	-0.369451	1.039665
C222	C	1.184723	-0.119451	1.289665
C223	C	1.434723	0.130549	1.539665
C224	C	1.684723	0.380549	1.789665
C225	C	0.934714	-0.369454	0.683904
C226	C	1.184714	-0.119454	0.933904
C227	C	1.434714	0.130546	1.183904
C228	C	1.684714	0.380546	1.433904
C229	C	0.934714	-0.369449	0.613212
C230	C	1.184714	-0.119449	0.863212
C231	C	1.434714	0.130551	1.113212
C232	C	1.684714	0.380551	1.363212
C233	C	1.021330	-0.282883	0.613243
C234	C	1.271330	-0.032883	0.863243
C235	C	1.521330	0.217117	1.113243
C236	C	1.771330	0.467117	1.363243
C237	C	1.021332	-0.282882	0.683931
C238	C	1.271332	-0.032882	0.933931
C239	C	1.521332	0.217118	1.183931
C240	C	1.771332	0.467118	1.433931
C241	C	0.978026	-0.326173	0.719257
C242	C	1.228026	-0.076173	0.969257
C243	C	1.478026	0.173827	1.219257
C244	C	1.728026	0.423827	1.469257
C245	C	0.978025	-0.326170	0.795906
C246	C	1.228025	-0.076170	1.045906
C247	C	1.478025	0.173830	1.295906
C248	C	1.728025	0.423830	1.545906
C249	C	0.978027	-0.326163	0.856998
C250	C	1.228027	-0.076163	1.106998
C251	C	1.478027	0.173837	1.356998
C252	C	1.728027	0.423837	1.606998
C253	C	0.978032	-0.326167	1.150252
C254	C	1.228032	-0.076167	1.400252
C255	C	1.478032	0.173833	1.650252
C256	C	1.728032	0.423833	1.900252
C257	C	0.978030	-0.326160	1.075020
C258	C	1.228030	-0.076160	1.325020
C259	C	1.478030	0.173840	1.575020
C260	C	1.728030	0.423840	1.825020
H261	H	0.364599	-0.404836	0.404512
H262	H	0.614599	-0.154836	0.654512
H263	H	0.864599	0.095164	0.904512
H264	H	1.114599	0.345164	1.154512
H265	H	0.236354	-0.404841	0.404524
H266	H	0.486354	-0.154841	0.654524
H267	H	0.736354	0.095159	0.904524
H268	H	0.986354	0.345159	1.154524
H269	H	1.056759	-1.067788	0.247711
H270	H	1.306759	-0.817788	0.497711
H271	H	1.556759	-0.567788	0.747711
H272	H	1.806759	-0.317788	0.997711
H273	H	0.364625	-0.247511	0.247733
H274	H	0.614625	0.002489	0.497733
H275	H	0.864625	0.252489	0.747733
H276	H	1.114625	0.502489	0.997733
H277	H	0.899519	-0.939614	0.404617
H278	H	1.149519	-0.689614	0.654617
H279	H	1.399519	-0.439614	0.904617
H280	H	1.649519	-0.189614	1.154617
H281	H	0.899564	-1.067851	0.404639
H282	H	1.149564	-0.817851	0.654639
H283	H	1.399564	-0.567851	0.904639
H284	H	1.649564	-0.317851	1.154639
H285	H	1.056596	-0.247634	0.712716
H286	H	1.306596	0.002366	0.962716
H287	H	1.556596	0.252366	1.212716
H288	H	1.806596	0.502366	1.462716
H289	H	1.056600	-0.247626	1.068477
H290	H	1.306600	0.002374	1.318477
H291	H	1.556600	0.252374	1.568477
H292	H	1.806600	0.502374	1.818477
H293	H	0.592149	-0.247499	0.247724
H294	H	0.842149	0.002501	0.497724
H295	H	1.092149	0.252501	0.747724
H296	H	1.342149	0.502501	0.997724
H297	H	0.899450	-0.404702	0.712659
H298	H	1.149450	-0.154702	0.962659
H299	H	1.399450	0.095298	1.212659
H300	H	1.649450	0.345298	1.462659
H301	H	1.056606	-0.247637	0.940243
H302	H	1.306606	0.002363	1.190243
H303	H	1.556606	0.252363	1.440243
H304	H	1.806606	0.502363	1.690243
H305	H	1.056712	-0.939542	0.247688
H306	H	1.306712	-0.689542	0.497688
H307	H	1.556712	-0.439542	0.747688
H308	H	1.806712	-0.189542	0.997688
H309	H	0.899393	-0.583848	0.404555
H310	H	1.149393	-0.333848	0.654555
H311	H	1.399393	-0.083848	0.904555
H312	H	1.649393	0.166152	1.154555
H313	H	1.056594	-0.247636	0.584472
H314	H	1.306594	0.002364	0.834472
H315	H	1.556594	0.252364	1.084472
H316	H	1.806594	0.502364	1.334472
H317	H	0.899442	-0.404695	0.584425
H318	H	1.149442	-0.154695	0.834425
H319	H	1.399442	0.095305	1.084425
H320	H	1.649442	0.345305	1.334425
H321	H	1.056584	-0.583782	0.247621
H322	H	1.306584	-0.333782	0.497621
H323	H	1.556584	-0.083782	0.747621
H324	H	1.806584	0.166218	0.997621
H325	H	0.720394	-0.247487	0.247711
H326	H	0.970394	0.002513	0.497711
H327	H	1.220394	0.252513	0.747711
H328	H	1.470394	0.502513	0.997711
H329	H	0.899461	-0.404696	0.940183
H330	H	1.149461	-0.154696	1.190183
H331	H	1.399461	0.095304	1.440183
H332	H	1.649461	0.345304	1.690183
H333	H	0.899459	-0.404697	1.068428
H334	H	1.149459	-0.154697	1.318428
H335	H	1.399459	0.095303	1.568428
H336	H	1.649459	0.345303	1.818428
H337	H	1.056634	-0.712017	0.247649
H338	H	1.306634	-0.462017	0.497649
H339	H	1.556634	-0.212017	0.747649
H340	H	1.806634	0.037983	0.997649
H341	H	0.720359	-0.404820	0.404481
H342	H	0.970359	-0.154820	0.654481
H343	H	1.220359	0.095180	0.904481
H344	H	1.470359	0.345180	1.154481
H345	H	0.592126	-0.404822	0.404496
H346	H	0.842126	-0.154822	0.654496
H347	H	1.092126	0.095178	0.904496
H348	H	1.342126	0.345178	1.154496
H349	H	0.236391	-0.247517	0.247746
H350	H	0.486391	0.002483	0.497746
H351	H	0.736391	0.252483	0.747746
H352	H	0.986391	0.502483	0.997746
H353	H	0.899444	-0.712094	0.404575
H354	H	1.149444	-0.462094	0.654575
H355	H	1.399444	-0.212094	0.904575
H356	H	1.649444	0.037906	1.154575
