data_functionalizedCrystal
_audit_creation_method	'MofGen! by Chris Wilmer'
_symmetry_space_group_name_H-M	'P1'
_symmetry_Int_Tables_number	1
_symmetry_cell_setting	triclinic
loop_
_symmetry_equiv_pos_as_xyz
  x,y,z
_cell_length_a	10.489741
_cell_length_b	14.519731
_cell_length_c	12.996460
_cell_angle_alpha	89.994327
_cell_angle_beta	90.002579
_cell_angle_gamma	95.885987
loop_
_atom_site_label
_atom_site_type_symbol
_atom_site_fract_x
_atom_site_fract_y
_atom_site_fract_z
O1	O	-0.167333	1.224768	-0.085561
O2	O	-0.186995	0.956401	-0.085561
O3	O	0.008497	1.096691	-0.085563
O4	O	-0.362825	1.084478	-0.085559
O5	O	0.008508	1.096677	0.085570
O6	O	-0.186984	0.956386	0.085572
O7	O	-0.167322	1.224754	0.085573
Cu8	Cu	-0.177152	1.090569	0.101199
Cu9	Cu	-0.177165	1.090586	-0.101187
O10	O	-0.362814	1.084463	0.085575
C11	C	-0.186068	0.922029	0.000005
C12	C	-0.183308	0.819634	0.000005
C13	C	-0.181064	0.736478	0.000001
C14	C	-0.178261	0.632154	0.000000
C15	C	-0.176037	0.549003	0.000000
C16	C	-0.173234	0.444672	-0.000002
C17	C	-0.410342	1.085393	0.000009
C18	C	-0.551943	1.088153	0.000010
C19	C	-0.619162	1.177416	0.000003
C20	C	-0.711712	1.135241	0.084380
C21	C	-0.711701	1.135235	-0.084345
C22	C	-0.642628	1.045942	0.084457
C23	C	-0.642607	1.045948	-0.084343
C24	C	-0.735131	1.003709	0.000054
C25	C	0.056024	1.095762	0.000001
C26	C	0.197625	1.093002	-0.000008
C27	C	-0.168249	1.259125	0.000004
C28	C	-0.171010	1.361521	-0.000002
N29	N	-0.177142	1.090563	0.243546
N30	N	-0.177165	1.090599	-0.243534
C31	C	-0.177166	1.090585	0.663360
C32	C	-0.177164	1.090576	0.546555
C33	C	-0.177155	1.090574	0.453457
C34	C	-0.177151	1.090565	0.336644
H35	H	-0.742328	1.173004	0.155715
C36	C	-0.601780	0.995681	0.179644
C37	C	-0.468614	0.993732	0.178575
C38	C	-0.430935	0.947451	0.266249
H39	H	-0.642404	0.934127	0.179971
H40	H	-0.625910	1.027179	0.239520
H41	H	-0.444497	0.962233	0.118715
H42	H	-0.427958	1.055273	0.178263
H43	H	-0.455065	0.978949	0.326124
H44	H	-0.471567	0.885900	0.266568
H45	H	-0.340578	0.946130	0.265540
H46	H	-0.785313	0.930252	0.000100
C47	C	-0.752749	1.185629	-0.179373
C48	C	-0.886038	1.186844	-0.178581
C49	C	-0.923891	1.233276	-0.266090
H50	H	-0.728061	1.154582	-0.239369
H51	H	-0.712712	1.247362	-0.179266
H52	H	-0.926062	1.125122	-0.178698
H53	H	-0.910760	1.217897	-0.118605
H54	H	-0.883853	1.295009	-0.265983
H55	H	-0.899194	1.202225	-0.326079
H56	H	-1.014329	1.234114	-0.265559
C57	C	-0.601974	0.995650	-0.179553
C58	C	-0.710085	0.967650	-0.239330
C59	C	-0.672698	0.921332	-0.327059
H60	H	-0.561593	0.942842	-0.159432
H61	H	-0.543669	1.036043	-0.218648
H62	H	-0.768369	0.927259	-0.200242
H63	H	-0.750479	1.020441	-0.259477
H64	H	-0.614392	0.961725	-0.366154
H65	H	-0.632316	0.868528	-0.306929
H66	H	-0.746042	0.902336	-0.367634
C67	C	-0.552004	1.275290	0.000323
C68	C	-0.586808	1.321590	0.088878
C69	C	-0.524953	1.411746	0.089220
H70	H	-0.576592	1.307440	-0.058942
H71	H	-0.461838	1.272887	-0.000233
H72	H	-0.676954	1.323997	0.089424
H73	H	-0.562218	1.289469	0.148158
H74	H	-0.434787	1.409343	0.088665
H75	H	-0.549545	1.443886	0.029951
H76	H	-0.548549	1.443169	0.149308
