data_functionalizedCrystal
_audit_creation_method	'MofGen! by Chris Wilmer'
_symmetry_space_group_name_H-M	'P1'
_symmetry_Int_Tables_number	1
_symmetry_cell_setting	triclinic
loop_
_symmetry_equiv_pos_as_xyz
  x,y,z
_cell_length_a	15.297475
_cell_length_b	16.959454
_cell_length_c	15.296720
_cell_angle_alpha	99.648278
_cell_angle_beta	91.617114
_cell_angle_gamma	80.323279
loop_
_atom_site_label
_atom_site_type_symbol
_atom_site_fract_x
_atom_site_fract_y
_atom_site_fract_z
Zn1	Zn	1.253421	-0.615181	-0.726635
Zn2	Zn	1.278688	-0.729000	-0.580157
Zn3	Zn	1.132298	-0.570776	-0.554873
Zn4	Zn	1.106914	-0.721230	-0.701285
O5	O	1.192830	-0.659047	-0.640738
O6	O	1.379352	-0.652115	-0.728395
O7	O	1.280466	-0.692679	-0.454228
O8	O	1.148414	-0.466067	-0.577685
O9	O	1.397915	-0.735737	-0.620778
O10	O	1.237403	-0.498691	-0.703878
O11	O	1.172914	-0.576432	-0.435651
O12	O	1.006352	-0.568898	-0.553104
O13	O	1.105151	-0.722495	-0.827223
O14	O	0.987702	-0.679437	-0.660673
O15	O	1.212790	-0.644581	-0.845848
O16	O	1.255853	-0.838569	-0.596198
O17	O	1.129651	-0.832860	-0.685190
C18	C	0.965244	-0.618506	-0.601395
C19	C	0.867878	-0.601185	-0.584584
C20	C	0.554738	-0.782854	-0.760885
C21	C	0.646218	-0.799134	-0.776677
C22	C	0.701637	-0.749648	-0.728655
C23	C	0.665567	-0.683879	-0.664839
C24	C	0.574078	-0.667601	-0.649041
C25	C	0.720978	-0.634395	-0.616811
C26	C	0.684908	-0.568627	-0.552995
C27	C	0.593428	-0.552351	-0.537200
C28	C	0.538009	-0.601837	-0.585221
C29	C	0.812467	-0.650673	-0.632609
C30	C	0.831808	-0.535421	-0.520765
C31	C	0.740327	-0.519141	-0.504973
C32	C	1.192759	-0.864398	-0.640710
C33	C	1.192804	-0.952266	-0.640741
C34	C	1.127199	-1.320817	-0.687084
C35	C	1.258690	-1.326729	-0.594523
C36	C	1.258660	-1.244176	-0.594509
C37	C	1.192899	-1.199940	-0.640783
C38	C	1.127167	-1.238256	-0.687070
C39	C	1.324386	-1.205852	-0.548216
C40	C	1.324359	-1.123295	-0.548200
C41	C	1.258601	-1.079058	-0.594479
C42	C	1.192866	-1.117379	-0.640769
C43	C	1.127105	-1.073143	-0.687042
C44	C	1.061373	-1.111464	-0.733338
C45	C	1.061408	-1.194019	-0.733349
C46	C	1.258566	-0.996503	-0.594468
C47	C	1.127072	-0.990582	-0.687028
C48	C	1.421305	-0.699746	-0.680234
C49	C	1.518668	-0.717090	-0.697066
C50	C	1.153320	-0.687624	-0.869207
C51	C	1.136484	-0.699803	-0.966567
C52	C	1.192922	-0.452900	-0.640788
C53	C	1.192961	-0.365053	-0.640810
C54	C	1.313198	-0.571876	-1.279796
C55	C	1.329022	-0.560436	-1.188322
C56	C	1.280889	-0.595276	-1.132879
C57	C	1.216928	-0.641559	-1.168918
C58	C	1.201107	-0.653005	-1.260401
C59	C	1.168798	-0.676406	-1.113484
C60	C	1.104838	-0.722688	-1.149523
C61	C	1.089019	-0.734131	-1.240998
C62	C	1.137153	-0.699291	-1.296441
C63	C	1.184620	-0.664960	-1.022001
C64	C	1.072529	-0.746089	-1.002606
C65	C	1.056705	-0.757528	-1.094080
C66	C	1.232237	-0.630532	-0.413166
C67	C	1.249243	-0.618162	-0.315836
H68	H	0.675580	-0.852684	-0.828634
C69	C	0.955041	-0.527835	-0.420728
C70	C	0.892718	-0.481020	-0.467976
H71	H	0.992650	-0.494254	-0.388145
H72	H	0.925143	-0.551666	-0.380993
H73	H	0.989608	-0.569327	-0.461008
H74	H	0.858146	-0.439531	-0.427695
H75	H	0.922619	-0.457176	-0.507715
H76	H	1.073523	-0.954571	-0.724714
H77	H	1.007826	-1.075436	-0.771009
H78	H	1.033337	-0.774460	-0.957464
C79	C	0.953408	-0.737010	-1.323525
C80	C	1.018731	-0.785019	-1.280626
H81	H	0.910023	-0.768432	-1.347995
H82	H	0.926078	-0.692154	-1.282058
H83	H	0.979824	-0.717896	-1.369625
H84	H	0.992317	-0.804129	-1.234521
H85	H	1.046064	-0.829891	-1.322097
C86	C	1.003066	-1.317941	-0.774452
C87	C	0.989153	-1.236140	-0.784222
H88	H	0.958453	-1.343943	-0.805853
H89	H	1.059681	-1.343514	-0.797499
H90	H	1.000483	-1.321840	-0.713378
H91	H	0.991742	-1.232241	-0.845296
H92	H	0.932524	-1.210560	-0.761180
H93	H	0.841826	-0.704223	-0.684570
C94	C	1.317073	-1.455888	-0.553382
C95	C	1.330940	-1.375339	-0.543616
H96	H	1.361675	-1.485897	-0.521943
H97	H	1.260447	-1.457348	-0.530375
H98	H	1.319707	-1.479050	-0.614452
H99	H	1.328300	-1.352176	-0.482546
H100	H	1.387581	-1.373876	-0.566619
C101	C	1.307625	-0.480614	-1.384814
C102	C	1.366103	-0.533586	-1.340739
H103	H	1.340293	-0.456973	-1.422434
H104	H	1.267281	-0.509821	-1.419362
H105	H	1.275654	-0.439116	-1.342532
H106	H	1.398070	-0.575089	-1.383021
H107	H	1.406463	-0.504379	-1.306189
H108	H	1.073684	-1.352022	-0.724779
H109	H	0.710946	-0.465591	-0.453013
H110	H	1.377920	-1.241873	-0.510535
H111	H	1.377882	-1.092099	-0.510505
H112	H	1.293777	-0.585960	-1.058398
C113	C	1.388531	-1.010640	-0.502964
C114	C	1.330808	-0.954379	-0.543582
H115	H	1.433135	-0.984634	-0.471553
H116	H	1.356201	-1.031883	-0.462845
H117	H	1.415417	-1.053551	-0.546953
H118	H	1.303918	-0.911471	-0.499592
H119	H	1.363143	-0.933124	-0.583704
C120	C	1.232211	-0.535210	-1.001262
C121	C	1.254914	-0.614080	-0.982393
H122	H	1.275608	-0.503795	-0.976806
H123	H	1.229679	-0.537049	-1.063671
H124	H	1.175954	-0.511292	-0.976092
H125	H	1.311169	-0.638000	-1.007569
H126	H	1.257456	-0.612243	-0.919972
C127	C	0.822151	-0.835711	-0.812175
C128	C	0.802194	-0.767537	-0.746019
H129	H	0.884232	-0.846750	-0.822901
H130	H	0.804083	-0.881097	-0.793347
H131	H	0.791682	-0.825512	-0.865151
H132	H	0.832658	-0.777738	-0.693041
H133	H	0.820272	-0.722140	-0.764844
H134	H	1.381101	-0.522755	-1.158987
C135	C	1.136780	-0.794841	-1.431328
C136	C	1.119760	-0.711867	-1.396994
H137	H	1.126038	-0.802602	-1.493405
H138	H	1.196874	-0.815981	-1.420406
H139	H	1.098957	-0.822212	-1.403467
H140	H	1.157587	-0.684497	-1.424851
H141	H	1.059655	-0.690718	-1.407925
C142	C	1.026698	-0.874542	-1.194824
C143	C	0.986407	-0.808409	-1.133700
H144	H	0.983299	-0.905955	-1.219278
H145	H	1.053093	-0.855425	-1.240924
H146	H	1.071017	-0.907105	-1.165716
H147	H	0.942091	-0.775843	-1.162809
H148	H	0.959998	-0.827526	-1.087592
H149	H	0.509609	-0.823142	-0.799972
H150	H	0.463516	-0.588584	-0.572369
H151	H	0.564064	-0.498805	-0.485228
