data_functionalizedCrystal
_audit_creation_method	'MofGen! by Chris Wilmer'
_symmetry_space_group_name_H-M	'P1'
_symmetry_Int_Tables_number	1
_symmetry_cell_setting	triclinic
loop_
_symmetry_equiv_pos_as_xyz
  x,y,z
_cell_length_a	16.109301
_cell_length_b	10.654541
_cell_length_c	15.186229
_cell_angle_alpha	89.996481
_cell_angle_beta	89.999362
_cell_angle_gamma	83.972705
loop_
_atom_site_label
_atom_site_type_symbol
_atom_site_fract_x
_atom_site_fract_y
_atom_site_fract_z
O1	O	1.104089	0.161419	-0.073172
O2	O	0.862147	0.181508	-0.073186
O3	O	0.988682	-0.011352	-0.073174
O4	O	0.977554	0.354278	-0.073185
O5	O	0.988673	-0.011354	0.073284
O6	O	0.862138	0.181505	0.073271
O7	O	1.104081	0.161416	0.073285
Zn8	Zn	0.983108	0.171460	0.096531
Zn9	Zn	0.983119	0.171464	-0.096433
O10	O	0.977546	0.354276	0.073272
C11	C	0.831163	0.180692	0.000040
C12	C	0.738853	0.178253	0.000035
C13	C	0.987861	-0.058140	0.000054
C14	C	0.985418	-0.197550	0.000053
C15	C	0.517227	0.287019	0.000042
C16	C	0.430493	0.284717	0.000048
C17	C	0.449008	0.055896	0.000051
C18	C	0.535740	0.058200	0.000052
C19	C	0.569847	0.173765	0.000043
C20	C	0.396381	0.169159	0.000048
C21	C	0.302340	0.166662	0.000054
C22	C	0.663894	0.176262	0.000038
C23	C	1.136725	-0.227574	0.000073
C24	C	1.211227	-0.308079	0.000084
C25	C	1.208926	-0.439066	0.000081
C26	C	1.132115	-0.489549	0.000064
C27	C	1.057613	-0.409044	0.000053
C28	C	1.059922	-0.278056	0.000058
C29	C	0.906308	-0.379021	0.000026
C30	C	0.908607	-0.248034	0.000036
C31	C	0.829496	-0.429504	0.000009
C32	C	0.754992	-0.348998	0.000004
C33	C	0.757296	-0.218004	0.000008
C34	C	0.834104	-0.167529	0.000024
C35	C	1.135065	0.162231	0.000056
C36	C	1.227375	0.164671	0.000055
C37	C	0.978367	0.401064	0.000042
C38	C	0.980810	0.540474	0.000038
N39	N	0.983107	0.171457	0.228224
N40	N	0.983128	0.171457	-0.228125
C41	C	1.039156	0.086088	0.453952
C42	C	1.039158	0.086085	0.546142
C43	C	0.927072	0.256830	0.546140
C44	C	0.927066	0.256826	0.453952
C45	C	0.983113	0.171456	0.407860
C46	C	0.983121	0.171458	0.592238
C47	C	0.983124	0.171455	0.692194
C48	C	0.983110	0.171457	0.307898
H49	H	0.387652	0.376940	0.000049
O50	O	0.836587	-0.026250	0.000025
H51	H	0.902512	-0.004676	0.000032
O52	O	1.099593	-0.005998	0.404235
H53	H	1.138556	-0.065370	0.451777
H54	H	0.544993	0.381120	0.000041
H55	H	0.578586	-0.034032	0.000055
O56	O	0.827014	-0.570783	0.000016
H57	H	0.859082	-0.611806	-0.059665
H58	H	0.881426	0.326344	0.416421
H59	H	1.084792	0.016568	0.583667
O60	O	0.866636	0.348925	0.595851
H61	H	0.825930	0.296057	0.637870
O62	O	0.412222	-0.068747	0.000055
H63	H	0.343071	-0.051324	0.000046
O64	O	1.139203	-0.086295	0.000082
H65	H	1.205128	-0.064715	0.000091
H66	H	1.269593	-0.504614	0.000084
O67	O	1.294073	-0.253634	0.000104
H68	H	1.283161	-0.149026	0.000113
H69	H	1.130248	-0.596207	0.000051
O70	O	0.672152	-0.403443	-0.000007
H71	H	0.683069	-0.508050	-0.000005
O72	O	0.676940	-0.131173	0.000002
H73	H	0.623148	-0.188289	-0.000002
