data_functionalizedCrystal
_audit_creation_method	'MofGen! by Chris Wilmer'
_symmetry_space_group_name_H-M	'P1'
_symmetry_Int_Tables_number	1
_symmetry_cell_setting	triclinic
loop_
_symmetry_equiv_pos_as_xyz
  x,y,z
_cell_length_a	16.120484
_cell_length_b	19.805407
_cell_length_c	19.805407
_cell_angle_alpha	89.994842
_cell_angle_beta	87.113740
_cell_angle_gamma	87.078256
loop_
_atom_site_label
_atom_site_type_symbol
_atom_site_fract_x
_atom_site_fract_y
_atom_site_fract_z
Zn1	Zn	-0.332148	-1.020969	0.396379
Zn2	Zn	0.167852	-0.520969	0.896379
Zn3	Zn	-0.471529	-1.015174	0.288926
Zn4	Zn	0.028471	-0.515174	0.788926
Zn5	Zn	-0.332123	-0.907812	0.283204
Zn6	Zn	0.167877	-0.407812	0.783204
Zn7	Zn	-0.471514	-0.902010	0.402073
Zn8	Zn	0.028486	-0.402010	0.902073
O9	O	-0.401828	-0.961491	0.342645
O10	O	0.098172	-0.461491	0.842645
O11	O	-0.350654	-1.114916	0.382137
O12	O	0.149346	-0.614916	0.882137
O13	O	-0.453032	-1.000935	0.193450
O14	O	0.046968	-0.500935	0.693450
O15	O	-0.215459	-0.927676	0.293439
O16	O	0.284541	-0.427676	0.793439
O17	O	-0.453057	-1.110659	0.303192
O18	O	0.046943	-0.610659	0.803192
O19	O	-0.215477	-1.010812	0.376589
O20	O	0.284523	-0.510812	0.876589
O21	O	-0.350611	-0.922057	0.189246
O22	O	0.149389	-0.422057	0.689246
O23	O	-0.350597	-0.812327	0.298960
O24	O	0.149403	-0.312327	0.798960
O25	O	-0.453031	-0.917787	0.496034
O26	O	0.046969	-0.417787	0.996034
O27	O	-0.453007	-0.808064	0.386292
O28	O	0.046993	-0.308064	0.886292
O29	O	-0.350639	-1.005186	0.491851
O30	O	0.149361	-0.505186	0.991851
O31	O	-0.588194	-0.995309	0.308713
O32	O	-0.088194	-0.495309	0.808713
O33	O	-0.588183	-0.912168	0.391841
O34	O	-0.088183	-0.412168	0.891841
C35	C	-0.401798	-0.785637	0.342623
C36	C	0.098202	-0.285637	0.842623
C37	C	-0.401805	-0.710404	0.342631
C38	C	0.098195	-0.210404	0.842631
C39	C	-0.348577	-0.677274	0.383807
C40	C	0.151423	-0.177274	0.883807
C41	C	-0.348580	-0.606585	0.383808
C42	C	0.151420	-0.106585	0.883808
C43	C	-0.401815	-0.569028	0.342636
C44	C	0.098185	-0.069028	0.842636
C45	C	-0.455045	-0.602164	0.301456
C46	C	0.044955	-0.102164	0.801456
C47	C	-0.455038	-0.672851	0.301451
C48	C	0.044962	-0.172851	0.801451
C49	C	-0.455075	-0.317089	0.301471
C50	C	0.044925	0.182911	0.801471
C51	C	-0.455080	-0.246397	0.301479
C52	C	0.044920	0.253603	0.801479
C53	C	-0.348618	-0.250823	0.383827
C54	C	0.151382	0.249177	0.883827
C55	C	-0.348610	-0.321511	0.383823
C56	C	0.151390	0.178489	0.883823
C57	C	-0.401837	-0.354640	0.342640
C58	C	0.098163	0.145360	0.842640
C59	C	-0.401832	-0.431289	0.342638
C60	C	0.098168	0.068711	0.842638
C61	C	-0.401824	-0.492381	0.342641
C62	C	0.098176	0.007619	0.842641
C63	C	-0.618439	-0.952498	0.351531
C64	C	-0.118439	-0.452498	0.851531
C65	C	-0.711107	-0.948713	0.355354
C66	C	-0.211107	-0.448713	0.855354
C67	C	-0.880770	-0.941806	0.362349
C68	C	-0.380770	-0.441806	0.862349
C69	C	-0.922046	-0.981298	0.322952
C70	C	-0.422046	-0.481298	0.822952
C71	C	-1.016453	-0.977455	0.326845
C72	C	-0.516453	-0.477455	0.826845
C73	C	-0.786355	-0.945648	0.358458
C74	C	-0.286355	-0.445648	0.858458
C75	C	-0.184372	-0.970538	0.333740
C76	C	0.315628	-0.470538	0.833740
C77	C	-0.091705	-0.974393	0.329945
C78	C	0.408295	-0.474393	0.829945
C79	C	-0.401837	-0.961486	0.519188
C80	C	0.098163	-0.461486	1.019188
C81	C	-0.401840	-0.961483	0.594420
C82	C	0.098160	-0.461483	1.094420
C83	C	-0.401853	-0.138033	0.342661
C84	C	0.098147	0.361967	0.842661
C85	C	-0.401848	-0.213265	0.342652
C86	C	0.098152	0.286735	0.842652
C87	C	-0.348519	-1.006990	1.054034
C88	C	0.151481	-0.506990	1.554034
C89	C	-0.348523	-1.006992	0.983346
C90	C	0.151477	-0.506992	1.483346
C91	C	-0.401833	-0.961489	0.950182
C92	C	0.098167	-0.461489	1.450182
C93	C	-0.455150	-0.915985	0.987710
C94	C	0.044850	-0.415985	1.487710
C95	C	-0.455149	-0.915987	1.058397
C96	C	0.044851	-0.415987	1.558397
C97	C	-0.455152	-0.915978	0.702637
C98	C	0.044848	-0.415978	1.202637
C99	C	-0.455147	-0.915978	0.631945
C100	C	0.044853	-0.415978	1.131945
C101	C	-0.348526	-1.006983	0.627586
C102	C	0.151474	-0.506983	1.127586
C103	C	-0.348525	-1.006985	0.698273
C104	C	0.151475	-0.506985	1.198273
C105	C	-0.401844	-0.961484	0.735795
C106	C	0.098156	-0.461484	1.235795
C107	C	-0.401841	-0.961483	0.812443
C108	C	0.098159	-0.461483	1.312443
C109	C	-0.401833	-0.961486	0.873535
C110	C	0.098167	-0.461486	1.373535
C111	C	-0.401837	-0.961490	1.166790
C112	C	0.098163	-0.461490	1.666790
C113	C	-0.401829	-0.961489	1.091557
C114	C	0.098171	-0.461489	1.591557
H115	H	-0.305238	-0.579614	0.417338
H116	H	0.194762	-0.079614	0.917338
C117	C	-0.513636	-0.205085	0.256184
C118	C	-0.013636	0.294915	0.756184
H119	H	-0.545329	-0.234939	0.231651
H120	H	-0.045329	0.265061	0.731651
H121	H	-0.550017	-0.176007	0.283518
H122	H	-0.050017	0.323993	0.783518
H123	H	-0.481677	-0.178830	0.225428
H124	H	0.018323	0.321170	0.725428
C125	C	-0.513789	-0.865931	0.951232
C126	C	-0.013789	-0.365931	1.451232
H127	H	-0.506148	-0.872441	0.903758
H128	H	-0.006148	-0.372441	1.403758
H129	H	-0.569808	-0.873505	0.965111
H130	H	-0.069808	-0.373505	1.465111
H131	H	-0.501572	-0.820961	0.962315
H132	H	-0.001572	-0.320961	1.462315
H133	H	-0.498386	-0.571579	0.267930
H134	H	0.001614	-0.071579	0.767930
C135	C	-0.513625	-0.353523	0.256174
C136	C	-0.013625	0.146477	0.756174
H137	H	-0.545335	-0.321029	0.231661
H138	H	-0.045335	0.178971	0.731661
H139	H	-0.481672	-0.382415	0.225412
H140	H	0.018328	0.117585	0.725412
H141	H	-0.550003	-0.379596	0.283509
H142	H	-0.050003	0.120404	0.783509
C143	C	-0.513595	-0.709294	0.256164
C144	C	-0.013595	-0.209294	0.756164
H145	H	-0.545308	-0.676804	0.231650
H146	H	-0.045308	-0.176804	0.731650
H147	H	-0.481646	-0.738190	0.225403
H148	H	0.018354	-0.238190	0.725403
H149	H	-0.549970	-0.735364	0.283505
H150	H	-0.049970	-0.235364	0.783505
H151	H	-0.886481	-1.017994	0.286300
H152	H	-0.386481	-0.517994	0.786300
H153	H	-0.305102	-1.044040	1.081031
H154	H	0.194898	-0.544040	1.581031
H155	H	-0.916333	-0.905112	0.398998
H156	H	-0.416333	-0.405112	0.898998
H157	H	-0.498561	-0.878935	1.088948
H158	H	0.001439	-0.378935	1.588948
C159	C	-0.290061	-0.214380	0.429121
C160	C	0.209939	0.285620	0.929121
H161	H	-0.297680	-0.166902	0.423223
H162	H	0.202320	0.333098	0.923223
H163	H	-0.302351	-0.225461	0.475085
H164	H	0.197649	0.274539	0.975085
H165	H	-0.234021	-0.228287	0.416987
H166	H	0.265979	0.271713	0.916987
H167	H	-0.305114	-1.044046	0.952798
H168	H	0.194886	-0.544046	1.452798
H169	H	-0.305111	-1.044036	0.725271
H170	H	0.194889	-0.544036	1.225271
H171	H	-0.305113	-1.044034	0.597026
H172	H	0.194887	-0.544034	1.097026
H173	H	-0.305264	-0.352086	0.417351
H174	H	0.194736	0.147914	0.917351
C175	C	-0.513794	-0.865926	0.595462
C176	C	-0.013794	-0.365926	1.095462
H177	H	-0.506148	-0.872439	0.547990
H178	H	-0.006148	-0.372439	1.047990
H179	H	-0.569812	-0.873504	0.609339
H180	H	-0.069812	-0.373504	1.109339
H181	H	-0.501585	-0.820954	0.606543
H182	H	-0.001585	-0.320954	1.106543
C183	C	-0.290018	-0.718581	0.429096
C184	C	0.209982	-0.218581	0.929096
H185	H	-0.258313	-0.688723	0.453614
H186	H	0.241687	-0.188723	0.953614
H187	H	-0.321962	-0.744838	0.459854
H188	H	0.178038	-0.244838	0.959854
H189	H	-0.253635	-0.747657	0.401754
H190	H	0.246365	-0.247657	0.901754
C191	C	-0.513791	-0.865921	0.743902
C192	C	-0.013791	-0.365921	1.243902
H193	H	-0.545531	-0.838817	0.714025
H194	H	-0.045531	-0.338817	1.214025
H195	H	-0.550126	-0.890297	0.772969
H196	H	-0.050126	-0.390297	1.272969
H197	H	-0.481887	-0.837756	0.770166
H198	H	0.018113	-0.337756	1.270166
