data_functionalizedCrystal
_audit_creation_method	'MofGen! by Chris Wilmer'
_symmetry_space_group_name_H-M	'P1'
_symmetry_Int_Tables_number	1
_symmetry_cell_setting	triclinic
loop_
_symmetry_equiv_pos_as_xyz
  x,y,z
_cell_length_a	15.537862
_cell_length_b	17.699083
_cell_length_c	16.176319
_cell_angle_alpha	90.005533
_cell_angle_beta	90.000790
_cell_angle_gamma	65.273724
loop_
_atom_site_label
_atom_site_type_symbol
_atom_site_fract_x
_atom_site_fract_y
_atom_site_fract_z
O1	O	-1.250541	0.246067	0.068696
O2	O	-0.976067	0.158602	0.068709
O3	O	-1.121059	0.314643	0.068695
O4	O	-1.105550	0.090026	0.068710
O5	O	-1.121045	0.314618	-0.068798
O6	O	-0.976053	0.158578	-0.068784
O7	O	-1.250527	0.246042	-0.068797
Cu8	Cu	-1.113289	0.202308	-0.081345
Cu9	Cu	-1.113305	0.202337	0.081257
O10	O	-1.105536	0.090001	-0.068783
C11	C	-0.940942	0.149439	-0.000036
C12	C	-0.836301	0.122179	-0.000031
C13	C	-1.120496	0.342676	-0.000052
C14	C	-1.118829	0.426238	-0.000052
C15	C	-1.285652	0.255206	-0.000050
C16	C	-1.390294	0.282465	-0.000050
C17	C	-0.677419	0.011686	-0.000020
C18	C	-0.775747	0.037308	-0.000024
C19	C	-0.798543	0.181461	-0.000038
C20	C	-0.700215	0.155851	-0.000038
C21	C	-0.639660	0.070962	-0.000028
C22	C	-0.662456	0.215127	-0.000045
C23	C	-0.564137	0.189518	-0.000041
C24	C	-0.503576	0.104633	-0.000029
C25	C	-0.541341	0.045353	-0.000023
C26	C	-0.723012	0.300015	-0.000049
C27	C	-0.685253	0.359292	-0.000057
C28	C	-0.586932	0.333683	-0.000059
C29	C	-0.526372	0.248798	-0.000046
C30	C	-0.549168	0.392963	-0.000064
C31	C	-0.450848	0.367354	-0.000060
C32	C	-0.428052	0.223189	-0.000042
C33	C	-1.106098	0.061969	-0.000034
C34	C	-1.107765	-0.021594	-0.000029
N35	N	-1.113284	0.202289	-0.195710
C36	C	-1.203936	0.498118	-0.000057
C37	C	-1.202363	0.576632	-0.000050
C38	C	-1.115684	0.583264	-0.000043
C39	C	-1.030570	0.511376	-0.000035
C40	C	-1.032143	0.432864	-0.000037
C41	C	-1.024224	0.828004	-0.000028
C42	C	-1.022658	0.906524	-0.000029
C43	C	-1.194444	0.971773	-0.000041
C44	C	-1.196017	0.893261	-0.000043
C45	C	-1.110905	0.821380	-0.000031
C46	C	-1.112610	0.736247	-0.000037
C47	C	-1.113977	0.668395	-0.000042
C48	C	-1.056253	0.232609	-0.761100
C49	C	-1.056251	0.232603	-0.674553
C50	C	-1.113309	0.202345	-0.631285
C51	C	-1.170380	0.172099	-0.674569
C52	C	-1.170386	0.172111	-0.761114
C53	C	-1.170357	0.172050	-0.325541
C54	C	-1.170344	0.172038	-0.238989
C55	C	-1.056222	0.232541	-0.238979
C56	C	-1.056228	0.232554	-0.325525
C57	C	-1.113302	0.202312	-0.368801
C58	C	-1.113305	0.202321	-0.462645
C59	C	-1.113302	0.202330	-0.537443
N60	N	-1.113318	0.202363	0.195622
H61	H	-0.378745	0.154064	-0.000045
H62	H	-0.492033	-0.023772	-0.000026
H63	H	-1.009785	0.257243	-0.796323
H64	H	-1.271666	0.635157	-0.000056
O65	O	-0.929159	0.913672	-0.000017
H66	H	-0.924322	0.947864	-0.056062
O67	O	-1.289507	0.886106	-0.000051
H68	H	-1.294328	0.851895	0.055986
H69	H	-1.274520	0.492728	-0.000068
O70	O	-1.286251	1.049302	-0.000047
H71	H	-1.270601	1.105013	-0.000037
H72	H	-0.628111	-0.057439	-0.000023
O73	O	-1.231895	0.139405	-0.192323
H74	H	-1.186605	0.086292	-0.152914
O75	O	-0.410118	0.431287	-0.000079
H76	H	-0.365880	0.423087	0.055965
O77	O	-0.750575	0.450846	-0.000075
H78	H	-0.737184	0.480513	0.055962
H79	H	-1.009787	0.257235	-0.639320
O80	O	-0.397529	0.077006	-0.000033
H81	H	-0.376524	0.101385	0.055999
H82	H	-0.598485	0.462080	-0.000064
O83	O	-1.231940	0.139489	-0.807789
H84	H	-1.282694	0.189707	-0.847196
H85	H	-0.847859	0.250578	-0.000043
H86	H	-1.216829	0.147425	-0.360766
O87	O	-0.994691	0.265176	-0.192279
H88	H	-0.919307	0.228035	-0.208874
O89	O	-1.231918	0.139455	-0.627908
H90	H	-1.222318	0.144516	-0.560456
O91	O	-0.816477	-0.026629	-0.000023
H92	H	-0.757848	-0.089957	-0.000022
H93	H	-0.803070	0.320863	-0.000037
O94	O	-0.932429	0.750481	-0.000036
H95	H	-0.871894	0.768286	-0.000046
H96	H	-0.962840	0.374337	-0.000032
H97	H	-0.959994	0.516781	-0.000025
H98	H	-1.009762	0.257189	-0.360749
