data_functionalizedCrystal
_audit_creation_method	'MofGen! by Chris Wilmer'
_symmetry_space_group_name_H-M	'P1'
_symmetry_Int_Tables_number	1
_symmetry_cell_setting	triclinic
loop_
_symmetry_equiv_pos_as_xyz
  x,y,z
_cell_length_a	19.188929
_cell_length_b	14.044220
_cell_length_c	12.503572
_cell_angle_alpha	86.164750
_cell_angle_beta	86.510385
_cell_angle_gamma	91.833168
loop_
_atom_site_label
_atom_site_type_symbol
_atom_site_fract_x
_atom_site_fract_y
_atom_site_fract_z
O1	O	-0.164586	1.262489	-0.089303
O2	O	-0.158512	0.986547	-0.089326
O3	O	-0.060410	1.132477	-0.089247
O4	O	-0.262688	1.116559	-0.089381
O5	O	-0.067801	1.121502	0.089389
O6	O	-0.165904	0.975572	0.089310
O7	O	-0.171977	1.251514	0.089333
Cu8	Cu	-0.169615	1.112541	0.105632
Cu9	Cu	-0.160874	1.125520	-0.105625
O10	O	-0.270079	1.105584	0.089255
C11	C	-0.159550	0.945756	-0.000010
C12	C	-0.151621	0.840563	-0.000016
C13	C	-0.137126	0.647960	0.000015
C14	C	-0.193360	0.590096	-0.000017
C15	C	-0.185295	0.482925	-0.000000
C16	C	-0.145190	0.755141	-0.000002
C17	C	-0.292427	1.111588	-0.000081
C18	C	-0.370030	1.113140	-0.000132
C19	C	-0.409429	1.027509	-0.000117
C20	C	-0.482347	1.028962	-0.000093
C21	C	-0.515865	1.116049	-0.000061
C22	C	-0.476457	1.201692	-0.000082
C23	C	-0.403539	1.200237	-0.000117
N24	N	-0.630648	1.178878	0.060806
N25	N	-0.699917	1.180254	0.060842
C26	C	-0.735562	1.120438	0.000042
N27	N	-0.699322	1.059178	-0.060780
N28	N	-0.630047	1.057799	-0.060811
C29	C	-0.594932	1.117636	-0.000024
C30	C	-0.854027	1.036377	0.000082
C31	C	-0.926947	1.037834	0.000100
C32	C	-0.921055	1.210565	0.000121
C33	C	-0.848137	1.209107	0.000093
C34	C	-0.814627	1.122009	0.000078
C35	C	-0.038062	1.126473	0.000085
C36	C	0.039540	1.124922	0.000129
C37	C	-0.170940	1.292305	0.000015
C38	C	-0.178869	1.397498	0.000013
N39	N	-0.175763	1.103419	0.254220
N40	N	-0.154721	1.134649	-0.254213
C41	C	-0.184813	1.090000	0.473328
C42	C	-0.145674	1.148065	0.526686
C43	C	-0.150709	1.140599	0.648606
C44	C	-0.179778	1.097466	0.351398
H45	H	-0.247559	0.621045	-0.000059
H46	H	-0.371461	1.269970	-0.000129
H47	H	-0.082931	0.617013	0.000057
H48	H	-0.222101	1.034687	0.519205
O49	O	-0.101020	1.213849	0.471951
C50	C	-0.052192	1.166931	0.407107
H51	H	-0.074866	1.093813	0.390272
H52	H	-0.002064	1.157764	0.450591
C53	C	-0.008094	1.316636	0.320954
C54	C	-0.035945	1.226835	0.300269
H55	H	0.001931	1.353589	0.255053
H56	H	-0.040988	1.348247	0.364643
H57	H	0.033677	1.308984	0.357193
H58	H	-0.077719	1.234488	0.264043
H59	H	-0.003057	1.195227	0.256571
O60	O	-0.821579	0.951696	0.000003
C61	C	-0.871995	0.876424	0.000034
H62	H	-0.921726	0.904859	-0.033757
H63	H	-0.884161	0.844751	0.085732
C64	C	-0.782371	0.763647	-0.028550
C65	C	-0.843450	0.798571	-0.070061
H66	H	-0.764763	0.715622	-0.071783
H67	H	-0.748404	0.814359	-0.028566
H68	H	-0.792518	0.737260	0.042865
H69	H	-0.833300	0.824968	-0.141468
H70	H	-0.877414	0.747862	-0.070057
O71	O	-0.376904	0.942892	-0.000332
C72	C	-0.392749	0.896383	-0.092832
H73	H	-0.408425	0.951289	-0.157480
H74	H	-0.437769	0.842098	-0.071898
C75	C	-0.308814	0.777304	-0.055419
C76	C	-0.328062	0.844742	-0.134825
H77	H	-0.268913	0.745445	-0.081321
H78	H	-0.298141	0.808635	0.006902
H79	H	-0.346336	0.732075	-0.037982
H80	H	-0.290543	0.889976	-0.152252
H81	H	-0.338727	0.813417	-0.197151
O82	O	-0.520653	0.945814	-0.000262
C83	C	-0.559242	0.947175	-0.092742
H84	H	-0.532950	0.999708	-0.157421
H85	H	-0.614566	0.970205	-0.071794
C86	C	-0.594465	0.782069	-0.055247
C87	C	-0.562170	0.846584	-0.134690
H88	H	-0.596275	0.720019	-0.081121
H89	H	-0.568470	0.781152	0.007061
H90	H	-0.640566	0.801272	-0.037798
H91	H	-0.516068	0.827387	-0.152128
H92	H	-0.588158	0.847495	-0.197002
H93	H	-0.503751	1.272600	-0.000076
H94	H	-0.959024	0.968100	0.000104
H95	H	-0.948342	1.281478	0.000069
H96	H	-0.816058	1.278836	0.000088
