data_functionalizedCrystal
_audit_creation_method	'MofGen! by Chris Wilmer'
_symmetry_space_group_name_H-M	'P1'
_symmetry_Int_Tables_number	1
_symmetry_cell_setting	triclinic
loop_
_symmetry_equiv_pos_as_xyz
  x,y,z
_cell_length_a	10.540539
_cell_length_b	8.559649
_cell_length_c	7.681481
_cell_angle_alpha	85.069100
_cell_angle_beta	84.214953
_cell_angle_gamma	102.847922
loop_
_atom_site_label
_atom_site_type_symbol
_atom_site_fract_x
_atom_site_fract_y
_atom_site_fract_z
O1	O	1.648891	-0.239887	0.146278
O2	O	1.277256	-0.261083	0.146312
O3	O	1.495815	-0.018256	0.146290
O4	O	1.430332	-0.482714	0.146300
O5	O	1.522722	0.011700	-0.146570
O6	O	1.304163	-0.231127	-0.146548
O7	O	1.675798	-0.209931	-0.146583
Zn8	Zn	1.494253	-0.215773	-0.193063
Zn9	Zn	1.458801	-0.255241	0.192793
O10	O	1.457239	-0.452758	-0.146560
C11	C	1.243572	-0.244516	-0.000113
C12	C	1.103121	-0.239763	-0.000100
C13	C	1.709481	-0.226498	-0.000153
C14	C	1.849931	-0.231253	-0.000155
C15	C	1.514231	0.056195	-0.000137
C16	C	1.529001	0.233405	-0.000129
C17	C	2.014339	-0.413392	-0.000768
C18	C	1.868168	-0.408637	-0.000138
C19	C	1.905134	-0.162995	0.167091
C20	C	2.051029	-0.169067	0.167260
C21	C	2.082576	-0.131395	-0.165777
C22	C	1.935971	-0.129532	-0.168016
C23	C	1.438823	-0.527209	-0.000129
C24	C	1.424051	-0.704421	-0.000126
N25	N	1.518457	-0.188836	-0.456400
N26	N	1.434608	-0.282166	0.456130
H27	H	1.829564	-0.463551	-0.120020
C28	C	1.823747	-0.260296	0.335218
H29	H	1.857916	-0.218067	0.435726
H30	H	1.828040	-0.370079	0.336724
H31	H	1.735072	-0.252748	0.336936
H32	H	1.630162	0.315759	-0.000152
C33	C	1.892581	0.012114	0.175508
H34	H	1.926535	0.051010	0.277612
H35	H	1.802863	0.015663	0.180504
H36	H	1.940623	0.077706	0.073603
C37	C	1.634100	-0.060141	-0.557987
H38	H	1.684287	-0.004288	-0.476803
H39	H	1.601449	0.014059	-0.629921
H40	H	1.687924	-0.110812	-0.629891
H41	H	1.349015	-0.377428	-0.468665
H42	H	2.061117	-0.244947	0.292279
C43	C	1.922768	0.046559	-0.181716
H44	H	1.864362	0.060413	-0.084797
H45	H	1.889464	0.071453	-0.288472
H46	H	2.006330	0.116449	-0.180299
C47	C	2.057978	-0.491499	-0.162754
H48	H	2.130739	-0.418928	-0.231427
H49	H	1.987628	-0.515707	-0.231635
H50	H	2.082523	-0.588044	-0.125127
C51	C	2.030426	-0.524146	0.160358
H52	H	2.091010	-0.465030	0.228038
H53	H	2.062175	-0.612516	0.121926
H54	H	1.948009	-0.563193	0.230542
H55	H	1.322899	0.213236	-0.000122
H56	H	2.111653	-0.042277	0.174878
C57	C	1.787249	-0.516636	0.162046
H58	H	1.843690	-0.563573	0.227816
H59	H	1.723172	-0.599479	0.124696
H60	H	1.744979	-0.453483	0.233699
H61	H	2.119786	-0.175838	-0.292524
H62	H	2.143314	-0.003156	-0.166894
C63	C	1.887240	-0.196698	-0.335164
H64	H	1.814757	-0.286350	-0.302805
H65	H	1.955947	-0.229942	-0.400803
H66	H	1.860924	-0.115240	-0.404990
