data_functionalizedCrystal
_audit_creation_method	'MofGen! by Chris Wilmer'
_symmetry_space_group_name_H-M	'P1'
_symmetry_Int_Tables_number	1
_symmetry_cell_setting	triclinic
loop_
_symmetry_equiv_pos_as_xyz
  x,y,z
_cell_length_a	10.685194
_cell_length_b	12.827893
_cell_length_c	12.827885
_cell_angle_alpha	90.021189
_cell_angle_beta	85.597438
_cell_angle_gamma	85.624769
loop_
_atom_site_label
_atom_site_type_symbol
_atom_site_fract_x
_atom_site_fract_y
_atom_site_fract_z
Zn1	Zn	-0.502409	-1.565833	-0.558978
Zn2	Zn	-0.002409	-1.065833	-0.058978
Zn3	Zn	-0.713475	-1.552351	-0.370829
Zn4	Zn	-0.213475	-1.052351	0.129171
Zn5	Zn	-0.502464	-1.391070	-0.384243
Zn6	Zn	-0.002464	-0.891070	0.115757
Zn7	Zn	-0.713374	-1.377690	-0.545530
Zn8	Zn	-0.213374	-0.877690	-0.045530
O9	O	-0.607930	-1.471736	-0.464895
O10	O	-0.107930	-0.971736	0.035105
O11	O	-0.530426	-1.710279	-0.534034
O12	O	-0.030426	-1.210279	-0.034034
O13	O	-0.685549	-1.530914	-0.226368
O14	O	-0.185549	-1.030914	0.273632
O15	O	-0.325859	-1.425495	-0.418664
O16	O	0.174141	-0.925495	0.081336
O17	O	-0.685496	-1.700374	-0.395801
O18	O	-0.185496	-1.200374	0.104199
O19	O	-0.325818	-1.553892	-0.547041
O20	O	0.174182	-1.053892	-0.047041
O21	O	-0.530521	-1.412422	-0.236223
O22	O	-0.030521	-0.912422	0.263777
O23	O	-0.530423	-1.243060	-0.405624
O24	O	-0.030423	-0.743060	0.094376
O25	O	-0.685323	-1.402690	-0.693554
O26	O	-0.185323	-0.902690	-0.193554
O27	O	-0.685377	-1.233230	-0.524121
O28	O	-0.185377	-0.733230	-0.024121
O29	O	-0.530328	-1.540918	-0.703434
O30	O	-0.030328	-1.040918	-0.203434
O31	O	-0.890060	-1.517940	-0.382762
O32	O	-0.390060	-1.017940	0.117238
O33	O	-0.889986	-1.389617	-0.511114
O34	O	-0.389986	-0.889617	-0.011114
C35	C	-0.607896	-1.200228	-0.464869
C36	C	-0.107896	-0.700228	0.035131
C37	C	-0.607912	-1.084074	-0.464881
C38	C	-0.107912	-0.584074	0.035119
C39	C	-0.531132	-1.037133	-0.406362
C40	C	-0.031132	-0.537133	0.093638
C41	C	-0.531146	-0.917081	-0.406373
C42	C	-0.031146	-0.417081	0.093627
C43	C	-0.935813	-1.450892	-0.444046
C44	C	-0.435813	-0.950892	0.055954
C45	C	-1.076082	-1.442070	-0.435161
C46	C	-0.576082	-0.942070	0.064839
C47	C	-0.278768	-1.492690	-0.485849
C48	C	0.221232	-0.992690	0.014151
C49	C	-0.138498	-1.501619	-0.494778
C50	C	0.361502	-1.001619	0.005222
C51	C	-0.607808	-1.471816	-0.737473
C52	C	-0.107808	-0.971816	-0.237473
C53	C	-0.607756	-1.471850	-0.853629
C54	C	-0.107756	-0.971850	-0.353629
C55	C	-0.607956	-0.744304	-0.464914
C56	C	-0.107956	-0.244304	0.035086
C57	C	-0.607940	-0.860459	-0.464902
C58	C	-0.107940	-0.360459	0.035098
C59	C	-0.530992	-1.540290	-1.030352
C60	C	-0.030992	-1.040290	-0.530352
C61	C	-0.531045	-1.540257	-0.910298
C62	C	-0.031045	-1.040257	-0.410298
C63	C	-0.607961	-1.471722	-0.193383
C64	C	-0.107961	-0.971722	0.306617
C65	C	-0.607658	-1.471913	-0.077250
C66	C	-0.107658	-0.971913	0.422750
H67	H	-0.465407	-0.876695	-0.356278
H68	H	0.034593	-0.376695	0.143722
H69	H	-0.673387	-1.413300	-0.893973
H70	H	-0.173387	-0.913300	-0.393973
C71	C	-0.442258	-1.619406	-1.096178
C72	C	0.057742	-1.119406	-0.596178
N73	N	-0.375415	-1.678995	-1.145756
N74	N	0.124585	-1.178995	-0.645756
H75	H	-1.129961	-1.384326	-0.377324
H76	H	-0.629961	-0.884326	0.122676
H77	H	-1.084627	-1.559352	-0.552620
H78	H	-0.584627	-1.059352	-0.052620
H79	H	-0.673660	-1.035385	-0.514985
H80	H	-0.173660	-0.535385	-0.014985
C81	C	-0.442369	-1.619344	-0.855791
C82	C	0.057631	-1.119344	-0.355791
N83	N	-0.375576	-1.678916	-0.814734
N84	N	0.124424	-1.178916	-0.314734
C85	C	-0.696384	-1.392791	-1.011425
C86	C	-0.196384	-0.892791	-0.511425
N87	N	-0.763213	-1.333192	-0.961847
N88	N	-0.263213	-0.833192	-0.461847
C89	C	-0.442300	-1.102905	-0.338674
C90	C	0.057700	-0.602905	0.161326
N91	N	-0.375384	-1.152444	-0.287695
N92	N	0.124616	-0.652444	0.212305
C93	C	-0.696752	-0.915009	-0.532589
C94	C	-0.196752	-0.415009	-0.032589
N95	N	-0.763648	-0.956105	-0.583569
N96	N	-0.263648	-0.456105	-0.083569
