data_functionalizedCrystal
_audit_creation_method	'MofGen! by Chris Wilmer'
_symmetry_space_group_name_H-M	'P1'
_symmetry_Int_Tables_number	1
_symmetry_cell_setting	triclinic
loop_
_symmetry_equiv_pos_as_xyz
  x,y,z
_cell_length_a	9.616153
_cell_length_b	14.971486
_cell_length_c	14.971486
_cell_angle_alpha	96.385871
_cell_angle_beta	90.002466
_cell_angle_gamma	89.998089
loop_
_atom_site_label
_atom_site_type_symbol
_atom_site_fract_x
_atom_site_fract_y
_atom_site_fract_z
O1	O	0.115486	-1.186948	0.116559
O2	O	0.615486	-0.686948	0.616559
O3	O	0.115524	-0.926548	0.130518
O4	O	0.615524	-0.426548	0.630518
O5	O	0.115494	-1.063727	-0.006662
O6	O	0.615494	-0.563727	0.493338
O7	O	0.115516	-1.049769	0.253739
O8	O	0.615516	-0.549769	0.753739
O9	O	-0.115797	-1.063709	-0.006659
O10	O	0.384203	-0.563709	0.493341
O11	O	-0.115767	-0.926529	0.130521
O12	O	0.384233	-0.426529	0.630521
O13	O	-0.115805	-1.186929	0.116562
O14	O	0.384195	-0.686929	0.616562
Zn15	Zn	-0.152509	-1.056726	0.123542
Zn16	Zn	0.347491	-0.556726	0.623542
Zn17	Zn	0.152228	-1.056751	0.123538
Zn18	Zn	0.652228	-0.556751	0.623538
O19	O	-0.115775	-1.049750	0.253742
O20	O	0.384225	-0.549750	0.753742
C21	C	-0.000117	-0.893214	0.129895
C22	C	0.499883	-0.393214	0.629895
C23	C	-0.000102	-0.793917	0.128024
C24	C	0.499898	-0.293917	0.628024
N25	N	-0.360483	-1.056716	0.123544
N26	N	0.139517	-0.556716	0.623544
C27	C	-0.000151	-1.063094	-0.039985
C28	C	0.499849	-0.563094	0.460015
C29	C	-0.000149	-1.061223	-0.139282
C30	C	0.499851	-0.561223	0.360718
C31	C	-0.580837	-0.983114	0.196683
C32	C	-0.080837	-0.483114	0.696683
C33	C	-0.419669	-0.983272	0.196954
C34	C	0.080331	-0.483272	0.696954
C35	C	-0.418944	-1.150069	0.144030
C36	C	0.081056	-0.650069	0.644030
C37	C	-0.580162	-1.149667	0.144547
C38	C	-0.080162	-0.649667	0.644547
C39	C	-0.580399	-1.037898	0.029674
C40	C	-0.080399	-0.537898	0.529674
C41	C	-0.419172	-1.035747	0.030300
C42	C	0.080828	-0.535747	0.530300
N43	N	0.360202	-1.056769	0.123529
N44	N	0.860202	-0.556769	0.623529
C45	C	-0.000161	-1.220263	0.117185
C46	C	0.499839	-0.720263	0.617185
C47	C	-0.000166	-1.319561	0.119056
C48	C	0.499834	-0.819561	0.619056
C49	C	-0.000098	-0.736691	0.208614
C50	C	0.499902	-0.236691	0.708614
C51	C	-0.000118	-0.643392	0.206850
C52	C	0.499882	-0.143392	0.706850
C53	C	-0.000134	-0.607320	0.124497
C54	C	0.499866	-0.107320	0.624497
C55	C	-0.000143	-0.664552	0.043902
C56	C	0.499857	-0.164552	0.543902
C57	C	-0.000132	-0.757850	0.045666
C58	C	0.499868	-0.257850	0.545666
C59	C	-0.000163	-0.470090	0.040231
C60	C	0.499837	0.029910	0.540231
C61	C	-0.000171	-0.376786	0.038466
C62	C	0.499829	0.123214	0.538466
C63	C	-0.000149	-0.355632	0.201415
C64	C	0.499851	0.144368	0.701415
C65	C	-0.000138	-0.448930	0.203179
C66	C	0.499862	0.051070	0.703179
C67	C	-0.000144	-0.506156	0.122584
C68	C	0.499856	-0.006156	0.622584
C69	C	-0.000162	-1.141812	-0.196507
C70	C	0.499838	-0.641812	0.303493
C71	C	-0.000148	-1.140049	-0.289807
C72	C	0.499852	-0.640049	0.210193
C73	C	-0.000131	-1.057696	-0.325879
C74	C	0.499869	-0.557696	0.174121
C75	C	-0.000114	-0.977101	-0.268646
C76	C	0.499886	-0.477101	0.231354
C77	C	-0.000118	-0.978865	-0.175349
C78	C	0.499882	-0.478865	0.324651
C79	C	-0.000108	-0.973430	-0.463109
C80	C	0.499892	-0.473430	0.036891
C81	C	-0.000107	-0.971665	-0.556413
C82	C	0.499893	-0.471665	-0.056413
C83	C	-0.000138	-1.134614	-0.577567
C84	C	0.499862	-0.634614	-0.077567
C85	C	-0.000142	-1.136378	-0.484269
C86	C	0.499858	-0.636378	0.015731
C87	C	-0.000128	-1.055782	-0.427043
C88	C	0.499872	-0.555782	0.072957
C89	C	-0.000127	-1.050384	0.287065
C90	C	0.499873	-0.550384	0.787065
C91	C	-0.000119	-1.052254	0.386362
C92	C	0.499881	-0.552254	0.886362
H93	H	-0.380146	-0.913885	0.184734
H94	H	0.119854	-0.413885	0.684734
Cl95	Cl	-0.000104	-0.571455	0.308168
Cl96	Cl	0.499896	-0.071455	0.808168
H97	H	-0.000093	-0.907800	-0.416517
H98	H	0.499907	-0.407800	0.083483
Cl99	Cl	-0.000148	-1.235935	-0.649508
Cl100	Cl	0.499852	-0.735935	-0.149508
Cl101	Cl	-0.359758	-1.236713	0.063964
Cl102	Cl	0.140242	-0.736713	0.563964
H103	H	-0.000150	-0.309033	0.267039
H104	H	0.499850	0.190967	0.767039
H105	H	-0.000112	-0.478296	0.270239
H106	H	0.499888	0.021704	0.770239
H107	H	-0.000176	-0.635175	-0.023152
H108	H	0.499824	-0.135175	0.476848
Cl109	Cl	-0.000237	-0.331439	-0.065065
Cl110	Cl	0.499763	0.168561	0.434935
Cl111	Cl	-0.640710	-0.875639	0.178111
Cl112	Cl	-0.140710	-0.375639	0.678111
Cl113	Cl	-0.000198	-1.245348	-0.151169
Cl114	Cl	0.499802	-0.745348	0.348831
H115	H	-0.617747	-1.166280	0.212998
H116	H	-0.117747	-0.666280	0.712998
H117	H	-0.000170	-0.516682	-0.025399
H118	H	0.499830	-0.016682	0.474601
H119	H	-0.000091	-0.910047	-0.298024
H120	H	0.499909	-0.410047	0.201976
H121	H	-0.000115	-0.904606	-0.585780
H122	H	0.499885	-0.404606	-0.085780
Cl123	Cl	-0.360089	-1.001848	0.304495
Cl124	Cl	0.139911	-0.501848	0.804495
Cl125	Cl	-0.000144	-0.829791	-0.055651
Cl126	Cl	0.499856	-0.329791	0.444349
H127	H	-0.000107	-0.913240	-0.128756
H128	H	0.499893	-0.413240	0.371244
H129	H	-0.621332	-0.995008	0.265937
H130	H	-0.121332	-0.495008	0.765937
H131	H	-0.000161	-1.205673	-0.336396
H132	H	0.499839	-0.705673	0.163604
H133	H	-0.000166	-1.203437	-0.454903
H134	H	0.499834	-0.703437	0.045097
Cl135	Cl	-0.357000	-1.113182	-0.057698
Cl136	Cl	0.143000	-0.613182	0.442302
H137	H	-0.619162	-1.206192	0.093371
H138	H	-0.119162	-0.706192	0.593371
Cl139	Cl	-0.360183	-0.929722	0.006297
Cl140	Cl	0.139817	-0.429722	0.506297
H141	H	-0.378551	-1.167071	0.211703
H142	H	0.121449	-0.667071	0.711703
Cl143	Cl	-0.000069	-0.782030	0.312150
Cl144	Cl	0.499931	-0.282030	0.812150
H145	H	-0.621128	-0.971304	0.009999
H146	H	-0.121128	-0.471304	0.509999
Cl147	Cl	-0.639266	-1.120822	-0.054379
Cl148	Cl	-0.139266	-0.620822	0.445621
