data_functionalizedCrystal
_audit_creation_method	'MofGen! by Chris Wilmer'
_symmetry_space_group_name_H-M	'P1'
_symmetry_Int_Tables_number	1
_symmetry_cell_setting	triclinic
loop_
_symmetry_equiv_pos_as_xyz
  x,y,z
_cell_length_a	12.759401
_cell_length_b	25.639240
_cell_length_c	12.759393
_cell_angle_alpha	90.044235
_cell_angle_beta	90.018496
_cell_angle_gamma	90.032919
loop_
_atom_site_label
_atom_site_type_symbol
_atom_site_fract_x
_atom_site_fract_y
_atom_site_fract_z
Zn1	Zn	1.606124	-0.208118	0.593889
Zn2	Zn	1.605962	-0.295564	0.418170
Zn3	Zn	1.430425	-0.208145	0.418228
Zn4	Zn	1.430359	-0.295524	0.593812
O5	O	1.518218	-0.251838	0.506025
O6	O	1.753123	-0.219723	0.570587
O7	O	1.582638	-0.283996	0.271157
O8	O	1.453828	-0.134976	0.441587
O9	O	1.753005	-0.283970	0.441488
O10	O	1.582912	-0.134956	0.570644
O11	O	1.453671	-0.219770	0.271199
O12	O	1.283396	-0.219731	0.441512
O13	O	1.453714	-0.283901	0.740843
O14	O	1.283347	-0.283928	0.570512
O15	O	1.582847	-0.219684	0.740900
O16	O	1.582573	-0.368724	0.441413
O17	O	1.453558	-0.368695	0.570456
C18	C	1.245250	-0.251828	0.506010
C19	C	1.128474	-0.251837	0.506029
C20	C	1.073614	-0.285318	0.573089
C21	C	0.963889	-0.285324	0.573100
C22	C	0.963895	-0.218368	0.438984
C23	C	1.073617	-0.218359	0.438978
C24	C	1.073609	-0.323976	0.650516
C25	C	0.963885	-0.323983	0.650528
C26	C	1.518069	-0.387680	0.505942
C27	C	1.518102	-0.445795	0.505942
C28	C	1.585465	-0.806109	0.573346
C29	C	1.585496	-0.860713	0.573367
O30	O	1.642595	-0.888908	0.630592
N31	N	1.518363	-0.888077	0.506126
C32	C	1.451188	-0.860834	0.438867
O33	O	1.394088	-0.889123	0.381676
C34	C	1.451152	-0.806230	0.438852
C35	C	1.518297	-0.778869	0.506090
C36	C	1.652604	-0.778747	0.640579
C37	C	1.652574	-0.724147	0.640556
C38	C	1.585406	-0.696907	0.573300
C39	C	1.518267	-0.724269	0.506067
C40	C	1.383972	-0.778988	0.371598
C41	C	1.383941	-0.724381	0.371590
C42	C	1.451086	-0.697020	0.438828
C43	C	1.451069	-0.642429	0.438787
N44	N	1.518202	-0.615065	0.506028
C45	C	1.585370	-0.642304	0.573285
C46	C	1.451266	-0.975504	0.438905
C47	C	1.451306	-1.030107	0.438915
C48	C	1.585614	-1.029982	0.573417
C49	C	1.585578	-0.975379	0.573401
C50	C	1.518399	-0.948140	0.506146
C51	C	1.585303	-0.527639	0.573231
C52	C	1.585270	-0.473034	0.573199
C53	C	1.450959	-0.473163	0.438701
C54	C	1.450995	-0.527764	0.438729
C55	C	1.518171	-0.555000	0.506002
O56	O	1.393996	-0.614199	0.381595
O57	O	1.642450	-0.614008	0.630476
C58	C	1.792251	-0.251848	0.506040
C59	C	1.909027	-0.251852	0.506046
C60	C	1.518291	-0.251785	0.780058
C61	C	1.518323	-0.251763	0.896835
C62	C	1.518395	-0.115465	0.506130
C63	C	1.518471	-0.057351	0.506175
C64	C	1.518205	-0.251853	0.233057
C65	C	1.518377	-0.251728	0.116281
C66	C	1.585572	-0.218322	0.951728
C67	C	1.585597	-0.218303	1.061452
C68	C	1.451120	-0.285170	1.061380
C69	C	1.451091	-0.285186	0.951658
C70	C	1.663214	-0.179718	0.951771
C71	C	1.663239	-0.179699	1.061495
H72	H	1.103424	-0.313178	0.731928
H73	H	1.744603	-0.190544	1.091268
H74	H	0.929897	-0.309529	0.727886
H75	H	1.639951	-0.450758	0.627952
C76	C	1.133312	-0.182088	0.366116
C77	C	1.196275	-0.211641	0.298666
C78	C	1.251290	-0.178244	0.231538
H79	H	1.085043	-0.162141	0.326086
H80	H	1.176208	-0.159337	0.406369
H81	H	1.153383	-0.234383	0.258417
H82	H	1.244564	-0.231586	0.338667
H83	H	1.294186	-0.155493	0.271791
H84	H	1.203013	-0.158299	0.191516
H85	H	1.294024	-0.198290	0.185772
C86	C	1.634427	-0.125714	0.912047
C87	C	1.716685	-0.106016	0.851177
C88	C	1.690209	-0.056269	0.814577
H89	H	1.572708	-0.127855	0.870613
H90	H	1.622405	-0.103184	0.969952
H91	H	1.728694	-0.128541	0.793280
H92	H	1.778412	-0.103862	0.892588
H93	H	1.678187	-0.033739	0.872483
H94	H	1.628489	-0.058415	0.773148
H95	H	1.746019	-0.042896	0.773281
C96	C	1.658601	-0.945648	0.646236
C97	C	1.725976	-0.914305	0.586808
C98	C	1.793269	-0.886919	0.653872
H99	H	1.618497	-0.924304	0.691998
H100	H	1.698668	-0.969680	0.686270
H101	H	1.685914	-0.890276	0.546792
H102	H	1.766104	-0.935637	0.541048
H103	H	1.833336	-0.910951	0.693906
H104	H	1.753156	-0.865578	0.699631
H105	H	1.838997	-0.865653	0.613560
C106	C	1.766332	-0.199056	0.906570
C107	C	1.834672	-0.211856	0.988470
C108	C	1.929677	-0.229666	0.946870
H109	H	1.753941	-0.229066	0.864650
H110	H	1.796823	-0.172436	0.864725
H111	H	1.804187	-0.238473	1.030297
H112	H	1.847093	-0.181854	1.030397
H113	H	1.960168	-0.203047	0.905026
H114	H	1.917276	-0.259675	0.904951
H115	H	1.976061	-0.238349	1.002433
C116	C	1.658301	-0.557269	0.646098
C117	C	1.725682	-0.588626	0.586691
C118	C	1.792937	-0.615933	0.653777
H119	H	1.698376	-0.533206	0.686153
H120	H	1.618137	-0.578595	0.691842
H121	H	1.765842	-0.567302	0.540966
H122	H	1.685636	-0.612700	0.546639
H123	H	1.752772	-0.637258	0.699520
H124	H	1.833004	-0.591865	0.693828
H125	H	1.838655	-0.637215	0.613479
C126	C	0.904145	-0.182084	0.366218
C127	C	0.796312	-0.189266	0.380555
C128	C	0.741240	-0.155857	0.313526
H129	H	0.922034	-0.146940	0.381658
H130	H	0.922034	-0.189701	0.295575
H131	H	0.778430	-0.181645	0.451182
H132	H	0.778391	-0.224403	0.365107
H133	H	0.759130	-0.163474	0.242883
H134	H	0.759139	-0.120715	0.328972
H135	H	0.668071	-0.160728	0.323238
H136	H	1.107599	-0.362421	0.621215
H137	H	0.934064	-0.364467	0.628578
C138	C	1.310960	-0.694904	0.298453
C139	C	1.252188	-0.730557	0.239563
C140	C	1.184959	-0.703423	0.172171
H141	H	1.265057	-0.673602	0.338481
H142	H	1.351132	-0.673618	0.252641
H143	H	1.212019	-0.751833	0.285370
H144	H	1.298063	-0.751860	0.199515
H145	H	1.225131	-0.682138	0.126358
H146	H	1.139063	-0.682122	0.212207
H147	H	1.145081	-0.727609	0.132199
C148	C	1.311166	-0.808780	0.298653
C149	C	1.325565	-0.862432	0.313034
C150	C	1.258513	-0.889890	0.245847
H151	H	1.240528	-0.799909	0.313921
H152	H	1.326568	-0.799888	0.228045
H153	H	1.310156	-0.871320	0.383625
H154	H	1.396189	-0.871318	0.297758
H155	H	1.273915	-0.880998	0.175240
H156	H	1.187880	-0.881015	0.261121
H157	H	1.268281	-0.926296	0.255589
H158	H	1.707246	-0.701872	0.695310
C159	C	1.377960	-0.321395	1.120851
C160	C	1.274018	-0.310001	1.094184
C161	C	1.206593	-0.343357	1.148956
H162	H	1.393145	-0.356547	1.102884
H163	H	1.387536	-0.316592	1.194070
H164	H	1.264447	-0.314809	1.020982
H165	H	1.258800	-0.274855	1.112154
H166	H	1.216169	-0.338554	1.222174
H167	H	1.221787	-0.378507	1.130984
H168	H	1.136061	-0.335628	1.130877
C169	C	1.624630	-0.128402	1.107080
C170	C	1.703691	-0.106214	1.168840
C171	C	1.668151	-0.058967	1.210866
H172	H	1.607127	-0.105210	1.051765
H173	H	1.564398	-0.134598	1.149029
H174	H	1.763904	-0.100016	1.126893
H175	H	1.721203	-0.129391	1.224172
H176	H	1.607919	-0.065164	1.252815
H177	H	1.650648	-0.035780	1.155544
H178	H	1.721784	-0.043910	1.252782
H179	H	1.707300	-0.800920	0.695354
C180	C	1.378299	-1.059715	0.365864
C181	C	1.319457	-1.024166	0.306982
C182	C	1.252175	-1.051420	0.239689
H183	H	1.418404	-1.081023	0.320034
H184	H	1.332451	-1.081004	0.405996
H185	H	1.365299	-1.002886	0.266853
H186	H	1.279330	-1.002857	0.352784
H187	H	1.206327	-1.072709	0.279821
H188	H	1.292288	-1.072728	0.193866
H189	H	1.212236	-1.027305	0.199737
H190	H	1.640304	-1.052170	0.628182
C191	C	1.378047	-0.557542	0.365891
C192	C	1.310706	-0.588897	0.425332
C193	C	1.243495	-0.616338	0.358275
H194	H	1.337942	-0.533559	0.325803
H195	H	1.418245	-0.578880	0.320178
H196	H	1.270511	-0.567561	0.471026
H197	H	1.350782	-0.612890	0.465418
H198	H	1.283694	-0.637676	0.312563
H199	H	1.203398	-0.592350	0.318190
H200	H	1.197803	-0.637619	0.398596
C201	C	1.378073	-0.443488	0.365800
C202	C	1.392403	-0.389814	0.380203
C203	C	1.325262	-0.362460	0.313081
H204	H	1.393416	-0.452397	0.295179
H205	H	1.307457	-0.452428	0.381135
H206	H	1.463003	-0.380877	0.364861
H207	H	1.377052	-0.380890	0.450810
H208	H	1.254646	-0.371400	0.328416
H209	H	1.340611	-0.371373	0.242464
H210	H	1.334969	-0.326039	0.322851
C211	C	1.378234	-0.321521	0.891930
C212	C	1.437642	-0.355041	0.828886
C213	C	1.370556	-0.388516	0.773843
H214	H	1.338179	-0.341472	0.940182
H215	H	1.332492	-0.301535	0.849086
H216	H	1.483366	-0.375024	0.871727
H217	H	1.477695	-0.335105	0.780615
H218	H	1.324814	-0.368530	0.730999
H219	H	1.330505	-0.408463	0.822102
H220	H	1.410854	-0.411260	0.731054
H221	H	1.396564	-0.953330	0.384130
