data_functionalizedCrystal
_audit_creation_method	'MofGen! by Chris Wilmer'
_symmetry_space_group_name_H-M	'P1'
_symmetry_Int_Tables_number	1
_symmetry_cell_setting	triclinic
loop_
_symmetry_equiv_pos_as_xyz
  x,y,z
_cell_length_a	14.519709
_cell_length_b	10.967926
_cell_length_c	10.065875
_cell_angle_alpha	93.120479
_cell_angle_beta	98.804604
_cell_angle_gamma	84.207347
loop_
_atom_site_label
_atom_site_type_symbol
_atom_site_fract_x
_atom_site_fract_y
_atom_site_fract_z
O1	O	0.160831	1.613236	0.265926
O2	O	0.163464	1.263198	0.183596
O3	O	0.028218	1.447496	0.226956
O4	O	0.296077	1.428938	0.222566
O5	O	0.054116	1.412353	0.445676
O6	O	0.189362	1.228055	0.402317
O7	O	0.186729	1.578094	0.484646
Zn8	Zn	0.192158	1.397495	0.478208
Zn9	Zn	0.158036	1.443797	0.190034
O10	O	0.321975	1.393795	0.441287
C11	C	0.174265	1.200829	0.282420
C12	C	0.167852	1.067344	0.251025
C13	C	0.178409	0.989628	0.350331
C14	C	0.171781	0.851665	0.317885
C15	C	0.006779	1.429060	0.336113
C16	C	-0.095688	1.426467	0.335504
C17	C	-0.470904	1.416930	0.333225
C18	C	-0.366507	1.419578	0.333858
C19	C	-0.283299	1.421698	0.334366
C20	C	-0.178896	1.424347	0.334996
C21	C	0.343414	1.412233	0.332127
C22	C	0.445880	1.414826	0.332727
C23	C	0.175928	1.640464	0.385820
C24	C	0.182340	1.773949	0.417206
N25	N	0.215444	1.365903	0.674881
N26	N	0.134742	1.475398	-0.006637
C27	C	0.166132	1.432798	0.758398
C28	C	0.184062	1.408494	0.909848
H29	H	0.192349	1.025231	0.459372
H30	H	0.110636	1.508058	0.717780
C31	C	0.290412	1.264229	0.729743
H32	H	0.292632	1.261238	0.824338
H33	H	0.275128	1.187490	0.688363
H34	H	0.349734	1.281247	0.710388
H35	H	0.239554	1.333220	0.950459
H36	H	0.196282	0.809544	0.526255
C37	C	0.152945	0.803587	0.170571
H38	H	0.150968	0.717167	0.168088
H39	H	0.094694	0.841013	0.128502
H40	H	0.201569	0.822905	0.124245
H41	H	0.153905	1.031743	0.141984
H42	H	0.079243	1.550662	0.952750
