data_functionalizedCrystal
_audit_creation_method	'MofGen! by Chris Wilmer'
_symmetry_space_group_name_H-M	'P1'
_symmetry_Int_Tables_number	1
_symmetry_cell_setting	triclinic
loop_
_symmetry_equiv_pos_as_xyz
  x,y,z
_cell_length_a	14.853567
_cell_length_b	16.109301
_cell_length_c	15.186229
_cell_angle_alpha	90.005167
_cell_angle_beta	90.000386
_cell_angle_gamma	83.548206
loop_
_atom_site_label
_atom_site_type_symbol
_atom_site_fract_x
_atom_site_fract_y
_atom_site_fract_z
O1	O	-1.196184	-0.108546	-0.073171
O2	O	-0.933703	-0.121477	-0.073186
O3	O	-1.072154	0.006009	-0.073169
O4	O	-1.057733	-0.236033	-0.073188
O5	O	-1.072145	0.006011	0.073288
O6	O	-0.933694	-0.121475	0.073271
O7	O	-1.196175	-0.108545	0.073287
Zn8	Zn	-1.064933	-0.115010	0.096532
Zn9	Zn	-1.064945	-0.115012	-0.096432
O10	O	-1.057724	-0.236031	0.073269
C11	C	-1.071566	0.036986	0.000060
C12	C	-1.069814	0.129284	0.000061
C13	C	-0.900111	-0.120890	0.000041
C14	C	-0.800030	-0.119135	0.000035
C15	C	-1.229767	-0.109131	0.000058
C16	C	-1.329848	-0.110887	0.000058
C17	C	-0.387634	-0.035983	0.000061
C18	C	-0.366102	-0.187440	0.000049
C19	C	-0.460133	-0.189090	0.000046
C20	C	-0.517919	-0.114187	0.000049
C21	C	-0.481674	-0.037632	0.000056
C22	C	-0.496386	-0.265644	0.000030
C23	C	-0.590422	-0.267298	0.000026
C24	C	-0.648210	-0.192393	0.000036
C25	C	-0.611959	-0.115835	0.000044
C26	C	-0.669745	-0.040931	0.000047
C27	C	-0.633496	0.035628	0.000061
C28	C	-0.539461	0.037273	0.000065
C29	C	-0.742245	-0.194038	0.000031
C30	C	-0.763785	-0.042580	0.000041
C31	C	-1.058313	-0.267007	0.000038
C32	C	-1.060064	-0.359305	0.000031
N33	N	-1.064931	-0.115007	0.228225
C34	C	-1.147896	0.351446	0.000052
C35	C	-1.146243	0.438169	0.000044
C36	C	-0.981976	0.418525	0.000038
C37	C	-0.983629	0.331804	0.000039
C38	C	-1.066592	0.298267	0.000051
C39	C	-1.063286	0.471711	0.000042
C40	C	-1.061494	0.565740	0.000034
C41	C	-1.068385	0.204233	0.000057
N42	N	-1.064954	-0.115008	-0.228124
C43	C	-1.126258	-0.058576	0.453955
C44	C	-1.126261	-0.058574	0.546145
C45	C	-1.003620	-0.171442	0.546139
C46	C	-1.003614	-0.171439	0.453951
C47	C	-1.064938	-0.115007	0.407861
C48	C	-1.064947	-0.115008	0.592239
C49	C	-1.064950	-0.115006	0.692195
C50	C	-1.064934	-0.115008	0.307899
H51	H	-0.680557	0.096614	0.000058
N52	N	-0.895938	0.274433	0.000038
H53	H	-0.859742	0.285224	-0.054254
H54	H	-0.859811	0.285257	0.054365
H55	H	-1.176191	-0.012624	0.416431
N56	N	-0.937478	-0.232309	0.404223
H57	H	-0.897574	-0.200466	0.365983
H58	H	-0.898695	-0.268051	0.447459
N59	N	-0.826101	0.038216	0.000045
H60	H	-0.865591	0.040911	-0.054250
H61	H	-0.865542	0.040860	0.054369
N62	N	-0.500365	0.119841	0.000087
H63	H	-0.432026	0.109517	0.000088
H64	H	-0.521500	0.152626	-0.054202
H65	H	-1.215449	0.324144	0.000059
H66	H	-1.176192	-0.012621	0.583672
H67	H	-1.212449	0.481464	0.000044
H68	H	-0.619928	-0.329636	0.000015
H69	H	-0.358115	0.026349	0.000076
H70	H	-0.319048	-0.248423	0.000038
H71	H	-0.771754	-0.256371	0.000022
N72	N	-0.434065	-0.346429	0.000017
H73	H	-0.368994	-0.333766	0.000027
H74	H	-0.445802	-0.379789	0.054304
N75	N	-0.892498	0.454698	0.000030
H76	H	-0.903786	0.517705	0.000033
H77	H	-0.856922	0.435253	0.054323
H78	H	-0.953693	-0.217389	0.583674
