data_functionalizedCrystal
_audit_creation_method	'MofGen! by Chris Wilmer'
_symmetry_space_group_name_H-M	'P1'
_symmetry_Int_Tables_number	1
_symmetry_cell_setting	triclinic
loop_
_symmetry_equiv_pos_as_xyz
  x,y,z
_cell_length_a	16.992694
_cell_length_b	10.540539
_cell_length_c	15.455313
_cell_angle_alpha	92.694186
_cell_angle_beta	87.142206
_cell_angle_gamma	87.596857
loop_
_atom_site_label
_atom_site_type_symbol
_atom_site_fract_x
_atom_site_fract_y
_atom_site_fract_z
O1	O	1.045302	0.264111	-0.072015
O2	O	1.545302	0.764111	0.427985
O3	O	0.817001	0.261155	-0.072041
O4	O	1.317001	0.761155	0.427959
O5	O	0.936360	0.078379	-0.072026
O6	O	1.436360	0.578379	0.427974
O7	O	0.925943	0.446887	-0.072030
O8	O	1.425943	0.946887	0.427970
O9	O	0.929534	0.088785	0.072235
O10	O	1.429534	0.588785	0.572235
O11	O	0.810175	0.271561	0.072220
O12	O	1.310175	0.771561	0.572220
O13	O	1.038476	0.274517	0.072246
O14	O	1.538476	0.774517	0.572246
Cu15	Cu	0.923702	0.273989	0.085405
Cu16	Cu	1.423702	0.773989	0.585405
Cu17	Cu	0.931774	0.261683	-0.085200
Cu18	Cu	1.431774	0.761683	0.414800
O19	O	0.919117	0.457293	0.072232
O20	O	1.419117	0.957293	0.572232
C21	C	0.784354	0.262557	0.000086
C22	C	1.284354	0.762557	0.500086
C23	C	0.697247	0.251216	0.000077
C24	C	1.197247	0.751216	0.500077
C25	C	0.647619	0.360636	0.000076
C26	C	1.147619	0.860636	0.500076
C27	C	0.565773	0.349973	0.000088
C28	C	1.065773	0.849973	0.500088
C29	C	0.533555	0.229889	0.000094
C30	C	1.033555	0.729889	0.500094
C31	C	0.583189	0.120461	0.000097
C32	C	1.083189	0.620461	0.500097
C33	C	0.665034	0.131125	0.000092
C34	C	1.165034	0.631125	0.500092
C35	C	0.289709	0.185692	0.000118
C36	C	0.789709	0.685692	0.500118
C37	C	0.207858	0.175036	0.000121
C38	C	0.707858	0.675036	0.500121
C39	C	0.190446	0.404549	0.000114
C40	C	0.690446	0.904549	0.500114
C41	C	0.272294	0.415202	0.000103
C42	C	0.772294	0.915202	0.500103
C43	C	0.321921	0.305774	0.000110
C44	C	0.821921	0.805774	0.500110
N45	N	0.449895	0.218988	0.000104
N46	N	0.949895	0.718988	0.500104
N47	N	0.405579	0.316677	0.000107
N48	N	0.905579	0.816677	0.500107
C49	C	0.932166	0.036211	0.000103
C50	C	1.432166	0.536211	0.500103
C51	C	0.929829	-0.104941	0.000098
C52	C	1.429829	0.395059	0.500098
C53	C	0.840284	-0.296163	-0.000236
C54	C	1.340284	0.203837	0.499764
C55	C	0.842638	-0.149316	0.000089
C56	C	1.342638	0.350684	0.500089
C57	C	0.967891	-0.157014	0.082483
C58	C	1.467891	0.342986	0.582483
C59	C	0.964912	-0.303812	0.082552
C60	C	1.464912	0.196188	0.582552
C61	C	0.974447	-0.316010	-0.081500
C62	C	1.474447	0.183990	0.418500
C63	C	0.975302	-0.169037	-0.082589
C64	C	1.475302	0.330963	0.417411
C65	C	1.071122	0.273115	0.000117
C66	C	1.571122	0.773115	0.500117
C67	C	1.158230	0.284456	0.000121
C68	C	1.658230	0.784456	0.500121
C69	C	0.923311	0.499461	0.000101
C70	C	1.423311	0.999461	0.500101
C71	C	0.925648	0.640612	0.000100
C72	C	1.425648	1.140612	0.500100
N73	N	0.918030	0.282645	0.205400
N74	N	1.418030	0.782645	0.705400
N75	N	0.937452	0.253018	-0.205195
N76	N	1.437452	0.753018	0.294805
C77	C	0.968756	0.205027	0.250801
C78	C	1.468756	0.705027	0.750801
C79	C	0.964474	0.211585	0.341608
C80	C	1.464474	0.711585	0.841608
C81	C	0.909469	0.295768	0.387013
C82	C	1.409469	0.795768	0.887013
C83	C	0.858738	0.373389	0.341607
C84	C	1.358738	0.873389	0.841607
C85	C	0.863017	0.366823	0.250801
C86	C	1.363017	0.866823	0.750801
C87	C	0.891000	0.324073	0.658593
C88	C	1.391000	0.824073	1.158593
C89	C	0.886727	0.330635	0.749405
C90	C	1.386727	0.830635	1.249405
C91	C	0.992462	0.168829	0.749400
C92	C	1.492462	0.668829	1.249400
C93	C	0.996739	0.162277	0.658592
C94	C	1.496739	0.662277	1.158592
C95	C	0.946005	0.239893	0.613193
C96	C	1.446005	0.739893	1.113193
N97	N	0.905093	0.302477	0.479833
N98	N	1.405093	0.802477	0.979833
N99	N	0.950379	0.233177	0.520375
N100	N	1.450379	0.733177	1.020375
H101	H	0.812416	-0.113837	-0.058968
H102	H	1.312416	0.386163	0.441032
C103	C	1.048259	0.083447	0.799345
C104	C	1.548259	0.583447	1.299345
N105	N	1.090285	0.019129	0.836965
N106	N	1.590285	0.519129	1.336965
C107	C	0.797523	-0.344609	-0.080045
C108	C	1.297523	0.155391	0.419955
N109	N	0.765313	-0.381111	-0.140157
N110	N	1.265313	0.118889	0.359843
C111	C	0.135851	0.524912	0.000116
C112	C	0.635851	1.024912	0.500116
N113	N	0.094728	0.615574	0.000123
N114	N	0.594728	1.115574	0.500123
H115	H	0.947484	-0.135239	-0.143535
H116	H	1.447484	0.364761	0.356465
C117	C	0.511184	0.470346	0.000103
C118	C	1.011184	0.970346	0.500103
N119	N	0.470068	0.561017	0.000121
N120	N	0.970068	1.061017	0.500121
C121	C	0.919073	-0.339546	0.165735
C122	C	1.419073	0.160454	0.665735
N123	N	0.884544	-0.366453	0.228389
N124	N	1.384544	0.133547	0.728389
C125	C	1.049384	-0.360902	0.087624
C126	C	1.549384	0.139098	0.587624
N127	N	1.113007	-0.403896	0.091450
N128	N	1.613007	0.096104	0.591450
H129	H	0.813948	0.441928	0.378581
H130	H	1.313948	0.941928	0.878581
H131	H	0.705441	0.042024	0.000091
H132	H	1.205441	0.542024	0.500091
C133	C	1.029266	0.112418	0.200863
C134	C	1.529266	0.612418	0.700863
N135	N	1.074841	0.042657	0.163252
N136	N	1.574841	0.542657	0.663252
H137	H	0.821710	0.430026	0.213837
H138	H	1.321710	0.930026	0.713837
H139	H	1.037451	-0.357811	-0.082047
H140	H	1.537451	0.142189	0.417953
C141	C	0.683050	0.492738	0.000071
C142	C	1.183050	0.992738	0.500071
N143	N	0.709734	0.592242	0.000071
N144	N	1.209734	1.092242	0.500071
C145	C	0.826212	0.423243	0.799349
C146	C	1.326212	0.923243	1.299349
N147	N	0.780636	0.492993	0.836967
N148	N	1.280636	0.992993	1.336967
C149	C	0.835293	0.409629	0.608666
C150	C	1.335293	0.909629	1.108666
N151	N	0.793369	0.474136	0.571058
N152	N	1.293369	0.974136	1.071058
C153	C	1.020258	0.126167	0.391544
C154	C	1.520258	0.626167	0.891544
N155	N	1.062270	0.061813	0.429155
N156	N	1.562270	0.561813	0.929155
C157	C	0.790195	-0.335226	0.079139
C158	C	1.290195	0.164774	0.579139
N159	N	0.752473	-0.364637	0.138932
N160	N	1.252473	0.135363	0.638932
H161	H	0.298519	0.512986	0.000088
H162	H	0.798519	1.012986	0.500088
C163	C	1.057245	0.069662	0.608653
C164	C	1.557245	0.569662	1.108653
N165	N	1.102818	-0.000096	0.571039
N166	N	1.602818	0.499904	1.071039
C167	C	0.793943	-0.091033	0.079998
C168	C	1.293943	0.408967	0.579998
N169	N	0.757265	-0.047136	0.140190
N170	N	1.257265	0.452864	0.640190
H171	H	0.181630	0.077244	0.000125
H172	H	0.681630	0.577244	0.500125
C173	C	0.547747	-0.011633	0.000106
C174	C	1.047747	0.488367	0.500106
N175	N	0.521054	-0.111129	0.000109
N176	N	1.021054	0.388871	0.500109
C177	C	0.344288	0.065316	0.000121
C178	C	0.844288	0.565316	0.500121
N179	N	0.385400	-0.025357	0.000121
N180	N	0.885400	0.474643	0.500121
H181	H	1.031777	-0.128883	0.085553
H182	H	1.531777	0.371117	0.585553
H183	H	0.935843	-0.112522	0.143784
H184	H	1.435843	0.387478	0.643784
H185	H	1.039106	-0.139658	-0.087557
H186	H	1.539106	0.360342	0.412443
C187	C	0.940313	-0.368023	-0.165857
C188	C	1.440313	0.131977	0.334143
N189	N	0.914593	-0.407198	-0.229391
N190	N	1.414593	0.092802	0.270609
