data_functionalizedCrystal
_audit_creation_method	'MofGen! by Chris Wilmer'
_symmetry_space_group_name_H-M	'P1'
_symmetry_Int_Tables_number	1
_symmetry_cell_setting	triclinic
loop_
_symmetry_equiv_pos_as_xyz
  x,y,z
_cell_length_a	23.532407
_cell_length_b	22.610064
_cell_length_c	23.532416
_cell_angle_alpha	90.006497
_cell_angle_beta	97.149538
_cell_angle_gamma	90.002839
loop_
_atom_site_label
_atom_site_type_symbol
_atom_site_fract_x
_atom_site_fract_y
_atom_site_fract_z
O1	O	0.755266	0.049108	-0.069127
O2	O	1.088599	0.382441	0.264207
O3	O	1.421932	0.715774	0.597540
O4	O	0.589403	0.049125	-0.079130
O5	O	0.922736	0.382458	0.254203
O6	O	1.256069	0.715791	0.587537
O7	O	0.677333	0.049116	0.008803
O8	O	1.010666	0.382449	0.342136
O9	O	1.344000	0.715782	0.675470
O10	O	0.667335	0.049117	-0.157060
O11	O	1.000668	0.382450	0.176274
O12	O	1.334002	0.715784	0.509607
O13	O	0.677318	-0.049254	0.008790
O14	O	1.010651	0.284080	0.342123
O15	O	1.343984	0.617413	0.675457
O16	O	0.589387	-0.049244	-0.079143
O17	O	0.922720	0.284089	0.254191
O18	O	1.256054	0.617422	0.587524
O19	O	0.755250	-0.049261	-0.069140
O20	O	1.088583	0.284072	0.264194
O21	O	1.421917	0.617405	0.597527
Zn22	Zn	0.672316	-0.064871	-0.074143
Zn23	Zn	1.005649	0.268462	0.259190
Zn24	Zn	1.338983	0.601795	0.592523
Zn25	Zn	0.672337	0.064734	-0.074126
Zn26	Zn	1.005670	0.398068	0.259207
Zn27	Zn	1.339003	0.731401	0.592540
O28	O	0.667320	-0.049252	-0.157073
O29	O	1.000653	0.284081	0.176261
O30	O	1.333986	0.617414	0.509594
C31	C	0.568179	-0.000058	-0.078882
C32	C	0.901512	0.333276	0.254452
C33	C	1.234845	0.666609	0.587785
C34	C	0.504962	-0.000051	-0.078116
C35	C	0.838295	0.333282	0.255218
C36	C	1.171628	0.666616	0.588551
N37	N	0.672306	-0.153324	-0.074154
N38	N	1.005640	0.180010	0.259179
N39	N	1.338973	0.513343	0.592512
C40	C	0.105860	-0.000078	-0.125349
C41	C	0.439193	0.333256	0.207984
C42	C	0.772527	0.666589	0.541318
C43	C	0.046460	-0.000081	-0.124638
C44	C	0.379793	0.333252	0.208696
C45	C	0.713127	0.666586	0.542029
O46	O	0.009717	-0.000102	-0.168423
O47	O	0.343050	0.333231	0.164910
O48	O	0.676383	0.666564	0.498243
N49	N	0.023832	-0.000081	-0.072361
N50	N	0.357165	0.333253	0.260972
N51	N	0.690499	0.666586	0.594305
C52	C	0.060608	-0.000082	-0.020793
C53	C	0.393941	0.333251	0.312540
C54	C	0.727275	0.666584	0.645873
O55	O	0.035907	-0.000083	0.023737
O56	O	0.369240	0.333250	0.357070
O57	O	0.702574	0.666584	0.690403
C58	C	0.120007	-0.000083	-0.021506
C59	C	0.453340	0.333250	0.311828
C60	C	0.786674	0.666584	0.645161
C61	C	0.142631	-0.000078	-0.073785
C62	C	0.475965	0.333256	0.259548
C63	C	0.809298	0.666589	0.592882
C64	C	0.128485	-0.000073	-0.177624
C65	C	0.461818	0.333261	0.155709
C66	C	0.795152	0.666594	0.489042
C67	C	0.187881	-0.000068	-0.178335
C68	C	0.521215	0.333265	0.154998
C69	C	0.854548	0.666599	0.488331
C70	C	0.224652	-0.000068	-0.126771
C71	C	0.557986	0.333265	0.206562
C72	C	0.891319	0.666599	0.539895
C73	C	0.202028	-0.000073	-0.074496
C74	C	0.535361	0.333260	0.258837
C75	C	0.868694	0.666594	0.592170
C76	C	0.156782	-0.000089	0.030062
C77	C	0.490115	0.333244	0.363395
C78	C	0.823449	0.666578	0.696729
C79	C	0.216184	-0.000090	0.029345
C80	C	0.549518	0.333243	0.362679
C81	C	0.882851	0.666577	0.696012
C82	C	0.238809	-0.000085	-0.022934
C83	C	0.572142	0.333249	0.310399
C84	C	0.905475	0.666582	0.643733
C85	C	0.298195	-0.000068	-0.023643
C86	C	0.631528	0.333265	0.309690
C87	C	0.964862	0.666598	0.643023
N88	N	0.320823	-0.000069	-0.075919
N89	N	0.654156	0.333265	0.257414
N90	N	0.987490	0.666598	0.590747
C91	C	0.284052	-0.000069	-0.127483
C92	C	0.617385	0.333265	0.205850
C93	C	0.950718	0.666598	0.539183
C94	C	-0.064135	-0.000082	-0.019302
C95	C	0.269199	0.333251	0.314031
C96	C	0.602532	0.666584	0.647365
C97	C	-0.123532	-0.000077	-0.018589
C98	C	0.209801	0.333256	0.314744
C99	C	0.543134	0.666589	0.648077
C100	C	-0.137677	-0.000077	-0.122434
C101	C	0.195657	0.333256	0.210900
C102	C	0.528990	0.666590	0.544233
C103	C	-0.078278	-0.000078	-0.123146
C104	C	0.255056	0.333256	0.210188
C105	C	0.588389	0.666589	0.543521
C106	C	-0.041507	-0.000083	-0.071578
C107	C	0.291827	0.333251	0.261755
C108	C	0.625160	0.666584	0.595089
C109	C	0.408788	-0.000058	-0.128973
C110	C	0.742122	0.333275	0.204360
C111	C	1.075455	0.666608	0.537694
C112	C	0.468190	-0.000051	-0.129680
C113	C	0.801524	0.333282	0.203654
C114	C	1.134857	0.666616	0.536987
C115	C	0.482329	-0.000054	-0.025836
C116	C	0.815663	0.333279	0.307498
C117	C	1.148996	0.666612	0.640831
C118	C	0.422933	-0.000058	-0.025129
C119	C	0.756266	0.333275	0.308205
C120	C	1.089599	0.666608	0.641538
C121	C	0.386163	-0.000062	-0.076702
C122	C	0.719496	0.333271	0.256631
C123	C	1.052830	0.666604	0.589965
O124	O	0.334973	-0.000050	0.020119
O125	O	0.668306	0.333284	0.353453
O126	O	1.001640	0.666617	0.686786
O127	O	0.308761	-0.000076	-0.172006
O128	O	0.642094	0.333257	0.161327
O129	O	0.975428	0.666591	0.494660
C130	C	0.711274	-0.561969	-0.035196
C131	C	1.044607	-0.228636	0.298138
C132	C	1.377941	0.104698	0.631471
C133	C	0.711277	-0.623889	-0.035191
C134	C	1.044610	-0.290556	0.298142
C135	C	1.377944	0.042778	0.631475
O136	O	0.744384	-0.655911	-0.002076
O137	O	1.077718	-0.322578	0.331258
O138	O	1.411051	0.010755	0.664591
N139	N	0.672336	-0.654861	-0.074114
N140	N	1.005670	-0.321527	0.259219
N141	N	1.339003	0.011806	0.592552
C142	C	0.633386	-0.623909	-0.113040
C143	C	0.966720	-0.290576	0.220293
C144	C	1.300053	0.042757	0.553626
O145	O	0.600264	-0.655939	-0.146147
O146	O	0.933597	-0.322606	0.187187
O147	O	1.266931	0.010728	0.520520
C148	C	0.633381	-0.561991	-0.113041
C149	C	0.966714	-0.228657	0.220292
C150	C	1.300048	0.104676	0.553625
C151	C	0.672328	-0.531022	-0.074120
C152	C	1.005661	-0.197689	0.259214
C153	C	1.338995	0.135645	0.592547
C154	C	0.750217	-0.531000	0.003724
C155	C	1.083551	-0.197667	0.337057
C156	C	1.416884	0.135666	0.670390
C157	C	0.750215	-0.469085	0.003719
C158	C	1.083548	-0.135751	0.337052
C159	C	1.416882	0.197582	0.670385
C160	C	0.711269	-0.438138	-0.035206
C161	C	1.044603	-0.104804	0.298128
C162	C	1.377936	0.228529	0.631461
C163	C	0.672326	-0.469106	-0.074125
C164	C	1.005659	-0.135773	0.259209
C165	C	1.338992	0.197560	0.592542
C166	C	0.594429	-0.531040	-0.151964
C167	C	0.927762	-0.197707	0.181369
C168	C	1.261095	0.135626	0.514703
C169	C	0.594427	-0.469117	-0.151961
C170	C	0.927760	-0.135784	0.181372
C171	C	1.261093	0.197549	0.514705
C172	C	0.633374	-0.438149	-0.113040
C173	C	0.966707	-0.104816	0.220294
C174	C	1.300040	0.228518	0.553627
C175	C	0.633378	-0.376244	-0.113054
C176	C	0.966711	-0.042910	0.220280
C177	C	1.300044	0.290423	0.553613
N178	N	0.672318	-0.345272	-0.074131
N179	N	1.005652	-0.011939	0.259203
N180	N	1.338985	0.321395	0.592536
C181	C	0.711264	-0.376219	-0.035206
C182	C	1.044597	-0.042886	0.298127
C183	C	1.377931	0.290448	0.631460
C184	C	0.633399	-0.753943	-0.113035
C185	C	0.966733	-0.420610	0.220299
C186	C	1.300066	-0.087276	0.553632
C187	C	0.633407	-0.815861	-0.113037
C188	C	0.966740	-0.482527	0.220296
C189	C	1.300073	-0.149194	0.553630
C190	C	0.711297	-0.815836	-0.035187
C191	C	1.044630	-0.482503	0.298146
C192	C	1.377964	-0.149169	0.631480
C193	C	0.711292	-0.753917	-0.035188
C194	C	1.044625	-0.420584	0.298145
C195	C	1.377958	-0.087251	0.631479
C196	C	0.672340	-0.722971	-0.074112
C197	C	1.005673	-0.389638	0.259222
C198	C	1.339007	-0.056305	0.592555
C199	C	0.711256	-0.246192	-0.035220
C200	C	1.044590	0.087142	0.298113
C201	C	1.377923	0.420475	0.631446
C202	C	0.711252	-0.184271	-0.035230
C203	C	1.044586	0.149063	0.298103
C204	C	1.377919	0.482396	0.631436
C205	C	0.633360	-0.184301	-0.113078
C206	C	0.966694	0.149033	0.220255
C207	C	1.300027	0.482366	0.553589
C208	C	0.633366	-0.246216	-0.113070
C209	C	0.966700	0.087117	0.220263
C210	C	1.300033	0.420450	0.553596
C211	C	0.672317	-0.277160	-0.074137
C212	C	1.005650	0.056173	0.259197
C213	C	1.338983	0.389506	0.592530
O214	O	0.600285	-0.344182	-0.146151
O215	O	0.933619	-0.010849	0.187182
O216	O	1.266952	0.322484	0.520516
O217	O	0.744376	-0.344182	-0.002101
O218	O	1.077709	-0.010848	0.331233
O219	O	1.411042	0.322485	0.664566
C220	C	0.776474	-0.000078	-0.069388
C221	C	1.109807	0.333256	0.263945
C222	C	1.443141	0.666589	0.597279
C223	C	0.839691	-0.000080	-0.070154
C224	C	1.173024	0.333253	0.263180
C225	C	1.506358	0.666586	0.596513
C226	C	0.677070	-0.000068	0.030013
C227	C	1.010403	0.333266	0.363346
C228	C	1.343737	0.666599	0.696679
C229	C	0.676302	-0.000064	0.093229
C230	C	1.009635	0.333269	0.426563
C231	C	1.342969	0.666603	0.759896
N232	N	0.672351	0.153187	-0.074111
N233	N	1.005684	0.486520	0.259223
N234	N	1.339018	0.819854	0.592556
C235	C	0.673045	0.053557	0.366480
C236	C	1.006379	0.386890	0.699814
C237	C	1.339712	0.720223	1.033147
C238	C	0.673758	0.053558	0.307080
C239	C	1.007092	0.386891	0.640414
C240	C	1.340425	0.720224	0.973747
O241	O	0.674154	0.099159	0.276362
O242	O	1.007487	0.432492	0.609695
O243	O	1.340821	0.765825	0.943028
N244	N	0.674103	-0.000064	0.277371
N245	N	1.007436	0.333269	0.610705
N246	N	1.340769	0.666603	0.944038
C247	C	0.673740	-0.053690	0.307066
C248	C	1.007073	0.279643	0.640400
C249	C	1.340407	0.612977	0.973733
O250	O	0.674099	-0.099299	0.276342
O251	O	1.007432	0.234034	0.609675
O252	O	1.340766	0.567367	0.943009
C253	C	0.673031	-0.053690	0.366466
C254	C	1.006364	0.279643	0.699799
C255	C	1.339698	0.612977	1.033132
C256	C	0.672681	-0.000065	0.396171
C257	C	1.006014	0.333268	0.729504
C258	C	1.339347	0.666602	1.062838
C259	C	0.672696	0.107178	0.396186
C260	C	1.006029	0.440511	0.729519
C261	C	1.339362	0.773844	1.062852
C262	C	0.671981	0.107177	0.455582
C263	C	1.005315	0.440510	0.788915
C264	C	1.338648	0.773843	1.122248
C265	C	0.671617	0.053555	0.485272
C266	C	1.004950	0.386888	0.818605
C267	C	1.338284	0.720222	1.151939
C268	C	0.671967	-0.000066	0.455567
C269	C	1.005300	0.333267	0.788900
C270	C	1.338633	0.666601	1.122233
C271	C	0.672672	-0.107315	0.396160
C272	C	1.006006	0.226018	0.729493
C273	C	1.339339	0.559351	1.062827
C274	C	0.671964	-0.107311	0.455564
C275	C	1.005297	0.226023	0.788897
C276	C	1.338630	0.559356	1.122230
C277	C	0.671613	-0.053686	0.485269
C278	C	1.004947	0.279648	0.818602
C279	C	1.338280	0.612981	1.151935
C280	C	0.670888	-0.053688	0.544653
C281	C	1.004221	0.279645	0.877986
C282	C	1.337555	0.612978	1.211320
N283	N	0.670544	-0.000067	0.574362
N284	N	1.003877	0.333266	0.907695
N285	N	1.337210	0.666600	1.241029
C286	C	0.670908	0.053555	0.544671
C287	C	1.004241	0.386888	0.878005
C288	C	1.337575	0.720222	1.211338
C289	C	0.675230	-0.053686	0.182323
C290	C	1.008563	0.279648	0.515657
C291	C	1.341896	0.612981	0.848990
C292	C	0.675935	-0.053686	0.122925
C293	C	1.009268	0.279647	0.456258
C294	C	1.342601	0.612980	0.789591
C295	C	0.675954	0.053562	0.122943
C296	C	1.009287	0.386895	0.456276
C297	C	1.342621	0.720228	0.789610
C298	C	0.675245	0.053561	0.182342
C299	C	1.008578	0.386895	0.515676
C300	C	1.341912	0.720228	0.849009
C301	C	0.674885	-0.000064	0.212033
C302	C	1.008219	0.333269	0.545366
C303	C	1.341552	0.666603	0.878699
C304	C	0.669408	0.053549	0.669407
C305	C	1.002741	0.386882	1.002740
C306	C	1.336075	0.720216	1.336073
C307	C	0.668691	0.053543	0.728808
C308	C	1.002025	0.386876	1.062141
C309	C	1.335358	0.720210	1.395474
C310	C	0.668675	-0.053704	0.728784
C311	C	1.002008	0.279629	1.062118
C312	C	1.335342	0.612962	1.395451
C313	C	0.669389	-0.053699	0.669388
C314	C	1.002722	0.279634	1.002722
C315	C	1.336055	0.612968	1.336055
C316	C	0.669757	-0.000068	0.639701
C317	C	1.003090	0.333266	0.973035
C318	C	1.336424	0.666599	1.306368
O319	O	0.670494	-0.099266	0.575410
O320	O	1.003827	0.234067	0.908743
O321	O	1.337161	0.567400	1.242076
O322	O	0.670557	0.099157	0.575404
O323	O	1.003890	0.432490	0.908737
O324	O	1.337223	0.765823	1.242071
C325	C	0.667577	-0.000070	0.821717
C326	C	1.000910	0.333263	1.155050
C327	C	1.334243	0.666596	1.488384
C328	C	0.668327	-0.000079	0.758498
C329	C	1.001660	0.333255	1.091831
C330	C	1.334994	0.666588	1.425165
H331	H	0.486607	-0.000046	-0.172254
H332	H	0.819941	0.333287	0.161080
H333	H	1.153274	0.666620	0.494413
H334	H	0.562714	-0.556246	-0.183657
H335	H	0.896048	-0.222913	0.149676
H336	H	1.229381	0.110420	0.483009
H337	H	0.138372	-0.000094	0.072633
H338	H	0.471706	0.333239	0.405967
H339	H	0.805039	0.666573	0.739300
H340	H	0.668404	0.097213	0.752991
H341	H	1.001737	0.430546	1.086324
H342	H	1.335071	0.763880	1.419657
F343	F	0.668283	-0.110769	0.760393
F344	F	1.001616	0.222564	1.093726
F345	F	1.334949	0.555897	1.427060
H346	H	0.676249	0.097223	0.098758
H347	H	1.009582	0.430557	0.432091
H348	H	1.342916	0.763890	0.765425
F349	F	0.752746	-0.848784	0.006240
F350	F	1.086079	-0.515451	0.339574
F351	F	1.419412	-0.182117	0.672907
F352	F	0.521474	-0.000055	0.029039
F353	F	0.854807	0.333278	0.362373
F354	F	1.188141	0.666611	0.695706
F355	F	0.752708	-0.151315	0.006196
F356	F	1.086041	0.182019	0.339529
F357	F	1.419374	0.515352	0.672863
H358	H	0.742973	-0.271379	-0.003516
H359	H	1.076306	0.061954	0.329817
H360	H	1.409639	0.395287	0.663150
F361	F	0.791665	-0.436131	0.045147
F362	F	1.124998	-0.102798	0.378480
F363	F	1.458331	0.230535	0.711813
F364	F	0.752744	-0.720964	0.006238
F365	F	1.086077	-0.387631	0.339572
F366	F	1.419410	-0.054297	0.672905
F367	F	0.674841	-0.110765	0.213916
F368	F	1.008174	0.222568	0.547249
F369	F	1.341508	0.555902	0.880583
F370	F	0.398853	-0.000065	0.030512
F371	F	0.732187	0.333269	0.363846
F372	F	1.065520	0.666602	0.697179
F373	F	0.791672	-0.563928	0.045156
F374	F	1.125005	-0.230595	0.378489
F375	F	1.458338	0.102739	0.711823
F376	F	0.369663	-0.000063	-0.183863
F377	F	0.702997	0.333270	0.149470
F378	F	1.036330	0.666604	0.482803
F379	F	0.676295	-0.110761	0.091315
F380	F	1.009628	0.222572	0.424648
F381	F	1.342962	0.555905	0.757981
F382	F	0.671614	0.164252	0.487189
F383	F	1.004947	0.497586	0.820523
F384	F	1.338281	0.830919	1.153856
F385	F	0.591961	-0.848814	-0.154470
F386	F	0.925295	-0.515480	0.178864
F387	F	1.258628	-0.182147	0.512197
F388	F	0.673084	0.164254	0.364596
F389	F	1.006418	0.497588	0.697929
F390	F	1.339751	0.830921	1.031263
F391	F	0.673039	-0.164392	0.364558
F392	F	1.006373	0.168942	0.697891
F393	F	1.339706	0.502275	1.031224
F394	F	0.591914	-0.151355	-0.154503
F395	F	0.925247	0.181978	0.178830
F396	F	1.258581	0.515311	0.512163
H397	H	0.601682	-0.728750	-0.144736
H398	H	0.935015	-0.395417	0.188598
H399	H	1.268348	-0.062083	0.521931
H400	H	0.562706	-0.443924	-0.183657
H401	H	0.896039	-0.110591	0.149676
H402	H	1.229372	0.222742	0.483009
H403	H	0.674959	0.097228	0.206524
H404	H	1.008292	0.430561	0.539858
H405	H	1.341625	0.763894	0.873191
H406	H	0.669708	0.097221	0.645243
H407	H	1.003042	0.430554	0.978576
H408	H	1.336375	0.763887	1.311909
H409	H	0.669651	-0.097365	0.645198
H410	H	1.002984	0.235969	0.978531
H411	H	1.336318	0.569302	1.311865
H412	H	0.671671	-0.150980	0.479734
H413	H	1.005005	0.182353	0.813068
H414	H	1.338338	0.515687	1.146401
F415	F	0.089358	-0.000073	-0.232511
F416	F	0.422691	0.333261	0.100822
F417	F	0.756025	0.666594	0.434156
F418	F	0.211952	-0.000065	-0.233979
F419	F	0.545285	0.333268	0.099354
F420	F	0.878618	0.666602	0.432688
F421	F	-0.176822	-0.000079	-0.177313
F422	F	0.156511	0.333254	0.156020
F423	F	0.489845	0.666587	0.489353
F424	F	-0.054205	-0.000073	-0.178788
F425	F	0.279129	0.333260	0.154545
F426	F	0.612462	0.666594	0.487879
H427	H	-0.141947	-0.000073	0.023982
H428	H	0.191386	0.333261	0.357315
H429	H	0.524719	0.666594	0.690648
F430	F	0.591920	-0.279174	-0.154502
F431	F	0.925253	0.054159	0.178832
F432	F	1.258587	0.387492	0.512165
H433	H	-0.034198	-0.000081	0.022693
H434	H	0.299135	0.333252	0.356027
H435	H	0.632468	0.666586	0.689360
H436	H	0.246121	-0.000095	0.071339
H437	H	0.579454	0.333239	0.404672
H438	H	0.912788	0.666572	0.738006
