data_functionalizedCrystal
_audit_creation_method	'MofGen! by Chris Wilmer'
_symmetry_space_group_name_H-M	'P1'
_symmetry_Int_Tables_number	1
_symmetry_cell_setting	triclinic
loop_
_symmetry_equiv_pos_as_xyz
  x,y,z
_cell_length_a	10.967926
_cell_length_b	12.811415
_cell_length_c	9.482944
_cell_angle_alpha	105.739298
_cell_angle_beta	88.427289
_cell_angle_gamma	85.527577
loop_
_atom_site_label
_atom_site_type_symbol
_atom_site_fract_x
_atom_site_fract_y
_atom_site_fract_z
O1	O	1.617406	0.114434	-0.269237
O2	O	1.267380	0.139607	-0.178222
O3	O	1.448344	-0.028383	-0.245715
O4	O	1.436441	0.282423	-0.201744
O5	O	1.413986	-0.057235	-0.482704
O6	O	1.233022	0.110755	-0.415211
O7	O	1.583048	0.085582	-0.506226
Cu8	Cu	1.404898	0.095534	-0.482357
Cu9	Cu	1.445530	0.129655	-0.202090
O10	O	1.402083	0.253572	-0.438733
C11	C	1.205342	0.125529	-0.285431
C12	C	1.071679	0.126555	-0.251808
C13	C	0.994289	0.112066	-0.359584
C14	C	0.856140	0.113126	-0.324835
C15	C	1.429445	-0.082505	-0.369011
C16	C	1.424305	-0.200786	-0.383313
C17	C	1.452087	-0.391579	-0.151787
C18	C	1.447259	-0.502714	-0.165219
C19	C	1.409812	-0.534191	-0.423603
C20	C	1.414641	-0.423056	-0.410172
C21	C	1.435780	-0.351754	-0.274260
C22	C	1.440617	-0.240618	-0.260832
C23	C	1.403162	-0.272096	-0.519213
C24	C	1.398334	-0.383231	-0.532644
C25	C	1.645086	0.099660	-0.399013
C26	C	1.778751	0.098635	-0.432628
C27	C	1.420983	0.307694	-0.315434
C28	C	1.426124	0.425976	-0.301122
N29	N	1.376328	0.071535	-0.679484
C30	C	1.437094	0.122575	-0.760177
C31	C	1.413333	0.102597	-0.924276
N32	N	1.474109	0.153645	-0.004967
H33	H	0.820127	0.126313	-0.206831
N34	N	1.463309	-0.163699	-0.114219
H35	H	1.463865	-0.087246	-0.124281
H36	H	1.544986	-0.186590	-0.080050
N37	N	1.566339	0.231119	-0.935586
H38	H	1.570244	0.234409	-0.828195
H39	H	1.540859	0.306072	-0.945849
H40	H	1.306716	0.013044	-0.731888
H41	H	1.035660	0.139741	-0.133811
H42	H	1.506715	0.181059	-0.707777
H43	H	1.469311	-0.333525	-0.041126
N44	N	1.321121	0.025109	-0.993667
H45	H	1.317220	0.021818	-1.101058
H46	H	1.237864	0.051530	-0.942818
H47	H	1.460533	-0.535134	-0.065487
N48	N	1.375547	-0.460142	-0.679230
H49	H	1.442573	-0.458061	-0.753355
H50	H	1.293811	-0.437252	-0.713258
H51	H	0.814762	0.085442	-0.550634
H52	H	1.030308	0.098871	-0.477583
H53	H	1.392591	-0.592263	-0.534253
H54	H	1.389888	-0.239661	-0.618941
