data_functionalizedCrystal
_audit_creation_method	'MofGen! by Chris Wilmer'
_symmetry_space_group_name_H-M	'P1'
_symmetry_Int_Tables_number	1
_symmetry_cell_setting	triclinic
loop_
_symmetry_equiv_pos_as_xyz
  x,y,z
_cell_length_a	25.639242
_cell_length_b	29.839131
_cell_length_c	25.639233
_cell_angle_alpha	89.980415
_cell_angle_beta	89.977834
_cell_angle_gamma	90.036947
loop_
_atom_site_label
_atom_site_type_symbol
_atom_site_fract_x
_atom_site_fract_y
_atom_site_fract_z
Zn1	Zn	0.799215	-0.178962	-0.295739
Zn2	Zn	1.132548	0.154372	0.037594
Zn3	Zn	1.465882	0.487705	0.370927
Zn4	Zn	0.799134	-0.254076	-0.208302
Zn5	Zn	1.132468	0.079257	0.125031
Zn6	Zn	1.465801	0.412591	0.458364
Zn7	Zn	0.711791	-0.178955	-0.208303
Zn8	Zn	1.045125	0.154378	0.125030
Zn9	Zn	1.378458	0.487712	0.458363
Zn10	Zn	0.711732	-0.254059	-0.295692
Zn11	Zn	1.045066	0.079274	0.037641
Zn12	Zn	1.378399	0.412607	0.370975
O13	O	0.755468	-0.216513	-0.252009
O14	O	1.088802	0.116820	0.081324
O15	O	1.422135	0.450154	0.414657
O16	O	0.872370	-0.188935	-0.284160
O17	O	1.205703	0.144398	0.049174
O18	O	1.539036	0.477731	0.382507
O19	O	0.787539	-0.244115	-0.135137
O20	O	1.120872	0.089218	0.198196
O21	O	1.454206	0.422551	0.531530
O22	O	0.723447	-0.116089	-0.219922
O23	O	1.056780	0.217245	0.113411
O24	O	1.390114	0.550578	0.446745
O25	O	0.872310	-0.244122	-0.219920
O26	O	1.205644	0.089212	0.113413
O27	O	1.538977	0.422545	0.446746
O28	O	0.787677	-0.116094	-0.284161
O29	O	1.121010	0.217240	0.049173
O30	O	1.454343	0.550573	0.382506
O31	O	0.723369	-0.188924	-0.135138
O32	O	1.056702	0.144409	0.198195
O33	O	1.390035	0.477742	0.531529
O34	O	0.638618	-0.188908	-0.219876
O35	O	0.971952	0.144425	0.113457
O36	O	1.305285	0.477759	0.446790
O37	O	0.723346	-0.244093	-0.368864
O38	O	1.056680	0.089240	-0.035530
O39	O	1.390013	0.422573	0.297803
O40	O	0.638575	-0.244087	-0.284081
O41	O	0.971908	0.089246	0.049253
O42	O	1.305242	0.422580	0.382586
O43	O	0.787619	-0.188919	-0.368898
O44	O	1.120953	0.144414	-0.035565
O45	O	1.454286	0.477747	0.297769
O46	O	0.787482	-0.316941	-0.219875
O47	O	1.120815	0.016392	0.113459
O48	O	1.454149	0.349726	0.446792
O49	O	0.723268	-0.316929	-0.284080
O50	O	1.056601	0.016405	0.049254
O51	O	1.389935	0.349738	0.382587
C52	C	0.619626	-0.216495	-0.251974
C53	C	0.952959	0.116838	0.081360
C54	C	1.286292	0.450171	0.414693
C55	C	0.561512	-0.216499	-0.251971
C56	C	0.894845	0.116835	0.081362
C57	C	1.228178	0.450168	0.414696
C58	C	0.201135	-0.245293	-0.285409
C59	C	0.534468	0.088041	0.047925
C60	C	0.867802	0.421374	0.381258
C61	C	0.146531	-0.245295	-0.285417
C62	C	0.479864	0.088038	0.047916
C63	C	0.813197	0.421371	0.381250
O64	O	0.118282	-0.269755	-0.313817
O65	O	0.451616	0.063578	0.019517
O66	O	0.784949	0.396911	0.352850
N67	N	0.119229	-0.216525	-0.252043
N68	N	0.452563	0.116808	0.081290
N69	N	0.785896	0.450141	0.414623
C70	C	0.146535	-0.187748	-0.218663
C71	C	0.479868	0.145586	0.114670
C72	C	0.813202	0.478919	0.448004
O73	O	0.118299	-0.163276	-0.190277
O74	O	0.451632	0.170057	0.143056
O75	O	0.784966	0.503390	0.476389
C76	C	0.201138	-0.187743	-0.218658
C77	C	0.534472	0.145590	0.114676
C78	C	0.867805	0.478924	0.448009
C79	C	0.228437	-0.216518	-0.252030
C80	C	0.561770	0.116815	0.081303
C81	C	0.895104	0.450149	0.414637
C82	C	0.228434	-0.274065	-0.318778
C83	C	0.561767	0.059268	0.014555
C84	C	0.895100	0.392602	0.347888
C85	C	0.283034	-0.274063	-0.318769
C86	C	0.616367	0.059270	0.014564
C87	C	0.949701	0.392604	0.347897
C88	C	0.310336	-0.245288	-0.285390
C89	C	0.643669	0.088045	0.047943
C90	C	0.977003	0.421379	0.381276
C91	C	0.283037	-0.216516	-0.252021
C92	C	0.616371	0.116818	0.081313
C93	C	0.949704	0.450151	0.414646
C94	C	0.228443	-0.158963	-0.185281
C95	C	0.561776	0.174370	0.148053
C96	C	0.895110	0.507704	0.481386
C97	C	0.283050	-0.158961	-0.185279
C98	C	0.616383	0.174373	0.148055
C99	C	0.949717	0.507706	0.481388
C100	C	0.310349	-0.187736	-0.218651
C101	C	0.643682	0.145598	0.114683
C102	C	0.977015	0.478931	0.448016
C103	C	0.364940	-0.187739	-0.218633
C104	C	0.698273	0.145595	0.114700
C105	C	1.031607	0.478928	0.448034
N106	N	0.392241	-0.216509	-0.252006
N107	N	0.725575	0.116825	0.081327
N108	N	1.058908	0.450158	0.414660
C109	C	0.364939	-0.245283	-0.285385
C110	C	0.698273	0.088050	0.047948
C111	C	1.031606	0.421383	0.381281
C112	C	0.031864	-0.187759	-0.218677
C113	C	0.365198	0.145574	0.114656
C114	C	0.698531	0.478908	0.447989
C115	C	-0.022738	-0.187766	-0.218679
C116	C	0.310595	0.145568	0.114654
C117	C	0.643929	0.478901	0.447987
C118	C	-0.022739	-0.245313	-0.285434
C119	C	0.310595	0.088020	0.047899
C120	C	0.643928	0.421354	0.381233
C121	C	0.031865	-0.245308	-0.285429
C122	C	0.365198	0.088025	0.047904
C123	C	0.698531	0.421358	0.381238
C124	C	0.059166	-0.216529	-0.252051
C125	C	0.392499	0.116804	0.081283
C126	C	0.725832	0.450138	0.414616
C127	C	0.479604	-0.245277	-0.285363
C128	C	0.812938	0.088057	0.047970
C129	C	1.146271	0.421390	0.381303
C130	C	0.534210	-0.245273	-0.285350
C131	C	0.867543	0.088060	0.047984
C132	C	1.200876	0.421393	0.381317
C133	C	0.534206	-0.187724	-0.218597
C134	C	0.867539	0.145609	0.114736
C135	C	1.200872	0.478942	0.448069
C136	C	0.479605	-0.187729	-0.218609
C137	C	0.812938	0.145604	0.114725
C138	C	1.146272	0.478937	0.448058
C139	C	0.452306	-0.216507	-0.251996
C140	C	0.785639	0.116826	0.081337
C141	C	1.118972	0.450160	0.414671
O142	O	0.393223	-0.163290	-0.190249
O143	O	0.726556	0.170043	0.143084
O144	O	1.059890	0.503377	0.476418
O145	O	0.393182	-0.269746	-0.313771
O146	O	0.726515	0.063587	0.019562
O147	O	1.059849	0.396920	0.352896
C148	C	0.755374	-0.333236	-0.251983
C149	C	1.088707	0.000098	0.081350
C150	C	1.422041	0.333431	0.414683
C151	C	0.755381	-0.383170	-0.251990
C152	C	1.088715	-0.049837	0.081344
C153	C	1.422048	0.283497	0.414677
C154	C	0.788965	-0.692807	-0.218627
C155	C	1.122299	-0.359474	0.114707
C156	C	1.455632	-0.026140	0.448040
C157	C	0.789030	-0.880480	-0.218647
C158	C	1.122363	-0.547147	0.114686
C159	C	1.455696	-0.213814	0.448020
O160	O	0.817509	-0.904740	-0.190260
O161	O	1.150843	-0.571406	0.143073
O162	O	1.484176	-0.238073	0.476406
N163	N	0.755577	-0.903955	-0.252049
N164	N	1.088910	-0.570622	0.081285
N165	N	1.422243	-0.237288	0.414618
C166	C	0.722108	-0.880509	-0.285450
C167	C	1.055441	-0.547176	0.047883
C168	C	1.388774	-0.213842	0.381216
O169	O	0.693659	-0.904782	-0.313865
O170	O	1.026992	-0.571449	0.019469
O171	O	1.360326	-0.238115	0.352802
C172	C	0.722046	-0.692837	-0.285432
C173	C	1.055379	-0.359503	0.047901
C174	C	1.388713	-0.026170	0.381235
C175	C	0.755498	-0.669364	-0.252024
C176	C	1.088831	-0.336031	0.081309
C177	C	1.422164	-0.002698	0.414642
C178	C	0.822415	-0.669335	-0.185222
C179	C	1.155748	-0.336001	0.148111
C180	C	1.489081	-0.002668	0.481445
C181	C	0.822396	-0.622419	-0.185215
C182	C	1.155729	-0.289086	0.148118
C183	C	1.489063	0.044247	0.481451
C184	C	0.788928	-0.598976	-0.218613
C185	C	1.122262	-0.265643	0.114720
C186	C	1.455595	0.067690	0.448054
C187	C	0.755479	-0.622449	-0.252018
C188	C	1.088812	-0.289115	0.081316
C189	C	1.422146	0.044218	0.414649
C190	C	0.688580	-0.669391	-0.318836
C191	C	1.021913	-0.336058	0.014497
C192	C	1.355247	-0.002725	0.347831
C193	C	0.688568	-0.622470	-0.318829
C194	C	1.021902	-0.289137	0.014504
C195	C	1.355235	0.044196	0.347837
C196	C	0.722020	-0.598998	-0.285422
C197	C	1.055353	-0.265664	0.047912
C198	C	1.388687	0.067669	0.381245
C199	C	0.721993	-0.552090	-0.285409
C200	C	1.055326	-0.218757	0.047925
C201	C	1.388660	0.114576	0.381258
N202	N	0.755446	-0.528615	-0.252007
N203	N	1.088779	-0.195282	0.081326
N204	N	1.422113	0.138051	0.414660
C205	C	0.788914	-0.552058	-0.218609
C206	C	1.122247	-0.218725	0.114724
C207	C	1.455580	0.114608	0.448058
C208	C	0.722141	-0.979039	-0.285457
C209	C	1.055475	-0.645706	0.047877
C210	C	1.388808	-0.312373	0.381210
C211	C	0.722156	-1.025957	-0.285461
C212	C	1.055489	-0.692624	0.047873
C213	C	1.388823	-0.359291	0.381206
C214	C	0.789079	-1.025925	-0.218658
C215	C	1.122413	-0.692592	0.114676
C216	C	1.455746	-0.359259	0.448009
C217	C	0.789062	-0.979007	-0.218652
C218	C	1.122395	-0.645673	0.114682
C219	C	1.455728	-0.312340	0.448015
C220	C	0.755595	-0.955565	-0.252055
C221	C	1.088928	-0.622231	0.081279
C222	C	1.422261	-0.288898	0.414612
C223	C	0.788872	-0.453533	-0.218597
C224	C	1.122205	-0.120199	0.114736
C225	C	1.455539	0.213134	0.448070
C226	C	0.788849	-0.406613	-0.218592
C227	C	1.122182	-0.073280	0.114742
C228	C	1.455516	0.260054	0.448075
C229	C	0.721928	-0.406649	-0.285396
C230	C	1.055261	-0.073316	0.047937
C231	C	1.388595	0.260018	0.381270
C232	C	0.721949	-0.453564	-0.285400
C233	C	1.055282	-0.120231	0.047933
C234	C	1.388616	0.213102	0.381267
C235	C	0.755425	-0.477005	-0.251999
C236	C	1.088758	-0.143672	0.081335
C237	C	1.422092	0.189662	0.414668
O238	O	0.693533	-0.527802	-0.313784
O239	O	1.026866	-0.194469	0.019549
O240	O	1.360199	0.138865	0.352882
O241	O	0.817366	-0.527777	-0.190207
O242	O	1.150700	-0.194444	0.143126
O243	O	1.484033	0.138889	0.476460
C244	C	0.788984	-0.739723	-0.218633
C245	C	1.122317	-0.406389	0.114700
C246	C	1.455650	-0.073056	0.448033
C247	C	0.755535	-0.763195	-0.252038
C248	C	1.088868	-0.429862	0.081295
C249	C	1.422201	-0.096528	0.414629
C250	C	0.722067	-0.739752	-0.285436
C251	C	1.055400	-0.406419	0.047898
C252	C	1.388733	-0.073085	0.381231
C253	C	0.755549	-0.810113	-0.252042
C254	C	1.088882	-0.476780	0.081291
C255	C	1.422216	-0.143446	0.414625
C256	C	0.789017	-0.833556	-0.218644
C257	C	1.122350	-0.500223	0.114689
C258	C	1.455684	-0.166889	0.448023
C259	C	0.822470	-0.810081	-0.185242
C260	C	1.155803	-0.476748	0.148091
C261	C	1.489137	-0.143414	0.481424
C262	C	0.822451	-0.763166	-0.185235
C263	C	1.155785	-0.429832	0.148098
C264	C	1.489118	-0.096499	0.481431
C265	C	0.688614	-0.763227	-0.318838
C266	C	1.021947	-0.429894	0.014496
C267	C	1.355280	-0.096560	0.347829
C268	C	0.688635	-0.810143	-0.318841
C269	C	1.021968	-0.476809	0.014492
C270	C	1.355301	-0.143476	0.347825
C271	C	0.722102	-0.833585	-0.285443
C272	C	1.055436	-0.500252	0.047890
C273	C	1.388769	-0.166919	0.381223
C274	C	0.891841	-0.216531	-0.252045
C275	C	1.225175	0.116802	0.081288
C276	C	1.558508	0.450136	0.414622
C277	C	0.949955	-0.216539	-0.252060
C278	C	1.283289	0.116794	0.081273
C279	C	1.616622	0.450128	0.414606
C280	C	0.755485	-0.216505	-0.388382
C281	C	1.088819	0.116828	-0.055049
C282	C	1.422152	0.450162	0.278284
C283	C	0.755492	-0.216502	-0.446496
C284	C	1.088826	0.116832	-0.113163
C285	C	1.422159	0.450165	0.220170
C286	C	0.755577	-0.099335	-0.252047
C287	C	1.088911	0.233999	0.081287
C288	C	1.422244	0.567332	0.414620
C289	C	0.755624	-0.049400	-0.252063
C290	C	1.088957	0.283933	0.081271
C291	C	1.422290	0.617266	0.414604
C292	C	0.789002	-0.187687	-0.806883
C293	C	1.122335	0.145646	-0.473550
C294	C	1.455669	0.478979	-0.140217
C295	C	0.789008	-0.187675	-0.861488
C296	C	1.122342	0.145658	-0.528154
C297	C	1.455675	0.478992	-0.194821
O298	O	0.817457	-0.163229	-0.889744
O299	O	1.150790	0.170105	-0.556411
O300	O	1.484124	0.503438	-0.223078
N301	N	0.755550	-0.216396	-0.888779
N302	N	1.088883	0.116937	-0.555446
N303	N	1.422217	0.450270	-0.222112
C304	C	0.722079	-0.245129	-0.861463
C305	C	1.055413	0.088204	-0.528130
C306	C	1.388746	0.421538	-0.194797
O307	O	0.693621	-0.269558	-0.889691
O308	O	1.026954	0.063776	-0.556358
O309	O	1.360287	0.397109	-0.223024
C310	C	0.722071	-0.245139	-0.806860
C311	C	1.055404	0.088194	-0.473527
C312	C	1.388737	0.421528	-0.140193
C313	C	0.755535	-0.216419	-0.779571
C314	C	1.088868	0.116915	-0.446238
C315	C	1.422202	0.450248	-0.112905
C316	C	0.822463	-0.158969	-0.779594
C317	C	1.155796	0.174364	-0.446261
C318	C	1.489130	0.507698	-0.112928
C319	C	0.822457	-0.158982	-0.724994
C320	C	1.155790	0.174351	-0.391661
C321	C	1.489124	0.507685	-0.058327
C322	C	0.788990	-0.187714	-0.697682
C323	C	1.122323	0.145620	-0.364349
C324	C	1.455657	0.478953	-0.031015
C325	C	0.755529	-0.216432	-0.724971
C326	C	1.088862	0.116901	-0.391637
C327	C	1.422196	0.450235	-0.058304
C328	C	0.688598	-0.273869	-0.779545
C329	C	1.021931	0.059464	-0.446212
C330	C	1.355264	0.392798	-0.112879
C331	C	0.688592	-0.273876	-0.724938
C332	C	1.021925	0.059457	-0.391605
C333	C	1.355258	0.392791	-0.058272
C334	C	0.722056	-0.245156	-0.697650
C335	C	1.055389	0.088177	-0.364316
C336	C	1.388722	0.421511	-0.030983
C337	C	0.722056	-0.245176	-0.643058
C338	C	1.055389	0.088157	-0.309725
C339	C	1.388723	0.421490	0.023608
N340	N	0.755514	-0.216455	-0.615767
N341	N	1.088848	0.116879	-0.282434
N342	N	1.422181	0.450212	0.050900
C343	C	0.788981	-0.187723	-0.643079
C344	C	1.122315	0.145610	-0.309745
C345	C	1.455648	0.478943	0.023588
C346	C	0.722100	-0.245106	-0.976134
C347	C	1.055433	0.088228	-0.642801
C348	C	1.388766	0.421561	-0.309467
C349	C	0.722110	-0.245099	-1.030736
C350	C	1.055444	0.088235	-0.697403
C351	C	1.388777	0.421568	-0.364070
C352	C	0.789039	-0.187644	-1.030757
C353	C	1.122372	0.145690	-0.697423
C354	C	1.455706	0.479023	-0.364090
C355	C	0.789030	-0.187653	-0.976153
C356	C	1.122364	0.145680	-0.642820
C357	C	1.455697	0.479013	-0.309487
C358	C	0.755558	-0.216384	-0.948843
C359	C	1.088891	0.116949	-0.615509
C360	C	1.422224	0.450282	-0.282176
C361	C	0.788967	-0.187753	-0.528414
C362	C	1.122300	0.145580	-0.195080
C363	C	1.455633	0.478913	0.138253
C364	C	0.788959	-0.187770	-0.473808
C365	C	1.122293	0.145563	-0.140475
C366	C	1.455626	0.478896	0.192859
C367	C	0.722029	-0.245223	-0.473793
C368	C	1.055363	0.088110	-0.140459
C369	C	1.388696	0.421443	0.192874
C370	C	0.722038	-0.245208	-0.528393
C371	C	1.055372	0.088125	-0.195060
C372	C	1.388705	0.421458	0.138274
C373	C	0.755509	-0.216470	-0.555702
C374	C	1.088842	0.116864	-0.222369
C375	C	1.422175	0.450197	0.110964
O376	O	0.693620	-0.269609	-0.614767
O377	O	1.026954	0.063725	-0.281433
O378	O	1.360287	0.397058	0.051900
O379	O	0.817430	-0.163295	-0.614845
O380	O	1.150764	0.170039	-0.281511
O381	O	1.484097	0.503372	0.051822
C382	C	0.755482	-0.216488	-0.116167
C383	C	1.088815	0.116845	0.217167
C384	C	1.422148	0.450178	0.550500
C385	C	0.755576	-0.216365	-0.058053
C386	C	1.088909	0.116968	0.275280
C387	C	1.422242	0.450301	0.608614
H388	H	0.054089	-0.164324	-0.191493
H389	H	0.387423	0.169010	0.141840
H390	H	0.720756	0.502343	0.475174
H391	H	0.694677	-0.387554	-0.312587
H392	H	1.028011	-0.054221	0.020746
H393	H	1.361344	0.279112	0.354080
H394	H	0.816301	-0.959898	-0.191448
H395	H	1.149634	-0.626565	0.141885
H396	H	1.482968	-0.293231	0.475218
N397	N	0.823268	-1.049869	-0.184537
N398	N	1.156602	-0.716536	0.148796
N399	N	1.489935	-0.383202	0.482129
N400	N	0.819840	-1.044653	-0.136287
N401	N	1.153173	-0.711319	0.197046
N402	N	1.486507	-0.377986	0.530380
H403	H	0.843987	-1.061564	-0.112192
H404	H	1.177321	-0.728231	0.221141
H405	H	1.510654	-0.394897	0.554475
N406	N	0.823209	-0.158320	-0.948273
N407	N	1.156543	0.175014	-0.614940
N408	N	1.489876	0.508347	-0.281606
N409	N	0.856508	-0.174133	-0.917808
N410	N	1.189841	0.159200	-0.584474
N411	N	1.523174	0.492533	-0.251141
H412	H	0.880647	-0.153415	-0.898118
H413	H	1.213981	0.179919	-0.564785
H414	H	1.547314	0.513252	-0.231452
H415	H	-0.044978	-0.268742	-0.312615
H416	H	0.288356	0.064592	0.020719
H417	H	0.621689	0.397925	0.354052
H418	H	0.849706	-0.135594	-0.702780
H419	H	1.183039	0.197739	-0.369447
H420	H	1.516373	0.531072	-0.036114
N421	N	0.823215	-0.158291	-1.058669
N422	N	1.156548	0.175043	-0.725336
N423	N	1.489882	0.508376	-0.392002
N424	N	0.804842	-0.129658	-1.089137
N425	N	1.138176	0.203675	-0.755804
N426	N	1.471509	0.537009	-0.422471
H427	H	0.828977	-0.108929	-1.108852
H428	H	1.162311	0.224405	-0.775519
H429	H	1.495644	0.557738	-0.442186
N430	N	0.687784	-0.477542	-0.319530
N431	N	1.021118	-0.144209	0.013803
N432	N	1.354451	0.189125	0.347136
N433	N	0.706170	-0.503688	-0.352875
N434	N	1.039504	-0.170355	-0.019542
N435	N	1.372837	0.162978	0.313792
H436	H	0.682045	-0.520619	-0.376985
H437	H	1.015378	-0.187286	-0.043651
H438	H	1.348711	0.146047	0.289682
N439	N	0.451710	-0.158345	-0.184517
N440	N	0.785043	0.174988	0.148817
N441	N	1.118377	0.508321	0.482150
N442	N	0.421209	-0.174108	-0.151172
N443	N	0.754542	0.159225	0.182161
N444	N	1.087875	0.492558	0.515494
H445	H	0.401511	-0.153353	-0.127097
H446	H	0.734844	0.179980	0.206237
H447	H	1.068177	0.513313	0.539570
N448	N	0.687918	-0.274466	-0.948238
N449	N	1.021252	0.058867	-0.614905
N450	N	1.354585	0.392200	-0.281572
N451	N	0.706282	-0.303105	-0.917772
N452	N	1.039616	0.030229	-0.584439
N453	N	1.372949	0.363562	-0.251106
H454	H	0.682142	-0.323840	-0.898073
H455	H	1.015475	0.009493	-0.564740
H456	H	1.348809	0.342826	-0.231406
N457	N	0.856649	-0.834033	-0.151119
N458	N	1.189982	-0.500700	0.182214
N459	N	1.523316	-0.167366	0.515547
N460	N	0.838282	-0.860242	-0.117789
N461	N	1.171615	-0.526909	0.215545
N462	N	1.504948	-0.193576	0.548878
H463	H	0.862420	-0.877161	-0.093691
H464	H	1.195753	-0.543827	0.239642
H465	H	1.529086	-0.210494	0.572975
H466	H	0.694866	-0.268490	-1.052950
H467	H	1.028200	0.064843	-0.719617
H468	H	1.361533	0.398176	-0.386284
N469	N	0.654381	-0.598532	-0.352958
N470	N	0.987715	-0.265199	-0.019624
N471	N	1.321048	0.068134	0.313709
N472	N	0.624521	-0.619499	-0.382782
N473	N	0.957854	-0.286166	-0.049448
N474	N	1.291187	0.047167	0.283885
H475	H	0.600376	-0.602595	-0.406885
H476	H	0.933709	-0.269261	-0.073551
H477	H	1.267042	0.064072	0.259782
N478	N	0.654420	-0.303218	-0.807403
N479	N	0.987753	0.030116	-0.474069
N480	N	1.321087	0.363449	-0.140736
N481	N	0.624548	-0.328868	-0.783000
N482	N	0.957881	0.004465	-0.449667
N483	N	1.291214	0.337799	-0.116334
H484	H	0.600410	-0.349600	-0.802673
H485	H	0.933743	-0.016266	-0.469340
H486	H	1.267076	0.317067	-0.136007
H487	H	0.816220	-0.164350	-0.550642
H488	H	1.149553	0.168983	-0.217309
H489	H	1.482887	0.502317	0.116024
H490	H	0.694794	-0.268599	-0.550613
H491	H	1.028127	0.064734	-0.217279
H492	H	1.361461	0.398068	0.116054
N493	N	0.200575	-0.129568	-0.151186
N494	N	0.533909	0.203765	0.182148
N495	N	0.867242	0.537098	0.515481
N496	N	0.224969	-0.103880	-0.121391
N497	N	0.558303	0.229453	0.211942
N498	N	0.891636	0.562787	0.545276
H499	H	0.205289	-0.083118	-0.097309
H500	H	0.538622	0.250216	0.236024
H501	H	0.871956	0.583549	0.569357
N502	N	0.654393	-0.303225	-0.697050
N503	N	0.987726	0.030108	-0.363717
N504	N	1.321059	0.363442	-0.030383
N505	N	0.624518	-0.328862	-0.721426
N506	N	0.957852	0.004471	-0.388092
N507	N	1.291185	0.337804	-0.054759
H508	H	0.600365	-0.349590	-0.701731
H509	H	0.933699	-0.016257	-0.368398
H510	H	1.267032	0.317076	-0.035064
H511	H	0.694783	-0.268617	-0.451545
H512	H	1.028116	0.064716	-0.118212
H513	H	1.361450	0.398049	0.215121
H514	H	0.556445	-0.164298	-0.191419
H515	H	0.889778	0.169035	0.141914
H516	H	1.223111	0.502368	0.475247
N517	N	-0.050610	-0.158370	-0.184587
N518	N	0.282723	0.174964	0.148747
N519	N	0.616056	0.508297	0.482080
N520	N	-0.044475	-0.116920	-0.188143
N521	N	0.288859	0.216413	0.145191
N522	N	0.622192	0.549747	0.478524
H523	H	-0.064157	-0.096156	-0.164065
H524	H	0.269176	0.237178	0.169268
H525	H	0.602509	0.570511	0.502601
N526	N	0.562086	-0.274673	-0.319441
N527	N	0.895419	0.058660	0.013893
N528	N	1.228752	0.391994	0.347226
N529	N	0.537698	-0.300362	-0.349240
N530	N	0.871032	0.032972	-0.015907
N531	N	1.204365	0.366305	0.317427
H532	H	0.557383	-0.321125	-0.373317
H533	H	0.890717	0.012208	-0.039983
H534	H	1.224050	0.345542	0.293350
H535	H	0.849637	-0.603311	-0.158013
H536	H	1.182970	-0.269977	0.175320
H537	H	1.516303	0.063356	0.508653
N538	N	0.451732	-0.274674	-0.319472
N539	N	0.785066	0.058660	0.013862
N540	N	1.118399	0.391993	0.347195
N541	N	0.476121	-0.300359	-0.349261
N542	N	0.809455	0.032974	-0.015928
N543	N	1.142788	0.366308	0.317406
H544	H	0.456437	-0.321122	-0.373349
H545	H	0.789771	0.012211	-0.040015
H546	H	1.123104	0.345544	0.293318
N547	N	0.823021	-0.382644	-0.184459
N548	N	1.156355	-0.049311	0.148874
N549	N	1.489688	0.284023	0.482208
N550	N	0.852900	-0.403585	-0.154643
N551	N	1.186233	-0.070251	0.178691
N552	N	1.519567	0.263082	0.512024
H553	H	0.877034	-0.386658	-0.130537
H554	H	1.210367	-0.053325	0.202797
H555	H	1.543701	0.280008	0.536130
N556	N	0.310928	-0.129555	-0.151184
N557	N	0.644262	0.203778	0.182150
N558	N	0.977595	0.537111	0.515483
N559	N	0.286544	-0.103866	-0.121395
N560	N	0.619877	0.229467	0.211938
N561	N	0.953210	0.562801	0.545271
H562	H	0.306231	-0.083098	-0.097316
H563	H	0.639565	0.250235	0.236017
H564	H	0.972898	0.583569	0.569351
H565	H	0.816133	-0.472612	-0.191400
H566	H	1.149466	-0.139279	0.141934
H567	H	1.482799	0.194054	0.475267
N568	N	0.856653	-0.129613	-0.807479
N569	N	1.189986	0.203720	-0.474146
N570	N	1.523319	0.537054	-0.140813
N571	N	0.886522	-0.103976	-0.783097
N572	N	1.219855	0.229358	-0.449764
N573	N	1.553188	0.562691	-0.116431
H574	H	0.910673	-0.083242	-0.802787
H575	H	1.244006	0.250091	-0.469454
H576	H	1.577340	0.583424	-0.136120
N577	N	0.654419	-0.739283	-0.352947
N578	N	0.987753	-0.405950	-0.019614
N579	N	1.321086	-0.072616	0.313720
N580	N	0.621102	-0.713139	-0.334513
N581	N	0.954436	-0.379806	-0.001180
N582	N	1.287769	-0.046473	0.332153
H583	H	0.596949	-0.696229	-0.358604
H584	H	0.930283	-0.362896	-0.025270
H585	H	1.263616	-0.029563	0.308063
H586	H	0.305256	-0.297494	-0.345945
H587	H	0.638589	0.035840	-0.012612
H588	H	0.971922	0.369173	0.320721
H589	H	0.206210	-0.297497	-0.345962
H590	H	0.539543	0.035836	-0.012629
H591	H	0.872877	0.369170	0.320704
N592	N	0.059739	-0.274705	-0.319519
N593	N	0.393072	0.058628	0.013814
N594	N	0.726406	0.391961	0.347148
N595	N	0.035349	-0.300396	-0.349315
N596	N	0.368682	0.032938	-0.015981
N597	N	0.702016	0.366271	0.317352
H598	H	0.055032	-0.321159	-0.373393
H599	H	0.388366	0.012175	-0.040060
H600	H	0.721699	0.345508	0.293274
N601	N	0.856610	-0.693269	-0.151103
N602	N	1.189943	-0.359936	0.182230
N603	N	1.523277	-0.026603	0.515564
N604	N	0.886471	-0.672297	-0.121285
N605	N	1.219804	-0.338964	0.212049
N606	N	1.553138	-0.005630	0.545382
H607	H	0.910622	-0.689198	-0.097184
H608	H	1.243956	-0.355864	0.236150
H609	H	1.577289	-0.022531	0.569483
N610	N	0.856624	-0.739200	-0.151105
N611	N	1.189957	-0.405866	0.182228
N612	N	1.523290	-0.072533	0.515562
N613	N	0.886500	-0.760144	-0.121290
N614	N	1.219833	-0.426811	0.212043
N615	N	1.553167	-0.093477	0.545376
H616	H	0.910636	-0.743221	-0.097184
H617	H	1.243970	-0.409888	0.236149
H618	H	1.577303	-0.076555	0.569483
N619	N	0.687974	-1.049924	-0.319581
N620	N	1.021308	-0.716591	0.013753
N621	N	1.354641	-0.383257	0.347086
N622	N	0.658096	-1.028981	-0.349396
N623	N	0.991430	-0.695648	-0.016062
N624	N	1.324763	-0.362315	0.317271
H625	H	0.633955	-1.045906	-0.373496
H626	H	0.967289	-0.712573	-0.040163
H627	H	1.300622	-0.379239	0.293171
H628	H	0.694887	-0.959956	-0.312658
H629	H	1.028221	-0.626623	0.020675
H630	H	1.361554	-0.293289	0.354008
H631	H	0.661390	-0.829250	-0.346045
H632	H	0.994723	-0.495916	-0.012712
H633	H	1.328056	-0.162583	0.320621
H634	H	0.661337	-0.688495	-0.346038
H635	H	0.994671	-0.355161	-0.012704
H636	H	1.328004	-0.021828	0.320629
H637	H	0.816212	-0.164382	-0.451592
H638	H	1.149545	0.168951	-0.118259
H639	H	1.482879	0.502284	0.215075
