data_functionalizedCrystal
_audit_creation_method	'MofGen! by Chris Wilmer'
_symmetry_space_group_name_H-M	'P1'
_symmetry_Int_Tables_number	1
_symmetry_cell_setting	triclinic
loop_
_symmetry_equiv_pos_as_xyz
  x,y,z
_cell_length_a	17.699083
_cell_length_b	11.792241
_cell_length_c	16.776229
_cell_angle_alpha	89.993219
_cell_angle_beta	89.998886
_cell_angle_gamma	83.738215
loop_
_atom_site_label
_atom_site_type_symbol
_atom_site_fract_x
_atom_site_fract_y
_atom_site_fract_z
O1	O	1.004843	0.143527	-0.066177
O2	O	0.784565	0.162200	-0.066203
O3	O	0.900050	-0.012371	-0.066184
O4	O	0.889358	0.318098	-0.066196
O5	O	0.900034	-0.012382	0.066393
O6	O	0.784549	0.162189	0.066374
O7	O	1.004828	0.143516	0.066400
Zn8	Zn	0.894686	0.152851	0.087436
Zn9	Zn	0.894706	0.152865	-0.087239
O10	O	0.889343	0.318087	0.066381
C11	C	0.756356	0.161525	0.000082
C12	C	0.672328	0.159518	0.000072
C13	C	0.624253	0.261988	0.000069
C14	C	0.545299	0.260095	0.000079
C15	C	0.514422	0.155731	0.000087
C16	C	0.562503	0.053254	0.000093
C17	C	0.641455	0.055148	0.000089
C18	C	0.244099	0.045613	0.000113
C19	C	0.165141	0.043727	0.000116
C20	C	0.147944	0.250560	0.000104
C21	C	0.226896	0.252454	0.000099
C22	C	0.274970	0.149977	0.000109
C23	C	0.360580	0.152031	0.000099
C24	C	0.428814	0.153676	0.000091
C25	C	0.899370	-0.054660	0.000104
C26	C	0.897360	-0.180649	0.000103
C27	C	0.893664	-0.411317	0.000090
C28	C	0.895718	-0.282956	0.000097
C29	C	1.033036	0.144190	0.000113
C30	C	1.117065	0.146198	0.000118
C31	C	0.890022	0.360375	0.000091
C32	C	0.892032	0.486365	0.000087
N33	N	0.894678	0.152841	0.206647
N34	N	0.894721	0.152866	-0.206450
C35	C	0.945830	0.075572	0.248373
C36	C	0.945834	0.075571	0.331825
C37	C	0.894689	0.152845	0.373550
C38	C	0.843531	0.230117	0.331819
C39	C	0.843524	0.230112	0.248368
C40	C	0.843559	0.230139	0.668366
C41	C	0.843571	0.230141	0.751822
C42	C	0.945869	0.075599	0.751823
C43	C	0.945862	0.075593	0.668372
C44	C	0.894702	0.152861	0.626648
C45	C	0.894697	0.152860	0.536160
C46	C	0.894697	0.152853	0.464037
H47	H	0.140005	-0.041263	0.000123
O48	O	0.793921	0.305139	0.372471
C49	C	0.804883	0.288560	0.455075
H50	H	0.864882	0.246029	0.466470
H51	H	0.761818	0.231718	0.478771
C52	C	0.720294	0.456928	0.483909
C53	C	0.793987	0.404698	0.497905
H54	H	0.713569	0.528565	0.510330
H55	H	0.712905	0.468095	0.428258
H56	H	0.684414	0.409547	0.503656
H57	H	0.829865	0.452072	0.478150
H58	H	0.801382	0.393541	0.553555
H59	H	0.801920	0.293069	0.785794
H60	H	0.506159	0.343536	0.000075
H61	H	0.252031	0.337438	0.000089
O62	O	0.995508	0.000600	0.627740
C63	C	1.042441	0.061135	0.579345
H64	H	1.044269	0.150605	0.604481
H65	H	1.018657	0.067227	0.516151
C66	C	1.121122	-0.111717	0.547017
C67	C	1.123372	-0.001831	0.577894
H68	H	1.171043	-0.150559	0.546118
H69	H	1.089501	-0.152502	0.579619
H70	H	1.101298	-0.106625	0.494358
H71	H	1.143186	-0.006925	0.630555
H72	H	1.154998	0.038951	0.545300
O73	O	0.290758	-0.053961	-0.000024
C74	C	0.276678	-0.117343	-0.068673
H75	H	0.249947	-0.057344	-0.116667
H76	H	0.236206	-0.182918	-0.053145
C77	C	0.384911	-0.252738	-0.040858
C78	C	0.352085	-0.179044	-0.099807
H79	H	0.431424	-0.290803	-0.060062
H80	H	0.394395	-0.210039	0.005394
H81	H	0.351177	-0.307373	-0.027924
H82	H	0.385815	-0.124402	-0.112733
H83	H	0.342608	-0.221735	-0.146062
O84	O	0.995490	0.000573	0.792479
C85	C	0.984544	0.017156	0.875082
H86	H	0.924547	0.059684	0.886485
H87	H	1.027613	0.074004	0.898753
C88	C	1.069145	-0.151203	0.903929
C89	C	0.995453	-0.098978	0.917935
H90	H	1.075877	-0.222839	0.930364
H91	H	1.076522	-0.162374	0.848278
H92	H	1.105027	-0.103818	0.923656
H93	H	0.959573	-0.146356	0.898199
H94	H	0.988070	-0.087818	0.973584
O95	O	0.101135	0.350005	0.000137
C96	C	0.024828	0.325964	0.000126
H97	H	0.021435	0.236827	0.025234
H98	H	0.002011	0.330329	-0.063477
C99	C	-0.018955	0.523695	0.021274
C100	C	-0.023123	0.414218	0.052119
H101	H	-0.048534	0.578136	0.053343
H102	H	0.032454	0.539893	0.021279
H103	H	-0.037967	0.527316	-0.031727
H104	H	-0.004102	0.410594	0.105115
H105	H	-0.074530	0.398021	0.052125
O106	O	0.793808	0.305283	0.207957
C107	C	0.748655	0.373471	0.262677
H108	H	0.779694	0.374702	0.322159
H109	H	0.692285	0.336723	0.271564
C110	C	0.695425	0.494425	0.157036
C111	C	0.733552	0.495944	0.230091
H112	H	0.686105	0.569971	0.136935
H113	H	0.725844	0.448483	0.120169
H114	H	0.648455	0.463796	0.164452
H115	H	0.780525	0.526559	0.222672
H116	H	0.703141	0.541894	0.266956
O117	O	0.532637	-0.048225	0.000134
C118	C	0.592003	-0.138262	0.000116
H119	H	0.645760	-0.106597	0.025215
H120	H	0.603045	-0.169851	-0.063487
C121	C	0.503290	-0.275609	0.021281
C122	C	0.569314	-0.236719	0.052115
H123	H	0.489294	-0.336345	0.053353
H124	H	0.463294	-0.214951	0.021291
H125	H	0.512501	-0.301924	-0.031721
H126	H	0.560100	-0.210392	0.105112
H127	H	0.609309	-0.297376	0.052116
H128	H	0.649386	0.346973	0.000061
O129	O	0.995559	0.000640	0.207791
C130	C	1.042485	0.061286	0.159466
H131	H	1.044179	0.150785	0.184602
H132	H	1.018788	0.067302	0.096235
C133	C	1.121386	-0.111413	0.127265
C134	C	1.123472	-0.001492	0.158142
H135	H	1.171342	-0.150139	0.126445
H136	H	1.089770	-0.152273	0.159820
H137	H	1.101635	-0.106385	0.074576
H138	H	1.143214	-0.006522	0.210833
H139	H	1.155094	0.039366	0.125595
O140	O	0.688266	-0.044286	0.000124
C141	C	0.764571	-0.020237	0.000100
H142	H	0.767962	0.068900	0.025194
H143	H	0.787383	-0.024599	-0.063504
C144	C	0.808363	-0.217966	0.021275
C145	C	0.812529	-0.108490	0.052102
H146	H	0.837947	-0.272406	0.053348
H147	H	0.756955	-0.234170	0.021288
H148	H	0.827372	-0.221584	-0.031728
H149	H	0.793512	-0.104869	0.105100
H150	H	0.863935	-0.092287	0.052099
H151	H	0.987486	0.012653	0.365798
H152	H	0.801903	0.293055	0.634401
