data_functionalizedCrystal
_audit_creation_method	'MofGen! by Chris Wilmer'
_symmetry_space_group_name_H-M	'P1'
_symmetry_Int_Tables_number	1
_symmetry_cell_setting	triclinic
loop_
_symmetry_equiv_pos_as_xyz
  x,y,z
_cell_length_a	13.032831
_cell_length_b	29.839131
_cell_length_c	13.032268
_cell_angle_alpha	97.140540
_cell_angle_beta	90.886977
_cell_angle_gamma	82.845366
loop_
_atom_site_label
_atom_site_type_symbol
_atom_site_fract_x
_atom_site_fract_y
_atom_site_fract_z
Zn1	Zn	1.498202	-0.303377	-0.780727
Zn2	Zn	1.519883	-0.370307	-0.608723
Zn3	Zn	1.348078	-0.284611	-0.586974
Zn4	Zn	1.326134	-0.367878	-0.758849
O5	O	1.423074	-0.331543	-0.683818
O6	O	1.644991	-0.321125	-0.776168
O7	O	1.515350	-0.352102	-0.461924
O8	O	1.368102	-0.224242	-0.612730
O9	O	1.660920	-0.370299	-0.649797
O10	O	1.478398	-0.238029	-0.755079
O11	O	1.389125	-0.289141	-0.445945
O12	O	1.201254	-0.286786	-0.591516
O13	O	1.330702	-0.366159	-0.905665
O14	O	1.185132	-0.347962	-0.717792
O15	O	1.457120	-0.318770	-0.921739
O16	O	1.494072	-0.432843	-0.628583
O17	O	1.351725	-0.431059	-0.738880
C18	C	1.155878	-0.315075	-0.649920
C19	C	1.041567	-0.308042	-0.635443
C20	C	0.982667	-0.335214	-0.691374
C21	C	0.864520	-0.327945	-0.676412
C22	C	1.422895	-0.448252	-0.683744
C23	C	1.422908	-0.498188	-0.683758
C24	C	1.497302	-0.808772	-0.626498
C25	C	1.497423	-0.996455	-0.626554
O26	O	1.560533	-1.021509	-0.577811
N27	N	1.423278	-1.019002	-0.683923
C28	C	1.349100	-0.994626	-0.741287
O29	O	1.286044	-1.018111	-0.790093
C30	C	1.348984	-0.806945	-0.741236
C31	C	1.423128	-0.784399	-0.683855
C32	C	1.571441	-0.786226	-0.569122
C33	C	1.571406	-0.739308	-0.569105
C34	C	1.497232	-0.714935	-0.626462
C35	C	1.423093	-0.737481	-0.683837
C36	C	1.274811	-0.782571	-0.798606
C37	C	1.274790	-0.735648	-0.798590
C38	C	1.348935	-0.713102	-0.741209
C39	C	1.348885	-0.666190	-0.741177
N40	N	1.423031	-0.643643	-0.683808
C41	C	1.497205	-0.668015	-0.626451
C42	C	1.349165	-1.093162	-0.741308
C43	C	1.349193	-1.140082	-0.741320
C44	C	1.497518	-1.141907	-0.626588
C45	C	1.497485	-1.094986	-0.626571
C46	C	1.423311	-1.070614	-0.683939
C47	C	1.497126	-0.569483	-0.626417
C48	C	1.497082	-0.522561	-0.626401
C49	C	1.348761	-0.520740	-0.741137
C50	C	1.348801	-0.567658	-0.741149
C51	C	1.422992	-0.592029	-0.683787
O52	O	1.285815	-0.641109	-0.789903
O53	O	1.560265	-0.644524	-0.577671
C54	C	1.497336	-0.855690	-0.626516
C55	C	1.423197	-0.878236	-0.683891
C56	C	1.349024	-0.853863	-0.741249
C57	C	1.423225	-0.925156	-0.683903
C58	C	1.497399	-0.949529	-0.626545
C59	C	1.571545	-0.926981	-0.569176
C60	C	1.571510	-0.880063	-0.569158
C61	C	1.274878	-0.876411	-0.798618
C62	C	1.274918	-0.923329	-0.798630
C63	C	1.349091	-0.947702	-0.741272
C64	C	1.691313	-0.348076	-0.717849
C65	C	1.805621	-0.355122	-0.732351
C66	C	1.389044	-0.344287	-0.952061
C67	C	1.374543	-0.349718	-1.066370
C68	C	1.423279	-0.214382	-0.683919
C69	C	1.423367	-0.164454	-0.683962
C70	C	1.430627	-0.328692	-1.125285
C71	C	1.415640	-0.334304	-1.243430
C72	C	1.457031	-0.318820	-0.416627
C73	C	1.471732	-0.313275	-0.302344
H74	H	1.019706	-0.363857	-0.750338
H75	H	1.489733	-0.306534	-1.088259
H76	H	0.827484	-0.299297	-0.617452
O77	O	1.345195	-0.360739	-1.287758
C78	C	1.265963	-0.390400	-1.445923
C79	C	1.345789	-0.360457	-1.395856
H80	H	1.266401	-0.390174	-1.533325
H81	H	1.286609	-0.426753	-1.427199
H82	H	1.185721	-0.376413	-1.414289
H83	H	1.426059	-0.374403	-1.427461
H84	H	1.325054	-0.324108	-1.414574
H85	H	1.557541	-0.589321	-0.579709
H86	H	0.842654	-0.383766	-0.791322
H87	H	1.315426	-0.371870	-1.103395
O88	O	1.569010	-0.500587	-0.570681
C89	C	1.634741	-0.429121	-0.519846
C90	C	1.553212	-0.453945	-0.582970
H91	H	1.622010	-0.391408	-0.529777
H92	H	1.627279	-0.433287	-0.434604
H93	H	1.715347	-0.444300	-0.548484
H94	H	1.472570	-0.438782	-0.554421
H95	H	1.560766	-0.449781	-0.668202
O96	O	0.997228	-0.273906	-0.565103
C97	C	0.839039	-0.235515	-0.486118
C98	C	0.889116	-0.274195	-0.565805
H99	H	0.751622	-0.235729	-0.486674
H100	H	0.870528	-0.240693	-0.405776
H101	H	0.857900	-0.201461	-0.506963
H102	H	0.870275	-0.308265	-0.545056
H103	H	0.857625	-0.268976	-0.646124
O104	O	1.542226	-0.286864	-1.258023
C105	C	1.621337	-0.257140	-1.099846
C106	C	1.541498	-0.287077	-1.149907
H107	H	1.620759	-0.257295	-1.012426
H108	H	1.701639	-0.271121	-1.131333
H109	H	1.600666	-0.220812	-1.118723
H110	H	1.562072	-0.323412	-1.131050
H111	H	1.461218	-0.273059	-1.118418
H112	H	1.631783	-0.720955	-0.522384
O113	O	1.202701	-0.711916	-0.854170
C114	C	1.062012	-0.651124	-0.850268
C115	C	1.143619	-0.677954	-0.787206
H116	H	1.014207	-0.623666	-0.796151
H117	H	1.102286	-0.634555	-0.910035
H118	H	1.009078	-0.675315	-0.891305
H119	H	1.196577	-0.653793	-0.746104
H120	H	1.103277	-0.694530	-0.727498
H121	H	1.631847	-0.806066	-0.522415
H122	H	1.557860	-1.076632	-0.579847
O123	O	1.276753	-0.497118	-0.797008
C124	C	1.204579	-0.487954	-0.965570
C125	C	1.286149	-0.514751	-0.902406
H126	H	1.212163	-0.502194	-1.050799
H127	H	1.123935	-0.491256	-0.937029
H128	H	1.217299	-0.450547	-0.955643
H129	H	1.273527	-0.552168	-0.912305
H130	H	1.366764	-0.511412	-0.930961
H131	H	1.557913	-1.161759	-0.579885
H132	H	1.288809	-1.158433	-0.788034
H133	H	1.288761	-1.073321	-0.788025
H134	H	1.214431	-0.800919	-0.845326
O135	O	1.276910	-0.589623	-0.796947
C136	C	1.245393	-0.648296	-0.934085
C137	C	1.326909	-0.623469	-0.870947
H138	H	1.285785	-0.675660	-0.993943
H139	H	1.197681	-0.664777	-0.880078
H140	H	1.192351	-0.622803	-0.975023
H141	H	1.380020	-0.648933	-0.830002
H142	H	1.374546	-0.606979	-0.925004
H143	H	1.631937	-0.946834	-0.522470
O144	O	1.643640	-0.858240	-0.513403
C145	C	1.790721	-0.865016	-0.399559
C146	C	1.709103	-0.889784	-0.462677
H147	H	1.843656	-0.890506	-0.358513
H148	H	1.838529	-0.848588	-0.453584
H149	H	1.750348	-0.837605	-0.339791
H150	H	1.749391	-0.917214	-0.522449
H151	H	1.661301	-0.906181	-0.408587
O152	O	1.202842	-0.945160	-0.854466
C153	C	1.055697	-0.938381	-0.968230
C154	C	1.137267	-0.913604	-0.905054
H155	H	1.002645	-0.912878	-1.009129
H156	H	1.096003	-0.965765	-1.028101
H157	H	1.008011	-0.954842	-0.914161
H158	H	1.184978	-0.897116	-0.959041
H159	H	1.096897	-0.886244	-0.845172
O160	O	1.202950	-0.852733	-0.854462
C161	C	1.171318	-0.805460	-0.991475
C162	C	1.252894	-0.832263	-0.928328
H163	H	1.211667	-0.788896	-1.051196
H164	H	1.118346	-0.829625	-1.032552
H165	H	1.123541	-0.777990	-0.937365
H166	H	1.300743	-0.859734	-0.982367
H167	H	1.305794	-0.808070	-0.887238
