data_functionalizedCrystal
_audit_creation_method	'MofGen! by Chris Wilmer'
_symmetry_space_group_name_H-M	'P1'
_symmetry_Int_Tables_number	1
_symmetry_cell_setting	triclinic
loop_
_symmetry_equiv_pos_as_xyz
  x,y,z
_cell_length_a	13.262522
_cell_length_b	12.996460
_cell_length_c	13.339070
_cell_angle_alpha	89.996957
_cell_angle_beta	80.571184
_cell_angle_gamma	105.921327
loop_
_atom_site_label
_atom_site_type_symbol
_atom_site_fract_x
_atom_site_fract_y
_atom_site_fract_z
O1	O	1.432417	0.486407	-0.136425
O2	O	1.131151	0.402103	-0.151259
O3	O	1.247208	0.434577	0.003567
O4	O	1.316360	0.453934	-0.291251
O5	O	1.247189	0.263438	0.003576
O6	O	1.131131	0.230964	-0.151251
O7	O	1.432398	0.315268	-0.136416
Cu8	Cu	1.281763	0.257490	-0.143833
Cu9	Cu	1.281786	0.459882	-0.143843
O10	O	1.316340	0.282795	-0.291242
C11	C	1.091795	0.305523	-0.150424
C12	C	0.974551	0.272715	-0.147935
N13	N	1.281754	0.115140	-0.143825
C14	C	0.919467	0.164008	-0.146762
C15	C	0.809309	0.133174	-0.144414
C16	C	0.754226	0.211044	-0.143246
C17	C	0.809311	0.319754	-0.144426
C18	C	0.919478	0.350591	-0.146766
C19	C	0.754237	0.397627	-0.143250
C20	C	0.809323	0.506336	-0.144429
C21	C	0.919479	0.537168	-0.146770
C22	C	0.974562	0.459298	-0.147939
C23	C	0.644070	0.366790	-0.140909
C24	C	0.644082	0.553373	-0.140913
C25	C	0.754239	0.584207	-0.143261
C26	C	1.281784	-0.304666	-0.143844
C27	C	1.281774	-0.187863	-0.143842
C28	C	1.281770	-0.094766	-0.143835
C29	C	1.281758	0.022043	-0.143832
C30	C	1.471754	0.411850	-0.137252
C31	C	1.588998	0.444666	-0.139741
C32	C	1.235518	0.345740	0.041310
C33	C	1.200699	0.336001	0.153758
N34	N	1.281800	0.602233	-0.143843
C35	C	1.328031	0.371634	-0.328985
C36	C	1.362849	0.381380	-0.441433
C37	C	1.471428	0.411759	0.517412
C38	C	1.504145	0.420904	0.411761
C39	C	1.428286	0.399680	0.347256
C40	C	1.319705	0.369307	0.388410
C41	C	1.286985	0.360153	0.494071
C42	C	1.243843	0.348073	0.323915
C43	C	1.135262	0.317701	0.365069
C44	C	1.102548	0.308549	0.470720
C45	C	1.178406	0.329773	0.535226
C46	C	1.276563	0.357228	0.218254
C47	C	1.092120	0.305622	0.194913
C48	C	1.059404	0.296476	0.300563
H49	H	0.599232	0.278278	-0.139957
Cl50	Cl	0.740070	-0.003482	-0.142947
H51	H	1.454931	0.407128	0.261231
Cl52	Cl	0.922906	0.258296	0.352313
Cl53	Cl	0.988718	0.066128	-0.148225
Cl54	Cl	1.566779	0.438419	0.598507
Cl55	Cl	1.640640	0.459108	0.360031
H56	H	0.964324	0.625686	-0.147717
H57	H	1.151773	0.322332	0.621256
H58	H	1.014134	0.283810	0.504224
Cl59	Cl	0.574844	0.651274	-0.139454
Cl60	Cl	0.615741	0.172279	-0.140304
Cl61	Cl	1.113055	0.498057	-0.150904
H62	H	0.799105	0.672720	-0.144222
H63	H	1.364970	0.381957	0.184757
Cl64	Cl	0.996749	0.278930	0.113827
