data_functionalizedCrystal
_audit_creation_method	'MofGen! by Chris Wilmer'
_symmetry_space_group_name_H-M	'P1'
_symmetry_Int_Tables_number	1
_symmetry_cell_setting	triclinic
loop_
_symmetry_equiv_pos_as_xyz
  x,y,z
_cell_length_a	11.792241
_cell_length_b	22.010155
_cell_length_c	11.792254
_cell_angle_alpha	89.995888
_cell_angle_beta	84.196007
_cell_angle_gamma	90.004313
loop_
_atom_site_label
_atom_site_type_symbol
_atom_site_fract_x
_atom_site_fract_y
_atom_site_fract_z
O1	O	1.506924	0.050466	0.155551
O2	O	2.006924	0.550466	0.655551
O3	O	1.176584	0.050481	0.171584
O4	O	1.676584	0.550481	0.671584
O5	O	1.349763	0.050469	-0.001602
O6	O	1.849763	0.550469	0.498398
O7	O	1.333745	0.050478	0.328737
O8	O	1.833745	0.550478	0.828737
O9	O	1.349731	-0.050581	-0.001576
O10	O	1.849731	0.449419	0.498424
O11	O	1.176552	-0.050570	0.171610
O12	O	1.676552	0.449430	0.671610
O13	O	1.506893	-0.050584	0.155577
O14	O	2.006893	0.449416	0.655577
Cu15	Cu	1.341719	-0.059804	0.163596
Cu16	Cu	1.841719	0.440196	0.663596
Cu17	Cu	1.341757	0.059700	0.163565
Cu18	Cu	1.841757	0.559700	0.663565
O19	O	1.333713	-0.050572	0.328763
O20	O	1.833713	0.449428	0.828763
C21	C	1.134277	-0.000043	0.170590
C22	C	1.634277	0.499957	0.670590
C23	C	1.008263	-0.000037	0.167576
C24	C	1.508263	0.499963	0.667576
N25	N	1.341702	-0.143856	0.163617
N26	N	1.841702	0.356144	0.663617
C27	C	0.777551	-0.000055	0.162033
C28	C	1.277551	0.499945	0.662033
C29	C	0.905936	-0.000045	0.165112
C30	C	1.405936	0.499955	0.665112
C31	C	1.418445	-0.563641	0.086890
C32	C	1.918445	-0.063641	0.586890
C33	C	1.418450	-0.627248	0.086882
C34	C	1.918450	-0.127248	0.586882
O35	O	1.483655	-0.660144	0.021660
O36	O	1.983655	-0.160144	0.521660
N37	N	1.341756	-0.659063	0.163542
N38	N	1.841756	-0.159063	0.663542
C39	C	1.265044	-0.627267	0.240206
C40	C	1.765044	-0.127267	0.740206
O41	O	1.199809	-0.660169	0.305410
O42	O	1.699809	-0.160169	0.805410
C43	C	1.265034	-0.563661	0.240208
C44	C	1.765034	-0.063661	0.740208
C45	C	1.341741	-0.531849	0.163551
C46	C	1.841741	-0.031849	0.663551
C47	C	1.495145	-0.531829	0.010238
C48	C	1.995145	-0.031829	0.510238
C49	C	1.495141	-0.468226	0.010247
C50	C	1.995141	0.031774	0.510247
C51	C	1.418437	-0.436434	0.086909
C52	C	1.918437	0.063566	0.586909
C53	C	1.341737	-0.468246	0.163560
C54	C	1.841737	0.031754	0.663560
C55	C	1.188317	-0.531866	0.316866
C56	C	1.688317	-0.031866	0.816866
C57	C	1.188313	-0.468255	0.316860
C58	C	1.688313	0.031745	0.816860
C59	C	1.265020	-0.436443	0.240203
C60	C	1.765020	0.063557	0.740203
C61	C	1.265029	-0.372851	0.240231
C62	C	1.765029	0.127149	0.740231
N63	N	1.341723	-0.341036	0.163571
N64	N	1.841723	0.158964	0.663571
C65	C	1.418427	-0.372828	0.086910
C66	C	1.918427	0.127172	0.586910
C67	C	1.265069	-0.760845	0.240196
C68	C	1.765069	-0.260845	0.740196
C69	C	1.265083	-0.824450	0.240201
C70	C	1.765083	-0.324450	0.740201
C71	C	1.418488	-0.824427	0.086875
C72	C	1.918488	-0.324427	0.586875
C73	C	1.418479	-0.760820	0.086876
C74	C	1.918479	-0.260820	0.586876
C75	C	1.341763	-0.729030	0.163536
C76	C	1.841763	-0.229030	0.663536
C77	C	1.418413	-0.239256	0.086936
C78	C	1.918413	0.260744	0.586936
C79	C	1.418406	-0.175648	0.086956
C80	C	1.918406	0.324352	0.586956
C81	C	1.264997	-0.175676	0.240277
C82	C	1.764997	0.324324	0.740277
C83	C	1.265008	-0.239280	0.240263
C84	C	1.765008	0.260720	0.740263
C85	C	1.341721	-0.271068	0.163582
C86	C	1.841721	0.228932	0.663582
O87	O	1.199854	-0.339915	0.305416
O88	O	1.699854	0.160085	0.805416
O89	O	1.483641	-0.339918	0.021707
O90	O	1.983641	0.160082	0.521707
C91	C	1.549199	-0.000059	0.156571
C92	C	2.049199	0.499941	0.656571
C93	C	1.675213	-0.000061	0.159586
C94	C	2.175213	0.499939	0.659586
C95	C	1.348738	-0.000056	-0.043880
C96	C	1.848738	0.499944	0.456120
C97	C	1.345718	-0.000055	-0.169893
C98	C	1.845718	0.499945	0.330107
N99	N	1.341784	0.143753	0.163535
N100	N	1.841784	0.643753	0.663535
C101	C	1.343264	-0.000053	-0.272229
C102	C	1.843264	0.499947	0.227771
C103	C	1.340196	-0.000047	-0.400616
C104	C	1.840196	0.499953	0.099384
C105	C	1.334738	-0.000046	0.371041
C106	C	1.834738	0.499954	0.871041
C107	C	1.337758	-0.000043	0.497054
C108	C	1.837758	0.499957	0.997054
H109	H	1.480874	-0.149748	0.024532
H110	H	1.980874	0.350252	0.524532
F111	F	1.183368	-0.141832	0.321865
F112	F	1.683368	0.358168	0.821865
H113	H	1.557599	-0.442328	-0.052176
H114	H	2.057599	0.057672	0.447824
F115	F	1.500060	-0.273079	0.005325
F116	F	2.000060	0.226921	0.505325
F117	F	1.500122	-0.858274	0.005284
F118	F	2.000122	-0.358274	0.505284
H119	H	1.557607	-0.557708	-0.052194
H120	H	2.057607	-0.057708	0.447806
F121	F	1.183378	-0.273135	0.321863
F122	F	1.683378	0.226865	0.821863
F123	F	1.183419	-0.727016	0.321801
F124	F	1.683419	-0.227016	0.821801
F125	F	1.183455	-0.858300	0.321804
F126	F	1.683455	-0.358300	0.821804
F127	F	1.500119	-0.726970	0.005287
F128	F	2.000119	-0.226970	0.505287
H129	H	1.125838	-0.442374	0.379285
H130	H	1.625838	0.057626	0.879285
F131	F	1.106673	-0.565711	0.398453
F132	F	1.606673	-0.065711	0.898453
