data_functionalizedCrystal
_audit_creation_method	'MofGen! by Chris Wilmer'
_symmetry_space_group_name_H-M	'P1'
_symmetry_Int_Tables_number	1
_symmetry_cell_setting	triclinic
loop_
_symmetry_equiv_pos_as_xyz
  x,y,z
_cell_length_a	12.811453
_cell_length_b	15.072220
_cell_length_c	12.837942
_cell_angle_alpha	90.004122
_cell_angle_beta	89.412981
_cell_angle_gamma	84.562407
loop_
_atom_site_label
_atom_site_type_symbol
_atom_site_fract_x
_atom_site_fract_y
_atom_site_fract_z
O1	O	-1.406654	0.186964	-0.139686
O2	O	-1.102587	0.162500	-0.154872
O3	O	-1.247878	0.174184	0.003653
O4	O	-1.261363	0.175280	-0.298211
O5	O	-1.247859	0.026617	0.003633
O6	O	-1.102569	0.014933	-0.154892
O7	O	-1.406635	0.039397	-0.139706
Zn8	Zn	-1.254599	0.003736	-0.147302
Zn9	Zn	-1.254624	0.198161	-0.147276
O10	O	-1.261344	0.027713	-0.298231
C11	C	-1.063389	0.085563	-0.154030
C12	C	-0.946615	0.076168	-0.151481
C13	C	-0.727203	0.219407	-0.146687
C14	C	-0.617484	0.210584	-0.144292
C15	C	-0.617456	0.049698	-0.144302
C16	C	-0.727175	0.058521	-0.146697
C17	C	-0.782045	0.143379	-0.147888
C18	C	-0.891766	0.152202	-0.150276
C19	C	-0.891736	-0.008683	-0.150294
C20	C	-0.782017	-0.017507	-0.147899
N21	N	-1.254590	-0.128954	-0.147320
C22	C	-1.254607	-0.309950	-0.147296
C23	C	-1.176847	-0.353872	-0.232088
C24	C	-1.176529	-0.456723	-0.231854
C25	C	-1.254623	-0.488153	-0.147274
C26	C	-1.220304	-0.453575	-0.038833
C27	C	-1.219725	-0.350764	-0.039342
C28	C	-1.366852	-0.338806	-0.169969
C29	C	-1.366370	-0.441710	-0.172412
C30	C	-1.254634	-0.588865	-0.147255
C31	C	-1.254593	-0.209238	-0.147308
C32	C	-0.445834	0.116334	-0.140548
C33	C	-0.562607	0.125731	-0.143098
C34	C	-1.243313	0.100035	0.042283
C35	C	-1.229727	0.098943	0.157419
N36	N	-1.254640	0.330851	-0.147250
C37	C	-1.265909	0.101864	-0.336861
C38	C	-1.279495	0.102962	-0.451997
C39	C	-1.393058	0.112102	0.397671
C40	C	-1.380297	0.111077	0.505852
C41	C	-1.191447	0.095874	0.481964
C42	C	-1.204207	0.096899	0.373783
C43	C	-1.305016	0.105012	0.331641
C44	C	-1.317776	0.106031	0.223458
C45	C	-1.128926	0.090834	0.199572
C46	C	-1.116165	0.089809	0.307753
H47	H	-0.737327	-0.086595	-0.146932
H48	H	-1.397253	-0.310424	-0.247409
N49	N	-1.088485	0.087565	0.525030
N50	N	-1.026689	0.020379	0.504962
H51	H	-0.953971	0.014506	0.535381
N52	N	-1.288899	-0.478699	0.042304
N53	N	-1.273709	-0.456881	0.134458
H54	H	-1.322154	-0.474627	0.191762
H55	H	-1.094247	-0.334688	-0.217712
N56	N	-1.398716	-0.469706	-0.272506
N57	N	-1.339750	-0.523660	-0.325187
H58	H	-1.362587	-0.543432	-0.395884
N59	N	-0.561448	0.288235	-0.143069
N60	N	-0.497853	0.301066	-0.214744
H61	H	-0.458274	0.355910	-0.213883
N62	N	-1.470242	0.118307	0.573285
N63	N	-1.534885	0.061307	0.569190
H64	H	-1.598413	0.066414	0.616814
H65	H	-0.936439	0.221298	-0.151245
N66	N	-0.561382	-0.036968	-0.143092
N67	N	-0.463419	-0.044830	-0.140957
H68	H	-0.423814	-0.106038	-0.140100
H69	H	-1.034090	0.083207	0.342080
H70	H	-1.399859	0.112634	0.189148
N71	N	-1.072312	-0.495993	-0.213557
N72	N	-0.999587	-0.447433	-0.200912
H73	H	-0.925978	-0.475166	-0.187987
N74	N	-1.116628	-0.328991	-0.014467
N75	N	-1.045604	-0.389686	0.003147
H76	H	-0.972785	-0.374314	0.020706
H77	H	-0.936399	-0.070591	-0.151270
N78	N	-1.204100	-0.486169	-0.332942
N79	N	-1.223711	-0.430724	-0.404160
H80	H	-1.243181	-0.451516	-0.475560
N81	N	-1.204155	-0.320652	-0.333515
N82	N	-1.281240	-0.264214	-0.344497
H83	H	-1.300529	-0.240745	-0.416132
N84	N	-1.443373	-0.467716	-0.100030
N85	N	-1.417028	-0.521137	-0.028416
H86	H	-1.471408	-0.539503	0.022715
N87	N	-0.783274	0.306075	-0.147913
N88	N	-0.881236	0.313941	-0.150057
H89	H	-0.920837	0.375151	-0.150925
H90	H	-1.273668	-0.321505	0.025697
N91	N	-1.439589	-0.302392	-0.092403
N92	N	-1.409036	-0.255382	-0.020701
H93	H	-1.460398	-0.229662	0.034085
N94	N	-1.118317	-0.494120	-0.013360
N95	N	-1.070726	-0.548484	-0.074889
H96	H	-0.998694	-0.577117	-0.056906
N97	N	-1.496032	0.120372	0.354634
N98	N	-1.574635	0.126690	0.413603
H99	H	-1.647363	0.132528	0.383210
N100	N	-1.038997	0.083584	0.132107
N101	N	-1.050401	0.084493	0.035519
H102	H	-0.986891	0.079369	-0.012130
