data_functionalizedCrystal
_audit_creation_method	'MofGen! by Chris Wilmer'
_symmetry_space_group_name_H-M	'P1'
_symmetry_Int_Tables_number	1
_symmetry_cell_setting	triclinic
loop_
_symmetry_equiv_pos_as_xyz
  x,y,z
_cell_length_a	16.959454
_cell_length_b	16.959455
_cell_length_c	12.759393
_cell_angle_alpha	90.020940
_cell_angle_beta	90.030714
_cell_angle_gamma	90.019503
loop_
_atom_site_label
_atom_site_type_symbol
_atom_site_fract_x
_atom_site_fract_y
_atom_site_fract_z
Zn1	Zn	-0.314647	1.208432	0.594056
Zn2	Zn	-0.446849	1.208341	0.418379
Zn3	Zn	-0.314687	1.076247	0.418388
Zn4	Zn	-0.446786	1.076226	0.594013
O5	O	-0.380742	1.142311	0.506209
O6	O	-0.332193	1.319031	0.570766
O7	O	-0.429360	1.190788	0.271359
O8	O	-0.204071	1.093828	0.441713
O9	O	-0.429321	1.318964	0.441697
O10	O	-0.204041	1.190945	0.570775
O11	O	-0.332261	1.093739	0.271366
O12	O	-0.332200	0.965633	0.441671
O13	O	-0.429215	1.093793	0.741040
O14	O	-0.429253	0.965617	0.570701
O15	O	-0.332133	1.190925	0.741071
O16	O	-0.557451	1.190768	0.441655
O17	O	-0.557405	1.093704	0.570693
C18	C	-0.380725	0.936945	0.506183
C19	C	-0.380737	0.849088	0.506197
C20	C	-0.431235	0.807777	0.438901
C21	C	-0.330245	0.807846	0.573501
C22	C	-0.330251	0.725300	0.573514
C23	C	-0.380749	0.683989	0.506218
C24	C	-0.431241	0.725224	0.438909
C25	C	-0.279754	0.684059	0.640814
C26	C	-0.279758	0.601508	0.640828
C27	C	-0.330261	0.560196	0.573536
C28	C	-0.380755	0.601435	0.506226
C29	C	-0.431253	0.560124	0.438930
C30	C	-0.481752	0.601363	0.371624
C31	C	-0.481743	0.683911	0.371617
C32	C	-0.330269	0.477647	0.573543
C33	C	-0.431259	0.477571	0.438938
C34	C	-0.586108	1.142245	0.506191
C35	C	-0.673965	1.142289	0.506218
C36	C	-1.045447	1.091843	0.573391
C37	C	-1.045434	1.192999	0.439133
C38	C	-0.962889	1.192972	0.439124
C39	C	-0.921618	1.142378	0.506248
C40	C	-0.962893	1.091812	0.573382
C41	C	-0.921607	1.243531	0.371983
C42	C	-0.839056	1.243505	0.371970
C43	C	-0.797784	1.192915	0.439101
C44	C	-0.839064	1.142347	0.506238
C45	C	-0.797794	1.091754	0.573362
C46	C	-0.839072	1.041190	0.640506
C47	C	-0.921621	1.041222	0.640512
C48	C	-0.715236	1.192883	0.439094
C49	C	-0.715240	1.091723	0.573352
C50	C	-0.174574	1.142399	0.506250
C51	C	-0.086717	1.142437	0.506267
C52	C	-0.380662	1.142367	0.780242
C53	C	-0.380628	1.142390	0.897019
C54	C	-0.380760	1.348479	0.506235
C55	C	-0.380767	1.436336	0.506247
C56	C	-0.380764	1.142302	0.233241
C57	C	-0.380576	1.142431	0.116465
C58	C	-0.330073	1.192974	0.951899
C59	C	-0.330044	1.192993	1.061624
C60	C	-0.431133	1.091842	1.061577
C61	C	-0.431157	1.091820	0.951855
C62	C	-0.279544	1.243544	0.897063
C63	C	-0.228985	1.294132	0.951944
C64	C	-0.228956	1.294151	1.061668
C65	C	-0.279487	1.243582	1.116512
H66	H	-0.238639	0.717700	0.695598
O67	O	-0.279706	1.243629	0.790479
C68	C	-0.355485	1.263880	0.753842
H69	H	-0.388144	1.298301	0.817109
H70	H	-0.349863	1.301808	0.680478
H71	H	-0.389726	1.207907	0.734314
H72	H	-0.238640	0.567939	0.695634
O73	O	-0.281308	0.848010	0.638978
C74	C	-0.326364	0.895788	0.706707
H75	H	-0.388625	0.870896	0.713064
H76	H	-0.297845	0.896766	0.787624
H77	H	-0.329056	0.958337	0.674203
H78	H	-0.955237	1.000055	0.695175
H79	H	-0.187840	1.335299	0.907283
H80	H	-0.805460	0.999993	0.695154
O81	O	-0.480305	1.042841	1.114896
C82	C	-0.531334	1.087837	1.178369
H83	H	-0.536227	1.150081	1.145306
H84	H	-0.592162	1.059225	1.179591
H85	H	-0.506878	1.090588	1.261534
O86	O	-0.530827	0.724059	0.306383
C87	C	-0.581935	0.771805	0.366082
H88	H	-0.554123	0.784201	0.445763
H89	H	-0.592479	0.829839	0.323260
H90	H	-0.640527	0.739987	0.377497
O91	O	-0.480357	1.042676	0.898700
C92	C	-0.524950	0.998045	0.970625
H93	H	-0.527657	1.030425	1.048851
H94	H	-0.587238	0.989604	0.938907
H95	H	-0.496014	0.938017	0.982278
O96	O	-1.085450	1.242238	0.373982
C97	C	-1.065253	1.321012	0.397033
H98	H	-1.005293	1.322639	0.437402
H99	H	-1.062462	1.356478	0.321244
H100	H	-1.111672	1.347619	0.451091
H101	H	-0.279450	1.243592	1.205856
H102	H	-0.289148	0.444074	0.628335
O103	O	-0.179733	1.343248	1.114862
C104	C	-0.100957	1.325993	1.088084
H105	H	-0.099337	1.295591	1.008416
H106	H	-0.065524	1.383056	1.084344
H107	H	-0.074311	1.285381	1.149838
O108	O	-0.480425	0.437531	0.373617
C109	C	-0.559223	0.457672	0.396428
H110	H	-0.560890	0.517619	0.436810
H111	H	-0.594606	0.460464	0.320529
H112	H	-0.585891	0.411220	0.450388
O113	O	-0.530914	0.561316	0.306306
C114	C	-0.609715	0.581448	0.329114
H115	H	-0.611390	0.641398	0.369488
H116	H	-0.645098	0.584230	0.253214
H117	H	-0.636377	0.534997	0.383080
H118	H	-0.681642	1.050526	0.628017
O119	O	-0.480212	0.847953	0.373555
C120	C	-0.469400	0.929672	0.387995
H121	H	-0.408428	0.940979	0.422535
H122	H	-0.474697	0.961017	0.309284
H123	H	-0.516331	0.953100	0.443840
O124	O	-1.085661	1.042752	0.638512
C125	C	-1.167372	1.053641	0.624156
H126	H	-1.178671	1.079565	0.543110
H127	H	-1.198783	0.994443	0.631218
H128	H	-1.190734	1.095717	0.686530
H129	H	-0.955216	1.284716	0.317327
H130	H	-0.681630	1.234047	0.384422
O131	O	-0.799084	1.292700	0.306724
C132	C	-0.853213	1.337346	0.247463
H133	H	-0.912037	1.340080	0.290502
H134	H	-0.829328	1.399621	0.236334
H135	H	-0.862046	1.308439	0.167633
