data_functionalizedCrystal
_audit_creation_method	'MofGen! by Chris Wilmer'
_symmetry_space_group_name_H-M	'P1'
_symmetry_Int_Tables_number	1
_symmetry_cell_setting	triclinic
loop_
_symmetry_equiv_pos_as_xyz
  x,y,z
_cell_length_a	10.654550
_cell_length_b	9.482900
_cell_length_c	10.654550
_cell_angle_alpha	80.574654
_cell_angle_beta	84.484931
_cell_angle_gamma	99.377450
loop_
_atom_site_label
_atom_site_type_symbol
_atom_site_fract_x
_atom_site_fract_y
_atom_site_fract_z
O1	O	1.687227	0.120785	0.156923
O2	O	1.321753	0.120812	0.173724
O3	O	1.512891	0.120788	-0.017414
O4	O	1.496088	0.120808	0.348061
O5	O	1.474068	-0.120999	0.021568
O6	O	1.282930	-0.120976	0.212706
O7	O	1.648404	-0.121003	0.195904
Cu8	Cu	1.462122	-0.143067	0.207865
Cu9	Cu	1.508035	0.142875	0.161764
O10	O	1.457265	-0.120980	0.387043
C11	C	1.255544	-0.000079	0.191981
C12	C	1.116102	-0.000069	0.188287
C13	C	1.036617	-0.000067	0.300829
C14	C	0.905592	-0.000093	0.297356
C15	C	0.933551	-0.000116	0.068790
C16	C	1.064572	-0.000101	0.072266
N17	N	1.429838	-0.344183	0.240289
C18	C	1.498504	-0.416390	0.171321
C19	C	1.471653	-0.583805	0.198308
C20	C	1.714613	-0.000109	0.177648
C21	C	1.854056	-0.000110	0.181340
C22	C	1.492246	-0.000105	-0.044721
C23	C	1.488554	-0.000102	-0.184165
N24	N	1.540328	0.343992	0.129331
C25	C	1.601095	-0.000110	-0.263649
C26	C	1.597621	-0.000092	-0.394673
C27	C	1.369056	-0.000065	-0.366714
C28	C	1.372533	-0.000072	-0.235695
C29	C	1.477911	-0.000084	0.414350
C30	C	1.481604	-0.000077	0.553792
H31	H	0.891578	-0.000150	-0.025669
C32	C	1.366559	-0.666541	0.303527
C33	C	1.248765	-0.629669	0.276428
C34	C	1.151923	-0.705872	0.373315
H35	H	1.384950	-0.641729	0.383488
H36	H	1.362366	-0.768068	0.307654
H37	H	1.252959	-0.528164	0.272315
H38	H	1.230333	-0.654485	0.196485
H39	H	1.147730	-0.807400	0.377442
H40	H	1.170327	-0.681054	0.453269
H41	H	1.071987	-0.680875	0.354935
H42	H	1.078566	-0.000052	0.395302
H43	H	0.840879	-0.000094	0.388999
C44	C	1.150683	-0.000027	-0.050080
C45	C	1.077524	-0.000007	-0.152438
C46	C	1.156808	0.000074	-0.265158
H47	H	1.188878	-0.084317	-0.040058
H48	H	1.215891	0.084328	-0.067143
H49	H	1.012340	-0.084354	-0.135379
H50	H	1.039331	0.084276	-0.162501
H51	H	1.222015	0.084429	-0.282221
H52	H	1.194998	-0.084217	-0.255123
H53	H	1.107183	0.000101	-0.334623
H54	H	1.351168	-0.406303	0.319309
H55	H	1.695567	-0.000131	-0.221699
H56	H	1.577165	-0.354272	0.092291
H57	H	1.618995	-0.593893	0.050296
H58	H	1.689264	-0.000095	-0.459385
H59	H	1.274594	-0.000043	-0.408686
H60	H	1.280884	-0.000062	-0.170975
