data_functionalizedCrystal
_audit_creation_method	'MofGen! by Chris Wilmer'
_symmetry_space_group_name_H-M	'P1'
_symmetry_Int_Tables_number	1
_symmetry_cell_setting	triclinic
loop_
_symmetry_equiv_pos_as_xyz
  x,y,z
_cell_length_a	18.050590
_cell_length_b	18.050591
_cell_length_c	18.050582
_cell_angle_alpha	90.011103
_cell_angle_beta	89.976663
_cell_angle_gamma	89.981552
loop_
_atom_site_label
_atom_site_type_symbol
_atom_site_fract_x
_atom_site_fract_y
_atom_site_fract_z
Zn1	Zn	-0.295709	-1.135342	-0.419833
Zn2	Zn	0.204291	-0.635342	0.080167
Zn3	Zn	-0.419892	-1.135274	-0.295641
Zn4	Zn	0.080108	-0.635274	0.204359
Zn5	Zn	-0.295720	-1.011162	-0.295665
Zn6	Zn	0.204280	-0.511162	0.204335
Zn7	Zn	-0.419861	-1.011131	-0.419798
Zn8	Zn	0.080139	-0.511131	0.080202
O9	O	-0.357795	-1.073227	-0.357734
O10	O	0.142205	-0.573227	0.142266
O11	O	-0.312190	-1.239258	-0.403363
O12	O	0.187810	-0.739258	0.096637
O13	O	-0.403438	-1.118795	-0.191720
O14	O	0.096562	-0.618795	0.308280
O15	O	-0.191794	-1.027676	-0.312161
O16	O	0.308206	-0.527676	0.187839
O17	O	-0.403427	-1.239208	-0.312120
O18	O	0.096573	-0.739208	0.187880
O19	O	-0.191786	-1.118911	-0.403387
O20	O	0.308214	-0.618911	0.096613
O21	O	-0.312209	-1.027610	-0.191737
O22	O	0.187791	-0.527610	0.308263
O23	O	-0.312180	-0.907233	-0.312127
O24	O	0.187820	-0.407233	0.187873
O25	O	-0.403374	-1.027623	-0.523727
O26	O	0.096626	-0.527623	-0.023727
O27	O	-0.403385	-0.907210	-0.403327
O28	O	0.096615	-0.407210	0.096673
O29	O	-0.312160	-1.118881	-0.523753
O30	O	0.187840	-0.618881	-0.023753
O31	O	-0.523813	-1.118765	-0.312086
O32	O	-0.023813	-0.618765	0.187914
O33	O	-0.523790	-1.027557	-0.403304
O34	O	-0.023790	-0.527557	0.096696
C35	C	-0.357781	-0.880275	-0.357726
C36	C	0.142219	-0.380275	0.142274
C37	C	-0.357793	-0.797729	-0.357741
C38	C	0.142207	-0.297729	0.142259
C39	C	-0.407498	-0.548913	-0.407265
C40	C	0.092502	-0.048913	0.092735
C41	C	-0.425568	-0.598286	-0.339479
C42	C	0.074432	-0.098286	0.160521
C43	C	-0.357821	-0.500609	-0.357736
C44	C	0.142179	-0.000609	0.142264
C45	C	-0.339772	-0.598317	-0.425520
C46	C	0.160228	-0.098317	0.074480
C47	C	-0.357809	-0.646594	-0.357742
C48	C	0.142191	-0.146594	0.142258
C49	C	-0.375927	-0.548895	-0.289915
C50	C	0.124073	-0.048895	0.210085
C51	C	-0.290100	-0.548922	-0.376001
C52	C	0.209900	-0.048922	0.123999
C53	C	-0.308144	-0.598273	-0.308169
C54	C	0.191856	-0.098273	0.191831
C55	C	-0.357830	-0.416511	-0.357734
C56	C	0.142170	0.083489	0.142266
C57	C	-0.357800	-0.730690	-0.357737
C58	C	0.142200	-0.230690	0.142263
C59	C	-0.550748	-1.073170	-0.357705
C60	C	-0.050748	-0.573170	0.142295
C61	C	-0.633293	-1.073214	-0.357717
C62	C	-0.133293	-0.573214	0.142283
C63	C	-0.832729	-1.122915	-0.308182
C64	C	-0.332729	-0.622915	0.191818
C65	C	-0.882068	-1.141051	-0.375961
C66	C	-0.382068	-0.641051	0.124039
C67	C	-0.784424	-1.073256	-0.357747
C68	C	-0.284424	-0.573256	0.142253
C69	C	-0.882167	-1.055196	-0.289998
C70	C	-0.382167	-0.555196	0.210002
C71	C	-0.930409	-1.073298	-0.357769
C72	C	-0.430409	-0.573298	0.142231
C73	C	-0.832675	-1.091426	-0.425561
C74	C	-0.332675	-0.591426	0.074439
C75	C	-0.832770	-1.005539	-0.339552
C76	C	-0.332770	-0.505539	0.160448
C77	C	-0.882086	-1.023649	-0.407378
C78	C	-0.382086	-0.523649	0.092622
C79	C	-0.700325	-1.073233	-0.357733
C80	C	-0.200325	-0.573233	0.142267
C81	C	-1.014505	-1.073320	-0.357791
C82	C	-0.514505	-0.573320	0.142209
C83	C	-0.164090	-1.073305	-0.357780
C84	C	0.335910	-0.573305	0.142220
C85	C	-0.081544	-1.073338	-0.357800
C86	C	0.418456	-0.573338	0.142200
C87	C	-0.357763	-1.073256	-0.551440
C88	C	0.142237	-0.573256	-0.051440
C89	C	-0.357749	-1.073269	-0.633986
C90	C	0.142251	-0.573269	-0.133986
C91	C	-0.357815	-0.266933	-0.357740
C92	C	0.142185	0.233067	0.142260
C93	C	-0.357836	-0.349478	-0.357737
C94	C	0.142164	0.150522	0.142263
C95	C	-0.407283	-1.023681	-0.833423
C96	C	0.092717	-0.523681	-0.333423
C97	C	-0.425437	-1.091439	-0.882809
C98	C	0.074563	-0.591439	-0.382809
C99	C	-0.357692	-1.073305	-0.785116
C100	C	0.142308	-0.573305	-0.285116
C101	C	-0.339518	-1.005584	-0.882812
C102	C	0.160482	-0.505584	-0.382812
C103	C	-0.357638	-1.073335	-0.931102
C104	C	0.142362	-0.573335	-0.431102
C105	C	-0.375881	-1.141099	-0.833416
C106	C	0.124119	-0.641099	-0.333416
C107	C	-0.289930	-1.055199	-0.833414
C108	C	0.210070	-0.555199	-0.333414
C109	C	-0.308058	-1.123004	-0.882778
C110	C	0.191942	-0.623004	-0.382778
C111	C	-0.357724	-1.073287	-0.701018
C112	C	0.142276	-0.573287	-0.201018
C113	C	-0.357606	-1.073360	-1.015198
C114	C	0.142394	-0.573360	-0.515198
C115	C	-0.357775	-1.073241	-0.164782
C116	C	0.142225	-0.573241	0.335218
C117	C	-0.357580	-1.073372	-0.082237
C118	C	0.142420	-0.573372	0.417763
H119	H	-0.324511	-0.620027	-0.482842
H120	H	0.175489	-0.120027	0.017158
H121	H	-0.391257	-0.527277	-0.232578
H122	H	0.108743	-0.027277	0.267422
H123	H	-0.811057	-1.164925	-0.266310
H124	H	-0.311057	-0.664925	0.233690
H125	H	-0.482833	-0.619969	-0.324027
H126	H	0.017167	-0.119969	0.175973
H127	H	-0.903725	-1.198335	-0.391364
H128	H	-0.403725	-0.698335	0.108636
H129	H	-0.449276	-0.981754	-0.811752
H130	H	0.050724	-0.481754	-0.311752
H131	H	-0.811028	-1.106662	-0.482914
H132	H	-0.311028	-0.606662	0.017086
H133	H	-0.232665	-1.039846	-0.811700
H134	H	0.267335	-0.539846	-0.311700
H135	H	-0.266129	-0.619809	-0.266238
H136	H	0.233871	-0.119809	0.233762
H137	H	-0.449544	-0.527240	-0.449095
H138	H	0.050456	-0.027240	0.050905
H139	H	-0.232850	-0.527222	-0.391472
H140	H	0.267150	-0.027222	0.108528
H141	H	-0.482718	-1.106771	-0.904507
H142	H	0.017282	-0.606771	-0.404507
H143	H	-0.903906	-1.039903	-0.232695
H144	H	-0.403906	-0.539903	0.267305
H145	H	-0.324168	-0.948301	-0.904510
H146	H	0.175832	-0.448301	-0.404510
H147	H	-0.903621	-0.981672	-0.449351
H148	H	-0.403621	-0.481672	0.050649
H149	H	-0.811097	-0.948271	-0.324129
H150	H	-0.311097	-0.448271	0.175871
H151	H	-0.391295	-1.198399	-0.811809
H152	H	0.108705	-0.698399	-0.311809
H153	H	-0.266098	-1.165031	-0.904312
H154	H	0.233902	-0.665031	-0.404312
