data_functionalizedCrystal
_audit_creation_method	'MofGen! by Chris Wilmer'
_symmetry_space_group_name_H-M	'P1'
_symmetry_Int_Tables_number	1
_symmetry_cell_setting	triclinic
loop_
_symmetry_equiv_pos_as_xyz
  x,y,z
_cell_length_a	23.532361
_cell_length_b	23.532357
_cell_length_c	22.610064
_cell_angle_alpha	89.998517
_cell_angle_beta	89.996103
_cell_angle_gamma	82.828980
loop_
_atom_site_label
_atom_site_type_symbol
_atom_site_fract_x
_atom_site_fract_y
_atom_site_fract_z
O1	O	0.755268	0.069002	-0.049132
O2	O	1.255268	0.569002	0.450868
O3	O	0.589399	0.079034	-0.049147
O4	O	1.089399	0.579034	0.450853
O5	O	0.677350	-0.008916	-0.049127
O6	O	1.177350	0.491084	0.450873
O7	O	0.667317	0.156953	-0.049153
O8	O	1.167317	0.656953	0.450847
O9	O	0.677335	-0.008904	0.049242
O10	O	1.177335	0.491096	0.549242
O11	O	0.589384	0.079047	0.049222
O12	O	1.089384	0.579047	0.549222
O13	O	0.755253	0.069015	0.049237
O14	O	1.255253	0.569015	0.549237
Zn15	Zn	0.672316	0.074033	0.064848
Zn16	Zn	1.172316	0.574033	0.564848
Zn17	Zn	0.672336	0.074016	-0.064758
Zn18	Zn	1.172336	0.574016	0.435242
O19	O	0.667302	0.156965	0.049217
O20	O	1.167302	0.656965	0.549217
C21	C	0.568175	0.078789	0.000035
C22	C	1.068175	0.578789	0.500035
C23	C	0.504957	0.078034	0.000030
C24	C	1.004957	0.578034	0.500030
C25	C	0.231722	0.074723	-0.053587
C26	C	0.731722	0.574723	0.446413
C27	C	0.291122	0.075438	-0.053588
C28	C	0.791122	0.575438	0.446412
O29	O	0.321855	0.075782	-0.099190
O30	O	0.821855	0.575782	0.400810
N31	N	0.320819	0.075806	0.000033
N32	N	0.820819	0.575806	0.500033
C33	C	0.291114	0.075454	0.053659
C34	C	0.791114	0.575454	0.553659
O35	O	0.321828	0.075832	0.099268
O36	O	0.821828	0.575832	0.599268
C37	C	0.231716	0.074734	0.053660
C38	C	0.731716	0.574734	0.553660
C39	C	0.202021	0.074372	0.000035
C40	C	0.702021	0.574372	0.500035
C41	C	0.202027	0.074360	-0.107207
C42	C	0.702027	0.574360	0.392793
C43	C	0.142632	0.073646	-0.107205
C44	C	0.642632	0.573646	0.392795
C45	C	0.112931	0.073295	-0.053583
C46	C	0.612931	0.573295	0.446417
C47	C	0.142626	0.073658	0.000037
C48	C	0.642626	0.573658	0.500037
C49	C	0.202013	0.074378	0.107286
C50	C	0.702013	0.574378	0.607286
C51	C	0.142611	0.073658	0.107282
C52	C	0.642611	0.573658	0.607282
C53	C	0.112916	0.073296	0.053657
C54	C	0.612916	0.573296	0.553657
C55	C	0.053529	0.072594	0.053661
C56	C	0.553529	0.572594	0.553661
N57	N	0.023832	0.072225	0.000040
N58	N	0.523832	0.572225	0.500040
C59	C	0.053533	0.072576	-0.053582
C60	C	0.553533	0.572576	0.446418
C61	C	0.415854	0.076963	0.053653
C62	C	0.915854	0.576963	0.553653
C63	C	0.475250	0.077686	0.053653
C64	C	0.975250	0.577686	0.553653
C65	C	0.475254	0.077669	-0.053595
C66	C	0.975254	0.577669	0.446405
C67	C	0.415856	0.076950	-0.053594
C68	C	0.915856	0.576950	0.446406
C69	C	0.386157	0.076594	0.000032
C70	C	0.886157	0.576594	0.500032
C71	C	-0.071202	0.071078	-0.053575
C72	C	0.428798	0.571078	0.446425
C73	C	-0.130604	0.070366	-0.053568
C74	C	0.369396	0.570366	0.446432
C75	C	-0.130602	0.070380	0.053679
C76	C	0.369398	0.570380	0.553679
C77	C	-0.071206	0.071094	0.053673
C78	C	0.428794	0.571094	0.553673
C79	C	-0.041508	0.071441	0.000041
C80	C	0.458492	0.571441	0.500041
O81	O	0.022759	0.072247	0.099239
O82	O	0.522759	0.572247	0.599239
O83	O	0.022812	0.072190	-0.099184
O84	O	0.522812	0.572190	0.400816
C85	C	0.677092	-0.030127	0.000059
C86	C	1.177092	0.469873	0.500059
C87	C	0.676337	-0.093345	0.000065
C88	C	1.176337	0.406655	0.500065
C89	C	0.671609	-0.485363	-0.053589
C90	C	1.171609	0.014637	0.446411
C91	C	0.670892	-0.544762	-0.053592
C92	C	1.170892	-0.044762	0.446408
O93	O	0.670509	-0.575484	-0.099195
O94	O	1.170509	-0.075484	0.400805
N95	N	0.670527	-0.574466	0.000028
N96	N	1.170527	-0.074466	0.500028
C97	C	0.670875	-0.544767	0.053655
C98	C	1.170875	-0.044767	0.553655
O99	O	0.670499	-0.575487	0.099263
O100	O	1.170499	-0.075487	0.599263
C101	C	0.671588	-0.485368	0.053658
C102	C	1.171588	0.014632	0.553658
C103	C	0.671958	-0.455668	0.000034
C104	C	1.171958	0.044332	0.500034
C105	C	0.671978	-0.455662	-0.107208
C106	C	1.171978	0.044338	0.392792
C107	C	0.672696	-0.396267	-0.107205
C108	C	1.172696	0.103733	0.392795
C109	C	0.673045	-0.366572	-0.053581
C110	C	1.173045	0.133428	0.446419
C111	C	0.672676	-0.396273	0.000038
C112	C	1.172676	0.103727	0.500038
C113	C	0.671931	-0.455670	0.107285
C114	C	1.171931	0.044330	0.607285
C115	C	0.672644	-0.396267	0.107283
C116	C	1.172644	0.103733	0.607283
C117	C	0.673014	-0.366566	0.053659
C118	C	1.173014	0.133434	0.553659
C119	C	0.673743	-0.307183	0.053665
C120	C	1.173743	0.192817	0.553665
N121	N	0.674108	-0.277479	0.000044
N122	N	1.174108	0.222521	0.500044
C123	C	0.673759	-0.307174	-0.053579
C124	C	1.173759	0.192826	0.446421
C125	C	0.669376	-0.669508	0.053645
C126	C	1.169376	-0.169508	0.553645
C127	C	0.668667	-0.728907	0.053643
C128	C	1.168667	-0.228907	0.553643
C129	C	0.668683	-0.728897	-0.053605
C130	C	1.168683	-0.228897	0.446395
C131	C	0.669396	-0.669498	-0.053602
C132	C	1.169396	-0.169498	0.446398
C133	C	0.669740	-0.639804	0.000025
C134	C	1.169740	-0.139804	0.500025
C135	C	0.675268	-0.182440	-0.053567
C136	C	1.175268	0.317560	0.446433
C137	C	0.675988	-0.123040	-0.053558
C138	C	1.175988	0.376960	0.446442
C139	C	0.675969	-0.123054	0.053689
C140	C	1.175969	0.376946	0.553689
C141	C	0.675252	-0.182449	0.053681
C142	C	1.175252	0.317551	0.553681
C143	C	0.674899	-0.212140	0.000048
C144	C	1.174899	0.287860	0.500048
O145	O	0.674125	-0.276423	0.099244
O146	O	1.174125	0.223577	0.599244
O147	O	0.674127	-0.276445	-0.099179
O148	O	1.174127	0.223555	0.400821
C149	C	0.776477	0.069260	0.000053
C150	C	1.276477	0.569260	0.500053
C151	C	0.839695	0.070015	0.000054
C152	C	1.339695	0.570015	0.500054
C153	C	0.667560	0.178176	0.000029
C154	C	1.167560	0.678176	0.500029
C155	C	0.668315	0.241394	0.000020
C156	C	1.168315	0.741394	0.500020
N157	N	0.672306	0.074044	0.153300
N158	N	1.172306	0.574044	0.653300
N159	N	0.672351	0.074000	-0.153211
N160	N	1.172351	0.574000	0.346789
C161	C	0.711283	0.035078	0.561950
C162	C	1.211283	0.535078	1.061950
C163	C	0.711286	0.035073	0.623870
C164	C	1.211286	0.535073	1.123870
O165	O	0.744401	0.001951	0.655897
O166	O	1.244401	0.501951	1.155897
N167	N	0.672336	0.074004	0.654837
N168	N	1.172336	0.574004	1.154837
C169	C	0.633377	0.112938	0.623881
C170	C	1.133377	0.612938	1.123881
O171	O	0.600247	0.146051	0.655906
O172	O	1.100247	0.646051	1.155906
C173	C	0.633372	0.112939	0.561962
C174	C	1.133372	0.612939	1.061962
C175	C	0.672328	0.074009	0.530998
C176	C	1.172328	0.574009	1.030998
C177	C	0.750235	-0.003849	0.530987
C178	C	1.250235	0.496151	1.030987
C179	C	0.750233	-0.003844	0.469071
C180	C	1.250233	0.496156	0.969071
C181	C	0.711278	0.035088	0.438119
C182	C	1.211278	0.535088	0.938119
C183	C	0.672325	0.074014	0.469083
C184	C	1.172325	0.574014	0.969083
C185	C	0.594410	0.151869	0.531007
C186	C	1.094410	0.651869	1.031007
C187	C	0.594408	0.151866	0.469084
C188	C	1.094408	0.651866	0.969084
C189	C	0.633364	0.112937	0.438120
C190	C	1.133364	0.612937	0.938120
C191	C	0.633368	0.112951	0.376215
C192	C	1.133368	0.612951	0.876215
N193	N	0.672318	0.074020	0.345248
N194	N	1.172318	0.574020	0.845248
C195	C	0.711273	0.035089	0.376200
C196	C	1.211273	0.535089	0.876200
C197	C	0.633390	0.112932	0.753915
C198	C	1.133390	0.612932	1.253915
C199	C	0.633397	0.112934	0.815832
C200	C	1.133397	0.612934	1.315832
C201	C	0.711306	0.035069	0.815817
C202	C	1.211306	0.535069	1.315817
C203	C	0.711301	0.035070	0.753898
C204	C	1.211301	0.535070	1.253898
C205	C	0.672340	0.074001	0.722948
C206	C	1.172340	0.574001	1.222948
C207	C	0.711265	0.035102	0.246173
C208	C	1.211265	0.535102	0.746173
C209	C	0.711261	0.035112	0.184252
C210	C	1.211261	0.535112	0.684252
C211	C	0.633351	0.112975	0.184272
C212	C	1.133351	0.612975	0.684272
C213	C	0.633357	0.112968	0.246188
C214	C	1.133357	0.612968	0.746188
C215	C	0.672316	0.074026	0.277137
C216	C	1.172316	0.574026	0.777137
O217	O	0.600268	0.146055	0.344150
O218	O	1.100268	0.646055	0.844150
O219	O	0.744392	0.001976	0.344167
O220	O	1.244392	0.501976	0.844167
H221	H	0.118460	0.073349	-0.150872
H222	H	0.618460	0.573349	0.349128
H223	H	-0.154779	0.070073	-0.097238
H224	H	0.345221	0.570073	0.402762
O225	O	0.591390	0.154928	0.849230
O226	O	1.091390	0.654928	1.349230
H227	H	0.615209	0.182481	0.877433
H228	H	1.115209	0.682481	1.377433
H229	H	0.562680	0.183569	0.443887
H230	H	1.062680	0.683569	0.943887
O231	O	0.591374	0.154933	0.720532
O232	O	1.091374	0.654933	1.220532
H233	H	0.564298	0.182004	0.752472
H234	H	1.064298	0.682004	1.252472
O235	O	0.591343	0.154955	0.279591
O236	O	1.091343	0.654955	0.779591
H237	H	0.564253	0.182025	0.247662
H238	H	1.064253	0.682025	0.747662
H239	H	0.668375	-0.753085	0.097309
H240	H	1.168375	-0.253085	0.597309
H241	H	-0.047029	0.071401	0.097339
H242	H	0.452971	0.571401	0.597339
H243	H	0.668397	-0.753085	-0.097268
H244	H	1.168397	-0.253085	0.402732
O245	O	0.507295	0.078036	-0.111434
O246	O	1.007295	0.578036	0.388566
H247	H	0.553587	0.078589	-0.102421
H248	H	1.053587	0.578589	0.397579
O249	O	0.591322	0.154952	0.150884
O250	O	1.091322	0.654952	0.650884
H251	H	0.597860	0.148402	0.102627
H252	H	1.097860	0.648402	0.602627
O253	O	0.669764	-0.637487	0.111491
O254	O	1.169764	-0.137487	0.611491
H255	H	0.630804	-0.643590	0.137205
H256	H	1.130804	-0.143590	0.637205
O257	O	0.753324	-0.006920	0.849211
O258	O	1.253324	0.493080	1.349211
H259	H	0.780416	-0.033989	0.817281
H260	H	1.280416	0.466011	1.317281
O261	O	-0.039175	0.071458	-0.111418
O262	O	0.460825	0.571458	0.388582
H263	H	-0.069811	0.071092	-0.148699
H264	H	0.430189	0.571092	0.351301
O265	O	0.669784	-0.637466	-0.111439
O266	O	1.169784	-0.137466	0.388561
H267	H	0.708471	-0.654173	-0.137152
H268	H	1.208471	-0.154173	0.362848
H269	H	0.672916	-0.372092	0.150953
H270	H	1.172916	0.127908	0.650953
H271	H	0.226204	0.074644	-0.150875
H272	H	0.726204	0.574644	0.349125
H273	H	0.391682	0.076655	-0.097260
H274	H	0.891682	0.576655	0.402740
H275	H	0.671692	-0.479833	-0.150877
H276	H	1.171692	0.020167	0.349123
H277	H	0.499422	0.077990	0.097319
H278	H	0.999422	0.577990	0.597319
H279	H	0.562689	0.183569	0.556209
H280	H	1.062689	0.683569	1.056209
H281	H	0.674956	-0.206633	0.097346
H282	H	1.174956	0.293367	0.597346
H283	H	0.676256	-0.098866	0.097347
H284	H	1.176256	0.401134	0.597347
H285	H	0.226181	0.074671	0.150953
H286	H	0.726181	0.574671	0.650953
O287	O	0.383820	0.076592	0.111496
O288	O	0.883820	0.576592	0.611496
H289	H	0.414453	0.076975	0.148777
H290	H	0.914453	0.576975	0.648777
H291	H	0.742986	0.003411	0.159043
H292	H	1.242986	0.503411	0.659043
H293	H	0.671631	-0.479842	0.150951
H294	H	1.171631	0.020158	0.650951
H295	H	0.676291	-0.098861	-0.097227
H296	H	1.176291	0.401139	0.402773
H297	H	0.781953	-0.035545	0.443864
H298	H	1.281953	0.464455	0.943864
O299	O	0.792262	-0.045835	0.564366
O300	O	1.292262	0.454165	1.064366
H301	H	0.819347	-0.072894	0.532423
H302	H	1.319347	0.427106	1.032423
O303	O	0.110576	0.073280	0.165122
O304	O	0.610576	0.573280	0.665122
H305	H	0.141207	0.073658	0.202406
H306	H	0.641207	0.573658	0.702406
H307	H	0.674977	-0.206607	-0.097240
H308	H	1.174977	0.293393	0.402760
O309	O	-0.162692	0.070378	0.111512
O310	O	0.337308	0.570378	0.611512
H311	H	-0.209001	0.069952	0.102499
H312	H	0.290999	0.569952	0.602499
H313	H	0.672995	-0.372090	-0.150871
H314	H	1.172995	0.127910	0.349129
H315	H	0.742989	0.003392	0.271365
H316	H	1.242989	0.503392	0.771365
O317	O	0.753310	-0.006931	0.720511
O318	O	1.253310	0.493069	1.220511
H319	H	0.729491	-0.034485	0.692310
H320	H	1.229491	0.465515	1.192310
