data_functionalizedCrystal
_audit_creation_method	'MofGen! by Chris Wilmer'
_symmetry_space_group_name_H-M	'P1'
_symmetry_Int_Tables_number	1
_symmetry_cell_setting	triclinic
loop_
_symmetry_equiv_pos_as_xyz
  x,y,z
_cell_length_a	8.497374
_cell_length_b	18.215407
_cell_length_c	18.215405
_cell_angle_alpha	89.974667
_cell_angle_beta	89.985971
_cell_angle_gamma	90.003703
loop_
_atom_site_label
_atom_site_type_symbol
_atom_site_fract_x
_atom_site_fract_y
_atom_site_fract_z
Zn1	Zn	0.891978	1.124955	0.293103
Zn2	Zn	0.628155	1.124898	0.416139
Zn3	Zn	0.628196	1.001922	0.293092
Zn4	Zn	0.891878	1.001853	0.416133
O5	O	0.760052	1.063407	0.354617
O6	O	0.857006	1.227931	0.309431
O7	O	0.407398	1.108590	0.399814
O8	O	0.663247	1.018295	0.190109
O9	O	0.663177	1.227890	0.399825
O10	O	0.857046	1.108687	0.190117
O11	O	0.407429	1.018240	0.309412
O12	O	0.663149	0.898929	0.309406
O13	O	1.112653	1.018178	0.399816
O14	O	0.856875	0.898878	0.399805
O15	O	1.112727	1.108620	0.309426
O16	O	0.663079	1.108523	0.519122
O17	O	0.856835	1.018123	0.519118
C18	C	0.760007	0.872201	0.354604
C19	C	0.760025	0.790402	0.354616
C20	C	0.759976	1.063329	0.545823
C21	C	0.759996	1.063363	0.627622
C22	C	0.860771	0.602201	0.401761
C23	C	0.860791	0.525342	0.401763
C24	C	0.659367	0.525365	0.307486
C25	C	0.659357	0.602222	0.307481
C26	C	0.760056	0.640638	0.354622
C27	C	0.760086	0.486922	0.354630
C28	C	0.760107	0.403589	0.354632
C29	C	0.760038	0.723977	0.354619
C30	C	1.171532	1.063401	0.354618
C31	C	1.350176	1.063403	0.354626
C32	C	0.760098	1.255360	0.354630
C33	C	0.760118	1.337159	0.354636
C34	C	0.760163	1.063505	0.162664
C35	C	0.760210	1.063547	0.080865
C36	C	0.659293	1.110545	0.815793
C37	C	0.659332	1.110578	0.892652
C38	C	0.860924	1.016363	0.892688
C39	C	0.860892	1.016334	0.815831
C40	C	0.760068	1.063424	0.777385
C41	C	0.760138	1.063486	0.931101
C42	C	0.760180	1.063521	1.014435
C43	C	0.760028	1.063390	0.694046
H44	H	0.942805	0.494050	0.440147
H45	H	0.577199	1.148890	0.784493
C46	C	0.548595	0.483102	0.255638
C47	C	0.617185	0.430287	0.197917
C48	C	0.506408	0.388024	0.146070
C49	C	0.327042	0.398578	0.151944
C50	C	0.258443	0.451396	0.209667
C51	C	0.369220	0.493658	0.261515
H52	H	0.749971	0.422472	0.193567
H53	H	0.557191	0.348925	0.103339
H54	H	0.245039	0.367293	0.113564
H55	H	0.125657	0.459210	0.214018
H56	H	0.318437	0.532758	0.304245
H57	H	0.577343	0.633519	0.269090
C58	C	0.971750	0.964498	0.773575
C59	C	1.095647	0.996320	0.720687
C60	C	1.206504	0.944489	0.678430
C61	C	1.193464	0.860835	0.689061
C62	C	1.069562	0.829009	0.741951
C63	C	0.958705	0.880840	0.784208
H64	H	1.105305	1.058249	0.712816
H65	H	1.298225	0.968049	0.639278
H66	H	1.275527	0.822467	0.657780
H67	H	1.059905	0.767080	0.749822
H68	H	0.866985	0.857279	0.823360
H69	H	0.943009	0.978023	0.923999
C70	C	0.971549	0.644459	0.453609
C71	C	1.082340	0.602175	0.505458
C72	C	1.193125	0.644431	0.557306
C73	C	1.193119	0.728971	0.557306
C74	C	1.082324	0.771260	0.505456
C75	C	0.971539	0.729004	0.453607
H76	H	1.082348	0.539589	0.505460
H77	H	1.275143	0.613125	0.595689
H78	H	1.275129	0.760251	0.595687
H79	H	1.082316	0.833846	0.505454
H80	H	0.889521	0.760309	0.415224
C81	C	0.548476	1.162412	0.934901
C82	C	0.437583	1.214208	0.892610
C83	C	0.326726	1.266046	0.934858
C84	C	0.326762	1.266087	1.019398
C85	C	0.437659	1.214289	1.061695
C86	C	0.548516	1.162451	1.019446
H87	H	0.437553	1.214180	0.830024
H88	H	0.244633	1.304391	0.903548
H89	H	0.244699	1.304461	1.050673
H90	H	0.437690	1.214317	1.124280
H91	H	0.630610	1.124106	1.050757
