data_functionalizedCrystal
_audit_creation_method	'MofGen! by Chris Wilmer'
_symmetry_space_group_name_H-M	'P1'
_symmetry_Int_Tables_number	1
_symmetry_cell_setting	triclinic
loop_
_symmetry_equiv_pos_as_xyz
  x,y,z
_cell_length_a	12.759401
_cell_length_b	17.637651
_cell_length_c	12.759393
_cell_angle_alpha	101.250165
_cell_angle_beta	90.018496
_cell_angle_gamma	101.219542
loop_
_atom_site_label
_atom_site_type_symbol
_atom_site_fract_x
_atom_site_fract_y
_atom_site_fract_z
Zn1	Zn	1.521690	-0.314720	0.509310
Zn2	Zn	2.021690	0.185280	1.009310
Zn3	Zn	1.486052	-0.446958	0.298053
Zn4	Zn	1.986052	0.053042	0.798053
Zn5	Zn	1.345981	-0.314761	0.333638
Zn6	Zn	1.845981	0.185239	0.833638
Zn7	Zn	1.310465	-0.446897	0.473711
Zn8	Zn	1.810465	0.053103	0.973711
O9	O	1.416047	-0.380834	0.403678
O10	O	1.916047	0.119166	0.903678
O11	O	1.663982	-0.332270	0.481292
O12	O	2.163982	0.167730	0.981292
O13	O	1.467420	-0.429465	0.155741
O14	O	1.967420	0.070535	0.655741
O15	O	1.399068	-0.204114	0.386732
O16	O	1.899068	0.295886	0.886732
O17	O	1.637798	-0.429425	0.326083
O18	O	2.137798	0.070575	0.826083
O19	O	1.528160	-0.204083	0.515798
O20	O	2.028160	0.295917	1.015798
O21	O	1.364511	-0.332340	0.181885
O22	O	1.864511	0.167660	0.681885
O23	O	1.194251	-0.332281	0.352213
O24	O	1.694251	0.167719	0.852213
O25	O	1.338535	-0.429321	0.625466
O26	O	1.838535	0.070679	1.125466
O27	O	1.168157	-0.429361	0.455124
O28	O	1.668157	0.070639	0.955124
O29	O	1.493722	-0.332211	0.651620
O30	O	1.993722	0.167789	1.151620
O31	O	1.432982	-0.557592	0.291564
O32	O	1.932982	-0.057592	0.791564
O33	O	1.303978	-0.557547	0.420619
O34	O	1.803978	-0.057547	0.920619
C35	C	1.143084	-0.380820	0.403668
C36	C	1.643084	0.119180	0.903668
C37	C	1.026304	-0.380832	0.403683
C38	C	1.526304	0.119168	0.903683
C39	C	0.957860	-0.431463	0.457136
C40	C	1.457860	0.068537	0.957136
C41	C	0.848133	-0.431473	0.457145
C42	C	1.348133	0.068527	0.957145
C43	C	0.875304	-0.330220	0.350239
C44	C	1.375304	0.169780	0.850239
C45	C	0.985029	-0.330206	0.350238
C46	C	1.485029	0.169794	0.850238
C47	C	0.942172	-0.489923	0.518853
C48	C	1.442172	0.010077	1.018853
C49	C	0.832445	-0.489933	0.518862
C50	C	1.332445	0.010067	1.018862
C51	C	1.360787	-0.586258	0.348390
C52	C	1.860787	-0.086258	0.848390
C53	C	1.337243	-0.674139	0.324772
C54	C	1.837243	-0.174139	0.824772
C55	C	1.595593	-0.962796	0.583429
C56	C	2.095593	-0.462796	1.083429
C57	C	1.573436	-1.045373	0.561218
C58	C	2.073436	-0.545373	1.061218
C59	C	1.439101	-1.045512	0.426693
C60	C	1.939101	-0.545512	0.926693
C61	C	1.461250	-0.962933	0.448889
C62	C	1.961250	-0.462933	0.948889
C63	C	1.539496	-0.921581	0.527259
C64	C	2.039496	-0.421581	1.027259
C65	C	1.405154	-0.921718	0.392718
C66	C	1.905154	-0.421718	0.892718
C67	C	1.427298	-0.839146	0.414916
C68	C	1.927298	-0.339146	0.914916
C69	C	1.505538	-0.797788	0.493285
C70	C	2.005538	-0.297788	0.993285
C71	C	1.561640	-0.839009	0.549457
C72	C	2.061640	-0.339009	1.049457
C73	C	1.326903	-0.963072	0.314354
C74	C	1.826903	-0.463072	0.814354
C75	C	1.270807	-0.921857	0.258183
C76	C	1.770807	-0.421857	0.758183
C77	C	1.292955	-0.839283	0.280376
C78	C	1.792955	-0.339283	0.780376
C79	C	1.371196	-0.797926	0.358744
C80	C	1.871196	-0.297926	0.858744
C81	C	1.236853	-0.798063	0.224204
C82	C	1.736853	-0.298063	0.724204
C83	C	1.258997	-0.715491	0.246402
C84	C	1.758997	-0.215491	0.746402
C85	C	1.393339	-0.715354	0.380942
C86	C	1.893339	-0.215354	0.880942
C87	C	1.690076	-0.380849	0.403689
C88	C	2.190076	0.119151	0.903689
C89	C	1.806851	-0.380856	0.403694
C90	C	2.306851	0.119144	0.903694
C91	C	1.416142	-0.380754	0.677733
C92	C	1.916142	0.119246	1.177733
C93	C	1.416183	-0.380720	0.794519
C94	C	1.916183	0.119280	1.294519
C95	C	1.471551	-0.174608	0.459206
C96	C	1.971551	0.325392	0.959206
C97	C	1.495204	-0.086727	0.482868
C98	C	1.995204	0.413273	0.982868
C99	C	1.416028	-0.380857	0.130705
C100	C	1.916028	0.119143	0.630705
C101	C	1.416251	-0.380668	0.013979
C102	C	1.916251	0.119332	0.513979
C103	C	1.496999	-0.330150	0.863003
C104	C	1.996999	0.169850	1.363003
C105	C	1.497031	-0.330122	0.972734
C106	C	1.997031	0.169878	1.472734
C107	C	1.335427	-0.431240	0.945487
C108	C	1.835427	0.068760	1.445487
C109	C	1.335391	-0.431264	0.835759
C110	C	1.835391	0.068736	1.335759
C111	C	1.590302	-0.271772	0.878734
C112	C	2.090302	0.228228	1.378734
C113	C	1.590335	-0.271744	0.988466
C114	C	2.090335	0.228256	1.488466
H115	H	1.457063	-0.681683	0.444752
H116	H	1.957063	-0.181683	0.944752
O117	O	0.771178	-0.571020	0.467987
O118	O	1.271178	-0.071020	0.967987
H119	H	0.723901	-0.567005	0.396941
H120	H	1.223901	-0.067005	0.896941
H121	H	1.213316	-0.681934	0.200663
H122	H	1.713316	-0.181934	0.700663
O123	O	1.186432	-0.966467	0.173645
O124	O	1.686432	-0.466467	0.673645
H125	H	1.122862	-1.004097	0.210494
H126	H	1.622862	-0.504097	0.710494
H127	H	0.960565	-0.548060	0.473927
H128	H	1.460565	-0.048060	0.973927
H129	H	1.375391	-1.079192	0.362887
H130	H	1.875391	-0.579192	0.862887
O131	O	1.303031	-1.052133	0.290402
O132	O	1.803031	-0.552133	0.790402
H133	H	1.275941	-1.073879	0.363783
H134	H	1.775941	-0.573879	0.863783
H135	H	1.269580	-0.472441	0.780003
H136	H	1.769580	0.027559	1.280003
O137	O	1.248295	-0.485754	0.989973
O138	O	1.748295	0.014246	1.489973
H139	H	1.169487	-0.472185	0.972565
H140	H	1.669487	0.027815	1.472565
H141	H	1.584987	-0.210541	0.865451
H142	H	2.084987	0.289459	1.365451
H143	H	1.619107	-1.078927	0.606980
H144	H	2.119107	-0.578927	1.106980
H145	H	1.523566	-0.730553	0.511356
H146	H	2.023566	-0.230553	1.011356
O147	O	1.152470	-0.842666	0.139670
O148	O	1.652470	-0.342666	0.639670
H149	H	1.146503	-0.907008	0.133666
H150	H	1.646503	-0.407008	0.633666
O151	O	0.987477	-0.468283	0.632501
O152	O	1.487477	0.031717	1.132501
H153	H	1.022620	-0.517304	0.650728
H154	H	1.522620	-0.017304	1.150728
O155	O	1.679999	-0.918185	0.667946
O156	O	2.179999	-0.418185	1.167946
H157	H	1.643041	-0.880554	0.731469
H158	H	2.143041	-0.380554	1.231469
O159	O	1.646038	-0.794396	0.633981
O160	O	2.146038	-0.294396	1.133981
H161	H	1.681328	-0.836926	0.669317
H162	H	2.181328	-0.336926	1.169317
O163	O	1.684850	-0.300834	0.825815
O164	O	2.184850	0.199166	1.325815
H165	H	1.735007	-0.316219	0.886499
H166	H	2.235007	0.183781	1.386499
O167	O	1.572502	-0.194678	1.054316
O168	O	2.072502	0.305322	1.554316
H169	H	1.563026	-0.153840	1.000489
H170	H	2.063026	0.346160	1.500489
O171	O	0.795181	-0.460974	0.629105
O172	O	1.295181	0.039026	1.129105
H173	H	0.811657	-0.499809	0.683287
H174	H	1.311657	0.000191	1.183287
O175	O	1.058853	-0.275608	0.292572
O176	O	1.558853	0.224392	0.792572
H177	H	1.011712	-0.240419	0.255394
H178	H	1.511712	0.259581	0.755394
O179	O	0.830783	-0.275636	0.292564
O180	O	1.330783	0.224364	0.792564
H181	H	0.742982	-0.284159	0.301532
H182	H	1.242982	0.215841	0.801532
O183	O	1.692272	-0.293470	1.022083
O184	O	2.192272	0.206530	1.522083
H185	H	1.697378	-0.353105	0.977009
H186	H	2.197378	0.146895	1.477009
