data_functionalizedCrystal
_audit_creation_method	'MofGen! by Chris Wilmer'
_symmetry_space_group_name_H-M	'P1'
_symmetry_Int_Tables_number	1
_symmetry_cell_setting	triclinic
loop_
_symmetry_equiv_pos_as_xyz
  x,y,z
_cell_length_a	19.077105
_cell_length_b	12.759394
_cell_length_c	19.076919
_cell_angle_alpha	92.274121
_cell_angle_beta	90.076224
_cell_angle_gamma	87.711291
loop_
_atom_site_label
_atom_site_type_symbol
_atom_site_fract_x
_atom_site_fract_y
_atom_site_fract_z
Zn1	Zn	1.058327	-0.508276	-0.440432
Zn2	Zn	1.062986	-0.677203	-0.322930
Zn3	Zn	0.945543	-0.494202	-0.318225
Zn4	Zn	0.940807	-0.676569	-0.435682
O5	O	1.001916	-0.589062	-0.379317
O6	O	1.157277	-0.536840	-0.428802
O7	O	1.051338	-0.647302	-0.223974
O8	O	0.960536	-0.349050	-0.334454
O9	O	1.160700	-0.660950	-0.342473
O10	O	1.043398	-0.359391	-0.424239
O11	O	0.965054	-0.512852	-0.220517
O12	O	0.846582	-0.512238	-0.329849
O13	O	0.952465	-0.659870	-0.534644
O14	O	0.843103	-0.646222	-0.416144
O15	O	1.038806	-0.536225	-0.538133
O16	O	1.046746	-0.824137	-0.337868
O17	O	0.956982	-0.823671	-0.420707
C18	C	0.819346	-0.577635	-0.371971
C19	C	0.741242	-0.572772	-0.368845
C20	C	1.001874	-0.862026	-0.379298
C21	C	1.001920	-0.978807	-0.379316
C22	C	0.702757	-0.640344	-0.412235
C23	C	0.629370	-0.635761	-0.409302
C24	C	0.594467	-0.563612	-0.362974
C25	C	0.632957	-0.496033	-0.319582
C26	C	0.706343	-0.500611	-0.322520
C27	C	0.375178	-0.542424	-0.349381
C28	C	0.301786	-0.537853	-0.346444
C29	C	0.298204	-0.677581	-0.436166
C30	C	0.371592	-0.682157	-0.439096
C31	C	0.410075	-0.614574	-0.395707
N32	N	0.519453	-0.558928	-0.359972
N33	N	0.485088	-0.619253	-0.398713
C34	C	1.095456	-0.979246	-0.293126
C35	C	1.142242	-1.034328	-0.250040
C36	C	1.142282	-1.144054	-0.250061
C37	C	1.095533	-1.198699	-0.293174
C38	C	1.048747	-1.143617	-0.336260
C39	C	1.048710	-1.033889	-0.336233
C40	C	0.955216	-1.143178	-0.422453
C41	C	0.955171	-1.033453	-0.422429
C42	C	0.908467	-1.197824	-0.465566
C43	C	0.861676	-1.142741	-0.508649
C44	C	0.861637	-1.033009	-0.508626
C45	C	0.908385	-0.978370	-0.465515
C46	C	1.185198	-0.600535	-0.386692
C47	C	1.263302	-0.605424	-0.389835
C48	C	0.994587	-0.599547	-0.562597
C49	C	0.991465	-0.604015	-0.640701
C50	C	1.001976	-0.315035	-0.379352
C51	C	1.002002	-0.198260	-0.379367
C52	C	1.034948	-0.541742	-0.679212
C53	C	1.032006	-0.545935	-0.752598
C54	C	0.985582	-0.612408	-0.787471
C55	C	0.942093	-0.674683	-0.748955
C56	C	0.945033	-0.670484	-0.675570
C57	C	0.971966	-0.631866	-1.006753
C58	C	0.969031	-0.636063	-1.080143
C59	C	1.058943	-0.507313	-1.083780
C60	C	1.061881	-0.503124	-1.010394
C61	C	1.018390	-0.565395	-0.971884
N62	N	0.982574	-0.616698	-0.862484
N63	N	1.021395	-0.561098	-0.896873
C64	C	1.009256	-0.578545	-0.196751
C65	C	1.012515	-0.573790	-0.118654
H66	H	0.731170	-0.699099	-0.449959
H67	H	1.095576	-1.288044	-0.293193
H68	H	0.737676	-0.445582	-0.287190
Br69	Br	0.886013	-0.754994	-0.623304
H70	H	0.266864	-0.732601	-0.471492
H71	H	0.908506	-1.287168	-0.465583
H72	H	1.067416	-0.495228	-0.783950
H73	H	0.598039	-0.690786	-0.444634
H74	H	1.180383	-1.188902	-0.214980
Br75	Br	0.418955	-0.780083	-0.501969
H76	H	0.936563	-0.682588	-0.975407
H77	H	1.099686	-0.448998	-0.982005
H78	H	0.273371	-0.479088	-0.308723
Br79	Br	0.798144	-0.958265	-0.567110
H80	H	0.823620	-1.187243	-0.543752
H81	H	1.094350	-0.456614	-1.115143
Br82	Br	0.427395	-0.450699	-0.290498
H83	H	0.604533	-0.437283	-0.281863
Br84	Br	0.908552	-0.829484	-0.465715
H85	H	1.072754	-0.487616	-0.650823
Br86	Br	1.095613	-0.830359	-0.293322
Br87	Br	0.906021	-0.726279	-1.127472
Br88	Br	1.205689	-0.960164	-0.191538
Br89	Br	0.879085	-0.764891	-0.796283
