data_functionalizedCrystal
_audit_creation_method	'MofGen! by Chris Wilmer'
_symmetry_space_group_name_H-M	'P1'
_symmetry_Int_Tables_number	1
_symmetry_cell_setting	triclinic
loop_
_symmetry_equiv_pos_as_xyz
  x,y,z
_cell_length_a	19.077105
_cell_length_b	16.120484
_cell_length_c	19.076919
_cell_angle_alpha	95.046610
_cell_angle_beta	90.076224
_cell_angle_gamma	90.738523
loop_
_atom_site_label
_atom_site_type_symbol
_atom_site_fract_x
_atom_site_fract_y
_atom_site_fract_z
Zn1	Zn	1.040337	-0.403262	-0.456942
Zn2	Zn	1.039017	-0.537287	-0.344927
Zn3	Zn	0.928051	-0.392095	-0.334278
Zn4	Zn	0.916861	-0.536784	-0.457659
O5	O	0.981066	-0.467357	-0.398451
O6	O	1.138276	-0.425924	-0.446240
O7	O	1.028428	-0.513564	-0.245000
O8	O	0.948182	-0.276934	-0.345793
O9	O	1.137306	-0.524392	-0.363943
O10	O	1.030678	-0.285138	-0.435913
O11	O	0.946902	-0.406892	-0.237176
O12	O	0.828452	-0.406405	-0.346488
O13	O	0.929109	-0.523535	-0.556078
O14	O	0.820230	-0.512707	-0.437136
O15	O	1.019827	-0.425436	-0.555551
O16	O	1.017576	-0.653863	-0.364638
O17	O	0.927829	-0.653494	-0.447462
C18	C	0.798901	-0.458290	-0.390734
C19	C	0.720969	-0.454433	-0.387451
C20	C	0.680093	-0.508043	-0.433036
C21	C	0.606867	-0.504408	-0.429953
C22	C	0.574519	-0.447165	-0.381281
C23	C	0.615400	-0.393548	-0.335694
C24	C	0.688624	-0.397180	-0.338781
C25	C	0.355979	-0.430354	-0.367000
C26	C	0.282749	-0.426728	-0.363916
C27	C	0.274222	-0.537586	-0.458176
C28	C	0.347448	-0.541217	-0.461255
C29	C	0.388323	-0.487598	-0.415670
N30	N	0.499670	-0.443449	-0.378128
N31	N	0.463169	-0.491310	-0.418828
C32	C	0.971363	-0.683924	-0.407299
C33	C	0.967276	-0.776577	-0.411111
C34	C	0.959816	-0.946215	-0.418084
C35	C	1.002442	-0.987665	-0.378836
C36	C	0.998291	-1.082058	-0.382716
C37	C	0.963966	-0.851814	-0.414205
C38	C	1.163943	-0.476459	-0.406199
C39	C	1.241874	-0.480338	-0.409501
C40	C	0.973367	-0.475675	-0.582072
C41	C	0.970086	-0.479220	-0.660321
C42	C	0.990826	-0.249946	-0.389585
C43	C	0.994984	-0.157298	-0.385807
C44	C	1.015774	-0.429813	-0.696809
C45	C	1.012683	-0.433140	-0.770331
C46	C	0.963906	-0.485879	-0.807364
C47	C	0.918214	-0.535288	-0.770871
C48	C	0.921302	-0.531956	-0.697350
C49	C	0.949602	-0.501317	-1.027278
C50	C	0.946518	-0.504647	-1.100804
C51	C	1.040987	-0.402498	-1.100259
C52	C	1.044074	-0.399174	-1.026737
C53	C	0.998378	-0.448580	-0.990250
N54	N	0.960747	-0.489283	-0.882516
N55	N	1.001535	-0.445171	-0.915099
C56	C	0.988779	-0.459013	-0.215544
C57	C	0.992206	-0.455240	-0.137292
H58	H	0.573589	-0.548064	-0.467073
C59	C	1.055366	-0.940516	-0.330233
C60	C	1.123178	-0.965660	-0.349407
C61	C	1.171945	-0.922232	-0.304657
H62	H	1.046603	-0.952088	-0.283044
H63	H	1.051217	-0.882422	-0.334071
H64	H	1.127325	-1.023740	-0.345564
H65	H	1.131964	-0.954086	-0.396589
H66	H	1.167797	-0.864138	-0.308494
H67	H	1.163176	-0.933808	-0.257471
H68	H	1.217962	-0.939280	-0.317664
C69	C	0.907020	-0.993563	-0.466697
C70	C	0.913333	-1.079127	-0.460904
C71	C	0.864702	-1.122780	-0.505665
H72	H	0.915816	-0.982064	-0.513898
H73	H	0.860948	-0.976640	-0.453779
H74	H	0.959395	-1.096045	-0.473827
H75	H	0.904531	-1.090651	-0.413713
H76	H	0.818630	-1.105856	-0.492746
H77	H	0.873502	-1.111274	-0.552863
H78	H	0.868974	-1.180839	-0.501736
H79	H	0.906796	-0.547595	-1.130954
H80	H	1.055495	-0.386870	-0.666662
C81	C	0.247495	-0.364635	-0.311115
C82	C	0.174620	-0.372941	-0.318166
C83	C	0.142121	-0.315757	-0.269542
H84	H	0.261493	-0.309682	-0.319687
H85	H	0.260878	-0.375174	-0.264772
H86	H	0.161242	-0.362395	-0.364498
H87	H	0.160602	-0.427880	-0.309587
H88	H	0.155504	-0.326297	-0.223199
H89	H	0.156124	-0.260809	-0.278119
H90	H	0.092672	-0.321390	-0.274315
H91	H	1.049888	-0.392910	-0.800037
H92	H	1.078188	-0.362273	-1.129975
H93	H	1.083794	-0.356231	-0.996590
C94	C	0.899946	-0.555039	-0.987798
C95	C	0.856579	-0.601947	-1.035970
C96	C	0.810826	-0.651448	-0.999624
H97	H	0.871969	-0.520409	-0.956528
H98	H	0.926307	-0.591443	-0.961743
H99	H	0.830220	-0.565547	-1.062012
H100	H	0.884536	-0.636594	-1.067241
H101	H	0.837187	-0.687852	-0.973569
H102	H	0.782854	-0.616812	-0.968355
H103	H	0.781400	-0.683287	-1.032303
C104	C	0.865365	-0.592658	-0.811123
C105	C	0.900894	-0.649987	-0.857180
C106	C	0.852234	-0.702859	-0.894263
H107	H	0.835024	-0.560650	-0.837269
H108	H	0.838605	-0.621655	-0.778885
H109	H	0.927642	-0.620992	-0.889413
H110	H	0.931232	-0.682014	-0.831052
H111	H	0.825474	-0.731856	-0.862026
H112	H	0.821895	-0.670844	-0.920405
H113	H	0.876334	-0.741767	-0.925512
H114	H	0.884091	-0.572180	-0.667641
H115	H	0.706425	-0.554659	-0.472667
C116	C	0.229722	-0.595694	-0.507634
C117	C	0.158671	-0.580250	-0.494530
C118	C	0.117658	-0.633755	-0.540088
H119	H	0.239560	-0.651838	-0.500092
H120	H	0.240251	-0.586309	-0.554975
H121	H	0.148146	-0.589642	-0.447200
H122	H	0.148811	-0.524117	-0.502077
H123	H	0.128187	-0.624370	-0.587429
H124	H	0.127503	-0.689896	-0.532542
H125	H	0.069446	-0.623279	-0.531207
C126	C	0.382436	-0.603396	-0.514173
C127	C	0.330965	-0.649556	-0.553447
C128	C	0.363170	-0.706839	-0.602205
H129	H	0.410498	-0.639935	-0.489957
H130	H	0.411128	-0.574397	-0.544833
H131	H	0.302285	-0.678554	-0.522792
H132	H	0.302900	-0.613039	-0.577678
H133	H	0.391862	-0.677839	-0.632865
H134	H	0.391231	-0.743372	-0.577984
H135	H	0.328252	-0.738160	-0.628864
H136	H	0.589056	-0.346936	-0.296068
C137	C	0.400229	-0.372099	-0.317426
C138	C	0.356224	-0.321208	-0.274131
C139	C	0.396966	-0.267536	-0.228448
H140	H	0.429298	-0.338390	-0.344050
H141	H	0.428642	-0.403925	-0.289171
H142	H	0.327824	-0.289384	-0.302383
H143	H	0.327156	-0.354893	-0.247491
H144	H	0.425378	-0.299362	-0.200193
H145	H	0.426032	-0.233833	-0.255078
H146	H	0.367114	-0.233006	-0.199062
C147	C	0.732885	-0.338938	-0.289200
C148	C	0.688885	-0.288046	-0.245899
C149	C	0.729631	-0.234388	-0.200210
H150	H	0.761958	-0.305230	-0.315819
H151	H	0.761292	-0.370774	-0.260948
H152	H	0.660489	-0.256212	-0.274148
H153	H	0.659811	-0.321731	-0.219265
H154	H	0.758039	-0.266224	-0.171958
H155	H	0.758703	-0.200686	-0.226835
H156	H	0.699783	-0.199857	-0.170821
