data_functionalizedCrystal
_audit_creation_method	'MofGen! by Chris Wilmer'
_symmetry_space_group_name_H-M	'P1'
_symmetry_Int_Tables_number	1
_symmetry_cell_setting	triclinic
loop_
_symmetry_equiv_pos_as_xyz
  x,y,z
_cell_length_a	12.759401
_cell_length_b	25.639239
_cell_length_c	12.759393
_cell_angle_alpha	89.964022
_cell_angle_beta	89.979062
_cell_angle_gamma	90.040211
loop_
_atom_site_label
_atom_site_type_symbol
_atom_site_fract_x
_atom_site_fract_y
_atom_site_fract_z
Zn1	Zn	1.606091	-0.208104	-0.593980
Zn2	Zn	1.605909	-0.295549	-0.418283
Zn3	Zn	1.430390	-0.208132	-0.418315
Zn4	Zn	1.430308	-0.295513	-0.593921
O5	O	1.518175	-0.251825	-0.506125
O6	O	1.753088	-0.219708	-0.570685
O7	O	1.582584	-0.283980	-0.271266
O8	O	1.453808	-0.134963	-0.441656
O9	O	1.752954	-0.283953	-0.441601
O10	O	1.582895	-0.134943	-0.570716
O11	O	1.453631	-0.219755	-0.271290
O12	O	1.283358	-0.219720	-0.441598
O13	O	1.453669	-0.283891	-0.740950
O14	O	1.283298	-0.283918	-0.570615
O15	O	1.582816	-0.219672	-0.740993
O16	O	1.582505	-0.368710	-0.441544
O17	O	1.453492	-0.368683	-0.570584
C18	C	1.245207	-0.251818	-0.506104
C19	C	1.128431	-0.251828	-0.506120
C20	C	1.517998	-0.387667	-0.506077
C21	C	1.518018	-0.445781	-0.506091
C22	C	1.073565	-0.285307	-0.573193
C23	C	0.963841	-0.285309	-0.573214
C24	C	0.963858	-0.218352	-0.439079
C25	C	1.073580	-0.218347	-0.439065
C26	C	1.585527	-0.806146	-0.439048
C27	C	1.585568	-0.860750	-0.439062
O28	O	1.642783	-0.888988	-0.382007
N29	N	1.518359	-0.888064	-0.506194
C30	C	1.451113	-0.860770	-0.573324
O31	O	1.393952	-0.889017	-0.630428
C32	C	1.451079	-0.806167	-0.573315
C33	C	1.518284	-0.778856	-0.506171
C34	C	1.652728	-0.778835	-0.371910
C35	C	1.652685	-0.724234	-0.371895
C36	C	1.585442	-0.696945	-0.439018
C37	C	1.518242	-0.724255	-0.506156
C38	C	1.383839	-0.778874	-0.640449
C39	C	1.383810	-0.724267	-0.640435
C40	C	1.451016	-0.696957	-0.573291
C41	C	1.450956	-0.642365	-0.573263
N42	N	1.518165	-0.615052	-0.506131
C43	C	1.585408	-0.642341	-0.439008
C44	C	1.451192	-0.975441	-0.573341
C45	C	1.451221	-1.030043	-0.573346
C46	C	1.585677	-1.030019	-0.439085
C47	C	1.585642	-0.975416	-0.439075
C48	C	1.518401	-0.948127	-0.506208
C49	C	1.585313	-0.527676	-0.438981
C50	C	1.585261	-0.473071	-0.438969
C51	C	1.450810	-0.473100	-0.573233
C52	C	1.450857	-0.527700	-0.573242
C53	C	1.518117	-0.554987	-0.506112
O54	O	1.393774	-0.614093	-0.630292
O55	O	1.642569	-0.614088	-0.381925
C56	C	1.792208	-0.251831	-0.506146
C57	C	1.908984	-0.251834	-0.506156
C58	C	1.518253	-0.251774	-0.780158
C59	C	1.518287	-0.251753	-0.896935
C60	C	1.518381	-0.115452	-0.506196
C61	C	1.518468	-0.057337	-0.506226
C62	C	1.585539	-0.218309	-0.951821
C63	C	1.585556	-0.218286	-1.061546
C64	C	1.451068	-0.285156	-1.061487
C65	C	1.451045	-0.285176	-0.951765
C66	C	1.518157	-0.251837	-0.233157
C67	C	1.518327	-0.251711	-0.116381
H68	H	1.118221	-0.312568	-0.627796
C69	C	0.903488	-0.322138	-0.646993
C70	C	0.963827	-0.358962	-0.720749
C71	C	0.903475	-0.395792	-0.794534
C72	C	0.782785	-0.395797	-0.794563
C73	C	0.722440	-0.358971	-0.720804
C74	C	0.782792	-0.322141	-0.647019
H75	H	1.053175	-0.358960	-0.720731
H76	H	0.948147	-0.423053	-0.849135
H77	H	0.738109	-0.423060	-0.849182
H78	H	0.633092	-0.358973	-0.720822
H79	H	0.738120	-0.294880	-0.592418
H80	H	1.640318	-0.191052	-1.106229
H81	H	1.396136	-0.549938	-0.627919
C82	C	0.903519	-0.181529	-0.365313
C83	C	0.782829	-0.181534	-0.365320
C84	C	0.722494	-0.144712	-0.291548
C85	C	0.782848	-0.107884	-0.217769
C86	C	0.903545	-0.107878	-0.217760
C87	C	0.963880	-0.144700	-0.291532
H88	H	0.738146	-0.208797	-0.419937
H89	H	0.633146	-0.144716	-0.291555
H90	H	0.738184	-0.080626	-0.163159
H91	H	0.948229	-0.080615	-0.163142
H92	H	1.053228	-0.144695	-0.291524
C93	C	1.377056	-0.321965	-0.891386
C94	C	1.294591	-0.299313	-0.815963
C95	C	1.220597	-0.336097	-0.755586
C96	C	1.229069	-0.395533	-0.770632
C97	C	1.311538	-0.418188	-0.846059
C98	C	1.385531	-0.381404	-0.906436
H99	H	1.288316	-0.255312	-0.804822
H100	H	1.159549	-0.319326	-0.699750
H101	H	1.174295	-0.422763	-0.725937
H102	H	1.317812	-0.462189	-0.857200
H103	H	1.446580	-0.398175	-0.962272
C104	C	1.377129	-0.321929	-1.121812
C105	C	1.385626	-0.381368	-1.106690
C106	C	1.311696	-0.418145	-1.167015
C107	C	1.229268	-0.395482	-1.242463
C108	C	1.220767	-0.336039	-1.257589
C109	C	1.294698	-0.299263	-1.197263
H110	H	1.446647	-0.398147	-1.050835
H111	H	1.317989	-0.462148	-1.155818
H112	H	1.174540	-0.422706	-1.287120
H113	H	1.159747	-0.319260	-1.313443
H114	H	1.288405	-0.255259	-1.208460
H115	H	1.118253	-0.191082	-0.384446
H116	H	1.639988	-0.450836	-0.384288
C117	C	1.659291	-0.557687	-0.365133
C118	C	1.650760	-0.550222	-0.245690
C119	C	1.724731	-0.580232	-0.171836
C120	C	1.807233	-0.617708	-0.217425
C121	C	1.815767	-0.625175	-0.336874
C122	C	1.741796	-0.595164	-0.410728
H123	H	1.589685	-0.522478	-0.211936
H124	H	1.718413	-0.574705	-0.083412
H125	H	1.861990	-0.639924	-0.162754
H126	H	1.876843	-0.652918	-0.370627
H127	H	1.748114	-0.600692	-0.499152
C128	C	1.659493	-0.181541	-0.891507
C129	C	1.651009	-0.122100	-0.906623
C130	C	1.724963	-0.085330	-0.846311
C131	C	1.807401	-0.107999	-0.770883
C132	C	1.815889	-0.167443	-0.755764
C133	C	1.741935	-0.204213	-0.816075
H134	H	1.589980	-0.105316	-0.962462
H135	H	1.718679	-0.041326	-0.857504
H136	H	1.862146	-0.080780	-0.726237
H137	H	1.876918	-0.184227	-0.699924
H138	H	1.748219	-0.248218	-0.804882
H139	H	1.707412	-0.702001	-0.317224
H140	H	1.640434	-1.052248	-0.384433
H141	H	1.640367	-0.953182	-0.384401
C142	C	1.726701	-0.808846	-0.298064
C143	C	1.718174	-0.801375	-0.178623
C144	C	1.792147	-0.831382	-0.104765
C145	C	1.874648	-0.868859	-0.150348
C146	C	1.883179	-0.876333	-0.269796
C147	C	1.809205	-0.846326	-0.343654
H148	H	1.657098	-0.773630	-0.144874
H149	H	1.785831	-0.825849	-0.016342
H150	H	1.929407	-0.891072	-0.095674
H151	H	1.944254	-0.904078	-0.303545
H152	H	1.815521	-0.851858	-0.432077
H153	H	1.396428	-0.953225	-0.628006
C154	C	1.377286	-1.060081	-0.647197
C155	C	1.303324	-1.030056	-0.721026
C156	C	1.229391	-1.060092	-0.794886
C157	C	1.229421	-1.120153	-0.794916
C158	C	1.303386	-1.150182	-0.721084
C159	C	1.377318	-1.120146	-0.647224
H160	H	1.303299	-0.985592	-0.721007
H161	H	1.174637	-1.037862	-0.849541
H162	H	1.174691	-1.142388	-0.849591
H163	H	1.303410	-1.194646	-0.721104
H164	H	1.432072	-1.142376	-0.592569
H165	H	1.329108	-0.801102	-0.695120
H166	H	1.329055	-0.702052	-0.695106
H167	H	1.396058	-0.450872	-0.627881
