data_functionalizedCrystal
_audit_creation_method	'MofGen! by Chris Wilmer'
_symmetry_space_group_name_H-M	'P1'
_symmetry_Int_Tables_number	1
_symmetry_cell_setting	triclinic
loop_
_symmetry_equiv_pos_as_xyz
  x,y,z
_cell_length_a	10.654550
_cell_length_b	10.723024
_cell_length_c	9.730223
_cell_angle_alpha	89.996766
_cell_angle_beta	89.999957
_cell_angle_gamma	84.476400
loop_
_atom_site_label
_atom_site_type_symbol
_atom_site_fract_x
_atom_site_fract_y
_atom_site_fract_z
O1	O	1.667813	0.175275	-0.114183
O2	O	1.302332	0.191974	-0.114208
O3	O	1.493503	0.002049	-0.114190
O4	O	1.476642	0.365199	-0.114202
O5	O	1.493490	0.002044	0.114390
O6	O	1.302319	0.191968	0.114372
O7	O	1.667800	0.175269	0.114396
Zn8	Zn	1.485058	0.183618	0.150676
Zn9	Zn	1.485074	0.183625	-0.150488
O10	O	1.476629	0.365194	0.114378
C11	C	1.255528	0.190745	0.000078
C12	C	1.116085	0.187077	0.000069
C13	C	1.036583	0.298901	0.000069
C14	C	0.905562	0.295447	0.000093
C15	C	0.933560	0.068334	0.000111
C16	C	1.064577	0.071789	0.000097
C17	C	1.492269	-0.044453	0.000098
C18	C	1.488598	-0.183008	0.000093
C19	C	1.595567	-0.257975	0.000098
C20	C	1.591776	-0.401179	0.000093
C21	C	1.714604	0.176498	0.000107
C22	C	1.854047	0.180167	0.000107
C23	C	1.477863	0.411696	0.000087
C24	C	1.481534	0.550251	0.000083
N25	N	1.485056	0.183613	0.356212
N26	N	1.485086	0.183621	-0.356024
C27	C	1.569735	0.099550	0.428146
C28	C	1.569748	0.099550	0.572029
C29	C	1.400397	0.267687	0.572032
C30	C	1.400380	0.267680	0.428151
H31	H	1.129312	-0.019278	0.000100
C32	C	1.357809	-0.362741	0.000077
C33	C	1.328870	-0.269389	-0.118617
C34	C	1.205145	-0.182371	-0.118623
C35	C	1.110360	-0.188704	0.000065
C36	C	1.139297	-0.282060	0.118768
C37	C	1.263021	-0.369078	0.118774
H38	H	1.399037	-0.264698	-0.206485
H39	H	1.183725	-0.113263	-0.206496
H40	H	1.018772	-0.124288	0.000060
H41	H	1.069129	-0.286751	0.206636
H42	H	1.284442	-0.438186	0.206646
H43	H	1.638700	0.031098	0.630594
C44	C	1.307266	0.360168	0.651165
C45	C	1.307351	0.360260	0.809428
C46	C	1.214220	0.452747	0.888556
C47	C	1.121003	0.545143	0.809422
C48	C	1.120914	0.545055	0.651151
C49	C	1.214046	0.452568	0.572022
H50	H	1.376359	0.291860	0.868016
H51	H	1.214286	0.452811	1.005720
H52	H	1.052062	0.613607	0.867998
H53	H	1.051907	0.613455	0.592563
H54	H	1.213979	0.452503	0.454859
H55	H	1.331417	0.336134	0.369579
H56	H	0.840836	0.386506	0.000097
C57	C	1.662867	0.007069	0.349013
C58	C	1.756007	-0.085403	0.428147
C59	C	1.849138	-0.177890	0.349018
C60	C	1.849130	-0.177905	0.190756
C61	C	1.755986	-0.085429	0.111613
C62	C	1.662855	0.007058	0.190741
H63	H	1.756016	-0.085395	0.545310
H64	H	1.918089	-0.246347	0.407606
H65	H	1.918071	-0.246370	0.132180
H66	H	1.755977	-0.085437	-0.005551
H67	H	1.593904	0.075514	0.132153
H68	H	1.078515	0.392775	0.000057
H69	H	0.891606	-0.025530	0.000142
H70	H	1.689955	-0.216138	0.000113
H71	H	1.683350	-0.465598	0.000104
H72	H	1.394211	-0.224844	0.000078
