data_functionalizedCrystal
_audit_creation_method	'MofGen! by Chris Wilmer'
_symmetry_space_group_name_H-M	'P1'
_symmetry_Int_Tables_number	1
_symmetry_cell_setting	triclinic
loop_
_symmetry_equiv_pos_as_xyz
  x,y,z
_cell_length_a	13.339070
_cell_length_b	13.339070
_cell_length_c	18.266242
_cell_angle_alpha	89.993743
_cell_angle_beta	90.001352
_cell_angle_gamma	115.629294
loop_
_atom_site_label
_atom_site_type_symbol
_atom_site_fract_x
_atom_site_fract_y
_atom_site_fract_z
O1	O	-1.496800	-0.550529	0.060900
O2	O	-0.996800	-0.050529	0.560900
O3	O	-1.181990	-0.478270	0.060897
O4	O	-0.681990	0.021730	0.560897
O5	O	-1.303265	-0.356995	0.060896
O6	O	-0.803265	0.143005	0.560896
O7	O	-1.375525	-0.671804	0.060901
O8	O	-0.875525	-0.171804	0.560901
O9	O	-1.303264	-0.356980	-0.060866
O10	O	-0.803264	0.143020	0.439134
O11	O	-1.181989	-0.478254	-0.060865
O12	O	-0.681989	0.021746	0.439135
O13	O	-1.496799	-0.550514	-0.060862
O14	O	-0.996799	-0.050514	0.439138
Zn15	Zn	-1.339394	-0.514382	-0.080196
Zn16	Zn	-0.839394	-0.014382	0.419804
Zn17	Zn	-1.339395	-0.514402	0.080231
Zn18	Zn	-0.839395	-0.014402	0.580231
O19	O	-1.375524	-0.671789	-0.060861
O20	O	-0.875524	-0.171789	0.439139
C21	C	-1.140874	-0.466056	0.000015
C22	C	-0.640874	0.033944	0.500015
C23	C	-1.018360	-0.429672	0.000014
C24	C	-0.518360	0.070328	0.500014
C25	C	-1.291058	-0.315872	0.000016
C26	C	-0.791058	0.184128	0.500016
C27	C	-1.254675	-0.193358	0.000018
C28	C	-0.754675	0.306642	0.500018
C29	C	-1.537914	-0.562728	0.000021
C30	C	-1.037914	-0.062728	0.500021
C31	C	-1.660428	-0.599111	0.000027
C32	C	-1.160428	-0.099111	0.500027
C33	C	-1.387730	-0.712912	0.000021
C34	C	-0.887730	-0.212912	0.500021
C35	C	-1.424114	-0.835426	0.000023
C36	C	-0.924114	-0.335426	0.500023
C37	C	-0.732973	-0.712571	0.000030
C38	C	-0.232973	-0.212571	0.500030
C39	C	-0.848081	-0.746759	0.000034
C40	C	-0.348081	-0.246759	0.500034
C41	C	-0.890657	-0.667490	0.000029
C42	C	-0.390657	-0.167490	0.500029
C43	C	-0.818112	-0.554028	0.000020
C44	C	-0.318112	-0.054028	0.500020
C45	C	-0.702992	-0.519837	0.000023
C46	C	-0.202992	-0.019837	0.500023
C47	C	-0.860676	-0.474756	0.000021
C48	C	-0.360676	0.025244	0.500021
C49	C	-0.788132	-0.361294	0.000013
C50	C	-0.288132	0.138706	0.500013
C51	C	-0.673023	-0.327109	0.000014
C52	C	-0.173023	0.172891	0.500014
C53	C	-0.630448	-0.406377	0.000020
C54	C	-0.130448	0.093623	0.500020
C55	C	-0.975796	-0.508947	0.000019
C56	C	-0.475796	-0.008947	0.500019
C57	C	-0.945816	-0.316213	0.000011
C58	C	-0.445816	0.183787	0.500011
C59	C	-0.830707	-0.282025	0.000008
C60	C	-0.330707	0.217975	0.500008
N61	N	-1.339401	-0.514370	-0.189683
N62	N	-0.839401	-0.014370	0.310317
C63	C	-1.537574	0.092030	0.000021
C64	C	-1.037574	0.592030	0.500021
C65	C	-1.571761	-0.023079	0.000014
C66	C	-1.071761	0.476921	0.500014
C67	C	-1.492492	-0.065654	0.000016
C68	C	-0.992492	0.434346	0.500016
C69	C	-1.379030	0.006890	0.000023
C70	C	-0.879030	0.506890	0.500023
C71	C	-1.344839	0.122010	0.000024
C72	C	-0.844839	0.622010	0.500024
C73	C	-1.299758	-0.035674	0.000018
C74	C	-0.799758	0.464326	0.500018
C75	C	-1.186296	0.036871	0.000026
C76	C	-0.686296	0.536871	0.500026
C77	C	-1.152111	0.151979	0.000027
C78	C	-0.652111	0.651979	0.500027
C79	C	-1.231380	0.194555	0.000026
C80	C	-0.731380	0.694555	0.500026
C81	C	-1.333949	-0.150794	0.000018
C82	C	-0.833949	0.349206	0.500018
C83	C	-1.141215	-0.120813	0.000020
C84	C	-0.641215	0.379187	0.500020
C85	C	-1.107028	-0.005705	0.000027
C86	C	-0.607028	0.494295	0.500027
N87	N	-1.339394	-0.514408	0.189718
N88	N	-0.839394	-0.014408	0.689718
C89	C	-1.393269	-0.460891	0.228026
C90	C	-0.893269	0.039109	0.728026
C91	C	-1.393279	-0.460891	0.304671
C92	C	-0.893279	0.039109	0.804671
C93	C	-1.339391	-0.514393	0.343005
C94	C	-0.839391	-0.014393	0.843005
C95	C	-1.285514	-0.567922	0.304687
C96	C	-0.785514	-0.067922	0.804687
C97	C	-1.285516	-0.567930	0.228043
C98	C	-0.785516	-0.067930	0.728043
N99	N	-1.246080	-0.500862	0.463343
N100	N	-0.746080	-0.000862	0.963343
N101	N	-1.246080	-0.500849	0.536151
N102	N	-0.746080	-0.000849	1.036151
C103	C	-1.339384	-0.514376	0.573927
C104	C	-0.839384	-0.014376	1.073927
N105	N	-1.432686	-0.527895	0.536145
N106	N	-0.932686	-0.027895	1.036145
N107	N	-1.432684	-0.527902	0.463330
N108	N	-0.932684	-0.027902	0.963330
C109	C	-1.339384	-0.514392	0.426112
C110	C	-0.839384	-0.014392	0.926112
C111	C	-1.393275	-0.460857	0.695343
C112	C	-0.893275	0.039143	1.195343
C113	C	-1.393287	-0.460866	0.771989
C114	C	-0.893287	0.039134	1.271989
C115	C	-1.285512	-0.567889	0.772003
C116	C	-0.785512	-0.067889	1.272003
C117	C	-1.285510	-0.567888	0.695358
C118	C	-0.785510	-0.067888	1.195358
C119	C	-1.339389	-0.514366	0.657033
C120	C	-0.839389	-0.014366	1.157033
H121	H	-1.034852	-0.601328	0.000022
H122	H	-0.534852	-0.101328	0.500022
H123	H	-1.602102	0.126707	0.000014
H124	H	-1.102102	0.626707	0.500014
H125	H	-1.437150	-0.417281	0.664137
H126	H	-0.937150	0.082719	1.164137
F127	F	-1.450639	-0.403911	0.812761
F128	F	-0.950639	0.096089	1.312761
F129	F	-1.450623	-0.403928	0.345449
F130	F	-0.950623	0.096072	0.845449
H131	H	-1.426331	-0.209849	0.000011
H132	H	-0.926331	0.290151	0.500011
F133	F	-1.228167	-0.624867	0.345484
F134	F	-0.728167	-0.124867	0.845484
F135	F	-1.528881	-0.188164	0.000011
F136	F	-1.028881	0.311836	0.500011
F137	F	-1.228169	-0.624838	0.812797
F138	F	-0.728169	-0.124838	1.312797
F139	F	-1.228163	-0.624842	0.654584
F140	F	-0.728163	-0.124842	1.154584
F141	F	-1.194999	0.317067	0.000102
F142	F	-0.694999	0.817067	0.500102
F143	F	-1.013167	-0.703879	0.000031
F144	F	-0.513167	-0.203879	0.500031
F145	F	-1.450616	-0.403934	0.187239
F146	F	-0.950616	0.096066	0.687239
F147	F	-1.228172	-0.624892	0.187271
F148	F	-0.728172	-0.124892	0.687271
H149	H	-1.664142	-0.082137	0.000007
H150	H	-1.164142	0.417863	0.500007
F151	F	-0.986275	0.071515	0.000036
F152	F	-0.486275	0.571515	0.500036
H153	H	-0.907140	-0.839139	0.000046
H154	H	-0.407140	-0.339139	0.500046
H155	H	-0.698296	-0.777099	0.000041
H156	H	-0.198296	-0.277099	0.500041
F157	F	-0.507935	-0.369997	0.000014
F158	F	-0.007935	0.130003	0.500014
H159	H	-0.613959	-0.234721	0.000016
H160	H	-0.113959	0.265279	0.500016
F161	F	-0.753487	-0.161273	-0.000001
F162	F	-0.253487	0.338727	0.499999
F163	F	-1.056845	-0.166119	0.000017
F164	F	-0.556845	0.333881	0.500017
H165	H	-0.980479	-0.251665	0.000010
H166	H	-0.480479	0.248335	0.500010
H167	H	-1.059723	0.211043	0.000027
H168	H	-0.559723	0.711043	0.500027
