data_functionalizedCrystal
_audit_creation_method	'MofGen! by Chris Wilmer'
_symmetry_space_group_name_H-M	'P1'
_symmetry_Int_Tables_number	1
_symmetry_cell_setting	triclinic
loop_
_symmetry_equiv_pos_as_xyz
  x,y,z
_cell_length_a	10.723023
_cell_length_b	11.026607
_cell_length_c	9.198806
_cell_angle_alpha	89.998911
_cell_angle_beta	89.996191
_cell_angle_gamma	96.526782
loop_
_atom_site_label
_atom_site_type_symbol
_atom_site_fract_x
_atom_site_fract_y
_atom_site_fract_z
O1	O	1.693992	0.170514	-0.120884
O2	O	1.334363	0.186836	-0.120887
O3	O	1.484372	0.001774	-0.120881
O4	O	1.543983	0.355576	-0.120891
O5	O	1.484356	0.001773	0.120904
O6	O	1.334347	0.186836	0.120898
O7	O	1.693977	0.170513	0.120901
Cu8	Cu	1.514161	0.178674	0.142976
Cu9	Cu	1.514179	0.178675	-0.142963
O10	O	1.543968	0.355576	0.120894
C11	C	1.287599	0.185649	0.000005
C12	C	1.148278	0.182095	0.000003
C13	C	0.942167	0.176838	0.125250
C14	C	1.086163	0.180511	0.125254
C15	C	1.473367	-0.043529	0.000010
C16	C	1.440583	-0.178516	0.000005
C17	C	1.531104	-0.251568	0.000003
C18	C	1.497223	-0.391084	-0.000002
C19	C	1.740740	0.171701	0.000006
C20	C	1.880062	0.175254	-0.000002
C21	C	1.554973	0.400878	0.000000
C22	C	1.587756	0.535865	-0.000004
N23	N	1.514157	0.178673	0.344090
N24	N	1.514190	0.178667	-0.344077
C25	C	1.577067	0.100628	0.416290
C26	C	1.577086	0.100624	0.583702
H27	H	1.139572	0.181868	0.232487
C28	C	1.076136	0.180254	-0.144875
N29	N	1.021789	0.178869	-0.253998
C30	C	1.669689	-0.196530	0.000015
N31	N	1.774074	-0.155077	0.000030
H32	H	1.630952	0.033811	0.645791
C33	C	1.726349	-0.409105	-0.000001
N34	N	1.830735	-0.367655	0.000004
C35	C	1.358631	-0.446117	-0.000002
N36	N	1.254246	-0.487570	0.000003
C37	C	1.301998	-0.233554	0.000005
N38	N	1.197613	-0.275007	0.000010
H39	H	0.888735	0.175482	0.232480
H40	H	1.460333	0.245492	0.593844
H41	H	1.630909	0.033809	0.354166
H42	H	0.933496	0.176624	-0.107232
C43	C	1.441405	0.268935	0.428014
N44	N	1.386606	0.336923	0.491224
