data_functionalizedCrystal
_audit_creation_method	'MofGen! by Chris Wilmer'
_symmetry_space_group_name_H-M	'P1'
_symmetry_Int_Tables_number	1
_symmetry_cell_setting	triclinic
loop_
_symmetry_equiv_pos_as_xyz
  x,y,z
_cell_length_a	10.654550
_cell_length_b	12.837942
_cell_length_c	9.130313
_cell_angle_alpha	89.997734
_cell_angle_beta	89.993276
_cell_angle_gamma	89.656921
loop_
_atom_site_label
_atom_site_type_symbol
_atom_site_fract_x
_atom_site_fract_y
_atom_site_fract_z
O1	O	-1.683741	-0.145720	0.121920
O2	O	-1.319777	-0.159604	0.121897
O3	O	-1.493689	-0.001701	0.121899
O4	O	-1.509830	-0.303623	0.121918
O5	O	-1.493676	-0.001702	-0.121700
O6	O	-1.319765	-0.159604	-0.121702
O7	O	-1.683728	-0.145721	-0.121679
Cu8	Cu	-1.501745	-0.152662	-0.143933
Cu9	Cu	-1.501760	-0.152662	0.144151
O10	O	-1.509817	-0.303623	-0.121681
C11	C	-1.272862	-0.158585	0.000094
C12	C	-1.133086	-0.155535	0.000085
C13	C	-1.488230	0.036958	0.000100
C14	C	-1.471967	0.152153	0.000101
C15	C	-1.730644	-0.146740	0.000127
C16	C	-1.870420	-0.149790	0.000146
C17	C	-1.063745	-0.248505	0.000112
C18	C	-0.932411	-0.245633	0.000138
C19	C	-0.939770	-0.056812	0.000114
C20	C	-1.071101	-0.059685	0.000079
C21	C	-1.125730	-0.344355	0.000119
C22	C	-1.056389	-0.437333	0.000148
C23	C	-0.925055	-0.434461	0.000173
C24	C	-0.863061	-0.338611	0.000169
C25	C	-1.515276	-0.342283	0.000121
C26	C	-1.531538	-0.457477	0.000130
C27	C	-1.667472	0.391705	0.000145
C28	C	-1.652197	0.499941	0.000146
C29	C	-1.426146	0.476862	0.000116
C30	C	-1.441420	0.368626	0.000115
C31	C	-1.562087	0.326052	0.000127
C32	C	-1.577360	0.217814	0.000115
C33	C	-1.351309	0.194737	0.000096
C34	C	-1.336035	0.302973	0.000097
N35	N	-1.501744	-0.152662	-0.346555
C36	C	-1.578790	-0.082760	-0.576544
C37	C	-1.578781	-0.082766	-0.423207
C38	C	-1.424721	-0.222563	-0.423248
C39	C	-1.424738	-0.222561	-0.576582
C40	C	-1.655823	-0.012853	-0.653188
C41	C	-1.732848	0.057048	-0.576506
C42	C	-1.732838	0.057041	-0.423170
C43	C	-1.655804	-0.012865	-0.346515
N44	N	-1.501771	-0.152654	0.346774
H45	H	-1.232668	-0.346704	0.000105
H46	H	-1.675613	0.183153	0.000119
Cl47	Cl	-0.861834	0.063676	0.000117
Cl48	Cl	-1.158279	0.057194	0.000042
Cl49	Cl	-0.837887	-0.551345	0.000195
H50	H	-1.655812	-0.012872	-0.221658
Cl51	Cl	-1.819162	0.338180	0.000123
Cl52	Cl	-1.327880	-0.310436	-0.326882
Cl53	Cl	-0.697954	-0.335004	0.000180
H54	H	-1.795575	0.113958	-0.638927
Cl55	Cl	-1.655834	-0.012837	-0.845954
Cl56	Cl	-1.784688	0.582474	0.000173
H57	H	-1.327904	0.511545	0.000122
H58	H	-1.265497	0.141270	0.000069
Cl59	Cl	-1.134321	-0.557823	0.000136
Cl60	Cl	-1.184348	0.356505	0.000095
H61	H	-1.795564	0.113949	-0.360737
Cl62	Cl	-1.327914	-0.310434	-0.672985
