data_functionalizedCrystal
_audit_creation_method	'MofGen! by Chris Wilmer'
_symmetry_space_group_name_H-M	'P1'
_symmetry_Int_Tables_number	1
_symmetry_cell_setting	triclinic
loop_
_symmetry_equiv_pos_as_xyz
  x,y,z
_cell_length_a	19.805407
_cell_length_b	13.897448
_cell_length_c	19.805399
_cell_angle_alpha	90.025019
_cell_angle_beta	90.017803
_cell_angle_gamma	90.015009
loop_
_atom_site_label
_atom_site_type_symbol
_atom_site_fract_x
_atom_site_fract_y
_atom_site_fract_z
Zn1	Zn	1.034777	-0.384106	0.382700
Zn2	Zn	1.034709	-0.545412	0.269517
Zn3	Zn	0.921591	-0.384125	0.269528
Zn4	Zn	0.921572	-0.545353	0.382667
O5	O	0.978162	-0.464749	0.326103
O6	O	1.129484	-0.405521	0.367695
O7	O	1.019683	-0.524050	0.174801
O8	O	0.936642	-0.249141	0.284559
O9	O	1.129434	-0.524031	0.284540
O10	O	1.019799	-0.249127	0.367706
O11	O	0.936576	-0.405553	0.174810
O12	O	0.826872	-0.405496	0.284527
O13	O	0.936609	-0.523931	0.477388
O14	O	0.826858	-0.523950	0.367650
O15	O	1.019780	-0.405464	0.477412
O16	O	1.019664	-0.680386	0.284508
O17	O	0.936543	-0.680343	0.367639
C18	C	0.802306	-0.464719	0.326086
C19	C	0.727074	-0.464729	0.326095
C20	C	0.691757	-0.403130	0.369460
C21	C	0.621068	-0.403135	0.369463
C22	C	0.585699	-0.464745	0.326103
C23	C	0.621021	-0.526347	0.282734
C24	C	0.691708	-0.526337	0.282728
C25	C	0.335948	-0.526391	0.282755
C26	C	0.265256	-0.526399	0.282765
C27	C	0.265308	-0.403189	0.369489
C28	C	0.335995	-0.403178	0.369483
C29	C	0.371311	-0.464777	0.326112
C30	C	0.447960	-0.464769	0.326108
C31	C	0.509051	-0.464758	0.326110
C32	C	0.978113	-0.715364	0.326083
C33	C	0.978154	-0.822578	0.326097
C34	C	0.978225	-1.018873	0.326140
C35	C	0.978183	-0.909640	0.326118
C36	C	1.154705	-0.464780	0.326120
C37	C	1.229937	-0.464794	0.326127
C38	C	0.978200	-0.464689	0.502646
C39	C	0.978216	-0.464663	0.577878
C40	C	0.978230	-0.213156	0.326137
C41	C	0.978259	-0.105942	0.326152
C42	C	0.978163	-0.464740	0.150247
C43	C	0.978278	-0.464494	0.075015
C44	C	1.021524	-0.402974	0.613235
C45	C	1.021531	-0.402946	0.683924
C46	C	0.978233	-0.464612	0.719253
C47	C	0.934920	-0.526304	0.683890
C48	C	0.934910	-0.526327	0.613203
C49	C	0.934958	-0.526214	0.968964
C50	C	0.934973	-0.526189	1.039656
C51	C	1.021579	-0.402833	1.039684
C52	C	1.021570	-0.402856	0.968997
C53	C	0.978254	-0.464544	0.933641
C54	C	0.978247	-0.464572	0.856992
C55	C	0.978244	-0.464590	0.795900
H56	H	0.720463	-0.576497	0.247416
Br57	Br	0.876208	-0.609887	1.087603
H58	H	1.056785	-0.352760	0.584475
Br59	Br	0.876153	-0.609990	0.731837
H60	H	0.364789	-0.353012	0.404793
H61	H	0.899699	-0.576458	0.940185
Br62	Br	1.080341	-0.319266	0.731907
H63	H	0.720550	-0.352962	0.404770
H64	H	0.236545	-0.353029	0.404802
H65	H	0.899638	-0.576551	0.584416
H66	H	0.592217	-0.576507	0.247427
Br67	Br	1.080365	-0.319111	1.087672
Br68	Br	0.573140	-0.319533	0.428318
Br69	Br	0.383868	-0.609963	0.223875
Br70	Br	0.217254	-0.610018	0.223916
H71	H	1.056830	-0.352644	0.940236
