data_functionalizedCrystal
_audit_creation_method	'MofGen! by Chris Wilmer'
_symmetry_space_group_name_H-M	'P1'
_symmetry_Int_Tables_number	1
_symmetry_cell_setting	triclinic
loop_
_symmetry_equiv_pos_as_xyz
  x,y,z
_cell_length_a	14.853563
_cell_length_b	9.130307
_cell_length_c	10.654541
_cell_angle_alpha	90.002693
_cell_angle_beta	95.941434
_cell_angle_gamma	89.996740
loop_
_atom_site_label
_atom_site_type_symbol
_atom_site_fract_x
_atom_site_fract_y
_atom_site_fract_z
O1	O	-1.197243	0.121792	0.163933
O2	O	-0.934887	0.121796	0.183470
O3	O	-1.072098	0.121785	-0.009101
O4	O	-1.060032	0.121803	0.356504
O5	O	-1.072088	-0.121814	-0.009101
O6	O	-0.934877	-0.121803	0.183470
O7	O	-1.197233	-0.121807	0.163933
Cu8	Cu	-1.066054	-0.144048	0.173702
Cu9	Cu	-1.066066	0.144036	0.173701
O10	O	-1.060022	-0.121796	0.356504
C11	C	-0.901289	-0.000003	0.182586
C12	C	-0.801191	-0.000001	0.179936
N13	N	-1.066053	-0.346671	0.173701
C14	C	-0.754169	0.132789	0.178693
C15	C	-0.754157	-0.132792	0.178678
C16	C	-0.660110	-0.132795	0.176182
C17	C	-0.613089	-0.000004	0.174939
C18	C	-0.660114	0.132790	0.176193
C19	C	-0.613079	-0.265587	0.174916
C20	C	-0.519026	-0.265595	0.172418
C21	C	-0.472002	-0.132803	0.171184
C22	C	-0.519033	-0.000003	0.172439
C23	C	-0.472012	0.132787	0.171196
C24	C	-0.519041	0.265589	0.172460
C25	C	-0.613090	0.265583	0.174959
C26	C	-0.377953	-0.132797	0.168685
C27	C	-0.377957	0.132788	0.168695
C28	C	-0.230832	-0.000008	0.164811
C29	C	-0.330932	-0.000006	0.167442
C30	C	-1.187625	-0.653310	0.003220
C31	C	-1.248391	-0.576628	-0.082020
C32	C	-1.248380	-0.423294	-0.082023
C33	C	-1.187597	-0.346640	0.003225
C34	C	-1.126831	-0.423322	0.088465
C35	C	-1.126847	-0.576659	0.088456
C36	C	-1.005286	-0.423353	0.258941
C37	C	-1.005292	-0.576686	0.258940
C38	C	-0.944503	-0.346698	0.344189
C39	C	-0.883731	-0.423380	0.429425
C40	C	-0.883744	-0.576723	0.429424
C41	C	-0.944525	-0.653368	0.344180
C42	C	-1.071208	-0.000014	-0.055890
C43	C	-1.068558	-0.000011	-0.195306
N44	N	-1.066074	0.346659	0.173692
C45	C	-1.232631	-0.000033	-0.224984
C46	C	-1.313419	-0.000046	-0.305320
C47	C	-1.310924	-0.000042	-0.436312
C48	C	-1.227633	-0.000019	-0.486970
C49	C	-1.146845	-0.000005	-0.406635
C50	C	-1.149348	-0.000015	-0.275641
C51	C	-0.982774	0.000026	-0.376956
C52	C	-0.985266	0.000011	-0.245964
C53	C	-0.899482	0.000049	-0.427614
C54	C	-0.818692	0.000052	-0.347279
C55	C	-0.821190	0.000046	-0.216279
C56	C	-0.904478	0.000025	-0.165628
C57	C	-1.060912	0.000006	0.403293
C58	C	-1.063562	0.000013	0.542709
H59	H	-0.339678	0.240924	0.167691
H60	H	-0.897456	0.000062	-0.534276
H61	H	-0.480744	-0.373730	0.171387
H62	H	-0.792448	-0.240904	0.179681
H63	H	-0.755402	0.000063	-0.150876
H64	H	-0.906521	0.000011	-0.058970
Br65	Br	-0.676920	0.445796	0.176659
H66	H	-1.187599	-0.221787	0.003227
Br67	Br	-1.187632	-0.861407	0.003195
H68	H	-0.480744	0.373707	0.171441
Br69	Br	-0.314134	-0.313011	0.166943
H70	H	-0.792464	0.240913	0.179727
H71	H	-0.834264	-0.639150	0.498841
H72	H	-0.944500	-0.221846	0.344188
H73	H	-1.297882	-0.639053	-0.151426
H74	H	-0.834250	-0.360958	0.498834
Br75	Br	-1.426453	-0.000062	-0.236565
H76	H	-1.297865	-0.360859	-0.151428
H77	H	-0.651371	-0.373698	0.175916
Br78	Br	-0.944543	-0.861465	0.344163
H79	H	-1.234671	-0.000056	-0.118325
Br80	Br	-1.420565	-0.000041	-0.545344
H81	H	-1.225608	0.000003	-0.593632
H82	H	-0.750882	0.000080	-0.388536
