data_functionalizedCrystal
_audit_creation_method	'MofGen! by Chris Wilmer'
_symmetry_space_group_name_H-M	'P1'
_symmetry_Int_Tables_number	1
_symmetry_cell_setting	triclinic
loop_
_symmetry_equiv_pos_as_xyz
  x,y,z
_cell_length_a	17.699083
_cell_length_b	9.565339
_cell_length_c	17.699083
_cell_angle_alpha	90.000658
_cell_angle_beta	83.283015
_cell_angle_gamma	89.997515
loop_
_atom_site_label
_atom_site_type_symbol
_atom_site_fract_x
_atom_site_fract_y
_atom_site_fract_z
O1	O	1.004075	0.116067	0.095706
O2	O	1.337409	0.449400	0.429039
O3	O	1.670742	0.782733	0.762372
O4	O	0.783697	0.116113	0.108158
O5	O	1.117030	0.449446	0.441492
O6	O	1.450364	0.782780	0.774825
O7	O	0.900112	0.116076	-0.008257
O8	O	1.233446	0.449410	0.325076
O9	O	1.566779	0.782743	0.658409
O10	O	0.887660	0.116103	0.212121
O11	O	1.220993	0.449437	0.545455
O12	O	1.554327	0.782770	0.878788
O13	O	0.900103	-0.116444	-0.008250
O14	O	1.233437	0.216889	0.325083
O15	O	1.566770	0.550223	0.658417
O16	O	0.783688	-0.116407	0.108166
O17	O	1.117021	0.216926	0.441499
O18	O	1.450354	0.550259	0.774832
O19	O	1.004066	-0.116453	0.095713
O20	O	1.337400	0.216880	0.429046
O21	O	1.670733	0.550213	0.762380
Zn22	Zn	0.893876	-0.153348	0.101940
Zn23	Zn	1.227209	0.179985	0.435274
Zn24	Zn	1.560542	0.513319	0.768607
Zn25	Zn	0.893888	0.153007	0.101931
Zn26	Zn	1.227221	0.486341	0.435264
Zn27	Zn	1.560554	0.819674	0.768598
O28	O	0.887651	-0.116417	0.212128
O29	O	1.220984	0.216917	0.545462
O30	O	1.554317	0.550250	0.878795
C31	C	0.755495	-0.000141	0.107716
C32	C	1.088829	0.333192	0.441049
C33	C	1.422162	0.666525	0.774382
C34	C	0.671477	-0.000124	0.106377
C35	C	1.004811	0.333209	0.439710
C36	C	1.338144	0.666543	0.773044
N37	N	0.893873	-0.362427	0.101946
N38	N	1.227206	-0.029094	0.435280
N39	N	1.560539	0.304239	0.768613
C40	C	0.622856	-0.000116	0.174710
C41	C	0.956190	0.333217	0.508044
C42	C	1.289523	0.666551	0.841377
C43	C	0.543913	-0.000134	0.173448
C44	C	0.877246	0.333199	0.506782
C45	C	1.210580	0.666532	0.840115
C46	C	0.513592	-0.000151	0.103852
C47	C	0.846926	0.333183	0.437185
C48	C	1.180259	0.666516	0.770518
C49	C	0.562219	-0.000163	0.035513
C50	C	0.895553	0.333170	0.368846
C51	C	1.228886	0.666504	0.702180
C52	C	0.641161	-0.000155	0.036776
C53	C	0.974495	0.333179	0.370110
C54	C	1.307828	0.666512	0.703443
C55	C	0.243856	-0.000198	0.030418
C56	C	0.577190	0.333135	0.363751
C57	C	0.910523	0.666469	0.697085
C58	C	0.164908	-0.000202	0.029160
C59	C	0.498242	0.333131	0.362493
C60	C	0.831575	0.666465	0.695827
C61	C	0.146608	-0.000178	0.167090
C62	C	0.479942	0.333156	0.500423
C63	C	0.813275	0.666489	0.833757
C64	C	0.225550	-0.000170	0.168353
C65	C	0.558883	0.333164	0.501686
C66	C	0.892217	0.666497	0.835020
C67	C	0.274170	-0.000189	0.100015
C68	C	0.607504	0.333144	0.433348
C69	C	0.940837	0.666478	0.766681
C70	C	0.359769	-0.000172	0.101384
C71	C	0.693103	0.333161	0.434718
C72	C	1.026436	0.666495	0.768051
C73	C	0.427995	-0.000158	0.102481
C74	C	0.761328	0.333176	0.435815
C75	C	1.094661	0.666509	0.769148
C76	C	0.840018	-0.453613	0.155767
C77	C	1.173352	-0.120280	0.489100
C78	C	1.506685	0.213053	0.822434
C79	C	0.908386	-0.546805	0.170327
C80	C	1.241719	-0.213471	0.503661
C81	C	1.575052	0.119862	0.836994
C82	C	0.825535	-0.546791	0.087392
C83	C	1.158869	-0.213458	0.420725
C84	C	1.492202	0.119875	0.754058
C85	C	0.962274	-0.453567	0.116541
C86	C	1.295608	-0.120233	0.449874
C87	C	1.628941	0.213100	0.783208
C88	C	0.879379	-0.453545	0.033576
C89	C	1.212712	-0.120212	0.366909
C90	C	1.546046	0.213121	0.700242
C91	C	0.947796	-0.546694	0.048107
C92	C	1.281129	-0.213361	0.381440
C93	C	1.614462	0.119972	0.714774
C94	C	1.032268	-0.000196	0.096156
C95	C	1.365601	0.333137	0.429489
C96	C	1.698934	0.666471	0.762822
C97	C	1.116286	-0.000204	0.097494
C98	C	1.449619	0.333129	0.430828
C99	C	1.782953	0.666463	0.764161
C100	C	0.899662	-0.000184	-0.036451
C101	C	1.232995	0.333149	0.296883
C102	C	1.566328	0.666483	0.630216
C103	C	0.898323	-0.000184	-0.120469
C104	C	1.231656	0.333149	0.212865
C105	C	1.564990	0.666482	0.546198
N106	N	0.893896	0.362087	0.101919
N107	N	1.227230	0.695420	0.435252
N108	N	1.560563	1.028753	0.768585
C109	C	0.966656	-0.000201	-0.169090
C110	C	1.299990	0.333133	0.164244
C111	C	1.633323	0.666466	0.497577
C112	C	0.965394	-0.000188	-0.248033
C113	C	1.298727	0.333145	0.085300
C114	C	1.632061	0.666479	0.418634
C115	C	0.895798	-0.000169	-0.278354
C116	C	1.229131	0.333164	0.054980
C117	C	1.562464	0.666498	0.388313
C118	C	0.827459	-0.000149	-0.229727
C119	C	1.160792	0.333185	0.103607
C120	C	1.494126	0.666518	0.436940
C121	C	0.828722	-0.000151	-0.150785
C122	C	1.162055	0.333182	0.182549
C123	C	1.495389	0.666516	0.515882
C124	C	0.822364	-0.000136	-0.548090
C125	C	1.155697	0.333197	-0.214756
C126	C	1.489030	0.666531	0.118577
C127	C	0.821106	-0.000138	-0.627038
C128	C	1.154439	0.333196	-0.293704
C129	C	1.487773	0.666529	0.039629
C130	C	0.959036	-0.000173	-0.645338
C131	C	1.292369	0.333160	-0.312004
C132	C	1.625703	0.666494	0.021329
C133	C	0.960299	-0.000175	-0.566396
C134	C	1.293632	0.333158	-0.233063
C135	C	1.626966	0.666491	0.100271
C136	C	0.891961	-0.000148	-0.517776
C137	C	1.225294	0.333186	-0.184442
C138	C	1.558627	0.666519	0.148891
C139	C	0.893330	-0.000159	-0.432177
C140	C	1.226664	0.333175	-0.098843
C141	C	1.559997	0.666508	0.234490
C142	C	0.894427	-0.000168	-0.363951
C143	C	1.227761	0.333165	-0.030618
C144	C	1.561094	0.666499	0.302715
C145	C	0.888102	-0.000153	0.240322
C146	C	1.221435	0.333180	0.573655
C147	C	1.554768	0.666513	0.906989
C148	C	0.889440	-0.000144	0.324340
C149	C	1.222773	0.333189	0.657673
C150	C	1.556107	0.666523	0.991007
H151	H	0.647537	-0.000102	0.231384
H152	H	0.980870	0.333232	0.564717
H153	H	1.314204	0.666565	0.898051
F154	F	0.747028	-0.000115	-0.659305
F155	F	1.080362	0.333218	-0.325971
F156	F	1.413695	0.666551	0.007362
F157	F	0.132641	-0.000220	-0.044918
F158	F	0.465975	0.333114	0.288416
F159	F	0.799308	0.666447	0.621749
F160	F	0.863307	-0.399957	-0.041959
F161	F	1.196641	-0.066624	0.291374
F162	F	1.529974	0.266710	0.624707
F163	F	0.692907	-0.000168	-0.035954
F164	F	1.026241	0.333165	0.297380
F165	F	1.359574	0.666499	0.630713
H166	H	0.920661	-0.587768	0.228135
H167	H	1.253994	-0.254434	0.561468
H168	H	1.587327	0.078899	0.894802
F169	F	1.031768	-0.000198	-0.697089
F170	F	1.365102	0.333136	-0.363756
F171	F	1.698435	0.666469	-0.030423
F172	F	1.007400	-0.599787	-0.011402
F173	F	1.340733	-0.266453	0.321931
F174	F	1.674066	0.066880	0.655265
H175	H	0.766718	-0.000114	-0.508512
H176	H	1.100052	0.333220	-0.175179
H177	H	1.433385	0.666553	0.158155
F178	F	0.749985	-0.600319	0.071315
F179	F	1.083318	-0.266986	0.404648
F180	F	1.416652	0.066348	0.737982
F181	F	0.753389	-0.000113	-0.261998
F182	F	1.086722	0.333221	0.071335
F183	F	1.420056	0.666554	0.404668
H184	H	1.023330	-0.000225	-0.144409
H185	H	1.356663	0.333109	0.188924
H186	H	1.689997	0.666442	0.522258
H187	H	0.107012	-0.000169	0.222734
H188	H	0.440345	0.333164	0.556067
H189	H	0.773678	0.666497	0.889401
H190	H	1.021038	-0.000204	-0.287618
H191	H	1.354372	0.333129	0.045716
H192	H	1.687705	0.666462	0.379049
H193	H	0.537526	-0.000196	-0.021154
H194	H	0.870859	0.333137	0.312180
H195	H	1.204193	0.666471	0.645513
H196	H	0.794517	-0.412744	0.201323
H197	H	1.127850	-0.079411	0.534656
H198	H	1.461183	0.253923	0.867989
F199	F	1.037843	-0.400273	0.132704
F200	F	1.371177	-0.066940	0.466037
F201	F	1.704510	0.266394	0.799371
H202	H	1.016971	-0.000198	-0.541714
H203	H	1.350305	0.333136	-0.208380
H204	H	1.683638	0.666469	0.124953
H205	H	0.504328	-0.000126	0.229092
H206	H	0.837662	0.333207	0.562426
H207	H	1.170995	0.666540	0.895759
F208	F	0.257815	-0.000144	0.242427
F209	F	0.591148	0.333190	0.575760
F210	F	0.924482	0.666523	0.909093
H211	H	0.283434	-0.000215	-0.025228
H212	H	0.616767	0.333118	0.308106
H213	H	0.950101	0.666452	0.641439
F214	F	0.755992	-0.000130	-0.099039
F215	F	1.089326	0.333204	0.234295
F216	F	1.422659	0.666537	0.567628
