data_functionalizedCrystal
_audit_creation_method	'MofGen! by Chris Wilmer'
_symmetry_space_group_name_H-M	'P1'
_symmetry_Int_Tables_number	1
_symmetry_cell_setting	triclinic
loop_
_symmetry_equiv_pos_as_xyz
  x,y,z
_cell_length_a	19.805407
_cell_length_b	18.101397
_cell_length_c	19.805399
_cell_angle_alpha	90.029325
_cell_angle_beta	90.017803
_cell_angle_gamma	90.017782
loop_
_atom_site_label
_atom_site_type_symbol
_atom_site_fract_x
_atom_site_fract_y
_atom_site_fract_z
Zn1	Zn	1.034764	-0.294900	0.382679
Zn2	Zn	1.034690	-0.418743	0.269488
Zn3	Zn	0.921578	-0.294914	0.269508
Zn4	Zn	0.921554	-0.418698	0.382638
O5	O	0.978146	-0.356814	0.326078
O6	O	1.129470	-0.311341	0.367673
O7	O	1.019665	-0.402342	0.174774
O8	O	0.936634	-0.191280	0.284546
O9	O	1.129416	-0.402328	0.284512
O10	O	1.019790	-0.191269	0.367693
O11	O	0.936562	-0.311366	0.174788
O12	O	0.826858	-0.311322	0.284505
O13	O	0.936591	-0.402251	0.477360
O14	O	0.826840	-0.402265	0.367622
O15	O	1.019766	-0.311297	0.477391
O16	O	1.019641	-0.522370	0.284472
O17	O	0.936520	-0.522337	0.367603
C18	C	0.802290	-0.356791	0.326062
C19	C	0.727058	-0.356799	0.326071
C20	C	0.691743	-0.309505	0.369439
C21	C	0.621055	-0.309509	0.369441
C22	C	0.585683	-0.356811	0.326079
C23	C	0.621003	-0.404106	0.282706
C24	C	0.691690	-0.404098	0.282701
C25	C	0.335930	-0.404139	0.282727
C26	C	0.265238	-0.404145	0.282737
C27	C	0.265294	-0.309551	0.369468
C28	C	0.335981	-0.309543	0.369462
C29	C	0.371295	-0.356835	0.326087
C30	C	0.447944	-0.356829	0.326084
C31	C	0.509036	-0.356821	0.326085
C32	C	0.978088	-0.549225	0.326045
C33	C	0.978126	-0.631539	0.326054
C34	C	0.978212	-0.930629	0.326116
C35	C	1.030364	-0.899294	0.273672
C36	C	1.030544	-0.813676	0.273808
C37	C	0.978169	-0.782247	0.326085
C38	C	0.997504	-0.813257	0.397429
C39	C	0.997908	-0.898902	0.397143
C40	C	0.906586	-0.899134	0.307833
C41	C	0.906940	-0.813485	0.306240
C42	C	0.978144	-0.698388	0.326071
C43	C	0.978239	-1.014489	0.326134
C44	C	1.154689	-0.356838	0.326095
C45	C	1.229921	-0.356848	0.326102
C46	C	0.978184	-0.356767	0.502621
C47	C	0.978201	-0.356747	0.577853
C48	C	0.978223	-0.163652	0.326126
C49	C	0.978256	-0.081338	0.326146
C50	C	0.978148	-0.356807	0.150222
C51	C	0.978262	-0.356618	0.074991
C52	C	1.021511	-0.309385	0.613214
C53	C	1.021518	-0.309364	0.683903
C54	C	0.978217	-0.356709	0.719229
C55	C	0.934902	-0.404073	0.683863
C56	C	0.934893	-0.404090	0.613175
C57	C	0.934941	-0.404004	0.968936
C58	C	0.934955	-0.403985	1.039628
C59	C	1.021566	-0.309278	1.039663
C60	C	1.021556	-0.309295	0.968976
C61	C	0.978239	-0.356656	0.933616
C62	C	0.978231	-0.356678	0.856968
C63	C	0.978228	-0.356691	0.795876
H64	H	0.592304	-0.271000	0.404757
H65	H	0.364777	-0.271027	0.404775
N66	N	0.890643	-0.452459	0.577052
N67	N	0.828191	-0.447531	0.584938
H68	H	0.796935	-0.481690	0.559426
H69	H	1.056787	-0.270798	0.712690
N70	N	0.372007	-0.452449	0.238434
N71	N	0.435120	-0.452438	0.238429
H72	H	0.460603	-0.486558	0.207145
N73	N	1.065774	-0.260930	0.932882
N74	N	1.065756	-0.260949	0.869769
H75	H	1.096983	-0.226787	0.844277
H76	H	0.899644	-0.442619	0.712631
N77	N	0.888654	-0.788053	0.240379
N78	N	0.883705	-0.720348	0.229036
H79	H	0.870794	-0.702381	0.182520
N80	N	1.065807	-0.260879	1.075773
N81	N	1.104463	-0.218611	1.044223
H82	H	1.135708	-0.184430	1.069723
H83	H	1.083130	-0.920765	0.285629
N84	N	1.097106	-0.787913	0.288981
N85	N	1.143570	-0.833186	0.299509
H86	H	1.190582	-0.814993	0.310227
H87	H	0.899692	-0.442540	1.068389
H88	H	0.592198	-0.442616	0.247396
H89	H	0.960681	-0.792897	0.437554
H90	H	1.050263	-0.918824	0.412630
H91	H	0.899679	-0.442579	0.940155
N92	N	1.065731	-0.261011	0.577133
N93	N	1.041927	-0.213825	0.537700
H94	H	1.073157	-0.179656	0.512218
N95	N	1.062447	-0.786274	0.417182
N96	N	1.094602	-0.744215	0.378840
H97	H	1.140469	-0.725158	0.392787
H98	H	0.888996	-0.920793	0.256711
N99	N	0.727871	-0.261175	0.413723
N100	N	0.767312	-0.213945	0.389980
H101	H	0.792827	-0.179808	0.421255
H102	H	0.236440	-0.442666	0.247424
H103	H	0.865993	-0.792098	0.341641
N104	N	0.229217	-0.261250	0.413781
N105	N	0.189786	-0.287380	0.456869
H106	H	0.164306	-0.253272	0.488167
N107	N	0.727768	-0.452396	0.238392
N108	N	0.719849	-0.447389	0.175945
H109	H	0.745329	-0.481497	0.144648
N110	N	1.015365	-0.787383	0.207443
N111	N	1.004565	-0.832288	0.160701
H112	H	0.993847	-0.813723	0.113828
H113	H	1.018413	-0.919936	0.220613
H114	H	0.867729	-0.919399	0.346030
N115	N	0.952321	-0.924896	0.447832
N116	N	0.920312	-0.879783	0.483308
H117	H	0.888118	-0.898138	0.519108
