data_functionalizedCrystal
_audit_creation_method	'MofGen! by Chris Wilmer'
_symmetry_space_group_name_H-M	'P1'
_symmetry_Int_Tables_number	1
_symmetry_cell_setting	triclinic
loop_
_symmetry_equiv_pos_as_xyz
  x,y,z
_cell_length_a	12.996460
_cell_length_b	10.723024
_cell_length_c	10.723024
_cell_angle_alpha	84.467869
_cell_angle_beta	90.004962
_cell_angle_gamma	90.005265
loop_
_atom_site_label
_atom_site_type_symbol
_atom_site_fract_x
_atom_site_fract_y
_atom_site_fract_z
O1	O	-0.085557	-1.657190	-0.175030
O2	O	0.414443	-1.157190	0.324970
O3	O	-0.085561	-1.294038	-0.191783
O4	O	0.414439	-0.794038	0.308217
O5	O	-0.085555	-1.483991	-0.001830
O6	O	0.414445	-0.983991	0.498170
O7	O	-0.085563	-1.467237	-0.364982
O8	O	0.414437	-0.967237	0.135018
O9	O	0.085579	-1.483971	-0.001819
O10	O	0.585579	-0.983971	0.498181
O11	O	0.085573	-1.294018	-0.191772
O12	O	0.585573	-0.794018	0.308228
O13	O	0.085576	-1.657170	-0.175019
O14	O	0.585576	-1.157170	0.324981
Cu15	Cu	0.101201	-1.475592	-0.183395
Cu16	Cu	0.601201	-0.975592	0.316605
Cu17	Cu	-0.101185	-1.475616	-0.183407
Cu18	Cu	0.398815	-0.975616	0.316593
O19	O	0.085571	-1.467217	-0.364972
O20	O	0.585571	-0.967217	0.135028
C21	C	0.000006	-1.247528	-0.190558
C22	C	0.500006	-0.747528	0.309442
C23	C	0.000005	-1.108974	-0.186911
C24	C	0.500005	-0.608974	0.313089
N25	N	0.243548	-1.475585	-0.183385
N26	N	0.743548	-0.975585	0.316615
N27	N	-0.243532	-1.475633	-0.183407
N28	N	0.256468	-0.975633	0.316593
C29	C	0.663362	-1.475614	-0.183408
C30	C	1.163362	-0.975614	0.316592
C31	C	0.546557	-1.475602	-0.183406
C32	C	1.046557	-0.975602	0.316594
C33	C	0.453459	-1.475600	-0.183398
C34	C	0.953459	-0.975600	0.316602
C35	C	0.336646	-1.475587	-0.183393
C36	C	0.836646	-0.975587	0.316607
C37	C	0.000011	-1.482762	0.044675
C38	C	0.500011	-0.982762	0.544675
C39	C	0.000007	-1.479114	0.183229
C40	C	0.500007	-0.979114	0.683229
C41	C	0.000008	-1.703680	-0.176243
C42	C	0.500008	-1.203680	0.323757
C43	C	0.000002	-1.842234	-0.179891
C44	C	0.500002	-1.342234	0.320109
C45	C	0.000002	-1.033991	-0.293198
C46	C	0.500002	-0.533991	0.206802
C47	C	0.000000	-0.890788	-0.289431
C48	C	0.500000	-0.390788	0.210569
C49	C	0.000003	-1.468447	-0.411477
C50	C	0.500003	-0.968447	0.088523
C51	C	-0.000000	-1.472094	-0.550031
C52	C	0.500000	-0.972094	-0.050031
C53	C	0.000006	-1.585401	0.258212
C54	C	0.500006	-1.085401	0.758212
C55	C	0.000003	-1.581634	0.401415
C56	C	0.500003	-1.081634	0.901415
H57	H	0.000006	-1.075814	-0.386984
H58	H	0.500006	-0.575814	0.113016
H59	H	-0.000002	-0.906659	-0.088896
H60	H	0.499998	-0.406659	0.411104
Cl61	Cl	-0.000005	-1.334308	0.247788
Cl62	Cl	0.499995	-0.834308	0.747788
H63	H	-0.000006	-0.826355	-0.380421
H64	H	0.499994	-0.326355	0.119579
H65	H	-0.000020	-1.067152	-0.093125
H66	H	0.499980	-0.567152	0.406875
Cl67	Cl	0.000010	-1.722124	0.500888
Cl68	Cl	0.500010	-1.222124	1.000888
Cl69	Cl	0.000009	-1.331599	0.350504
Cl70	Cl	0.500009	-0.831599	0.850504
H71	H	0.000014	-1.679187	0.216390
H72	H	0.500014	-1.179187	0.716390
