data_functionalizedCrystal
_audit_creation_method	'MofGen! by Chris Wilmer'
_symmetry_space_group_name_H-M	'P1'
_symmetry_Int_Tables_number	1
_symmetry_cell_setting	triclinic
loop_
_symmetry_equiv_pos_as_xyz
  x,y,z
_cell_length_a	16.109301
_cell_length_b	10.065875
_cell_length_c	16.109301
_cell_angle_alpha	81.213309
_cell_angle_beta	83.461532
_cell_angle_gamma	98.741855
loop_
_atom_site_label
_atom_site_type_symbol
_atom_site_fract_x
_atom_site_fract_y
_atom_site_fract_z
O1	O	1.115290	0.113406	0.094652
O2	O	1.615290	0.613406	0.594652
O3	O	0.873231	0.113428	0.107949
O4	O	1.373231	0.613428	0.607949
O5	O	1.000909	0.113407	-0.019729
O6	O	1.500909	0.613407	0.480271
O7	O	0.987612	0.113427	0.222331
O8	O	1.487612	0.613427	0.722331
O9	O	0.976563	-0.113578	0.004715
O10	O	1.476563	0.386422	0.504715
O11	O	0.848884	-0.113557	0.132394
O12	O	1.348884	0.386443	0.632394
O13	O	1.090944	-0.113579	0.119097
O14	O	1.590944	0.386421	0.619097
Zn15	Zn	0.966049	-0.149607	0.129626
Zn16	Zn	1.466049	0.350393	0.629626
Zn17	Zn	0.998126	0.149456	0.097420
Zn18	Zn	1.498126	0.649456	0.597420
O19	O	0.963266	-0.113558	0.246775
O20	O	1.463266	0.386442	0.746775
C21	C	0.830083	-0.000062	0.119632
C22	C	1.330083	0.499938	0.619632
C23	C	0.737789	-0.000054	0.118016
C24	C	1.237789	0.499946	0.618016
N25	N	0.944162	-0.353709	0.151606
N26	N	1.444162	0.146291	0.651606
C27	C	0.515515	-0.000064	0.190025
C28	C	1.015515	0.499936	0.690025
C29	C	0.428794	-0.000073	0.188502
C30	C	0.928794	0.499927	0.688502
C31	C	0.448667	-0.000079	0.037014
C32	C	0.948667	0.499921	0.537014
C33	C	0.535386	-0.000080	0.038539
C34	C	1.035386	0.499920	0.538539
C35	C	0.568808	-0.000066	0.115046
C36	C	1.068808	0.499934	0.615046
C37	C	0.395368	-0.000074	0.111998
C38	C	0.895368	0.499926	0.611998
C39	C	0.301341	-0.000083	0.110346
C40	C	0.801341	0.499917	0.610346
C41	C	0.662841	-0.000058	0.116699
C42	C	1.162841	0.499942	0.616699
C43	C	0.990506	-0.421495	0.105062
C44	C	1.490506	0.078505	0.605062
C45	C	0.973668	-0.578660	0.121984
C46	C	1.473668	-0.078660	0.621984
C47	C	1.134092	-0.000086	0.107413
C48	C	1.634092	0.499914	0.607413
C49	C	1.226388	-0.000085	0.109028
C50	C	1.726388	0.499915	0.609028
C51	C	0.988197	-0.000084	-0.038482
C52	C	1.488197	0.499916	0.461518
C53	C	0.986582	-0.000083	-0.130777
C54	C	1.486582	0.499917	0.369223
N55	N	1.020019	0.353558	0.075434
N56	N	1.520019	0.853558	0.575434
C57	C	1.057067	-0.000065	-0.439778
C58	C	1.557067	0.499935	0.060222
C59	C	1.058592	-0.000073	-0.353056
C60	C	1.558592	0.499927	0.146944
C61	C	0.907102	-0.000078	-0.333183
C62	C	1.407102	0.499922	0.166817
C63	C	0.905578	-0.000080	-0.419901
C64	C	1.405578	0.499920	0.080099
C65	C	0.980563	-0.000066	-0.473198
C66	C	1.480563	0.499934	0.026802
C67	C	0.983613	-0.000073	-0.299758
C68	C	1.483613	0.499927	0.200242
C69	C	0.985265	-0.000081	-0.205731
C70	C	1.485265	0.499919	0.294269
C71	C	0.978911	-0.000060	-0.567230
C72	C	1.478911	0.499940	-0.067230
C73	C	0.975978	-0.000064	0.265527
C74	C	1.475978	0.499936	0.765527
C75	C	0.977594	-0.000056	0.357822
C76	C	1.477594	0.499944	0.857822
H77	H	0.542723	-0.000062	0.252323
H78	H	1.042723	0.499938	0.752323
H79	H	1.042645	-0.363179	0.052683
H80	H	1.542645	0.136821	0.552683
H81	H	0.385405	-0.000074	0.249558
H82	H	0.885405	0.499926	0.749558
O83	O	1.132876	0.000117	-0.320515
O84	O	1.632876	0.500117	0.179485
C85	C	1.150904	0.117690	-0.283621
C86	C	1.650904	0.617690	0.216379
H87	H	1.089570	0.156875	-0.266218
H88	H	1.589570	0.656875	0.233782
H89	H	1.181201	0.091251	-0.224001
H90	H	1.681201	0.591251	0.275999
H91	H	1.196517	0.200013	-0.330808
H92	H	1.696517	0.700013	0.169192
H93	H	1.118125	-0.000054	-0.483169
H94	H	1.618125	0.499946	0.016831
O95	O	0.911407	-0.648367	0.184375
O96	O	1.411407	-0.148367	0.684375
C97	C	0.851172	-0.731008	0.148839
C98	C	1.351172	-0.231008	0.648839
H99	H	0.881867	-0.752268	0.085995
H100	H	1.381867	-0.252268	0.585995
H101	H	0.827389	-0.831549	0.194329
H102	H	1.327389	-0.331549	0.694329
H103	H	0.795552	-0.676038	0.137460
H104	H	1.295552	-0.176038	0.637460
O105	O	0.416068	-0.000022	-0.037236
O106	O	0.916068	0.499978	0.462764
C107	C	0.328097	-0.000051	-0.022503
C108	C	0.828097	0.499949	0.477497
H109	H	0.312321	0.042923	0.037756
H110	H	0.812321	0.542923	0.537756
H111	H	0.308553	0.065850	-0.078551
H112	H	0.808553	0.565850	0.421449
H113	H	0.292280	-0.108946	-0.014803
H114	H	0.792280	0.391054	0.485197
H115	H	1.072161	-0.588130	0.023051
H116	H	1.572161	-0.088130	0.523051
H117	H	0.892017	-0.412026	0.203979
H118	H	1.392017	0.087974	0.703979
O119	O	0.831262	0.000164	-0.452356
O120	O	1.331262	0.500164	0.047644
C121	C	0.798148	0.117703	-0.437762
C122	C	1.298148	0.617703	0.062238
H123	H	0.851693	0.199872	-0.428583
H124	H	1.351693	0.699872	0.071417
H125	H	0.767021	0.157159	-0.494535
H126	H	1.267021	0.657159	0.005465
H127	H	0.748953	0.091126	-0.378370
H128	H	1.248953	0.591126	0.121630
H129	H	0.846052	-0.000085	-0.289779
H130	H	1.346052	0.499915	0.210221
H131	H	0.578779	-0.000085	-0.022521
H132	H	1.078779	0.499915	0.477479
