data_functionalizedCrystal
_audit_creation_method	'MofGen! by Chris Wilmer'
_symmetry_space_group_name_H-M	'P1'
_symmetry_Int_Tables_number	1
_symmetry_cell_setting	triclinic
loop_
_symmetry_equiv_pos_as_xyz
  x,y,z
_cell_length_a	18.215407
_cell_length_b	19.076808
_cell_length_c	18.215399
_cell_angle_alpha	87.669150
_cell_angle_beta	89.985640
_cell_angle_gamma	92.320961
loop_
_atom_site_label
_atom_site_type_symbol
_atom_site_fract_x
_atom_site_fract_y
_atom_site_fract_z
Zn1	Zn	1.113275	-0.280255	-0.404283
Zn2	Zn	1.613275	0.219745	0.095717
Zn3	Zn	1.108244	-0.397968	-0.276267
Zn4	Zn	1.608244	0.102032	0.223733
Zn5	Zn	0.990213	-0.280277	-0.281235
Zn6	Zn	1.490213	0.219723	0.218765
Zn7	Zn	0.985230	-0.397918	-0.399299
Zn8	Zn	1.485230	0.102082	0.100701
O9	O	1.049241	-0.339105	-0.340271
O10	O	1.549241	0.160895	0.159729
O11	O	1.215591	-0.295882	-0.387308
O12	O	1.715591	0.204118	0.112692
O13	O	1.092567	-0.382386	-0.173940
O14	O	1.592567	0.117614	0.326060
O15	O	1.010729	-0.181778	-0.301722
O16	O	1.510729	0.318222	0.198278
O17	O	1.211895	-0.382365	-0.293255
O18	O	1.711895	0.117635	0.206745
O19	O	1.101142	-0.181762	-0.392125
O20	O	1.601142	0.318238	0.107875
O21	O	1.005850	-0.295919	-0.177590
O22	O	1.505850	0.204081	0.322410
O23	O	0.886568	-0.295870	-0.296889
O24	O	1.386568	0.204130	0.203111
O25	O	1.002235	-0.382280	-0.502946
O26	O	1.502235	0.117720	-0.002946
O27	O	0.882907	-0.382301	-0.383631
O28	O	1.382907	0.117699	0.116369
O29	O	1.096309	-0.295833	-0.506607
O30	O	1.596309	0.204167	-0.006607
O31	O	1.087735	-0.496458	-0.288422
O32	O	1.587735	0.003542	0.211578
O33	O	0.997357	-0.496421	-0.378814
O34	O	1.497357	0.003579	0.121186
C35	C	0.858035	-0.339083	-0.340259
C36	C	1.358035	0.160917	0.159741
C37	C	0.776236	-0.339091	-0.340270
C38	C	1.276236	0.160909	0.159730
C39	C	0.589962	-0.294152	-0.389314
C40	C	1.089962	0.205848	0.110686
C41	C	0.513103	-0.294158	-0.389316
C42	C	1.013103	0.205842	0.110684
C43	C	0.509270	-0.384077	-0.291239
C44	C	1.009270	0.115923	0.208761
C45	C	0.586128	-0.384067	-0.291234
C46	C	1.086128	0.115933	0.208766
C47	C	0.626472	-0.339105	-0.340276
C48	C	1.126472	0.160895	0.159724
C49	C	0.472755	-0.339122	-0.340283
C50	C	0.972755	0.160878	0.159717
C51	C	0.389421	-0.339128	-0.340285
C52	C	0.889421	0.160872	0.159715
C53	C	0.709811	-0.339097	-0.340273
C54	C	1.209811	0.160903	0.159727
C55	C	1.041479	-0.521979	-0.332554
C56	C	1.541479	-0.021979	0.167446
C57	C	1.038226	-0.600213	-0.329278
C58	C	1.538226	-0.100213	0.170722
C59	C	1.083736	-0.636899	-0.374845
C60	C	1.583736	-0.136899	0.125155
C61	C	1.080676	-0.710408	-0.371767
C62	C	1.580676	-0.210408	0.128233
C63	C	1.032110	-0.747230	-0.323119
C64	C	1.532110	-0.247230	0.176881
C65	C	0.986596	-0.710539	-0.277550
C66	C	1.486596	-0.210539	0.222450
C67	C	0.989652	-0.637031	-0.280632
C68	C	1.489652	-0.137031	0.219368
C69	C	1.017923	-0.967083	-0.308855
C70	C	1.517923	-0.467083	0.191145
C71	C	1.014871	-1.040596	-0.305775
C72	C	1.514871	-0.540596	0.194225
C73	C	1.108951	-1.040460	-0.399993
C74	C	1.608951	-0.540460	0.100007
C75	C	1.112006	-0.966951	-0.403067
C76	C	1.612006	-0.466951	0.096933
C77	C	1.066489	-0.930266	-0.357501
C78	C	1.566489	-0.430266	0.142499
N79	N	1.028984	-0.822369	-0.319970
N80	N	1.528984	-0.322369	0.180030
N81	N	1.069613	-0.855129	-0.360654
N82	N	1.569613	-0.355129	0.139346
C83	C	1.241192	-0.339127	-0.340283
C84	C	1.741192	0.160873	0.159717
C85	C	1.322991	-0.339136	-0.340289
C86	C	1.822991	0.160864	0.159711
C87	C	1.049278	-0.339048	-0.532226
C88	C	1.549278	0.160952	-0.032226
C89	C	1.049293	-0.339024	-0.614026
C90	C	1.549293	0.160976	-0.114026
C91	C	1.057052	-0.155517	-0.348034
C92	C	1.557052	0.344483	0.151966
C93	C	1.060381	-0.077282	-0.351342
C94	C	1.560381	0.422718	0.148658
C95	C	1.004181	-0.293971	-0.804123
C96	C	1.504181	0.206029	-0.304123
C97	C	1.004194	-0.293956	-0.880982
C98	C	1.504194	0.206044	-0.380982
C99	C	1.094497	-0.383994	-0.877171
C100	C	1.594497	0.116006	-0.377171
C101	C	1.094480	-0.384012	-0.800313
C102	C	1.594480	0.115988	-0.300313
C103	C	1.049323	-0.338996	-0.763791
C104	C	1.549323	0.161004	-0.263791
C105	C	1.049354	-0.338964	-0.917508
C106	C	1.549354	0.161036	-0.417508
C107	C	1.049369	-0.338949	-1.000843
C108	C	1.549369	0.161051	-0.500843
C109	C	1.049307	-0.339011	-0.680451
C110	C	1.549307	0.160989	-0.180451
C111	C	1.049248	-0.339110	-0.149064
C112	C	1.549248	0.160890	0.350936
C113	C	1.049383	-0.338936	-0.067273
C114	C	1.549383	0.161064	0.432727
H115	H	0.476413	-0.420685	-0.251312
H116	H	0.976413	0.079315	0.248688
C117	C	1.165441	-0.926451	-0.456569
C118	C	1.665441	-0.426451	0.043431
H119	H	1.192108	-0.958828	-0.483266
H120	H	1.692108	-0.458828	0.016734
H121	H	1.198710	-0.897775	-0.429634
H122	H	1.698710	-0.397775	0.070366
H123	H	1.138470	-0.897771	-0.489819
H124	H	1.638470	-0.397771	0.010181
H125	H	0.947049	-0.740526	-0.237943
H126	H	1.447049	-0.240526	0.262057
H127	H	0.622807	-0.257538	-0.429245
H128	H	1.122807	0.242462	0.070755
C129	C	0.626296	-0.433518	-0.237291
C130	C	1.126296	0.066482	0.262709
H131	H	0.677847	-0.427066	-0.244307
H132	H	1.177847	0.072934	0.255693
H133	H	0.611706	-0.480825	-0.245984
H134	H	1.111706	0.019175	0.254016
H135	H	0.614123	-0.423156	-0.188297
H136	H	1.114123	0.076844	0.311703
H137	H	0.952592	-0.607162	-0.243527
H138	H	1.452592	-0.107162	0.256473
H139	H	0.967411	-0.257316	-0.774389
H140	H	1.467411	0.242684	-0.274389
H141	H	0.483380	-0.257550	-0.429247
H142	H	0.983380	0.242450	0.070753
H143	H	1.123287	-0.606923	-0.414456
H144	H	1.623287	-0.106923	0.085544
C145	C	0.954542	-0.244426	-0.925344
C146	C	1.454542	0.255574	-0.425344
H147	H	0.927652	-0.217617	-0.892583
H148	H	1.427652	0.282383	-0.392583
H149	H	0.921337	-0.271338	-0.954185
H150	H	1.421337	0.228662	-0.454185
H151	H	0.984010	-0.213752	-0.956626
H152	H	1.484010	0.286248	-0.456626
H153	H	1.117741	-0.740274	-0.408867
H154	H	1.617741	-0.240274	0.091133
H155	H	1.131263	-0.420644	-0.906916
H156	H	1.631263	0.079356	-0.406916
C157	C	1.159014	-1.080811	-0.450115
C158	C	1.659014	-0.580811	0.049885
H159	H	1.188379	-1.048352	-0.479525
H160	H	1.688379	-0.548352	0.020475
H161	H	1.129653	-1.109490	-0.480954
H162	H	1.629653	-0.609490	0.019046
H163	H	1.189909	-1.109477	-0.420785
H164	H	1.689909	-0.609477	0.079215
C165	C	0.961441	-1.081100	-0.252265
C166	C	1.461441	-0.581100	0.247735
H167	H	0.934764	-1.048725	-0.225574
H168	H	1.434764	-0.548725	0.274426
H169	H	0.988417	-1.109774	-0.219020
H170	H	1.488417	-0.609774	0.280980
H171	H	0.928168	-1.109782	-0.279197
H172	H	1.428168	-0.609782	0.220803
C173	C	0.967865	-0.926739	-0.258724
C174	C	1.467865	-0.426739	0.241276
H175	H	0.938512	-0.959199	-0.229304
H176	H	1.438512	-0.459199	0.270696
H177	H	0.936970	-0.898069	-0.288042
H178	H	1.436970	-0.398069	0.211958
H179	H	0.997237	-0.898065	-0.227884
H180	H	1.497237	-0.398065	0.272116
C181	C	1.144139	-0.433540	-0.755945
C182	C	1.644139	0.066460	-0.255945
H183	H	1.171043	-0.460341	-0.788703
H184	H	1.671043	0.039659	-0.288703
H185	H	1.114676	-0.464211	-0.724662
H186	H	1.614676	0.035789	-0.224662
H187	H	1.177344	-0.406619	-0.727105
H188	H	1.677344	0.093381	-0.227105
