data_functionalizedCrystal
_audit_creation_method	'MofGen! by Chris Wilmer'
_symmetry_space_group_name_H-M	'P1'
_symmetry_Int_Tables_number	1
_symmetry_cell_setting	triclinic
loop_
_symmetry_equiv_pos_as_xyz
  x,y,z
_cell_length_a	18.215407
_cell_length_b	18.101397
_cell_length_c	18.215398
_cell_angle_alpha	90.028108
_cell_angle_beta	90.019464
_cell_angle_gamma	90.020914
loop_
_atom_site_label
_atom_site_type_symbol
_atom_site_fract_x
_atom_site_fract_y
_atom_site_fract_z
Zn1	Zn	1.125092	-0.294847	0.416102
Zn2	Zn	1.125011	-0.418688	0.293030
Zn3	Zn	1.002025	-0.294866	0.293050
Zn4	Zn	1.002000	-0.418652	0.416055
O5	O	1.063532	-0.356763	0.354559
O6	O	1.228065	-0.311282	0.399788
O7	O	1.108673	-0.402285	0.190048
O8	O	1.018395	-0.191230	0.309401
O9	O	1.228006	-0.402267	0.309367
O10	O	1.108811	-0.191216	0.399807
O11	O	1.018316	-0.311314	0.190063
O12	O	0.899038	-0.311279	0.309355
O13	O	1.018352	-0.402206	0.519046
O14	O	0.899019	-0.402224	0.399726
O15	O	1.108787	-0.311247	0.519080
O16	O	1.108648	-0.522316	0.309322
O17	O	1.018273	-0.522290	0.399708
C18	C	0.872326	-0.356750	0.354538
C19	C	0.790527	-0.356763	0.354546
C20	C	0.602342	-0.404192	0.401544
C21	C	0.525484	-0.404195	0.401553
C22	C	0.525473	-0.309347	0.307591
C23	C	0.602331	-0.309341	0.307586
C24	C	0.640763	-0.356768	0.354561
C25	C	0.487047	-0.356776	0.354575
C26	C	0.403713	-0.356778	0.354585
C27	C	0.724102	-0.356765	0.354553
C28	C	1.063469	-0.549174	0.354524
C29	C	1.063509	-0.631488	0.354533
C30	C	1.063603	-0.930579	0.354600
C31	C	1.120306	-0.899239	0.297579
C32	C	1.120503	-0.813621	0.297727
C33	C	1.063557	-0.782196	0.354566
C34	C	1.084581	-0.813207	0.432138
C35	C	1.085019	-0.898851	0.431828
C36	C	0.985725	-0.899087	0.334720
C37	C	0.986109	-0.813438	0.332988
C38	C	1.063529	-0.698337	0.354552
C39	C	1.063633	-1.014438	0.354620
C40	C	1.255485	-0.356776	0.354581
C41	C	1.337284	-0.356782	0.354590
C42	C	1.063575	-0.356720	0.546512
C43	C	1.063594	-0.356702	0.628311
C44	C	1.063615	-0.163601	0.354611
C45	C	1.063651	-0.081287	0.354633
C46	C	1.063531	-0.356752	0.163353
C47	C	1.063655	-0.356561	0.081554
C48	C	1.110676	-0.403980	0.893366
C49	C	1.110665	-0.404006	0.816507
C50	C	1.016567	-0.309282	0.816505
C51	C	1.016575	-0.309260	0.893363
C52	C	1.063634	-0.356608	0.931791
C53	C	1.063615	-0.356655	0.778075
C54	C	1.063602	-0.356683	0.694741
C55	C	1.063646	-0.356582	1.015130
H56	H	0.633614	-0.270719	0.269327
H57	H	0.943477	-0.919355	0.376251
H58	H	0.494205	-0.442811	0.439812
C59	C	1.160624	-0.784163	0.455272
H60	H	1.179661	-0.753148	0.417766
H61	H	1.156196	-0.756779	0.499548
H62	H	1.192935	-0.824653	0.462757
C63	C	1.102732	-0.785292	0.220029
H64	H	1.102825	-0.732808	0.220016
H65	H	1.138701	-0.802864	0.186560
H66	H	1.055694	-0.802722	0.205579
C67	C	1.102831	-0.927222	0.219661
H68	H	1.060793	-0.958262	0.221202
H69	H	1.093427	-0.886327	0.188382
H70	H	1.143512	-0.954383	0.201338
H71	H	0.494172	-0.270735	0.269344
H72	H	1.177679	-0.920707	0.310582
H73	H	1.148994	-0.442534	0.924652
H74	H	0.966599	-0.920746	0.279135
C75	C	1.030486	-0.785731	0.491077
H76	H	1.044206	-0.805144	0.537544
H77	H	1.031582	-0.733295	0.492903
H78	H	0.982287	-0.801824	0.479148
C79	C	1.198431	-0.785863	0.315501
H80	H	1.230090	-0.826930	0.322666
H81	H	1.216082	-0.756737	0.275889
H82	H	1.197200	-0.756805	0.358927
H83	H	0.970257	-0.793177	0.275902
C84	C	1.162410	-0.456113	0.774239
H85	H	1.155662	-0.449352	0.722961
H86	H	1.211863	-0.445272	0.786846
H87	H	1.151618	-0.505869	0.786826
H88	H	0.941589	-0.792054	0.371478
H89	H	0.978264	-0.270684	0.924649
C90	C	0.644616	-0.456353	0.453221
H91	H	0.610723	-0.484591	0.481209
H92	H	0.674578	-0.488583	0.425015
H93	H	0.674617	-0.428056	0.485337
C94	C	1.161921	-0.925765	0.454567
H95	H	1.192601	-0.884356	0.463903
H96	H	1.158179	-0.954967	0.497720
H97	H	1.182434	-0.954564	0.416092
H98	H	0.978255	-0.270732	0.785207
C99	C	1.031661	-0.926859	0.491185
H100	H	1.009816	-0.885892	0.515385
H101	H	0.994469	-0.956066	0.468916
H102	H	1.057791	-0.955887	0.525886
