data_functionalizedCrystal
_audit_creation_method	'MofGen! by Chris Wilmer'
_symmetry_space_group_name_H-M	'P1'
_symmetry_Int_Tables_number	1
_symmetry_cell_setting	triclinic
loop_
_symmetry_equiv_pos_as_xyz
  x,y,z
_cell_length_a	11.026607
_cell_length_b	15.995350
_cell_length_c	10.065875
_cell_angle_alpha	98.791555
_cell_angle_beta	79.302338
_cell_angle_gamma	96.039196
loop_
_atom_site_label
_atom_site_type_symbol
_atom_site_fract_x
_atom_site_fract_y
_atom_site_fract_z
O1	O	1.627917	0.340991	-0.113481
O2	O	1.274611	0.301065	-0.113484
O3	O	1.460922	0.200596	-0.113481
O4	O	1.441606	0.441460	-0.113484
O5	O	1.425395	0.219853	0.113507
O6	O	1.239084	0.320322	0.113504
O7	O	1.592390	0.360247	0.113508
Zn8	Zn	1.410096	0.343342	0.149545
Zn9	Zn	1.456905	0.317971	-0.149522
O10	O	1.406079	0.460716	0.113504
C11	C	1.211637	0.303328	0.000010
C12	C	1.076923	0.281371	0.000008
C13	C	1.003118	0.341997	0.000007
C14	C	0.863884	0.319305	0.000005
C15	C	1.442360	0.178909	0.000011
C16	C	1.439967	0.085597	0.000003
C17	C	1.431369	-0.253446	0.000007
C18	C	1.298762	-0.226055	-0.000503
C19	C	1.301076	-0.128960	0.000009
C20	C	1.435634	-0.085243	0.000004
C21	C	1.480793	-0.105459	0.129624
C22	C	1.477442	-0.202588	0.129732
C23	C	1.520584	-0.224432	-0.128396
C24	C	1.520821	-0.127636	-0.130109
C25	C	1.438051	0.009819	0.000007
C26	C	1.428955	-0.348507	0.000014
C27	C	1.655365	0.357984	0.000011
C28	C	1.790080	0.379940	0.000003
C29	C	1.424641	0.482403	0.000010
C30	C	1.427036	0.575714	0.000009
N31	N	1.378160	0.360658	0.353650
N32	N	1.488851	0.300649	-0.353627
C33	C	1.445785	0.323989	0.421430
C34	C	1.421215	0.337324	0.578597
H35	H	0.829963	0.448650	0.000012
N36	N	1.645446	-0.090627	-0.139937
N37	N	1.673638	-0.032147	-0.050802
H38	H	1.761657	-0.006004	-0.057737
H39	H	1.264174	-0.116175	-0.092908
H40	H	1.037037	0.212664	-0.000026
N41	N	1.584294	0.248872	0.573205
N42	N	1.604117	0.238108	0.445636
H43	H	1.671522	0.201540	0.393958
H44	H	1.345120	0.378589	0.636917
N45	N	1.053165	0.428185	0.000021
N46	N	1.166198	0.446497	0.000029
H47	H	1.201544	0.507370	0.000040
N48	N	0.813836	0.233116	0.000024
N49	N	0.700801	0.214805	0.000031
H50	H	0.665451	0.153935	0.000047
N51	N	1.250496	-0.269219	-0.117123
N52	N	1.313259	-0.320678	-0.201222
H53	H	1.279175	-0.351167	-0.283593
N54	N	1.214384	-0.250786	0.115455
N55	N	1.251489	-0.288497	0.198470
H56	H	1.191901	-0.305966	0.280368
N57	N	1.217829	-0.093897	0.116774
N58	N	1.157845	-0.141144	0.198147
H59	H	1.099049	-0.116381	0.280621
N60	N	1.398547	-0.224252	0.251290
N61	N	1.346336	-0.167671	0.335453
H62	H	1.290613	-0.182966	0.421306
N63	N	1.541223	0.272215	0.348253
N64	N	1.561043	0.261452	0.220685
H65	H	1.628448	0.224885	0.169004
N66	N	1.282703	0.412416	0.426827
N67	N	1.262874	0.423171	0.554395
H68	H	1.195454	0.459726	0.606076
H69	H	1.573939	-0.219655	0.135610
H70	H	1.420240	-0.075746	0.226085
N71	N	1.603844	-0.068512	0.135698
N72	N	1.624564	-0.015546	0.235444
H73	H	1.711468	0.010553	0.239733
N74	N	1.485484	-0.268848	-0.251662
N75	N	1.559894	-0.313765	-0.333698
H76	H	1.535096	-0.345135	-0.420751
N77	N	1.479695	-0.112601	-0.250384
N78	N	1.477126	-0.038296	-0.273599
H79	H	1.448075	-0.027666	-0.358536
N80	N	1.643481	-0.245860	-0.129468
N81	N	1.665426	-0.282340	-0.036177
H82	H	1.752218	-0.297473	-0.036919
