data_functionalizedCrystal
_audit_creation_method	'MofGen! by Chris Wilmer'
_symmetry_space_group_name_H-M	'P1'
_symmetry_Int_Tables_number	1
_symmetry_cell_setting	triclinic
loop_
_symmetry_equiv_pos_as_xyz
  x,y,z
_cell_length_a	17.077404
_cell_length_b	16.625545
_cell_length_c	17.077396
_cell_angle_alpha	90.027926
_cell_angle_beta	90.021444
_cell_angle_gamma	90.023805
loop_
_atom_site_label
_atom_site_type_symbol
_atom_site_fract_x
_atom_site_fract_y
_atom_site_fract_z
Zn1	Zn	1.200040	-0.321039	0.443886
Zn2	Zn	1.199941	-0.455882	0.312622
Zn3	Zn	1.068772	-0.321063	0.312630
Zn4	Zn	1.068734	-0.455830	0.443841
O5	O	1.134372	-0.388453	0.378245
O6	O	1.309874	-0.338939	0.426490
O7	O	1.182516	-0.438030	0.202776
O8	O	1.086242	-0.208227	0.330064
O9	O	1.309801	-0.438007	0.330050
O10	O	1.182684	-0.208210	0.426497
O11	O	1.086146	-0.338979	0.202782
O12	O	0.958920	-0.338928	0.330020
O13	O	1.086177	-0.437917	0.553694
O14	O	0.958892	-0.437940	0.426420
O15	O	1.182647	-0.338888	0.553727
O16	O	1.182479	-0.568707	0.330006
O17	O	1.086081	-0.568669	0.426412
C18	C	0.930424	-0.388432	0.378216
C19	C	0.843174	-0.388442	0.378223
C20	C	0.467395	-0.336983	0.428570
C21	C	0.549375	-0.336978	0.428561
C22	C	0.590325	-0.388470	0.378264
C23	C	0.549290	-0.439978	0.327979
C24	C	0.467312	-0.439988	0.327992
C25	C	0.720161	-0.439954	0.327954
C26	C	0.802145	-0.439944	0.327939
C27	C	0.802224	-0.336944	0.428523
C28	C	0.720245	-0.336953	0.428536
C29	C	0.679216	-0.388460	0.378249
C30	C	1.134286	-0.597944	0.378220
C31	C	1.134322	-0.687565	0.378236
C32	C	1.134352	-0.760348	0.378251
C33	C	1.134398	-0.851656	0.378269
C34	C	1.134439	-0.924433	0.378279
C35	C	1.134484	-1.015747	0.378295
C36	C	1.339116	-0.388476	0.378274
C37	C	1.426366	-0.388486	0.378286
C38	C	1.134419	-0.388394	0.582989
C39	C	1.134439	-0.388369	0.670239
C40	C	1.134479	-0.178145	0.378287
C41	C	1.134524	-0.088523	0.378305
C42	C	1.134370	-0.388454	0.174297
C43	C	1.134501	-0.388253	0.087047
C44	C	1.184673	-0.336800	0.711248
C45	C	1.184683	-0.336773	0.793228
C46	C	1.134462	-0.388320	0.834198
C47	C	1.084222	-0.439891	0.793184
C48	C	1.084209	-0.439913	0.711205
C49	C	1.084254	-0.439843	0.964054
C50	C	1.084268	-0.439822	1.046039
C51	C	1.184727	-0.336702	1.046077
C52	C	1.184714	-0.336724	0.964098
C53	C	1.134476	-0.388297	0.923089
H54	H	0.686906	-0.295020	0.469488
H55	H	0.433907	-0.481927	0.287048
F56	F	0.423820	-0.282172	0.482099
H57	H	1.043371	-0.481794	1.079394
F58	F	0.593037	-0.282166	0.482083
H59	H	0.582639	-0.481908	0.287030
F60	F	1.030782	-0.494731	0.920411
F61	F	1.030770	-0.494748	0.836789
H62	H	0.835634	-0.295004	0.469467
F63	F	1.030742	-0.494798	0.667561
H64	H	1.225632	-0.294708	1.079471
H65	H	0.686757	-0.481900	0.287008
F66	F	0.845726	-0.494766	0.274425
H67	H	1.225572	-0.294827	0.677896
H68	H	1.225590	-0.294782	0.826614
H69	H	1.225613	-0.294755	0.930743
