data_functionalizedCrystal
_audit_creation_method	'MofGen! by Chris Wilmer'
_symmetry_space_group_name_H-M	'P1'
_symmetry_Int_Tables_number	1
_symmetry_cell_setting	triclinic
loop_
_symmetry_equiv_pos_as_xyz
  x,y,z
_cell_length_a	23.532361
_cell_length_b	23.532357
_cell_length_c	22.010155
_cell_angle_alpha	89.998697
_cell_angle_beta	89.995873
_cell_angle_gamma	82.828980
loop_
_atom_site_label
_atom_site_type_symbol
_atom_site_fract_x
_atom_site_fract_y
_atom_site_fract_z
O1	O	0.755269	0.069002	-0.050471
O2	O	0.589400	0.079033	-0.050487
O3	O	0.677351	-0.008917	-0.050466
O4	O	0.667317	0.156952	-0.050492
O5	O	0.677335	-0.008903	0.050584
O6	O	0.589384	0.079047	0.050563
O7	O	0.755253	0.069015	0.050579
Cu8	Cu	0.672317	0.074032	0.059798
Cu9	Cu	0.672336	0.074017	-0.059706
O10	O	0.667302	0.156966	0.050558
C11	C	0.568175	0.078789	0.000036
C12	C	0.504957	0.078034	0.000031
C13	C	0.231722	0.074723	-0.055047
C14	C	0.291122	0.075438	-0.055049
O15	O	0.321855	0.075782	-0.101894
N16	N	0.320819	0.075806	0.000034
C17	C	0.291114	0.075454	0.055122
O18	O	0.321828	0.075832	0.101974
C19	C	0.231716	0.074735	0.055123
C20	C	0.202021	0.074372	0.000036
C21	C	0.202028	0.074360	-0.110129
C22	C	0.142632	0.073646	-0.110127
C23	C	0.112931	0.073295	-0.055044
C24	C	0.142626	0.073658	0.000038
C25	C	0.202013	0.074378	0.110210
C26	C	0.142611	0.073659	0.110206
C27	C	0.112916	0.073296	0.055120
C28	C	0.053529	0.072594	0.055124
N29	N	0.023832	0.072225	0.000041
C30	C	0.053533	0.072576	-0.055043
C31	C	0.415854	0.076963	0.055115
C32	C	0.475250	0.077686	0.055115
C33	C	0.475254	0.077669	-0.055056
C34	C	0.415856	0.076950	-0.055055
C35	C	0.386157	0.076594	0.000033
C36	C	-0.071202	0.071078	-0.055035
C37	C	-0.130604	0.070366	-0.055028
C38	C	-0.130602	0.070380	0.055142
C39	C	-0.071206	0.071095	0.055136
C40	C	-0.041508	0.071441	0.000043
O41	O	0.022758	0.072247	0.101944
O42	O	0.022813	0.072190	-0.101887
C43	C	0.677092	-0.030127	0.000061
C44	C	0.676337	-0.093345	0.000066
C45	C	0.671609	-0.485363	-0.055049
C46	C	0.670892	-0.544762	-0.055053
O47	O	0.670509	-0.575484	-0.101899
N48	N	0.670527	-0.574466	0.000029
C49	C	0.670875	-0.544767	0.055118
O50	O	0.670498	-0.575486	0.101969
C51	C	0.671588	-0.485368	0.055121
C52	C	0.671958	-0.455668	0.000035
C53	C	0.671979	-0.455663	-0.110130
C54	C	0.672697	-0.396267	-0.110127
C55	C	0.673046	-0.366573	-0.055042
C56	C	0.672676	-0.396273	0.000039
C57	C	0.671931	-0.455669	0.110209
C58	C	0.672643	-0.396266	0.110207
C59	C	0.673014	-0.366566	0.055122
C60	C	0.673743	-0.307183	0.055127
N61	N	0.674108	-0.277479	0.000046
C62	C	0.673759	-0.307174	-0.055039
C63	C	0.669376	-0.669508	0.055107
C64	C	0.668667	-0.728906	0.055105
C65	C	0.668683	-0.728897	-0.055066
C66	C	0.669396	-0.669499	-0.055063
C67	C	0.669740	-0.639804	0.000026
C68	C	0.675268	-0.182440	-0.055027
C69	C	0.675988	-0.123040	-0.055018
C70	C	0.675969	-0.123054	0.055152
C71	C	0.675251	-0.182449	0.055144
C72	C	0.674899	-0.212140	0.000049
O73	O	0.674124	-0.276422	0.101949
O74	O	0.674128	-0.276446	-0.101882
C75	C	0.776477	0.069260	0.000054
C76	C	0.839695	0.070015	0.000056
C77	C	0.667560	0.178176	0.000030
C78	C	0.668315	0.241394	0.000020
N79	N	0.672308	0.074043	0.143850
N80	N	0.672349	0.074002	-0.143758
C81	C	0.711283	0.035078	0.563639
C82	C	0.711285	0.035074	0.627246
O83	O	0.744400	0.001952	0.660146
N84	N	0.672335	0.074005	0.659057
C85	C	0.633376	0.112938	0.627257
O86	O	0.600246	0.146051	0.660156
C87	C	0.633371	0.112939	0.563651
C88	C	0.672328	0.074009	0.531843
C89	C	0.750235	-0.003849	0.531831
C90	C	0.750233	-0.003844	0.468228
C91	C	0.711278	0.035087	0.436432
C92	C	0.672326	0.074014	0.468240
C93	C	0.594410	0.151869	0.531852
C94	C	0.594408	0.151866	0.468241
C95	C	0.633365	0.112937	0.436434
C96	C	0.633369	0.112951	0.372841
N97	N	0.672319	0.074020	0.341030
C98	C	0.711273	0.035088	0.372826
C99	C	0.633389	0.112933	0.760835
C100	C	0.633396	0.112935	0.824440
C101	C	0.711304	0.035070	0.824425
C102	C	0.711299	0.035071	0.760819
C103	C	0.672339	0.074002	0.729024
C104	C	0.711266	0.035101	0.239255
C105	C	0.711262	0.035111	0.175646
C106	C	0.633352	0.112974	0.175667
C107	C	0.633358	0.112967	0.239270
C108	C	0.672317	0.074026	0.271062
O109	O	0.600269	0.146054	0.339902
O110	O	0.744393	0.001976	0.339920
H111	H	0.118460	0.073348	-0.154984
N112	N	-0.040862	0.071429	-0.111305
N113	N	-0.002231	0.031675	-0.123597
H114	H	0.019197	0.031925	-0.163338
H115	H	0.742987	0.003410	0.149750
H116	H	-0.154778	0.070073	-0.099888
H117	H	0.676256	-0.098866	0.100001
N118	N	0.385508	0.076606	0.111384
N119	N	0.357850	0.036058	0.123689
H120	H	0.336419	0.035805	0.163428
N121	N	-0.040878	0.071462	0.111408
N122	N	-0.002253	0.031708	0.123716
H123	H	0.019162	0.031964	0.163462
H124	H	0.226204	0.074643	-0.154988
N125	N	0.112266	0.073293	0.166473
N126	N	0.084607	0.032744	0.178771
H127	H	0.063175	0.032486	0.218508
H128	H	0.781957	-0.035554	0.557713
N129	N	0.385535	0.076580	-0.111329
N130	N	0.412068	0.076896	-0.160504
H131	H	0.390657	0.076634	-0.200251
N132	N	0.593559	0.152729	0.271758
N133	N	0.540926	0.152218	0.264652
H134	H	0.512813	0.180296	0.287594
N135	N	0.232341	0.074747	0.166477
N136	N	0.259997	0.115295	0.178778
H137	H	0.281416	0.115554	0.218520
N138	N	0.593587	0.152709	0.728370
N139	N	0.558816	0.187463	0.756786
H140	H	0.530705	0.215555	0.733861
H141	H	0.499448	0.077954	-0.099908
H142	H	0.671693	-0.479834	-0.154989
N143	N	0.505568	0.078070	0.111390
N144	N	0.479034	0.077761	0.160565
H145	H	0.500444	0.078030	0.200312
N146	N	0.669748	-0.639181	0.111383
N147	N	0.710299	-0.611528	0.123682
H148	H	0.710562	-0.590112	0.163427
N149	N	-0.160945	0.070008	0.111407
N150	N	-0.148828	0.029936	0.148290
H151	H	-0.170258	0.029668	0.188028
N152	N	0.671558	-0.485989	0.166484
N153	N	0.671867	-0.459457	0.215657
H154	H	0.671604	-0.480869	0.255405
H155	H	0.676291	-0.098861	-0.099877
H156	H	0.562688	0.183569	0.557741
H157	H	0.742990	0.003391	0.265133
H158	H	0.674978	-0.206607	-0.099890
N159	N	0.673073	-0.365943	-0.166401
N160	N	0.672759	-0.392473	-0.215575
H161	H	0.673022	-0.371059	-0.255322
H162	H	0.781953	-0.035545	0.442334
N163	N	0.668288	-0.759249	0.111368
N164	N	0.667644	-0.812282	0.111366
H165	H	0.667373	-0.833711	0.151103
N166	N	0.672989	-0.365943	0.166486
N167	N	0.672656	-0.392473	0.215660
H168	H	0.672900	-0.371059	0.255407
N169	N	0.669777	-0.639173	-0.111336
N170	N	0.669469	-0.665701	-0.160512
H171	H	0.669738	-0.644286	-0.200258
N172	N	0.751067	-0.004727	0.728340
N173	N	0.785825	-0.039500	0.756744
H174	H	0.813902	-0.067621	0.733810
N175	N	0.668311	-0.759237	-0.111333
N176	N	0.628242	-0.747121	-0.148218
H177	H	0.627979	-0.768551	-0.187954
H178	H	0.674955	-0.206633	0.099999
H179	H	0.743023	0.003369	0.850325
N180	N	0.593608	0.152713	0.856918
N181	N	0.558833	0.187470	0.828514
H182	H	0.530729	0.215564	0.851448
N183	N	0.554604	0.191637	0.435775
N184	N	0.519827	0.226388	0.464187
H185	H	0.491716	0.254477	0.441259
N186	N	0.593569	0.152739	0.143172
N187	N	0.593576	0.152731	0.086381
H188	H	0.565477	0.180812	0.063430
