data_functionalizedCrystal
_audit_creation_method	'MofGen! by Chris Wilmer'
_symmetry_space_group_name_H-M	'P1'
_symmetry_Int_Tables_number	1
_symmetry_cell_setting	triclinic
loop_
_symmetry_equiv_pos_as_xyz
  x,y,z
_cell_length_a	13.262390
_cell_length_b	11.792241
_cell_length_c	10.868271
_cell_angle_alpha	90.001559
_cell_angle_beta	105.921648
_cell_angle_gamma	84.317877
loop_
_atom_site_label
_atom_site_type_symbol
_atom_site_fract_x
_atom_site_fract_y
_atom_site_fract_z
O1	O	1.393573	0.152851	0.568700
O2	O	1.088078	0.169478	0.466464
O3	O	1.248239	-0.004021	0.520054
O4	O	1.233412	0.326349	0.515110
O5	O	1.248224	-0.004015	0.315405
O6	O	1.088063	0.169484	0.261815
O7	O	1.393559	0.152856	0.364050
Zn8	Zn	1.240809	0.161171	0.280440
Zn9	Zn	1.240828	0.161163	0.550075
O10	O	1.233397	0.326355	0.310460
C11	C	1.048960	0.168550	0.351051
C12	C	0.932424	0.165762	0.312052
C13	C	0.603968	0.157876	0.648355
C14	C	0.713460	0.160490	0.684999
C15	C	0.768206	0.161809	0.591766
C16	C	0.713450	0.160512	0.461881
C17	C	0.603948	0.157889	0.425234
C18	C	0.768187	0.161822	0.368644
C19	C	0.713430	0.160526	0.238760
C20	C	0.603939	0.157904	0.202119
C21	C	0.549193	0.156585	0.295353
C22	C	0.877688	0.164445	0.405292
C23	C	0.877668	0.164458	0.182170
C24	C	0.768176	0.161844	0.145526
C25	C	1.247300	-0.046307	0.417418
C26	C	1.244513	-0.172315	0.416487
C27	C	1.239387	-0.403018	0.414792
C28	C	1.242235	-0.274638	0.415734
C29	C	1.432676	0.153784	0.479466
C30	C	1.549213	0.156572	0.518474
C31	C	1.234336	0.368641	0.413099
C32	C	1.237124	0.494649	0.414039
N33	N	1.240803	0.161175	0.096424
C34	C	1.240811	0.161175	-0.014911
C35	C	1.240825	0.161165	-0.154584
N36	N	1.240842	0.161150	0.734093
H37	H	0.758036	0.161539	0.790751
H38	H	0.857360	0.163938	0.621609
H39	H	0.922260	0.165502	0.511044
C40	C	0.543649	0.156958	0.059236
H41	H	0.470582	0.155347	0.050760
H42	H	0.554111	0.223649	0.017246
H43	H	0.569036	0.091419	0.021552
C44	C	0.543748	0.156424	0.750895
H45	H	0.470694	0.154682	0.710464
H46	H	0.569323	0.090744	0.805287
H47	H	0.554060	0.222968	0.800188
H48	H	0.723578	0.160788	0.039772
H49	H	0.460035	0.154461	0.265523
H50	H	0.922243	0.165530	0.106251
