data_functionalizedCrystal
_audit_creation_method	'MofGen! by Chris Wilmer'
_symmetry_space_group_name_H-M	'P1'
_symmetry_Int_Tables_number	1
_symmetry_cell_setting	triclinic
loop_
_symmetry_equiv_pos_as_xyz
  x,y,z
_cell_length_a	19.121241
_cell_length_b	19.121063
_cell_length_c	14.908308
_cell_angle_alpha	95.554627
_cell_angle_beta	90.695553
_cell_angle_gamma	95.003121
loop_
_atom_site_label
_atom_site_type_symbol
_atom_site_fract_x
_atom_site_fract_y
_atom_site_fract_z
Zn1	Zn	1.036454	-0.261590	-0.581287
Zn2	Zn	1.536454	0.238410	-0.081287
Zn3	Zn	1.038135	-0.372478	-0.436588
Zn4	Zn	1.538135	0.127522	0.063412
Zn5	Zn	0.926158	-0.259259	-0.424264
Zn6	Zn	1.426158	0.240741	0.075736
Zn7	Zn	0.913733	-0.384226	-0.581210
Zn8	Zn	1.413733	0.115774	-0.081210
O9	O	0.978620	-0.319389	-0.505838
O10	O	1.478620	0.180611	-0.005838
O11	O	1.134899	-0.272359	-0.567282
O12	O	1.634899	0.227641	-0.067282
O13	O	1.029185	-0.351568	-0.308714
O14	O	1.529185	0.148432	0.191286
O15	O	0.945285	-0.160862	-0.439968
O16	O	1.445285	0.339138	0.060032
O17	O	1.136135	-0.353828	-0.460973
O18	O	1.636135	0.146172	0.039027
O19	O	1.026320	-0.162575	-0.555332
O20	O	1.526320	0.337425	-0.055332
O21	O	0.946915	-0.268386	-0.299660
O22	O	1.446915	0.231614	0.200340
O23	O	0.826288	-0.279778	-0.439894
O24	O	1.326288	0.220222	0.060106
O25	O	0.924109	-0.373850	-0.707460
O26	O	1.424109	0.126150	-0.207460
O27	O	0.817159	-0.371590	-0.555201
O28	O	1.317159	0.128410	-0.055201
O29	O	1.014272	-0.283750	-0.707516
O30	O	1.514272	0.216250	-0.207516
O31	O	1.017137	-0.472743	-0.460898
O32	O	1.517137	0.027257	0.039102
O33	O	0.925739	-0.481374	-0.567151
O34	O	1.425739	0.018626	-0.067151
C35	C	0.796256	-0.326706	-0.496203
C36	C	1.296256	0.173294	0.003797
C37	C	0.718237	-0.329855	-0.492103
C38	C	1.218237	0.170145	0.007897
C39	C	0.680935	-0.288993	-0.545619
C40	C	1.180935	0.211007	-0.045619
C41	C	0.607629	-0.291948	-0.541759
C42	C	1.107629	0.208052	-0.041759
C43	C	0.571627	-0.335768	-0.484387
C44	C	1.071627	0.164232	0.015613
C45	C	0.608935	-0.376631	-0.430866
C46	C	1.108935	0.123369	0.069134
C47	C	0.682240	-0.373673	-0.434721
C48	C	1.182240	0.126327	0.065279
C49	C	0.350326	-0.346817	-0.469967
C50	C	0.850326	0.153183	0.030033
C51	C	0.277016	-0.349774	-0.466117
C52	C	0.777016	0.150226	0.033883
C53	C	0.275715	-0.265089	-0.577009
C54	C	0.775715	0.234911	-0.077009
C55	C	0.349021	-0.262137	-0.580864
C56	C	0.849021	0.237863	-0.080864
C57	C	0.386323	-0.302998	-0.527339
C58	C	0.886323	0.197002	-0.027339
C59	C	0.496696	-0.338791	-0.480442
C60	C	0.996696	0.161209	0.019558
C61	C	0.461253	-0.299971	-0.531280
C62	C	0.961253	0.200029	-0.031280
C63	C	0.970290	-0.502652	-0.515374
C64	C	1.470290	-0.002652	-0.015374
C65	C	0.966790	-0.581052	-0.519488
C66	C	1.466790	-0.081052	-0.019488
C67	C	1.012764	-0.613368	-0.466150
C68	C	1.512764	-0.113368	0.033850
C69	C	1.009475	-0.687033	-0.470024
C70	C	1.509475	-0.187033	0.029976
C71	C	0.960209	-0.728381	-0.527232
C72	C	1.460209	-0.228381	-0.027232
C73	C	0.914233	-0.696060	-0.580577
C74	C	1.414233	-0.196060	-0.080577
C75	C	0.917525	-0.622396	-0.576706
C76	C	1.417525	-0.122396	-0.076706
C77	C	0.947889	-0.951024	-0.541687
C78	C	1.447889	-0.451024	-0.041687
C79	C	0.944598	-1.024693	-0.545551
C80	C	1.444598	-0.524693	-0.045551
C81	C	1.039842	-1.015661	-0.434999
C82	C	1.539842	-0.515661	0.065001
C83	C	1.043127	-0.941996	-0.431130
C84	C	1.543127	-0.441996	0.068870
C85	C	0.997154	-0.909681	-0.484478
C86	C	1.497154	-0.409681	0.015522
C87	C	0.956845	-0.803679	-0.531192
C88	C	1.456845	-0.303679	-0.031192
C89	C	1.000521	-0.834385	-0.480523
C90	C	1.500521	-0.334385	0.019477
C91	C	1.161697	-0.312043	-0.515511
C92	C	1.661697	0.187957	-0.015511
C93	C	1.239713	-0.308913	-0.519633
C94	C	1.739713	0.191087	-0.019633
C95	C	0.967617	-0.330371	-0.741136
C96	C	1.467617	0.169629	-0.241136
C97	C	0.962928	-0.335051	-0.841406
C98	C	1.462928	0.164949	-0.341406
C99	C	0.987001	-0.135410	-0.496284
C100	C	1.487001	0.364590	0.003716
C101	C	0.990572	-0.057009	-0.492213
C102	C	1.490572	0.442991	0.007787
C103	C	1.048002	-0.250007	-1.029884
C104	C	1.548002	0.249993	-0.529884
C105	C	1.043599	-0.254402	-1.124097
C106	C	1.543599	0.245598	-0.624097
C107	C	0.949715	-0.348231	-1.124046
C108	C	1.449715	0.151769	-0.624046
C109	C	0.954118	-0.343836	-1.029833
C110	C	1.454118	0.156164	-0.529833
C111	C	1.003264	-0.294723	-0.982756
C112	C	1.503264	0.205277	-0.482756
C113	C	1.007670	-0.290333	-0.888541
C114	C	1.507670	0.209667	-0.388541
C115	C	0.913784	-0.384158	-0.888492
C116	C	1.413784	0.115842	-0.388492
C117	C	0.909381	-0.388552	-0.982705
C118	C	1.409381	0.111448	-0.482705
C119	C	0.989623	-0.308397	-0.271454
C120	C	1.489623	0.191603	0.228546
C121	C	0.994457	-0.303513	-0.171181
C122	C	1.494457	0.196487	0.328819
H123	H	0.247705	-0.385462	-0.419398
H124	H	0.747705	0.114538	0.080602
H125	H	1.088022	-0.210021	-0.991553
H126	H	1.588022	0.289979	-0.491553
O127	O	1.091854	-0.206177	-1.174933
O128	O	1.591854	0.293823	-0.674933
H129	H	1.126770	-0.171294	-1.126366
H130	H	1.626770	0.328706	-0.626366
H131	H	0.710242	-0.253312	-0.592339
H132	H	1.210242	0.246688	-0.092339
O133	O	1.053658	-0.789789	-0.418825
O134	O	1.553658	-0.289789	0.081175
H135	H	1.085080	-0.824632	-0.382384
H136	H	1.585080	-0.324632	0.117616
O137	O	0.896700	-0.401188	-1.174827
O138	O	1.396700	0.098812	-0.674827
H139	H	0.901154	-0.396727	-1.248256
H140	H	1.401154	0.103273	-0.748256
H141	H	1.083243	-0.908332	-0.384547
H142	H	1.583243	-0.408332	0.115453
H143	H	0.877357	-0.420571	-0.850110
H144	H	1.377357	0.079429	-0.350110
H145	H	0.869366	-0.428537	-1.021048
H146	H	1.369366	0.071463	-0.521048
H147	H	0.245336	-0.231822	-0.620585
H148	H	0.745336	0.268178	-0.120585
O149	O	0.567392	-0.247875	-0.599477
O150	O	1.067392	0.252125	-0.099477
H151	H	0.604741	-0.216914	-0.640026
H152	H	1.104741	0.283086	-0.140026
H153	H	1.077272	-1.041979	-0.391568
H154	H	1.577272	-0.541979	0.108432
H155	H	0.904487	-1.058357	-0.592153
H156	H	1.404487	-0.558357	-0.092153
O157	O	1.060679	-0.237364	-0.837766
O158	O	1.560679	0.262636	-0.337766
H159	H	1.056233	-0.241825	-0.764336
H160	H	1.556233	0.258175	-0.264336
O161	O	0.722474	-0.417744	-0.376996
O162	O	1.222474	0.082256	0.123004
H163	H	0.779496	-0.408318	-0.389306
H164	H	1.279496	0.091682	0.110694
O165	O	0.387854	-0.214863	-0.642729
O166	O	0.887854	0.285137	-0.142729
H167	H	0.349599	-0.186937	-0.679285
H168	H	0.849599	0.313063	-0.179285
H169	H	0.880089	-0.596085	-0.620141
H170	H	1.380089	-0.096085	-0.120141
H171	H	0.380689	-0.380089	-0.426384
H172	H	0.880689	0.119911	0.073616
O173	O	1.065910	-0.568780	-0.404451
O174	O	1.565910	-0.068780	0.095549
H175	H	1.101202	-0.535629	-0.444993
H176	H	1.601202	-0.035629	0.055007
O177	O	0.500077	-0.252704	-0.593156
O178	O	1.000077	0.247296	-0.093156
H179	H	0.529901	-0.285124	-0.642390
H180	H	1.029901	0.214876	-0.142390
O181	O	0.570105	-0.423894	-0.368985
O182	O	1.070105	0.076106	0.131015
H183	H	0.588022	-0.407833	-0.298314
H184	H	1.088022	0.092167	0.201686
H185	H	1.046911	-0.713341	-0.426590
H186	H	1.546911	-0.213341	0.073410
O187	O	0.457865	-0.386054	-0.418563
O188	O	0.957865	0.113946	0.081437
H189	H	0.420960	-0.425218	-0.458980
H190	H	0.920960	0.074782	0.041020
H191	H	0.910454	-0.924720	-0.585123
H192	H	1.410454	-0.424720	-0.085123
H193	H	0.874122	-0.729731	-0.627161
H194	H	1.374122	-0.229731	-0.127161
H195	H	0.916731	-0.837352	-0.577769
H196	H	1.416731	-0.337352	-0.077769
