data_functionalizedCrystal
_audit_creation_method	'MofGen! by Chris Wilmer'
_symmetry_space_group_name_H-M	'P1'
_symmetry_Int_Tables_number	1
_symmetry_cell_setting	triclinic
loop_
_symmetry_equiv_pos_as_xyz
  x,y,z
_cell_length_a	23.532355
_cell_length_b	23.532407
_cell_length_c	10.868271
_cell_angle_alpha	89.990218
_cell_angle_beta	90.001502
_cell_angle_gamma	82.838088
loop_
_atom_site_label
_atom_site_type_symbol
_atom_site_fract_x
_atom_site_fract_y
_atom_site_fract_z
O1	O	0.755278	0.068994	-0.102167
O2	O	0.589411	0.079029	-0.102208
O3	O	0.677346	-0.008921	-0.102164
O4	O	0.667343	0.156944	-0.102212
O5	O	0.677339	-0.008924	0.102481
O6	O	0.589404	0.079025	0.102436
O7	O	0.755271	0.068991	0.102477
Zn8	Zn	0.672336	0.074008	0.134949
Zn9	Zn	0.672346	0.074012	-0.134680
O10	O	0.667336	0.156941	0.102433
C11	C	0.568191	0.078776	0.000109
C12	C	0.504972	0.078022	0.000095
C13	C	0.112954	0.073282	0.111699
C14	C	0.053555	0.072565	0.111704
O15	O	0.022833	0.072173	0.206574
N16	N	0.023850	0.072211	0.000153
C17	C	0.053549	0.072568	-0.111411
O18	O	0.022829	0.072201	-0.206293
C19	C	0.112948	0.073282	-0.111414
C20	C	0.142649	0.073641	0.000144
C21	C	0.142655	0.073641	0.223249
C22	C	0.202050	0.074360	0.223243
C23	C	0.231745	0.074719	0.111688
C24	C	0.202044	0.074360	0.000139
C25	C	0.142646	0.073635	-0.222977
C26	C	0.202049	0.074348	-0.222971
C27	C	0.231750	0.074708	-0.111412
C28	C	0.291133	0.075438	-0.111421
N29	N	0.320838	0.075792	0.000130
C30	C	0.291144	0.075432	0.111685
C31	C	-0.071192	0.071069	-0.111394
C32	C	-0.130591	0.070360	-0.111392
C33	C	-0.130581	0.070355	0.111723
C34	C	-0.071182	0.071069	0.111720
C35	C	-0.041488	0.071423	0.000157
C36	C	0.415878	0.076942	0.111665
C37	C	0.475278	0.077663	0.111650
C38	C	0.475263	0.077664	-0.111465
C39	C	0.415868	0.076947	-0.111450
C40	C	0.386177	0.076583	0.000124
O41	O	0.321893	0.075828	-0.206242
O42	O	0.321872	0.075792	0.206551
C43	C	0.677088	-0.030139	0.000161
C44	C	0.676322	-0.093356	0.000171
C45	C	0.723557	-0.492468	0.000115
C46	C	0.722845	-0.551868	0.000105
O47	O	0.766632	-0.588620	0.000071
N48	N	0.670568	-0.574484	0.000093
C49	C	0.618998	-0.537697	0.000078
O50	O	0.574467	-0.562388	0.000066
C51	C	0.619710	-0.478298	0.000079
C52	C	0.671991	-0.455685	0.000104
C53	C	0.775834	-0.469854	0.000138
C54	C	0.776545	-0.410458	0.000150
C55	C	0.724979	-0.373676	0.000139
C56	C	0.672703	-0.396289	0.000115
C57	C	0.568141	-0.441512	0.000055
C58	C	0.568858	-0.382110	0.000055
C59	C	0.621139	-0.359497	0.000080
C60	C	0.621848	-0.300110	0.000116
N61	N	0.674126	-0.277494	0.000128
C62	C	0.725691	-0.314277	0.000139
C63	C	0.617507	-0.662439	0.000075
C64	C	0.616794	-0.721837	0.000083
C65	C	0.720642	-0.736004	0.000108
C66	C	0.721354	-0.676605	0.000108
C67	C	0.669784	-0.639823	0.000087
C68	C	0.727181	-0.189540	0.000165
C69	C	0.727888	-0.130138	0.000182
C70	C	0.624041	-0.115977	0.000151
C71	C	0.623334	-0.175373	0.000140
C72	C	0.674909	-0.212154	0.000143
O73	O	0.578084	-0.263323	0.000145
O74	O	0.770216	-0.289577	0.000135
C75	C	0.776492	0.069244	0.000157
C76	C	0.839710	0.069998	0.000164
C77	C	0.667594	0.178158	0.000105
C78	C	0.668360	0.241375	0.000088
N79	N	0.672334	0.074004	0.318963
N80	N	0.672353	0.074011	-0.318694
C81	C	0.672343	0.074011	0.569969
C82	C	0.672336	0.074009	0.430291
H83	H	-0.154768	0.070062	0.202558
Cl84	Cl	0.840668	-0.516085	0.000154
Cl85	Cl	0.785467	-0.782256	0.000113
Cl86	Cl	0.787081	-0.648184	0.000137
H87	H	0.226228	0.074649	0.314086
Cl88	Cl	0.239375	0.074793	-0.363230
Cl89	Cl	-0.033850	0.071519	0.251970
H90	H	0.819117	-0.392053	0.000165
Cl91	Cl	-0.167923	0.069919	-0.251643
Cl92	Cl	0.105336	0.073193	0.363509
H93	H	0.499457	0.077957	0.202498
Cl94	Cl	-0.033870	0.071522	-0.251659
H95	H	0.770463	-0.111731	0.000205
H96	H	0.391710	0.076651	0.202520
H97	H	0.574222	-0.740243	0.000084
H98	H	0.118474	0.073342	-0.313820
H99	H	0.525569	-0.459912	0.000028
Cl100	Cl	0.557608	-0.203802	0.000133
Cl101	Cl	0.378527	0.076504	-0.251697
Cl102	Cl	0.552670	-0.616204	0.000062
H103	H	0.499450	0.077959	-0.202290
Cl104	Cl	0.504024	-0.335872	0.000027
H105	H	0.769178	-0.219481	0.000163
Cl106	Cl	0.559219	-0.069725	0.000134
