data_functionalizedCrystal
_audit_creation_method	'MofGen! by Chris Wilmer'
_symmetry_space_group_name_H-M	'P1'
_symmetry_Int_Tables_number	1
_symmetry_cell_setting	triclinic
loop_
_symmetry_equiv_pos_as_xyz
  x,y,z
_cell_length_a	14.853559
_cell_length_b	27.732064
_cell_length_c	13.330367
_cell_angle_alpha	89.999195
_cell_angle_beta	89.992841
_cell_angle_gamma	83.140439
loop_
_atom_site_label
_atom_site_type_symbol
_atom_site_fract_x
_atom_site_fract_y
_atom_site_fract_z
O1	O	0.107328	0.641425	0.083240
O2	O	0.123623	0.500708	0.083281
O3	O	-0.015815	0.574827	0.083258
O4	O	0.246767	0.567305	0.083263
O5	O	-0.015793	0.574816	-0.083589
O6	O	0.123646	0.500697	-0.083566
O7	O	0.107351	0.641413	-0.083607
Cu8	Cu	0.115500	0.571054	-0.098821
Cu9	Cu	0.115474	0.571067	0.098495
O10	O	0.246789	0.567294	-0.083585
C11	C	0.123290	0.482694	-0.000138
C12	C	0.122253	0.429035	-0.000122
C13	C	0.032793	0.051545	-0.000181
C14	C	0.036610	0.253223	-0.000154
O15	O	-0.032808	0.284152	-0.000193
N16	N	0.119294	0.272736	-0.000149
C17	C	0.201030	0.241826	-0.000156
O18	O	0.271446	0.263050	-0.000161
C19	C	0.197213	0.040149	-0.000189
C20	C	0.114523	0.020639	-0.000185
C21	C	-0.049890	0.032035	-0.000177
C22	C	-0.050843	-0.018382	-0.000178
C23	C	0.030887	-0.049288	-0.000183
C24	C	0.113570	-0.029778	-0.000186
C25	C	0.278948	0.009240	-0.000204
C26	C	0.277987	-0.041182	-0.000215
C27	C	0.195297	-0.060692	-0.000210
C28	C	0.194347	-0.111100	-0.000191
N29	N	0.111662	-0.130613	-0.000197
C30	C	0.029932	-0.099707	-0.000193
C31	C	0.203029	0.347710	-0.000136
C32	C	0.203983	0.398129	-0.000126
C33	C	0.039562	0.409523	-0.000127
C34	C	0.038608	0.359103	-0.000130
C35	C	0.120344	0.328197	-0.000142
C36	C	0.027937	-0.205586	-0.000194
C37	C	0.026991	-0.256007	-0.000191
C38	C	0.191412	-0.267397	-0.000196
C39	C	0.192358	-0.216980	-0.000194
C40	C	0.110613	-0.186075	-0.000196
O41	O	0.263728	-0.142058	-0.000164
O42	O	-0.040473	-0.120941	-0.000210
C43	C	0.033747	0.101962	-0.000179
C44	C	0.116430	0.121472	-0.000183
C45	C	0.198160	0.090566	-0.000187
C46	C	0.117384	0.171891	-0.000173
C47	C	0.035654	0.202797	-0.000168
C48	C	-0.047030	0.183285	-0.000174
C49	C	-0.047983	0.132868	-0.000175
C50	C	0.280844	0.110079	-0.000181
C51	C	0.281791	0.160496	-0.000179
C52	C	0.200061	0.191402	-0.000175
C53	C	-0.049387	0.574482	-0.000163
C54	C	-0.149455	0.573462	-0.000157
C55	C	-0.572572	0.569145	0.090792
C56	C	-0.572543	0.569133	-0.091111
C57	C	-0.478525	0.570094	-0.091112
C58	C	-0.431526	0.570581	-0.000159
C59	C	-0.478545	0.570105	0.090794
C60	C	-0.431498	0.570565	-0.182064
C61	C	-0.337474	0.571526	-0.182069
C62	C	-0.290474	0.572015	-0.091115
C63	C	-0.337500	0.571541	-0.000158
C64	C	-0.290501	0.572027	0.090795
C65	C	-0.337525	0.571556	0.181753
C66	C	-0.431546	0.570595	0.181748
C67	C	-0.196454	0.572976	-0.091110
C68	C	-0.196474	0.572987	0.090796
C69	C	0.280361	0.567640	-0.000161
C70	C	0.380429	0.568659	-0.000160
C71	C	0.107684	0.659427	-0.000186
C72	C	0.108721	0.713086	-0.000195
N73	N	0.115518	0.571048	-0.237603
C74	C	0.169763	0.600423	-0.710223
C75	C	0.061148	0.541726	-0.710196
C76	C	0.061162	0.541719	-0.605178
C77	C	0.115477	0.571065	-0.552677
C78	C	0.169777	0.600418	-0.605195
C79	C	0.006856	0.512370	-0.552652
C80	C	0.006867	0.512362	-0.447627
C81	C	0.061187	0.541706	-0.395125
C82	C	0.115490	0.571060	-0.447649
C83	C	0.169805	0.600406	-0.395148
C84	C	0.224113	0.629758	-0.447671
C85	C	0.224097	0.629762	-0.552692
C86	C	0.061204	0.541702	-0.290103
C87	C	0.169818	0.600401	-0.290120
N88	N	0.115449	0.571077	0.237276
H89	H	-0.116448	0.057194	-0.000177
C90	C	-0.285825	0.572090	0.281797
H91	H	-0.327290	0.571669	0.335969
H92	H	-0.256407	0.600627	0.285564
H93	H	-0.241885	0.544295	0.285582
C94	C	-0.144779	0.573524	0.190843
H95	H	-0.082049	0.574166	0.177821
H96	H	-0.152929	0.545207	0.228228
H97	H	-0.167460	0.601540	0.228197
H98	H	-0.469770	0.570166	-0.256112
H99	H	0.257954	-0.292570	-0.000194
C100	C	-0.141800	-0.039839	-0.000178
H101	H	-0.130675	-0.074293	-0.000173
H102	H	-0.175415	-0.029230	-0.058358
H103	H	-0.175422	-0.029233	0.058016
H104	H	0.016984	0.517806	-0.247344
H105	H	0.268332	0.653654	-0.404911
C106	C	-0.483272	0.570070	0.281790
H107	H	-0.545997	0.569423	0.268760
H108	H	-0.475141	0.598394	0.319159
H109	H	-0.460598	0.542061	0.319162
H110	H	-0.610814	0.568734	-0.165160
H111	H	-0.610864	0.568763	0.164848
H112	H	0.016922	0.517837	-0.752948
C113	C	-0.285757	0.572051	-0.282116
H114	H	-0.327216	0.571627	-0.336283
H115	H	-0.241807	0.544263	-0.285895
H116	H	-0.256354	0.600595	-0.285900
C117	C	-0.144730	0.573493	-0.191150
H118	H	-0.186187	0.573067	-0.245318
H119	H	-0.100783	0.545704	-0.194918
H120	H	-0.115323	0.602036	-0.194943
H121	H	0.259691	-0.201094	-0.000196
C122	C	0.229562	0.632685	-0.232377
H123	H	0.261895	0.650167	-0.278701
H124	H	0.271309	0.612905	-0.191416
H125	H	0.192330	0.654907	-0.191402
C126	C	-0.136933	0.217286	-0.000166
H127	H	-0.186321	0.198449	-0.000160
H128	H	-0.139967	0.237193	-0.058346
H129	H	-0.139977	0.237188	0.058027
C130	C	0.283827	0.662048	-0.610463
H131	H	0.316185	0.679521	-0.564157
H132	H	0.246594	0.684270	-0.651418
H133	H	0.325567	0.642265	-0.651447
C134	C	-0.063971	-0.277465	-0.000192
H135	H	-0.112508	-0.251835	-0.000201
H136	H	-0.067772	-0.296898	0.057989
H137	H	-0.067754	-0.296895	-0.058385
H138	H	0.213983	0.624319	-0.752991
H139	H	-0.037371	0.488482	-0.595406
C140	C	-0.052860	0.480073	-0.389862
H141	H	-0.085203	0.462594	-0.436172
H142	H	-0.094597	0.499848	-0.348871
H143	H	-0.015616	0.457847	-0.348914
H144	H	-0.038627	-0.180428	-0.000196
H145	H	-0.026986	0.434695	-0.000119
C146	C	-0.052349	0.337646	-0.000135
H147	H	-0.100883	0.363278	-0.000136
H148	H	-0.056151	0.318211	0.058042
H149	H	-0.056136	0.318220	-0.058332
H150	H	0.269592	0.322550	-0.000145
C151	C	0.294941	0.419584	-0.000121
H152	H	0.343476	0.393952	-0.000135
H153	H	0.298733	0.439014	0.058064
H154	H	0.298738	0.439016	-0.058310
H155	H	0.346283	0.025115	-0.000203
H156	H	0.344547	-0.066344	-0.000230
H157	H	-0.115318	0.116988	-0.000172
H158	H	0.349131	0.176375	-0.000175
H159	H	0.347400	0.084919	-0.000186
