data_functionalizedCrystal
_audit_creation_method	'MofGen! by Chris Wilmer'
_symmetry_space_group_name_H-M	'P1'
_symmetry_Int_Tables_number	1
_symmetry_cell_setting	triclinic
loop_
_symmetry_equiv_pos_as_xyz
  x,y,z
_cell_length_a	19.121063
_cell_length_b	18.101398
_cell_length_c	19.121277
_cell_angle_alpha	92.428224
_cell_angle_beta	85.243870
_cell_angle_gamma	87.535511
loop_
_atom_site_label
_atom_site_type_symbol
_atom_site_fract_x
_atom_site_fract_y
_atom_site_fract_z
Zn1	Zn	-0.297309	-1.100230	0.409876
Zn2	Zn	-0.409926	-1.100162	0.297225
Zn3	Zn	-0.292269	-0.981937	0.292216
Zn4	Zn	-0.414927	-0.970833	0.414835
O5	O	-0.353608	-1.038291	0.353538
O6	O	-0.312265	-1.203853	0.394953
O7	O	-0.390117	-1.089098	0.198100
O8	O	-0.194474	-1.002304	0.303652
O9	O	-0.395004	-1.203802	0.312189
O10	O	-0.198177	-1.089214	0.390096
O11	O	-0.303675	-1.002238	0.194420
O12	O	-0.308523	-0.876833	0.308461
O13	O	-0.403527	-0.983379	0.512638
O14	O	-0.398640	-0.868674	0.398549
O15	O	-0.317113	-1.078447	0.508994
O16	O	-0.509053	-1.078331	0.316998
O17	O	-0.512727	-0.983313	0.403406
C18	C	-0.353578	-0.845883	0.353500
C19	C	-0.353583	-0.763569	0.353501
C20	C	-0.536421	-1.029629	0.361299
C21	C	-0.614631	-1.025990	0.364643
C22	C	-0.361440	-1.029682	0.537060
C23	C	-0.364778	-1.026014	0.615266
C24	C	-0.649439	-1.073786	0.321263
C25	C	-0.722925	-1.070368	0.324412
C26	C	-0.761602	-1.019150	0.370937
C27	C	-0.726788	-0.971351	0.414321
C28	C	-0.653303	-0.974774	0.411176
C29	C	-0.983575	-1.006343	0.382687
C30	C	-1.057065	-1.002923	0.385828
C31	C	-1.053197	-1.101941	0.295919
C32	C	-0.979711	-1.105356	0.292775
C33	C	-0.944904	-1.057560	0.336162
C34	C	-0.836716	-1.015653	0.374155
C35	C	-0.869791	-1.061061	0.332946
C36	C	-0.170081	-1.047005	0.345762
C37	C	-0.091873	-1.050719	0.342449
C38	C	-0.353639	-1.231449	0.353577
C39	C	-0.353652	-1.313762	0.353593
C40	C	-0.353629	-0.464473	0.353562
C41	C	-0.296670	-0.500906	0.297135
C42	C	-0.296807	-0.586529	0.296911
C43	C	-0.353605	-0.612858	0.353532
C44	C	-0.426856	-0.579223	0.336429
C45	C	-0.426536	-0.493610	0.336039
C46	C	-0.337987	-0.493458	0.427247
C47	C	-0.336319	-0.579205	0.426771
C48	C	-0.353597	-0.696718	0.353516
C49	C	-0.353643	-0.380612	0.353577
C50	C	-0.321357	-1.073784	0.650112
C51	C	-0.324490	-1.070329	0.723594
C52	C	-0.371048	-1.019105	0.762231
C53	C	-0.414471	-0.971329	0.727380
C54	C	-0.411333	-0.974782	0.653898
C55	C	-0.382768	-1.006201	0.984192
C56	C	-0.385904	-1.002753	1.057679
C57	C	-0.295922	-1.101752	1.053888
C58	C	-0.292792	-1.105203	0.980406
C59	C	-0.336212	-1.057425	0.945561
C60	C	-0.374254	-1.015573	0.837342
C61	C	-0.333002	-1.060954	0.870451
C62	C	-0.345822	-1.046858	1.170731
C63	C	-0.342483	-1.050524	1.092525
H64	H	-0.617953	-1.115491	0.283374
H65	H	-0.285670	-0.473505	0.443406
H66	H	-0.283446	-1.115498	0.618659
H67	H	-1.088554	-0.961223	0.423727
H68	H	-1.081545	-1.140855	0.260597
H69	H	-0.624963	-0.935854	0.446501
C70	C	-0.761211	-1.122944	0.276686
N71	N	-0.790047	-1.162545	0.240735
H72	H	-0.758285	-0.929651	0.452207
H73	H	-0.418134	-0.967306	0.955831
H74	H	-0.470294	-0.595830	0.376379
H75	H	-0.423819	-0.961038	1.089135
H76	H	-0.295092	-1.102657	0.838990
C77	C	-0.241567	-1.161546	0.937911
N78	N	-0.202983	-1.203984	0.905904
H79	H	-0.375037	-0.596879	0.470810
H80	H	-0.955241	-0.967425	0.418013
C81	C	-0.263513	-0.609158	0.444268
N82	N	-0.208673	-0.631721	0.457443
C83	C	-0.879267	-0.959306	0.425324
N84	N	-0.911319	-0.916864	0.463863
H85	H	-0.440798	-0.602416	0.283255
C86	C	-0.223287	-0.617625	0.310895
N87	N	-0.167907	-0.641044	0.321423
C88	C	-0.222916	-0.475803	0.310927
N89	N	-0.167363	-0.456890	0.321315
C90	C	-0.310112	-0.474500	0.223713
N91	N	-0.320239	-0.454607	0.168412
C92	C	-0.937171	-1.161682	0.241575
N93	N	-0.905130	-1.204099	0.203002
H94	H	-0.260571	-1.140650	1.082267
C95	C	-0.310435	-0.616891	0.223063
N96	N	-0.320703	-0.639760	0.167437
C97	C	-0.444954	-0.469031	0.263391
N98	N	-0.458824	-0.450522	0.208669
C99	C	-0.425462	-0.959224	0.879849
N100	N	-0.464028	-0.916778	0.911867
H101	H	-0.379513	-0.469436	0.469252
C102	C	-0.485582	-0.460549	0.389368
N103	N	-0.530057	-0.435651	0.429531
C104	C	-0.276725	-1.122882	0.761921
N105	N	-0.240746	-1.162468	0.790788
C106	C	-0.465678	-0.914976	0.769882
N107	N	-0.504249	-0.872529	0.801894
C108	C	-0.459101	-0.922231	0.615569
N109	N	-0.495080	-0.882647	0.586700
H110	H	-0.838298	-1.102766	0.295068
