data_functionalizedCrystal
_audit_creation_method	'MofGen! by Chris Wilmer'
_symmetry_space_group_name_H-M	'P1'
_symmetry_Int_Tables_number	1
_symmetry_cell_setting	triclinic
loop_
_symmetry_equiv_pos_as_xyz
  x,y,z
_cell_length_a	19.188930
_cell_length_b	19.188930
_cell_length_c	18.266242
_cell_angle_alpha	90.011475
_cell_angle_beta	89.977082
_cell_angle_gamma	96.855221
loop_
_atom_site_label
_atom_site_type_symbol
_atom_site_fract_x
_atom_site_fract_y
_atom_site_fract_z
O1	O	0.926149	-0.087169	-0.061124
O2	O	1.426149	0.412831	0.438876
O3	O	0.722838	-0.098903	-0.061075
O4	O	1.222838	0.401097	0.438925
O5	O	0.830361	0.008620	-0.061087
O6	O	1.330361	0.508620	0.438913
O7	O	0.818627	-0.194691	-0.061113
O8	O	1.318627	0.305309	0.438887
O9	O	0.830343	0.008625	0.060675
O10	O	1.330343	0.508625	0.560675
O11	O	0.722820	-0.098897	0.060687
O12	O	1.222820	0.401103	0.560687
O13	O	0.926131	-0.087163	0.060638
O14	O	1.426131	0.412837	0.560638
Zn15	Zn	0.824473	-0.093029	0.079994
Zn16	Zn	1.324473	0.406971	0.579994
Zn17	Zn	0.824497	-0.093037	-0.080432
Zn18	Zn	1.324497	0.406963	0.419568
O19	O	0.818608	-0.194686	0.060649
O20	O	1.318608	0.305314	0.560649
C21	C	0.696818	-0.098520	-0.000188
C22	C	1.196818	0.401480	0.499812
C23	C	0.619313	-0.097380	-0.000169
C24	C	1.119313	0.402620	0.499831
C25	C	0.574389	-0.160470	-0.000188
C26	C	1.074389	0.339530	0.499812
C27	C	0.501566	-0.159399	-0.000196
C28	C	1.001566	0.340601	0.499804
C29	C	0.473669	-0.095233	-0.000199
C30	C	0.973669	0.404767	0.499801
C31	C	0.518603	-0.032133	-0.000175
C32	C	1.018603	0.467867	0.499825
C33	C	0.591425	-0.033207	-0.000160
C34	C	1.091425	0.466793	0.499840
N35	N	0.365695	-0.046188	-0.041663
N36	N	0.865695	0.453812	0.458337
N37	N	0.296516	-0.045172	-0.041679
N38	N	0.796516	0.454828	0.458321
C39	C	0.254260	-0.091994	-0.000243
C40	C	0.754260	0.408006	0.499757
N41	N	0.283795	-0.139881	0.041200
N42	N	0.783795	0.360119	0.541200
N43	N	0.352980	-0.140899	0.041213
N44	N	0.852980	0.359101	0.541213
C45	C	0.394707	-0.094062	-0.000215
C46	C	0.894707	0.405938	0.499785
C47	C	0.130372	-0.153928	-0.000270
C48	C	0.630372	0.346072	0.499730
C49	C	0.057547	-0.152853	-0.000274
C50	C	0.557547	0.347147	0.499726
C51	C	0.074586	-0.025586	-0.000261
C52	C	0.574586	0.474414	0.499739
C53	C	0.147409	-0.026662	-0.000250
C54	C	0.647409	0.473338	0.499750
C55	C	0.175298	-0.090835	-0.000258
C56	C	0.675298	0.409165	0.499742
C57	C	0.829972	0.034634	-0.000204
C58	C	1.329972	0.534634	0.499796
C59	C	0.828831	0.112138	-0.000197
C60	C	1.328831	0.612138	0.499803
C61	C	0.952151	-0.087546	-0.000252
C62	C	1.452151	0.412454	0.499748
C63	C	1.029656	-0.088687	-0.000276
C64	C	1.529656	0.411313	0.499724
C65	C	0.818997	-0.220700	-0.000236
C66	C	1.318997	0.279300	0.499764
C67	C	0.820138	-0.298204	-0.000247
C68	C	1.320138	0.201796	0.499753
N69	N	0.824461	-0.093024	0.189481
N70	N	1.324461	0.406976	0.689481
C71	C	0.891922	0.157062	-0.000209
C72	C	1.391922	0.657062	0.499791
C73	C	0.890850	0.229886	-0.000220
C74	C	1.390850	0.729886	0.499780
C75	C	0.826684	0.257782	-0.000206
C76	C	1.326684	0.757782	0.499794
C77	C	0.763585	0.212849	-0.000198
C78	C	1.263585	0.712849	0.499802
C79	C	0.764658	0.140026	-0.000194
C80	C	1.264658	0.640026	0.499806
N81	N	0.777631	0.365789	0.041244
N82	N	1.277631	0.865789	0.541244
N83	N	0.776615	0.434968	0.041242
N84	N	1.276615	0.934968	0.541242
C85	C	0.823446	0.477191	-0.000220
C86	C	1.323446	0.977191	0.499780
N87	N	0.871341	0.447624	-0.041669
N88	N	1.371341	0.947624	0.458331
N89	N	0.872359	0.378439	-0.041664
N90	N	1.372359	0.878439	0.458336
C91	C	0.825513	0.336745	-0.000210
C92	C	1.325513	0.836745	0.499790
C93	C	0.885379	0.601079	-0.000245
C94	C	1.385379	1.101079	0.499755
C95	C	0.884305	0.673904	-0.000261
C96	C	1.384305	1.173904	0.499739
C97	C	0.757038	0.656865	-0.000231
C98	C	1.257038	1.156865	0.499769
C99	C	0.758114	0.584042	-0.000222
C100	C	1.258114	1.084042	0.499778
C101	C	0.822287	0.556154	-0.000226
C102	C	1.322287	1.056154	0.499774
N103	N	0.824513	-0.093037	-0.189919
N104	N	1.324513	0.406963	0.310081
C105	C	0.872088	-0.045436	0.227785
C106	C	1.372088	0.454564	0.727785
C107	C	0.872092	-0.045433	0.304430
C108	C	1.372092	0.454567	0.804430
C109	C	0.824477	-0.093030	0.342768
C110	C	1.324477	0.406970	0.842768
C111	C	0.776841	-0.140621	0.304455
C112	C	1.276841	0.359379	0.804455
C113	C	0.776834	-0.140618	0.227812
C114	C	1.276834	0.359382	0.727812
N115	N	0.815401	-0.154837	0.463094
N116	N	1.315401	0.345163	0.963094
N117	N	0.815413	-0.154838	0.535902
N118	N	1.315413	0.345162	1.035902
C119	C	0.824496	-0.093040	0.573691
C120	C	1.324496	0.406960	1.073691
N121	N	0.833582	-0.031239	0.535920
N122	N	1.333582	0.468761	1.035920
N123	N	0.833574	-0.031240	0.463106
N124	N	1.333574	0.468760	0.963106
C125	C	0.824480	-0.093038	0.425875
C126	C	1.324480	0.406962	0.925875
C127	C	0.872131	-0.045444	0.695101
C128	C	1.372131	0.454556	1.195101
C129	C	0.872130	-0.045440	0.771748
C130	C	1.372130	0.454560	1.271748
C131	C	0.776882	-0.140634	0.771772
C132	C	1.276882	0.359366	1.271772
C133	C	0.776879	-0.140632	0.695127
C134	C	1.276879	0.359368	1.195127
C135	C	0.824507	-0.093038	0.656796
C136	C	1.324507	0.406962	1.156796
H137	H	0.628003	0.018171	-0.000145
H138	H	1.128003	0.518171	0.499855
N139	N	0.923511	0.005885	0.813059
N140	N	1.423511	0.505885	1.313059
H141	H	0.896942	0.036744	0.844880
H142	H	1.396942	0.536744	1.344880
H143	H	0.953665	0.035979	0.777091
H144	H	1.453665	0.535979	1.277091
N145	N	0.604460	-0.229687	-0.000198
N146	N	1.104460	0.270313	0.499802
H147	H	0.588035	-0.257319	0.044931
H148	H	1.088035	0.242681	0.544931
H149	H	0.657406	-0.220744	-0.000215
H150	H	1.157406	0.279256	0.499785
H151	H	0.910910	-0.006688	0.663892
H152	H	1.410910	0.493312	1.163892
N153	N	0.009092	-0.220906	-0.000301
N154	N	0.509092	0.279094	0.499699
H155	H	-0.041274	-0.210491	-0.000306
H156	H	0.458726	0.289509	0.499694
H157	H	0.018077	-0.248884	0.044833
H158	H	0.518077	0.251116	0.544833
H159	H	0.706738	0.547464	-0.000208
H160	H	1.206738	1.047464	0.499792
H161	H	0.944176	0.134360	-0.000214
H162	H	1.444176	0.634360	0.499786
H163	H	0.937632	0.578372	-0.000251
H164	H	1.437632	1.078372	0.499749
H165	H	0.711340	0.235567	-0.000187
H166	H	1.211340	0.735567	0.499813
H167	H	0.713281	0.103448	-0.000184
H168	H	1.213281	0.603448	0.499816
H169	H	0.910877	-0.006680	0.335623
H170	H	1.410877	0.493320	0.835623
N171	N	0.958900	0.278352	-0.000235
N172	N	1.458900	0.778352	0.499765
H173	H	0.999715	0.249634	-0.000238
H174	H	1.499715	0.749634	0.499762
H175	H	0.961213	0.308946	0.044903
H176	H	1.461213	0.808946	0.544903
H177	H	0.051874	0.026659	-0.000309
H178	H	0.551874	0.526659	0.499691
N179	N	0.952356	0.722362	-0.000276
N180	N	1.452356	1.222362	0.499724
H181	H	0.993169	0.693642	-0.000276
H182	H	1.493169	1.193642	0.499724
H183	H	0.954670	0.752959	0.044859
H184	H	1.454670	1.252959	0.544859
N185	N	0.687828	0.686943	-0.000223
N186	N	1.187828	1.186943	0.499777
H187	H	0.696720	0.739893	-0.000230
H188	H	1.196720	1.239893	0.499770
H189	H	0.660220	0.670506	0.044922
H190	H	1.160220	1.170506	0.544922
N191	N	0.725521	-0.191967	0.813114
N192	N	1.225521	0.308033	1.313114
H193	H	0.695347	-0.222114	0.777214
H194	H	1.195347	0.277886	1.277214
H195	H	0.694745	-0.165305	0.844931
H196	H	1.194745	0.334695	1.344931
N197	N	0.725510	-0.191959	0.653808
N198	N	1.225510	0.308041	1.153808
H199	H	0.695345	-0.222111	0.689723
H200	H	1.195345	0.277889	1.189723
H201	H	0.752136	-0.222761	0.621984
H202	H	1.252136	0.277239	1.121984
N203	N	0.923451	0.005898	0.186442
N204	N	1.423451	0.505898	0.686442
H205	H	0.972978	-0.002023	0.199754
H206	H	1.472978	0.497977	0.699754
H207	H	0.915506	0.055410	0.199816
H208	H	1.415506	0.555410	0.699816
N209	N	0.453100	-0.227449	-0.000219
N210	N	0.953100	0.272551	0.499781
H211	H	0.481817	-0.268264	-0.000221
H212	H	0.981817	0.231736	0.499779
H213	H	0.422543	-0.229769	-0.045366
H214	H	0.922543	0.270231	0.454634
H215	H	0.495885	0.020111	-0.000188
H216	H	0.995885	0.520111	0.499812
N217	N	0.725480	-0.191955	0.345800
N218	N	1.225480	0.308045	0.845800
H219	H	0.732713	-0.184737	0.400167
H220	H	1.232713	0.315263	0.900167
H221	H	0.733387	-0.241467	0.332385
H222	H	1.233387	0.258533	0.832385
N223	N	0.160456	-0.223139	-0.000265
N224	N	0.660456	0.276861	0.499735
H225	H	0.213406	-0.214246	-0.000258
H226	H	0.713406	0.285754	0.499742
H227	H	0.144030	-0.250742	-0.045408
H228	H	0.644030	0.249258	0.454592
H229	H	0.738049	-0.179371	0.196624
H230	H	1.238049	0.320629	0.696624
N231	N	0.195869	0.041386	-0.000229
N232	N	0.695869	0.541386	0.499771
H233	H	0.167148	0.082199	-0.000231
H234	H	0.667148	0.582199	0.499769
H235	H	0.226481	0.043713	-0.045360
H236	H	0.726481	0.543713	0.454640
