data_functionalizedCrystal
_audit_creation_method	'MofGen! by Chris Wilmer'
_symmetry_space_group_name_H-M	'P1'
_symmetry_Int_Tables_number	1
_symmetry_cell_setting	triclinic
loop_
_symmetry_equiv_pos_as_xyz
  x,y,z
_cell_length_a	15.995350
_cell_length_b	11.792241
_cell_length_c	10.868271
_cell_angle_alpha	89.994719
_cell_angle_beta	89.999330
_cell_angle_gamma	83.842895
loop_
_atom_site_label
_atom_site_type_symbol
_atom_site_fract_x
_atom_site_fract_y
_atom_site_fract_z
O1	O	1.111649	0.146296	-0.102218
O2	O	0.867956	0.164362	-0.102244
O3	O	0.995716	-0.009891	-0.102222
O4	O	0.983889	0.320549	-0.102240
O5	O	0.995706	-0.009898	0.102423
O6	O	0.867946	0.164355	0.102401
O7	O	1.111639	0.146289	0.102426
Zn8	Zn	0.989790	0.155321	0.134905
Zn9	Zn	0.989804	0.155330	-0.134723
O10	O	0.983878	0.320542	0.102404
C11	C	0.994968	-0.052179	0.000100
C12	C	0.992745	-0.178174	0.000099
C13	C	0.836753	0.163612	0.000075
C14	C	0.743792	0.161372	0.000066
C15	C	0.988655	-0.408852	0.000078
C16	C	0.990927	-0.280486	0.000089
C17	C	0.406008	0.153331	0.000092
C18	C	0.452879	0.029232	0.000555
C19	C	0.549579	0.031471	0.000085
C20	C	0.573587	0.157320	0.000080
C21	C	0.532784	0.218534	-0.116781
C22	C	0.436134	0.215416	-0.116870
C23	C	0.435794	0.217973	0.115849
C24	C	0.532740	0.217943	0.117385
C25	C	0.668295	0.159581	0.000069
C26	C	0.311300	0.151074	0.000095
C27	C	1.142842	0.147040	0.000104
C28	C	1.235803	0.149279	0.000106
C29	C	0.984627	0.362830	0.000080
C30	C	0.986850	0.488825	0.000073
N31	N	0.989787	0.155314	0.318919
N32	N	0.989814	0.155328	-0.318737
C33	C	0.989800	0.155328	0.569925
C34	C	0.989790	0.155324	0.430248
H35	H	0.577785	-0.016646	0.083857
H36	H	0.417627	0.170782	-0.204222
H37	H	0.415070	0.177399	0.204427
H38	H	0.404299	0.306528	-0.122178
C39	C	0.570852	0.161114	-0.234271
H40	H	0.545758	0.198770	-0.304500
H41	H	0.560530	0.083278	-0.235321
H42	H	0.629758	0.165888	-0.235483
H43	H	0.434127	-0.020377	0.084361
H44	H	0.404448	0.309470	0.116635
H45	H	0.577222	-0.016965	-0.083826
C46	C	0.426112	-0.037478	-0.112017
H47	H	0.386499	0.009973	-0.159301
H48	H	0.401271	-0.102810	-0.085140
H49	H	0.474056	-0.060732	-0.161077
C50	C	0.552436	0.343432	-0.122672
H51	H	0.585783	0.359392	-0.053752
H52	H	0.501372	0.392645	-0.121587
H53	H	0.582294	0.355307	-0.196308
H54	H	0.559849	0.173257	0.203838
H55	H	0.548521	0.309716	0.124439
