data_functionalizedCrystal
_audit_creation_method	'MofGen! by Chris Wilmer'
_symmetry_space_group_name_H-M	'P1'
_symmetry_Int_Tables_number	1
_symmetry_cell_setting	triclinic
loop_
_symmetry_equiv_pos_as_xyz
  x,y,z
_cell_length_a	10.654550
_cell_length_b	10.540510
_cell_length_c	9.730223
_cell_angle_alpha	89.998073
_cell_angle_beta	89.999957
_cell_angle_gamma	84.499121
loop_
_atom_site_label
_atom_site_type_symbol
_atom_site_fract_x
_atom_site_fract_y
_atom_site_fract_z
O1	O	1.667883	0.178303	-0.114179
O2	O	1.302409	0.195290	-0.114204
O3	O	1.493503	0.002085	-0.114190
O4	O	1.476788	0.371509	-0.114192
O5	O	1.493491	0.002079	0.114390
O6	O	1.302396	0.195285	0.114376
O7	O	1.667871	0.178298	0.114401
Zn8	Zn	1.485131	0.186790	0.150681
Zn9	Zn	1.485148	0.186797	-0.150483
O10	O	1.476776	0.371503	0.114388
C11	C	1.255604	0.194040	0.000083
C12	C	1.116160	0.190309	0.000074
C13	C	1.492252	-0.045221	0.000097
C14	C	1.488525	-0.186170	0.000088
C15	C	1.036702	0.304065	0.000077
C16	C	0.905681	0.300551	0.000101
C17	C	0.933587	0.069514	0.000113
C18	C	1.064606	0.073029	0.000098
C19	C	1.621278	-0.403673	0.000621
C20	C	1.625253	-0.257079	0.000099
C21	C	1.418540	-0.230900	-0.130444
C22	C	1.415534	-0.377660	-0.130546
C23	C	1.412672	-0.377474	0.129392
C24	C	1.419157	-0.231135	0.131110
C25	C	1.714675	0.179547	0.000111
C26	C	1.854119	0.183279	0.000112
C27	C	1.478028	0.418809	0.000097
C28	C	1.481754	0.559758	0.000097
N29	N	1.485129	0.186785	0.356217
N30	N	1.485160	0.186793	-0.356020
C31	C	1.569775	0.101270	0.428149
C32	C	1.569788	0.101270	0.572032
C33	C	1.400505	0.272312	0.572038
C34	C	1.400487	0.272304	0.428158
H35	H	1.078673	0.399561	0.000067
H36	H	1.638713	0.031635	0.630595
Br37	Br	1.716484	-0.208194	0.156079
Br38	Br	1.172452	-0.081366	0.000111
Br39	Br	0.797849	0.454942	0.000112
Br40	Br	1.495273	-0.444722	-0.293161
Br41	Br	0.863613	-0.089643	0.000141
H42	H	1.319335	-0.182032	0.138985
Br43	Br	1.710062	-0.473631	0.156651
Br44	Br	1.241573	-0.414329	0.130849
Br45	Br	1.709566	-0.476211	-0.154507
H46	H	1.680340	-0.228691	-0.093626
Br47	Br	1.245093	-0.415934	-0.140439
Br48	Br	1.484591	-0.448350	0.294295
H49	H	1.638695	0.031633	0.369578
Br50	Br	1.250773	-0.151855	-0.138559
Br51	Br	1.285639	0.388373	0.669677
Br52	Br	1.499561	-0.179505	-0.292348
H53	H	1.470081	-0.202543	0.227677
Br54	Br	1.285593	0.388359	0.330525
