data_functionalizedCrystal
_audit_creation_method	'MofGen! by Chris Wilmer'
_symmetry_space_group_name_H-M	'P1'
_symmetry_Int_Tables_number	1
_symmetry_cell_setting	triclinic
loop_
_symmetry_equiv_pos_as_xyz
  x,y,z
_cell_length_a	19.288864
_cell_length_b	10.489741
_cell_length_c	18.366186
_cell_angle_alpha	89.994090
_cell_angle_beta	89.977106
_cell_angle_gamma	83.837710
loop_
_atom_site_label
_atom_site_type_symbol
_atom_site_fract_x
_atom_site_fract_y
_atom_site_fract_z
O1	O	0.922420	0.159110	-0.060783
O2	O	0.720303	0.180573	-0.060733
O3	O	0.825960	-0.015860	-0.060755
O4	O	0.816762	0.355543	-0.060761
O5	O	0.825942	-0.015870	0.060344
O6	O	0.720285	0.180564	0.060366
O7	O	0.922402	0.159100	0.060316
Zn8	Zn	0.821340	0.169830	0.079568
Zn9	Zn	0.821364	0.169843	-0.079985
O10	O	0.816744	0.355534	0.060338
C11	C	0.694413	0.179878	-0.000177
C12	C	0.617295	0.177805	-0.000158
C13	C	0.573372	0.293063	-0.000171
C14	C	0.500912	0.291115	-0.000179
C15	C	0.472378	0.173903	-0.000189
C16	C	0.516311	0.058629	-0.000171
C17	C	0.588770	0.060580	-0.000156
C18	C	0.363505	0.081764	-0.042638
C19	C	0.291047	0.079818	-0.042658
C20	C	0.248892	0.167880	-0.000233
C21	C	0.279202	0.257911	0.042203
C22	C	0.351661	0.259862	0.042218
C23	C	0.393810	0.171774	-0.000205
C24	C	0.126399	0.281035	-0.000254
C25	C	0.053938	0.279082	-0.000257
C26	C	0.069339	0.046593	-0.000256
C27	C	0.141798	0.048549	-0.000245
C28	C	0.170324	0.165773	-0.000248
C29	C	0.825257	-0.063381	-0.000205
C30	C	0.823178	-0.204964	-0.000206
C31	C	0.755951	-0.271583	-0.000195
C32	C	0.787700	-0.364429	0.059505
C33	C	0.787734	-0.364394	-0.059889
C34	C	0.854954	-0.295944	0.059543
C35	C	0.854979	-0.295900	-0.059905
C36	C	0.886776	-0.388719	-0.000190
C37	C	0.948292	0.159796	-0.000241
C38	C	1.025409	0.161869	-0.000265
C39	C	0.817448	0.403055	-0.000213
C40	C	0.819526	0.544637	-0.000217
N41	N	0.821329	0.169821	0.188460
N42	N	0.821381	0.169842	-0.188876
C43	C	0.868130	0.082883	0.226550
C44	C	0.868134	0.082877	0.302778
C45	C	0.821344	0.169831	0.340912
C46	C	0.774535	0.256776	0.302812
C47	C	0.774527	0.256771	0.226586
C48	C	0.812826	0.286045	0.461672
C49	C	0.812838	0.286052	0.537897
C50	C	0.821364	0.169847	0.576020
C51	C	0.829893	0.053631	0.537908
C52	C	0.829885	0.053626	0.461682
C53	C	0.821347	0.169846	0.423567
C54	C	0.868172	0.082896	0.696766
C55	C	0.868172	0.082888	0.772995
C56	C	0.774576	0.256799	0.773027
C57	C	0.774573	0.256795	0.696800
C58	C	0.821375	0.169845	0.658673
H59	H	0.266374	0.006515	-0.077214
O60	O	0.408966	-0.013238	-0.088395
H61	H	0.464444	0.003230	-0.081248
O62	O	0.682743	-0.204128	-0.000097
H63	H	0.654598	-0.232705	-0.049160
H64	H	0.759247	-0.394801	0.109991
H65	H	0.736466	0.327594	0.665784
H66	H	0.883367	-0.265759	0.110072
O67	O	0.960052	-0.455866	-0.000169
H68	H	0.987774	-0.428466	0.049436
H69	H	0.883407	-0.265494	-0.110393
O70	O	0.750058	-0.404575	-0.126748
H71	H	0.695769	-0.357180	-0.126603
O72	O	0.803626	0.411379	0.420548
H73	H	0.846382	0.469511	0.435139
H74	H	0.736476	0.327594	0.804076
O75	O	0.453524	0.415433	-0.000191
H76	H	0.420168	0.420093	-0.049553
O77	O	0.724071	0.350573	0.343936
H78	H	0.731944	0.335983	0.403341
O79	O	0.724053	0.350553	0.185495
H80	H	0.691518	0.411024	0.224815
O81	O	0.918597	-0.010911	0.185426
H82	H	0.951137	-0.071375	0.224725
H83	H	0.624533	-0.033280	-0.000145
H84	H	0.906246	0.012079	0.333797
H85	H	0.836827	-0.041001	0.430655
H86	H	0.596592	0.388516	-0.000175
O87	O	0.839084	-0.071719	0.579012
H88	H	0.837647	-0.052198	0.638420
H89	H	0.244881	0.329619	0.076750
H90	H	0.906279	0.012092	0.665722
O91	O	0.189175	-0.075772	-0.000236
H92	H	0.244353	-0.054725	-0.000218
H93	H	0.906281	0.012086	0.804009
H94	H	0.493075	-0.036806	-0.000189
H95	H	0.149625	0.376486	-0.000245
H96	H	0.805898	0.380681	0.568921
H97	H	0.376337	0.333164	0.076773
H98	H	0.018175	0.372944	-0.000264
H99	H	0.046108	-0.048844	-0.000309
