data_functionalizedCrystal
_audit_creation_method	'MofGen! by Chris Wilmer'
_symmetry_space_group_name_H-M	'P1'
_symmetry_Int_Tables_number	1
_symmetry_cell_setting	triclinic
loop_
_symmetry_equiv_pos_as_xyz
  x,y,z
_cell_length_a	6.817900
_cell_length_b	9.582889
_cell_length_c	11.102228
_cell_angle_alpha	90.974914
_cell_angle_beta	108.604565
_cell_angle_gamma	111.207298
loop_
_atom_site_label
_atom_site_type_symbol
_atom_site_fract_x
_atom_site_fract_y
_atom_site_fract_z
V1	V	-4.125316	-0.207059	-0.396024
O2	O	-4.069887	0.009947	-0.388724
O3	O	-4.115656	-0.410560	-0.393085
O4	O	-4.101879	-0.203875	-0.568848
O5	O	-4.083759	-0.198169	-0.211744
V6	V	-4.600690	-0.181102	-0.374010
O7	O	-4.404451	-0.263997	-0.444312
O8	O	-4.771752	-0.124165	-0.325722
O9	O	-4.387144	0.022399	-0.376949
O10	O	-4.773516	-0.398108	-0.381310
O11	O	-4.759644	-0.189993	-0.558290
O12	O	-4.400920	-0.184286	-0.201186
C13	C	-3.969273	-0.460169	-0.386778
C14	C	-4.042828	-0.626534	-0.385527
C15	C	-3.951698	-0.196520	-0.610980
C16	C	-4.014076	-0.195264	-0.752264
C17	C	-4.112679	-0.331721	-0.836635
C18	C	-4.171301	-0.330537	-0.969386
C19	C	-4.032696	-0.056428	-0.933381
C20	C	-3.974091	-0.057614	-0.800633
C21	C	-4.453245	-0.498372	-1.176586
C22	C	-4.551819	-0.634834	-1.260961
C23	C	-4.475373	-0.751420	-1.229616
C24	C	-4.300308	-0.731547	-1.113897
C25	C	-4.201718	-0.595081	-1.029527
C26	C	-4.278213	-0.478503	-1.060873
C27	C	-3.692133	0.110212	-0.593431
C28	C	-3.593527	0.246680	-0.509058
C29	C	-3.669952	0.363279	-0.540399
C30	C	-3.844981	0.343422	-0.656120
C31	C	-3.943588	0.206954	-0.740492
C32	C	-3.867162	0.090355	-0.709143
C33	C	-4.196869	0.072000	-0.383253
C34	C	-4.102554	0.238363	-0.384512
C35	C	-4.214443	-0.191646	-0.159047
C36	C	-4.131303	-0.192895	-0.017762
H37	H	-4.145242	-0.443804	-0.797258
H38	H	-3.450982	0.262849	-0.414841
C39	C	-4.764937	-0.421427	-1.225747
C40	C	-4.537308	-0.370227	-1.211045
H41	H	-4.816834	-0.342316	-1.247033
H42	H	-4.783692	-0.451130	-1.147639
H43	H	-4.848665	-0.505546	-1.292556
H44	H	-4.453578	-0.286115	-1.144228
H45	H	-4.518536	-0.340503	-1.289162
H46	H	-4.694366	-0.651005	-1.355180
H47	H	-4.086110	0.190793	-0.834718
H48	H	-4.059175	-0.578898	-0.935314
C49	C	-3.758606	0.184632	-0.937453
C50	C	-3.988737	0.094879	-0.986544
H51	H	-3.731471	0.278049	-0.970265
H52	H	-3.678664	0.133303	-0.962481
H53	H	-3.709621	0.203434	-0.846318
H54	H	-4.037718	0.076067	-1.077679
H55	H	-4.068706	0.146219	-0.961524
H56	H	-4.238053	-0.826481	-1.088394
H57	H	-4.555640	-0.862530	-1.298325
H58	H	-3.907212	0.438367	-0.681639
H59	H	-3.589593	0.474417	-0.471710
H60	H	-3.629890	0.015272	-0.567901
