data_functionalizedCrystal
_audit_creation_method	'MofGen! by Chris Wilmer'
_symmetry_space_group_name_H-M	'P1'
_symmetry_Int_Tables_number	1
_symmetry_cell_setting	triclinic
loop_
_symmetry_equiv_pos_as_xyz
  x,y,z
_cell_length_a	16.109301
_cell_length_b	10.654550
_cell_length_c	15.186229
_cell_angle_alpha	90.000905
_cell_angle_beta	90.002891
_cell_angle_gamma	96.026808
loop_
_atom_site_label
_atom_site_type_symbol
_atom_site_fract_x
_atom_site_fract_y
_atom_site_fract_z
O1	O	1.104094	-0.161412	0.073171
O2	O	0.862151	-0.181500	0.073184
O3	O	0.988685	0.011359	0.073174
O4	O	0.977560	-0.354271	0.073181
O5	O	0.988670	0.011348	-0.073283
O6	O	0.862136	-0.181511	-0.073273
O7	O	1.104079	-0.161423	-0.073287
Zn8	Zn	0.983105	-0.171469	-0.096533
Zn9	Zn	0.983125	-0.171454	0.096431
O10	O	0.977545	-0.354282	-0.073276
C11	C	0.831164	-0.180692	-0.000043
C12	C	0.738854	-0.178253	-0.000037
C13	C	0.987861	0.058140	-0.000054
C14	C	0.985417	0.197550	-0.000050
N15	N	0.983098	-0.171478	-0.228226
C16	C	0.517228	-0.287019	-0.000045
C17	C	0.430494	-0.284717	-0.000051
C18	C	0.449008	-0.055896	-0.000052
C19	C	0.535740	-0.058199	-0.000052
C20	C	0.569848	-0.173764	-0.000045
C21	C	0.396382	-0.169159	-0.000050
C22	C	0.302341	-0.166662	-0.000056
C23	C	0.663895	-0.176262	-0.000040
C24	C	1.135066	-0.162231	-0.000058
C25	C	1.227376	-0.164671	-0.000057
C26	C	0.978369	-0.401063	-0.000047
C27	C	0.980813	-0.540473	-0.000044
C28	C	1.059918	0.278046	-0.000057
C29	C	1.057616	0.409036	-0.000051
C30	C	0.906306	0.379020	-0.000035
C31	C	0.908608	0.248033	-0.000035
C32	C	1.147276	0.295377	-0.000071
C33	C	1.144974	0.426367	-0.000064
C34	C	1.033974	-0.247649	-0.453950
C35	C	1.033983	-0.247640	-0.546140
C36	C	0.932260	-0.095256	-0.546146
C37	C	0.932256	-0.095259	-0.453958
C38	C	0.983112	-0.171463	-0.407862
C39	C	0.983125	-0.171451	-0.592240
C40	C	0.983134	-0.171440	-0.692196
C41	C	0.983104	-0.171472	-0.307900
N42	N	0.983138	-0.171435	0.228123
H43	H	0.544995	-0.381119	-0.000046
H44	H	0.387654	-0.376940	-0.000053
Br45	Br	0.402714	0.100935	-0.000059
Br46	Br	0.863239	0.008150	-0.608710
Br47	Br	0.863223	0.008144	-0.391404
Br48	Br	0.802071	0.447541	-0.000008
Br49	Br	0.607160	0.095514	-0.000063
H50	H	1.181451	0.266487	0.061215
H51	H	1.075384	-0.309698	-0.416422
Br52	Br	0.807496	0.138789	0.000002
H53	H	1.177883	0.468569	-0.061357
Br54	Br	1.188984	0.503059	0.105327
Br55	Br	1.193611	0.236601	-0.105479
H56	H	1.075402	-0.309676	-0.583660
