data_functionalizedCrystal
_audit_creation_method	'MofGen! by Chris Wilmer'
_symmetry_space_group_name_H-M	'P1'
_symmetry_Int_Tables_number	1
_symmetry_cell_setting	triclinic
loop_
_symmetry_equiv_pos_as_xyz
  x,y,z
_cell_length_a	16.109301
_cell_length_b	19.188930
_cell_length_c	14.586319
_cell_angle_alpha	89.991095
_cell_angle_beta	89.999213
_cell_angle_gamma	83.303131
loop_
_atom_site_label
_atom_site_type_symbol
_atom_site_fract_x
_atom_site_fract_y
_atom_site_fract_z
O1	O	1.102833	0.089744	-0.076193
O2	O	0.860734	0.100912	-0.076209
O3	O	0.988770	-0.006311	-0.076182
O4	O	0.974797	0.196968	-0.076219
O5	O	0.988762	-0.006313	0.076298
O6	O	0.860726	0.100911	0.076272
O7	O	1.102825	0.089742	0.076288
Cu8	Cu	0.981774	0.095326	0.090203
Cu9	Cu	0.981785	0.095328	-0.090124
O10	O	0.974789	0.196966	0.076262
C11	C	0.829757	0.100459	0.000030
C12	C	0.737466	0.099103	0.000025
C13	C	0.514993	0.159573	0.000024
C14	C	0.428277	0.158294	0.000030
C15	C	0.448573	0.031076	0.000050
C16	C	0.535287	0.032357	0.000050
C17	C	0.568495	0.096608	0.000033
C18	C	0.395064	0.094047	0.000038
C19	C	0.301043	0.092659	0.000045
C20	C	0.662522	0.097996	0.000028
C21	C	0.988313	-0.032324	0.000061
C22	C	0.986955	-0.109832	0.000068
C23	C	1.062082	-0.154580	0.000078
C24	C	1.060806	-0.227407	0.000063
C25	C	0.984399	-0.255482	0.000057
C26	C	0.909261	-0.210724	0.000043
C27	C	0.910540	-0.137899	0.000048
N28	N	0.925991	-0.363624	0.051945
N29	N	0.924782	-0.432805	0.051942
C30	C	0.980543	-0.474900	0.000038
N31	N	1.037571	-0.445200	-0.051850
N32	N	1.038783	-0.376013	-0.051843
C33	C	0.983004	-0.334448	0.000051
C34	C	1.054292	-0.598616	0.000030
C35	C	1.053012	-0.671443	0.000010
C36	C	0.901465	-0.654759	-0.000001
C37	C	0.902747	-0.581933	0.000010
C38	C	0.979162	-0.553866	0.000030
C39	C	1.133802	0.090196	0.000047
C40	C	1.226093	0.091552	0.000046
C41	C	0.975246	0.222979	0.000017
C42	C	0.976604	0.300486	0.000003
N43	N	0.981773	0.095325	0.217034
N44	N	0.981793	0.095325	-0.216955
C45	C	1.038486	0.047862	0.452052
C46	C	1.038488	0.047860	0.548034
C47	C	0.925074	0.142790	0.548020
C48	C	0.925068	0.142787	0.452040
C49	C	0.981779	0.095324	0.404059
C50	C	0.981787	0.095325	0.596020
C51	C	0.981789	0.095323	0.700087
C52	C	0.981776	0.095325	0.299985
H53	H	0.421524	-0.021234	0.000069
H54	H	1.084662	0.009214	0.412988
H55	H	0.878886	0.181437	0.412962
C56	C	1.100864	-0.004347	0.600827
H57	H	1.092742	0.002445	0.664861
H58	H	1.156321	0.003248	0.585093
H59	H	1.091999	-0.050949	0.585105
C60	C	0.551519	0.230246	0.000015
H61	H	0.507233	0.267562	0.000019
H62	H	0.584926	0.233395	-0.053158
H63	H	0.584923	0.233386	0.053196
H64	H	0.578851	-0.018920	0.000059
H65	H	1.124306	-0.131733	0.000091
C66	C	0.369428	0.227556	0.000015
H67	H	0.401628	0.266002	-0.000003
H68	H	0.335178	0.229703	0.053187
H69	H	0.335181	0.229700	-0.053166
C70	C	1.143449	-0.276639	0.000080
H71	H	1.189141	-0.249493	0.000098
H72	H	1.146109	-0.305390	-0.053093
H73	H	1.146087	-0.305399	0.053261
H74	H	0.849360	-0.101464	0.000041
H75	H	0.847050	-0.233587	0.000036
C76	C	0.862705	0.195001	0.600802
H77	H	0.870835	0.188210	0.664838
H78	H	0.807245	0.187408	0.585082
H79	H	0.871570	0.241602	0.585057
H80	H	1.116514	-0.575763	0.000042
H81	H	0.839253	-0.677617	-0.000010
C82	C	1.135657	-0.720667	0.000022
H83	H	1.181346	-0.693518	0.000044
H84	H	1.138319	-0.749415	-0.053154
H85	H	1.138297	-0.749431	0.053200
C86	C	0.820108	-0.532704	0.000006
H87	H	0.831812	-0.485312	0.000002
H88	H	0.788758	-0.541218	0.053174
H89	H	0.788774	-0.541205	-0.053180
