data_functionalizedCrystal
_audit_creation_method	'MofGen! by Chris Wilmer'
_symmetry_space_group_name_H-M	'P1'
_symmetry_Int_Tables_number	1
_symmetry_cell_setting	triclinic
loop_
_symmetry_equiv_pos_as_xyz
  x,y,z
_cell_length_a	14.628931
_cell_length_b	14.628931
_cell_length_c	14.560438
_cell_angle_alpha	60.000102
_cell_angle_beta	90.000974
_cell_angle_gamma	59.999807
loop_
_atom_site_label
_atom_site_type_symbol
_atom_site_fract_x
_atom_site_fract_y
_atom_site_fract_z
Zr1	Zr	0.880614	1.000578	-0.120523
O2	O	0.734650	1.191286	-0.267172
O3	O	0.925361	0.809871	-0.075568
O4	O	0.925356	1.000580	-0.267172
O5	O	0.734658	1.000575	0.075573
O6	O	1.075788	1.000580	-0.267172
O7	O	0.734655	1.000578	-0.075568
O8	O	1.075797	0.659437	0.075573
O9	O	0.734649	1.341718	-0.267172
O10	O	1.056710	0.888311	-0.056394
O11	O	0.944447	0.888309	0.056400
O12	O	0.944441	1.112844	-0.169189
O13	O	0.832178	1.112843	-0.056394
Zr14	Zr	1.120542	1.000573	0.120529
Zr15	Zr	1.120536	1.000577	-0.120523
Zr16	Zr	0.880621	1.000574	0.120529
Zr17	Zr	0.880614	1.240499	-0.120523
Zr18	Zr	1.120543	0.760652	0.120529
O19	O	1.075796	1.191280	0.075574
O20	O	1.075787	1.191285	-0.267171
O21	O	0.734658	1.191281	0.075573
O22	O	1.266507	0.809865	0.267178
O23	O	1.266499	0.809870	-0.075567
O24	O	0.925369	0.809866	0.267177
O25	O	1.266499	1.000576	-0.075567
O26	O	1.075801	1.000571	0.267178
O27	O	0.925369	1.000571	0.267178
O28	O	1.266502	1.000574	0.075574
O29	O	0.925355	1.341718	-0.267171
O30	O	1.075802	0.659433	0.267177
O31	O	1.266508	0.659433	0.267178
O32	O	1.266503	0.659436	0.075573
O33	O	0.734654	1.341715	-0.075567
O34	O	0.925360	1.341715	-0.075567
O35	O	1.056716	0.888307	0.169195
O36	O	1.168979	0.888308	0.056400
O37	O	1.056710	1.112842	-0.056394
O38	O	0.944447	1.112840	0.056400
C39	C	1.000579	0.700470	0.000002
C40	C	1.000579	0.598617	0.000002
C41	C	0.944889	0.553207	0.055956
C42	C	0.944888	0.447937	0.055957
C43	C	0.700473	1.000576	0.000002
C44	C	0.598620	1.000577	0.000002
C45	C	0.608903	0.889193	0.055956
C46	C	0.503634	0.889191	0.055957
C47	C	1.300684	1.000575	0.000003
C48	C	1.402537	1.000574	0.000004
C49	C	1.000571	1.000581	-0.301517
C50	C	1.000568	1.000582	-0.403849
C51	C	1.000578	1.300681	0.000003
C52	C	1.000578	1.402534	0.000004
C53	C	0.941966	1.117784	-0.510803
C54	C	0.941979	1.117778	-0.606952
C55	C	1.059198	0.883358	-0.489180
C56	C	1.059191	0.883365	-0.393033
C57	C	1.000586	1.000571	0.301522
C58	C	1.000589	1.000569	0.403855
C59	C	1.300685	0.700469	0.000003
C60	C	1.402538	0.598616	0.000003
C61	C	1.000587	0.700465	0.301522
C62	C	1.000589	0.598611	0.403855
C63	C	1.300692	0.700464	0.301522
C64	C	1.402548	0.598609	0.403855
C65	C	0.700465	1.300687	-0.301517
C66	C	0.598609	1.402542	-0.403849
C67	C	0.700472	1.300682	0.000003
C68	C	0.598619	1.402535	0.000003
C69	C	1.000570	1.300686	-0.301516
C70	C	1.000568	1.402541	-0.403849
C71	C	1.391789	0.550764	-0.058872
C72	C	1.487494	0.455070	-0.058876
C73	C	1.604695	0.455085	0.058879
C74	C	1.508991	0.550784	0.058876
C75	C	1.059193	0.550756	0.510809
C76	C	1.059182	0.455062	0.606957
C77	C	0.941964	0.455081	0.489184
C78	C	0.941968	0.550780	0.393038
C79	C	1.509000	0.550756	0.393057
C80	C	1.604701	0.455061	0.489214
C81	C	1.487483	0.455077	0.606964
C82	C	1.391785	0.550777	0.510808
H83	H	0.897212	0.408883	0.103864
O84	O	1.276960	0.602395	0.522457
H85	H	1.212225	0.676988	0.437625
O86	O	0.723791	0.762870	0.119418
H87	H	0.733586	0.706632	0.085412
H88	H	1.106921	0.589701	0.519622
O89	O	0.881729	0.604903	0.119431
H90	H	0.915592	0.524591	0.209933
H91	H	1.106901	0.416104	0.694041
H92	H	1.048264	0.441574	-0.047898
O93	O	1.719510	0.403496	0.122376
H94	H	1.729241	0.359911	0.212867
H95	H	0.894241	0.589747	0.305945
O96	O	1.063729	0.546903	-0.063465
H97	H	1.128469	0.441329	-0.003987
O98	O	1.276971	0.602376	-0.122384
H99	H	1.285579	0.553031	-0.163335
O100	O	1.520600	0.602372	0.277700
H101	H	1.610705	0.553028	0.286350
O102	O	1.520576	0.602399	0.122387
H103	H	1.610676	0.553047	0.163342
O104	O	1.122430	0.756932	-0.477511
H105	H	1.088578	0.700717	-0.430810
O106	O	1.719506	0.403490	0.477538
H107	H	1.765885	0.421898	0.518507
O108	O	1.475905	0.403451	-0.122374
H109	H	1.385803	0.452787	-0.163304
H110	H	0.894232	1.213230	-0.519617
O111	O	0.878774	0.403458	0.477518
H112	H	0.888635	0.328853	0.562342
O113	O	0.878768	1.244188	-0.722313
H114	H	0.838000	1.325691	-0.713674
O115	O	1.475874	0.403468	0.722317
H116	H	1.560303	0.328869	0.787368
H117	H	0.512264	0.793831	0.103853
O118	O	1.122395	0.756949	-0.277662
H119	H	1.163144	0.675439	-0.286292
H120	H	0.393899	1.095939	-0.047908
H121	H	0.511882	1.095935	-0.047899
