data_functionalizedCrystal
_audit_creation_method	'MofGen! by Chris Wilmer'
_symmetry_space_group_name_H-M	'P1'
_symmetry_Int_Tables_number	1
_symmetry_cell_setting	triclinic
loop_
_symmetry_equiv_pos_as_xyz
  x,y,z
_cell_length_a	11.026607
_cell_length_b	27.731988
_cell_length_c	10.065875
_cell_angle_alpha	98.659559
_cell_angle_beta	100.731764
_cell_angle_gamma	84.397811
loop_
_atom_site_label
_atom_site_type_symbol
_atom_site_fract_x
_atom_site_fract_y
_atom_site_fract_z
O1	O	0.125924	-0.659380	-0.113102
O2	O	0.147904	-0.520566	-0.113186
O3	O	-0.039517	-0.578468	-0.113146
O4	O	0.313346	-0.601478	-0.113142
O5	O	-0.003636	-0.567439	0.113835
O6	O	0.183785	-0.509537	0.113795
O7	O	0.161805	-0.648351	0.113879
Zn8	Zn	0.178492	-0.577193	0.149875
Zn9	Zn	0.131217	-0.591724	-0.149182
O10	O	0.349227	-0.590449	0.113839
C11	C	0.165393	-0.497004	0.000294
C12	C	0.164031	-0.443227	0.000261
C13	C	-0.066706	-0.568709	0.000340
C14	C	-0.201178	-0.556055	0.000328
C15	C	0.134648	-0.065190	-0.123407
C16	C	0.139814	-0.267315	-0.123440
O17	O	0.123799	-0.298557	-0.228668
N18	N	0.160019	-0.286582	0.000285
C19	C	0.178926	-0.255313	0.124027
O20	O	0.196218	-0.276339	0.229262
C21	C	0.173751	-0.053189	0.124059
C22	C	0.153557	-0.033926	0.000326
C23	C	0.114454	-0.045926	-0.247130
C24	C	0.113169	0.004602	-0.247120
C25	C	0.132078	0.035866	-0.123387
C26	C	0.152273	0.016602	0.000336
C27	C	0.192650	-0.021922	0.247800
C28	C	0.191351	0.028612	0.247797
C29	C	0.171157	0.047875	0.124064
C30	C	0.169897	0.098394	0.124078
N31	N	0.149692	0.117661	0.000353
C32	C	0.130783	0.086397	-0.123380
C33	C	0.181644	-0.361432	0.124002
C34	C	0.182940	-0.411963	0.123994
C35	C	0.143825	-0.423961	-0.123474
C36	C	0.142538	-0.373429	-0.123465
C37	C	0.161439	-0.342165	0.000276
C38	C	0.128087	0.192510	-0.123350
C39	C	0.126809	0.243043	-0.123330
C40	C	0.165918	0.255036	0.124137
C41	C	0.167202	0.204508	0.124118
C42	C	0.148281	0.173246	0.000363
O43	O	0.185889	0.129665	0.229250
O44	O	0.113466	0.107433	-0.228599
C45	C	0.135932	-0.115718	-0.123416
C46	C	0.156126	-0.134982	0.000307
C47	C	0.175036	-0.103718	0.124039
C48	C	0.157422	-0.185513	0.000299
C49	C	0.138513	-0.216777	-0.123434
C50	C	0.118307	-0.197510	-0.247159
C51	C	0.117023	-0.146982	-0.247149
C52	C	0.195241	-0.122985	0.247765
C53	C	0.196526	-0.173513	0.247745
C54	C	0.177616	-0.204777	0.124012
C55	C	-0.275655	-0.590995	0.000347
C56	C	-0.414639	-0.577917	0.000334
C57	C	0.376415	-0.600208	0.000350
C58	C	0.510886	-0.612863	0.000353
C59	C	0.144327	0.328086	0.000392
C60	C	0.145719	0.274307	0.000403
N61	N	0.210755	-0.567280	0.353974
N62	N	0.098945	-0.601640	-0.353281
C63	C	0.142435	-0.588271	0.421767
C64	C	0.167275	-0.580646	0.578929
H65	H	0.112682	0.167062	-0.224123
N66	N	0.002498	-0.631283	0.573636
N67	N	-0.106939	-0.620010	0.589492
H68	H	-0.175047	-0.640950	0.537888
N69	N	0.307219	-0.537659	0.427110
N70	N	0.416654	-0.548949	0.411267
H71	H	0.484786	-0.528030	0.462917
N72	N	0.121910	-0.353762	-0.249866
N73	N	0.105035	-0.381688	-0.360326
H74	H	0.090463	-0.367801	-0.449604
H75	H	0.065549	-0.611886	0.363459
H76	H	0.183670	0.188822	0.224871
H77	H	0.244157	-0.557026	0.637234
N78	N	0.124478	-0.455905	-0.249857
N79	N	0.035399	-0.482463	-0.277435
H80	H	0.021722	-0.505025	-0.366689
N81	N	0.106187	0.262711	-0.249738
N82	N	0.089304	0.234787	-0.360202
H83	H	0.074739	0.248676	-0.449477
N84	N	0.098974	-0.229456	-0.373539
N85	N	0.009898	-0.256016	-0.401127
H86	H	-0.003764	-0.278581	-0.490378
H87	H	0.096719	0.020282	-0.347876
N88	N	-0.250232	-0.506378	0.000315
N89	N	-0.180281	-0.473522	0.000306
H90	H	-0.214921	-0.438436	0.000299
H91	H	0.199404	-0.427643	0.224750
N92	N	0.095126	-0.077849	-0.373543
N93	N	0.077094	-0.060632	-0.483989
H94	H	0.063449	-0.083176	-0.573279
H95	H	-0.450006	-0.652466	0.000275
N96	N	0.200981	-0.329510	0.250425
N97	N	0.299654	-0.334119	0.333260
H98	H	0.313318	-0.311578	0.422551
N99	N	0.213280	-0.041588	0.374197
N100	N	0.311644	-0.034894	0.457068
H101	H	0.326210	-0.048781	0.546346
N102	N	0.210678	0.060539	0.374213
N103	N	0.309343	0.055934	0.457063
H104	H	0.322997	0.078481	0.546346
N105	N	0.185251	0.286977	0.250521
N106	N	0.274321	0.313540	0.278136
H107	H	0.287969	0.336100	0.367396
N108	N	0.096397	-0.127317	-0.373553
N109	N	0.079519	-0.155245	-0.484009
H110	H	0.064950	-0.141360	-0.573290
H111	H	0.210634	-0.097534	0.348525
N112	N	0.217181	-0.193188	0.374145
N113	N	0.315558	-0.186500	0.457001
H114	H	0.330139	-0.200394	0.546268
N115	N	-0.226552	-0.640665	0.000393
N116	N	-0.144290	-0.652143	0.096083
H117	H	-0.109611	-0.687223	0.096117
N118	N	-0.463733	-0.528245	0.000287
N119	N	-0.576566	-0.517692	0.000270
H120	H	-0.611242	-0.482612	0.000235
