data_functionalizedCrystal
_audit_creation_method	'MofGen! by Chris Wilmer'
_symmetry_space_group_name_H-M	'P1'
_symmetry_Int_Tables_number	1
_symmetry_cell_setting	triclinic
loop_
_symmetry_equiv_pos_as_xyz
  x,y,z
_cell_length_a	8.559649
_cell_length_b	8.559649
_cell_length_c	7.681481
_cell_angle_alpha	94.904209
_cell_angle_beta	94.937828
_cell_angle_gamma	110.221336
loop_
_atom_site_label
_atom_site_type_symbol
_atom_site_fract_x
_atom_site_fract_y
_atom_site_fract_z
O1	O	2.144125	0.072234	0.146401
O2	O	2.644125	0.572234	0.646401
O3	O	1.668641	-0.011546	0.146408
O4	O	2.168641	0.488454	0.646408
O5	O	1.948273	0.268086	0.146402
O6	O	2.448273	0.768086	0.646402
O7	O	1.864493	-0.207398	0.146407
O8	O	2.364493	0.292602	0.646407
O9	O	1.913759	0.233687	-0.146455
O10	O	2.413759	0.733687	0.353545
O11	O	1.634127	-0.045946	-0.146449
O12	O	2.134127	0.454054	0.353551
O13	O	2.109611	0.037835	-0.146456
O14	O	2.609611	0.537835	0.353544
Zn15	Zn	1.866389	-0.009517	-0.192950
Zn16	Zn	2.366389	0.490483	0.307050
Zn17	Zn	1.911863	0.035805	0.192902
Zn18	Zn	2.411863	0.535805	0.692902
O19	O	1.829978	-0.241798	-0.146450
O20	O	2.329978	0.258202	0.353550
C21	C	1.591075	-0.035095	-0.000020
C22	C	2.091075	0.464905	0.499980
C23	C	1.411376	-0.053994	-0.000017
C24	C	1.911376	0.446006	0.499983
N25	N	1.942901	0.066749	0.456235
N26	N	2.442901	0.566749	0.956235
C27	C	1.937366	0.311196	-0.000024
C28	C	2.437366	0.811196	0.499976
C29	C	1.956266	0.490896	-0.000014
C30	C	2.456266	0.990896	0.499986
C31	C	2.187177	0.061384	-0.000025
C32	C	2.687177	0.561384	0.499975
C33	C	2.366878	0.080284	-0.000016
C34	C	2.866878	0.580284	0.499984
C35	C	1.840886	-0.284907	-0.000021
C36	C	2.340886	0.215093	0.499979
C37	C	1.821988	-0.464606	-0.000019
C38	C	2.321988	0.035394	0.499981
N39	N	1.835366	-0.040446	-0.456284
N40	N	2.335366	0.459554	0.043716
H41	H	1.311989	-0.183421	-0.000006
H42	H	1.811989	0.316579	0.499994
H43	H	1.725604	-0.149870	0.468522
H44	H	2.225604	0.350130	0.968522
H45	H	2.052659	0.176190	0.531439
H46	H	2.552659	0.676190	1.031439
H47	H	1.466257	0.209704	-0.000009
H48	H	1.966257	0.709704	0.499991
H49	H	1.692568	0.436015	-0.000023
H50	H	2.192568	0.936015	0.499977
H51	H	2.085692	0.590282	-0.000030
H52	H	2.585692	1.090282	0.499970
