data_functionalizedCrystal
_audit_creation_method	'MofGen! by Chris Wilmer'
_symmetry_space_group_name_H-M	'P1'
_symmetry_Int_Tables_number	1
_symmetry_cell_setting	triclinic
loop_
_symmetry_equiv_pos_as_xyz
  x,y,z
_cell_length_a	12.759401
_cell_length_b	15.297327
_cell_length_c	12.759393
_cell_angle_alpha	99.642408
_cell_angle_beta	89.982824
_cell_angle_gamma	99.706546
loop_
_atom_site_label
_atom_site_type_symbol
_atom_site_fract_x
_atom_site_fract_y
_atom_site_fract_z
Zn1	Zn	1.533782	-0.359112	-0.666298
Zn2	Zn	1.503235	-0.509997	-0.521003
Zn3	Zn	1.358079	-0.359156	-0.490647
Zn4	Zn	1.327641	-0.509930	-0.696631
O5	O	1.430684	-0.434549	-0.593645
O6	O	1.676749	-0.379136	-0.647035
O7	O	1.483934	-0.490034	-0.369965
O8	O	1.406908	-0.232905	-0.488549
O9	O	1.654306	-0.489991	-0.540287
O10	O	1.535997	-0.232872	-0.617599
O11	O	1.377289	-0.379213	-0.347662
O12	O	1.207022	-0.379148	-0.517961
O13	O	1.355031	-0.489877	-0.839619
O14	O	1.184659	-0.489920	-0.669297
O15	O	1.506482	-0.379071	-0.817334
O16	O	1.454420	-0.636233	-0.569700
O17	O	1.325412	-0.636184	-0.698733
C18	C	1.157720	-0.434532	-0.593627
C19	C	1.040941	-0.434547	-0.593649
C20	C	0.974443	-0.492318	-0.672357
C21	C	0.864717	-0.492330	-0.672371
C22	C	0.887995	-0.376795	-0.514959
C23	C	0.997720	-0.376780	-0.514951
C24	C	0.961002	-0.559024	-0.763235
C25	C	0.851276	-0.559036	-0.763249
C26	C	1.383327	-0.668943	-0.640825
C27	C	1.363163	-0.769217	-0.661044
C28	C	1.575229	-1.051852	-0.449496
C29	C	1.594173	-0.957639	-0.430494
C30	C	1.536423	-0.910529	-0.488130
C31	C	1.459724	-0.957641	-0.564771
C32	C	1.440772	-1.051864	-0.583769
C33	C	1.401966	-0.910541	-0.622403
C34	C	1.325267	-0.957653	-0.699044
C35	C	1.306319	-1.051866	-0.718039
C36	C	1.364070	-1.098976	-0.660403
C37	C	1.420918	-0.816318	-0.603405
C38	C	1.286461	-0.816330	-0.737678
C39	C	1.267517	-0.910543	-0.756679
C40	C	1.704714	-0.434566	-0.593663
C41	C	1.821489	-0.434573	-0.593671
C42	C	1.430769	-0.434461	-0.867661
C43	C	1.430805	-0.434424	-0.984430
C44	C	1.478255	-0.199239	-0.546304
C45	C	1.498527	-0.098965	-0.526130
C46	C	1.351973	-0.492094	-1.050893
C47	C	1.352018	-0.492061	-1.160610
C48	C	1.509732	-0.376682	-1.137392
C49	C	1.509691	-0.376720	-1.027677
C50	C	1.260915	-0.558704	-1.064298
C51	C	1.260960	-0.558671	-1.174015
C52	C	1.430673	-0.434571	-0.320682
C53	C	1.430892	-0.434354	-0.203862
H54	H	0.822308	-0.534097	-0.835579
C55	C	1.678521	-0.905823	-0.346174
N56	N	1.742051	-0.866794	-0.282653
C57	C	1.596416	-0.313283	-0.954572
N58	N	1.661739	-0.265497	-0.899509
H59	H	1.348652	-1.175692	-0.675873
C60	C	1.222933	-0.764513	-0.801083
N61	N	1.175087	-0.725478	-0.848836
H62	H	1.551851	-0.833817	-0.472653
C63	C	1.271231	-0.653117	-1.043065
N64	N	1.278993	-0.724229	-1.027072
C65	C	1.163316	-0.524901	-1.011515
N66	N	1.089806	-0.499439	-0.971759
C67	C	1.070866	-0.313219	-0.428373
N68	N	1.125960	-0.265342	-0.363160
H69	H	0.807386	-0.628889	-0.755384
C70	C	0.988878	-0.648640	-0.741724
N71	N	1.009874	-0.716138	-0.725519
H72	H	1.243854	-1.090222	-0.780432
H73	H	1.622235	-1.090218	-0.402571
H74	H	1.205067	-0.948915	-0.819081
C75	C	1.156168	-0.533360	-1.209159
N76	N	1.077242	-0.514293	-1.235628
H77	H	0.852792	-0.329763	-0.450886
C78	C	1.505286	-0.764506	-0.519103
N79	N	1.568839	-0.725481	-0.455603
C80	C	1.596494	-0.313203	-1.184973
N81	N	1.661843	-0.265386	-1.220809
H82	H	0.994568	-0.540392	-0.840890
C83	C	1.282210	-0.648329	-1.238034
N84	N	1.298216	-0.715858	-1.286254
