data_functionalizedCrystal
_audit_creation_method	'MofGen! by Chris Wilmer'
_symmetry_space_group_name_H-M	'P1'
_symmetry_Int_Tables_number	1
_symmetry_cell_setting	triclinic
loop_
_symmetry_equiv_pos_as_xyz
  x,y,z
_cell_length_a	18.050590
_cell_length_b	25.639239
_cell_length_c	18.050582
_cell_angle_alpha	90.024638
_cell_angle_beta	89.999233
_cell_angle_gamma	90.027853
loop_
_atom_site_label
_atom_site_type_symbol
_atom_site_fract_x
_atom_site_fract_y
_atom_site_fract_z
Zn1	Zn	1.135238	-0.208335	0.419591
Zn2	Zn	1.135126	-0.295763	0.295396
Zn3	Zn	1.011058	-0.208327	0.295449
Zn4	Zn	1.010983	-0.295725	0.419579
O5	O	1.073101	-0.252037	0.357504
O6	O	1.239148	-0.219952	0.403099
O7	O	1.118653	-0.284177	0.191479
O8	O	1.027609	-0.135163	0.311944
O9	O	1.239066	-0.284185	0.311854
O10	O	1.118844	-0.135169	0.403150
O11	O	1.027500	-0.219938	0.191517
O12	O	0.907123	-0.219901	0.311932
O13	O	1.027481	-0.284120	0.523505
O14	O	0.907068	-0.284112	0.403130
O15	O	1.118771	-0.219915	0.523514
O16	O	1.118580	-0.368923	0.311843
O17	O	1.027373	-0.368895	0.403079
C18	C	0.880149	-0.252002	0.357536
C19	C	0.797603	-0.251999	0.357567
C20	C	0.598144	-0.287017	0.407043
C21	C	0.548764	-0.239344	0.425320
C22	C	0.646473	-0.252028	0.357531
C23	C	0.548772	-0.299728	0.339253
C24	C	0.500488	-0.252061	0.357497
C25	C	0.598180	-0.204330	0.375844
C26	C	0.598192	-0.264747	0.289745
C27	C	0.548834	-0.217041	0.307997
C28	C	0.730571	-0.252010	0.357552
C29	C	0.416391	-0.252073	0.357476
C30	C	1.072976	-0.387880	0.357470
C31	C	1.072991	-0.445994	0.357480
C32	C	1.120717	-0.806359	0.310078
C33	C	1.120746	-0.860963	0.310088
O34	O	1.161195	-0.889202	0.269748
N35	N	1.073232	-0.888277	0.357553
C36	C	1.025691	-0.860982	0.405017
O37	O	0.985280	-0.889228	0.445391
C38	C	1.025667	-0.806379	0.405010
C39	C	1.073179	-0.779069	0.357536
C40	C	1.168226	-0.779049	0.262609
C41	C	1.168196	-0.724448	0.262598
C42	C	1.120657	-0.697158	0.310057
C43	C	1.073149	-0.724468	0.357526
C44	C	0.978131	-0.779086	0.452477
C45	C	0.978111	-0.724479	0.452466
C46	C	1.025622	-0.697169	0.404993
C47	C	1.025580	-0.642578	0.404973
N48	N	1.073094	-0.615265	0.357508
C49	C	1.120633	-0.642555	0.310050
C50	C	1.025747	-0.975653	0.405028
C51	C	1.025767	-1.030255	0.405032
C52	C	1.120823	-1.030233	0.310104
C53	C	1.120799	-0.975629	0.310097
C54	C	1.073261	-0.948340	0.357563
C55	C	1.120566	-0.527890	0.310030
C56	C	1.120529	-0.473284	0.310022
C57	C	1.025477	-0.473312	0.404952
C58	C	1.025510	-0.527913	0.404958
C59	C	1.073061	-0.555200	0.357495
O60	O	0.985154	-0.614305	0.445295
O61	O	1.161044	-0.614302	0.269689
C62	C	1.266807	-0.252074	0.357472
C63	C	1.349353	-0.252089	0.357459
C64	C	1.073130	-0.252014	0.551210
C65	C	1.073143	-0.252004	0.633755
C66	C	1.073247	-0.115664	0.357554
C67	C	1.073309	-0.057550	0.357576
C68	C	1.073115	-0.252023	0.164552
C69	C	1.073247	-0.251885	0.082006
C70	C	1.023537	-0.286871	0.833201
C71	C	1.091289	-0.299661	0.882573
C72	C	1.073179	-0.251965	0.784886
C73	C	1.005465	-0.239161	0.882595
C74	C	1.073209	-0.251927	0.930871
C75	C	1.140967	-0.264779	0.833171
C76	C	1.055097	-0.204257	0.833188
C77	C	1.122895	-0.217028	0.882538
C78	C	1.073162	-0.251988	0.700787
C79	C	1.073234	-0.251904	1.014968
H80	H	0.527319	-0.187432	0.266112
O81	O	0.623949	-0.322196	0.457146
C82	C	0.628003	-0.348547	0.585207
C83	C	0.598742	-0.308667	0.528545
H84	H	0.607622	-0.337630	0.642943
H85	H	0.691156	-0.348466	0.584441
H86	H	0.606850	-0.389095	0.570170
H87	H	0.619840	-0.268100	0.543543
H88	H	0.535589	-0.308794	0.529321
H89	H	0.527052	-0.228597	0.482631
O90	O	0.624079	-0.156244	0.394374
C91	C	0.731421	-0.102272	0.415135
C92	C	0.702188	-0.156754	0.394154
H93	H	0.794575	-0.102663	0.414949
H94	H	0.710674	-0.091363	0.472745
H95	H	0.710646	-0.072442	0.373188
H96	H	0.722951	-0.186620	0.436051
H97	H	0.722929	-0.167618	0.336526
O98	O	1.109661	-0.347774	0.908376
C99	C	1.201316	-0.416039	0.911489
C100	C	1.180603	-0.361552	0.882203
H101	H	1.258679	-0.427191	0.890353
H102	H	1.158977	-0.445804	0.891208
H103	H	1.201641	-0.415442	0.974640
H104	H	1.180285	-0.362098	0.819054
H105	H	1.222946	-0.331810	0.902541
O106	O	0.931956	-0.805526	0.498666
C107	C	0.837654	-0.799762	0.592801
C108	C	0.889923	-0.769755	0.540537
H109	H	0.803646	-0.770854	0.626656
H110	H	0.871701	-0.825275	0.631711
H111	H	0.798880	-0.825377	0.558683
H112	H	0.928707	-0.744112	0.574595
H113	H	0.855830	-0.744276	0.501625
H114	H	0.981596	-0.316429	0.811539
H115	H	0.986824	-0.550150	0.443618
H116	H	0.939401	-0.702263	0.491121
H117	H	1.198261	-0.275639	0.811552
O118	O	1.173148	-0.181851	0.908191
C119	C	1.301287	-0.155583	0.911939
C120	C	1.244456	-0.195461	0.882850
H121	H	1.358950	-0.166566	0.891449
H122	H	1.300655	-0.155583	0.975094
H123	H	1.286313	-0.115052	0.890766
H124	H	1.259390	-0.236011	0.903968
H125	H	1.245098	-0.195415	0.819695
H126	H	0.987072	-1.052487	0.443682
O127	O	1.166848	-0.949079	0.263906
C128	C	1.176888	-0.887441	0.163664
C129	C	1.124649	-0.917482	0.215918
H130	H	1.142792	-0.861880	0.124863
H131	H	1.210852	-0.916307	0.129692
H132	H	1.215705	-0.861868	0.197796
H133	H	1.085788	-0.943056	0.181843
H134	H	1.090737	-0.888588	0.249892
O135	O	1.036678	-0.156175	0.807315
C136	C	0.944452	-0.088321	0.803134
C137	C	0.965222	-0.142783	0.832473
H138	H	0.886686	-0.077472	0.823476
H139	H	0.945102	-0.088700	0.739982
H140	H	0.986225	-0.058455	0.824269
H141	H	0.923470	-0.172679	0.811394
H142	H	0.964595	-0.142361	0.895625
H143	H	0.948187	-0.228347	0.904306
O144	O	0.624084	-0.277672	0.221415
C145	C	0.627160	-0.342153	0.124304
C146	C	0.597798	-0.327578	0.201699
H147	H	0.605906	-0.382497	0.108333
H148	H	0.690311	-0.342442	0.125124
H149	H	0.606956	-0.312286	0.082132
H150	H	0.617947	-0.357430	0.243914
H151	H	0.534648	-0.327273	0.200818
H152	H	0.986769	-0.451084	0.443590
H153	H	0.527066	-0.340054	0.323809
O154	O	1.166756	-0.446837	0.263881
C155	C	1.261008	-0.452587	0.169695
C156	C	1.208709	-0.482601	0.221920
H157	H	1.294929	-0.481489	0.135744
H158	H	1.299855	-0.427000	0.203773
H159	H	1.226913	-0.427045	0.130865
H160	H	1.242743	-0.508171	0.260760
H161	H	1.169859	-0.508155	0.187795
H162	H	1.159288	-0.550101	0.271383
H163	H	1.206941	-0.801263	0.223962
O164	O	1.214427	-0.698004	0.216466
C165	C	1.308690	-0.703765	0.122292
C166	C	1.256376	-0.733773	0.174510
H167	H	1.342609	-0.732671	0.088346
H168	H	1.347539	-0.678183	0.156376
H169	H	1.274607	-0.678219	0.083459
H170	H	1.290400	-0.759347	0.213354
H171	H	1.217526	-0.759322	0.140379
O172	O	1.167034	-1.056829	0.264125
C173	C	1.209280	-1.140945	0.222167
C174	C	1.156894	-1.110889	0.274251
H175	H	1.201089	-1.184658	0.230325
H176	H	1.269141	-1.130183	0.235317
H177	H	1.196354	-1.130239	0.162254
H178	H	1.169752	-1.121579	0.334181
H179	H	1.097048	-1.121653	0.261037
O180	O	0.979489	-0.949227	0.451157
C181	C	0.885241	-0.955024	0.545342
C182	C	0.937575	-0.985012	0.493126
H183	H	0.851350	-0.983943	0.579299
H184	H	0.846366	-0.929510	0.511255
H185	H	0.919306	-0.929412	0.584166
H186	H	0.903569	-1.010652	0.454292
H187	H	0.976451	-1.010493	0.527259
