data_functionalizedCrystal
_audit_creation_method	'MofGen! by Chris Wilmer'
_symmetry_space_group_name_H-M	'P1'
_symmetry_Int_Tables_number	1
_symmetry_cell_setting	triclinic
loop_
_symmetry_equiv_pos_as_xyz
  x,y,z
_cell_length_a	14.908795
_cell_length_b	14.909351
_cell_length_c	10.685880
_cell_angle_alpha	97.367245
_cell_angle_beta	82.067564
_cell_angle_gamma	90.205285
loop_
_atom_site_label
_atom_site_type_symbol
_atom_site_fract_x
_atom_site_fract_y
_atom_site_fract_z
Zn1	Zn	1.444857	-0.322736	-0.856341
Zn2	Zn	1.441871	-0.462827	-0.656418
Zn3	Zn	1.281512	-0.319900	-0.631925
Zn4	Zn	1.303209	-0.481773	-0.857680
O5	O	1.367862	-0.396809	-0.750591
O6	O	1.570852	-0.334578	-0.839511
O7	O	1.410270	-0.434752	-0.475022
O8	O	1.295350	-0.193903	-0.650884
O9	O	1.568658	-0.437502	-0.692629
O10	O	1.415358	-0.195987	-0.815761
O11	O	1.292455	-0.329743	-0.457027
O12	O	1.158000	-0.348114	-0.652182
O13	O	1.332328	-0.469792	-1.035650
O14	O	1.173940	-0.467042	-0.818042
O15	O	1.436396	-0.352948	-1.034666
O16	O	1.431308	-0.591714	-0.693927
O17	O	1.329433	-0.605633	-0.841793
C18	C	1.133198	-0.409327	-0.732600
C19	C	1.032811	-0.414705	-0.724936
C20	C	1.382427	-0.631441	-0.770692
C21	C	1.388743	-0.731815	-0.779341
C22	C	0.890166	-0.475770	-0.637525
C23	C	0.984489	-0.470720	-0.644726
C24	C	0.986803	-0.363734	-0.797946
C25	C	0.892480	-0.368784	-0.790745
C26	C	0.844165	-0.424805	-0.710533
C27	C	0.749841	-0.429859	-0.703340
C28	C	0.752156	-0.322869	-0.856552
C29	C	0.846479	-0.317819	-0.863753
C30	C	1.460069	-0.874305	-0.877417
C31	C	1.454141	-0.779995	-0.869298
C32	C	1.329269	-0.777951	-0.697493
C33	C	1.335197	-0.872262	-0.705612
C34	C	1.400598	-0.920436	-0.795578
C35	C	1.406521	-1.014748	-0.803702
C36	C	1.281654	-1.012702	-0.631891
C37	C	1.275726	-0.918392	-0.623773
C38	C	1.603443	-0.384243	-0.768653
C39	C	1.703833	-0.378888	-0.776350
C40	C	1.387115	-0.413800	-1.082641
C41	C	1.395320	-0.421041	-1.224141
C42	C	1.353267	-0.161261	-0.730441
C43	C	1.347047	-0.060885	-0.721854
C44	C	1.348732	-0.379816	-0.419831
C45	C	1.340687	-0.372312	-0.278324
H46	H	0.710504	-0.475477	-0.638031
H47	H	0.885830	-0.272206	-0.929055
H48	H	1.233223	-1.050272	-0.565259
H49	H	1.026157	-0.318119	-0.863243
H50	H	0.714693	-0.281370	-0.916002
C51	C	1.478463	-1.067738	-0.902652
H52	H	1.513039	-1.026753	-0.950218
H53	H	1.449415	-1.109229	-0.958603
H54	H	1.517335	-1.099912	-0.860169
C55	C	1.532004	-0.927299	-0.976373
H56	H	1.566578	-0.886317	-1.023948
H57	H	1.502950	-0.968790	-1.032314
H58	H	1.570880	-0.959473	-0.933895
C59	C	0.837017	-0.537393	-0.549306
H60	H	0.877923	-0.567022	-0.506853
H61	H	0.805495	-0.581247	-0.598485
H62	H	0.794852	-0.501920	-0.488133
C63	C	1.269009	-0.308463	-1.194752
H64	H	1.272710	-0.311802	-1.107420
H65	H	1.210389	-0.326012	-1.212963
H66	H	1.279723	-0.248177	-1.212303
C67	C	1.203788	-0.865396	-0.524823
H68	H	1.208770	-0.802622	-0.531713
H69	H	1.213062	-0.875778	-0.441649
H70	H	1.145142	-0.885088	-0.540082
H71	H	1.448374	-0.468300	-1.286005
H72	H	1.502569	-0.742438	-0.935938
C73	C	1.035088	-0.526789	-0.564428
H74	H	0.992802	-0.560880	-0.515637
H75	H	1.066516	-0.487384	-0.508882
H76	H	1.077155	-0.566711	-0.619235
H77	H	1.276027	-0.738715	-0.624237
