data_functionalizedCrystal
_audit_creation_method	'MofGen! by Chris Wilmer'
_symmetry_space_group_name_H-M	'P1'
_symmetry_Int_Tables_number	1
_symmetry_cell_setting	triclinic
loop_
_symmetry_equiv_pos_as_xyz
  x,y,z
_cell_length_a	29.839131
_cell_length_b	10.685727
_cell_length_c	10.685986
_cell_angle_alpha	90.352518
_cell_angle_beta	85.582490
_cell_angle_gamma	94.339431
loop_
_atom_site_label
_atom_site_type_symbol
_atom_site_fract_x
_atom_site_fract_y
_atom_site_fract_z
Zn1	Zn	-0.206368	-1.863368	-0.856073
Zn2	Zn	-0.287674	-1.879210	-0.646260
Zn3	Zn	-0.207267	-1.669642	-0.630255
Zn4	Zn	-0.276176	-1.653474	-0.839927
O5	O	-0.244371	-1.766423	-0.743129
O6	O	-0.221589	-2.041015	-0.841696
O7	O	-0.282196	-1.864807	-0.468581
O8	O	-0.144283	-1.695477	-0.660270
O9	O	-0.281324	-2.052654	-0.687547
O10	O	-0.143623	-1.837806	-0.826177
O11	O	-0.223122	-1.710838	-0.456823
O12	O	-0.211972	-1.491951	-0.644614
O13	O	-0.261727	-1.667920	-1.017625
O14	O	-0.262599	-1.480072	-0.798659
O15	O	-0.210440	-1.822128	-1.029487
O16	O	-0.349014	-1.849129	-0.671891
O17	O	-0.340566	-1.683281	-0.814178
C18	C	-0.236136	-1.440494	-0.718148
C19	C	-0.232623	-1.301058	-0.707491
C20	C	-0.361090	-1.766201	-0.743049
C21	C	-0.411024	-1.766218	-0.743066
C22	C	-0.725058	-1.852917	-0.669169
C23	C	-0.912733	-1.853068	-0.669229
O24	O	-0.940728	-1.926606	-0.606337
N25	N	-0.931817	-1.766676	-0.743243
C26	C	-0.903979	-1.680246	-0.817254
O27	O	-0.924517	-1.606776	-0.880219
C28	C	-0.716304	-1.680101	-0.817199
C29	C	-0.697223	-1.766491	-0.743171
C30	C	-0.705977	-1.939300	-0.595147
C31	C	-0.659060	-1.939257	-0.595128
C32	C	-0.631226	-1.852831	-0.669130
C33	C	-0.650307	-1.766448	-0.743151
C34	C	-0.688466	-1.593678	-0.891216
C35	C	-0.641545	-1.593651	-0.891198
C36	C	-0.622464	-1.680041	-0.817170
C37	C	-0.575556	-1.679978	-0.817134
N38	N	-0.556472	-1.766370	-0.743119
C39	C	-0.584307	-1.852796	-0.669117
C40	C	-1.002511	-1.680326	-0.817276
C41	C	-1.049429	-1.680360	-0.817288
C42	C	-1.058181	-1.853185	-0.669264
C43	C	-1.011261	-1.853143	-0.669246
C44	C	-0.983427	-1.766718	-0.743261
C45	C	-0.485780	-1.852699	-0.669081
C46	C	-0.438859	-1.852644	-0.669064
C47	C	-0.430112	-1.679825	-0.817092
C48	C	-0.477028	-1.679874	-0.817104
C49	C	-0.504861	-1.766322	-0.743096
O50	O	-0.547535	-1.606488	-0.880003
O51	O	-0.563760	-1.926273	-0.606183
C52	C	-0.771974	-1.852960	-0.669188
C53	C	-0.791055	-1.766577	-0.743210
C54	C	-0.763220	-1.680151	-0.817212
C55	C	-0.837974	-1.766611	-0.743222
C56	C	-0.865808	-1.853037	-0.669220
C57	C	-0.846725	-1.939429	-0.595206
C58	C	-0.799809	-1.939386	-0.595186
C59	C	-0.782304	-1.593759	-0.891226
C60	C	-0.829221	-1.593808	-0.891239
C61	C	-0.857055	-1.680234	-0.817237
C62	C	-0.127197	-1.766678	-0.743239
C63	C	-0.077264	-1.766787	-0.743286
C64	C	-0.234701	-1.741453	-1.070348
C65	C	-0.230580	-1.730812	-1.209790
C66	C	-0.252637	-1.093626	-0.768196
C67	C	-0.256152	-1.233062	-0.778847
C68	C	-0.253973	-1.791368	-0.417188
C69	C	-0.257974	-1.802252	-0.277766
H70	H	-0.278985	-1.281526	-0.848098
C71	C	-0.201774	-1.235603	-0.613957
H72	H	-0.203380	-1.147330	-0.618822
H73	H	-0.171587	-1.255663	-0.634093
H74	H	-0.211329	-1.263416	-0.531240
H75	H	-0.844752	-1.523449	-0.951520
H76	H	-0.423326	-1.922993	-0.608777
H77	H	-1.064961	-1.610003	-0.877557
H78	H	-0.508436	-1.923095	-0.608819
H79	H	-0.284577	-1.871564	-1.229280
C80	C	-0.194639	-1.637189	-1.275268
H81	H	-0.178003	-1.593803	-1.213928
H82	H	-0.208949	-1.578640	-1.322184
H83	H	-0.174784	-1.681375	-1.330083
H84	H	-0.643528	-2.009606	-0.534851
H85	H	-0.728635	-2.009685	-0.534886
C86	C	-0.990276	-1.948179	-0.587827
H87	H	-1.013577	-1.999656	-0.543765
H88	H	-0.972402	-1.904407	-0.529445
H89	H	-0.971910	-1.999130	-0.640051
H90	H	-0.979851	-1.609945	-0.877549
C91	C	-1.088805	-1.948248	-0.587860
H92	H	-1.119479	-1.935891	-0.598481
H93	H	-1.083164	-1.936393	-0.502148
H94	H	-1.082669	-2.031114	-0.612756
C95	C	-0.709445	-1.498656	-0.972659
H96	H	-0.686142	-1.447199	-1.016736
H97	H	-0.727816	-1.447703	-0.920464
H98	H	-0.727314	-1.542451	-1.031048
C99	C	-0.610930	-1.498582	-0.972618
H100	H	-0.629017	-1.447138	-1.016697
H101	H	-0.592195	-1.542336	-1.030984
H102	H	-0.592695	-1.447600	-0.920390
H103	H	-0.492565	-1.609533	-0.877389
H104	H	-0.407441	-1.609454	-0.877340
H105	H	-0.784277	-2.009733	-0.534906
C106	C	-0.877349	-2.034494	-0.513804
H107	H	-0.908023	-2.022142	-0.524432
H108	H	-0.871711	-2.022637	-0.428091
H109	H	-0.871211	-2.117359	-0.538698
H110	H	-0.759644	-1.523381	-0.951489
