data_functionalizedCrystal
_audit_creation_method	'MofGen! by Chris Wilmer'
_symmetry_space_group_name_H-M	'P1'
_symmetry_Int_Tables_number	1
_symmetry_cell_setting	triclinic
loop_
_symmetry_equiv_pos_as_xyz
  x,y,z
_cell_length_a	12.759401
_cell_length_b	19.121063
_cell_length_c	19.121307
_cell_angle_alpha	85.035577
_cell_angle_beta	92.440521
_cell_angle_gamma	92.469017
loop_
_atom_site_label
_atom_site_type_symbol
_atom_site_fract_x
_atom_site_fract_y
_atom_site_fract_z
Zn1	Zn	1.613131	-0.297195	0.409716
Zn2	Zn	2.113131	0.202805	0.909716
Zn3	Zn	1.598669	-0.409818	0.297065
Zn4	Zn	2.098669	0.090182	0.797065
Zn5	Zn	1.430307	-0.292171	0.292074
Zn6	Zn	1.930307	0.207829	0.792074
Zn7	Zn	1.430191	-0.414824	0.414694
Zn8	Zn	1.930191	0.085176	0.914694
O9	O	1.518075	-0.353502	0.353387
O10	O	2.018075	0.146498	0.853387
O11	O	1.758234	-0.312142	0.394778
O12	O	2.258234	0.187858	0.894778
O13	O	1.570331	-0.390013	0.197942
O14	O	2.070331	0.109987	0.697942
O15	O	1.460660	-0.194374	0.303507
O16	O	1.960660	0.305626	0.803507
O17	O	1.747608	-0.394885	0.312014
O18	O	2.247608	0.105115	0.812014
O19	O	1.594981	-0.198065	0.389938
O20	O	2.094981	0.301935	0.889938
O21	O	1.446637	-0.303579	0.194274
O22	O	1.946637	0.196421	0.694274
O23	O	1.283271	-0.308434	0.308334
O24	O	1.783271	0.191566	0.808334
O25	O	1.460463	-0.403419	0.512495
O26	O	1.960463	0.096581	1.012495
O27	O	1.283186	-0.398547	0.398422
O28	O	1.783186	0.101453	0.898422
O29	O	1.594868	-0.316997	0.508837
O30	O	2.094868	0.183003	1.008837
O31	O	1.570219	-0.508945	0.316841
O32	O	2.070219	-0.008945	0.816841
O33	O	1.446439	-0.512624	0.403262
O34	O	1.946439	-0.012624	0.903262
C35	C	1.245108	-0.353489	0.353377
C36	C	1.745108	0.146511	0.853377
C37	C	1.128331	-0.353501	0.353390
C38	C	1.628331	0.146499	0.853390
C39	C	1.073443	-0.400491	0.400228
C40	C	1.573443	0.099509	0.900228
C41	C	0.963719	-0.400500	0.400236
C42	C	1.463719	0.099500	0.900236
C43	C	0.963780	-0.306526	0.306562
C44	C	1.463780	0.193474	0.806562
C45	C	1.073502	-0.306514	0.306558
C46	C	1.573502	0.193486	0.806558
C47	C	1.128272	-0.447478	0.447060
C48	C	1.628272	0.052522	0.947060
C49	C	1.073384	-0.494473	0.493901
C50	C	1.573384	0.005527	0.993901
C51	C	0.963660	-0.494482	0.493909
C52	C	1.463660	0.005518	0.993909
C53	C	0.908823	-0.447496	0.447076
C54	C	1.408823	0.052504	0.947076
C55	C	1.506776	-0.536316	0.361149
C56	C	2.006776	-0.036316	0.861149
C57	C	1.502040	-0.614525	0.364493
C58	C	2.002040	-0.114525	0.864493
C59	C	1.564315	-0.649331	0.321107
C60	C	2.064315	-0.149331	0.821107
C61	C	1.559868	-0.722818	0.324256
C62	C	2.059868	-0.222818	0.824256
C63	C	1.493139	-0.761497	0.370789
C64	C	1.993139	-0.261497	0.870789
C65	C	1.430862	-0.726686	0.414180
C66	C	1.930862	-0.226686	0.914180
C67	C	1.435315	-0.653201	0.411034
C68	C	1.935315	-0.153201	0.911034
C69	C	1.476469	-0.983471	0.382541
C70	C	1.976469	-0.483471	0.882541
C71	C	1.472018	-1.056961	0.385682
C72	C	1.972018	-0.556961	0.885682
C73	C	1.601026	-1.053088	0.295759
C74	C	2.101026	-0.553088	0.795759
C75	C	1.605469	-0.979602	0.292614
C76	C	2.105469	-0.479602	0.792614
C77	C	1.543196	-0.944797	0.336008
C78	C	2.043196	-0.444797	0.836008
C79	C	1.488589	-0.836612	0.374008
C80	C	1.988589	-0.336612	0.874008
C81	C	1.547753	-0.869684	0.332792
C82	C	2.047753	-0.369684	0.832792
C83	C	1.792108	-0.353516	0.353398
C84	C	2.292108	0.146484	0.853398
C85	C	1.908884	-0.353522	0.353402
C86	C	2.408884	0.146478	0.853402
C87	C	1.529266	-0.361327	0.536910
C88	C	2.029266	0.138673	1.036910
C89	C	1.534035	-0.364661	0.615116
C90	C	2.034035	0.135339	1.115116
C91	C	1.529447	-0.169975	0.345610
C92	C	2.029447	0.330025	0.845610
C93	C	1.534293	-0.091767	0.342296
C94	C	2.034293	0.408233	0.842296
C95	C	1.564294	-0.385813	1.057533
C96	C	2.064294	0.114187	1.557533
C97	C	1.559798	-0.382676	0.984050
C98	C	2.059798	0.117324	1.484050
C99	C	1.493156	-0.336102	0.945406
C100	C	1.993156	0.163898	1.445406
C101	C	1.430997	-0.292668	0.980250
C102	C	1.930997	0.207332	1.480250
C103	C	1.435489	-0.295809	1.053733
C104	C	1.935489	0.204191	1.553733
C105	C	1.476368	-0.324369	0.723442
C106	C	1.976368	0.175631	1.223442
C107	C	1.471884	-0.321229	0.649955
C108	C	1.971884	0.178771	1.149955
C109	C	1.600684	-0.411238	0.653760
C110	C	2.100684	0.088762	1.153760
C111	C	1.605174	-0.414373	0.727243
C112	C	2.105174	0.085627	1.227243
C113	C	1.543012	-0.370941	0.762081
C114	C	2.043012	0.129059	1.262081
C115	C	1.488561	-0.332892	0.870294
C116	C	1.988561	0.167108	1.370294
C117	C	1.547602	-0.374155	0.837192
C118	C	2.047602	0.125845	1.337192
C119	C	1.506917	-0.345721	1.170579
C120	C	2.006917	0.154279	1.670579
C121	C	1.502143	-0.342381	1.092372
C122	C	2.002143	0.157619	1.592372
H123	H	1.618648	-0.617844	0.283212
H124	H	2.118648	-0.117844	0.783212
H125	H	1.434256	-0.868112	0.411893
H126	H	1.934256	-0.368112	0.911893
C127	C	1.133706	-0.546153	0.545415
C128	C	1.633706	-0.046153	1.045415
N129	N	1.179139	-0.585080	0.584216
N130	N	1.679139	-0.085080	1.084216
H131	H	1.384879	-0.260441	1.082097
H132	H	1.884879	0.239559	1.582097
C133	C	1.408022	-0.945197	0.430312
C134	C	1.908022	-0.445197	0.930312
N135	N	1.356485	-0.916367	0.466309
N136	N	1.856485	-0.416367	0.966309
H137	H	1.376534	-0.758184	0.452071
H138	H	1.876534	-0.258184	0.952071
H139	H	1.610578	-0.751154	0.288926
H140	H	2.110578	-0.251154	0.788926
H141	H	1.601859	-0.412076	0.868658
H142	H	2.101859	0.087924	1.368658
C143	C	1.678481	-0.465611	0.769746
C144	C	2.178481	0.034389	1.269746
N145	N	1.733698	-0.504203	0.801759
N146	N	2.233698	-0.004203	1.301759
C147	C	1.669049	-0.459015	0.615433
C148	C	2.169049	0.040985	1.115433
N149	N	1.720541	-0.495005	0.586565
N150	N	2.220541	0.004995	1.086565
H151	H	1.659805	-0.948111	0.254724
H152	H	2.159805	-0.448111	0.754724
C153	C	0.903286	-0.546179	0.545431
C154	C	1.403286	-0.046179	1.045431
N155	N	0.857814	-0.585123	0.584236
N156	N	1.357814	-0.085123	1.084236
H157	H	1.434301	-0.294971	0.838823
H158	H	1.934301	0.205029	1.338823
H159	H	1.417617	-0.283298	0.618493
H160	H	1.917617	0.216702	1.118493
H161	H	1.217614	-0.447477	0.447057
H162	H	1.717614	0.052523	0.947057
C163	C	0.903455	-0.254850	0.255046
C164	C	1.403455	0.245150	0.755046
N165	N	0.858018	-0.215928	0.216241
N166	N	1.358018	0.284072	0.716241
H167	H	1.384606	-0.624862	0.446365
H168	H	1.884606	-0.124862	0.946365
H169	H	1.425749	-0.289005	0.751798
H170	H	1.925749	0.210995	1.251798
H171	H	1.651727	-1.081434	0.260432
H172	H	2.151727	-0.581434	0.760432
H173	H	1.610395	-0.418052	0.955688
H174	H	2.110395	0.081948	1.455688
C175	C	0.788123	-0.447509	0.447088
C176	C	1.288123	0.052491	0.947088
N177	N	0.697212	-0.447522	0.447094
N178	N	1.197212	0.052478	0.947094
C179	C	1.133882	-0.254824	0.255032
C180	C	1.633882	0.245176	0.755032
N181	N	1.179360	-0.215889	0.216222
N182	N	1.679360	0.284111	0.716222
C183	C	1.398615	-1.099506	0.436879
C184	C	1.898615	-0.599506	0.936879
N185	N	1.343331	-1.131552	0.475439
N186	N	1.843331	-0.631552	0.975439
H187	H	1.376730	-0.254750	0.948781
H188	H	1.876730	0.245250	1.448781
H189	H	1.602087	-0.838189	0.294908
H190	H	2.102087	-0.338189	0.794908
C191	C	1.637607	-0.437049	1.100035
C192	C	2.137607	0.062951	1.600035
N193	N	1.692824	-0.475643	1.132045
N194	N	2.192824	0.024357	1.632045
