data_functionalizedCrystal
_audit_creation_method	'MofGen! by Chris Wilmer'
_symmetry_space_group_name_H-M	'P1'
_symmetry_Int_Tables_number	1
_symmetry_cell_setting	triclinic
loop_
_symmetry_equiv_pos_as_xyz
  x,y,z
_cell_length_a	15.021413
_cell_length_b	19.288864
_cell_length_c	19.288865
_cell_angle_alpha	83.136245
_cell_angle_beta	89.985874
_cell_angle_gamma	89.980256
loop_
_atom_site_label
_atom_site_type_symbol
_atom_site_fract_x
_atom_site_fract_y
_atom_site_fract_z
O1	O	0.074328	-0.921349	-0.086652
O2	O	0.074268	-0.719089	-0.098340
O3	O	0.074282	-0.826063	0.008634
O4	O	0.074314	-0.814375	-0.193626
O5	O	-0.073782	-0.826052	0.008646
O6	O	-0.073796	-0.719078	-0.098329
O7	O	-0.073737	-0.921338	-0.086640
Zn8	Zn	-0.097275	-0.820206	-0.092483
Zn9	Zn	0.097806	-0.820221	-0.092498
O10	O	-0.073750	-0.814363	-0.193615
C11	C	0.000228	-0.693207	-0.097959
C12	C	0.000205	-0.616103	-0.096830
N13	N	-0.230412	-0.820201	-0.092472
N14	N	0.230944	-0.820231	-0.092503
C15	C	0.470604	-0.869794	-0.043106
C16	C	0.529987	-0.882917	-0.105871
C17	C	0.412551	-0.820221	-0.092494
C18	C	0.529910	-0.807120	-0.029720
C19	C	0.587975	-0.820213	-0.092480
C20	C	0.470627	-0.833376	-0.155291
C21	C	0.470544	-0.757552	-0.079099
C22	C	0.529901	-0.770649	-0.141909
C23	C	0.311493	-0.820228	-0.092501
C24	C	0.689030	-0.820206	-0.092480
C25	C	0.000247	-0.825682	0.034516
C26	C	0.000239	-0.824553	0.111620
C27	C	0.000305	-0.947220	-0.087022
C28	C	0.000335	-1.024324	-0.088151
C29	C	0.000229	-0.571407	-0.159598
C30	C	0.000238	-0.498960	-0.158537
C31	C	0.000242	-0.471212	-0.094705
C32	C	0.000213	-0.515918	-0.031929
C33	C	0.000194	-0.588364	-0.032991
C34	C	0.052137	-0.362954	-0.044530
C35	C	0.052161	-0.290510	-0.043470
C36	C	0.000295	-0.247767	-0.091425
C37	C	-0.051584	-0.277475	-0.140452
C38	C	-0.051602	-0.349921	-0.141515
C39	C	0.000262	-0.392658	-0.093546
C40	C	0.000328	-0.124514	-0.153047
C41	C	0.000333	-0.052066	-0.151984
C42	C	0.000316	-0.069026	-0.025374
C43	C	0.000303	-0.141473	-0.026439
C44	C	0.000313	-0.169212	-0.090278
C45	C	0.000286	-0.814745	-0.219497
C46	C	0.000300	-0.815874	-0.296601
C47	C	0.000253	-0.887321	0.156316
C48	C	0.000267	-0.886260	0.228763
C49	C	0.000249	-0.822428	0.256511
C50	C	0.000240	-0.759652	0.211805
C51	C	0.000235	-0.760714	0.139359
C52	C	-0.051630	-0.772244	0.364802
C53	C	-0.051630	-0.771184	0.437247
C54	C	0.000268	-0.819148	0.479956
C55	C	0.052155	-0.868183	0.450214
C56	C	0.052150	-0.869246	0.377769
C57	C	0.000254	-0.821269	0.335065
C58	C	0.000298	-0.880770	0.603209
C59	C	0.000317	-0.879707	0.675657
C60	C	0.000281	-0.753097	0.658697
C61	C	0.000271	-0.754162	0.586250
C62	C	0.000275	-0.818000	0.558511
H63	H	0.444569	-0.911746	-0.001393
H64	H	0.000260	-0.939303	0.133736
Br65	Br	-0.121976	-0.219476	-0.205542
H66	H	0.556097	-0.935912	-0.117200
Br67	Br	0.573029	-0.700766	-0.211584
H68	H	0.444695	-0.844511	-0.208386
Br69	Br	0.426992	-0.669249	-0.060185
H70	H	0.555952	-0.796042	0.023361
Br71	Br	0.122580	-0.250196	0.023057
Br72	Br	0.000251	-0.668972	0.525587
Br73	Br	0.000290	-0.971451	0.289434
Br74	Br	0.000295	-0.967406	0.565558
Br75	Br	-0.122007	-0.390239	-0.208046
Br76	Br	0.122569	-0.935787	0.337405
H77	H	-0.093875	-0.731254	0.461456
Br78	Br	0.000160	-0.649028	0.052201
H79	H	0.000239	-0.593987	-0.211580
Br80	Br	0.000265	-0.438288	-0.243728
H81	H	0.000324	-0.147101	-0.205028
Br82	Br	0.000357	0.008596	-0.237177
Br83	Br	0.000306	-0.031377	0.061257
Br84	Br	-0.122070	-0.707145	0.306846
H85	H	0.000227	-0.707679	0.234401
H86	H	0.000270	-0.701123	0.681288
Br87	Br	0.000273	-0.202136	0.058751
H88	H	0.094378	-0.397750	-0.005477
H89	H	0.000228	-0.493322	0.020044
H90	H	0.094416	-0.907240	0.484988
H91	H	0.000334	-0.930822	0.712049
H92	H	0.000223	-0.709599	0.102967
