data_functionalizedCrystal
_audit_creation_method	'MofGen! by Chris Wilmer'
_symmetry_space_group_name_H-M	'P1'
_symmetry_Int_Tables_number	1
_symmetry_cell_setting	triclinic
loop_
_symmetry_equiv_pos_as_xyz
  x,y,z
_cell_length_a	12.759401
_cell_length_b	12.594516
_cell_length_c	12.759393
_cell_angle_alpha	90.029124
_cell_angle_beta	90.018496
_cell_angle_gamma	90.016214
loop_
_atom_site_label
_atom_site_type_symbol
_atom_site_fract_x
_atom_site_fract_y
_atom_site_fract_z
Zn1	Zn	1.606246	-0.423675	0.593999
Zn2	Zn	1.606136	-0.601694	0.418327
Zn3	Zn	1.430547	-0.423730	0.418339
Zn4	Zn	1.430532	-0.601612	0.593968
O5	O	1.518365	-0.512678	0.506158
O6	O	1.753252	-0.447300	0.570704
O7	O	1.582804	-0.578144	0.271307
O8	O	1.453907	-0.274777	0.441658
O9	O	1.753171	-0.578090	0.441638
O10	O	1.582991	-0.274736	0.570715
O11	O	1.453800	-0.447395	0.271316
O12	O	1.283524	-0.447316	0.441628
O13	O	1.453880	-0.577951	0.740993
O14	O	1.283513	-0.578005	0.570663
O15	O	1.582976	-0.447221	0.741016
O16	O	1.582789	-0.750629	0.441608
O17	O	1.453774	-0.750569	0.570651
C18	C	1.245398	-0.512658	0.506144
C19	C	1.128621	-0.512676	0.506163
C20	C	1.073781	-0.580834	0.573240
C21	C	0.964057	-0.580848	0.573251
C22	C	0.964023	-0.444541	0.439099
C23	C	1.073745	-0.444523	0.439094
C24	C	1.073799	-0.659533	0.650688
C25	C	0.964075	-0.659547	0.650700
C26	C	1.518296	-0.789219	0.506148
C27	C	1.518363	-0.907524	0.506179
C28	C	1.448185	-0.976783	0.576316
C29	C	1.422585	-1.047654	0.480449
C30	C	1.544058	-1.047453	0.602062
C31	C	1.492713	-0.976836	0.410261
C32	C	1.614230	-0.976629	0.531938
C33	C	1.588667	-1.047468	0.436006
C34	C	1.792398	-0.512698	0.506173
C35	C	1.909175	-0.512707	0.506179
C36	C	1.518439	-0.512570	0.780192
C37	C	1.518470	-0.512525	0.896968
C38	C	1.518463	-0.235057	0.506192
C39	C	1.518505	-0.116752	0.506206
C40	C	1.518352	-0.512708	0.233191
C41	C	1.518525	-0.512454	0.116415
C42	C	1.585700	-0.444447	0.951844
C43	C	1.585725	-0.444409	1.061568
C44	C	1.451288	-0.580534	1.061531
C45	C	1.451258	-0.580567	0.951809
C46	C	1.663319	-0.365859	0.951866
C47	C	1.663344	-0.365821	1.061590
H48	H	1.388731	-0.945746	0.635542
H49	H	1.341578	-1.078874	0.458684
H50	H	1.740590	-0.395410	0.917831
O51	O	0.928463	-0.757889	0.624714
C52	C	0.826760	-0.909876	0.677750
C53	C	0.867041	-0.798532	0.707322
H54	H	0.777074	-0.942760	0.744512
H55	H	0.896192	-0.964879	0.663162
H56	H	0.777133	-0.904384	0.603638
H57	H	0.916650	-0.803922	0.781448
H58	H	0.797562	-0.743573	0.721842
O59	O	1.466709	-0.939815	0.313584
C60	C	1.437523	-0.786083	0.205093
C61	C	1.466967	-0.827868	0.314629
H62	H	1.437743	-0.695569	0.205896
H63	H	1.356088	-0.815895	0.182985
H64	H	1.497019	-0.815862	0.145279
H65	H	1.407541	-0.798106	0.374516
H66	H	1.548428	-0.798064	0.336648
O67	O	1.659422	-1.084221	0.365041
C68	C	1.712356	-1.089693	0.183852
C69	C	1.632146	-1.048017	0.264106
H70	H	1.690345	-1.060420	0.102231
H71	H	1.712385	-1.180206	0.184774
H72	H	1.793774	-1.059244	0.205157
H73	H	1.550689	-1.078387	0.242856
H74	H	1.632208	-0.957504	0.263169
O75	O	1.710880	-0.939331	0.557769
C76	C	1.860107	-0.835506	0.503987
C77	C	1.750672	-0.877697	0.474577
H78	H	1.892303	-0.785648	0.436752
H79	H	1.915001	-0.905153	0.519514
H80	H	1.854000	-0.784420	0.577514
H81	H	1.756678	-0.928767	0.401035
H82	H	1.695821	-0.808001	0.459118
H83	H	1.103608	-0.637550	0.732094
H84	H	1.396564	-0.635930	1.106196
O85	O	1.114212	-0.752982	0.615780
C86	C	1.077753	-0.928548	0.550039
C87	C	1.031845	-0.822784	0.589579
H88	H	1.011182	-0.985003	0.528824
H89	H	1.128023	-0.965671	0.614164
H90	H	1.128054	-0.913235	0.477780
H91	H	0.981498	-0.838006	0.661819
H92	H	0.981635	-0.785693	0.525390
H93	H	1.565734	-1.078472	0.683138
H94	H	1.634232	-0.287500	1.095635
H95	H	1.744714	-0.387898	1.091369
O96	O	1.385902	-0.646781	0.898665
C97	C	1.252483	-0.781715	0.910212
C98	C	1.326472	-0.706804	0.970528
H99	H	1.204399	-0.830247	0.968287
H100	H	1.300612	-0.837471	0.858854
H101	H	1.197607	-0.732820	0.858830
H102	H	1.381363	-0.755613	1.021967
H103	H	1.278277	-0.651044	1.021819
O104	O	1.637284	-0.267479	0.916530
C105	C	1.590013	-0.088156	0.962384
C106	C	1.619462	-0.199522	1.002544
H107	H	1.575617	-0.033176	1.031905
H108	H	1.515864	-0.093474	0.912782
H109	H	1.656838	-0.055354	0.912721
H110	H	1.552705	-0.232389	1.052251
H111	H	1.693644	-0.194137	1.052089
H112	H	0.919330	-0.389052	0.384496
O113	O	1.126855	-0.378269	0.373847
C114	C	1.115239	-0.243006	0.240855
C115	C	1.054962	-0.318008	0.314675
H116	H	1.057139	-0.194250	0.193010
H117	H	1.166556	-0.291734	0.185757
H118	H	1.166657	-0.187454	0.289210
H119	H	1.003486	-0.373576	0.266404
H120	H	1.003710	-0.269214	0.369775
H121	H	0.930078	-0.630122	0.728050
