data_functionalizedCrystal
_audit_creation_method	'MofGen! by Chris Wilmer'
_symmetry_space_group_name_H-M	'P1'
_symmetry_Int_Tables_number	1
_symmetry_cell_setting	triclinic
loop_
_symmetry_equiv_pos_as_xyz
  x,y,z
_cell_length_a	11.026607
_cell_length_b	11.026607
_cell_length_c	9.482900
_cell_angle_alpha	101.400185
_cell_angle_beta	78.636152
_cell_angle_gamma	108.586017
loop_
_atom_site_label
_atom_site_type_symbol
_atom_site_fract_x
_atom_site_fract_y
_atom_site_fract_z
O1	O	-1.742236	-0.518010	0.120892
O2	O	-1.242236	-0.018010	0.620892
O3	O	-1.375656	-0.457246	0.120894
O4	O	-0.875656	0.042754	0.620894
O5	O	-1.528564	-0.304339	0.120888
O6	O	-1.028564	0.195661	0.620888
O7	O	-1.589328	-0.670917	0.120898
O8	O	-1.089328	-0.170917	0.620898
O9	O	-1.497539	-0.335557	-0.120903
O10	O	-0.997539	0.164443	0.379097
O11	O	-1.344632	-0.488465	-0.120897
O12	O	-0.844632	0.011535	0.379103
O13	O	-1.711212	-0.549228	-0.120899
O14	O	-1.211212	-0.049228	0.379101
Cu15	Cu	-1.525089	-0.521697	-0.142976
Cu16	Cu	-1.025089	-0.021697	0.357024
Cu17	Cu	-1.561779	-0.484778	0.142971
Cu18	Cu	-1.061779	0.015222	0.642971
O19	O	-1.558304	-0.702136	-0.120893
O20	O	-1.058304	-0.202136	0.379107
C21	C	-1.312485	-0.461645	-0.000001
C22	C	-0.812485	0.038355	0.499999
C23	C	-1.170471	-0.428228	-0.000000
C24	C	-0.670471	0.071772	0.500000
C25	C	-1.501842	-0.272288	-0.000006
C26	C	-1.001842	0.227712	0.499994
C27	C	-1.468426	-0.130273	-0.000000
C28	C	-0.968426	0.369727	0.500000
N29	N	-1.499293	-0.547665	-0.344095
N30	N	-0.999293	-0.047665	0.155905
C31	C	-1.774384	-0.544829	-0.000001
C32	C	-1.274384	-0.044829	0.499999
C33	C	-1.916399	-0.578244	0.000008
C34	C	-1.416399	-0.078244	0.500008
C35	C	-1.116822	-0.520498	0.000003
C36	C	-0.616822	-0.020498	0.500003
C37	C	-0.970043	-0.485962	0.000004
C38	C	-0.470043	0.014038	0.500004
C39	C	-1.585026	-0.734186	0.000004
C40	C	-1.085026	-0.234186	0.500004
C41	C	-1.618444	-0.876199	0.000008
C42	C	-1.118444	-0.376199	0.500008
C43	C	-1.560695	-0.076624	0.000001
C44	C	-1.060695	0.423376	0.500001
C45	C	-1.526161	0.070155	0.000007
C46	C	-1.026161	0.570155	0.500007
C47	C	-1.554160	-0.492428	-0.416296
C48	C	-1.054160	0.007572	0.083704
C49	C	-1.532708	-0.514046	-0.583713
C50	C	-1.032708	-0.014046	-0.083713
N51	N	-1.587583	-0.458801	0.344090
N52	N	-1.087583	0.041199	0.844090
H53	H	-1.179554	-0.625061	-0.000002
H54	H	-0.679554	-0.125061	0.499998
Br55	Br	-1.658533	-0.386539	-0.312760
Br56	Br	-1.158533	0.113461	0.187240
Br57	Br	-1.427926	-0.619537	-0.687244
Br58	Br	-0.927926	-0.119537	-0.187244
H59	H	-0.907319	-0.381388	0.000039
H60	H	-0.407319	0.118612	0.500039
H61	H	-1.665257	-0.139358	-0.000009
H62	H	-1.165257	0.360642	0.499991
H63	H	-1.421592	0.132886	0.000017
H64	H	-0.921592	0.632886	0.500017
Br65	Br	-1.065921	-0.253946	-0.000021
Br66	Br	-0.565921	0.246054	0.499979
Br67	Br	-1.792739	0.019263	0.000019
Br68	Br	-1.292739	0.519263	0.500019
H69	H	-1.363864	-0.067539	0.000010
H70	H	-0.863864	0.432461	0.500010
Br71	Br	-1.692718	-0.353661	-0.552384
Br72	Br	-1.192718	0.146339	-0.052384
Br73	Br	-1.394514	-0.653152	-0.447631
Br74	Br	-0.894514	-0.153152	0.052369
H75	H	-0.979125	-0.682816	0.000001
H76	H	-0.479125	-0.182816	0.500001
