data_functionalizedCrystal
_audit_creation_method	'MofGen! by Chris Wilmer'
_symmetry_space_group_name_H-M	'P1'
_symmetry_Int_Tables_number	1
_symmetry_cell_setting	triclinic
loop_
_symmetry_equiv_pos_as_xyz
  x,y,z
_cell_length_a	14.044220
_cell_length_b	14.044220
_cell_length_c	11.892095
_cell_angle_alpha	85.750402
_cell_angle_beta	94.243827
_cell_angle_gamma	93.188878
loop_
_atom_site_label
_atom_site_type_symbol
_atom_site_fract_x
_atom_site_fract_y
_atom_site_fract_z
O1	O	0.224587	1.282749	-0.093887
O2	O	0.724587	1.782749	0.406113
O3	O	0.216280	1.006079	-0.093915
O4	O	0.716280	1.506079	0.406085
O5	O	0.082098	1.140261	-0.093890
O6	O	0.582098	1.640261	0.406110
O7	O	0.358769	1.148568	-0.093912
O8	O	0.858769	1.648568	0.406088
O9	O	0.093267	1.129072	0.094115
O10	O	0.593267	1.629072	0.594115
O11	O	0.227449	0.994890	0.094090
O12	O	0.727449	1.494890	0.594090
O13	O	0.235756	1.271560	0.094118
O14	O	0.735756	1.771560	0.594118
Zn15	Zn	0.233376	1.131448	0.123954
Zn16	Zn	0.733376	1.631448	0.623954
Zn17	Zn	0.218660	1.146191	-0.123751
Zn18	Zn	0.718660	1.646191	0.376249
O19	O	0.369938	1.137378	0.094094
O20	O	0.869938	1.637378	0.594094
C21	C	0.218228	0.964863	0.000084
C22	C	0.718228	1.464863	0.500084
C23	C	0.207383	0.858721	0.000073
C24	C	0.707383	1.358721	0.500073
C25	C	0.187558	0.664382	0.000097
C26	C	0.687558	1.164382	0.500097
C27	C	0.264473	0.613252	0.000096
C28	C	0.764473	1.113252	0.500096
C29	C	0.253442	0.505115	0.000109
C30	C	0.753442	1.005115	0.500109
C31	C	0.198588	0.772529	0.000084
C32	C	0.698588	1.272529	0.500084
C33	C	0.052061	1.131031	0.000112
C34	C	0.552061	1.631031	0.500112
C35	C	-0.054082	1.120186	0.000113
C36	C	0.445918	1.620186	0.500113
C37	C	-0.248421	1.100361	0.000094
C38	C	0.251579	1.600361	0.500094
C39	C	-0.299550	1.177275	0.000099
C40	C	0.200450	1.677275	0.500099
C41	C	-0.407687	1.166244	0.000089
C42	C	0.092313	1.666244	0.500089
C43	C	-0.140274	1.111390	0.000105
C44	C	0.359726	1.611390	0.500105
C45	C	0.399975	1.146609	0.000088
C46	C	0.899975	1.646609	0.500088
C47	C	0.506117	1.157454	0.000081
C48	C	1.006117	1.657454	0.500081
C49	C	0.233807	1.312776	0.000117
C50	C	0.733807	1.812776	0.500117
C51	C	0.244652	1.418919	0.000120
C52	C	0.744652	1.918919	0.500120
N53	N	0.243419	1.121394	0.293006
N54	N	0.743419	1.621394	0.793006
N55	N	0.208610	1.156252	-0.292803
N56	N	0.708610	1.656252	0.207197
C57	C	0.138672	1.226211	0.529674
C58	C	0.638672	1.726211	1.029674
C59	C	0.145699	1.219191	0.648014
C60	C	0.645699	1.719191	1.148014
C61	C	0.264496	1.100328	0.648030
C62	C	0.764496	1.600328	1.148030
C63	C	0.257468	1.107349	0.529690
C64	C	0.757468	1.607349	1.029690
C65	C	0.194555	1.170293	0.470516
C66	C	0.694555	1.670293	0.970516
C67	C	0.187533	1.177318	0.352173
C68	C	0.687533	1.677318	0.852173
C69	C	0.306324	1.058451	0.352191
C70	C	0.806324	1.558451	0.852191
C71	C	0.313352	1.051431	0.470532
C72	C	0.813352	1.551431	0.970532
H73	H	0.338605	0.650692	0.000085
H74	H	0.838605	1.150692	0.500085
H75	H	0.100192	1.264723	0.696178
H76	H	0.600192	1.764723	1.196178
H77	H	-0.285858	1.026234	0.000084
H78	H	0.214142	1.526234	0.500084
Cl79	Cl	-0.241750	1.291731	0.000123
Cl80	Cl	0.258250	1.791731	0.500123
H81	H	0.136309	1.228573	0.303994
H82	H	0.636309	1.728573	0.803994
H83	H	0.113432	0.626944	0.000109
H84	H	0.613432	1.126944	0.500109
H85	H	0.087452	1.277470	0.481493
H86	H	0.587452	1.777470	0.981493
H87	H	0.315711	1.049074	0.696225
H88	H	0.815711	1.549074	1.196225
Cl89	Cl	0.392437	0.972302	0.544930
Cl90	Cl	0.892437	1.472302	1.044930
Cl91	Cl	0.376587	0.988158	0.277810
Cl92	Cl	0.876587	1.488158	0.777810
