data_functionalizedCrystal
_audit_creation_method	'MofGen! by Chris Wilmer'
_symmetry_space_group_name_H-M	'P1'
_symmetry_Int_Tables_number	1
_symmetry_cell_setting	triclinic
loop_
_symmetry_equiv_pos_as_xyz
  x,y,z
_cell_length_a	10.685972
_cell_length_b	10.686285
_cell_length_c	10.686551
_cell_angle_alpha	99.084519
_cell_angle_beta	81.590232
_cell_angle_gamma	90.336301
loop_
_atom_site_label
_atom_site_type_symbol
_atom_site_fract_x
_atom_site_fract_y
_atom_site_fract_z
Zn1	Zn	-2.015989	-0.282884	0.846645
Zn2	Zn	-1.515989	0.217116	1.346645
Zn3	Zn	-2.015887	-0.511473	0.618134
Zn4	Zn	-1.515887	-0.011473	1.118134
Zn5	Zn	-1.789922	-0.317996	0.615609
Zn6	Zn	-1.289922	0.182004	1.115609
Zn7	Zn	-1.820001	-0.511344	0.814049
Zn8	Zn	-1.320001	-0.011344	1.314049
O9	O	-1.910450	-0.405924	0.723609
O10	O	-1.410450	0.094076	1.223609
O11	O	-2.192564	-0.298566	0.831031
O12	O	-1.692564	0.201434	1.331031
O13	O	-1.973282	-0.500556	0.439119
O14	O	-1.473282	-0.000556	0.939119
O15	O	-1.807365	-0.136757	0.658841
O16	O	-1.307365	0.363243	1.158841
O17	O	-2.192489	-0.466509	0.663145
O18	O	-1.692489	0.033491	1.163145
O19	O	-1.973455	-0.110960	0.828582
O20	O	-1.473455	0.389040	1.328582
O21	O	-1.807266	-0.358410	0.437263
O22	O	-1.307266	0.141590	0.937263
O23	O	-1.617324	-0.358285	0.627234
O24	O	-1.117324	0.141715	1.127234
O25	O	-1.858630	-0.466290	0.997054
O26	O	-1.358630	0.033710	1.497054
O27	O	-1.639423	-0.500336	0.773027
O28	O	-1.139423	-0.000336	1.273027
O29	O	-2.002621	-0.298441	1.021002
O30	O	-1.502621	0.201559	1.521002
O31	O	-2.002448	-0.688037	0.631538
O32	O	-1.502448	-0.188037	1.131538
O33	O	-1.858531	-0.687942	0.775476
O34	O	-1.358531	-0.187942	1.275476
C35	C	-1.582586	-0.433107	0.696320
C36	C	-1.082586	0.066893	1.196320
C37	C	-1.442329	-0.444764	0.684673
C38	C	-0.942329	0.055236	1.184673
C39	C	-1.933778	-0.733770	0.700275
C40	C	-1.433778	-0.233770	1.200275
C41	C	-1.943877	-0.874011	0.690345
C42	C	-1.443877	-0.374011	1.190345
C43	C	-1.933992	-0.378434	1.056653
C44	C	-1.433992	0.121566	1.556653
C45	C	-1.944025	-0.366720	1.198577
C46	C	-1.444025	0.133280	1.698577
C47	C	-1.239593	-0.378628	0.751001
C48	C	-0.739593	0.121372	1.251001
C49	C	-1.379852	-0.366975	0.762659
C50	C	-0.879852	0.133025	1.262659
C51	C	-1.887067	-0.076793	0.747066
C52	C	-1.387067	0.423207	1.247066
C53	C	-1.877102	0.063464	0.757061
C54	C	-1.377102	0.563464	1.257061
C55	C	-1.887065	-0.433210	0.391874
C56	C	-1.387065	0.066790	0.891874
C57	C	-1.877252	-0.444548	0.249997
C58	C	-1.377252	0.055452	0.749997
H59	H	-1.388510	-0.520286	0.608985
H60	H	-0.888510	-0.020286	1.108985
H61	H	-1.812413	-0.520146	1.185444
H62	H	-1.312413	-0.020146	1.685444
H63	H	-1.433663	-0.291451	0.838335
H64	H	-0.933663	0.208549	1.338335
H65	H	-1.812209	-0.882780	0.821780
H66	H	-1.312209	-0.382780	1.321780
H67	H	-2.008877	-0.291126	1.263136
H68	H	-1.508877	0.208874	1.763136
H69	H	-2.008765	-0.927777	0.625613
H70	H	-1.508765	-0.427777	1.125613
