data_functionalizedCrystal
_audit_creation_method	'MofGen! by Chris Wilmer'
_symmetry_space_group_name_H-M	'P1'
_symmetry_Int_Tables_number	1
_symmetry_cell_setting	triclinic
loop_
_symmetry_equiv_pos_as_xyz
  x,y,z
_cell_length_a	17.077404
_cell_length_b	15.298852
_cell_length_c	17.077396
_cell_angle_alpha	99.698732
_cell_angle_beta	90.018362
_cell_angle_gamma	80.331075
loop_
_atom_site_label
_atom_site_type_symbol
_atom_site_fract_x
_atom_site_fract_y
_atom_site_fract_z
Zn1	Zn	1.254196	-0.359194	0.389781
Zn2	Zn	1.754196	0.140806	0.889781
Zn3	Zn	1.276844	-0.510059	0.235819
Zn4	Zn	1.776844	-0.010059	0.735819
Zn5	Zn	1.122932	-0.359220	0.258528
Zn6	Zn	1.622932	0.140780	0.758528
Zn7	Zn	1.145627	-0.510000	0.367054
Zn8	Zn	1.645627	-0.010000	0.867054
O9	O	1.199900	-0.434618	0.312795
O10	O	1.699900	0.065382	0.812795
O11	O	1.367050	-0.379221	0.369365
O12	O	1.867050	0.120779	0.869365
O13	O	1.256407	-0.490086	0.128979
O14	O	1.756407	0.009914	0.628979
O15	O	1.121369	-0.232976	0.294954
O16	O	1.621369	0.267024	0.794954
O17	O	1.383688	-0.490061	0.256250
O18	O	1.883688	0.009939	0.756250
O19	O	1.217808	-0.232957	0.391385
O20	O	1.717808	0.267043	0.891385
O21	O	1.143329	-0.379264	0.145663
O22	O	1.643329	0.120736	0.645663
O23	O	1.016094	-0.379207	0.272916
O24	O	1.516094	0.120793	0.772916
O25	O	1.160049	-0.489960	0.479921
O26	O	1.660049	0.010040	0.979921
O27	O	1.032768	-0.489984	0.352650
O28	O	1.532768	0.010016	0.852650
O29	O	1.239815	-0.379163	0.496619
O30	O	1.739815	0.120837	0.996619
O31	O	1.278414	-0.636291	0.234212
O32	O	1.778414	-0.136291	0.734212
O33	O	1.182010	-0.636248	0.330630
O34	O	1.682010	-0.136248	0.830630
C35	C	0.995948	-0.434593	0.312782
C36	C	1.495948	0.065407	0.812782
C37	C	0.908700	-0.434603	0.312791
C38	C	1.408700	0.065397	0.812791
C39	C	0.859062	-0.376991	0.371752
C40	C	1.359062	0.123009	0.871752
C41	C	0.777083	-0.376997	0.371754
C42	C	1.277083	0.123003	0.871754
C43	C	0.744743	-0.434620	0.312799
C44	C	1.244743	0.065380	0.812799
C45	C	0.794387	-0.492235	0.253833
C46	C	1.294387	0.007765	0.753833
C47	C	0.876364	-0.492224	0.253827
C48	C	1.376364	0.007776	0.753827
C49	C	0.623520	-0.492255	0.253849
C50	C	1.123520	0.007745	0.753849
C51	C	0.541537	-0.492268	0.253855
C52	C	1.041537	0.007732	0.753855
C53	C	0.524238	-0.377029	0.371776
C54	C	1.024238	0.122971	0.871776
C55	C	0.606216	-0.377018	0.371771
C56	C	1.106216	0.122982	0.871771
C57	C	0.655854	-0.434634	0.312805
C58	C	1.155854	0.065366	0.812805
C59	C	1.235153	-0.669002	0.277508
C60	C	1.735153	-0.169002	0.777508
C61	C	1.250306	-0.769272	0.262438
C62	C	1.750306	-0.269272	0.762438
C63	C	1.092111	-1.051953	0.420578
C64	C	1.592111	-0.551953	0.920578
C65	C	1.077875	-0.957744	0.434743
C66	C	1.577875	-0.457744	0.934743
C67	C	1.120981	-0.910621	0.391668
C68	C	1.620981	-0.410621	0.891668
C69	C	1.178326	-0.957717	0.334426
C70	C	1.678326	-0.457717	0.834426
C71	C	1.192567	-1.051935	0.320264
C72	C	1.692567	-0.551935	0.820264
C73	C	1.221438	-0.910604	0.291354
C74	C	1.721438	-0.410604	0.791354
C75	C	1.278783	-0.957700	0.234112
C76	C	1.778783	-0.457700	0.734112
C77	C	1.293021	-1.051909	0.219952
C78	C	1.793021	-0.551909	0.719952
C79	C	1.249915	-1.099031	0.263027
C80	C	1.749915	-0.599031	0.763027
C81	C	1.207197	-0.816386	0.305515
C82	C	1.707197	-0.316386	0.805515
C83	C	1.307654	-0.816368	0.205201
C84	C	1.807654	-0.316368	0.705201
C85	C	1.321889	-0.910577	0.191036
C86	C	1.821889	-0.410577	0.691036
C87	C	1.404648	-0.434645	0.312810
C88	C	1.904648	0.065355	0.812810
C89	C	1.491900	-0.434656	0.312816
C90	C	1.991900	0.065344	0.812816
C91	C	1.199937	-0.434552	0.517550
C92	C	1.699937	0.065448	1.017550
C93	C	1.199953	-0.434523	0.604804
C94	C	1.699953	0.065477	1.104804
C95	C	1.164530	-0.199319	0.348238
C96	C	1.664530	0.300681	0.848238
C97	C	1.149458	-0.099049	0.363342
C98	C	1.649458	0.400951	0.863342
C99	C	1.199898	-0.434619	0.108847
C100	C	1.699898	0.065381	0.608847
C101	C	1.199996	-0.434393	0.021632
C102	C	1.699996	0.065607	0.521632
C103	C	1.241488	-0.376827	0.654491
C104	C	1.741488	0.123173	1.154491
C105	C	1.241493	-0.376797	0.736476
C106	C	1.741493	0.123203	1.236476
C107	C	1.199967	-0.434469	0.768772
C108	C	1.699967	0.065531	1.268772
C109	C	1.158427	-0.492168	0.719079
C110	C	1.658427	0.007832	1.219079
C111	C	1.158418	-0.492192	0.637096
C112	C	1.658418	0.007808	1.137096
C113	C	1.158451	-0.492113	0.889957
C114	C	1.658451	0.007887	1.389957
C115	C	1.158461	-0.492090	0.971945
C116	C	1.658461	0.007910	1.471945
C117	C	1.241526	-0.376718	0.989337
C118	C	1.741526	0.123282	1.489337
C119	C	1.241517	-0.376743	0.907354
C120	C	1.741517	0.123257	1.407354
C121	C	1.199978	-0.434443	0.857667
C122	C	1.699978	0.065557	1.357667
H123	H	0.483818	-0.330114	0.419787
H124	H	0.983818	0.169886	0.919787
H125	H	1.261497	-1.175744	0.251493
H126	H	1.761497	-0.675744	0.751493
H127	H	1.275306	-0.329866	0.628201
H128	H	1.775306	0.170134	1.128201
H129	H	1.124613	-0.539122	0.745381
H130	H	1.624613	-0.039122	1.245381
H131	H	1.275347	-0.329734	1.029796
H132	H	1.775347	0.170266	1.529796
H133	H	1.057024	-1.090328	0.455648
H134	H	1.557024	-0.590328	0.955648
H135	H	1.124587	-0.539166	0.596643
H136	H	1.624587	-0.039166	1.096643
H137	H	1.275317	-0.329817	0.776927
H138	H	1.775317	0.170183	1.276927
H139	H	1.339721	-1.090252	0.173348
H140	H	1.839721	-0.590252	0.673348
H141	H	0.515210	-0.539190	0.205849
H142	H	1.015210	-0.039190	0.705849
H143	H	0.916779	-0.539137	0.205815
H144	H	1.416779	-0.039137	0.705815
H145	H	1.031187	-0.919402	0.481350
H146	H	1.531187	-0.419402	0.981350
H147	H	0.663934	-0.539170	0.205831
H148	H	1.163934	-0.039170	0.705831
H149	H	1.368580	-0.948936	0.144430
H150	H	1.868580	-0.448936	0.644430
H151	H	0.768049	-0.539148	0.205827
H152	H	1.268049	-0.039148	0.705827
H153	H	1.342756	-0.778002	0.170127
H154	H	1.842756	-0.278002	0.670127
H155	H	0.632544	-0.330101	0.419781
H156	H	1.132544	0.169899	0.919781
H157	H	1.275336	-0.329786	0.881061
H158	H	1.775336	0.170214	1.381061
H159	H	1.124645	-0.539050	0.998238
H160	H	1.624645	-0.039050	1.498238
H161	H	0.885387	-0.330070	0.419762
H162	H	1.385387	0.169930	0.919762
H163	H	1.124611	-0.539085	0.849506
H164	H	1.624611	-0.039085	1.349506
H165	H	1.109387	-0.833912	0.403204
H166	H	1.609387	-0.333912	0.903204
H167	H	0.736671	-0.330086	0.419767
H168	H	1.236671	0.169914	0.919767
H169	H	1.160507	-0.778049	0.352122
H170	H	1.660507	-0.278049	0.852122
