data_functionalizedCrystal
_audit_creation_method	'MofGen! by Chris Wilmer'
_symmetry_space_group_name_H-M	'P1'
_symmetry_Int_Tables_number	1
_symmetry_cell_setting	triclinic
loop_
_symmetry_equiv_pos_as_xyz
  x,y,z
_cell_length_a	17.699077
_cell_length_b	17.699092
_cell_length_c	13.448316
_cell_angle_alpha	89.995078
_cell_angle_beta	89.993795
_cell_angle_gamma	83.283472
loop_
_atom_site_label
_atom_site_type_symbol
_atom_site_fract_x
_atom_site_fract_y
_atom_site_fract_z
O1	O	1.004084	0.095691	-0.082675
O2	O	1.504084	0.595691	0.417325
O3	O	0.783705	0.108148	-0.082679
O4	O	1.283705	0.608148	0.417321
O5	O	0.900117	-0.008269	-0.082675
O6	O	1.400117	0.491731	0.417325
O7	O	0.887671	0.212109	-0.082680
O8	O	1.387671	0.712109	0.417320
O9	O	0.900103	-0.008276	0.082709
O10	O	1.400103	0.491724	0.582709
O11	O	0.783691	0.108141	0.082704
O12	O	1.283691	0.608141	0.582704
O13	O	1.004069	0.095684	0.082709
O14	O	1.504069	0.595684	0.582709
Cu15	Cu	0.893879	0.101912	0.097808
Cu16	Cu	1.393879	0.601912	0.597808
Cu17	Cu	0.893896	0.101920	-0.097778
Cu18	Cu	1.393896	0.601920	0.402222
O19	O	0.887657	0.212101	0.082704
O20	O	1.387657	0.712101	0.582704
C21	C	0.755501	0.107699	0.000012
C22	C	1.255501	0.607699	0.500012
C23	C	0.671482	0.106362	0.000010
C24	C	1.171482	0.606362	0.500010
C25	C	0.632007	0.105729	0.090162
C26	C	1.132007	0.605729	0.590162
C27	C	0.553064	0.104460	0.090163
C28	C	1.053064	0.604460	0.590163
C29	C	0.513598	0.103831	0.000011
C30	C	1.013598	0.603831	0.500011
C31	C	0.553079	0.104463	-0.090147
C32	C	1.053079	0.604463	0.409853
C33	C	0.632021	0.105726	-0.090147
C34	C	1.132021	0.605726	0.409853
C35	C	0.234716	0.099370	-0.090149
C36	C	0.734716	0.599370	0.409851
C37	C	0.155768	0.098109	-0.090142
C38	C	0.655768	0.598109	0.409858
C39	C	0.155759	0.098104	0.090161
C40	C	0.655759	0.598104	0.590161
C41	C	0.234701	0.099367	0.090161
C42	C	0.734701	0.599367	0.590161
C43	C	0.274176	0.099994	0.000003
C44	C	0.774176	0.599994	0.500003
C45	C	0.359774	0.101368	0.000003
C46	C	0.859774	0.601368	0.500003
C47	C	0.428000	0.102463	0.000010
C48	C	0.928000	0.602463	0.500010
C49	C	0.899663	-0.036470	0.000016
C50	C	1.399663	0.463530	0.500016
C51	C	0.898322	-0.120487	0.000011
C52	C	1.398322	0.379513	0.500011
C53	C	0.897702	-0.159951	-0.090141
C54	C	1.397702	0.340049	0.409859
C55	C	0.896437	-0.238894	-0.090142
C56	C	1.396437	0.261106	0.409858
C57	C	0.895798	-0.278373	0.000010
C58	C	1.395798	0.221627	0.500010
C59	C	0.896416	-0.238903	0.090168
C60	C	1.396416	0.261097	0.590168
C61	C	0.897675	-0.159961	0.090169
C62	C	1.397675	0.340039	0.590169
C63	C	0.891335	-0.557268	0.090170
C64	C	1.391335	-0.057268	0.590170
C65	C	0.890078	-0.636216	0.090163
C66	C	1.390078	-0.136216	0.590163
C67	C	0.890097	-0.636201	-0.090141
C68	C	1.390097	-0.136201	0.409859
C69	C	0.891356	-0.557259	-0.090141
C70	C	1.391356	-0.057259	0.409859
C71	C	0.891970	-0.517796	0.000017
C72	C	1.391970	-0.017796	0.500017
C73	C	0.893341	-0.432197	0.000018
C74	C	1.393341	0.067803	0.500018
C75	C	0.894433	-0.363971	0.000010
C76	C	1.394433	0.136029	0.500010
C77	C	1.032274	0.096133	0.000015
C78	C	1.532274	0.596133	0.500015
C79	C	1.116292	0.097470	0.000011
C80	C	1.616292	0.597470	0.500011
C81	C	0.888111	0.240302	0.000012
C82	C	1.388111	0.740302	0.500012
C83	C	0.889452	0.324320	0.000010
C84	C	1.389452	0.824320	0.500010
N85	N	0.893872	0.101905	0.235372
N86	N	1.393872	0.601905	0.735372
N87	N	0.893908	0.101921	-0.235342
N88	N	1.393908	0.601921	0.264658
C89	C	0.945435	0.050377	0.287414
C90	C	1.445435	0.550377	0.787414
C91	C	0.945440	0.050376	0.391517
C92	C	1.445440	0.550376	0.891517
C93	C	0.893884	0.101908	0.443576
C94	C	1.393884	0.601908	0.943576
C95	C	0.842316	0.153439	0.391527
C96	C	1.342316	0.653439	0.891527
C97	C	0.842308	0.153436	0.287425
C98	C	1.342308	0.653436	0.787425
C99	C	0.842337	0.153444	0.608507
C100	C	1.342337	0.653444	1.108507
C101	C	0.842345	0.153449	0.712615
C102	C	1.342345	0.653449	1.212615
C103	C	0.945469	0.050385	0.712599
C104	C	1.445469	0.550385	1.212599
C105	C	0.945461	0.050381	0.608498
C106	C	1.445461	0.550381	1.108498
C107	C	0.893893	0.101914	0.556455
C108	C	1.393893	0.601914	1.056455
H109	H	0.664161	0.106243	-0.163558
H110	H	1.164161	0.606243	0.336442
H111	H	0.123610	0.097590	0.163573
H112	H	0.623610	0.597590	0.663573
H113	H	0.266847	0.099878	-0.163562
H114	H	0.766847	0.599878	0.336438
H115	H	0.800342	0.195405	0.566137
H116	H	1.300342	0.695405	1.066137
Br117	Br	0.892230	-0.503685	-0.212494
Br118	Br	1.392230	-0.003685	0.287506
Br119	Br	1.015417	-0.019559	0.462150
Br120	Br	1.515417	0.480441	0.962150
Br121	Br	0.499523	0.103576	-0.212498
Br122	Br	0.999523	0.603576	0.287502
H123	H	0.800319	0.195395	0.245053
H124	H	1.300319	0.695395	0.745053
H125	H	0.266830	0.099883	0.163572
H126	H	0.766830	0.599883	0.663572
Br127	Br	0.772340	0.223372	0.462174
Br128	Br	1.272340	0.723372	0.962174
Br129	Br	0.892153	-0.503719	0.212527
Br130	Br	1.392153	-0.003719	0.712527
H131	H	0.664134	0.106247	0.163574
H132	H	1.164134	0.606247	0.663574
Br133	Br	0.102206	0.097257	-0.212500
Br134	Br	0.602206	0.597257	0.287500
H135	H	0.895891	-0.271052	0.163572
H136	H	1.395891	0.228948	0.663572
Br137	Br	0.772374	0.223389	0.783259
Br138	Br	1.272374	0.723389	1.283259
Br139	Br	1.015435	-0.019548	0.537842
Br140	Br	1.515435	0.480452	1.037842
Br141	Br	0.889264	-0.689762	-0.212501
Br142	Br	1.389264	-0.189762	0.287499
H143	H	0.898170	-0.127829	0.163580
H144	H	1.398170	0.372171	0.663580
H145	H	0.987421	0.008417	0.245035
H146	H	1.487421	0.508417	0.745035
Br147	Br	0.499492	0.103613	0.212517
Br148	Br	0.999492	0.603613	0.712517
H149	H	0.898226	-0.127814	-0.163553
H150	H	1.398226	0.372186	0.336447
H151	H	0.987457	0.008426	0.754978
H152	H	1.487457	0.508426	1.254978
Br153	Br	0.889212	-0.689795	0.212520
Br154	Br	1.389212	-0.189795	0.712520
Br155	Br	0.895594	-0.292449	-0.212496
Br156	Br	1.395594	0.207551	0.287504
