data_functionalizedCrystal
_audit_creation_method	'MofGen! by Chris Wilmer'
_symmetry_space_group_name_H-M	'P1'
_symmetry_Int_Tables_number	1
_symmetry_cell_setting	triclinic
loop_
_symmetry_equiv_pos_as_xyz
  x,y,z
_cell_length_a	10.540539
_cell_length_b	11.026607
_cell_length_c	10.065918
_cell_angle_alpha	82.323124
_cell_angle_beta	99.758881
_cell_angle_gamma	83.444246
loop_
_atom_site_label
_atom_site_type_symbol
_atom_site_fract_x
_atom_site_fract_y
_atom_site_fract_z
O1	O	1.743692	-0.187394	0.113424
O2	O	1.377818	-0.203542	0.113440
O3	O	1.530431	-0.018552	0.113428
O4	O	1.591079	-0.372384	0.113436
O5	O	1.489845	0.013553	-0.113559
O6	O	1.337233	-0.171437	-0.113547
O7	O	1.703106	-0.155289	-0.113564
Zn8	Zn	1.513726	-0.158266	-0.149595
Zn9	Zn	1.567199	-0.200565	0.149471
O10	O	1.550494	-0.340279	-0.113552
C11	C	1.309957	-0.186279	-0.000052
C12	C	1.168217	-0.182657	-0.000045
N13	N	1.477241	-0.129397	-0.353699
C14	C	1.498950	0.042808	-0.000063
C15	C	1.465598	0.177811	-0.000057
C16	C	0.954291	-0.043777	-0.000578
C17	C	1.101808	-0.047523	-0.000052
C18	C	1.143964	-0.266022	0.129572
C19	C	0.996427	-0.261423	0.129666
C20	C	0.950387	-0.227663	-0.128461
C21	C	1.097338	-0.228667	-0.130160
C22	C	1.770967	-0.172553	-0.000069
C23	C	1.912709	-0.176175	-0.000066
C24	C	1.581975	-0.401640	-0.000057
C25	C	1.615328	-0.536643	-0.000055
C26	C	1.557691	0.250818	-0.000059
C27	C	1.523222	0.390351	-0.000053
C28	C	1.526436	-0.168300	-0.578643
C29	C	1.554507	-0.190530	-0.421477
N30	N	1.603691	-0.229425	0.353576
H31	H	1.116600	0.016788	-0.092968
Cl32	Cl	1.776468	0.400392	-0.000056
Cl33	Cl	0.859780	-0.138684	-0.280151
H34	H	1.148908	-0.009158	0.093022
Cl35	Cl	1.343037	-0.023172	-0.443728
Cl36	Cl	1.165888	-0.379074	-0.142238
Cl37	Cl	1.362087	0.453316	-0.000032
Cl38	Cl	1.304470	0.240782	-0.000036
H39	H	1.662051	0.210024	-0.000072
H40	H	0.897392	0.022756	-0.093534
Cl41	Cl	0.915185	0.018123	0.142127
H42	H	0.975012	-0.227063	0.226555
Cl43	Cl	1.392231	-0.062090	-0.668681
Cl44	Cl	0.956850	-0.412750	0.138756
H45	H	1.188917	-0.365942	0.134397
H46	H	1.690617	-0.298209	-0.588100
Cl47	Cl	1.221063	-0.217342	0.278507
Cl48	Cl	0.910240	-0.378166	-0.129812
Cl49	Cl	1.117858	-0.134256	-0.278208
Cl50	Cl	1.688726	-0.296735	-0.331445
