data_functionalizedCrystal
_audit_creation_method	'MofGen! by Chris Wilmer'
_symmetry_space_group_name_H-M	'P1'
_symmetry_Int_Tables_number	1
_symmetry_cell_setting	triclinic
loop_
_symmetry_equiv_pos_as_xyz
  x,y,z
_cell_length_a	14.519731
_cell_length_b	13.596369
_cell_length_c	14.519709
_cell_angle_alpha	90.006934
_cell_angle_beta	83.684499
_cell_angle_gamma	90.005416
loop_
_atom_site_label
_atom_site_type_symbol
_atom_site_fract_x
_atom_site_fract_y
_atom_site_fract_z
O1	O	1.223856	0.081796	0.120986
O2	O	1.723856	0.581796	0.620986
O3	O	0.955382	0.081797	0.135202
O4	O	1.455382	0.581797	0.635202
O5	O	1.096737	0.081788	-0.006144
O6	O	1.596737	0.581788	0.493856
O7	O	1.082501	0.081805	0.262332
O8	O	1.582501	0.581805	0.762332
O9	O	1.096723	-0.081795	-0.006151
O10	O	1.596723	0.418205	0.493849
O11	O	0.955368	-0.081785	0.135195
O12	O	1.455368	0.418215	0.635195
O13	O	1.223842	-0.081787	0.120979
O14	O	1.723842	0.418213	0.620979
Zn15	Zn	1.089603	-0.107759	0.128086
Zn16	Zn	1.589603	0.392241	0.628086
Zn17	Zn	1.089621	0.107769	0.128096
Zn18	Zn	1.589621	0.607769	0.628096
O19	O	1.082487	-0.081777	0.262325
O20	O	1.582487	0.418223	0.762325
C21	C	0.921016	0.000006	0.134532
C22	C	1.421016	0.500006	0.634532
C23	C	0.818635	0.000007	0.132536
C24	C	1.318635	0.500007	0.632536
N25	N	1.089597	-0.254851	0.128078
N26	N	1.589597	0.245149	0.628078
C27	C	0.735491	0.000010	0.130915
C28	C	1.235491	0.500010	0.630915
C29	C	0.631182	0.000011	0.128888
C30	C	1.131182	0.500011	0.628888
C31	C	0.548043	0.000010	0.127280
C32	C	1.048043	0.500010	0.627280
C33	C	0.443728	0.000012	0.125253
C34	C	0.943728	0.500012	0.625253
C35	C	1.089620	-0.656141	0.128096
C36	C	1.589620	-0.156141	0.628096
C37	C	1.089611	-0.544490	0.128095
C38	C	1.589611	-0.044490	0.628095
C39	C	1.089609	-0.455500	0.128088
C40	C	1.589609	0.044500	0.628088
C41	C	1.089599	-0.343841	0.128085
C42	C	1.589599	0.156159	0.628085
C43	C	1.258209	0.000006	0.121649
C44	C	1.758209	0.500006	0.621649
C45	C	1.360589	0.000012	0.123645
C46	C	1.860589	0.500012	0.623645
N47	N	1.089635	0.254861	0.128096
N48	N	1.589635	0.754861	0.628096
C49	C	1.096067	-0.000004	-0.040507
C50	C	1.596067	0.499996	0.459493
C51	C	1.094079	-0.000005	-0.142889
C52	C	1.594079	0.499995	0.357111
C53	C	1.086759	0.000021	-0.517785
C54	C	1.586759	0.500021	-0.017785
C55	C	1.088792	0.000014	-0.413477
C56	C	1.588792	0.500014	0.086523
C57	C	1.090419	0.000007	-0.330340
C58	C	1.590419	0.500007	0.169660
C59	C	1.092452	0.000002	-0.226025
C60	C	1.592452	0.500002	0.273975
C61	C	1.083157	0.000016	0.296688
C62	C	1.583157	0.500016	0.796688
C63	C	1.085146	0.000023	0.399070
C64	C	1.585146	0.500023	0.899070
