data_functionalizedCrystal
_audit_creation_method	'MofGen! by Chris Wilmer'
_symmetry_space_group_name_H-M	'P1'
_symmetry_Int_Tables_number	1
_symmetry_cell_setting	triclinic
loop_
_symmetry_equiv_pos_as_xyz
  x,y,z
_cell_length_a	9.065215
_cell_length_b	11.804783
_cell_length_c	9.065218
_cell_angle_alpha	76.867349
_cell_angle_beta	85.015291
_cell_angle_gamma	76.880171
loop_
_atom_site_label
_atom_site_type_symbol
_atom_site_fract_x
_atom_site_fract_y
_atom_site_fract_z
O1	O	1.933474	0.099001	0.189379
O2	O	1.504188	0.099006	0.207128
O3	O	1.727705	0.099001	-0.016388
O4	O	1.709957	0.099006	0.412895
O5	O	1.781555	-0.099040	0.037530
O6	O	1.558037	-0.099035	0.261047
O7	O	1.987324	-0.099040	0.243297
Cu8	Cu	1.777598	-0.117120	0.257095
Cu9	Cu	1.713914	0.117086	0.193330
O10	O	1.763807	-0.099035	0.466814
C11	C	1.476126	-0.000014	0.232382
C12	C	1.312282	-0.000012	0.227284
N13	N	1.822400	-0.281848	0.301944
C14	C	1.561484	-0.655870	0.040762
C15	C	1.527562	-0.531218	0.006825
C16	C	1.601269	-0.468869	0.080602
C17	C	1.708903	-0.531185	0.188321
C18	C	1.742836	-0.655849	0.222253
C19	C	1.782621	-0.468849	0.262093
C20	C	1.890255	-0.531164	0.369812
C21	C	1.924182	-0.655817	0.403739
C22	C	1.850476	-0.718165	0.329962
C23	C	1.748687	-0.344184	0.228161
C24	C	1.930040	-0.344164	0.409653
C25	C	1.963961	-0.468816	0.443590
C26	C	2.015385	-0.000017	0.218042
C27	C	2.179227	-0.000011	0.223139
C28	C	1.752924	-0.000017	-0.044416
C29	C	1.747823	-0.000012	-0.208261
N30	N	1.669123	0.281814	0.148471
C31	C	1.738587	-0.000014	0.494841
C32	C	1.743687	-0.000011	0.658683
H33	H	1.661050	-0.293459	0.140457
C34	C	1.855084	-0.896732	0.521297
C35	C	1.887766	-0.855190	0.367276
H36	H	1.878097	-0.981326	0.544329
H37	H	1.914393	-0.868523	0.580627
H38	H	1.750588	-0.868536	0.543382
H39	H	1.992265	-0.883379	0.345193
H40	H	1.828458	-0.883412	0.307927
H41	H	1.990059	-0.293400	0.469727
C42	C	2.096496	-0.659902	0.576173
C43	C	2.082283	-0.537323	0.561981
H44	H	2.169550	-0.702192	0.649256
H45	H	2.001478	-0.680337	0.607746
H46	H	2.128124	-0.680308	0.481142
H47	H	2.050644	-0.516914	0.657010
H48	H	2.177321	-0.516879	0.530416
H49	H	1.573642	-0.367372	0.052964
C50	C	1.269192	-0.492908	-0.064970
C51	C	1.409236	-0.462738	-0.111558
H52	H	1.196133	-0.450629	-0.138053
H53	H	1.278875	-0.576064	-0.055318
H54	H	1.237581	-0.472473	0.030048
H55	H	1.440853	-0.483182	-0.206571
H56	H	1.399555	-0.379564	-0.121228
H57	H	1.501494	-0.706645	-0.019306
H58	H	2.011837	-0.706551	0.491438
