data_functionalizedCrystal
_audit_creation_method	'MofGen! by Chris Wilmer'
_symmetry_space_group_name_H-M	'P1'
_symmetry_Int_Tables_number	1
_symmetry_cell_setting	triclinic
loop_
_symmetry_equiv_pos_as_xyz
  x,y,z
_cell_length_a	13.101039
_cell_length_b	16.109301
_cell_length_c	16.109301
_cell_angle_alpha	96.538519
_cell_angle_beta	86.640098
_cell_angle_gamma	86.646051
loop_
_atom_site_label
_atom_site_type_symbol
_atom_site_fract_x
_atom_site_fract_y
_atom_site_fract_z
O1	O	0.085153	-1.107703	0.102280
O2	O	0.085169	-0.865642	0.115579
O3	O	0.085150	-0.993322	-0.012101
O4	O	0.085172	-0.980024	0.229960
O5	O	-0.085278	-0.984161	-0.002925
O6	O	-0.085259	-0.856482	0.124755
O7	O	-0.085276	-1.098543	0.111456
Zn8	Zn	-0.112327	-0.976058	0.119563
Zn9	Zn	0.112220	-0.988127	0.107473
O10	O	-0.085257	-0.970863	0.239136
C11	C	-0.000043	-0.830087	0.119628
C12	C	-0.000037	-0.737792	0.118013
N13	N	-0.265574	-0.967826	0.127813
C14	C	-0.000065	-0.988203	-0.038488
C15	C	-0.000066	-0.986588	-0.130783
C16	C	-0.474615	-0.956627	0.139046
C17	C	-0.525498	-1.007562	0.087986
C18	C	-0.641816	-1.001330	0.094236
C19	C	-0.358287	-0.962858	0.132797
N20	N	0.265467	-0.996365	0.099216
C21	C	-0.000061	-1.134098	0.107407
C22	C	-0.000061	-1.226393	0.109022
C23	C	-0.000042	-0.515520	0.190021
C24	C	-0.000049	-0.428799	0.188497
C25	C	-0.000058	-0.448673	0.037009
C26	C	-0.000059	-0.535391	0.038534
C27	C	-0.000046	-0.568812	0.115042
C28	C	-0.000052	-0.395373	0.111993
C29	C	-0.000059	-0.301347	0.110340
C30	C	-0.000040	-0.662845	0.116695
C31	C	-0.000055	-1.058596	-0.353056
C32	C	-0.000046	-1.057072	-0.439777
C33	C	-0.000040	-0.905584	-0.419903
C34	C	-0.000041	-0.907109	-0.333184
C35	C	-0.000054	-0.983617	-0.299763
C36	C	-0.000044	-0.980569	-0.473202
C37	C	-0.000035	-0.978916	-0.567229
C38	C	-0.000061	-0.985270	-0.205730
C39	C	-0.000040	-0.975982	0.265523
C40	C	-0.000032	-0.977598	0.357818
H41	H	-0.481703	-1.055848	0.039579
H42	H	-0.000065	-0.578785	-0.022527
H43	H	-0.000063	-1.120894	-0.325848
H44	H	-0.518405	-0.908345	0.187451
C45	C	-0.000068	-1.206962	-0.450704
C46	C	-0.000054	-1.139492	-0.498356
H47	H	-0.000079	-1.257845	-0.486870
H48	H	0.059359	-1.207601	-0.419664
H49	H	-0.059506	-1.201203	-0.413269
H50	H	0.059388	-1.145248	-0.535787
H51	H	-0.059488	-1.138853	-0.529411
H52	H	-0.000039	-0.542727	0.252319
C53	C	-0.000024	-0.417872	0.338386
C54	C	-0.000038	-0.370219	0.270916
H55	H	-0.000011	-0.381706	0.389269
H56	H	-0.059452	-0.448915	0.339031
H57	H	0.059413	-0.455303	0.332622
H58	H	-0.059479	-0.332793	0.276678
H59	H	0.059396	-0.339162	0.270272
H60	H	-0.000031	-0.843293	-0.447125
C61	C	-0.000051	-0.324563	-0.032594
C62	C	-0.000059	-0.411933	-0.047087
H63	H	-0.000043	-0.301886	-0.084514
H64	H	-0.059478	-0.303081	0.001467
H65	H	0.059386	-0.309471	-0.004919
H66	H	-0.059501	-0.427025	-0.074757
H67	H	0.059374	-0.433424	-0.081162
C68	C	-0.000045	-0.757209	-0.322241
C69	C	-0.000043	-0.824685	-0.274596
H70	H	-0.000050	-0.706328	-0.286070
H71	H	0.059383	-0.762955	-0.359672
H72	H	-0.059482	-0.756576	-0.353284
H73	H	0.059397	-0.825322	-0.243558
H74	H	-0.059478	-0.818937	-0.237151
