data_functionalizedCrystal
_audit_creation_method	'MofGen! by Chris Wilmer'
_symmetry_space_group_name_H-M	'P1'
_symmetry_Int_Tables_number	1
_symmetry_cell_setting	triclinic
loop_
_symmetry_equiv_pos_as_xyz
  x,y,z
_cell_length_a	14.971482
_cell_length_b	10.540539
_cell_length_c	13.448316
_cell_angle_alpha	89.995557
_cell_angle_beta	89.993798
_cell_angle_gamma	84.069050
loop_
_atom_site_label
_atom_site_type_symbol
_atom_site_fract_x
_atom_site_fract_y
_atom_site_fract_z
O1	O	1.187881	0.165401	-0.082674
O2	O	1.687881	0.665401	0.417326
O3	O	0.927592	0.185215	-0.082678
O4	O	1.427592	0.685215	0.417322
O5	O	1.063675	-0.009466	-0.082675
O6	O	1.563675	0.490534	0.417325
O7	O	1.051799	0.360082	-0.082678
O8	O	1.551799	0.860082	0.417322
O9	O	1.063658	-0.009478	0.082709
O10	O	1.563658	0.490522	0.582709
O11	O	0.927575	0.185203	0.082705
O12	O	1.427575	0.685203	0.582705
O13	O	1.187864	0.165389	0.082710
O14	O	1.687864	0.665389	0.582710
Cu15	Cu	1.057718	0.175295	0.097808
Cu16	Cu	1.557718	0.675295	0.597808
Cu17	Cu	1.057738	0.175309	-0.097777
Cu18	Cu	1.557738	0.675309	0.402223
O19	O	1.051781	0.360070	0.082706
O20	O	1.551781	0.860070	0.582706
C21	C	0.894254	0.184324	0.000013
C22	C	1.394254	0.684324	0.500013
C23	C	0.794942	0.181671	0.000011
C24	C	1.294942	0.681671	0.500011
C25	C	0.748281	0.180415	0.090163
C26	C	1.248281	0.680415	0.590163
C27	C	0.654968	0.177902	0.090164
C28	C	1.154968	0.677902	0.590164
C29	C	0.608317	0.176654	0.000012
C30	C	1.108317	0.676654	0.500012
C31	C	0.654985	0.177907	-0.090147
C32	C	1.154985	0.677907	0.409853
C33	C	0.748297	0.180411	-0.090147
C34	C	1.248297	0.680411	0.409853
C35	C	0.460494	0.172691	-0.090140
C36	C	0.960494	0.672691	0.409860
C37	C	0.367176	0.170189	-0.090140
C38	C	0.867176	0.670189	0.409860
C39	C	0.367165	0.170182	0.090170
C40	C	0.867165	0.670182	0.590170
C41	C	0.460477	0.172686	0.090170
C42	C	0.960477	0.672686	0.590170
C43	C	0.507138	0.173941	0.000011
C44	C	1.007138	0.673941	0.500011
C45	C	1.062776	-0.056765	0.000015
C46	C	1.562776	0.443235	0.500015
C47	C	1.060111	-0.197683	0.000010
C48	C	1.560111	0.302317	0.500010
C49	C	0.958002	-0.379949	-0.000363
C50	C	1.458002	0.120051	0.499637
C51	C	0.960704	-0.233361	0.000009
C52	C	1.460704	0.266639	0.500009
C53	C	1.107941	-0.259891	0.094453
C54	C	1.607941	0.240109	0.594453
C55	C	1.104548	-0.406397	0.094532
C56	C	1.604548	0.093603	0.594532
C57	C	1.106589	-0.406924	-0.093540
C58	C	1.606589	0.093076	0.406460
C59	C	1.107505	-0.259953	-0.094789
C60	C	1.607505	0.240047	0.405211
C61	C	1.221202	0.166280	0.000016
C62	C	1.721202	0.666280	0.500016
C63	C	1.320515	0.168933	0.000011
C64	C	1.820515	0.668933	0.500011
C65	C	1.052681	0.407369	0.000014
C66	C	1.552681	0.907369	0.500014
C67	C	1.055345	0.548287	0.000013
C68	C	1.555345	1.048287	0.500013
N69	N	1.057710	0.175284	0.235373
N70	N	1.557710	0.675284	0.735373
N71	N	1.057753	0.175310	-0.235341
N72	N	1.557753	0.675310	0.264659
C73	C	1.117987	0.089115	0.287415
C74	C	1.617987	0.589115	0.787415
C75	C	1.117992	0.089114	0.391518
C76	C	1.617992	0.589114	0.891518
C77	C	1.057725	0.175289	0.443577
C78	C	1.557725	0.675289	0.943577
C79	C	0.997442	0.261463	0.391528
C80	C	1.497442	0.761463	0.891528
C81	C	0.997433	0.261457	0.287427
C82	C	1.497433	0.761457	0.787427
C83	C	0.997467	0.261471	0.608508
C84	C	1.497467	0.761471	1.108508
C85	C	0.997477	0.261479	0.712617
C86	C	1.497477	0.761479	1.212617
C87	C	1.118026	0.089128	0.712599
C88	C	1.618026	0.589128	1.212599
C89	C	1.118017	0.089122	0.608498
C90	C	1.618017	0.589122	1.108498
C91	C	1.057735	0.175298	0.556456
C92	C	1.557735	0.675298	1.056456
H93	H	0.786256	0.181442	0.163575
H94	H	1.286256	0.681442	0.663575
H95	H	1.167073	0.018947	0.433890
H96	H	1.667073	0.518947	0.933890
Cl97	Cl	0.308506	0.168606	0.203513
Cl98	Cl	0.808506	0.668606	0.703513
Cl99	Cl	1.220650	-0.226663	0.099882
Cl100	Cl	1.720650	0.273337	0.599882
Cl101	Cl	0.806958	0.181984	-0.203485
Cl102	Cl	1.306958	0.681984	0.296515
H103	H	1.167095	0.018958	0.566111
H104	H	1.667095	0.518958	1.066111
Cl105	Cl	0.921706	0.369817	0.778055
Cl106	Cl	1.421706	0.869817	1.278055
H107	H	0.923068	-0.190325	-0.067691
H108	H	1.423068	0.309675	0.432309
H109	H	1.069185	-0.434200	0.165129
H110	H	1.569185	0.065800	0.665129
Cl111	Cl	0.897380	-0.423404	-0.104929
Cl112	Cl	1.397380	0.076596	0.395071
H113	H	0.922790	-0.191179	0.067821
H114	H	1.422790	0.308821	0.567821
H115	H	1.178391	-0.454966	-0.094174
H116	H	1.678391	0.045034	0.405826
H117	H	1.167067	0.018946	0.245035
H118	H	1.667067	0.518946	0.745035
H119	H	1.176040	-0.455178	0.098818
H120	H	1.676040	0.044822	0.598818
Cl121	Cl	1.056919	-0.455046	-0.204058
Cl122	Cl	1.556919	0.044954	0.295942
Cl123	Cl	0.897439	-0.426449	0.103307
Cl124	Cl	1.397439	0.073551	0.603307
Cl125	Cl	1.056623	-0.193553	0.202963
Cl126	Cl	1.556623	0.306447	0.702963
Cl127	Cl	1.193809	-0.019202	0.778027
Cl128	Cl	1.693809	0.480798	1.278027
Cl129	Cl	1.053926	-0.195505	-0.202675
Cl130	Cl	1.553926	0.304495	0.297325
Cl131	Cl	1.219404	-0.223824	-0.103599
Cl132	Cl	1.719404	0.276176	0.396401
H133	H	0.948376	0.331641	0.566139
H134	H	1.448376	0.831641	1.066139
H135	H	0.948366	0.331624	0.433921
H136	H	1.448366	0.831624	0.933921
H137	H	0.948348	0.331623	0.245055
H138	H	1.448348	0.831623	0.745055
H139	H	0.329195	0.169174	-0.163550
H140	H	0.829195	0.669174	0.336450
H141	H	0.498456	0.173710	0.163580
H142	H	0.998456	0.673710	0.663580
Cl143	Cl	0.519153	0.174265	-0.203485
Cl144	Cl	1.019153	0.674265	0.296515
Cl145	Cl	0.596310	0.176346	0.203503
Cl146	Cl	1.096310	0.676346	0.703503
H147	H	0.616996	0.176882	-0.163550
H148	H	1.116996	0.676882	0.336450
