data_functionalizedCrystal
_audit_creation_method	'MofGen! by Chris Wilmer'
_symmetry_space_group_name_H-M	'P1'
_symmetry_Int_Tables_number	1
_symmetry_cell_setting	triclinic
loop_
_symmetry_equiv_pos_as_xyz
  x,y,z
_cell_length_a	16.109301
_cell_length_b	10.654550
_cell_length_c	9.730223
_cell_angle_alpha	90.003749
_cell_angle_beta	89.997247
_cell_angle_gamma	96.026808
loop_
_atom_site_label
_atom_site_type_symbol
_atom_site_fract_x
_atom_site_fract_y
_atom_site_fract_z
O1	O	0.116770	-1.666250	-0.114408
O2	O	0.127896	-1.300620	-0.114386
O3	O	0.001362	-1.493479	-0.114384
O4	O	0.243304	-1.473391	-0.114410
O5	O	0.001365	-1.493477	0.114196
O6	O	0.127899	-1.300618	0.114194
O7	O	0.116773	-1.666248	0.114172
Zn8	Zn	0.122337	-1.483433	0.150475
Zn9	Zn	0.122332	-1.483436	-0.150689
O10	O	0.243307	-1.473389	0.114170
C11	C	0.127080	-1.253832	-0.000093
C12	C	0.124636	-1.114422	-0.000085
C13	C	-0.029616	-1.492665	-0.000093
C14	C	-0.121926	-1.490225	-0.000091
C15	C	0.117589	-1.713036	-0.000124
C16	C	0.120033	-1.852446	-0.000141
C17	C	-0.343552	-1.598991	-0.000119
C18	C	-0.430286	-1.596689	-0.000130
C19	C	-0.411772	-1.367868	-0.000111
C20	C	-0.325040	-1.370172	-0.000110
C21	C	-0.290932	-1.485737	-0.000107
C22	C	-0.464399	-1.481131	-0.000119
C23	C	-0.558440	-1.478634	-0.000131
C24	C	-0.196885	-1.488234	-0.000097
C25	C	0.274286	-1.474204	-0.000124
C26	C	0.366595	-1.476643	-0.000135
N27	N	0.122339	-1.483440	0.356011
C28	C	0.199138	-1.033926	-0.000113
C29	C	0.196836	-0.902936	-0.000136
C30	C	0.045526	-0.932952	-0.000109
C31	C	0.047828	-1.063939	-0.000076
C32	C	0.286496	-1.016595	-0.000135
C33	C	0.284194	-0.885606	-0.000158
N34	N	0.122324	-1.483438	-0.356225
C35	C	0.066329	-1.568859	0.427939
C36	C	0.066319	-1.568856	0.571822
C37	C	0.178336	-1.398010	0.571837
C38	C	0.178342	-1.398008	0.427957
C39	C	0.001659	-1.667500	0.427931
C40	C	0.001649	-1.667497	0.571814
H41	H	-0.473126	-1.688912	-0.000143
O42	O	0.315616	-0.830487	0.117511
C43	C	0.311398	-0.699132	0.110511
H44	H	0.261014	-0.678414	0.033991
H45	H	0.295524	-0.662361	0.216311
H46	H	0.374244	-0.650402	0.075574
O47	O	0.232850	-1.315079	0.641575
C48	C	0.315283	-1.335464	0.606450
H49	H	0.315487	-1.383874	0.501983
H50	H	0.355643	-1.241048	0.601530
H51	H	0.341378	-1.397950	0.687430
H52	H	-0.282194	-1.277941	-0.000104
O53	O	0.319632	-1.058912	-0.117799
C54	C	0.320057	-1.191019	-0.110787
H55	H	0.270746	-1.231517	-0.034268
H56	H	0.305593	-1.233819	-0.216584
H57	H	0.384173	-1.214547	-0.075841
O58	O	-0.445044	-1.255724	-0.000040
C59	C	-0.532880	-1.277973	-0.000074
H60	H	-0.552682	-1.375985	0.043190
H61	H	-0.559932	-1.204034	0.066299
H62	H	-0.557052	-1.271891	-0.109733
H63	H	0.317108	-0.843427	-0.095829
O64	O	-0.024620	-1.141955	-0.000092
C65	C	-0.092902	-1.069305	-0.000056
H66	H	-0.072369	-0.971547	-0.043367
H67	H	-0.145157	-1.117668	-0.066386
H68	H	-0.116396	-1.059952	0.109611
O69	O	-0.310556	-1.711355	-0.000194
C70	C	-0.375603	-1.810821	-0.000177
H71	H	-0.434713	-1.775632	-0.043445
H72	H	-0.357017	-1.891497	-0.066555
H73	H	-0.387677	-1.845765	0.109478
O74	O	-0.029011	-0.883701	-0.000169
C75	C	-0.015069	-0.750827	-0.000163
H76	H	0.049633	-0.720049	-0.043452
H77	H	-0.064263	-0.710646	-0.066529
H78	H	-0.019306	-0.714342	0.109491
H79	H	0.320662	-1.045462	0.095527
H80	H	0.223942	-1.328442	0.369395
O81	O	0.025975	-1.775829	0.374628
C82	C	0.097826	-1.747101	0.293123
H83	H	0.131436	-1.652596	0.326749
H84	H	0.141271	-1.824109	0.306117
H85	H	0.078872	-1.741370	0.180598
H86	H	-0.062244	-1.646924	0.388885
O87	O	-0.070396	-1.631927	0.624883
C88	C	-0.081149	-1.508844	0.580042
H89	H	-0.044335	-1.487641	0.481199
H90	H	-0.150192	-1.501423	0.560052
H91	H	-0.057618	-1.437940	0.662611
O92	O	0.018538	-1.782501	0.618245
C93	C	-0.042948	-1.875994	0.569846
H94	H	-0.073316	-1.840359	0.473602
H95	H	-0.012806	-1.965261	0.544192
H96	H	-0.092441	-1.897965	0.652606
