data_functionalizedCrystal
_audit_creation_method	'MofGen! by Chris Wilmer'
_symmetry_space_group_name_H-M	'P1'
_symmetry_Int_Tables_number	1
_symmetry_cell_setting	triclinic
loop_
_symmetry_equiv_pos_as_xyz
  x,y,z
_cell_length_a	11.169417
_cell_length_b	14.909042
_cell_length_c	11.169409
_cell_angle_alpha	93.330125
_cell_angle_beta	90.019824
_cell_angle_gamma	86.720188
loop_
_atom_site_label
_atom_site_type_symbol
_atom_site_fract_x
_atom_site_fract_y
_atom_site_fract_z
Zn1	Zn	1.862467	-0.359060	0.650981
Zn2	Zn	2.362467	0.140940	1.150981
Zn3	Zn	1.873915	-0.509951	0.438716
Zn4	Zn	2.373915	-0.009951	0.938716
Zn5	Zn	1.661757	-0.359115	0.450311
Zn6	Zn	2.161757	0.140885	0.950311
Zn7	Zn	1.673313	-0.509878	0.639366
Zn8	Zn	2.173313	-0.009878	1.139366
O9	O	1.767863	-0.434501	0.544844
O10	O	2.267863	0.065499	1.044844
O11	O	2.031936	-0.379084	0.622832
O12	O	2.531936	0.120916	1.122832
O13	O	1.845726	-0.489996	0.272300
O14	O	2.345726	0.010004	0.772300
O15	O	1.678754	-0.232865	0.486644
O16	O	2.178754	0.267135	0.986644
O17	O	2.040346	-0.489943	0.466881
O18	O	2.540346	0.010057	0.966881
O19	O	1.826215	-0.232824	0.634076
O20	O	2.326215	0.267176	1.134076
O21	O	1.689855	-0.379178	0.280819
O22	O	2.189855	0.120822	0.780819
O23	O	1.495340	-0.379106	0.475382
O24	O	1.995340	0.120894	0.975382
O25	O	1.698450	-0.489818	0.808861
O26	O	2.198450	0.010182	1.308861
O27	O	1.503830	-0.489871	0.614280
O28	O	2.003830	0.010129	1.114280
O29	O	1.837420	-0.379013	0.817394
O30	O	2.337420	0.120987	1.317394
O31	O	1.856932	-0.636185	0.455619
O32	O	2.356932	-0.136185	0.955619
O33	O	1.709551	-0.636131	0.603036
O34	O	2.209551	-0.136131	1.103036
C35	C	1.456037	-0.434487	0.544829
C36	C	1.956037	0.065513	1.044829
C37	C	1.322638	-0.434503	0.544850
C38	C	1.822638	0.065497	1.044850
C39	C	1.785770	-0.668891	0.526835
C40	C	2.285770	-0.168891	1.026835
C41	C	1.793540	-0.769164	0.519170
C42	C	2.293540	-0.269164	1.019170
C43	C	1.654526	-0.957596	0.658141
C44	C	2.154526	-0.457596	1.158141
C45	C	1.661824	-1.051811	0.650944
C46	C	2.161824	-0.551811	1.150944
C47	C	1.815426	-1.051812	0.497574
C48	C	2.315426	-0.551812	0.997574
C49	C	1.808128	-0.957597	0.504771
C50	C	2.308128	-0.457597	1.004771
C51	C	1.727677	-0.910492	0.585059
C52	C	2.227677	-0.410492	1.085059
C53	C	1.720387	-0.816275	0.592261
C54	C	2.220387	-0.316275	1.092261
C55	C	1.873982	-0.816277	0.438886
C56	C	2.373982	-0.316277	0.938886
C57	C	1.881279	-0.910492	0.431689
C58	C	2.381279	-0.410492	0.931689
C59	C	2.080906	-0.434515	0.544859
C60	C	2.580906	0.065485	1.044859
C61	C	2.214307	-0.434522	0.544865
C62	C	2.714307	0.065478	1.044865
C63	C	1.767947	-0.434401	0.857894
C64	C	2.267947	0.065599	1.357894
C65	C	1.767983	-0.434358	0.991297
C66	C	2.267983	0.065642	1.491297
C67	C	1.749919	-0.199196	0.562949
C68	C	2.249919	0.300804	1.062949
C69	C	1.742272	-0.098923	0.570665
C70	C	2.242272	0.401077	1.070665
C71	C	1.767843	-0.434536	0.233016
C72	C	2.267843	0.065464	0.733016
C73	C	1.768020	-0.434324	0.099633
C74	C	2.268020	0.065676	0.599633
H75	H	1.654883	-0.777923	0.657638
H76	H	2.154883	-0.277923	1.157638
Br77	Br	1.990458	-0.974428	0.322734
Br78	Br	2.490458	-0.474428	0.822734
Br79	Br	1.924601	-1.115755	0.388623
Br80	Br	2.424601	-0.615755	0.888623
H81	H	1.933550	-0.777914	0.379380
H82	H	2.433550	-0.277914	0.879380
H83	H	1.589028	-0.919243	0.723523
H84	H	2.089028	-0.419243	1.223523
H85	H	1.602260	-1.090160	0.710459
H86	H	2.102260	-0.590160	1.210459
