data_functionalizedCrystal
_audit_creation_method	'MofGen! by Chris Wilmer'
_symmetry_space_group_name_H-M	'P1'
_symmetry_Int_Tables_number	1
_symmetry_cell_setting	triclinic
loop_
_symmetry_equiv_pos_as_xyz
  x,y,z
_cell_length_a	19.121111
_cell_length_b	13.897449
_cell_length_c	13.897441
_cell_angle_alpha	90.026069
_cell_angle_beta	87.592289
_cell_angle_gamma	92.470435
loop_
_atom_site_label
_atom_site_type_symbol
_atom_site_fract_x
_atom_site_fract_y
_atom_site_fract_z
Zn1	Zn	0.279592	-1.458247	-0.561877
Zn2	Zn	0.397055	-1.451227	-0.407451
Zn3	Zn	0.279623	-1.296934	-0.400582
Zn4	Zn	0.397007	-1.290007	-0.568685
O5	O	0.338319	-1.374104	-0.484649
O6	O	0.295182	-1.592297	-0.541417
O7	O	0.381511	-1.430721	-0.271560
O8	O	0.181334	-1.324169	-0.416254
O9	O	0.381481	-1.587140	-0.427961
O10	O	0.181312	-1.442685	-0.534757
O11	O	0.295234	-1.317363	-0.266513
O12	O	0.295186	-1.161034	-0.422856
O13	O	0.381398	-1.312363	-0.702762
O14	O	0.381428	-1.155945	-0.546361
O15	O	0.295134	-1.435968	-0.697760
O16	O	0.495333	-1.424004	-0.434563
O17	O	0.495297	-1.305557	-0.553021
C18	C	0.338306	-1.123490	-0.484602
C19	C	0.338317	-1.016276	-0.484607
C20	C	0.338318	-0.929206	-0.484619
C21	C	0.338322	-0.819973	-0.484643
C22	C	0.520799	-1.363293	-0.495297
C23	C	0.598865	-1.358757	-0.499885
C24	C	0.635536	-1.418343	-0.440416
C25	C	0.708887	-1.414082	-0.444737
C26	C	0.745566	-1.350230	-0.508521
C27	C	0.708890	-1.290641	-0.567996
C28	C	0.635540	-1.294907	-0.563680
C29	C	0.967035	-1.334265	-0.524641
C30	C	1.040390	-1.330001	-0.528951
C31	C	1.040382	-1.453443	-0.405692
C32	C	0.967031	-1.457700	-0.401377
C33	C	0.930361	-1.398115	-0.460856
C34	C	0.820543	-1.345871	-0.512937
C35	C	0.855386	-1.402480	-0.456444
C36	C	1.155127	-1.384975	-0.473992
C37	C	1.077061	-1.389587	-0.469482
C38	C	0.338257	-1.374176	-0.736238
C39	C	0.338231	-1.374207	-0.843451
C40	C	0.338331	-0.625696	-0.484684
C41	C	0.338328	-0.732910	-0.484668
C42	C	0.338183	-1.374236	-1.039743
C43	C	0.338212	-1.374216	-0.930512
C44	C	0.338330	-1.374091	-0.234035
C45	C	0.338159	-1.374258	-0.126811
H46	H	0.605677	-1.470334	-0.388472
H47	H	0.738760	-1.238655	-0.619936
H48	H	0.738741	-1.462603	-0.396310
C49	C	1.062880	-1.615495	-0.360196
C50	C	1.080686	-1.518948	-0.340322
H51	H	1.087758	-1.655938	-0.319833
H52	H	1.074862	-1.628870	-0.425716
H53	H	1.013945	-1.627155	-0.348499
H54	H	1.129621	-1.507286	-0.352025
H55	H	1.068709	-1.505568	-0.274786
H56	H	0.825520	-1.454472	-0.404514
H57	H	0.937168	-1.509694	-0.349438
C58	C	0.553117	-1.169947	-0.572111
C59	C	0.595229	-1.229408	-0.629050
H60	H	0.528229	-1.129517	-0.612474
H61	H	0.581776	-1.131405	-0.531744
H62	H	0.520778	-1.208595	-0.533510
H63	H	0.627571	-1.190760	-0.667646
H64	H	0.566567	-1.267954	-0.669433
C65	C	0.902975	-1.327604	-0.647508
C66	C	0.860866	-1.275678	-0.583040
H67	H	0.927874	-1.284269	-0.690782
H68	H	0.874313	-1.371259	-0.682766
H69	H	0.935304	-1.362487	-0.612696
H70	H	0.828533	-1.240801	-0.617852
H71	H	0.889531	-1.232006	-0.547778
C72	C	1.033034	-1.208424	-0.650379
C73	C	1.080709	-1.259818	-0.599078
H74	H	1.057927	-1.165105	-0.693674
H75	H	1.004472	-1.173204	-0.606644
H76	H	1.004378	-1.252112	-0.685625
H77	H	1.109362	-1.216131	-0.563826
H78	H	1.109283	-1.295040	-0.642819
H79	H	0.937184	-1.285746	-0.573069
