data_functionalizedCrystal
_audit_creation_method	'MofGen! by Chris Wilmer'
_symmetry_space_group_name_H-M	'P1'
_symmetry_Int_Tables_number	1
_symmetry_cell_setting	triclinic
loop_
_symmetry_equiv_pos_as_xyz
  x,y,z
_cell_length_a	23.096457
_cell_length_b	17.917603
_cell_length_c	23.096457
_cell_angle_alpha	122.981398
_cell_angle_beta	89.986219
_cell_angle_gamma	63.033951
loop_
_atom_site_label
_atom_site_type_symbol
_atom_site_fract_x
_atom_site_fract_y
_atom_site_fract_z
Zr1	Zr	0.586635	0.818645	0.104909
O2	O	0.499667	0.974673	0.202866
O3	O	0.609477	0.662618	0.071060
O4	O	0.614949	0.818649	0.197361
O5	O	0.494221	0.818639	-0.018718
O6	O	0.710230	0.818651	0.197364
O7	O	0.494194	0.818642	0.076565
O8	O	0.700440	0.539539	-0.028565
O9	O	0.504010	1.097750	0.207212
O10	O	0.694939	0.726795	0.061242
O11	O	0.623852	0.726791	-0.009869
O12	O	0.630295	0.910498	0.138834
O13	O	0.559208	0.910494	0.067723
Zr14	Zr	0.738639	0.818643	-0.047050
Zr15	Zr	0.738596	0.818648	0.104915
Zr16	Zr	0.586677	0.818640	-0.047056
Zr17	Zr	0.593562	1.014939	0.111840
Zr18	Zr	0.731711	0.622350	-0.053981
O19	O	0.715797	0.974671	-0.013200
O20	O	0.715736	0.974678	0.202874
O21	O	0.499727	0.974666	-0.013209
O22	O	0.825607	0.662615	-0.145006
O23	O	0.825546	0.662622	0.071068
O24	O	0.609537	0.662610	-0.145014
O25	O	0.831053	0.818649	0.076577
O26	O	0.710324	0.818639	-0.139501
O27	O	0.615044	0.818637	-0.139505
O28	O	0.831079	0.818646	-0.018705
O29	O	0.624799	1.097753	0.207216
O30	O	0.700474	0.539535	-0.149357
O31	O	0.821263	0.539538	-0.149352
O32	O	0.821229	0.539542	-0.028561
O33	O	0.504044	1.097746	0.086420
O34	O	0.624833	1.097749	0.086424
O35	O	0.694978	0.726790	-0.080975
O36	O	0.766065	0.726794	-0.009864
O37	O	0.701422	0.910497	0.067728
O38	O	0.630335	0.910493	-0.003383
C39	C	0.653971	0.573111	0.020260
C40	C	0.651030	0.489779	0.017317
C41	C	0.645657	0.337209	0.011944
C42	C	0.679615	0.300074	0.045914
C43	C	0.676625	0.215179	0.042924
C44	C	0.648646	0.422112	0.014933
C45	C	0.472556	0.818640	0.028923
C46	C	0.408045	0.818639	0.028920
C47	C	0.411482	0.722750	-0.011575
C48	C	0.350867	0.722749	-0.011578
C49	C	0.286814	0.818641	0.028928
C50	C	0.283380	0.914542	0.069426
C51	C	0.343995	0.914541	0.069422
N52	N	0.166521	0.890020	0.091860
N53	N	0.108941	0.890014	0.091862
C54	C	0.104182	0.818650	0.028941
N55	N	0.159183	0.747276	-0.033982
N56	N	0.216769	0.747278	-0.033983
C57	C	0.221083	0.818653	0.028936
C58	C	0.041896	0.722754	-0.011562
C59	C	-0.018722	0.722757	-0.011567
C60	C	-0.086210	0.914552	0.069444
C61	C	-0.025592	0.914547	0.069442
C62	C	0.038458	0.818645	0.028941
C63	C	0.852717	0.818648	0.028937
C64	C	0.917229	0.818650	0.028939
C65	C	0.662583	0.818651	0.219014
C66	C	0.662565	0.818653	0.283527
C67	C	0.671302	1.064177	0.037600
C68	C	0.674243	1.147509	0.040542
C69	C	0.628824	0.914541	0.354333
C70	C	0.628840	0.914544	0.414950
C71	C	0.662586	0.818652	0.404757
C72	C	0.696335	0.722751	0.333938
C73	C	0.696325	0.722751	0.273323
N74	N	0.654942	0.747275	0.469792
N75	N	0.654949	0.747281	0.527376
C76	C	0.662622	0.818645	0.587383
N77	N	0.670275	0.890019	0.587637
N78	N	0.670265	0.890015	0.530048
C79	C	0.662602	0.818641	0.470479
C80	C	0.628896	0.914542	0.723919
C81	C	0.628916	0.914541	0.784536
C82	C	0.696407	0.722745	0.703521
C83	C	0.696391	0.722750	0.642907
C84	C	0.662632	0.818651	0.653111
C85	C	0.662679	0.818641	0.838846
C86	C	0.662664	0.818648	0.774337
C87	C	0.844052	0.573115	0.020267
C88	C	0.905623	0.489785	0.017327
C89	C	0.654025	0.573104	-0.169825
C90	C	0.651102	0.489770	-0.237280
C91	C	0.844105	0.573108	-0.169818
C92	C	0.905694	0.489776	-0.237271
C93	C	0.481168	1.064180	0.227677
C94	C	0.419580	1.147512	0.295130
C95	C	0.481222	1.064173	0.037592
C96	C	0.419651	1.147503	0.040532
C97	C	0.671249	1.064184	0.227684
C98	C	0.674172	1.147518	0.295140
C99	C	0.897409	0.450652	0.053069
C100	C	0.955256	0.372366	0.050321
C101	C	1.021315	0.333207	0.011826
C102	C	1.029527	0.372347	-0.023917
C103	C	0.971681	0.450638	-0.021164
C104	C	0.686857	0.450635	-0.306081
C105	C	0.684108	0.372345	-0.369468
C106	C	0.645608	0.333186	-0.364053
C107	C	0.609849	0.372329	-0.295245
C108	C	0.612594	0.450623	-0.231859
C109	C	0.971730	0.450644	-0.231828
C110	C	1.029605	0.372355	-0.295201
C111	C	1.021443	0.333194	-0.364016
C112	C	0.955401	0.372334	-0.369457
C113	C	0.897527	0.450626	-0.306085
C114	C	0.353544	1.186654	0.289688
C115	C	0.295670	1.264967	0.353062
C116	C	0.303832	1.304132	0.421877
C117	C	0.369874	1.264987	0.427318
C118	C	0.427747	1.186681	0.363945
C119	C	0.427864	1.186644	0.004797
C120	C	0.370019	1.264952	0.007562
C121	C	0.303960	1.304114	0.046059
C122	C	0.295747	1.264970	0.081799
C123	C	0.353593	1.186668	0.079038
C124	C	0.712678	1.186652	0.289701
C125	C	0.715438	1.264943	0.353076
C126	C	0.679687	1.304103	0.421890
C127	C	0.641179	1.264961	0.427327
C128	C	0.638424	1.186667	0.363952
H129	H	0.463631	0.644660	-0.044550
N130	N	0.642662	0.248730	-0.432427
H131	H	0.661498	0.183753	-0.434754
H132	H	0.593345	0.276057	-0.431465
H133	H	0.376718	1.296810	-0.021545
H134	H	0.601362	0.992630	0.472611
N135	N	0.596879	1.144480	0.369832
H136	H	0.560010	1.158115	0.346825
H137	H	0.628191	1.065895	0.343579
H138	H	0.948556	0.340507	0.079428
N139	N	0.592500	1.017968	0.734912
H140	H	0.555292	1.022246	0.711586
H141	H	0.571175	1.078659	0.788979
H142	H	0.578503	0.340434	-0.290847
H143	H	0.718208	0.482510	-0.310504
N144	N	1.083703	0.248766	0.008862
H145	H	1.068470	0.229922	0.037347
H146	H	1.110576	0.183843	-0.043718
N147	N	0.241573	1.388551	0.049019
H148	H	0.198475	1.407423	0.078826
H149	H	0.243899	1.453462	0.072414
H150	H	0.583480	0.482476	-0.175841
H151	H	0.481648	1.154765	-0.026556
H152	H	1.083320	0.340453	-0.055258
H153	H	0.353666	0.644663	-0.044555
H154	H	0.746793	1.296804	0.348635
H155	H	1.083375	0.340496	-0.290758
H156	H	0.741791	1.154780	0.233676
N157	N	0.602620	1.307211	0.501551
H158	H	0.551839	1.339706	0.508383
H159	H	0.620029	1.247437	0.505085
H160	H	0.614342	0.305246	-0.019380
H161	H	0.978388	0.482518	-0.175801
H162	H	0.481515	1.154813	0.368384
N163	N	0.682669	1.388540	0.490241
H164	H	0.712490	1.407382	0.476347
H165	H	0.634667	1.453465	0.521687
N166	N	0.344729	1.144456	0.117583
H167	H	0.294102	1.181150	0.142386
H168	H	0.365489	1.065858	0.080728
N169	N	0.980545	0.492837	-0.059720
H170	H	1.031172	0.456143	-0.084523
H171	H	0.956549	0.479198	-0.097524
N172	N	0.224442	1.307175	0.347191
H173	H	0.219922	1.339640	0.321548
H174	H	0.216711	1.247382	0.318328
N175	N	0.826304	0.492806	-0.311964
H176	H	0.790873	0.548344	-0.261380
H177	H	0.821839	0.525228	-0.337627
N178	N	0.721099	0.342409	0.087412
H179	H	0.717380	0.397935	0.083694
H180	H	0.702748	0.374885	0.140478
H181	H	0.601443	0.992628	0.842191
H182	H	0.376512	1.296886	0.483355
H183	H	0.713230	0.340485	-0.425488
H184	H	0.948765	0.340437	-0.425495
N185	N	0.214298	1.017970	0.113109
H186	H	0.176419	1.003421	0.106968
H187	H	0.210149	1.059852	0.166496
N188	N	0.241408	1.388590	0.490227
H189	H	0.198338	1.407435	0.476330
H190	H	0.240465	1.361285	0.518412
N191	N	0.732815	0.619316	0.692515
H192	H	0.698633	0.615027	0.715870
H193	H	0.754187	0.558633	0.638447
H194	H	0.346885	1.154770	0.233661
N195	N	1.083867	0.248750	-0.432365
H196	H	1.126937	0.229906	-0.418469
H197	H	1.081555	0.183828	-0.463807
H198	H	0.341191	0.992627	0.102396
H199	H	0.723864	0.644667	0.585252
N200	N	-0.155288	1.017979	0.113135
H201	H	-0.148266	1.078726	0.138791
H202	H	-0.181898	1.022153	0.079199
H203	H	0.241954	1.296867	0.113143
H204	H	-0.015917	0.644670	-0.044548
N205	N	0.110981	0.619324	-0.055245
H206	H	0.103959	0.558577	-0.080905
H207	H	0.137610	0.615147	-0.092708
H208	H	0.601338	0.992632	0.362648
N209	N	-0.029294	1.017969	0.113131
H210	H	-0.054589	1.059899	0.095147
H211	H	-0.054585	1.059802	0.166525
N212	N	0.732739	0.619323	0.322938
H213	H	0.727624	0.633872	0.372082
H214	H	0.711777	0.577443	0.294667
H215	H	0.843626	0.482534	0.084425
N216	N	0.732720	0.619325	0.196948
H217	H	0.754104	0.558575	0.199685
H218	H	0.698486	0.615145	0.170049
