data_functionalizedCrystal
_audit_creation_method	'MofGen! by Chris Wilmer'
_symmetry_space_group_name_H-M	'P1'
_symmetry_Int_Tables_number	1
_symmetry_cell_setting	triclinic
loop_
_symmetry_equiv_pos_as_xyz
  x,y,z
_cell_length_a	9.065218
_cell_length_b	7.681481
_cell_length_c	9.065215
_cell_angle_alpha	95.826309
_cell_angle_beta	85.015291
_cell_angle_gamma	84.191250
loop_
_atom_site_label
_atom_site_type_symbol
_atom_site_fract_x
_atom_site_fract_y
_atom_site_fract_z
O1	O	1.946634	0.146430	0.230141
O2	O	2.446634	0.646430	0.730141
O3	O	1.517349	0.146432	0.247887
O4	O	2.017349	0.646432	0.747887
O5	O	1.740868	0.146423	0.024371
O6	O	2.240868	0.646423	0.524371
O7	O	1.723115	0.146439	0.453657
O8	O	2.223115	0.646439	0.953657
O9	O	1.768378	-0.146435	-0.003204
O10	O	2.268378	0.353565	0.496796
O11	O	1.544860	-0.146427	0.220313
O12	O	2.044860	0.353573	0.720313
O13	O	1.974145	-0.146429	0.202566
O14	O	2.474145	0.353571	0.702566
Zn15	Zn	1.763870	-0.192925	0.207062
Zn16	Zn	2.263870	0.307075	0.707062
Zn17	Zn	1.727624	0.192929	0.243392
Zn18	Zn	2.227624	0.692929	0.743392
O19	O	1.750626	-0.146420	0.426083
O20	O	2.250626	0.353580	0.926083
C21	C	1.476118	0.000003	0.232395
C22	C	1.976118	0.500003	0.732395
C23	C	1.312275	0.000004	0.227295
C24	C	1.812275	0.500004	0.727295
N25	N	1.788618	-0.456261	0.182266
N26	N	2.288618	0.043739	0.682266
C27	C	2.015376	0.000004	0.218059
C28	C	2.515376	0.500004	0.718059
C29	C	2.179218	0.000015	0.223160
C30	C	2.679218	0.500015	0.723160
C31	C	1.752918	-0.000004	-0.044403
C32	C	2.252918	0.499996	0.455597
C33	C	1.747819	0.000001	-0.208246
C34	C	2.247819	0.500001	0.291754
N35	N	1.702887	0.456264	0.268176
N36	N	2.202887	0.956264	0.768176
C37	C	1.738575	0.000011	0.494857
C38	C	2.238575	0.500011	0.994857
C39	C	1.743673	0.000017	0.658701
C40	C	2.243673	0.500017	1.158701
H41	H	1.615373	-0.468536	0.355863
H42	H	2.115373	0.031464	0.855863
H43	H	1.876149	-0.531470	0.094584
H44	H	2.376149	-0.031470	0.594584
