data_functionalizedCrystal
_audit_creation_method	'MofGen! by Chris Wilmer'
_symmetry_space_group_name_H-M	'P1'
_symmetry_Int_Tables_number	1
_symmetry_cell_setting	triclinic
loop_
_symmetry_equiv_pos_as_xyz
  x,y,z
_cell_length_a	10.654550
_cell_length_b	16.992695
_cell_length_c	9.730223
_cell_angle_alpha	89.995280
_cell_angle_beta	89.999957
_cell_angle_gamma	87.576577
loop_
_atom_site_label
_atom_site_type_symbol
_atom_site_fract_x
_atom_site_fract_y
_atom_site_fract_z
O1	O	1.677361	0.110190	-0.114188
O2	O	1.312790	0.120688	-0.114214
O3	O	1.493614	0.001288	-0.114190
O4	O	1.496537	0.229590	-0.114212
O5	O	1.493601	0.001285	0.114390
O6	O	1.312777	0.120685	0.114366
O7	O	1.677349	0.110187	0.114391
Zn8	Zn	1.495061	0.115435	0.150671
Zn9	Zn	1.495078	0.115439	-0.150493
O10	O	1.496525	0.229586	0.114368
C11	C	1.265919	0.119916	0.000073
C12	C	1.126277	0.117609	0.000064
C13	C	1.052866	0.187910	0.000061
C14	C	0.921658	0.185738	0.000085
C15	C	0.937282	0.042959	0.000109
C16	C	1.068488	0.045132	0.000095
C17	C	1.489848	-0.027946	0.000099
C18	C	1.478628	-0.115051	0.000098
C19	C	1.586879	-0.164703	0.000107
C20	C	1.576330	-0.246547	0.000093
C21	C	1.457529	-0.278738	0.000080
C22	C	1.349270	-0.229080	0.000067
C23	C	1.359820	-0.147237	0.000071
C24	C	1.413802	-0.522573	0.000058
C25	C	1.403260	-0.604422	0.000059
C26	C	1.630321	-0.621884	0.000082
C27	C	1.640861	-0.540039	0.000094
C28	C	1.532602	-0.490388	0.000074
N29	N	1.446743	-0.362395	0.000071
N30	N	1.543389	-0.406733	0.000074
C31	C	1.724220	0.110959	0.000102
C32	C	1.863862	0.113265	0.000102
C33	C	1.500291	0.258821	0.000075
C34	C	1.511510	0.345926	0.000068
N35	N	1.495059	0.115432	0.356207
N36	N	1.495089	0.115437	-0.356030
C37	C	1.575159	0.062584	0.428144
C38	C	1.575171	0.062584	0.572026
C39	C	1.414980	0.168287	0.572024
C40	C	1.414962	0.168282	0.428144
H41	H	0.861892	0.242984	0.000086
Br42	Br	1.683858	-0.009143	0.330520
H43	H	1.252539	-0.255296	0.000048
H44	H	1.737601	-0.513836	0.000105
H45	H	1.128262	-0.012119	0.000101
Br46	Br	0.858847	-0.055399	0.000146
Br47	Br	1.748117	-0.121025	0.000144
H48	H	1.271671	-0.106811	0.000064
H49	H	1.664480	-0.286971	0.000104
Br50	Br	1.683876	-0.009144	0.669652
Br51	Br	1.777235	-0.689271	0.000110
Br52	Br	1.242019	-0.648109	0.000055
H53	H	1.349770	0.211318	0.630609
Br54	Br	1.266878	-0.455200	0.000022
Br55	Br	1.131290	0.286272	0.000024
H56	H	1.349729	0.211317	0.369569
