data_functionalizedCrystal
_audit_creation_method	'MofGen! by Chris Wilmer'
_symmetry_space_group_name_H-M	'P1'
_symmetry_Int_Tables_number	1
_symmetry_cell_setting	triclinic
loop_
_symmetry_equiv_pos_as_xyz
  x,y,z
_cell_length_a	15.944545
_cell_length_b	14.421503
_cell_length_c	8.559649
_cell_angle_alpha	90.003976
_cell_angle_beta	103.362582
_cell_angle_gamma	89.990135
loop_
_atom_site_label
_atom_site_type_symbol
_atom_site_fract_x
_atom_site_fract_y
_atom_site_fract_z
O1	O	1.101218	0.077049	-0.206018
O2	O	0.855027	0.077064	-0.231435
O3	O	0.999812	0.077053	0.013874
O4	O	0.956433	0.077060	-0.451327
O5	O	0.999827	-0.077171	0.013858
O6	O	0.855042	-0.077160	-0.231451
O7	O	1.101233	-0.077174	-0.206034
Cu8	Cu	0.978139	-0.091249	-0.218744
Cu9	Cu	0.978121	0.091138	-0.218725
O10	O	0.956448	-0.077164	-0.451343
C11	C	0.823809	-0.000046	-0.230390
C12	C	0.730766	-0.000041	-0.227232
N13	N	0.978157	-0.219530	-0.218756
C14	C	0.470556	-0.000053	-0.065741
C15	C	0.516120	-0.076094	-0.143607
C16	C	0.395849	-0.000057	-0.215969
C17	C	0.516083	0.075958	-0.143631
C18	C	0.560406	-0.000047	-0.221495
C19	C	0.440188	-0.076161	-0.293795
C20	C	0.440149	0.075960	-0.293797
C21	C	0.485673	-0.000100	-0.371773
C22	C	0.301053	-0.000063	-0.212782
C23	C	0.655199	-0.000048	-0.224694
C24	C	1.045120	-0.469164	-0.105300
C25	C	0.971223	-0.530957	-0.074264
C26	C	0.978140	-0.408692	-0.218737
C27	C	1.052024	-0.530993	-0.249680
C28	C	0.978130	-0.591413	-0.218715
C29	C	0.904209	-0.469124	-0.187629
C30	C	0.985056	-0.469154	-0.363108
C31	C	0.911101	-0.530919	-0.332133
C32	C	0.978147	-0.303430	-0.218746
C33	C	0.978114	-0.696672	-0.218707
C34	C	1.132452	-0.000063	-0.207079
C35	C	1.225494	-0.000062	-0.210237
C36	C	1.003107	-0.000058	0.073396
C37	C	1.012892	-0.000054	0.250775
N38	N	0.978111	0.219419	-0.218700
C39	C	0.953153	-0.000051	-0.510865
C40	C	0.943368	-0.000049	-0.688244
H41	H	0.463252	-0.000129	0.063637
F42	F	0.836988	-0.566139	-0.457518
F43	F	0.559293	-0.160126	-0.060692
H44	H	0.990944	-0.441986	-0.485170
H45	H	1.114512	-0.558169	-0.275862
F46	F	0.396956	0.159993	-0.376645
H47	H	0.841716	-0.442062	-0.161309
H48	H	1.079902	-0.000061	0.334268
H49	H	0.407293	-0.140517	-0.357199
F50	F	0.494999	-0.000151	-0.541011
F51	F	0.559228	0.159980	-0.060664
H52	H	1.101714	-0.442048	-0.009317
H53	H	0.965362	-0.558105	0.047837
H54	H	0.876354	-0.000052	0.228254
