data_functionalizedCrystal
_audit_creation_method	'MofGen! by Chris Wilmer'
_symmetry_space_group_name_H-M	'P1'
_symmetry_Int_Tables_number	1
_symmetry_cell_setting	triclinic
loop_
_symmetry_equiv_pos_as_xyz
  x,y,z
_cell_length_a	15.944551
_cell_length_b	12.837942
_cell_length_c	11.892095
_cell_angle_alpha	94.302569
_cell_angle_beta	86.105155
_cell_angle_gamma	89.163839
loop_
_atom_site_label
_atom_site_type_symbol
_atom_site_fract_x
_atom_site_fract_y
_atom_site_fract_z
O1	O	1.130053	0.127078	-0.093883
O2	O	1.630053	0.627078	0.406117
O3	O	0.886824	0.143559	-0.093911
O4	O	1.386824	0.643559	0.406089
O5	O	1.003045	-0.015584	-0.093891
O6	O	1.503045	0.484416	0.406109
O7	O	1.013832	0.286221	-0.093904
O8	O	1.513832	0.786221	0.406096
O9	O	0.993353	-0.002336	0.094115
O10	O	1.493353	0.497664	0.594115
O11	O	0.877132	0.156808	0.094095
O12	O	1.377132	0.656808	0.594095
O13	O	1.120361	0.140326	0.094122
O14	O	1.620361	0.640326	0.594122
Zn15	Zn	0.997208	0.150670	0.123958
Zn16	Zn	1.497208	0.650670	0.623958
Zn17	Zn	1.009977	0.133215	-0.123747
Zn18	Zn	1.509977	0.633215	0.376253
O19	O	1.004140	0.299470	0.094102
O20	O	1.504140	0.799470	0.594102
C21	C	0.994555	-0.047581	0.000111
C22	C	1.494555	0.452419	0.500111
C23	C	0.983687	-0.162659	0.000108
C24	C	1.483687	0.337341	0.500108
C25	C	0.850629	0.149499	0.000088
C26	C	1.350629	0.649499	0.500088
C27	C	0.757219	0.147447	0.000078
C28	C	1.257219	0.647447	0.500078
C29	C	1.114340	-0.403609	0.000099
C30	C	1.614340	0.096391	0.500099
C31	C	1.104133	-0.511736	0.000096
C32	C	1.604133	-0.011736	0.500096
C33	C	0.953066	-0.487042	0.000091
C34	C	1.453066	0.012958	0.500091
C35	C	0.963274	-0.378915	0.000094
C36	C	1.463274	0.121085	0.500094
C37	C	1.043913	-0.337203	0.000100
C38	C	1.543913	0.162797	0.500100
C39	C	1.054119	-0.229073	0.000111
C40	C	1.554119	0.270927	0.500111
C41	C	0.903054	-0.204382	0.000097
C42	C	1.403054	0.295618	0.500097
C43	C	0.892846	-0.312509	0.000094
C44	C	1.392846	0.187491	0.500094
C45	C	0.534078	0.043899	0.000104
C46	C	1.034078	0.543899	0.500104
C47	C	0.481683	0.085452	-0.092595
C48	C	0.981683	0.585452	0.407405
C49	C	0.586196	0.143736	0.000091
C50	C	1.086196	0.643736	0.500091
C51	C	0.472152	0.098537	0.092764
C52	C	0.972152	0.598537	0.592764
C53	C	0.420995	0.140145	0.000109
C54	C	0.920995	0.640145	0.500109
C55	C	0.535035	0.185310	-0.092684
C56	C	1.035035	0.685310	0.407316
C57	C	0.525505	0.198388	0.092758
C58	C	1.025505	0.698388	0.592758
C59	C	0.473135	0.240011	0.000036
C60	C	0.973135	0.740011	0.500036
C61	C	0.681364	0.145802	0.000080
C62	C	1.181364	0.645802	0.500080
C63	C	0.325829	0.138086	0.000112
C64	C	0.825829	0.638086	0.500112
C65	C	1.156556	0.134386	0.000121
C66	C	1.656556	0.634386	0.500121
C67	C	1.249966	0.136438	0.000124
C68	C	1.749966	0.636438	0.500124
C69	C	1.012630	0.331466	0.000098
C70	C	1.512630	0.831466	0.500098
C71	C	1.023498	0.446544	0.000094
C72	C	1.523498	0.946544	0.500094
N73	N	0.988499	0.162583	0.293011
N74	N	1.488499	0.662583	0.793011
N75	N	1.018692	0.121294	-0.292800
N76	N	1.518692	0.621294	0.207200
C77	C	1.079287	0.038343	0.529675
C78	C	1.579287	0.538343	1.029675
C79	C	1.073206	0.046677	0.648016
C80	C	1.573206	0.546677	1.148016
C81	C	0.970253	0.187580	0.648036
C82	C	1.470253	0.687580	1.148036
C83	C	0.976334	0.179246	0.529695
C84	C	1.476334	0.679246	1.029695
C85	C	1.030853	0.104626	0.470519
C86	C	1.530853	0.604626	0.970519
C87	C	1.036938	0.096297	0.352176
C88	C	1.536938	0.596297	0.852176
C89	C	0.933981	0.237194	0.352198
C90	C	1.433981	0.737194	0.852198
C91	C	0.927900	0.245528	0.470539
C92	C	1.427900	0.745528	0.970539
H93	H	1.119779	-0.195113	0.000120
H94	H	1.619779	0.304887	0.500120
H95	H	0.562443	0.221977	-0.171139
H96	H	1.062443	0.721977	0.328861
H97	H	0.845706	-0.150301	0.000106
H98	H	1.345706	0.349699	0.500106
H99	H	1.081333	0.035541	0.303995
H100	H	1.581333	0.535541	0.803995
H101	H	0.446614	0.322950	-0.000019
H102	H	0.946614	0.822950	0.499981
H103	H	0.544971	0.246103	0.171128
H104	H	1.044971	0.746103	0.671128
H105	H	0.462235	0.037702	-0.170962
H106	H	0.962235	0.537702	0.329038
H107	H	0.444646	0.061814	0.171131
H108	H	0.944646	0.561814	0.671131
H109	H	1.123685	-0.022409	0.481493
H110	H	1.623685	0.477591	0.981493
H111	H	0.894545	0.291169	0.304019
H112	H	1.394545	0.791169	0.804019
H113	H	1.179999	-0.369646	0.000115
H114	H	1.679999	0.130354	0.500115
H115	H	1.112645	-0.007298	0.696177
H116	H	1.612645	0.492702	1.196177
H117	H	0.887414	-0.521025	0.000074
H118	H	1.387414	-0.021025	0.500074
H119	H	0.925858	0.248327	0.696232
H120	H	1.425858	0.748327	1.196232
H121	H	1.161482	-0.565801	0.000092
H122	H	1.661482	-0.065801	0.500092
H123	H	0.827192	-0.346487	0.000085
H124	H	1.327192	0.153513	0.500085
H125	H	0.883509	0.306280	0.518734
H126	H	1.383509	0.806280	1.018734
H127	H	0.560789	-0.038966	-0.000007
H128	H	1.060789	0.461034	0.499993
