data_functionalizedCrystal
_audit_creation_method	'MofGen! by Chris Wilmer'
_symmetry_space_group_name_H-M	'P1'
_symmetry_Int_Tables_number	1
_symmetry_cell_setting	triclinic
loop_
_symmetry_equiv_pos_as_xyz
  x,y,z
_cell_length_a	14.044220
_cell_length_b	14.971482
_cell_length_c	13.101032
_cell_angle_alpha	86.633984
_cell_angle_beta	86.332749
_cell_angle_gamma	91.599257
loop_
_atom_site_label
_atom_site_type_symbol
_atom_site_fract_x
_atom_site_fract_y
_atom_site_fract_z
O1	O	-0.118296	1.201186	-0.085199
O2	O	0.381704	1.701186	0.414801
O3	O	-0.133094	0.941952	-0.085204
O4	O	0.366906	1.441952	0.414796
O5	O	0.012294	1.067678	-0.085197
O6	O	0.512294	1.567678	0.414803
O7	O	-0.263684	1.075460	-0.085206
O8	O	0.236316	1.575460	0.414794
O9	O	0.001851	1.058646	0.085233
O10	O	0.501851	1.558646	0.585233
O11	O	-0.143536	0.932920	0.085226
O12	O	0.356464	1.432920	0.585226
O13	O	-0.128739	1.192154	0.085230
O14	O	0.371261	1.692154	0.585230
Zn15	Zn	-0.137795	1.061103	0.112287
Zn16	Zn	0.362205	1.561103	0.612287
Zn17	Zn	-0.124037	1.073003	-0.112261
Zn18	Zn	0.375963	1.573003	0.387739
O19	O	-0.274126	1.066428	0.085224
O20	O	0.225874	1.566428	0.585224
C21	C	-0.137654	0.904059	0.000010
C22	C	0.362346	1.404059	0.500010
C23	C	-0.135672	0.804606	0.000008
C24	C	0.364328	1.304606	0.500008
C25	C	-0.140431	0.752964	0.092911
C26	C	0.359569	1.252964	0.592911
C27	C	-0.138555	0.659518	0.092912
C28	C	0.361445	1.159518	0.592912
C29	C	-0.131926	0.617714	0.000010
C30	C	0.368074	1.117714	0.500010
C31	C	-0.127163	0.669363	-0.092900
C32	C	0.372837	1.169363	0.407100
C33	C	-0.129033	0.762808	-0.092900
C34	C	0.370967	1.262808	0.407100
C35	C	-0.123269	0.474594	-0.092893
C36	C	0.376731	0.974594	0.407107
C37	C	-0.121400	0.381142	-0.092894
C38	C	0.378600	0.881142	0.407106
C39	C	-0.132790	0.371304	0.092919
C40	C	0.367210	0.871304	0.592919
C41	C	-0.134660	0.464749	0.092919
C42	C	0.365340	0.964749	0.592919
C43	C	-0.129899	0.516391	0.000009
C44	C	0.370101	1.016391	0.500009
C45	C	-0.304223	1.074351	0.000007
C46	C	0.195777	1.574351	0.500007
C47	C	-0.409460	1.084512	0.000004
C48	C	0.090540	1.584512	0.500004
C49	C	-0.602142	1.103089	0.000009
C50	C	-0.102142	1.603089	0.500009
C51	C	-0.659695	1.031022	0.000008
C52	C	-0.159695	1.531022	0.500008
C53	C	-0.766910	1.041358	0.000011
C54	C	-0.266910	1.541358	0.500011
C55	C	-0.494917	1.092754	0.000006
C56	C	0.005083	1.592754	0.500006
C57	C	0.042391	1.059755	0.000017
C58	C	0.542391	1.559755	0.500017
C59	C	0.147628	1.049594	0.000013
C60	C	0.647628	1.549594	0.500013
C61	C	-0.124179	1.230047	0.000014
C62	C	0.375821	1.730047	0.500014
C63	C	-0.126159	1.329501	0.000009
C64	C	0.373841	1.829501	0.500009
N65	N	-0.147185	1.052988	0.265536
N66	N	0.352815	1.552988	0.765536
C67	C	-0.101874	1.092156	0.525448
C68	C	0.398126	1.592156	1.025448
C69	C	-0.159959	1.041955	0.474572
C70	C	0.340041	1.541955	0.974572
C71	C	-0.152850	1.048095	0.358254
C72	C	0.347150	1.548095	0.858254
C73	C	-0.108982	1.086017	0.641777
C74	C	0.391018	1.586017	1.141777
N75	N	-0.114652	1.081121	0.734490
N76	N	0.385348	1.581121	1.234490
H77	H	-0.145837	0.786993	0.168563
H78	H	0.354163	1.286993	0.668563
N79	N	-0.032798	1.151849	0.470492
N80	N	0.467202	1.651849	0.970492
N81	N	-0.027052	1.156813	0.374710
N82	N	0.472948	1.656813	0.874710
H83	H	0.021731	1.198973	0.335885
H84	H	0.521731	1.698973	0.835885
H85	H	-0.628446	0.961560	0.000008
H86	H	-0.128446	1.461560	0.500008
H87	H	-0.142414	0.617476	0.168563
H88	H	0.357586	1.117476	0.668563
H89	H	-0.140064	0.498782	0.168568
H90	H	0.359936	0.998782	0.668568
H91	H	-0.633390	1.172544	0.000014
H92	H	-0.133390	1.672544	0.500014
H93	H	-0.119392	0.516638	-0.168551
H94	H	0.380608	1.016638	0.331449
N95	N	-0.137669	0.318544	0.187817
N96	N	0.362331	0.818544	0.687817
N97	N	-0.136005	0.235112	0.187808
N98	N	0.363995	0.735112	0.687808
H99	H	-0.139460	0.197845	0.254827
H100	H	0.360540	0.697845	0.754827
N101	N	-0.229037	0.982254	0.529528
N102	N	0.270963	1.482254	1.029528
N103	N	-0.234790	0.977286	0.625311
N104	N	0.265210	1.477286	1.125311
H105	H	-0.283574	0.935125	0.664129
H106	H	0.216426	1.435125	1.164129
H107	H	-0.116003	0.347109	-0.168543
H108	H	0.383997	0.847109	0.331457
H109	H	-0.125160	0.804854	-0.168551
H110	H	0.374840	1.304854	0.331449
N111	N	-0.120371	0.626665	-0.187798
N112	N	0.379629	1.126665	0.312202
N113	N	-0.051286	0.578543	-0.208522
N114	N	0.448714	1.078543	0.291478
H115	H	-0.046489	0.548388	-0.275546
H116	H	0.453511	1.048388	0.224454
