data_functionalizedCrystal
_audit_creation_method	'MofGen! by Chris Wilmer'
_symmetry_space_group_name_H-M	'P1'
_symmetry_Int_Tables_number	1
_symmetry_cell_setting	triclinic
loop_
_symmetry_equiv_pos_as_xyz
  x,y,z
_cell_length_a	23.096457
_cell_length_b	23.096457
_cell_length_c	19.851628
_cell_angle_alpha	59.997392
_cell_angle_beta	89.995957
_cell_angle_gamma	59.998679
loop_
_atom_site_label
_atom_site_type_symbol
_atom_site_fract_x
_atom_site_fract_y
_atom_site_fract_z
Zr1	Zr	0.557791	0.633723	-0.088387
O2	O	0.465343	0.754519	-0.195945
O3	O	0.586130	0.512934	-0.055419
O4	O	0.586132	0.633731	-0.195954
O5	O	0.465342	0.633714	0.055450
O6	O	0.681414	0.633728	-0.195956
O7	O	0.465341	0.633722	-0.055411
O8	O	0.681410	0.417645	0.055434
O9	O	0.465346	0.849797	-0.195940
O10	O	0.669326	0.562612	-0.041356
O11	O	0.598219	0.562607	0.041380
O12	O	0.598221	0.704830	-0.124081
O13	O	0.527114	0.704825	-0.041345
Zr14	Zr	0.709757	0.633705	0.088418
Zr15	Zr	0.709756	0.633719	-0.088391
Zr16	Zr	0.557793	0.633709	0.088422
Zr17	Zr	0.557795	0.785680	-0.088380
Zr18	Zr	0.709753	0.481748	0.088411
O19	O	0.681419	0.754494	0.055450
O20	O	0.681417	0.754514	-0.195950
O21	O	0.465345	0.754500	0.055456
O22	O	0.802205	0.512909	0.195976
O23	O	0.802203	0.512929	-0.055425
O24	O	0.586131	0.512914	0.195981
O25	O	0.802206	0.633714	-0.055419
O26	O	0.681417	0.633697	0.195984
O27	O	0.586134	0.633700	0.195987
O28	O	0.802207	0.633706	0.055442
O29	O	0.586137	0.849795	-0.195943
O30	O	0.681411	0.417634	0.195974
O31	O	0.802203	0.417631	0.195971
O32	O	0.802202	0.417642	0.055431
O33	O	0.465347	0.849786	-0.055400
O34	O	0.586138	0.849783	-0.055403
O35	O	0.669327	0.562599	0.124112
O36	O	0.740435	0.562603	0.041376
O37	O	0.669330	0.704821	-0.041349
O38	O	0.598222	0.704817	0.041387
C39	C	0.633769	0.443639	0.000006
C40	C	0.633768	0.379129	0.000003
C41	C	0.670880	0.348830	-0.043187
C42	C	0.670887	0.288208	-0.043180
C43	C	0.633768	0.257898	0.000005
C44	C	0.596654	0.288201	0.043205
C45	C	0.596654	0.348816	0.043204
N46	N	0.573362	0.195504	-0.005982
N47	N	0.573364	0.137924	-0.005985
C48	C	0.633767	0.075266	0.000013
N49	N	0.694168	0.072372	0.005998
N50	N	0.694165	0.129961	0.005997
C51	C	0.633764	0.192170	0.000012
C52	C	0.670891	-0.020767	-0.043172
C53	C	0.670899	-0.081394	-0.043159
C54	C	0.596659	-0.081394	0.043221
C55	C	0.596657	-0.020774	0.043213
C56	C	0.633771	0.009539	0.000013
C57	C	0.443690	0.633719	0.000020
C58	C	0.379177	0.633720	0.000022
C59	C	0.348874	0.633731	-0.061056
C60	C	0.288262	0.633723	-0.061056
C61	C	0.257947	0.633722	0.000016
C62	C	0.288260	0.633706	0.061104
C63	C	0.348875	0.633705	0.061107
N64	N	0.139596	0.680075	0.018507
N65	N	0.082013	0.680078	0.018499
C66	C	0.075317	0.633722	0.000012
N67	N	0.128375	0.587374	-0.018484
N68	N	0.185961	0.587376	-0.018480
C69	C	0.192220	0.633722	0.000020
C70	C	-0.020708	0.633724	-0.061070
C71	C	-0.081319	0.633711	-0.061064
C72	C	-0.081324	0.633702	0.061093
C73	C	-0.020710	0.633706	0.061091
C74	C	0.009592	0.633721	0.000005
C75	C	0.823858	0.633710	0.000011
C76	C	0.888371	0.633708	0.000009
C77	C	0.633773	0.633732	-0.221146
C78	C	0.633772	0.633738	-0.296207
C79	C	0.633779	0.823790	0.000025
C80	C	0.633781	0.888299	0.000028
C81	C	0.595002	0.711263	-0.567552
C82	C	0.566894	0.672516	-0.500093
C83	C	0.633774	0.633705	-0.566352
C84	C	0.661848	0.672493	-0.500097
C85	C	0.633772	0.633725	-0.433623
C86	C	0.605627	0.594957	-0.499881
C87	C	0.700618	0.594945	-0.499895
C88	C	0.672527	0.556142	-0.432423
C89	C	0.633774	0.633696	-0.642815
C90	C	0.633771	0.633729	-0.357158
C91	C	0.633776	0.633697	0.221177
C92	C	0.633776	0.633691	0.296237
C93	C	0.823854	0.443634	0.000001
C94	C	0.888365	0.379123	-0.000003
C95	C	0.633771	0.443621	0.221168
C96	C	0.633770	0.379105	0.296225
C97	C	0.823855	0.443617	0.221163
C98	C	0.888367	0.379099	0.296219
C99	C	0.443693	0.823812	-0.221132
C100	C	0.379181	0.888329	-0.296188
C101	C	0.443695	0.823794	0.000030
C102	C	0.379184	0.888306	0.000034
C103	C	0.633777	0.823807	-0.221137
C104	C	0.633778	0.888323	-0.296194
C105	C	0.881542	0.348832	-0.043198
C106	C	0.942151	0.288225	-0.043219
C107	C	1.009583	0.257906	-0.000040
C108	C	1.016404	0.288203	0.043156
C109	C	0.955796	0.348813	0.043172
C110	C	0.670887	0.348804	0.374665
C111	C	0.670884	0.288193	0.445196
C112	C	0.633766	0.257880	0.437285
C113	C	0.596644	0.288188	0.358836
C114	C	0.596644	0.348802	0.288307
C115	C	0.955786	0.348804	0.288278
C116	C	1.016408	0.288191	0.358794
C117	C	1.009608	0.257871	0.437250
C118	C	0.942182	0.288173	0.445188
C119	C	0.881562	0.348788	0.374673
C120	C	0.311762	0.918632	-0.288247
C121	C	0.251141	0.979263	-0.358763
C122	C	0.257940	1.009586	-0.437219
C123	C	0.325366	0.979281	-0.445157
C124	C	0.385986	0.918655	-0.374642
C125	C	0.386007	0.918603	0.043222
C126	C	0.325397	0.979226	0.043223
C127	C	0.257966	1.009548	0.000042
C128	C	0.251144	0.979248	-0.043151
C129	C	0.311753	0.918629	-0.043157
C130	C	0.670903	0.918616	-0.288256
C131	C	0.670918	0.979227	-0.358774
C132	C	0.633804	1.009549	-0.437228
C133	C	0.596678	0.979250	-0.445164
C134	C	0.596668	0.918635	-0.374647
H135	H	0.566433	0.003898	0.078380
C136	C	0.332836	1.012635	-0.531460
H137	H	0.287074	1.053073	-0.572313
H138	H	0.358023	1.036284	-0.537662
H139	H	0.358011	0.969120	-0.537654
C140	C	0.711722	0.254859	0.531480
H141	H	0.706403	0.214425	0.572358
H142	H	0.760554	0.231209	0.537659
H143	H	0.693392	0.298383	0.537659
C144	C	0.555812	0.382165	0.090694
H145	H	0.561127	0.422608	0.084505
H146	H	0.506982	0.405809	0.069362
H147	H	0.574139	0.338654	0.147517
H148	H	0.701149	1.003891	-0.352296
C149	C	1.076246	0.191229	-0.000055
H150	H	1.062518	0.177529	-0.031960
H151	H	1.103675	0.211087	-0.023176
H152	H	1.103664	0.143924	0.054967
H153	H	1.071315	0.263508	0.078311
H154	H	0.701114	0.003912	-0.078346
H155	H	0.373548	0.633697	0.110845
C156	C	-0.114653	0.633724	-0.128254
H157	H	-0.087927	0.633741	-0.164635
H158	H	-0.114553	0.586233	-0.103175
H159	H	-0.162047	0.681223	-0.158417
H160	H	0.961361	0.373468	0.078351
C161	C	0.934635	0.254901	-0.090727
H162	H	0.885794	0.281630	-0.116425
H163	H	0.956727	0.264841	-0.131606
H164	H	0.956738	0.197668	-0.053449
H165	H	0.003967	0.633732	-0.110807
C166	C	0.176980	1.012586	-0.350021
H167	H	0.141846	1.053044	-0.403249
H168	H	0.171666	0.969067	-0.320723
H169	H	0.171674	1.036221	-0.320704
C170	C	0.304243	0.885297	-0.090655
H171	H	0.349993	0.844854	-0.084482
H172	H	0.279051	0.861659	-0.069322
H173	H	0.279057	0.928820	-0.147473
C174	C	0.490531	0.716798	-0.499188
H175	H	0.463043	0.771890	-0.546603
H176	H	0.470319	0.689785	-0.499503
H177	H	0.491119	0.716052	-0.450904
C178	C	0.332910	1.012548	0.090736
H179	H	0.287159	1.053002	0.084550
H180	H	0.358093	0.969028	0.147550
H181	H	0.358104	1.036187	0.069404
C182	C	0.711735	0.885271	-0.201966
H183	H	0.733851	0.911994	-0.207350
H184	H	0.679701	0.895205	-0.172653
H185	H	0.746860	0.828039	-0.172665
C186	C	0.460144	0.885318	-0.383387
H187	H	0.455504	0.912058	-0.440213
H188	H	0.485349	0.895239	-0.357673
H189	H	0.485324	0.828089	-0.357684
C190	C	0.711709	0.382147	0.383384
H191	H	0.733803	0.355421	0.440206
H192	H	0.746839	0.372217	0.357672
H193	H	0.679660	0.439378	0.357667
C194	C	-0.114664	0.633702	0.128270
H195	H	-0.155107	0.633709	0.119519
H196	H	-0.080987	0.586210	0.180992
H197	H	-0.128480	0.681200	0.125733
H198	H	0.633818	1.058905	-0.494640
H199	H	0.562176	0.776826	-0.625404
C200	C	0.573457	0.550718	-0.500666
H201	H	0.573630	0.551006	-0.548688
H202	H	0.600783	0.495784	-0.452980
H203	H	0.526098	0.578087	-0.500831
C204	C	0.304269	0.885296	-0.201956
H205	H	0.255431	0.912042	-0.207338
H206	H	0.326364	0.828069	-0.172644
H207	H	0.326377	0.895234	-0.172655
H208	H	0.566421	0.373466	0.224440
H209	H	0.196233	1.003945	-0.078309
H210	H	0.440907	0.893920	0.078391
C211	C	0.711708	0.254877	-0.090697
H212	H	0.733807	0.281616	-0.116429
H213	H	0.746833	0.197648	-0.053428
H214	H	0.679658	0.264823	-0.131563
C215	C	0.555805	1.012656	-0.531464
H216	H	0.533679	0.985948	-0.526101
H217	H	0.520696	1.069882	-0.560716
H218	H	0.587815	1.002749	-0.560813
C219	C	0.012619	0.633707	0.128270
H220	H	-0.014118	0.633712	0.164639
H221	H	0.060011	0.586216	0.158436
H222	H	0.012514	0.681206	0.103178
C223	C	0.191254	1.076262	-0.514778
H224	H	0.150130	1.089954	-0.498805
H225	H	0.191238	1.123565	-0.546691
H226	H	0.191247	1.056388	-0.546678
H227	H	0.705307	0.490524	-0.374666
C228	C	1.076292	0.191197	0.514811
H229	H	1.062592	0.177479	0.562678
H230	H	1.103715	0.143908	0.514808
H231	H	1.103705	0.211081	0.514802
C232	C	0.555816	0.885330	-0.383385
H233	H	0.561121	0.844885	-0.330156
H234	H	0.506988	0.928861	-0.412691
H235	H	0.574144	0.861683	-0.412692
H236	H	0.566436	-0.106072	0.078383
C237	C	0.711711	0.382164	-0.090698
H238	H	0.733820	0.355429	-0.116414
H239	H	0.679675	0.439393	-0.131563
H240	H	0.746841	0.372220	-0.053418
C241	C	0.807403	0.382104	0.383413
H242	H	0.772268	0.422551	0.330185
H243	H	0.802098	0.338578	0.412722
H244	H	0.802090	0.405750	0.412719
C245	C	0.633772	0.191203	0.514869
H246	H	0.606348	0.177489	0.498929
H247	H	0.681064	0.143913	0.546769
H248	H	0.613896	0.211081	0.546769
C249	C	0.555821	0.254865	0.090705
H250	H	0.561130	0.214431	0.084513
H251	H	0.574150	0.231214	0.147520
H252	H	0.506985	0.298387	0.069375
C253	C	0.711734	-0.114734	-0.090659
H254	H	0.706429	-0.155186	-0.084461
H255	H	0.693407	-0.071223	-0.147476
H256	H	0.760568	-0.138382	-0.069327
C257	C	0.963279	0.382147	0.201987
H258	H	1.012118	0.355423	0.207369
H259	H	0.941181	0.372214	0.172676
H260	H	0.941175	0.439379	0.172685
H261	H	0.263575	0.633703	0.110831
C262	C	0.776966	0.550702	-0.500844
H263	H	0.796852	0.578342	-0.501582
H264	H	0.804705	0.495902	-0.452928
H265	H	0.776439	0.550586	-0.548627
C266	C	0.191303	1.076224	0.000057
H267	H	0.205030	1.089916	0.031971
H268	H	0.163878	1.123526	-0.054959
H269	H	0.163880	1.056354	0.023189
H270	H	0.936656	0.263477	0.509076
H271	H	0.373546	0.633740	-0.110794
H272	H	0.685591	0.705285	-0.499453
C273	C	0.254915	0.633742	-0.128246
H274	H	0.214477	0.633737	-0.119495
H275	H	0.241104	0.681239	-0.180964
H276	H	0.288593	0.586249	-0.125719
C277	C	0.807374	0.382177	-0.090701
H278	H	0.772247	0.422609	-0.084506
H279	H	0.802058	0.405831	-0.147516
H280	H	0.802057	0.338657	-0.069375
C281	C	0.555828	0.254830	0.350145
H282	H	0.561156	0.214383	0.403388
H283	H	0.506992	0.298334	0.320845
H284	H	0.574170	0.231171	0.320850
H285	H	1.071303	0.263526	0.352316
