data_functionalizedCrystal
_audit_creation_method	'MofGen! by Chris Wilmer'
_symmetry_space_group_name_H-M	'P1'
_symmetry_Int_Tables_number	1
_symmetry_cell_setting	triclinic
loop_
_symmetry_equiv_pos_as_xyz
  x,y,z
_cell_length_a	16.992694
_cell_length_b	23.532357
_cell_length_c	22.610064
_cell_angle_alpha	90.005049
_cell_angle_beta	90.002954
_cell_angle_gamma	86.748258
loop_
_atom_site_label
_atom_site_type_symbol
_atom_site_fract_x
_atom_site_fract_y
_atom_site_fract_z
O1	O	1.039420	0.120704	-0.049123
O2	O	1.539420	0.620704	0.450877
O3	O	0.811146	0.119380	-0.049140
O4	O	1.311146	0.619380	0.450860
O5	O	0.932187	0.037451	-0.049119
O6	O	1.432187	0.537451	0.450881
O7	O	0.918379	0.202633	-0.049144
O8	O	1.418379	0.702633	0.450856
O9	O	0.932179	0.037473	0.049250
O10	O	1.432179	0.537473	0.549250
O11	O	0.811137	0.119402	0.049229
O12	O	1.311137	0.619402	0.549229
O13	O	1.039412	0.120726	0.049246
O14	O	1.539412	0.620726	0.549246
Zn15	Zn	0.925273	0.120067	0.064856
Zn16	Zn	1.425273	0.620067	0.564856
Zn17	Zn	0.925284	0.120038	-0.064750
Zn18	Zn	1.425284	0.620038	0.435250
O19	O	0.918371	0.202655	0.049225
O20	O	1.418371	0.702655	0.549225
C21	C	0.781943	0.117687	0.000043
C22	C	1.281943	0.617687	0.500043
C23	C	0.694939	0.112604	0.000036
C24	C	1.194939	0.612604	0.500036
C25	C	0.644305	0.161650	0.000029
C26	C	1.144305	0.661650	0.500029
C27	C	0.562556	0.156871	0.000038
C28	C	1.062556	0.656871	0.500038
C29	C	0.531444	0.103044	0.000050
C30	C	1.031444	0.603044	0.500050
C31	C	0.582086	0.053993	0.000059
C32	C	1.082086	0.553993	0.500059
C33	C	0.663832	0.058773	0.000054
C34	C	1.163832	0.558773	0.500054
C35	C	0.288006	0.083232	0.000069
C36	C	0.788006	0.583232	0.500069
C37	C	0.206253	0.078455	0.000072
C38	C	0.706253	0.578455	0.500072
C39	C	0.186729	0.181333	0.000052
C40	C	0.686729	0.681333	0.500052
C41	C	0.268478	0.186109	0.000044
C42	C	0.768478	0.686109	0.500044
C43	C	0.319112	0.137058	0.000056
C44	C	0.819112	0.637058	0.500056
N45	N	0.447885	0.098157	0.000057
N46	N	0.947885	0.598157	0.500057
N47	N	0.402670	0.141946	0.000053
N48	N	0.902670	0.641946	0.500053
C49	C	0.931837	0.016228	0.000068
C50	C	1.431837	0.516228	0.500068
C51	C	0.930799	-0.047042	0.000073
C52	C	1.430799	0.452958	0.500073
C53	C	0.924285	-0.439389	-0.053580
C54	C	1.424285	0.060611	0.446420
C55	C	0.923297	-0.498837	-0.053584
C56	C	1.423297	0.001163	0.446416
O57	O	0.922764	-0.529591	-0.099186
O58	O	1.422764	-0.029591	0.400814
N59	N	0.922803	-0.528561	0.000037
N60	N	1.422803	-0.028561	0.500037
C61	C	0.923289	-0.498832	0.053664
C62	C	1.423289	0.001168	0.553664
O63	O	0.922777	-0.529573	0.099272
O64	O	1.422777	-0.029573	0.599272
C65	C	0.924270	-0.439385	0.053667
C66	C	1.424270	0.060615	0.553667
C67	C	0.924772	-0.409665	0.000043
C68	C	1.424772	0.090335	0.500043
C69	C	0.924786	-0.409669	-0.107200
C70	C	1.424786	0.090331	0.392800
C71	C	0.925774	-0.350225	-0.107196
C72	C	1.425774	0.149775	0.392804
C73	C	0.926262	-0.320500	-0.053573
C74	C	1.426262	0.179500	0.446427
C75	C	0.925760	-0.350221	0.000046
C76	C	1.425760	0.149779	0.500046
C77	C	0.924749	-0.409657	0.107293
C78	C	1.424749	0.090343	0.607293
C79	C	0.925730	-0.350206	0.107291
C80	C	1.425730	0.149794	0.607291
C81	C	0.926232	-0.320486	0.053668
C82	C	1.426232	0.179514	0.553668
C83	C	0.927236	-0.261052	0.053673
C84	C	1.427236	0.238948	0.553673
N85	N	0.927730	-0.231329	0.000053
N86	N	1.427730	0.268671	0.500053
C87	C	0.927243	-0.261053	-0.053570
C88	C	1.427243	0.238947	0.446430
C89	C	0.921226	-0.623676	0.053654
C90	C	1.421226	-0.123676	0.553654
C91	C	0.920250	-0.683123	0.053652
C92	C	1.420250	-0.183123	0.553652
C93	C	0.920258	-0.683124	-0.053596
C94	C	1.420258	-0.183124	0.446404
C95	C	0.921239	-0.623676	-0.053593
C96	C	1.421239	-0.123676	0.446407
C97	C	0.921720	-0.593953	0.000033
C98	C	1.421720	-0.093953	0.500033
C99	C	0.929320	-0.136216	-0.053558
C100	C	1.429320	0.363784	0.446442
C101	C	0.930312	-0.076766	-0.053550
C102	C	1.430312	0.423234	0.446450
C103	C	0.930300	-0.076771	0.053697
C104	C	1.430300	0.423229	0.553697
C105	C	0.929312	-0.136215	0.053689
C106	C	1.429312	0.363785	0.553689
C107	C	0.928820	-0.165936	0.000057
C108	C	1.428820	0.334064	0.500057
O109	O	0.927767	-0.230261	0.099253
O110	O	1.427767	0.269739	0.599253
O111	O	0.927744	-0.230304	-0.099170
O112	O	1.427744	0.269696	0.400830
C113	C	1.068615	0.122419	0.000063
C114	C	1.568615	0.622419	0.500063
C115	C	1.155618	0.127502	0.000065
C116	C	1.655618	0.627502	0.500065
C117	C	0.918720	0.223878	0.000037
C118	C	1.418720	0.723878	0.500037
C119	C	0.919759	0.287148	0.000028
C120	C	1.419759	0.787148	0.500028
N121	N	0.925272	0.120087	0.153308
N122	N	1.425272	0.620087	0.653308
N123	N	0.925292	0.120014	-0.153202
N124	N	1.425292	0.620014	0.346798
C125	C	0.871657	0.156317	0.438147
C126	C	1.371657	0.656317	0.938147
C127	C	0.871655	0.156323	0.376227
C128	C	1.371655	0.656323	0.876227
O129	O	0.826046	0.187151	0.344200
O130	O	1.326046	0.687151	0.844200
N131	N	0.925266	0.120064	0.345261
N132	N	1.425266	0.620064	0.845261
C133	C	0.978877	0.083793	0.376217
C134	C	1.478877	0.583793	0.876217
O135	O	1.024477	0.052953	0.344192
O136	O	1.524477	0.552953	0.844192
C137	C	0.978875	0.083785	0.438136
C138	C	1.478875	0.583785	0.938136
C139	C	0.925266	0.120051	0.469099
C140	C	1.425266	0.620051	0.969099
C141	C	0.818052	0.192579	0.469110
C142	C	1.318052	0.692579	0.969110
C143	C	0.818055	0.192574	0.531026
C144	C	1.318055	0.692574	1.031026
C145	C	0.871664	0.156308	0.561978
C146	C	1.371664	0.656308	1.061978
C147	C	0.925269	0.120046	0.531015
C148	C	1.425269	0.620046	1.031015
C149	C	1.032482	0.047512	0.469092
C150	C	1.532482	0.547512	0.969092
C151	C	1.032475	0.047507	0.531015
C152	C	1.532475	0.547507	1.031015
C153	C	0.978866	0.083772	0.561978
C154	C	1.478866	0.583772	1.061978
C155	C	0.978881	0.083774	0.623883
C156	C	1.478881	0.583774	1.123883
N157	N	0.925270	0.120033	0.654850
N158	N	1.425270	0.620033	1.154850
C159	C	0.871662	0.156300	0.623897
C160	C	1.371662	0.656300	1.123897
C161	C	0.978877	0.083812	0.246184
C162	C	1.478877	0.583812	0.746184
C163	C	0.978884	0.083822	0.184266
C164	C	1.478884	0.583822	0.684266
C165	C	0.871660	0.156351	0.184280
C166	C	1.371660	0.656351	0.684280
C167	C	0.871658	0.156343	0.246199
C168	C	1.371658	0.656343	0.746199
C169	C	0.925266	0.120071	0.277150
C170	C	1.425266	0.620071	0.777150
C171	C	0.871673	0.156287	0.753925
C172	C	1.371673	0.656287	1.253925
C173	C	0.871683	0.156281	0.815846
C174	C	1.371683	0.656281	1.315846
C175	C	0.978904	0.083750	0.815826
C176	C	1.478904	0.583750	1.315826
C177	C	0.978897	0.083759	0.753910
C178	C	1.478897	0.583759	1.253910
C179	C	0.925275	0.120029	0.722961
C180	C	1.425275	0.620029	1.222961
O181	O	1.024465	0.052960	0.655949
O182	O	1.524465	0.552960	1.155949
O183	O	0.826063	0.187130	0.655930
O184	O	1.326063	0.687130	1.155930
H185	H	0.521332	0.196810	0.000032
H186	H	1.021332	0.696810	0.500032
C187	C	0.926123	-0.317998	0.165559
C188	C	1.426123	0.182002	0.665559
C189	C	0.858442	-0.329128	0.197902
C190	C	1.358442	0.170872	0.697902
C191	C	0.858779	-0.299475	0.251582
C192	C	1.358779	0.200525	0.751582
H193	H	0.926739	-0.278326	0.157966
H194	H	1.426739	0.221674	0.657966
H195	H	0.971645	-0.330016	0.187633
H196	H	1.471645	0.169984	0.687633
H197	H	0.812931	-0.317108	0.175833
H198	H	1.312931	0.182892	0.675833
H199	H	0.857811	-0.368794	0.205511
H200	H	1.357811	0.131206	0.705511
H201	H	0.904302	-0.311492	0.273656
H202	H	1.404302	0.188508	0.773656
H203	H	0.859398	-0.259804	0.243983
H204	H	1.359398	0.240196	0.743983
H205	H	0.812863	-0.307026	0.273536
H206	H	1.312863	0.192974	0.773536
H207	H	0.293803	0.229940	0.000028
H208	H	0.793803	0.729940	0.500028
C209	C	0.131663	0.234537	-0.000047
C210	C	0.631663	0.734537	0.499953
C211	C	0.084139	0.234782	-0.050645
C212	C	0.584139	0.734782	0.449355
C213	C	0.033395	0.283783	-0.050750
C214	C	0.533395	0.783783	0.449250
H215	H	0.161801	0.267322	-0.000084
H216	H	0.661801	0.767322	0.499916
H217	H	0.099326	0.234821	0.034241
H218	H	0.599326	0.734821	0.534241
H219	H	0.116472	0.234504	-0.084924
H220	H	0.616472	0.734504	0.415076
H221	H	0.053985	0.202009	-0.050619
H222	H	0.553985	0.702009	0.449381
H223	H	0.001059	0.284066	-0.016462
H224	H	0.501059	0.784066	0.483538
H225	H	0.063540	0.316563	-0.050786
H226	H	0.563540	0.816563	0.449214
H227	H	0.001140	0.283953	-0.085077
H228	H	0.501140	0.783953	0.414923
C229	C	1.037183	0.044347	0.849332
C230	C	1.537183	0.544347	1.349332
C231	C	1.084144	0.012594	0.808968
C232	C	1.584144	0.512594	1.308968
C233	C	1.137838	-0.023711	0.839813
C234	C	1.637838	0.476289	1.339813
H235	H	1.009257	0.019306	0.873479
H236	H	1.509257	0.519306	1.373479
H237	H	1.069690	0.066304	0.873484
H238	H	1.569690	0.566304	1.373484
H239	H	1.051641	-0.009362	0.784826
H240	H	1.551641	0.490638	1.284826
H241	H	1.112087	0.037619	0.784820
H242	H	1.612087	0.537619	1.284820
H243	H	1.170345	-0.001754	0.863965
H244	H	1.670345	0.498246	1.363965
H245	H	1.109905	-0.048748	0.863959
H246	H	1.609905	0.451252	1.363959
H247	H	1.169712	-0.045257	0.812431
H248	H	1.669712	0.454743	1.312431
C249	C	0.759803	0.231851	0.564712
C250	C	1.259803	0.731851	1.064712
C251	C	0.712080	0.199316	0.600259
C252	C	1.212080	0.699316	1.100259
C253	C	0.658410	0.235478	0.631300
C254	C	1.158410	0.735478	1.131300
H255	H	0.727802	0.253458	0.537470
H256	H	1.227802	0.753458	1.037470
H257	H	0.787773	0.256839	0.588909
H258	H	1.287773	0.756839	1.088909
H259	H	0.684111	0.174338	0.576065
H260	H	1.184111	0.674338	1.076065
H261	H	0.744058	0.177710	0.627513
H262	H	1.244058	0.677710	1.127513
H263	H	0.686381	0.260466	0.655496
H264	H	1.186381	0.760466	1.155496
H265	H	0.626415	0.257084	0.604053
H266	H	1.126415	0.757084	1.104053
H267	H	0.626028	0.213410	0.655426
H268	H	1.126028	0.713410	1.155426
H269	H	1.076135	0.017982	0.443890
H270	H	1.576135	0.517982	0.943890
H271	H	0.926180	-0.326032	-0.150862
H272	H	1.426180	0.173968	0.349138
H273	H	0.919858	-0.707336	-0.097259
H274	H	1.419858	-0.207336	0.402741
C275	C	0.930659	-0.044448	0.111893
C276	C	1.430659	0.455552	0.611893
C277	C	0.863767	-0.006989	0.115010
C278	C	1.363767	0.493011	0.615010
C279	C	0.864057	0.022795	0.168613
C280	C	1.364057	0.522795	0.668613
H281	H	0.976701	-0.023470	0.114185
H282	H	1.476701	0.476530	0.614185
H283	H	0.930175	-0.070634	0.143853
H284	H	1.430175	0.429366	0.643853
H285	H	0.864258	0.019194	0.083059
H286	H	1.364258	0.519194	0.583059
H287	H	0.817714	-0.027951	0.112728
H288	H	1.317714	0.472049	0.612728
H289	H	0.863573	-0.003392	0.200572
H290	H	1.363573	0.496608	0.700572
H291	H	0.910102	0.043769	0.170900
H292	H	1.410102	0.543769	0.670900
H293	H	0.818669	0.048210	0.170737
H294	H	1.318669	0.548210	0.670737
H295	H	0.828028	0.185814	0.841054
H296	H	1.328028	0.685814	1.341054
C297	C	0.677970	0.220130	-0.000076
C298	C	1.177970	0.720130	0.499924
C299	C	0.652168	0.249993	-0.050681
C300	C	1.152168	0.749993	0.449319
C301	C	0.683153	0.303870	-0.050792
C302	C	1.183153	0.803870	0.449208
H303	H	0.733904	0.216036	-0.000109
H304	H	1.233904	0.716036	0.499891
H305	H	0.660542	0.240518	0.034207
H306	H	1.160542	0.740518	0.534207
H307	H	0.669601	0.229609	-0.084955
H308	H	1.169601	0.729609	0.415045
H309	H	0.596238	0.254102	-0.050658
H310	H	1.096238	0.754102	0.449342
H311	H	0.665725	0.324258	-0.016509
H312	H	1.165725	0.824258	0.483491
H313	H	0.739086	0.299770	-0.050824
H314	H	1.239086	0.799770	0.449176
H315	H	0.665645	0.324140	-0.085124
H316	H	1.165645	0.824140	0.414876
C317	C	0.342932	0.029956	-0.000045
C318	C	0.842932	0.529956	0.499955
C319	C	0.328941	-0.002242	-0.050656
C320	C	0.828941	0.497758	0.449344
C321	C	0.379533	-0.051322	-0.050785
C322	C	0.879533	0.448678	0.449215
H323	H	0.333591	0.007981	0.034222
H324	H	0.833591	0.507981	0.534222
H325	H	0.396087	0.040482	-0.000079
H326	H	0.896087	0.540482	0.499921
H327	H	0.275798	-0.012769	-0.050616
H328	H	0.775798	0.487231	0.449384
H329	H	0.338287	0.019716	-0.084931
H330	H	0.838287	0.519716	0.415069
H331	H	0.432689	-0.040796	-0.050819
H332	H	0.932689	0.459204	0.449181
H333	H	0.370189	-0.073292	-0.016516
H334	H	0.870189	0.426708	0.483484
H335	H	0.370053	-0.073172	-0.085126
H336	H	0.870053	0.426828	0.414874
H337	H	0.180925	0.034620	0.000081
H338	H	0.680925	0.534620	0.500081
H339	H	0.924386	-0.433864	-0.150868
H340	H	1.424386	0.066136	0.349132
C341	C	0.928623	-0.168506	-0.111766
C342	C	1.428623	0.331494	0.388234
C343	C	0.860603	-0.199278	-0.114916
C344	C	1.360603	0.300722	0.385084
C345	C	0.859933	-0.229027	-0.168529
C346	C	1.359933	0.270973	0.331471
H347	H	0.973897	-0.194007	-0.114051
H348	H	1.473897	0.305993	0.385949
H349	H	0.929020	-0.142305	-0.143717
H350	H	1.429020	0.357695	0.356283
H351	H	0.860213	-0.225476	-0.082974
H352	H	1.360213	0.274524	0.417026
H353	H	0.815318	-0.173790	-0.112642
H354	H	1.315318	0.326210	0.387358
H355	H	0.860330	-0.202826	-0.200479
H356	H	1.360330	0.297174	0.299521
H357	H	0.905210	-0.254525	-0.170809
H358	H	1.405210	0.245475	0.329191
H359	H	0.813779	-0.249905	-0.170675
H360	H	1.313779	0.250095	0.329325
H361	H	0.921647	-0.599482	-0.097259
H362	H	1.421647	-0.099482	0.402741
H363	H	0.556748	0.010166	0.000077
H364	H	1.056748	0.510166	0.500077
C365	C	0.928735	-0.168382	0.111970
C366	C	1.428735	0.331618	0.611970
C367	C	0.929358	-0.129623	0.158931
C368	C	1.429358	0.370377	0.658931
C369	C	0.928808	-0.159228	0.212628
C370	C	1.428808	0.340772	0.712628
H371	H	0.974047	-0.193844	0.114288
H372	H	1.474047	0.306156	0.614288
H373	H	0.882614	-0.189288	0.114226
H374	H	1.382614	0.310712	0.614226
H375	H	0.975475	-0.108726	0.156676
H376	H	1.475475	0.391274	0.656676
H377	H	0.884050	-0.104159	0.156633
H378	H	1.384050	0.395841	0.656633
H379	H	0.882687	-0.180134	0.214884
H380	H	1.382687	0.319866	0.714884
H381	H	0.974121	-0.184689	0.214940
H382	H	1.474121	0.315311	0.714940
H383	H	0.929224	-0.132934	0.244498
H384	H	1.429224	0.367066	0.744498
H385	H	0.828008	0.185821	0.728733
H386	H	1.328008	0.685821	1.228733
C387	C	0.718680	0.005454	0.000028
C388	C	1.218680	0.505454	0.500028
C389	C	0.673939	-0.042709	0.000022
C390	C	1.173939	0.457291	0.500022
C391	C	0.724437	-0.091838	-0.000007
C392	C	1.224437	0.408162	0.499993
H393	H	0.750999	0.005108	0.034321
H394	H	1.250999	0.505108	0.534321
H395	H	0.750960	0.005141	-0.034291
H396	H	1.250960	0.505141	0.465709
H397	H	0.641674	-0.042396	0.034338
H398	H	1.141674	0.457604	0.534338
H399	H	0.641623	-0.042382	-0.034268
H400	H	1.141623	0.457618	0.465732
H401	H	0.756717	-0.092151	-0.034326
H402	H	1.256717	0.407849	0.465674
H403	H	0.756753	-0.092178	0.034286
H404	H	1.256753	0.407822	0.534286
H405	H	0.694088	-0.124522	-0.000017
H406	H	1.194088	0.375478	0.499983
H407	H	0.774393	0.222111	0.443914
H408	H	1.274393	0.722111	0.943914
C409	C	0.919676	-0.715283	0.111934
C410	C	1.419676	-0.215283	0.611934
C411	C	0.920296	-0.676519	0.158891
C412	C	1.420296	-0.176519	0.658891
C413	C	0.919752	-0.706120	0.212592
C414	C	1.419752	-0.206120	0.712592
H415	H	0.964992	-0.740741	0.114253
H416	H	1.464992	-0.240741	0.614253
H417	H	0.873558	-0.736192	0.114193
H418	H	1.373558	-0.236192	0.614193
H419	H	0.966409	-0.655619	0.156633
H420	H	1.466409	-0.155619	0.656633
H421	H	0.874984	-0.651059	0.156592
H422	H	1.374984	-0.151059	0.656592
H423	H	0.873634	-0.727030	0.214851
H424	H	1.373634	-0.227030	0.714851
H425	H	0.965068	-0.731578	0.214904
H426	H	1.465068	-0.231578	0.714904
H427	H	0.920165	-0.679824	0.244458
H428	H	1.420165	-0.179824	0.744458
H429	H	0.930722	-0.052571	-0.097219
H430	H	1.430722	0.447429	0.402781
H431	H	0.828004	0.185873	0.271406
H432	H	1.328004	0.685873	0.771406
H433	H	0.921620	-0.599479	0.097326
H434	H	1.421620	-0.099479	0.597326
H435	H	0.924342	-0.433845	0.150959
H436	H	1.424342	0.066155	0.650959
C437	C	0.813413	0.195786	0.150774
C438	C	1.313413	0.695786	0.650774
C439	C	0.766470	0.227553	0.191138
C440	C	1.266470	0.727553	0.691138
C441	C	0.712816	0.263889	0.160293
C442	C	1.212816	0.763889	0.660293
H443	H	0.780883	0.173868	0.126612
H444	H	1.280883	0.673868	0.626612
H445	H	0.841395	0.220812	0.126637
H446	H	1.341395	0.720812	0.626637
H447	H	0.738490	0.202529	0.215265
H448	H	1.238490	0.702529	0.715265
H449	H	0.798978	0.249482	0.215302
H450	H	1.298978	0.749482	0.715302
H451	H	0.740798	0.288916	0.136156
H452	H	1.240798	0.788916	0.636156
H453	H	0.680292	0.241967	0.136132
H454	H	1.180292	0.741967	0.636132
H455	H	0.680964	0.285451	0.187675
H456	H	1.180964	0.785451	0.687675
C457	C	1.037130	0.044391	0.150760
C458	C	1.537130	0.544391	0.650760
C459	C	1.084062	0.012622	0.191127
C460	C	1.584062	0.512622	0.691127
C461	C	1.137719	-0.023717	0.160286
C462	C	1.637719	0.476283	0.660286
H463	H	1.069667	0.066306	0.126608
H464	H	1.569667	0.566306	0.626608
H465	H	1.009150	0.019365	0.126614
H466	H	1.509150	0.519365	0.626614
H467	H	1.112040	0.037644	0.215263
H468	H	1.612040	0.537644	0.715263
H469	H	1.051547	-0.009305	0.215281
H470	H	1.551547	0.490695	0.715281
H471	H	1.109739	-0.048743	0.136140
H472	H	1.609739	0.451257	0.636140
H473	H	1.170250	-0.001797	0.136134
H474	H	1.670250	0.498203	0.636134
H475	H	1.169564	-0.045280	0.187670
H476	H	1.669564	0.454720	0.687670
H477	H	1.022538	0.054276	0.271381
H478	H	1.522538	0.554276	0.771381
H479	H	1.076129	0.017968	0.556212
H480	H	1.576129	0.517968	1.056212
C481	C	1.037037	0.044441	0.720165
C482	C	1.537037	0.544441	1.220165
C483	C	0.995656	0.007678	0.684545
C484	C	1.495656	0.507678	1.184545
C485	C	1.049210	-0.028509	0.653428
C486	C	1.549210	0.471491	1.153428
H487	H	1.069051	0.022787	0.747362
H488	H	1.569051	0.522787	1.247362
H489	H	1.069416	0.066489	0.696012
H490	H	1.569416	0.566489	1.196012
H491	H	0.963290	-0.014367	0.708696
H492	H	1.463290	0.485633	1.208696
H493	H	0.963646	0.029317	0.657338
H494	H	1.463646	0.529317	1.157338
H495	H	1.081589	-0.006462	0.629274
H496	H	1.581589	0.493538	1.129274
H497	H	1.081220	-0.050160	0.680628
H498	H	1.581220	0.449840	1.180628
H499	H	1.021140	-0.053454	0.629252
H500	H	1.521140	0.446546	1.129252
