data_functionalizedCrystal
_audit_creation_method	'MofGen! by Chris Wilmer'
_symmetry_space_group_name_H-M	'P1'
_symmetry_Int_Tables_number	1
_symmetry_cell_setting	triclinic
loop_
_symmetry_equiv_pos_as_xyz
  x,y,z
_cell_length_a	17.077404
_cell_length_b	12.594516
_cell_length_c	17.077396
_cell_angle_alpha	89.975251
_cell_angle_beta	89.982940
_cell_angle_gamma	90.016278
loop_
_atom_site_label
_atom_site_type_symbol
_atom_site_fract_x
_atom_site_fract_y
_atom_site_fract_z
Zn1	Zn	1.200073	-0.423719	-0.443872
Zn2	Zn	1.200001	-0.601725	-0.312618
Zn3	Zn	1.068810	-0.423761	-0.312620
Zn4	Zn	1.068788	-0.601656	-0.443842
O5	O	1.134418	-0.512715	-0.378238
O6	O	1.309910	-0.447343	-0.426473
O7	O	1.182578	-0.578164	-0.202771
O8	O	1.086262	-0.274810	-0.330044
O9	O	1.309858	-0.578123	-0.330041
O10	O	1.182700	-0.274779	-0.426474
O11	O	1.086192	-0.447415	-0.202773
O12	O	0.958961	-0.447349	-0.330015
O13	O	1.086224	-0.578006	-0.553693
O14	O	0.958944	-0.578047	-0.426423
O15	O	1.182679	-0.447276	-0.553715
O16	O	1.182556	-0.750661	-0.330012
O17	O	1.086155	-0.750611	-0.426421
C18	C	0.930470	-0.512696	-0.378216
C19	C	0.843221	-0.512713	-0.378226
C20	C	0.802243	-0.580871	-0.428345
C21	C	0.720262	-0.580873	-0.428357
C22	C	0.679261	-0.512723	-0.378246
C23	C	0.720245	-0.444557	-0.328125
C24	C	0.802224	-0.444551	-0.328117
C25	C	0.549375	-0.444578	-0.328144
C26	C	0.467390	-0.444586	-0.328150
C27	C	0.467413	-0.580901	-0.428384
C28	C	0.549392	-0.580894	-0.428376
C29	C	0.590370	-0.512730	-0.378253
C30	C	1.134367	-0.789256	-0.378230
C31	C	1.134417	-0.907562	-0.378253
C32	C	1.081979	-0.976826	-0.430653
C33	C	1.062858	-1.047689	-0.359026
C34	C	1.153609	-1.047498	-0.449893
C35	C	1.115258	-0.976866	-0.306587
C36	C	1.206042	-0.976669	-0.397503
C37	C	1.186949	-1.047500	-0.325826
C38	C	1.339163	-0.512735	-0.378260
C39	C	1.426412	-0.512744	-0.378269
C40	C	1.134457	-0.512629	-0.582982
C41	C	1.134474	-0.512592	-0.670232
C42	C	1.134491	-0.235094	-0.378263
C43	C	1.134522	-0.116789	-0.378273
C44	C	1.184733	-0.580549	-1.046048
C45	C	1.184713	-0.580580	-0.964068
C46	C	1.134524	-0.512517	-0.923081
C47	C	1.084346	-0.444426	-0.964079
C48	C	1.084363	-0.444401	-1.046058
C49	C	1.084317	-0.444481	-0.793209
C50	C	1.084301	-0.444504	-0.711224
C51	C	1.184667	-0.580660	-0.711219
C52	C	1.184684	-0.580635	-0.793198
C53	C	1.134506	-0.512543	-0.834190
C54	C	1.134425	-0.512724	-0.174290
C55	C	1.134560	-0.512461	-0.087041
H56	H	0.582773	-0.636394	-0.469177
C57	C	0.475674	-0.715660	-0.527452
C58	C	0.422374	-0.655834	-0.483478
H59	H	0.447865	-0.761927	-0.561456
H60	H	0.507666	-0.669340	-0.557537
H61	H	0.507631	-0.756302	-0.493184
H62	H	0.390421	-0.615185	-0.517746
H63	H	0.390369	-0.702160	-0.453392
C64	C	1.073406	-0.301353	-0.619057
C65	C	1.029127	-0.369692	-0.666175
H66	H	1.039341	-0.255163	-0.591251
H67	H	1.103281	-0.341902	-0.582912
H68	H	1.107619	-0.260634	-0.651057
H69	H	0.994918	-0.410417	-0.634174
H70	H	0.999239	-0.329139	-0.702324
C71	C	0.475598	-0.309824	-0.229086
C72	C	0.422320	-0.369666	-0.273074
H73	H	0.447771	-0.263567	-0.195088
H74	H	0.507552	-0.356136	-0.198994
H75	H	0.507594	-0.269172	-0.263345
H76	H	0.390327	-0.410325	-0.238815
H77	H	0.390352	-0.323349	-0.303168
H78	H	1.002334	-1.078908	-0.342760
C79	C	1.023067	-0.823752	-0.490257
C80	C	1.022016	-0.934922	-0.490390
H81	H	0.986050	-0.797884	-0.527137
H82	H	1.009964	-0.798537	-0.439509
H83	H	1.073897	-0.799443	-0.504048
H84	H	0.971186	-0.959231	-0.476593
H85	H	1.035113	-0.960147	-0.541149
C86	C	0.641532	-0.429613	-0.222569
C87	C	0.594425	-0.369658	-0.273048
H88	H	0.669348	-0.383364	-0.188558
H89	H	0.609530	-0.475928	-0.192492
H90	H	0.677675	-0.470196	-0.252425
H91	H	0.558278	-0.329081	-0.243192
H92	H	0.626431	-0.323325	-0.303128
H93	H	1.266552	-0.945453	-0.413803
H94	H	0.835620	-0.636371	-0.469149
H95	H	1.225606	-0.635969	-1.079414
C96	C	0.628043	-0.724060	-0.439081
C97	C	0.675212	-0.655796	-0.483443
H98	H	0.600227	-0.770310	-0.473092
H99	H	0.660003	-0.764710	-0.404834
H100	H	0.591900	-0.683454	-0.409243
H101	H	0.711359	-0.696402	-0.513278
H102	H	0.643249	-0.615142	-0.517705
C103	C	1.290271	-0.595400	-0.871876
C104	C	1.239864	-0.655418	-0.919003
H105	H	1.324316	-0.641607	-0.844051
H106	H	1.320316	-0.549030	-0.903866
H107	H	1.260365	-0.554874	-0.835741
H108	H	1.269771	-0.695939	-0.955143
H109	H	1.209817	-0.701807	-0.887010
H110	H	0.686855	-0.389063	-0.287327
C111	C	1.147931	-0.971674	-0.169900
C112	C	1.093304	-0.935164	-0.224787
H113	H	1.134377	-0.945921	-0.119404
H114	H	1.147851	-1.047087	-0.169409
H115	H	1.198610	-0.946758	-0.183660
H116	H	1.042625	-0.960087	-0.211031
H117	H	1.093376	-0.859736	-0.225276
C118	C	1.246890	-1.200314	-0.266896
C119	C	1.246872	-1.089143	-0.265953
H120	H	1.283885	-1.226023	-0.229934
H121	H	1.196205	-1.225696	-0.253661
H122	H	1.260607	-1.224616	-0.317733
H123	H	1.233150	-1.064841	-0.215117
H124	H	1.297569	-1.063751	-0.279183
H125	H	0.835587	-0.389044	-0.287309
H126	H	1.169799	-1.078523	-0.510470
C127	C	1.229201	-0.641179	-0.585552
C128	C	1.239818	-0.655518	-0.666163
H129	H	1.263246	-0.687395	-0.557736
H130	H	1.240709	-0.569680	-0.572130
H131	H	1.176449	-0.656756	-0.572121
H132	H	1.292568	-0.639934	-0.679596
H133	H	1.228315	-0.727034	-0.679591
H134	H	1.043457	-0.389033	-0.826582
H135	H	1.225556	-0.636053	-0.826567
C136	C	0.978749	-0.429652	-0.871870
C137	C	1.029178	-0.369611	-0.919025
H138	H	0.944695	-0.383459	-0.844053
H139	H	0.948715	-0.476000	-0.903840
H140	H	1.008638	-0.470203	-0.835727
H141	H	0.999289	-0.329066	-0.955171
H142	H	1.059215	-0.323244	-0.887052
H143	H	1.043508	-0.388956	-1.079433
