data_functionalizedCrystal
_audit_creation_method	'MofGen! by Chris Wilmer'
_symmetry_space_group_name_H-M	'P1'
_symmetry_Int_Tables_number	1
_symmetry_cell_setting	triclinic
loop_
_symmetry_equiv_pos_as_xyz
  x,y,z
_cell_length_a	16.109318
_cell_length_b	26.809956
_cell_length_c	16.109301
_cell_angle_alpha	90.005977
_cell_angle_beta	83.465022
_cell_angle_gamma	90.012481
loop_
_atom_site_label
_atom_site_type_symbol
_atom_site_fract_x
_atom_site_fract_y
_atom_site_fract_z
O1	O	1.103137	0.041440	0.106934
O2	O	0.861077	0.041450	0.120218
O3	O	0.988757	0.041439	-0.007455
O4	O	0.975457	0.041450	0.234607
O5	O	0.988717	-0.041520	-0.007455
O6	O	0.861038	-0.041509	0.120218
O7	O	1.103098	-0.041520	0.106934
Zn8	Zn	0.982061	-0.054686	0.113576
Zn9	Zn	0.982113	0.054616	0.113576
O10	O	0.975418	-0.041509	0.234606
C11	C	0.830083	-0.000028	0.119677
C12	C	0.737788	-0.000025	0.118057
N13	N	0.982032	-0.129282	0.113575
C14	C	0.438736	0.045187	0.112822
C15	C	0.525457	0.045191	0.114339
C16	C	0.525433	-0.045256	0.114327
C17	C	0.438714	-0.045259	0.112804
C18	C	0.395367	-0.000035	0.112056
C19	C	0.568807	-0.000030	0.115096
C20	C	0.662834	-0.000027	0.116742
C21	C	0.301334	-0.000038	0.110409
C22	C	1.032510	-0.473908	0.164011
C23	C	1.032537	-0.682786	0.164010
O24	O	1.075433	-0.709789	0.206884
N25	N	0.982133	-0.708909	0.113568
C26	C	0.931723	-0.682810	0.063117
O27	O	0.888858	-0.709822	0.020206
C28	C	0.931701	-0.473933	0.063114
C29	C	0.982102	-0.447812	0.113566
C30	C	1.082908	-0.447787	0.214459
C31	C	1.082897	-0.395571	0.214462
C32	C	1.032489	-0.369475	0.164017
C33	C	0.982091	-0.395596	0.113570
C34	C	0.881296	-0.447835	0.012660
C35	C	0.881297	-0.395612	0.012662
C36	C	0.931698	-0.369492	0.063114
C37	C	0.931673	-0.317284	0.063128
N38	N	0.982077	-0.291161	0.113571
C39	C	1.032485	-0.317256	0.164015
C40	C	0.931737	-0.792473	0.063124
C41	C	0.931741	-0.844692	0.063126
C42	C	1.032556	-0.844664	0.164018
C43	C	1.032547	-0.792444	0.164020
C44	C	0.982141	-0.766350	0.113567
C45	C	1.032458	-0.207598	0.164018
C46	C	1.032440	-0.155378	0.164020
C47	C	0.931629	-0.155410	0.063124
C48	C	0.931643	-0.207626	0.063126
C49	C	0.982064	-0.233719	0.113576
O50	O	0.888806	-0.290248	0.020270
O51	O	1.075357	-0.290235	0.206906
C52	C	1.032521	-0.526124	0.164008
C53	C	0.982123	-0.552245	0.113560
C54	C	0.931715	-0.526149	0.063116
C55	C	0.982128	-0.604464	0.113562
C56	C	1.032536	-0.630560	0.164007
C57	C	1.082940	-0.604436	0.214450
C58	C	1.082929	-0.552220	0.214453
C59	C	0.881311	-0.552273	0.012673
C60	C	0.881325	-0.604489	0.012675
C61	C	0.931733	-0.630585	0.063119
C62	C	1.134092	-0.000040	0.107474
C63	C	1.226387	-0.000041	0.109095
C64	C	0.988198	-0.000040	-0.038430
C65	C	0.986583	-0.000041	-0.130725
N66	N	0.982149	0.129212	0.113570
C67	C	1.058590	-0.000036	-0.352993
C68	C	1.057066	-0.000032	-0.439713
C69	C	0.905579	-0.000028	-0.419848
C70	C	0.907104	-0.000028	-0.333130
C71	C	0.983612	-0.000035	-0.299704
C72	C	0.980563	-0.000030	-0.473144
C73	C	0.978910	-0.000026	-0.567170
C74	C	0.985265	-0.000039	-0.205672
C75	C	0.975976	-0.000028	0.265581
C76	C	0.977592	-0.000024	0.357877
H77	H	0.403446	0.082011	0.112211
Cl78	Cl	0.579975	0.102045	0.115299
H79	H	1.120888	-0.000041	-0.325781
H80	H	0.403403	-0.082087	0.112179
Cl81	Cl	0.817953	-0.637320	-0.050754
Cl82	Cl	0.579931	-0.102105	0.115278
H83	H	0.840249	-0.374369	-0.028425
Cl84	Cl	1.095845	-0.240393	0.227442
Cl85	Cl	1.095800	-0.122543	0.227456
Cl86	Cl	1.151329	-0.000033	-0.506702
Cl87	Cl	0.868345	-0.759676	-0.000293
Cl88	Cl	1.146249	-0.362741	0.277904
H89	H	1.123960	-0.469029	0.255537
H90	H	1.073588	-0.771180	0.205103
Cl91	Cl	0.812837	-0.000022	-0.266133
Cl92	Cl	1.095929	-0.877480	0.227430
H93	H	0.890591	-0.228895	0.022054
Cl94	Cl	0.809402	-0.000019	-0.461875
Cl95	Cl	0.817931	-0.480659	-0.050771
H96	H	0.890585	-0.134153	0.022056
Cl97	Cl	1.146289	-0.519390	0.277887
Cl98	Cl	0.868364	-0.877523	-0.000290
H99	H	1.123980	-0.625692	0.255528
H100	H	0.840263	-0.531031	-0.028407
