data_functionalizedCrystal
_audit_creation_method	'MofGen! by Chris Wilmer'
_symmetry_space_group_name_H-M	'P1'
_symmetry_Int_Tables_number	1
_symmetry_cell_setting	triclinic
loop_
_symmetry_equiv_pos_as_xyz
  x,y,z
_cell_length_a	12.759401
_cell_length_b	19.805405
_cell_length_c	19.805399
_cell_angle_alpha	89.969291
_cell_angle_beta	89.987249
_cell_angle_gamma	90.026572
loop_
_atom_site_label
_atom_site_type_symbol
_atom_site_fract_x
_atom_site_fract_y
_atom_site_fract_z
Zn1	Zn	1.606110	-0.269467	-0.382637
Zn2	Zn	1.605986	-0.382658	-0.269445
Zn3	Zn	1.430430	-0.269488	-0.269470
Zn4	Zn	1.430365	-0.382619	-0.382600
O5	O	1.518223	-0.326058	-0.326038
O6	O	1.753115	-0.284489	-0.367627
O7	O	1.582674	-0.367671	-0.174732
O8	O	1.453813	-0.174769	-0.284507
O9	O	1.753024	-0.367650	-0.284465
O10	O	1.582885	-0.174753	-0.367651
O11	O	1.453693	-0.284526	-0.174750
O12	O	1.283400	-0.284488	-0.284471
O13	O	1.453703	-0.367584	-0.477322
O14	O	1.283353	-0.367605	-0.367588
O15	O	1.582822	-0.284451	-0.477349
O16	O	1.582611	-0.477369	-0.284430
O17	O	1.453583	-0.477341	-0.367564
C18	C	1.245256	-0.326046	-0.326029
C19	C	1.128479	-0.326057	-0.326041
C20	C	1.073620	-0.369405	-0.369248
C21	C	0.963895	-0.369413	-0.369255
C22	C	0.963900	-0.282724	-0.282843
C23	C	1.073622	-0.282712	-0.282839
C24	C	1.073616	-0.419456	-0.419136
C25	C	0.963892	-0.419465	-0.419143
C26	C	1.518105	-0.501914	-0.326005
C27	C	1.518150	-0.577146	-0.326014
C28	C	1.585400	-0.612482	-0.282771
C29	C	1.585445	-0.683171	-0.282786
C30	C	1.518233	-0.718522	-0.326041
C31	C	1.450980	-0.683180	-0.369288
C32	C	1.450942	-0.612493	-0.369276
C33	C	1.451135	-0.968253	-0.369339
C34	C	1.451177	-1.038946	-0.369346
C35	C	1.585639	-1.038931	-0.282848
C36	C	1.585600	-0.968244	-0.282836
C37	C	1.518351	-0.932909	-0.326086
C38	C	1.518305	-0.856261	-0.326070
C39	C	1.518273	-0.795169	-0.326054
C40	C	1.792256	-0.326071	-0.326048
C41	C	1.909033	-0.326077	-0.326052
C42	C	1.518269	-0.326011	-0.502581
C43	C	1.518289	-0.325991	-0.577813
C44	C	1.518370	-0.149515	-0.326086
C45	C	1.518433	-0.074283	-0.326106
C46	C	1.451148	-0.282693	-0.613166
C47	C	1.451162	-0.282680	-0.683854
C48	C	1.518324	-0.325962	-0.719188
C49	C	1.585468	-0.369264	-0.683831
C50	C	1.585447	-0.369280	-0.613143
C51	C	1.585551	-0.369201	-0.968904
C52	C	1.585569	-0.369180	-1.039596
C53	C	1.451266	-0.282601	-1.039615
C54	C	1.451245	-0.282617	-0.968928
C55	C	1.518385	-0.325922	-0.933576
C56	C	1.518367	-0.325936	-0.856927
C57	C	1.518348	-0.325944	-0.795836
C58	C	1.518237	-0.326056	-0.150182
C59	C	1.518421	-0.325885	-0.074950
H60	H	0.929893	-0.400760	-0.468978
H61	H	1.396463	-0.247444	-0.584402
H62	H	1.396594	-0.247342	-1.068407
O63	O	1.132797	-0.235966	-0.236230
H64	H	1.076215	-0.205839	-0.206183
H65	H	1.396446	-1.067726	-0.404574
H66	H	0.934082	-0.471872	-0.405008
H67	H	1.640262	-0.404428	-1.068363
O68	O	0.904741	-0.235976	-0.236243
H69	H	0.925785	-0.247513	-0.183101
O70	O	1.378393	-0.574380	-0.415911
H71	H	1.396355	-0.587905	-0.469045
H72	H	1.396485	-0.247425	-0.712636
H73	H	1.103421	-0.405483	-0.471583
H74	H	1.107617	-0.469223	-0.400264
O75	O	1.378808	-0.235934	-0.930817
H76	H	1.425856	-0.201505	-0.898629
H77	H	1.640127	-0.583704	-0.247545
H78	H	1.640206	-0.711939	-0.247573
O79	O	1.658098	-0.930114	-0.236188
H80	H	1.704879	-0.966562	-0.206125
O81	O	1.657988	-0.415889	-0.930778
H82	H	1.704707	-0.445970	-0.967226
O83	O	1.658206	-1.077041	-0.236216
H84	H	1.646962	-1.132134	-0.243499
H85	H	1.396377	-0.939489	-0.404553
O86	O	1.378472	-0.721303	-0.415936
H87	H	1.389783	-0.776394	-0.408673
H88	H	1.640146	-0.404508	-0.712605
H89	H	1.640128	-0.404533	-0.584360
