data_functionalizedCrystal
_audit_creation_method	'MofGen! by Chris Wilmer'
_symmetry_space_group_name_H-M	'P1'
_symmetry_Int_Tables_number	1
_symmetry_cell_setting	triclinic
loop_
_symmetry_equiv_pos_as_xyz
  x,y,z
_cell_length_a	18.050582
_cell_length_b	13.897449
_cell_length_c	13.897448
_cell_angle_alpha	90.018972
_cell_angle_beta	90.020930
_cell_angle_gamma	90.013755
loop_
_atom_site_label
_atom_site_type_symbol
_atom_site_fract_x
_atom_site_fract_y
_atom_site_fract_z
Zn1	Zn	-0.419898	-1.474636	0.384043
Zn2	Zn	0.080102	-0.974636	0.884043
Zn3	Zn	-0.295711	-1.474550	0.545338
Zn4	Zn	0.204289	-0.974550	1.045338
Zn5	Zn	-0.295725	-1.313345	0.384062
Zn6	Zn	0.204275	-0.813345	0.884062
Zn7	Zn	-0.419863	-1.313307	0.545302
Zn8	Zn	0.080137	-0.813307	1.045302
O9	O	-0.357799	-1.393959	0.464686
O10	O	0.142201	-0.893959	0.964686
O11	O	-0.403434	-1.609606	0.405447
O12	O	0.096566	-1.109606	0.905447
O13	O	-0.191789	-1.453145	0.523967
O14	O	0.308211	-0.953145	1.023967
O15	O	-0.312217	-1.334793	0.249078
O16	O	0.187783	-0.834793	0.749078
O17	O	-0.312194	-1.609543	0.523949
O18	O	0.187806	-1.109543	1.023949
O19	O	-0.403446	-1.453293	0.249064
O20	O	0.096554	-0.953293	0.749064
O21	O	-0.191798	-1.334709	0.405478
O22	O	0.308202	-0.834709	0.905478
O23	O	-0.312182	-1.178358	0.405443
O24	O	0.187818	-0.678358	0.905443
O25	O	-0.523792	-1.334728	0.523887
O26	O	-0.023792	-0.834728	1.023887
O27	O	-0.403386	-1.178330	0.523905
O28	O	0.096614	-0.678330	1.023905
O29	O	-0.523818	-1.453256	0.405412
O30	O	-0.023818	-0.953256	0.905412
O31	O	-0.312160	-1.453109	0.680315
O32	O	0.187840	-0.953109	1.180315
O33	O	-0.403373	-1.334644	0.680288
O34	O	0.096627	-0.834644	1.180288
C35	C	-0.357778	-1.393889	0.715301
C36	C	0.142222	-0.893889	1.215301
C37	C	-0.357793	-1.393947	0.822514
C38	C	0.142207	-0.893947	1.322514
C39	C	-0.357782	-1.143345	0.464673
C40	C	0.142218	-0.643345	0.964673
C41	C	-0.357793	-1.036131	0.464691
C42	C	0.142207	-0.536131	0.964691
C43	C	-0.551505	-1.393997	0.464643
C44	C	-0.051505	-0.893997	0.964643
C45	C	-0.634051	-1.394013	0.464625
C46	C	-0.134051	-0.894013	0.964625
C47	C	-0.833487	-1.329607	0.528964
C48	C	-0.333487	-0.829607	1.028964
C49	C	-0.882878	-1.417615	0.552541
C50	C	-0.382878	-0.917615	1.052541
C51	C	-0.785181	-1.394061	0.464552
C52	C	-0.285181	-0.894061	0.964552
C53	C	-0.882872	-1.306102	0.440948
C54	C	-0.382872	-0.806102	0.940948
C55	C	-0.931166	-1.394099	0.464482
C56	C	-0.431166	-0.894099	0.964482
C57	C	-0.833484	-1.482115	0.488174
C58	C	-0.333484	-0.982115	0.988174
C59	C	-0.833475	-1.370542	0.376541
C60	C	-0.333475	-0.870542	0.876541
C61	C	-0.882843	-1.458611	0.400084
C62	C	-0.382843	-0.958611	0.900084
C63	C	-0.701083	-1.394038	0.464594
C64	C	-0.201083	-0.894038	0.964594
C65	C	-1.015263	-1.394132	0.464440
C66	C	-0.515263	-0.894132	0.964440
C67	C	-0.164847	-1.393977	0.464659
C68	C	0.335153	-0.893977	0.964659
C69	C	-0.082302	-1.394148	0.464406
C70	C	0.417698	-0.894148	0.964406
C71	C	-0.357817	-1.645552	0.464700
C72	C	0.142183	-1.145552	0.964700
C73	C	-0.357824	-1.752766	0.464706
C74	C	0.142176	-1.252766	0.964706
C75	C	-0.357812	-0.839836	0.464694
C76	C	0.142188	-0.339836	0.964694
C77	C	-0.357799	-0.949069	0.464690
C78	C	0.142201	-0.449069	0.964690
C79	C	-0.357837	-1.394056	0.213093
C80	C	0.142163	-0.894056	0.713093
C81	C	-0.357853	-1.394098	0.105879
C82	C	0.142147	-0.894098	0.605879
C83	C	-0.357840	-1.394048	1.018809
C84	C	0.142160	-0.894048	1.518809
C85	C	-0.357816	-1.393989	0.909577
C86	C	0.142184	-0.893989	1.409577
H87	H	-0.811817	-1.275152	0.583507
H88	H	-0.311817	-0.775152	1.083507
H89	H	-0.904578	-1.437530	0.626940
H90	H	-0.404578	-0.937530	1.126940
O91	O	-0.911607	-1.207549	0.414537
O92	O	-0.411607	-0.707549	0.914537
H93	H	-0.945431	-1.212740	0.348023
H94	H	-0.445431	-0.712740	0.848023
H95	H	-0.811881	-1.556539	0.508193
H96	H	-0.311881	-1.056539	1.008193
O97	O	-0.911378	-1.530906	0.327888
O98	O	-0.411378	-1.030906	0.827888
H99	H	-0.891491	-1.603832	0.347679
H100	H	-0.391491	-1.103832	0.847679
H101	H	-0.811758	-1.350601	0.302163
H102	H	-0.311758	-0.850601	0.802163
