data_functionalizedCrystal
_audit_creation_method	'MofGen! by Chris Wilmer'
_symmetry_space_group_name_H-M	'P1'
_symmetry_Int_Tables_number	1
_symmetry_cell_setting	triclinic
loop_
_symmetry_equiv_pos_as_xyz
  x,y,z
_cell_length_a	10.654550
_cell_length_b	10.654551
_cell_length_c	7.088929
_cell_angle_alpha	83.718726
_cell_angle_beta	96.260641
_cell_angle_gamma	84.485132
loop_
_atom_site_label
_atom_site_type_symbol
_atom_site_fract_x
_atom_site_fract_y
_atom_site_fract_z
O1	O	1.655050	0.189208	-0.159131
O2	O	1.289574	0.206012	-0.159099
O3	O	1.480715	0.014871	-0.159116
O4	O	1.463910	0.380349	-0.159113
O5	O	1.506258	-0.010731	0.158856
O6	O	1.315118	0.180410	0.158874
O7	O	1.680594	0.163606	0.158842
Cu8	Cu	1.500188	0.169670	0.187892
Cu9	Cu	1.469980	0.199948	-0.188148
O10	O	1.489454	0.354747	0.158860
C11	C	1.255548	0.191976	-0.000108
C12	C	1.116106	0.188284	-0.000097
C13	C	1.036619	0.300827	-0.000123
C14	C	0.905595	0.297353	-0.000157
C15	C	0.933559	0.068783	-0.000144
C16	C	1.064581	0.072257	-0.000097
C17	C	1.088144	0.416854	-0.000123
C18	C	1.008655	0.529407	-0.000152
C19	C	0.877632	0.525933	-0.000185
C20	C	0.826097	0.409906	-0.000189
C21	C	1.492252	-0.044728	-0.000134
C22	C	1.488558	-0.184170	-0.000147
C23	C	1.472903	-0.235726	-0.173470
C24	C	1.469423	-0.366747	-0.173461
C25	C	1.497262	-0.394646	0.173210
C26	C	1.500732	-0.263626	0.173199
C27	C	1.460729	-0.156270	-0.346816
C28	C	1.445074	-0.207826	-0.520154
C29	C	1.441594	-0.338847	-0.520145
C30	C	1.453770	-0.418312	-0.346798
C31	C	1.714619	0.177642	-0.000152
C32	C	1.854061	0.181336	-0.000177
C33	C	1.477916	0.414346	-0.000126
C34	C	1.481608	0.553789	-0.000126
N35	N	1.521444	0.148374	0.452378
N36	N	1.448734	0.221234	-0.452634
H37	H	1.194828	0.419696	-0.000105
C38	C	1.346923	0.323233	0.437075
N39	N	1.270236	0.400060	0.353991
C40	C	1.424412	-0.395559	-0.710816
N41	N	1.411493	-0.438274	-0.854438
C42	C	1.431680	-0.120412	-0.710824
N43	N	1.421595	-0.054574	-0.854441
C44	C	1.464436	-0.012129	-0.346842
N45	N	1.467185	0.096444	-0.346859
H46	H	1.513453	-0.221645	0.314334
H47	H	1.596814	0.072873	0.534027
C48	C	1.510662	-0.482063	0.363878
N49	N	1.520759	-0.547906	0.507492
C50	C	1.065347	0.657028	-0.000135
N51	N	1.108046	0.753156	-0.000123
H52	H	0.812916	0.617577	-0.000189
H53	H	1.129302	-0.019386	-0.000080
C54	C	0.681966	0.406091	-0.000218
N55	N	0.573407	0.403220	-0.000250
C56	C	1.449941	-0.562440	-0.346798
N57	N	1.447066	-0.670995	-0.346801
H58	H	0.891586	-0.025678	-0.000179
