data_functionalizedCrystal
_audit_creation_method	'MofGen! by Chris Wilmer'
_symmetry_space_group_name_H-M	'P1'
_symmetry_Int_Tables_number	1
_symmetry_cell_setting	triclinic
loop_
_symmetry_equiv_pos_as_xyz
  x,y,z
_cell_length_a	31.640172
_cell_length_b	21.606444
_cell_length_c	21.606444
_cell_angle_alpha	60.001331
_cell_angle_beta	90.005700
_cell_angle_gamma	59.997094
loop_
_atom_site_label
_atom_site_type_symbol
_atom_site_fract_x
_atom_site_fract_y
_atom_site_fract_z
Zr1	Zr	0.407174	0.677376	-0.081121
O2	O	0.339680	0.806511	-0.179957
O3	O	0.427865	0.548252	-0.050826
O4	O	0.427860	0.677376	-0.179944
O5	O	0.339689	0.677383	0.051015
O6	O	0.497417	0.677363	-0.179931
O7	O	0.339686	0.677387	-0.050839
O8	O	0.497427	0.446384	0.051039
O9	O	0.339680	0.908362	-0.179954
O10	O	0.488599	0.601349	-0.037891
O11	O	0.436692	0.601355	0.038111
O12	O	0.436686	0.753382	-0.113909
O13	O	0.384779	0.753388	-0.037907
Zr14	Zr	0.518115	0.677348	0.081346
Zr15	Zr	0.518110	0.677355	-0.081100
Zr16	Zr	0.407180	0.677369	0.081324
Zr17	Zr	0.407173	0.839816	-0.081116
Zr18	Zr	0.518117	0.514908	0.081341
O19	O	0.497424	0.806472	0.051050
O20	O	0.497416	0.806482	-0.179926
O21	O	0.339688	0.806501	0.051020
O22	O	0.585609	0.548213	0.180182
O23	O	0.585601	0.548223	-0.050795
O24	O	0.427873	0.548242	0.180151
O25	O	0.585600	0.677342	-0.050791
O26	O	0.497430	0.677348	0.180169
O27	O	0.427873	0.677361	0.180155
O28	O	0.585604	0.677337	0.051063
O29	O	0.427858	0.908345	-0.179937
O30	O	0.497431	0.446379	0.180161
O31	O	0.585610	0.446363	0.180178
O32	O	0.585606	0.446368	0.051056
O33	O	0.339684	0.908356	-0.050831
O34	O	0.427863	0.908340	-0.050814
O35	O	0.488604	0.601342	0.114134
O36	O	0.540511	0.601336	0.038131
O37	O	0.488598	0.753369	-0.037887
O38	O	0.436691	0.753375	0.038116
C39	C	0.462646	0.474174	0.000106
C40	C	0.462647	0.405214	0.000103
C41	C	0.489741	0.372813	-0.039570
C42	C	0.489742	0.308013	-0.039565
C43	C	0.462647	0.275620	0.000110
C44	C	0.435553	0.308023	0.039788
C45	C	0.435554	0.372818	0.039787
C46	C	0.435546	0.046714	0.039794
C47	C	0.435546	-0.018083	0.039791
C48	C	0.489735	-0.018091	-0.039558
C49	C	0.489736	0.046704	-0.039559
C50	C	0.462644	0.079098	0.000123
C51	C	0.462643	0.149361	0.000118
C52	C	0.462645	0.205363	0.000111
C53	C	0.323881	0.677388	0.000085
C54	C	0.276786	0.677396	0.000076
C55	C	0.011879	0.597994	0.039808
C56	C	-0.165106	0.597979	0.039823
O57	O	-0.164946	0.530486	0.073598
N58	N	-0.214334	0.677338	0.000142
C59	C	-0.219315	0.756707	-0.039542
O60	O	-0.265248	0.824206	-0.073287
C61	C	-0.042331	0.756721	-0.039553
C62	C	0.006897	0.677357	0.000125
C63	C	0.061104	0.518636	0.079483
C64	C	0.105347	0.518641	0.079476
C65	C	0.100365	0.598003	0.039793
C66	C	0.051140	0.677361	0.000118
C67	C	-0.047312	0.836089	-0.079232
C68	C	-0.003061	0.836085	-0.079229
C69	C	0.046167	0.756721	-0.039551
C70	C	0.090402	0.756728	-0.039573
N71	N	0.139629	0.677369	0.000109
C72	C	0.144611	0.598007	0.039792
C73	C	-0.312233	0.756694	-0.039536
C74	C	-0.356479	0.756690	-0.039534
C75	C	-0.302267	0.597962	0.039833
C76	C	-0.258020	0.597967	0.039826
C77	C	-0.263005	0.677335	0.000146
C78	C	0.237524	0.598022	0.039772
C79	C	0.281768	0.598034	0.039759
C80	C	0.227553	0.756761	-0.039604
C81	C	0.183312	0.756750	-0.039594
C82	C	0.188300	0.677374	0.000100
O83	O	0.090281	0.824186	-0.073322
O84	O	0.190548	0.530517	0.073545
C85	C	-0.032365	0.597990	0.039816
C86	C	-0.081590	0.677347	0.000140
C87	C	-0.086572	0.756710	-0.039542
C88	C	-0.125836	0.677344	0.000142
C89	C	-0.120854	0.597982	0.039824
C90	C	-0.071626	0.518623	0.079506
C91	C	-0.027383	0.518627	0.079498
C92	C	-0.135800	0.836069	-0.079224
C93	C	-0.180041	0.836058	-0.079214
C94	C	-0.175059	0.756695	-0.039531
C95	C	0.601408	0.677337	0.000139
C96	C	0.648503	0.677328	0.000149
C97	C	0.462638	0.677371	-0.203082
C98	C	0.462635	0.677374	-0.272045
C99	C	0.462643	0.880550	0.000119
C100	C	0.462643	0.949510	0.000121
C101	C	0.435537	0.756733	-0.344124
C102	C	0.435541	0.756731	-0.408919
C103	C	0.462642	0.677368	-0.401633
C104	C	0.489743	0.598003	-0.329546
C105	C	0.489742	0.598006	-0.264753
C106	C	0.489752	0.597988	-0.590849
C107	C	0.489750	0.597990	-0.655650
C108	C	0.435551	0.756712	-0.735015
C109	C	0.435550	0.756715	-0.670222
C110	C	0.462653	0.677351	-0.598141
C111	C	0.462649	0.677354	-0.527883
C112	C	0.462643	0.677364	-0.471889
C113	C	0.462652	0.677353	0.203307
C114	C	0.462654	0.677350	0.272269
C115	C	0.601410	0.474149	0.000133
C116	C	0.648505	0.405180	0.000140
C117	C	0.462653	0.474165	0.203300
C118	C	0.462656	0.405202	0.272260
C119	C	0.601417	0.474140	0.203327
C120	C	0.648515	0.405168	0.272297
C121	C	0.323873	0.880585	-0.203103
C122	C	0.276775	0.949556	-0.272072
C123	C	0.323880	0.880576	0.000092
C124	C	0.276785	0.949545	0.000085
C125	C	0.462636	0.880559	-0.203076
C126	C	0.462633	0.949522	-0.272036
C127	C	0.643524	0.372798	-0.039547
C128	C	0.687771	0.308003	-0.039556
C129	C	0.736999	0.275587	0.000127
C130	C	0.741979	0.307975	0.039815
C131	C	0.697732	0.372773	0.039819
C132	C	0.489755	0.372810	0.344335
C133	C	0.489756	0.308021	0.409136
C134	C	0.462660	0.275621	0.401862
C135	C	0.435558	0.308020	0.329780
C136	C	0.435555	0.372812	0.264980
C137	C	0.697732	0.372775	0.265013
C138	C	0.741989	0.307977	0.329811
C139	C	0.737029	0.275570	0.401892
C140	C	0.687806	0.307970	0.409174
C141	C	0.643550	0.372770	0.344377
C142	C	0.227558	0.981957	-0.264788
C143	C	0.183300	1.046775	-0.329586
C144	C	0.188261	1.079186	-0.401667
C145	C	0.237483	1.046782	-0.408949
C146	C	0.281740	0.981970	-0.344152
C147	C	0.281766	0.981933	0.039765
C148	C	0.237519	1.046746	0.039755
C149	C	0.188291	1.079164	0.000070
C150	C	0.183311	1.046773	-0.039614
C151	C	0.227557	0.981966	-0.039609
C152	C	0.489734	0.981901	-0.264737
C153	C	0.489742	1.046691	-0.329526
C154	C	0.462645	1.079104	-0.401614
C155	C	0.435543	1.046719	-0.408911
C156	C	0.435539	0.981926	-0.344122
H157	H	0.413481	-0.044457	0.072101
H158	H	0.413488	0.073079	0.072109
H159	H	0.413498	0.281630	0.323868
H160	H	0.413489	0.399178	0.206296
F161	F	0.682535	0.273470	0.485894
H162	H	0.241584	1.073108	0.072074
F163	F	-0.408867	0.841161	-0.081775
H164	H	0.462667	0.222863	0.454632
H165	H	0.782066	0.281573	0.072123
H166	H	0.152267	1.131934	0.000072
H167	H	0.462652	1.131863	-0.454362
H168	H	0.511822	0.533364	-0.532166
H169	H	0.701781	0.399151	0.206327
H170	H	0.413494	0.281639	0.072096
H171	H	0.413476	0.821353	-0.467607
H172	H	0.321845	0.955543	0.072086
H173	H	0.511828	0.281649	0.467822
F174	F	0.025005	0.434156	0.121730
H175	H	0.143224	1.073178	-0.071925
F176	F	0.130919	1.081247	-0.321820
F177	F	0.784086	0.206622	0.000117
F178	F	0.157735	0.434170	0.121712
F179	F	0.141154	1.148164	-0.470624
F180	F	0.222260	0.841220	-0.081827
F181	F	0.518598	0.407278	0.352094
H182	H	0.603477	0.399136	0.350318
H183	H	0.223509	0.955572	-0.206102
F184	F	0.242755	1.081283	-0.485669
F185	F	0.334119	0.947488	-0.351916
F186	F	0.794371	0.273504	0.322044
H187	H	0.511798	0.073080	-0.071869
H188	H	0.413490	0.399200	0.072091
F189	F	0.334160	0.513560	0.081989
H190	H	0.223494	0.955597	-0.071919
H191	H	0.511810	1.073052	-0.323570
F192	F	0.406703	1.081230	-0.485637
F193	F	0.406689	0.947479	-0.351902
H194	H	0.511820	0.533360	-0.649709
F195	F	0.784136	0.206602	0.470849
H196	H	0.241593	0.533386	0.072096
F197	F	0.518577	0.947416	-0.188023
H198	H	0.511805	0.281632	-0.071870
F199	F	0.518577	0.407287	-0.081802
F200	F	0.518571	-0.052575	-0.081788
F201	F	0.518587	0.513539	-0.321793
H202	H	0.065169	0.454006	0.111802
H203	H	-0.217940	0.533341	0.072142
H204	H	-0.298217	0.533342	0.072139
F205	F	-0.317547	0.841174	-0.081773
H206	H	-0.007125	0.900718	-0.111533
F207	F	0.130918	0.841218	-0.081838
F208	F	-0.099696	0.920561	-0.121458
H209	H	-0.067577	0.454003	0.111812
H210	H	-0.220123	0.900691	-0.111532
H211	H	-0.139864	0.900697	-0.111540
H212	H	0.413465	0.821359	-0.350065
F213	F	0.406706	0.841180	-0.811735
F214	F	0.406699	0.841183	-0.677982
F215	F	0.518588	0.513541	-0.188039
H216	H	0.603444	0.399190	-0.071871
H217	H	0.701795	0.399130	0.072141
F218	F	0.682460	0.273542	-0.081796
