data_functionalizedCrystal
_audit_creation_method	'MofGen! by Chris Wilmer'
_symmetry_space_group_name_H-M	'P1'
_symmetry_Int_Tables_number	1
_symmetry_cell_setting	triclinic
loop_
_symmetry_equiv_pos_as_xyz
  x,y,z
_cell_length_a	18.101398
_cell_length_b	12.594516
_cell_length_c	12.594509
_cell_angle_alpha	89.973801
_cell_angle_beta	89.973660
_cell_angle_gamma	90.011320
loop_
_atom_site_label
_atom_site_type_symbol
_atom_site_fract_x
_atom_site_fract_y
_atom_site_fract_z
Zn1	Zn	1.132213	-0.423844	-0.602017
Zn2	Zn	1.132137	-0.601855	-0.424045
Zn3	Zn	1.008368	-0.423876	-0.424031
Zn4	Zn	1.008355	-0.601767	-0.601960
O5	O	1.070268	-0.512835	-0.513013
O6	O	1.235836	-0.447481	-0.578439
O7	O	1.115692	-0.578295	-0.275097
O8	O	1.024833	-0.274926	-0.447659
O9	O	1.235780	-0.578265	-0.447684
O10	O	1.115822	-0.274903	-0.578425
O11	O	1.024759	-0.447535	-0.275087
O12	O	0.904733	-0.447450	-0.447603
O13	O	1.024812	-0.578115	-0.750913
O14	O	0.904724	-0.578145	-0.578327
O15	O	1.115810	-0.447396	-0.750956
O16	O	1.115680	-0.750789	-0.447628
O17	O	1.024738	-0.750724	-0.578341
C18	C	0.877858	-0.512792	-0.512958
C19	C	0.795544	-0.512799	-0.512959
C20	C	1.070220	-0.789376	-0.513003
C21	C	1.070267	-0.907682	-0.513034
C22	C	0.496453	-0.512866	-0.513049
C23	C	0.527759	-0.430224	-0.431202
C24	C	0.613377	-0.430446	-0.430853
C25	C	0.644835	-0.512832	-0.513004
C26	C	0.613737	-0.624956	-0.482367
C27	C	0.528092	-0.624496	-0.481798
C28	C	0.528065	-0.484358	-0.625725
C29	C	0.613715	-0.481861	-0.625110
C30	C	0.728695	-0.512820	-0.512981
C31	C	0.412593	-0.512885	-0.513069
C32	C	1.020799	-0.976938	-0.584079
C33	C	1.002755	-1.047802	-0.486953
C34	C	1.088378	-1.047617	-0.610176
C35	C	1.052187	-0.976987	-0.415857
C36	C	1.137842	-0.976796	-0.539145
C37	C	1.119824	-1.047628	-0.441953
C38	C	1.263430	-0.512879	-0.513070
C39	C	1.345744	-0.512898	-0.513094
C40	C	1.070318	-0.512742	-0.790634
C41	C	1.070339	-0.512702	-0.908940
C42	C	1.070337	-0.235214	-0.513047
C43	C	1.070367	-0.116909	-0.513061
C44	C	1.020861	-0.583760	-0.978170
C45	C	1.088435	-0.609774	-1.048970
C46	C	1.002818	-0.486624	-1.048939
C47	C	1.137949	-0.538768	-0.978181
C48	C	1.052286	-0.415572	-0.978145
C49	C	1.119906	-0.441550	-1.048912
C50	C	1.070262	-0.512851	-0.236472
C51	C	1.070384	-0.512591	-0.118167
H52	H	0.634403	-0.347302	-0.450055
H53	H	1.161816	-0.381411	-1.079778
Br54	Br	0.907579	-1.099780	-0.450146
Br55	Br	0.494325	-0.584681	-0.727368
Br56	Br	1.026763	-0.278781	-0.926250
Br57	Br	0.493571	-0.730601	-0.576817
H58	H	1.103656	-1.078643	-0.692317
H59	H	1.195086	-0.560872	-0.947230
H60	H	0.945697	-0.464613	-1.080021
H61	H	0.978890	-0.945899	-0.644072
Br62	Br	0.647686	-0.730337	-0.578625
H63	H	0.635154	-0.649550	-0.400885
H64	H	1.161700	-1.078470	-0.381815
Br65	Br	0.493452	-0.291215	-0.462851
Br66	Br	0.951174	-0.684064	-0.926395
Br67	Br	1.026616	-0.925498	-0.278909
H68	H	1.194930	-0.945587	-0.561254
Br69	Br	0.647477	-0.461850	-0.291691
Br70	Br	0.491828	-0.461255	-0.292855
H71	H	1.103729	-0.691867	-1.080079
H72	H	0.634045	-0.399350	-0.648211
H73	H	0.508082	-0.648672	-0.399427
Br74	Br	0.649406	-0.574876	-0.732201
Br75	Br	0.492090	-0.350454	-0.672155
