data_functionalizedCrystal
_audit_creation_method	'MofGen! by Chris Wilmer'
_symmetry_space_group_name_H-M	'P1'
_symmetry_Int_Tables_number	1
_symmetry_cell_setting	triclinic
loop_
_symmetry_equiv_pos_as_xyz
  x,y,z
_cell_length_a	17.639617
_cell_length_b	21.295417
_cell_length_c	17.640968
_cell_angle_alpha	78.765192
_cell_angle_beta	70.333968
_cell_angle_gamma	101.214475
loop_
_atom_site_label
_atom_site_type_symbol
_atom_site_fract_x
_atom_site_fract_y
_atom_site_fract_z
Zn1	Zn	1.354405	0.083269	-0.721260
Zn2	Zn	1.854405	0.583269	-0.221260
Zn3	Zn	1.326406	-0.048705	-0.583391
Zn4	Zn	1.826406	0.451295	-0.083391
Zn5	Zn	1.188682	0.029917	-0.555521
Zn6	Zn	1.688682	0.529917	-0.055521
Zn7	Zn	1.216496	-0.048644	-0.693274
Zn8	Zn	1.716496	0.451356	-0.193274
O9	O	1.271497	0.003959	-0.638362
O10	O	1.771497	0.503959	-0.138362
O11	O	1.466044	0.088064	-0.726348
O12	O	1.966044	0.588064	-0.226348
O13	O	1.284779	-0.060629	-0.464345
O14	O	1.784779	0.439371	0.035655
O15	O	1.210743	0.125104	-0.577555
O16	O	1.710743	0.625104	-0.077555
O17	O	1.445474	-0.008896	-0.625056
O18	O	1.945474	0.491104	-0.125056
O19	O	1.332498	0.164301	-0.699323
O20	O	1.832498	0.664301	-0.199323
O21	O	1.183594	-0.002865	-0.443869
O22	O	1.683594	0.497135	0.056131
O23	O	1.077018	-0.002806	-0.550418
O24	O	1.577018	0.497194	-0.050418
O25	O	1.258147	-0.008792	-0.812335
O26	O	1.758147	0.491208	-0.312335
O27	O	1.097453	-0.060524	-0.651625
O28	O	1.597453	0.439476	-0.151625
O29	O	1.359468	0.088124	-0.832897
O30	O	1.859468	0.588124	-0.332897
O31	O	1.311749	-0.136806	-0.597919
O32	O	1.811749	0.363194	-0.097919
O33	O	1.230998	-0.136761	-0.678649
O34	O	1.730998	0.363239	-0.178649
C35	C	1.057326	-0.037448	-0.594960
C36	C	1.557326	0.462552	-0.094960
C37	C	0.965706	-0.055174	-0.576413
C38	C	1.465706	0.444826	-0.076413
C39	C	1.271380	-0.159622	-0.638294
C40	C	1.771380	0.340378	-0.138294
C41	C	1.271411	-0.229583	-0.638308
C42	C	1.771411	0.270417	-0.138308
C43	C	0.717977	0.138673	-0.779471
C44	C	1.217977	0.638673	-0.279471
C45	C	0.631883	0.121998	-0.762026
C46	C	1.131883	0.621998	-0.262026
C47	C	0.610454	0.021137	-0.656399
C48	C	1.110454	0.521137	-0.156399
C49	C	0.696549	0.037802	-0.673838
C50	C	1.196549	0.537802	-0.173838
C51	C	0.750303	0.096571	-0.735374
C52	C	1.250303	0.596571	-0.235374
C53	C	0.728875	-0.004300	-0.629741
C54	C	1.228875	0.495700	-0.129741
C55	C	0.814962	0.012366	-0.647176
C56	C	1.314962	0.512366	-0.147176
C57	C	0.868721	0.071133	-0.708708
C58	C	1.368721	0.571133	-0.208708
C59	C	0.836390	0.113237	-0.752809
C60	C	1.336390	0.613237	-0.252809
C61	C	0.675118	-0.063066	-0.568201
C62	C	1.175118	0.436934	-0.068201
C63	C	0.707445	-0.105168	-0.524104
C64	C	1.207445	0.394832	-0.024104
C65	C	0.793534	-0.088505	-0.541543
C66	C	1.293534	0.411495	-0.041543
C67	C	0.847293	-0.029738	-0.603075
C68	C	1.347293	0.470262	-0.103075
C69	C	0.825865	-0.130609	-0.497442
C70	C	1.325865	0.369391	0.002558
C71	C	0.911951	-0.113943	-0.514876
C72	C	1.411951	0.386057	-0.014876
C73	C	0.933379	-0.013072	-0.620509
C74	C	1.433379	0.486928	-0.120509
C75	C	1.313515	-0.262433	-0.596335
C76	C	1.813515	0.237567	-0.096335
C77	C	1.313558	-0.328164	-0.596362
C78	C	1.813558	0.171836	-0.096362
C79	C	1.271479	-0.361048	-0.638349
C80	C	1.771479	0.138952	-0.138349
C81	C	1.229373	-0.328189	-0.680331
C82	C	1.729373	0.171811	-0.180331
C83	C	1.229338	-0.262456	-0.680311
C84	C	1.729338	0.237544	-0.180311
N85	N	1.200639	-0.477043	-0.630020
N86	N	1.700639	0.022957	-0.130020
N87	N	1.200673	-0.539487	-0.630035
N88	N	1.700673	-0.039487	-0.130035
C89	C	1.271581	-0.559095	-0.638415
C90	C	1.771581	-0.059095	-0.138415
N91	N	1.342452	-0.513904	-0.646764
N92	N	1.842452	-0.013904	-0.146764
N93	N	1.342417	-0.451456	-0.646744
N94	N	1.842417	0.048544	-0.146744
C95	C	1.271512	-0.432323	-0.638377
C96	C	1.771512	0.067677	-0.138377
C97	C	1.313735	-0.663218	-0.596469
C98	C	1.813735	-0.163218	-0.096469
C99	C	1.313780	-0.728950	-0.596502
C100	C	1.813780	-0.228950	-0.096502
C101	C	1.229587	-0.728975	-0.680465
C102	C	1.729587	-0.228975	-0.180465
C103	C	1.229550	-0.663243	-0.680439
C104	C	1.729550	-0.163243	-0.180439
C105	C	1.271622	-0.630370	-0.638436
C106	C	1.771622	-0.130370	-0.138436
C107	C	1.486505	0.045528	-0.681933
C108	C	1.986505	0.545528	-0.181933
C109	C	1.578129	0.063243	-0.700500
C110	C	2.078129	0.563243	-0.200500
C111	C	1.315033	0.045624	-0.853361
C112	C	1.815033	0.545624	-0.353361
C113	C	1.333586	0.063379	-0.944981
C114	C	1.833586	0.563379	-0.444981
C115	C	1.271641	0.168187	-0.638452
C116	C	1.771641	0.668187	-0.138452
C117	C	1.271702	0.238172	-0.638491
C118	C	1.771702	0.738172	-0.138491
C119	C	1.130872	-0.130520	-1.192787
C120	C	1.630872	0.369480	-0.692787
C121	C	1.148322	-0.113825	-1.278882
C122	C	1.648322	0.386175	-0.778882
C123	C	1.253819	-0.012915	-1.300280
C124	C	1.753819	0.487085	-0.800280
C125	C	1.236375	-0.029600	-1.214185
C126	C	1.736375	0.470400	-0.714185
C127	C	1.174901	-0.088404	-1.160445
C128	C	1.674901	0.411596	-0.660445
C129	C	1.280404	0.012516	-1.181843
C130	C	1.780404	0.512516	-0.681843
C131	C	1.262963	-0.004169	-1.095757
C132	C	1.762963	0.495831	-0.595757
C133	C	1.201494	-0.062971	-1.042012
C134	C	1.701494	0.437029	-0.542012
C135	C	1.157461	-0.105089	-1.074359
C136	C	1.657461	0.394911	-0.574359
C137	C	1.341881	0.071317	-1.235586
C138	C	1.841881	0.571317	-0.735586
C139	C	1.385910	0.113433	-1.203244
C140	C	1.885910	0.613433	-0.703244
C141	C	1.368466	0.096750	-1.117155
C142	C	1.868466	0.596750	-0.617155
C143	C	1.306997	0.037948	-1.063410
C144	C	1.806997	0.537948	-0.563410
C145	C	1.412500	0.138868	-1.084808
C146	C	1.912500	0.638868	-0.584808
C147	C	1.395059	0.122183	-0.998721
C148	C	1.895059	0.622183	-0.498721
C149	C	1.289557	0.021263	-0.977323
C150	C	1.789557	0.521263	-0.477323
C151	C	1.228178	-0.037489	-0.424208
C152	C	1.728178	0.462511	0.075792
C153	C	1.209785	-0.055035	-0.332621
C154	C	1.709785	0.444965	0.167379
H155	H	0.977151	0.034782	-0.670621
H156	H	1.477151	0.534782	-0.170621
Cl157	Cl	1.366624	-0.621889	-0.543666
Cl158	Cl	1.866624	-0.121889	-0.043666
H159	H	1.348073	-0.755693	-0.562325
H160	H	1.848073	-0.255693	-0.062325
H161	H	1.195330	-0.755747	-0.714657
H162	H	1.695330	-0.255747	-0.214657
Cl163	Cl	0.976945	0.092090	-0.730621
Cl164	Cl	1.476945	0.592090	-0.230621
Cl165	Cl	0.785562	0.212552	-0.856839
Cl166	Cl	1.285562	0.712552	-0.356839
H167	H	1.080794	-0.178392	-1.149025
H168	H	1.580794	0.321608	-0.649025
Cl169	Cl	1.179572	-0.083951	-0.933787
Cl170	Cl	1.679572	0.416049	-0.433787
H171	H	1.112464	-0.148126	-1.305210
H172	H	1.612464	0.351874	-0.805210
Cl173	Cl	1.080171	-0.179011	-1.006792
Cl174	Cl	1.580171	0.320989	-0.506792
H175	H	1.195260	-0.636496	-0.714613
H176	H	1.695260	-0.136496	-0.214613
H177	H	1.239479	-0.026609	-0.933560
H178	H	1.739479	0.473391	-0.433560
H179	H	1.303873	0.034961	-1.344047
H180	H	1.803873	0.534961	-0.844047
H181	H	1.356081	0.084899	-1.305683
H182	H	1.856081	0.584899	-0.805683
H183	H	1.435964	0.161310	-1.247010
H184	H	1.935964	0.661310	-0.747010
H185	H	1.195051	-0.235709	-0.714491
H186	H	1.695051	0.264291	-0.214491
Cl187	Cl	1.489786	0.212784	-1.152377
Cl188	Cl	1.989786	0.712784	-0.652377
Cl189	Cl	1.450413	0.175128	-0.958059
Cl190	Cl	1.950413	0.675128	-0.458059
Cl191	Cl	1.366492	-0.369470	-0.543590
Cl192	Cl	1.866492	0.130530	-0.043590
Cl193	Cl	0.758277	-0.204482	-0.420076
Cl194	Cl	1.258277	0.295518	0.079924
Cl195	Cl	0.591246	0.174936	-0.817465
Cl196	Cl	1.091246	0.674936	-0.317465
Cl197	Cl	0.903975	0.187116	-0.830177
Cl198	Cl	1.403975	0.687116	-0.330177
H199	H	0.566675	-0.026711	-0.606293
H200	H	1.066675	0.473289	-0.106293
Cl201	Cl	0.952596	-0.166876	-0.459448
Cl202	Cl	1.452596	0.333124	0.040552
H203	H	0.605018	-0.076623	-0.553989
H204	H	1.105018	0.423377	-0.053989
H205	H	0.663666	-0.153017	-0.473999
H206	H	1.163666	0.346983	0.026001
H207	H	1.347775	-0.235668	-0.562137
H208	H	1.847775	0.264332	-0.062137
H209	H	1.195114	-0.354966	-0.714520
H210	H	1.695114	0.145034	-0.214520
