data_functionalizedCrystal
_audit_creation_method	'MofGen! by Chris Wilmer'
_symmetry_space_group_name_H-M	'P1'
_symmetry_Int_Tables_number	1
_symmetry_cell_setting	triclinic
loop_
_symmetry_equiv_pos_as_xyz
  x,y,z
_cell_length_a	12.827893
_cell_length_b	14.908520
_cell_length_c	12.827885
_cell_angle_alpha	93.263516
_cell_angle_beta	89.980728
_cell_angle_gamma	93.320765
loop_
_atom_site_label
_atom_site_type_symbol
_atom_site_fract_x
_atom_site_fract_y
_atom_site_fract_z
Zn1	Zn	1.573615	-0.359110	-0.614816
Zn2	Zn	1.563402	-0.509994	-0.450147
Zn3	Zn	1.398853	-0.359155	-0.440093
Zn4	Zn	1.388739	-0.509927	-0.624842
O5	O	1.481152	-0.434546	-0.532475
O6	O	1.718496	-0.379134	-0.592984
O7	O	1.541533	-0.490031	-0.302580
O8	O	1.430543	-0.232904	-0.454867
O9	O	1.710992	-0.489988	-0.472002
O10	O	1.558939	-0.232872	-0.583235
O11	O	1.420640	-0.379210	-0.295193
O12	O	1.251276	-0.379146	-0.464589
O13	O	1.413305	-0.489875	-0.769745
O14	O	1.243845	-0.489918	-0.600323
O15	O	1.549132	-0.379070	-0.762379
O16	O	1.531726	-0.636229	-0.481724
O17	O	1.403402	-0.636180	-0.610072
C18	C	1.209644	-0.434530	-0.532454
C19	C	1.093489	-0.434544	-0.532471
C20	C	1.045411	-0.379788	-0.592442
C21	C	0.925360	-0.379802	-0.592461
C22	C	1.465386	-0.668939	-0.548100
C23	C	1.458737	-0.769212	-0.554819
C24	C	1.580004	-0.957628	-0.433905
C25	C	1.573760	-1.051844	-0.440215
C26	C	1.440012	-1.051863	-0.573754
C27	C	1.446255	-0.957647	-0.567444
C28	C	1.516253	-0.910532	-0.497516
C29	C	1.522491	-0.816314	-0.491201
C30	C	1.388748	-0.816335	-0.624745
C31	C	1.382504	-0.910551	-0.631055
C32	C	1.753721	-0.434564	-0.532496
C33	C	1.869874	-0.434571	-0.532506
C34	C	1.481229	-0.434460	-0.805039
C35	C	1.481262	-0.434423	-0.921190
C36	C	1.497008	-0.199239	-0.516811
C37	C	1.503765	-0.098965	-0.510136
C38	C	1.548481	-0.379582	-0.969329
C39	C	1.548517	-0.379543	-1.089377
C40	C	1.481140	-0.434568	-0.260966
C41	C	1.481327	-0.434350	-0.144799
H42	H	0.911227	-0.481458	-0.481165
O43	O	1.036735	-0.490516	-0.471136
C44	C	1.104746	-0.541444	-0.415393
H45	H	1.185054	-0.504542	-0.409301
H46	H	1.111729	-0.610007	-0.458093
C47	C	0.962484	-0.599633	-0.312533
C48	C	1.061118	-0.554304	-0.305043
H49	H	0.935572	-0.607570	-0.244466
H50	H	0.916663	-0.565325	-0.350091
H51	H	0.968317	-0.656763	-0.348121
H52	H	1.055281	-0.497171	-0.269469
H53	H	1.106938	-0.588603	-0.267477
O54	O	1.326857	-0.770687	-0.686693
C55	C	1.348124	-0.793606	-0.792407
H56	H	1.383771	-0.861978	-0.799196
H57	H	1.405339	-0.740511	-0.824102
C58	C	1.202130	-0.714029	-0.847558
C59	C	1.245905	-0.798008	-0.855897
H60	H	1.139079	-0.716741	-0.886724
H61	H	1.187804	-0.698585	-0.776337
H62	H	1.249820	-0.669793	-0.873969
H63	H	1.198221	-0.842241	-0.829474
H64	H	1.260221	-0.813460	-0.927116
H65	H	0.883999	-0.332925	-0.643808
O66	O	1.617032	-0.323429	-1.138811
C67	C	1.561419	-0.265202	-1.198086
H68	H	1.479510	-0.259614	-1.164752
H69	H	1.555888	-0.293132	-1.282625
C70	C	1.719387	-0.178284	-1.234605
C71	C	1.618788	-0.171414	-1.193658
H72	H	1.754776	-0.120432	-1.231878
H73	H	1.756856	-0.217514	-1.194673
H74	H	1.714764	-0.201563	-1.305051
H75	H	1.623413	-0.148147	-1.123210
H76	H	1.581321	-0.132178	-1.233577
H77	H	1.093127	-0.332895	-0.643767
O78	O	1.616969	-0.323561	-0.912360
C79	C	1.561324	-0.265343	-0.845362
H80	H	1.479963	-0.297170	-0.831234
H81	H	1.554406	-0.198438	-0.882905
C82	C	1.719719	-0.210044	-0.757899
C83	C	1.619793	-0.249137	-0.740540
H84	H	1.755786	-0.200043	-0.693241
H85	H	1.757209	-0.249263	-0.803039
H86	H	1.713940	-0.154294	-0.789187
H87	H	1.625573	-0.304891	-0.709264
H88	H	1.582304	-0.209926	-0.695392
H89	H	1.579484	-0.777955	-0.434259
H90	H	1.636992	-0.919267	-0.376959
H91	H	1.423779	-0.481307	-1.103394
H92	H	1.625675	-1.090186	-0.388418
H93	H	1.383030	-1.090240	-0.630693
H94	H	1.423733	-0.481339	-0.968851
O95	O	1.314650	-0.956422	-0.699035
C96	C	1.370498	-1.010815	-0.770251
H97	H	1.448785	-1.024890	-0.734419
H98	H	1.384335	-0.974447	-0.845270
C99	C	1.210904	-1.083057	-0.839121
C100	C	1.307054	-1.100351	-0.795107
H101	H	1.171768	-1.138286	-0.854458
H102	H	1.173277	-1.046410	-0.791144
H103	H	1.222449	-1.052749	-0.901631
H104	H	1.295508	-1.130648	-0.732591
H105	H	1.344677	-1.137005	-0.843074
