data_functionalizedCrystal
_audit_creation_method	'MofGen! by Chris Wilmer'
_symmetry_space_group_name_H-M	'P1'
_symmetry_Int_Tables_number	1
_symmetry_cell_setting	triclinic
loop_
_symmetry_equiv_pos_as_xyz
  x,y,z
_cell_length_a	13.032831
_cell_length_b	12.645330
_cell_length_c	13.032268
_cell_angle_alpha	82.848687
_cell_angle_beta	89.113023
_cell_angle_gamma	82.822813
loop_
_atom_site_label
_atom_site_type_symbol
_atom_site_fract_x
_atom_site_fract_y
_atom_site_fract_z
Zn1	Zn	1.498478	-0.715929	0.780858
Zn2	Zn	1.520220	-0.873876	0.608884
Zn3	Zn	1.348336	-0.671644	0.587098
Zn4	Zn	1.326468	-0.868144	0.759009
O5	O	1.423375	-0.782398	0.683962
O6	O	1.645282	-0.757814	0.776307
O7	O	1.515670	-0.830915	0.462076
O8	O	1.368306	-0.529182	0.612827
O9	O	1.661256	-0.873856	0.649958
O10	O	1.478614	-0.561718	0.755182
O11	O	1.389388	-0.682336	0.446071
O12	O	1.201515	-0.676778	0.591641
O13	O	1.331034	-0.864087	0.905824
O14	O	1.185448	-0.821146	0.717943
O15	O	1.457409	-0.752256	0.921877
O16	O	1.494465	-1.021452	0.628771
O17	O	1.352116	-1.017241	0.739067
C18	C	1.156164	-0.743535	0.650057
C19	C	1.041847	-0.726938	0.635577
C20	C	0.982971	-0.791061	0.691519
C21	C	0.864818	-0.773908	0.676555
C22	C	1.423302	-1.057816	0.683938
C23	C	1.423360	-1.175658	0.683974
C24	C	1.334105	-1.340692	0.753648
C25	C	1.333733	-1.218045	0.753341
C26	C	1.407793	-1.203807	0.571873
C27	C	1.407248	-1.326389	0.572295
C28	C	1.528779	-1.361707	0.725584
C29	C	1.527810	-1.239270	0.727870
C30	C	1.691630	-0.821414	0.718000
C31	C	1.805944	-0.838040	0.732505
C32	C	1.389357	-0.812472	0.952210
C33	C	1.374860	-0.825288	1.066522
C34	C	1.423474	-0.505912	0.684012
C35	C	1.423516	-0.388090	0.684033
C36	C	1.457320	-0.752374	0.416765
C37	C	1.472016	-0.739288	0.302479
C38	C	1.430925	-0.775669	1.125428
C39	C	1.415944	-0.788914	1.243575
H40	H	1.341878	-1.199591	0.836032
H41	H	1.342048	-1.381809	0.836582
N42	N	0.818353	-0.689102	0.602555
N43	N	0.873646	-0.628809	0.549949
H44	H	0.840830	-0.568916	0.497686
H45	H	0.843003	-0.905637	0.791489
N46	N	0.995358	-0.642119	0.561609
N47	N	0.930809	-0.570052	0.590371
H48	H	0.897978	-0.510145	0.538131
H49	H	1.490012	-0.723380	1.088392
N50	N	1.236460	-1.362293	0.718124
N51	N	1.232433	-1.412444	0.641759
H52	H	1.163472	-1.427703	0.616667
H53	H	1.255418	-1.175020	0.724725
N54	N	1.487669	-1.168830	0.504275
N55	N	1.557124	-1.122653	0.538047
H56	H	1.613539	-1.097949	0.490309
H57	H	1.531105	-0.686993	1.265449
N58	N	1.300725	-0.890886	1.112955
N59	N	1.248006	-0.937540	1.057634
H60	H	1.195643	-0.983868	1.090423
H61	H	1.020037	-0.858655	0.750496
H62	H	1.330710	-1.340879	0.538698
H63	H	1.470292	-1.357178	0.517917
H64	H	1.545671	-1.405172	0.806666
N65	N	1.312885	-1.147675	0.529330
N66	N	1.256564	-1.086908	0.581362
H67	H	1.189533	-1.047264	0.551321
H68	H	1.539800	-1.222299	0.810438
H69	H	1.596830	-1.211611	0.681954
N70	N	1.612124	-1.400658	0.662178
N71	N	1.594221	-1.447659	0.586705
H72	H	1.653075	-1.475171	0.541918
N73	N	1.341804	-0.854497	1.290036
N74	N	1.329736	-0.865159	1.385944
H75	H	1.277375	-0.911475	1.418760
