data_functionalizedCrystal
_audit_creation_method	'MofGen! by Chris Wilmer'
_symmetry_space_group_name_H-M	'P1'
_symmetry_Int_Tables_number	1
_symmetry_cell_setting	triclinic
loop_
_symmetry_equiv_pos_as_xyz
  x,y,z
_cell_length_a	15.297475
_cell_length_b	18.101395
_cell_length_c	15.296720
_cell_angle_alpha	99.643705
_cell_angle_beta	91.617114
_cell_angle_gamma	80.333681
loop_
_atom_site_label
_atom_site_type_symbol
_atom_site_fract_x
_atom_site_fract_y
_atom_site_fract_z
Zn1	Zn	1.253296	-0.576346	-0.726580
Zn2	Zn	1.278539	-0.682980	-0.580092
Zn3	Zn	1.132181	-0.534744	-0.554822
Zn4	Zn	1.106767	-0.675701	-0.701220
O5	O	1.192696	-0.617443	-0.640678
O6	O	1.379219	-0.610949	-0.728336
O7	O	1.280325	-0.648952	-0.454165
O8	O	1.148319	-0.436645	-0.577643
O9	O	1.397765	-0.689292	-0.620712
O10	O	1.237301	-0.467210	-0.703833
O11	O	1.172796	-0.540044	-0.435600
O12	O	1.006236	-0.532985	-0.553053
O13	O	1.105004	-0.676885	-0.827159
O14	O	0.987564	-0.636545	-0.660612
O15	O	1.212658	-0.603890	-0.845790
O16	O	1.255681	-0.785632	-0.596122
O17	O	1.129481	-0.780284	-0.685115
C18	C	0.965117	-0.579462	-0.601339
C19	C	0.867755	-0.563233	-0.584530
C20	C	0.554578	-0.733434	-0.760815
C21	C	0.646055	-0.748686	-0.776605
C22	C	0.701484	-0.702324	-0.728588
C23	C	0.665428	-0.640708	-0.664778
C24	C	0.573942	-0.625457	-0.648981
C25	C	0.720849	-0.594348	-0.616754
C26	C	0.684792	-0.532731	-0.552944
C27	C	0.593315	-0.517483	-0.537151
C28	C	0.537886	-0.563845	-0.585167
C29	C	0.812334	-0.609598	-0.632551
C30	C	0.831699	-0.501621	-0.520717
C31	C	0.740221	-0.486369	-0.504927
C32	C	1.192583	-0.809831	-0.640632
C33	C	1.192610	-0.892152	-0.640656
C34	C	1.192794	-1.191281	-0.640736
C35	C	1.113520	-1.156667	-0.696923
C36	C	1.113236	-1.070971	-0.696656
C37	C	1.192702	-1.042879	-0.640697
C38	C	1.183698	-1.059025	-0.544069
C39	C	1.183193	-1.144646	-0.544399
C40	C	1.281361	-1.177858	-0.680391
C41	C	1.280465	-1.092353	-0.682321
C42	C	1.192653	-0.959009	-0.640670
C43	C	1.192842	-1.275150	-0.640757
C44	C	1.421163	-0.655573	-0.680172
C45	C	1.518521	-0.671822	-0.697001
C46	C	1.153180	-0.644216	-0.869145
C47	C	1.136341	-0.655626	-0.966504
C48	C	1.192829	-0.424310	-0.640748
C49	C	1.192886	-0.342008	-0.640777
C50	C	1.313081	-0.535774	-1.279745
C51	C	1.328908	-0.525057	-1.188272
C52	C	1.280767	-0.557698	-1.132826
C53	C	1.216797	-0.601059	-1.168860
C54	C	1.200974	-0.611782	-1.260343
C55	C	1.168660	-0.633706	-1.113424
C56	C	1.104691	-0.677067	-1.149458
C57	C	1.088870	-0.687788	-1.240932
C58	C	1.137010	-0.655147	-1.296378
C59	C	1.184484	-0.622982	-1.021941
C60	C	1.072377	-0.698990	-1.002539
C61	C	1.056550	-0.709707	-1.094012
C62	C	1.232108	-0.590728	-0.413109
C63	C	1.249117	-0.579139	-0.315780
H64	H	0.675406	-0.798856	-0.828558
H65	H	0.509441	-0.771179	-0.799898
C66	C	0.800775	-0.718981	-0.745894
C67	C	0.820486	-0.782852	-0.812070
C68	C	0.911945	-0.798212	-0.828049
H69	H	0.831337	-0.728579	-0.692984
H70	H	0.818881	-0.676475	-0.764772
H71	H	0.802391	-0.825348	-0.793188
H72	H	0.789947	-0.773270	-0.864993
H73	H	0.930051	-0.755707	-0.846927
H74	H	0.942499	-0.807808	-0.775135
H75	H	0.925330	-0.841546	-0.872956
C76	C	1.019493	-0.734989	-1.279948
C77	C	1.042356	-0.808817	-1.260938
C78	C	0.978463	-0.852318	-1.296850
H79	H	1.016903	-0.736798	-1.342373
H80	H	0.963231	-0.712611	-1.254764
H81	H	1.098604	-0.831189	-1.286125
H82	H	1.044940	-0.807031	-1.198520
H83	H	0.922200	-0.829941	-1.271666
H84	H	0.975877	-0.854122	-1.359274
H85	H	0.993962	-0.902413	-1.283950
H86	H	1.293657	-0.548969	-1.058345
C87	C	1.398358	-0.477923	-1.149314
C88	C	1.437114	-0.451614	-1.217444
C89	C	1.501090	-0.408180	-1.181587
H90	H	1.442754	-0.508366	-1.120226
H91	H	1.371063	-0.435851	-1.107871
H92	H	1.464409	-0.493680	-1.258871
H93	H	1.392741	-0.421161	-1.246538
H94	H	1.473795	-0.366108	-1.140144
H95	H	1.545479	-0.438628	-1.152499
H96	H	1.527387	-0.390319	-1.227806
C97	C	1.361638	-1.068486	-0.633284
C98	C	1.357400	-1.077339	-0.544391
C99	C	1.432164	-1.055367	-0.499184
H100	H	1.363199	-1.016756	-0.636418
H101	H	1.413673	-1.099319	-0.659778
H102	H	1.305379	-1.046505	-0.517904
H103	H	1.355852	-1.129062	-0.541229
H104	H	1.484199	-1.086201	-0.525679
H105	H	1.433718	-1.003638	-0.502326
H106	H	1.429302	-1.061377	-0.438868
C107	C	1.365224	-0.500376	-1.340084
C108	C	1.337661	-0.519037	-1.427905
C109	C	1.385674	-0.486433	-1.483514
H110	H	1.426678	-0.519252	-1.335373
H111	H	1.355020	-0.446716	-1.322953
H112	H	1.347873	-0.572686	-1.445031
H113	H	1.276214	-0.500160	-1.432645
H114	H	1.375470	-0.432773	-1.466383
H115	H	1.447126	-0.505312	-1.478795
H116	H	1.366974	-0.499084	-1.543105
C117	C	1.253916	-0.575953	-0.982658
C118	C	1.257487	-0.573558	-0.890682
C119	C	1.321445	-0.530244	-0.854467
H120	H	1.238606	-0.525789	-0.995363
H121	H	1.310197	-0.598372	-1.007771
H122	H	1.201218	-0.551138	-0.865578
H123	H	1.272808	-0.623711	-0.877953
H124	H	1.377727	-0.552662	-0.879579
H125	H	1.306130	-0.480083	-0.867178
H126	H	1.323883	-0.528619	-0.792059
C127	C	1.119835	-0.666942	-1.395697
C128	C	1.136875	-0.744714	-1.429802
C129	C	1.121055	-0.755608	-1.521290
H130	H	1.157642	-0.641357	-1.423663
H131	H	1.059724	-0.647171	-1.406654
H132	H	1.196976	-0.764477	-1.418853
H133	H	1.099071	-0.770316	-1.401861
H134	H	1.060944	-0.735836	-1.532247
H135	H	1.158864	-0.730019	-1.549248
H136	H	1.132607	-0.808377	-1.544440
C137	C	0.987174	-0.756904	-1.133039
C138	C	1.010030	-0.830737	-1.114040
C139	C	0.946136	-0.874233	-1.149967
H140	H	0.984590	-0.758706	-1.195463
H141	H	0.930909	-0.734528	-1.107858
H142	H	1.066279	-0.853108	-1.139224
H143	H	1.012607	-0.828958	-1.051623
H144	H	0.889872	-0.851856	-1.124787
H145	H	0.943557	-0.876029	-1.212390
H146	H	0.961631	-0.924331	-1.137075
C147	C	0.554015	-0.450567	-0.467967
C148	C	0.492898	-0.400245	-0.508568
C149	C	0.456663	-0.338610	-0.444852
H150	H	0.600015	-0.425043	-0.441575
H151	H	0.524876	-0.468420	-0.423602
H152	H	0.522037	-0.382392	-0.552917
H153	H	0.446881	-0.425745	-0.534956
H154	H	0.427524	-0.356463	-0.400487
H155	H	0.502670	-0.313092	-0.418464
H156	H	0.415186	-0.304462	-0.472389
C157	C	0.701042	-0.419579	-0.435526
C158	C	0.658236	-0.446092	-0.370214
C159	C	0.622145	-0.384589	-0.306262
H160	H	0.659517	-0.385308	-0.462829
H161	H	0.747132	-0.394152	-0.409131
H162	H	0.612152	-0.471507	-0.396605
H163	H	0.699743	-0.480355	-0.342888
H164	H	0.668234	-0.359162	-0.279867
H165	H	0.580623	-0.350322	-0.333573
H166	H	0.593103	-0.402570	-0.261936
C167	C	0.892011	-0.451345	-0.468702
C168	C	0.979839	-0.477875	-0.496211
C169	C	1.035427	-0.431580	-0.448325
H170	H	0.887299	-0.452670	-0.407218
H171	H	0.874860	-0.400617	-0.479058
H172	H	0.996985	-0.528590	-0.485848
H173	H	0.984579	-0.476547	-0.557688
H174	H	1.018276	-0.380851	-0.458681
H175	H	1.030707	-0.432908	-0.386843
H176	H	1.095023	-0.449569	-0.466988
H177	H	0.841682	-0.659767	-0.684506
H178	H	1.118926	-1.151038	-0.512667
H179	H	0.463396	-0.551428	-0.572316
H180	H	1.117108	-1.187859	-0.768267
H181	H	1.033178	-0.725571	-0.957395
H182	H	1.117017	-1.060550	-0.767804
H183	H	1.240326	-1.040504	-0.500364
C184	C	1.026136	-1.167994	-0.660567
C185	C	1.025512	-1.245780	-0.664878
C186	C	0.945037	-1.256244	-0.631380
H187	H	0.978515	-1.146987	-0.694836
H188	H	1.019599	-1.143343	-0.600638
H189	H	1.032040	-1.270421	-0.724796
H190	H	1.073115	-1.266804	-0.630606
H191	H	0.938500	-1.231593	-0.571451
H192	H	0.897422	-1.235232	-0.665652
H193	H	0.944606	-1.309021	-0.634292
H194	H	1.047265	-1.037251	-0.669127
C195	C	1.257888	-1.174495	-0.485379
C196	C	1.245102	-1.134387	-0.398901
C197	C	1.313882	-1.161873	-0.344506
H198	H	1.313016	-1.167873	-0.507380
H199	H	1.258079	-1.226971	-0.485128
H200	H	1.244920	-1.081924	-0.399155
H201	H	1.189988	-1.141005	-0.376873
H202	H	1.314072	-1.214349	-0.344256
H203	H	1.369004	-1.155250	-0.366516
H204	H	1.305211	-1.134669	-0.285824
C205	C	1.099001	-1.012556	-0.501379
C206	C	1.044834	-1.061511	-0.478555
C207	C	0.966807	-1.018733	-0.439223
H208	H	1.068475	-0.982966	-0.542006
H209	H	1.113342	-0.979925	-0.449539
H210	H	1.030491	-1.094129	-0.530388
H211	H	1.075332	-1.091101	-0.437920
H212	H	0.981148	-0.986102	-0.387383
H213	H	0.936289	-0.989145	-0.479855
H214	H	0.930049	-1.051942	-0.423725
H215	H	1.292687	-1.210974	-0.750493
H216	H	1.287546	-1.083109	-0.753513
H217	H	1.340226	-1.200698	-0.639662
