data_functionalizedCrystal
_audit_creation_method	'MofGen! by Chris Wilmer'
_symmetry_space_group_name_H-M	'P1'
_symmetry_Int_Tables_number	1
_symmetry_cell_setting	triclinic
loop_
_symmetry_equiv_pos_as_xyz
  x,y,z
_cell_length_a	14.971482
_cell_length_b	14.971506
_cell_length_c	14.048226
_cell_angle_alpha	90.004853
_cell_angle_beta	90.005902
_cell_angle_gamma	83.617498
loop_
_atom_site_label
_atom_site_type_symbol
_atom_site_fract_x
_atom_site_fract_y
_atom_site_fract_z
O1	O	1.186958	0.116548	0.079145
O2	O	1.686958	0.616548	0.579145
O3	O	0.926558	0.130510	0.079149
O4	O	1.426558	0.630510	0.579149
O5	O	1.063728	-0.006670	0.079144
O6	O	1.563728	0.493330	0.579144
O7	O	1.049788	0.253728	0.079150
O8	O	1.549788	0.753728	0.579150
O9	O	1.063711	-0.006678	-0.079177
O10	O	1.563711	0.493322	0.420823
O11	O	0.926541	0.130502	-0.079172
O12	O	1.426541	0.630502	0.420828
O13	O	1.186941	0.116540	-0.079176
O14	O	1.686941	0.616540	0.420824
Zn15	Zn	1.056739	0.123519	-0.104311
Zn16	Zn	1.556739	0.623519	0.395689
Zn17	Zn	1.056760	0.123530	0.104284
Zn18	Zn	1.556760	0.623530	0.604284
O19	O	1.049771	0.253720	-0.079172
O20	O	1.549771	0.753720	0.420828
C21	C	0.893225	0.129882	-0.000011
C22	C	1.393225	0.629882	0.499989
C23	C	0.793927	0.128013	-0.000009
C24	C	1.293927	0.628013	0.499991
C25	C	0.747274	0.127128	-0.086311
C26	C	1.247274	0.627128	0.413689
C27	C	0.653975	0.125357	-0.086312
C28	C	1.153975	0.625357	0.413688
C29	C	0.607331	0.124477	-0.000010
C30	C	1.107331	0.624477	0.499990
C31	C	0.653992	0.125360	0.086298
C32	C	1.153992	0.625360	0.586298
C33	C	0.747289	0.127124	0.086298
C34	C	1.247289	0.627124	0.586298
C35	C	0.459530	0.121684	0.086292
C36	C	0.959530	0.621684	0.586292
C37	C	0.366225	0.119922	0.086292
C38	C	0.866225	0.619922	0.586292
C39	C	0.366215	0.119917	-0.086319
C40	C	0.866215	0.619917	0.413681
C41	C	0.459513	0.121682	-0.086319
C42	C	0.959513	0.621682	0.413681
C43	C	0.506167	0.122565	-0.000010
C44	C	1.006167	0.622565	0.499990
C45	C	1.063093	-0.039999	-0.000015
C46	C	1.563093	0.460001	0.499985
C47	C	1.061215	-0.139295	-0.000011
C48	C	1.561215	0.360705	0.499989
C49	C	1.220274	0.117167	-0.000014
C50	C	1.720274	0.617167	0.499986
C51	C	1.319571	0.119037	-0.000010
C52	C	1.819571	0.619037	0.499990
C53	C	1.134633	-0.577578	-0.000012
C54	C	1.634633	-0.077578	0.499988
C55	C	1.136391	-0.484278	-0.000019
C56	C	1.636391	0.015722	0.499981
C57	C	1.055798	-0.427057	-0.000014
C58	C	1.555798	0.072943	0.499986
C59	C	0.973443	-0.463140	-0.000013
C60	C	1.473443	0.036860	0.499987
C61	C	0.971686	-0.556439	-0.000013
C62	C	1.471686	-0.056439	0.499987
C63	C	0.977110	-0.268677	-0.000009
C64	C	1.477110	0.231323	0.499991
C65	C	0.978866	-0.175372	-0.000007
C66	C	1.478866	0.324628	0.499993
C67	C	1.141814	-0.196516	-0.000014
C68	C	1.641814	0.303484	0.499986
C69	C	1.140057	-0.289815	-0.000015
C70	C	1.640057	0.210185	0.499985
C71	C	1.057702	-0.325892	-0.000012
C72	C	1.557702	0.174108	0.499988
C73	C	1.050406	0.287048	-0.000010
C74	C	1.550406	0.787048	0.499990
C75	C	1.052284	0.386344	-0.000008
C76	C	1.552284	0.886344	0.499992
N77	N	1.056730	0.123512	-0.246672
N78	N	1.556730	0.623512	0.253328
C79	C	1.117488	0.062793	-0.296492
C80	C	1.617488	0.562793	0.203508
C81	C	1.117494	0.062793	-0.396150
C82	C	1.617494	0.562793	0.103850
C83	C	1.056746	0.123515	-0.445985
C84	C	1.556746	0.623515	0.054015
C85	C	0.995982	0.184237	-0.396158
C86	C	1.495982	0.684237	0.103842
C87	C	0.995972	0.184232	-0.296502
C88	C	1.495972	0.684232	0.203498
C89	C	0.996007	0.184243	-0.603873
C90	C	1.496007	0.684243	-0.103873
C91	C	0.996018	0.184249	-0.703535
C92	C	1.496018	0.684249	-0.203535
C93	C	1.117530	0.062804	-0.703520
C94	C	1.617530	0.562804	-0.203520
C95	C	1.117520	0.062799	-0.603864
C96	C	1.617520	0.562799	-0.103864
C97	C	1.056757	0.123522	-0.554044
C98	C	1.556757	0.623522	-0.054044
N99	N	1.056776	0.123531	0.246645
N100	N	1.556776	0.623531	0.746645
H101	H	0.616008	0.124637	0.156567
H102	H	1.116008	0.624637	0.656567
H103	H	1.203447	-0.454909	-0.000023
H104	H	1.703447	0.045091	0.499977
C105	C	0.886520	-0.308361	0.000004
C106	C	1.386520	0.191639	0.500004
H107	H	0.838773	-0.260921	0.000020
H108	H	1.338773	0.239079	0.500020
H109	H	0.882432	-0.344324	-0.055202
H110	H	1.382432	0.155676	0.444798
H111	H	0.882465	-0.344310	0.055226
H112	H	1.382465	0.155690	0.555226
H113	H	0.946524	0.233687	-0.563312
H114	H	1.446524	0.733687	-0.063312
C115	C	0.881103	-0.596125	-0.000000
C116	C	1.381103	-0.096125	0.500000
H117	H	0.833355	-0.548685	0.000013
H118	H	1.333355	-0.048685	0.500013
H119	H	0.877019	-0.632085	-0.055209
H120	H	1.377019	-0.132085	0.444791
H121	H	0.877042	-0.632076	0.055218
H122	H	1.377042	-0.132076	0.555218
C123	C	1.184361	-0.003997	-0.758317
C124	C	1.684361	0.496003	-0.258317
H125	H	1.175660	0.004692	-0.824806
H126	H	1.675660	0.504692	-0.324806
H127	H	1.244064	0.005814	-0.741974
H128	H	1.744064	0.505814	-0.241974
H129	H	1.174575	-0.063711	-0.741991
H130	H	1.674575	0.436289	-0.241991
C131	C	0.602659	0.124391	-0.181245
C132	C	1.102659	0.624391	0.318755
H133	H	0.643799	0.125180	-0.232642
H134	H	1.143799	0.625180	0.267358
H135	H	0.573028	0.071583	-0.184842
H136	H	1.073028	0.571583	0.315158
H137	H	0.559498	0.175829	-0.184825
H138	H	1.059498	0.675829	0.315175
C139	C	1.223284	-0.640517	-0.000014
C140	C	1.723284	-0.140517	0.499986
H141	H	1.210446	-0.701251	-0.000004
H142	H	1.710446	-0.201251	0.499996
H143	H	1.257041	-0.629574	-0.055225
H144	H	1.757041	-0.129574	0.444775
H145	H	1.257052	-0.629563	0.055203
H146	H	1.757052	-0.129563	0.555203
H147	H	0.785244	0.127851	-0.156589
H148	H	1.285244	0.627851	0.343411
C149	C	1.232403	-0.156836	-0.000031
C150	C	1.732403	0.343164	0.499969
H151	H	1.221910	-0.093076	-0.000044
H152	H	1.721910	0.406924	0.499956
H153	H	1.265602	-0.176461	0.055176
H154	H	1.765602	0.323539	0.555176
H155	H	1.265578	-0.176477	-0.055251
H156	H	1.765578	0.323523	0.444749
C157	C	0.314849	0.119342	-0.181256
C158	C	0.814849	0.619342	0.318744
H159	H	0.252590	0.118277	-0.168898
H160	H	0.752590	0.618277	0.331102
H161	H	0.323502	0.171875	-0.216437
H162	H	0.823502	0.671875	0.283563
H163	H	0.336741	0.067626	-0.216993
H164	H	0.836741	0.567626	0.283007
C165	C	0.798608	0.128104	0.181230
C166	C	1.298608	0.628104	0.681230
H167	H	0.757466	0.127336	0.232629
H168	H	1.257466	0.627336	0.732629
H169	H	0.841770	0.076673	0.184818
H170	H	1.341770	0.576673	0.684818
H171	H	0.828236	0.180919	0.184817
H172	H	1.328236	0.680919	0.684817
H173	H	1.166990	0.013359	-0.563288
H174	H	1.666990	0.513359	-0.063288
H175	H	0.946549	0.233695	-0.744107
H176	H	1.446549	0.733695	-0.244107
H177	H	0.497487	0.122403	-0.156593
H178	H	0.997487	0.622403	0.343407
H179	H	1.205683	-0.336403	-0.000013
H180	H	1.705683	0.163597	0.499987
H181	H	0.913240	-0.128785	-0.000009
H182	H	1.413240	0.371215	0.499991
C183	C	0.929131	0.251005	-0.450970
C184	C	1.429131	0.751005	0.049030
H185	H	0.892931	0.287153	-0.407024
H186	H	1.392931	0.787153	0.092976
H187	H	0.961322	0.288306	-0.489848
H188	H	1.461322	0.788306	0.010152
H189	H	0.891877	0.218737	-0.489844
H190	H	1.391877	0.718737	0.010156
C191	C	0.929142	0.251026	-0.241700
C192	C	1.429142	0.751026	0.258300
H193	H	0.892969	0.287197	-0.285652
H194	H	1.392969	0.787197	0.214348
H195	H	0.891872	0.218787	-0.202837
H196	H	1.391872	0.718787	0.297163
H197	H	0.961359	0.288314	-0.202813
H198	H	1.461359	0.788314	0.297187
C199	C	1.184311	-0.004004	-0.241681
C200	C	1.684311	0.495996	0.258319
H201	H	1.220490	-0.040171	-0.285629
H202	H	1.720490	0.459829	0.214371
H203	H	1.221575	0.028228	-0.202791
H204	H	1.721575	0.528228	0.297209
H205	H	1.152085	-0.041296	-0.202821
H206	H	1.652085	0.458704	0.297179
C207	C	0.314915	0.118975	0.181222
C208	C	0.814915	0.618975	0.681222
H209	H	0.356062	0.119749	0.232624
H210	H	0.856062	0.619749	0.732624
H211	H	0.271764	0.170415	0.184796
H212	H	0.771764	0.670415	0.684796
H213	H	0.285275	0.066169	0.184816
H214	H	0.785275	0.566169	0.684816
C215	C	0.510846	0.122663	0.181230
C216	C	1.010846	0.622663	0.681230
H217	H	0.469705	0.121898	0.232629
H218	H	0.969705	0.621898	0.732629
H219	H	0.554011	0.071235	0.184823
H220	H	1.054011	0.571235	0.684823
H221	H	0.540471	0.175480	0.184812
H222	H	1.040471	0.675480	0.684812
H223	H	0.907823	-0.416544	-0.000014
H224	H	1.407823	0.083456	0.499986
H225	H	1.166967	0.013351	-0.436713
H226	H	1.666967	0.513351	0.063287
