data_functionalizedCrystal
_audit_creation_method	'MofGen! by Chris Wilmer'
_symmetry_space_group_name_H-M	'P1'
_symmetry_Int_Tables_number	1
_symmetry_cell_setting	triclinic
loop_
_symmetry_equiv_pos_as_xyz
  x,y,z
_cell_length_a	23.532350
_cell_length_b	15.995300
_cell_length_c	14.472311
_cell_angle_alpha	90.006905
_cell_angle_beta	90.011737
_cell_angle_gamma	96.851476
loop_
_atom_site_label
_atom_site_type_symbol
_atom_site_fract_x
_atom_site_fract_y
_atom_site_fract_z
O1	O	-0.755649	0.101425	0.076712
O2	O	-0.589836	0.116182	0.076739
O3	O	-0.677290	-0.013127	0.076729
O4	O	-0.668195	0.230733	0.076721
O5	O	-0.677302	-0.013150	-0.076953
O6	O	-0.589848	0.116158	-0.076943
O7	O	-0.755661	0.101401	-0.076970
Cu8	Cu	-0.672755	0.108778	-0.090989
Cu9	Cu	-0.672741	0.108805	0.090758
O10	O	-0.668207	0.230709	-0.076961
C11	C	-0.568624	0.115802	-0.000099
C12	C	-0.505401	0.114695	-0.000088
C13	C	-0.676925	-0.044331	-0.000109
C14	C	-0.675813	-0.137274	-0.000099
C15	C	-0.113366	0.107728	-0.083901
C16	C	-0.053963	0.106675	-0.083905
O17	O	-0.023247	0.106091	-0.155149
N18	N	-0.024246	0.106165	-0.000134
C19	C	-0.053936	0.106700	0.083647
O20	O	-0.023205	0.106170	0.154901
C21	C	-0.113339	0.107748	0.083650
C22	C	-0.143052	0.108265	-0.000127
C23	C	-0.143079	0.108244	-0.167671
C24	C	-0.202479	0.109299	-0.167667
C25	C	-0.232165	0.109837	-0.083893
C26	C	-0.202452	0.109320	-0.000122
C27	C	-0.143029	0.108277	0.167430
C28	C	-0.202436	0.109323	0.167426
C29	C	-0.232149	0.109841	0.083649
C30	C	-0.291537	0.110912	0.083657
N31	N	-0.321254	0.111422	-0.000115
C32	C	-0.291568	0.110884	-0.083890
C33	C	0.070814	0.104500	0.083635
C34	C	0.130216	0.103459	0.083633
C35	C	0.130185	0.103432	-0.083920
C36	C	0.070782	0.104479	-0.083917
C37	C	0.041097	0.105009	-0.000137
C38	C	-0.416310	0.113099	-0.083874
C39	C	-0.475715	0.114157	-0.083862
C40	C	-0.475679	0.114180	0.083690
C41	C	-0.416280	0.113127	0.083679
C42	C	-0.386597	0.112583	-0.000111
O43	O	-0.322291	0.111493	0.154864
O44	O	-0.322307	0.111404	-0.155131
C45	C	-0.673759	-0.307439	-0.000108
C46	C	-0.736028	-0.355442	-0.000116
C47	C	-0.734892	-0.452120	-0.000468
C48	C	-0.671738	-0.474978	-0.000115
C49	C	-0.640850	-0.433591	-0.087697
C50	C	-0.642426	-0.336971	-0.087767
C51	C	-0.641491	-0.336661	0.087004
C52	C	-0.641496	-0.433605	0.088152
C53	C	-0.670592	-0.569664	-0.000123
C54	C	-0.674903	-0.212753	-0.000107
C55	C	0.223128	0.101788	-0.000133
C56	C	0.159907	0.102917	-0.000142
C57	C	-0.668572	0.261913	-0.000121
C58	C	-0.669684	0.354856	-0.000124
N59	N	-0.672732	0.108819	0.218589
N60	N	-0.672769	0.108757	-0.218820
C61	C	-0.672757	0.108777	0.592680
C62	C	-0.626012	0.178042	0.553519
C63	C	-0.625838	0.177878	0.446431
C64	C	-0.672744	0.108799	0.407089
C65	C	-0.659932	0.021471	0.445947
C66	C	-0.659603	0.021866	0.553069
C67	C	-0.732452	0.126058	0.553183
C68	C	-0.732047	0.128060	0.446055
C69	C	-0.672739	0.108805	0.302201
C70	C	-0.672761	0.108765	0.697568
H71	H	-0.499904	0.114582	-0.152087
H72	H	-0.581534	0.166873	0.420816
H73	H	-0.616899	0.005819	0.419122
H74	H	-0.581958	0.167191	0.580449
H75	H	0.046594	0.104901	-0.152136
H76	H	-0.596701	-0.304304	-0.091498
H77	H	-0.633495	0.243177	0.579293
H78	H	-0.741768	0.192306	0.420674
H79	H	-0.767237	0.075547	0.578510
H80	H	-0.616072	0.006593	0.578064
H81	H	-0.633445	0.242801	0.420160
H82	H	0.154366	0.102992	-0.152134
H83	H	-0.226603	0.109756	0.235652
H84	H	-0.759067	-0.480184	-0.063625
H85	H	0.046648	0.104940	0.151863
H86	H	-0.392149	0.112664	-0.152104
H87	H	0.154405	0.103051	0.151853
H88	H	-0.761044	-0.337169	0.062688
H89	H	-0.594446	-0.447291	-0.090701
H90	H	-0.226666	0.109716	-0.235887
H91	H	-0.662055	-0.462136	-0.153128
H92	H	-0.595578	-0.304494	0.087847
H93	H	-0.664052	-0.461131	0.152946
H94	H	-0.661985	-0.316326	0.153408
H95	H	-0.118847	0.107854	0.235651
H96	H	-0.744806	0.188354	0.580211
H97	H	-0.768448	0.080865	0.419272
H98	H	-0.692364	-0.031209	0.578972
H99	H	-0.392085	0.112719	0.151897
H100	H	-0.595453	-0.448552	0.093711
H101	H	-0.499860	0.114622	0.151897
H102	H	-0.759163	-0.480784	0.062298
H103	H	-0.118915	0.107805	-0.235894
H104	H	-0.760701	-0.335996	-0.062789
H105	H	-0.664695	-0.318853	-0.153492
H106	H	-0.693078	-0.031293	0.420461
