data_functionalizedCrystal
_audit_creation_method	'MofGen! by Chris Wilmer'
_symmetry_space_group_name_H-M	'P1'
_symmetry_Int_Tables_number	1
_symmetry_cell_setting	triclinic
loop_
_symmetry_equiv_pos_as_xyz
  x,y,z
_cell_length_a	14.971482
_cell_length_b	10.654559
_cell_length_c	13.448316
_cell_angle_alpha	89.996020
_cell_angle_beta	89.993798
_cell_angle_gamma	84.050646
loop_
_atom_site_label
_atom_site_type_symbol
_atom_site_fract_x
_atom_site_fract_y
_atom_site_fract_z
O1	O	1.187844	0.163636	-0.082673
O2	O	1.687844	0.663636	0.417327
O3	O	0.927550	0.183239	-0.082677
O4	O	1.427550	0.683239	0.417323
O5	O	1.063677	-0.009365	-0.082675
O6	O	1.563677	0.490635	0.417325
O7	O	1.051717	0.356241	-0.082675
O8	O	1.551717	0.856241	0.417325
O9	O	1.063660	-0.009377	0.082709
O10	O	1.563660	0.490623	0.582709
O11	O	0.927533	0.183228	0.082707
O12	O	1.427533	0.683228	0.582707
O13	O	1.187826	0.163624	0.082711
O14	O	1.687826	0.663624	0.582711
Cu15	Cu	1.057678	0.173425	0.097809
Cu16	Cu	1.557678	0.673425	0.597809
Cu17	Cu	1.057699	0.173439	-0.097776
Cu18	Cu	1.557699	0.673439	0.402224
O19	O	1.051699	0.356229	0.082708
O20	O	1.551699	0.856229	0.582708
C21	C	0.894212	0.182358	0.000014
C22	C	1.394212	0.682358	0.500014
C23	C	0.794900	0.179733	0.000012
C24	C	1.294900	0.679733	0.500012
C25	C	0.748240	0.178490	0.090164
C26	C	1.248240	0.678490	0.590164
C27	C	0.654928	0.176004	0.090165
C28	C	1.154928	0.676004	0.590165
C29	C	0.608277	0.174770	0.000013
C30	C	1.108277	0.674770	0.500013
C31	C	0.654945	0.176009	-0.090145
C32	C	1.154945	0.676009	0.409855
C33	C	0.748256	0.178486	-0.090145
C34	C	1.248256	0.678486	0.409855
C35	C	0.460455	0.170848	-0.090139
C36	C	0.960455	0.670848	0.409861
C37	C	0.367137	0.168373	-0.090139
C38	C	0.867137	0.668373	0.409861
C39	C	0.367126	0.168367	0.090172
C40	C	0.867126	0.668367	0.590172
C41	C	0.460437	0.170844	0.090172
C42	C	0.960437	0.670844	0.590172
C43	C	0.507098	0.172085	0.000012
C44	C	1.007098	0.672085	0.500012
C45	C	1.062789	-0.056159	0.000015
C46	C	1.562789	0.443841	0.500015
C47	C	1.060156	-0.195574	0.000008
C48	C	1.560156	0.304426	0.500008
C49	C	0.977532	-0.246225	0.000005
C50	C	1.477532	0.253775	0.500005
C51	C	0.975064	-0.377221	0.000012
C52	C	1.475064	0.122779	0.500012
C53	C	1.137851	-0.406903	0.000023
C54	C	1.637851	0.093097	0.500023
C55	C	1.140318	-0.275909	0.000023
C56	C	1.640318	0.224091	0.500023
C57	C	0.883548	-0.229090	-0.000006
C58	C	1.383548	0.270910	0.499994
C59	C	0.881080	-0.360086	0.000001
C60	C	1.381080	0.139914	0.500001
C61	C	1.221165	0.164506	0.000017
C62	C	1.721165	0.664506	0.500017
C63	C	1.320476	0.167131	0.000012
C64	C	1.820476	0.667131	0.500012
C65	C	1.052588	0.403023	0.000016
C66	C	1.552588	0.903023	0.500016
C67	C	1.055221	0.542437	0.000016
C68	C	1.555221	1.042437	0.500016
N69	N	1.057670	0.173414	0.235374
N70	N	1.557670	0.673414	0.735374
N71	N	1.057713	0.173440	-0.235340
N72	N	1.557713	0.673440	0.264660
C73	C	1.117966	0.088164	0.287415
C74	C	1.617966	0.588164	0.787415
C75	C	1.117972	0.088163	0.391518
C76	C	1.617972	0.588163	0.891518
C77	C	1.057685	0.173419	0.443578
C78	C	1.557685	0.673419	0.943578
C79	C	0.997382	0.258673	0.391530
C80	C	1.497382	0.758673	0.891530
C81	C	0.997373	0.258667	0.287428
C82	C	1.497373	0.758667	0.787428
C83	C	0.997407	0.258682	0.608510
C84	C	1.497407	0.758682	1.108510
C85	C	0.997417	0.258690	0.712618
C86	C	1.497417	0.758690	1.212618
C87	C	1.118006	0.088178	0.712600
C88	C	1.618006	0.588178	1.212600
C89	C	1.117997	0.088172	0.608498
C90	C	1.617997	0.588172	1.108498
C91	C	1.057695	0.173428	0.556457
C92	C	1.557695	0.673428	1.056457
H93	H	0.498443	0.171860	-0.163556
H94	H	0.998443	0.671860	0.336444
H95	H	0.786215	0.179506	0.163576
H96	H	1.286215	0.679506	0.663576
H97	H	1.167091	0.018756	0.566111
H98	H	1.667091	0.518756	1.066111
H99	H	0.329157	0.167369	-0.163549
H100	H	0.829157	0.667369	0.336451
H101	H	0.948273	0.328085	0.245057
H102	H	1.448273	0.828085	0.745057
N103	N	0.932362	0.350627	0.447684
N104	N	1.432362	0.850627	0.947684
H105	H	0.943212	0.439782	0.429554
H106	H	1.443212	0.939782	0.929554
H107	H	0.868818	0.335907	0.429567
H108	H	1.368818	0.835907	0.929567
N109	N	1.182975	-0.003803	0.231258
N110	N	1.682975	0.496197	0.731258
H111	H	1.222872	0.044266	0.188046
H112	H	1.722872	0.544266	0.688046
H113	H	1.221111	-0.057799	0.280080
H114	H	1.721111	0.442201	0.780080
H115	H	1.167069	0.018745	0.433890
H116	H	1.667069	0.518745	0.933890
N117	N	1.229433	-0.221274	0.000048
N118	N	1.729433	0.278726	0.500048
H119	H	1.279838	-0.292046	0.000057
H120	H	1.779838	0.207954	0.500057
H121	H	1.234020	-0.167565	-0.061259
H122	H	1.734020	0.332435	0.438741
H123	H	1.167105	0.018759	0.754978
H124	H	1.667105	0.518759	1.254978
N125	N	0.604597	0.174659	0.187398
N126	N	1.104597	0.674659	0.687398
H127	H	0.648381	0.174933	0.244509
H128	H	1.148381	0.674933	0.744509
H129	H	0.559543	0.251875	0.191626
H130	H	1.059543	0.751875	0.691626
N131	N	0.510755	0.172194	0.187403
N132	N	1.010755	0.672194	0.687403
H133	H	0.467038	0.171032	0.244519
H134	H	0.967038	0.671032	0.744519
H135	H	0.556243	0.095433	0.191332
H136	H	1.056243	0.595433	0.691332
H137	H	0.844330	-0.389054	-0.069208
H138	H	1.344330	0.110946	0.430792
H139	H	0.329130	0.167356	0.163582
H140	H	0.829130	0.667356	0.663582
H141	H	0.948300	0.328103	0.566141
H142	H	1.448300	0.828103	1.066141
N143	N	0.604627	0.174666	-0.187378
N144	N	1.104627	0.674666	0.312622
H145	H	0.559143	0.251428	-0.191398
H146	H	1.059143	0.751428	0.308602
H147	H	0.648406	0.175778	-0.244435
H148	H	1.148406	0.675778	0.255565
H149	H	0.786246	0.179500	-0.163556
H150	H	1.286246	0.679500	0.336444
N151	N	1.224308	-0.493550	0.000044
N152	N	1.724308	0.006450	0.500044
H153	H	1.210209	-0.584221	0.000048
H154	H	1.710209	-0.084221	0.500048
H155	H	1.260294	-0.477136	-0.061263
H156	H	1.760294	0.022864	0.438737
N157	N	0.841423	-0.406864	0.094590
N158	N	1.341423	0.093136	0.594590
H159	H	0.777896	-0.366024	0.102726
H160	H	1.277896	0.133976	0.602726
H161	H	0.841119	-0.501506	0.091087
H162	H	1.341119	-0.001506	0.591087
H163	H	0.848123	-0.186966	0.069202
H164	H	1.348123	0.313034	0.569202
H165	H	0.855162	-0.183138	-0.071417
H166	H	1.355162	0.316862	0.428583
N167	N	0.932404	0.350653	0.768773
N168	N	1.432404	0.850653	1.268773
H169	H	0.894200	0.404659	0.720010
H170	H	1.394200	0.904659	1.220010
H171	H	0.892573	0.302489	0.811988
H172	H	1.392573	0.802489	1.311988
