data_functionalizedCrystal
_audit_creation_method	'MofGen! by Chris Wilmer'
_symmetry_space_group_name_H-M	'P1'
_symmetry_Int_Tables_number	1
_symmetry_cell_setting	triclinic
loop_
_symmetry_equiv_pos_as_xyz
  x,y,z
_cell_length_a	15.297475
_cell_length_b	21.295417
_cell_length_c	15.298025
_cell_angle_alpha	99.688613
_cell_angle_beta	110.777163
_cell_angle_gamma	80.332118
loop_
_atom_site_label
_atom_site_type_symbol
_atom_site_fract_x
_atom_site_fract_y
_atom_site_fract_z
Zn1	Zn	1.512550	-0.340537	0.771398
Zn2	Zn	2.012550	0.159463	1.271398
Zn3	Zn	1.485522	-0.461294	0.615847
Zn4	Zn	1.985522	0.038706	1.115847
Zn5	Zn	1.330149	-0.340485	0.589034
Zn6	Zn	1.830149	0.159515	1.089034
Zn7	Zn	1.356971	-0.430204	0.744460
Zn8	Zn	1.856971	0.069796	1.244460
O9	O	1.421298	-0.393130	0.680185
O10	O	1.921298	0.106870	1.180185
O11	O	1.639099	-0.369589	0.773259
O12	O	2.139099	0.130411	1.273259
O13	O	1.442375	-0.458258	0.482145
O14	O	1.942375	0.041742	0.982145
O15	O	1.354430	-0.252406	0.613277
O16	O	1.854430	0.247594	1.113277
O17	O	1.619242	-0.458308	0.658976
O18	O	2.119242	0.041692	1.158976
O19	O	1.488440	-0.252445	0.747259
O20	O	1.988440	0.247555	1.247259
O21	O	1.328223	-0.369500	0.462445
O22	O	1.828223	0.130500	0.962445
O23	O	1.203572	-0.339353	0.587156
O24	O	1.703572	0.160647	1.087156
O25	O	1.400145	-0.405320	0.878179
O26	O	1.900145	0.094680	1.378179
O27	O	1.223278	-0.405270	0.701347
O28	O	1.723278	0.094730	1.201347
O29	O	1.514448	-0.339442	0.897970
O30	O	2.014448	0.160558	1.397970
O31	O	1.468383	-0.545255	0.632855
O32	O	1.968383	-0.045255	1.132855
O33	O	1.373938	-0.522414	0.727347
O34	O	1.873938	-0.022414	1.227347
C35	C	1.179683	-0.368932	0.638420
C36	C	1.679683	0.131068	1.138420
C37	C	1.076323	-0.358594	0.620575
C38	C	1.576323	0.141406	1.120575
C39	C	1.421167	-0.556675	0.680112
C40	C	1.921167	-0.056675	1.180112
C41	C	1.421201	-0.626645	0.680127
C42	C	1.921201	-0.126645	1.180127
C43	C	0.826046	-0.467027	0.807729
C44	C	1.326046	0.032973	1.307729
C45	C	0.923158	-0.476746	0.824493
C46	C	1.423158	0.023254	1.324493
C47	C	0.961454	-0.447209	0.773515
C48	C	1.461454	0.052791	1.273515
C49	C	0.902629	-0.407951	0.705770
C50	C	1.402629	0.092049	1.205770
C51	C	0.805507	-0.398235	0.688999
C52	C	1.305507	0.101765	1.188999
C53	C	0.940914	-0.378417	0.654785
C54	C	1.440914	0.121583	1.154785
C55	C	0.882089	-0.339159	0.587040
C56	C	1.382089	0.160841	1.087040
C57	C	0.784977	-0.329445	0.570273
C58	C	1.284977	0.170555	1.070273
C59	C	0.746681	-0.358982	0.621251
C60	C	1.246681	0.141018	1.121251
C61	C	1.038036	-0.388132	0.671556
C62	C	1.538036	0.111868	1.171556
C63	C	1.017497	-0.319340	0.552826
C64	C	1.517497	0.180660	1.052826
C65	C	0.920385	-0.309622	0.536062
C66	C	1.420385	0.190378	1.036062
C67	C	1.470443	-0.671384	0.630995
C68	C	1.970443	-0.171384	1.130995
C69	C	1.470490	-0.737128	0.631024
C70	C	1.970490	-0.237128	1.131024
C71	C	1.421278	-0.758131	0.680171
C72	C	1.921278	-0.258131	1.180171
C73	C	1.372034	-0.713383	0.729314
C74	C	1.872034	-0.213383	1.229314
C75	C	1.371996	-0.647640	0.729292
C76	C	1.871996	-0.147640	1.229292
N77	N	1.341152	-0.852547	0.673199
N78	N	1.841152	-0.352547	1.173199
N79	N	1.341190	-0.915001	0.673215
N80	N	1.841190	-0.415001	1.173215
C81	C	1.421391	-0.956211	0.680242
C82	C	1.921391	-0.456211	1.180242
N83	N	1.501551	-0.932609	0.687236
N84	N	2.001551	-0.432609	1.187236
N85	N	1.501511	-0.870150	0.687215
N86	N	2.001511	-0.370150	1.187215
C87	C	1.421314	-0.829417	0.680201
C88	C	1.921314	-0.329417	1.180201
C89	C	1.470688	-1.072239	0.631139
C90	C	1.970688	-0.572239	1.131139
C91	C	1.470738	-1.137984	0.631175
C92	C	1.970738	-0.637984	1.131175
C93	C	1.372273	-1.114237	0.729458
C94	C	1.872273	-0.614237	1.229458
C95	C	1.372232	-1.048493	0.729429
C96	C	1.872232	-0.548493	1.229429
C97	C	1.421437	-1.027498	0.680265
C98	C	1.921437	-0.527498	1.180265
C99	C	1.663856	-0.417422	0.722113
C100	C	2.163856	0.082578	1.222113
C101	C	1.767220	-0.427774	0.739981
C102	C	2.267220	0.072226	1.239981
C103	C	1.463303	-0.368919	0.922763
C104	C	1.963303	0.131081	1.422763
C105	C	1.481204	-0.358602	1.026135
C106	C	1.981204	0.141398	1.526135
C107	C	1.421458	-0.228947	0.680282
C108	C	1.921458	0.271053	1.180282
C109	C	1.421526	-0.158982	0.680324
C110	C	1.921526	0.341018	1.180324
C111	C	1.293618	-0.466719	1.276309
C112	C	1.793618	0.033281	1.776309
C113	C	1.276791	-0.476408	1.179184
C114	C	1.776791	0.023592	1.679184
C115	C	1.327893	-0.446957	1.140917
C116	C	1.827893	0.053043	1.640917
C117	C	1.395825	-0.407816	1.199785
C118	C	1.895825	0.092184	1.699785
C119	C	1.412648	-0.398121	1.296918
C120	C	1.912648	0.101879	1.796918
C121	C	1.446923	-0.378360	1.161526
C122	C	1.946923	0.121640	1.661526
C123	C	1.514855	-0.339218	1.220394
C124	C	2.014855	0.160782	1.720394
C125	C	1.531676	-0.329526	1.317518
C126	C	2.031676	0.170474	1.817518
C127	C	1.480574	-0.358976	1.355785
C128	C	1.980574	0.141024	1.855785
C129	C	1.430099	-0.388054	1.064393
C130	C	1.930099	0.111946	1.564393
C131	C	1.549130	-0.319457	1.085002
C132	C	2.049130	0.180543	1.585002
C133	C	1.565957	-0.309768	1.182127
C134	C	2.065957	0.190232	1.682127
C135	C	1.379447	-0.417259	1.438548
C136	C	1.879447	0.082741	1.938548
C137	C	1.361544	-0.427574	1.335175
C138	C	1.861544	0.072426	1.835175
H139	H	1.085923	-0.420096	0.726715
H140	H	1.585923	0.079904	1.226715
H141	H	0.872476	-0.277658	0.480903
H142	H	1.372476	0.222342	0.980903
O143	O	1.518170	-0.780652	0.583201
O144	O	2.018170	-0.280652	1.083201
C145	C	1.454854	-0.819409	0.513947
C146	C	1.954854	-0.319409	1.013947
H147	H	1.390047	-0.818967	0.534537
H148	H	1.890047	-0.318967	1.034537
H149	H	1.490602	-0.870656	0.508044
H150	H	1.990602	-0.370656	1.008044
H151	H	1.432717	-0.799946	0.443262
H152	H	1.932717	-0.299946	0.943262
H153	H	1.331967	-0.730488	0.769332
H154	H	1.831967	-0.230488	1.269332
H155	H	1.510758	-1.055144	0.591110
H156	H	2.010758	-0.555144	1.091110
H157	H	1.510842	-1.174411	0.591168
H158	H	2.010842	-0.674411	1.091168
H159	H	1.332208	-1.131337	0.769480
H160	H	1.832208	-0.631337	1.269480
O161	O	1.518333	-0.651099	0.583235
O162	O	2.018333	-0.151099	1.083235
C163	C	1.561788	-0.704690	0.539859
C164	C	2.061788	-0.204690	1.039859
H165	H	1.571594	-0.748057	0.578519
H166	H	2.071594	-0.248057	1.078519
H167	H	1.633351	-0.693976	0.542662
H168	H	2.133351	-0.193976	1.042662
H169	H	1.515561	-0.715372	0.463321
H170	H	2.015561	-0.215372	0.963321
H171	H	1.040527	-0.455124	0.787169
H172	H	1.540527	0.044876	1.287169
H173	H	0.971046	-0.508711	0.879649
H174	H	1.471046	-0.008711	1.379649
H175	H	0.794854	-0.491077	0.849223
H176	H	1.294854	0.008923	1.349223
O177	O	1.324075	-0.604263	0.777032
O178	O	1.824075	-0.104263	1.277032
C179	C	1.280671	-0.636894	0.820443
C180	C	1.780671	-0.136894	1.320443
H181	H	1.270912	-0.687256	0.781816
H182	H	1.770912	-0.187256	1.281816
H183	H	1.209089	-0.609621	0.817632
H184	H	1.709089	-0.109621	1.317632
H185	H	1.326911	-0.640191	0.896984
H186	H	1.826911	-0.140191	1.396984
H187	H	0.667606	-0.351070	0.607607
H188	H	1.167606	0.148930	1.107607
O189	O	1.324305	-1.005116	0.777160
O190	O	1.824305	-0.505116	1.277160
C191	C	1.280896	-1.037749	0.820565
C192	C	1.780896	-0.537749	1.320565
H193	H	1.271140	-1.088111	0.781936
H194	H	1.771140	-0.588111	1.281936
H195	H	1.209313	-1.010476	0.817749
H196	H	1.709313	-0.510476	1.317749
H197	H	1.327130	-1.041046	0.897107
H198	H	1.827130	-0.541046	1.397107
H199	H	0.737082	-0.297486	0.515101
H200	H	1.237082	0.202514	1.015101
O201	O	1.598918	-0.290880	1.047960
O202	O	2.098918	0.209120	1.547960
C203	C	1.695700	-0.311560	1.087678
C204	C	2.195700	0.188440	1.587678
H205	H	1.709828	-0.328909	1.158523
H206	H	2.209828	0.171091	1.658523
H207	H	1.738014	-0.269976	1.098223
H208	H	2.238014	0.230024	1.598223
H209	H	1.717518	-0.352517	1.038406
H210	H	2.217518	0.147483	1.538406
H211	H	1.374782	-0.419920	1.016470
H212	H	1.874782	0.080080	1.516470
O213	O	1.054781	-0.290746	0.503274
O214	O	1.554781	0.209254	1.003274
C215	C	1.100486	-0.338144	0.452785
C216	C	1.600486	0.161856	0.952785
H217	H	1.120668	-0.384076	0.487964
H218	H	1.620668	0.115924	0.987964
H219	H	1.166647	-0.320561	0.452188
H220	H	1.666647	0.179439	0.952188
H221	H	1.051105	-0.348122	0.377378
H222	H	1.551105	0.151878	0.877378
O223	O	1.311474	-0.456469	1.046557
O224	O	1.811474	0.043531	1.546557
C225	C	1.240548	-0.497323	1.002803
C226	C	1.740548	0.002677	1.502803
H227	H	1.237169	-0.527199	1.056508
H228	H	1.737169	-0.027199	1.556508
H229	H	1.257342	-0.530514	0.942672
H230	H	1.757342	-0.030514	1.442672
H231	H	1.169782	-0.467293	0.973847
H232	H	1.669782	0.032707	1.473847
H233	H	1.221487	-0.508283	1.131261
H234	H	1.721487	-0.008283	1.631261
O235	O	1.244091	-0.495293	1.313639
O236	O	1.744091	0.004707	1.813639
C237	C	1.273487	-0.478325	1.411985
C238	C	1.773487	0.021675	1.911985
H239	H	1.347575	-0.463580	1.437664
H240	H	1.847575	0.036420	1.937664
H241	H	1.273518	-0.521153	1.447788
H242	H	1.773518	-0.021153	1.947788
H243	H	1.223139	-0.436522	1.430030
H244	H	1.723139	0.063478	1.930030
O245	O	1.597595	-0.291417	1.374588
O246	O	2.097595	0.208583	1.874588
C247	C	1.573209	-0.229011	1.347389
C248	C	2.073209	0.270989	1.847389
H249	H	1.525245	-0.231167	1.270690
H250	H	2.025245	0.268833	1.770690
H251	H	1.639775	-0.207840	1.355676
H252	H	2.139775	0.292160	1.855676
H253	H	1.534889	-0.197563	1.393803
H254	H	2.034889	0.302437	1.893803
H255	H	1.621268	-0.277898	1.230071
H256	H	2.121268	0.222102	1.730071
H257	H	1.494275	-0.351092	1.434872
H258	H	1.994275	0.148908	1.934872
