data_functionalizedCrystal
_audit_creation_method	'MofGen! by Chris Wilmer'
_symmetry_space_group_name_H-M	'P1'
_symmetry_Int_Tables_number	1
_symmetry_cell_setting	triclinic
loop_
_symmetry_equiv_pos_as_xyz
  x,y,z
_cell_length_a	30.711293
_cell_length_b	30.706025
_cell_length_c	30.700862
_cell_angle_alpha	120.000049
_cell_angle_beta	90.000305
_cell_angle_gamma	59.983279
loop_
_atom_site_label
_atom_site_type_symbol
_atom_site_fract_x
_atom_site_fract_y
_atom_site_fract_z
O1	O	-0.298559	-0.384231	-0.012980
O2	O	-0.235273	-0.295031	0.012880
O3	O	-0.235239	-0.384229	-0.076322
O4	O	-0.298593	-0.295034	0.076221
O5	O	-0.307687	-0.311778	-0.076313
O6	O	-0.307722	-0.222580	0.012889
O7	O	-0.371007	-0.311780	-0.012971
Cu8	Cu	-0.345980	-0.260565	-0.000040
Cu9	Cu	-0.260301	-0.346246	-0.000051
O10	O	-0.371042	-0.222583	0.076231
C11	C	-0.110241	0.007429	0.039176
C12	C	-0.136559	-0.018656	0.039547
C13	C	-0.031366	-0.071446	0.039179
C14	C	-0.057804	-0.097411	0.039549
C15	C	-0.110216	-0.071444	0.039181
C16	C	-0.057829	-0.018657	0.039545
C17	C	-0.158445	0.183349	0.024886
C18	C	-0.183279	0.233174	0.020846
C19	C	-0.235216	0.258168	0.018819
C20	C	-0.262141	0.312185	0.014429
C21	C	-0.262319	0.233336	0.020837
C22	C	-0.237488	0.183520	0.024884
C23	C	-0.185549	0.158526	0.026909
C24	C	-0.237916	-0.133888	0.024905
C25	C	-0.262899	-0.162752	0.020870
C26	C	-0.235941	-0.216724	0.018843
C27	C	-0.263021	-0.248029	0.014459
C28	C	-0.183997	-0.241829	0.020858
C29	C	-0.159018	-0.212961	0.024903
C30	C	-0.185983	-0.158988	0.026923
C31	C	0.158801	-0.133894	0.024896
C32	C	0.212660	-0.162763	0.020852
C33	C	0.239690	-0.216736	0.018827
C34	C	0.298088	-0.248042	0.014439
C35	C	0.212860	-0.241839	0.020842
C36	C	0.159003	-0.212970	0.024884
C37	C	0.131976	-0.158993	0.026916
C38	C	-0.158625	0.104505	0.031292
C39	C	-0.137164	0.061446	0.034788
C40	C	0.027030	-0.102747	0.034793
C41	C	0.073577	-0.127696	0.031299
C42	C	-0.137301	-0.102745	0.034797
C43	C	-0.158892	-0.127693	0.031305
C44	C	-0.450492	-0.390785	-0.018865
C45	C	-0.507940	-0.360205	-0.015162
C46	C	-0.424057	-0.364815	-0.019230
C47	C	-0.371613	-0.469667	-0.018875
C48	C	-0.344723	-0.523429	-0.015183
C49	C	-0.345297	-0.443578	-0.019240
C50	C	-0.371644	-0.390783	-0.018864
C51	C	-0.344787	-0.360202	-0.015161
C52	C	-0.424026	-0.443579	-0.019241
C53	C	-0.110047	-0.535723	-0.503977
C54	C	-0.057624	-0.588516	-0.530318
C55	C	-0.110048	-0.535723	-0.425101
C56	C	-0.057624	-0.588516	-0.451562
C57	C	-0.031168	-0.614604	-0.503986
C58	C	-0.136383	-0.509755	-0.451553
C59	C	-0.237822	-0.393669	-0.552126
C60	C	-0.262826	-0.364628	-0.576949
C61	C	-0.235873	-0.389555	-0.628898
C62	C	-0.262978	-0.358064	-0.655813
C63	C	-0.183917	-0.443528	-0.656025
C64	C	-0.158920	-0.472569	-0.631204
C65	C	-0.185875	-0.447637	-0.579252
C66	C	0.159043	-0.790545	-0.631770
C67	C	0.212909	-0.840376	-0.656777
C68	C	0.239933	-0.865372	-0.629829
C69	C	0.298338	-0.919396	-0.656935
C70	C	0.213084	-0.840537	-0.577873
C71	C	0.159218	-0.790715	-0.552871
C72	C	0.132201	-0.765719	-0.579825
C73	C	-0.237823	-0.393668	-0.234876
C74	C	-0.262825	-0.364623	-0.181005
C75	C	-0.235872	-0.389550	-0.153987
C76	C	-0.262977	-0.358058	-0.095576
C77	C	-0.183918	-0.443518	-0.180839
C78	C	-0.158918	-0.472559	-0.234708
C79	C	-0.185878	-0.447632	-0.261724
C80	C	-0.158763	-0.479129	-0.552341
C81	C	-0.137154	-0.504231	-0.530889
C82	C	-0.137155	-0.504231	-0.366693
C83	C	-0.158764	-0.479128	-0.320135
C84	C	0.027237	-0.668628	-0.531096
C85	C	0.073793	-0.711691	-0.552708
O86	O	0.469844	-0.311788	-0.012979
O87	O	0.317331	-0.222593	0.012869
O88	O	0.406527	-0.311800	-0.076328
O89	O	0.380647	-0.222580	0.076217
O90	O	0.406550	-0.384243	-0.076324
O91	O	0.317354	-0.295035	0.012873
O92	O	0.469866	-0.384230	-0.012975
Cu93	Cu	0.393612	-0.346247	-0.000051
Cu94	Cu	0.393585	-0.260576	-0.000056
O95	O	0.380670	-0.295022	0.076221
O96	O	-0.370917	0.456545	-0.013002
O97	O	-0.307556	0.329869	0.012853
O98	O	-0.307548	0.329849	-0.076346
O99	O	-0.370924	0.456565	0.076198
O100	O	-0.235127	0.329848	-0.076348
O101	O	-0.235135	0.329868	0.012851
O102	O	-0.298496	0.456545	-0.013004
Cu103	Cu	-0.260203	0.393206	-0.000076
Cu104	Cu	-0.345849	0.393207	-0.000074
O105	O	-0.298503	0.456565	0.076196
O106	O	0.470126	-1.063774	-0.692551
O107	O	0.317597	-0.937080	-0.629197
O108	O	0.406755	-0.937078	-0.629194
O109	O	0.380968	-1.063777	-0.692554
O110	O	0.406757	-0.937080	-0.701640
O111	O	0.317599	-0.937082	-0.701643
O112	O	0.470128	-1.063776	-0.764997
Cu113	Cu	0.393864	-1.000429	-0.739935
Cu114	Cu	0.393861	-1.000427	-0.654259
O115	O	0.380970	-1.063779	-0.765000
O116	O	-0.298596	-0.295030	-0.764570
O117	O	-0.235238	-0.384229	-0.701240
O118	O	-0.235274	-0.295030	-0.701227
O119	O	-0.298560	-0.384230	-0.764583
O120	O	-0.307722	-0.222581	-0.628773
O121	O	-0.307685	-0.311780	-0.628786
O122	O	-0.371044	-0.222581	-0.692115
Cu123	Cu	-0.345980	-0.260565	-0.653835
Cu124	Cu	-0.260302	-0.346245	-0.739521
O125	O	-0.371007	-0.311780	-0.692128
C126	C	-0.450592	-0.137149	0.234779
C127	C	-0.508049	-0.083389	0.261663
C128	C	-0.424137	-0.163237	0.261112
C129	C	-0.371713	-0.216031	0.155895
C130	C	-0.344831	-0.246611	0.098435
C131	C	-0.345377	-0.241999	0.182347
C132	C	-0.371714	-0.216030	0.234771
C133	C	-0.344833	-0.246609	0.261647
C134	C	-0.424136	-0.163238	0.182355
C135	C	0.374767	-0.216006	0.234769
C136	C	0.378475	-0.246578	0.261651
C137	C	0.374383	-0.163214	0.261103
C138	C	0.374766	-0.216017	0.155887
C139	C	0.378472	-0.246603	0.098428
C140	C	0.374382	-0.163226	0.182341
C141	C	0.374743	-0.137133	0.234765
C142	C	0.378425	-0.083375	0.261642
C143	C	0.374406	-0.241979	0.182345
C144	C	-0.371659	0.609253	0.234748
C145	C	-0.344803	0.639837	0.261628
C146	C	-0.424073	0.635224	0.261084
C147	C	-0.371624	0.530362	0.155866
C148	C	-0.344731	0.476593	0.098406
C149	C	-0.424039	0.556452	0.182323
C150	C	-0.450507	0.609252	0.234747
C151	C	-0.507957	0.639834	0.261627
C152	C	-0.345310	0.556454	0.182323
C153	C	0.432913	-0.614317	-0.503984
C154	C	0.433273	-0.588236	-0.530323
C155	C	0.432890	-0.535432	-0.425107
C156	C	0.433249	-0.509471	-0.451565
C157	C	0.432888	-0.535444	-0.503989
C158	C	0.433275	-0.588224	-0.451561
C159	C	0.418692	-0.790245	-0.552141
C160	C	0.414671	-0.840074	-0.576966
C161	C	0.412652	-0.865075	-0.628915
C162	C	0.408282	-0.919097	-0.655831
C163	C	0.414658	-0.840247	-0.656039
C164	C	0.418686	-0.790427	-0.631216
C165	C	0.420703	-0.765426	-0.579265
C166	C	0.418589	-0.473019	-0.631763
C167	C	0.414543	-0.444159	-0.656767
C168	C	0.412498	-0.390183	-0.629818
C169	C	0.408104	-0.358883	-0.656921
C170	C	0.414506	-0.365072	-0.577862
C171	C	0.418561	-0.393936	-0.552863
C172	C	0.420600	-0.447912	-0.579819
C173	C	0.418599	-0.472961	-0.234886
C174	C	0.414547	-0.444085	-0.181015
C175	C	0.412505	-0.390110	-0.153995
C176	C	0.408110	-0.358796	-0.095584
C177	C	0.414508	-0.365009	-0.180844
C178	C	0.418557	-0.393885	-0.234713
C179	C	0.420607	-0.447865	-0.261731
C180	C	0.425066	-0.711400	-0.552351
C181	C	0.428546	-0.668338	-0.530898
C182	C	0.428497	-0.504124	-0.366699
C183	C	0.424997	-0.479169	-0.320141
C184	C	0.428493	-0.504148	-0.531096
C185	C	0.424992	-0.479203	-0.552705
O186	O	0.406520	-0.311722	0.371239
O187	O	0.380652	-0.222545	0.307887
O188	O	0.469843	-0.311739	0.307881
O189	O	0.317328	-0.222528	0.371245
O190	O	0.469864	-0.384193	0.235435
O191	O	0.380673	-0.294999	0.235441
O192	O	0.406541	-0.384176	0.298793
Cu193	Cu	0.393609	-0.346203	0.260502
Cu194	Cu	0.393584	-0.260518	0.346178
O195	O	0.317350	-0.294982	0.298799
C196	C	-0.031313	-0.071565	-0.504016
C197	C	-0.057747	-0.097537	-0.530352
C198	C	-0.110195	0.007326	-0.425134
C199	C	-0.136510	-0.018766	-0.451590
C200	C	-0.110162	-0.071566	-0.504015
C201	C	-0.057781	-0.018765	-0.451591
C202	C	0.158856	-0.134018	-0.552184
C203	C	0.212715	-0.162886	-0.577012
C204	C	0.239750	-0.216870	-0.628963
C205	C	0.298150	-0.248180	-0.655882
C206	C	0.212921	-0.241980	-0.656085
C207	C	0.159065	-0.213107	-0.631259
C208	C	0.132032	-0.159124	-0.579306
C209	C	-0.158251	-0.213635	-0.631786
C210	C	-0.183056	-0.242679	-0.656789
C211	C	-0.234994	-0.217753	-0.629837
C212	C	-0.261892	-0.249243	-0.656938
C213	C	-0.262128	-0.163774	-0.577880
C214	C	-0.237327	-0.134725	-0.552882
C215	C	-0.185382	-0.159665	-0.579841
C216	C	-0.158420	0.183292	-0.234912
C217	C	-0.183258	0.233126	-0.181041
C218	C	-0.235197	0.258125	-0.154017
C219	C	-0.262129	0.312156	-0.095606
C220	C	-0.262295	0.233286	-0.180865
C221	C	-0.237456	0.183453	-0.234734
C222	C	-0.185518	0.158462	-0.261755
C223	C	0.073634	-0.127823	-0.552389
C224	C	0.027085	-0.102871	-0.530933
C225	C	-0.137125	0.061357	-0.366725
C226	C	-0.158591	0.104427	-0.320167
C227	C	-0.137055	-0.103061	-0.531121
C228	C	-0.158492	-0.128165	-0.552728
H229	H	-0.179626	0.003183	0.040147
C230	C	-0.455489	-0.176412	0.322273
C231	C	-0.452821	-0.133739	0.319264
H232	H	-0.473196	-0.158194	0.358174
H233	H	-0.474661	-0.188332	0.300376
H234	H	-0.420415	-0.211645	0.310317
H235	H	-0.487894	-0.098507	0.331216
H236	H	-0.433649	-0.121809	0.341168
C237	C	0.418931	-0.133413	0.322213
C238	C	0.373581	-0.133725	0.319248
H239	H	0.418435	-0.115202	0.358109
H240	H	0.450032	-0.174501	0.300318
H241	H	0.419078	-0.110315	0.310233
H242	H	0.373436	-0.156826	0.331225
H243	H	0.342472	-0.092630	0.341152
C244	C	-0.182113	0.322573	0.061806
C245	C	-0.153504	0.260484	0.018633
H246	H	-0.163734	0.339436	0.060443
H247	H	-0.216595	0.344569	0.060016
H248	H	-0.185405	0.325819	0.094241
H249	H	-0.150216	0.257238	-0.013802
H250	H	-0.119013	0.238481	0.020418
C251	C	0.327713	-0.073192	0.181962
C252	C	0.373571	-0.133757	0.153667
H253	H	0.327215	-0.054999	0.164262
H254	H	0.296957	-0.073413	0.183775
H255	H	0.327872	-0.050085	0.217036
H256	H	0.373409	-0.156865	0.118595
H257	H	0.404335	-0.133538	0.151848
C258	C	0.261110	-0.120704	-0.575777
C259	C	0.242203	-0.135290	-0.547198
H260	H	0.279311	-0.103664	-0.557367
H261	H	0.284916	-0.156982	-0.610263
H262	H	0.231922	-0.091566	-0.579073
H263	H	0.271391	-0.164432	-0.543906
H264	H	0.218395	-0.099007	-0.512702
H265	H	-0.445378	-0.141401	0.161121
C266	C	0.418116	-0.312863	-0.477377
C267	C	0.420766	-0.366334	-0.495757
H268	H	0.419472	-0.295820	-0.442120
H269	H	0.447393	-0.322770	-0.500111
H270	H	0.385679	-0.283730	-0.477427
H271	H	0.453205	-0.395469	-0.495710
H272	H	0.391486	-0.356428	-0.473016
H273	H	-0.036607	0.003179	0.040141
H274	H	0.234871	-0.285787	0.019195
C275	C	0.418997	-0.347684	0.150983
C276	C	0.373627	-0.299327	0.153669
H277	H	0.418515	-0.383086	0.133281
H278	H	0.450085	-0.356884	0.131792
H279	H	0.419157	-0.335879	0.186058
H280	H	0.373469	-0.311131	0.118594
H281	H	0.342532	-0.290126	0.172860
C282	C	-0.083430	-0.547621	-0.229132
C283	C	-0.101809	-0.531876	-0.264221
H284	H	-0.048173	-0.584241	-0.247353
H285	H	-0.083499	-0.515131	-0.199945
H286	H	-0.106151	-0.554180	-0.216307
H287	H	-0.079090	-0.525312	-0.277042
H288	H	-0.101737	-0.564373	-0.293417
H289	H	-0.302258	0.534648	0.161070
H290	H	0.433825	-0.466988	-0.430323
H291	H	-0.162049	-0.285771	0.019215
H292	H	-0.445259	0.534613	0.161080
H293	H	-0.445311	-0.322326	-0.019806
H294	H	-0.302233	-0.465411	-0.019832
H295	H	0.234501	-0.142320	0.019210
C296	C	-0.455490	0.740945	0.322181
C297	C	-0.452791	0.692602	0.319222
H298	H	-0.473231	0.776373	0.358067
H299	H	-0.420430	0.729155	0.310238
H300	H	-0.474650	0.750099	0.300249
H301	H	-0.433628	0.683445	0.341151
H302	H	-0.487858	0.704394	0.331171
C303	C	-0.467374	-0.490623	-0.065894
C304	C	-0.452669	-0.473062	-0.020045
H305	H	-0.485051	-0.508829	-0.066390
H306	H	-0.490656	-0.455384	-0.065716
H307	H	-0.436383	-0.519575	-0.096670
H308	H	-0.483660	-0.444107	0.010731
H309	H	-0.429385	-0.508307	-0.020218
H310	H	0.137048	-0.770199	-0.653721
C311	C	-0.063241	-0.583897	-0.371180
C312	C	-0.028939	-0.617975	-0.422886
H313	H	-0.045529	-0.602081	-0.353478
H314	H	-0.073240	-0.542810	-0.352005
H315	H	-0.094213	-0.583697	-0.372993
H316	H	0.002031	-0.618171	-0.421074
H317	H	-0.018932	-0.659072	-0.442066
H318	H	0.433877	-0.610079	-0.573398
H319	H	0.412848	-0.321127	-0.555922
C320	C	0.434342	-0.669630	-0.457189
C321	C	0.434088	-0.617691	-0.422884
H322	H	0.434848	-0.687821	-0.439485
H323	H	0.403242	-0.657708	-0.467159
H324	H	0.465114	-0.698590	-0.488184
H325	H	0.403314	-0.588729	-0.391890
H326	H	0.465190	-0.629611	-0.412906
H327	H	-0.036493	-0.140029	-0.573424
C328	C	0.415002	-0.525154	-0.186596
C329	C	0.412347	-0.471677	-0.151504
H330	H	0.413649	-0.542191	-0.168378
H331	H	0.385725	-0.515254	-0.199423
H332	H	0.447439	-0.554288	-0.215784
H333	H	0.379908	-0.442541	-0.122318
H334	H	0.441627	-0.481575	-0.138670
C335	C	0.468664	-0.580087	-0.307617
C336	C	0.420846	-0.532293	-0.264585
H337	H	0.470051	-0.616714	-0.325951
H338	H	0.470437	-0.569270	-0.331312
H339	H	0.497936	-0.586695	-0.294770
H340	H	0.391575	-0.525681	-0.277433
H341	H	0.419069	-0.543111	-0.240886
H342	H	-0.036386	-0.610349	-0.573393
C343	C	0.418305	-0.795083	-0.476476
C344	C	0.420913	-0.762769	-0.495039
H345	H	0.419678	-0.778119	-0.441225
H346	H	0.385880	-0.791834	-0.476459
H347	H	0.447597	-0.837210	-0.499153
H348	H	0.391619	-0.720643	-0.472365
H349	H	0.453341	-0.766012	-0.495053
C350	C	-0.335479	0.309777	0.014627
C351	C	-0.319405	0.260808	0.018607
H352	H	-0.370721	0.326732	0.013247
H353	H	-0.334661	0.340596	0.044827
H354	H	-0.311958	0.295210	-0.016898
H355	H	-0.342924	0.275376	0.050134
H356	H	-0.320227	0.229984	-0.011596
H357	H	-0.161970	-0.463811	-0.158836
C358	C	-0.014434	-0.141157	0.086213
C359	C	-0.029132	-0.154748	0.040359
H360	H	0.003261	-0.176552	0.086715
H361	H	0.008832	-0.129372	0.086036
H362	H	-0.045429	-0.108336	0.116986
H363	H	0.001863	-0.187567	0.009586
H364	H	-0.052399	-0.166541	0.040531
H365	H	-0.179451	-0.467262	-0.430306
C366	C	-0.338308	-0.289551	-0.186578
C367	C	-0.319929	-0.305297	-0.151488
H368	H	-0.373562	-0.252927	-0.168355
H369	H	-0.315584	-0.283005	-0.199410
H370	H	-0.338249	-0.322041	-0.215762
H371	H	-0.319984	-0.272808	-0.122306
H372	H	-0.342658	-0.311839	-0.138648
C373	C	-0.238780	-0.351795	-0.283506
C374	C	-0.267451	-0.366272	-0.264577
H375	H	-0.257068	-0.334888	-0.301846
H376	H	-0.235567	-0.322584	-0.254313
H377	H	-0.204262	-0.388098	-0.307204
H378	H	-0.301967	-0.329968	-0.240876
H379	H	-0.270670	-0.395484	-0.293773
C380	C	0.455635	-0.929448	-0.575733
C381	C	0.412462	-0.867360	-0.547152
H382	H	0.454271	-0.946290	-0.557324
H383	H	0.453854	-0.951462	-0.610219
H384	H	0.488061	-0.932696	-0.579032
H385	H	0.380036	-0.864112	-0.543857
H386	H	0.414238	-0.845340	-0.512657
C387	C	0.408478	-0.916699	-0.729199
C388	C	0.412438	-0.867727	-0.713138
H389	H	0.407103	-0.933659	-0.764450
H390	H	0.438677	-0.947513	-0.728371
H391	H	0.376961	-0.902133	-0.705674
H392	H	0.443957	-0.882294	-0.736662
H393	H	0.382236	-0.836907	-0.713971
C394	C	-0.318335	-0.312767	-0.476459
C395	C	-0.267454	-0.366266	-0.495024
H396	H	-0.336626	-0.295854	-0.441208
H397	H	-0.315115	-0.283562	-0.476440
H398	H	-0.337772	-0.322606	-0.499135
H399	H	-0.248015	-0.356426	-0.472350
H400	H	-0.270671	-0.395477	-0.495039
C401	C	0.418265	-0.795598	-0.711866
C402	C	0.420889	-0.763137	-0.661028
H403	H	0.419621	-0.778746	-0.730268
H404	H	0.447552	-0.837713	-0.731250
H405	H	0.385836	-0.792341	-0.708555
H406	H	0.453320	-0.766397	-0.664338
H407	H	0.391599	-0.721012	-0.641639
H408	H	-0.116155	0.163004	0.026536
H409	H	0.420252	-0.516968	-0.653716
C410	C	0.414973	-0.525223	-0.732246
C411	C	0.412329	-0.471756	-0.713870
H412	H	0.413602	-0.542257	-0.767498
H413	H	0.447408	-0.554359	-0.732205
H414	H	0.385695	-0.515309	-0.709500
H415	H	0.441610	-0.481671	-0.736614
H416	H	0.379890	-0.442614	-0.713914
H417	H	-0.161977	-0.463821	-0.698323
C418	C	0.418125	-0.312831	-0.229138
C419	C	0.420769	-0.366300	-0.264227
H420	H	0.419494	-0.295804	-0.247361
H421	H	0.385691	-0.283690	-0.199955
H422	H	0.447404	-0.322739	-0.216308
H423	H	0.391487	-0.356391	-0.277054
H424	H	0.453207	-0.395447	-0.293420
H425	H	0.412842	-0.321056	-0.158840
C426	C	-0.212295	0.062657	-0.371219
C427	C	-0.194648	0.010711	-0.422920
H428	H	-0.248187	0.080855	-0.353522
H429	H	-0.190406	0.050741	-0.352033
H430	H	-0.210268	0.091609	-0.373039
H431	H	-0.196671	-0.018243	-0.421099
H432	H	-0.216543	0.022626	-0.442110
C433	C	0.022562	-0.023362	-0.457221
C434	C	-0.029133	0.010713	-0.422914
H435	H	0.040245	-0.005160	-0.439516
H436	H	0.041751	-0.064441	-0.467196
H437	H	0.020748	-0.023583	-0.488213
H438	H	-0.027319	0.010931	-0.391923
H439	H	-0.048326	0.051803	-0.412931
C440	C	-0.102640	0.227967	-0.186626
C441	C	-0.153471	0.260427	-0.151531
H442	H	-0.084254	0.244826	-0.168408
H443	H	-0.083250	0.185854	-0.199455
H444	H	-0.105947	0.231217	-0.215812
H445	H	-0.150165	0.257174	-0.122347
H446	H	-0.172866	0.302551	-0.138694
H447	H	-0.116135	0.162957	-0.256914
C448	C	0.164061	-0.058734	-0.476521
C449	C	0.129143	-0.074678	-0.495081
H450	H	0.145715	-0.022099	-0.441269
H451	H	0.193249	-0.091152	-0.476506
H452	H	0.176893	-0.052126	-0.499198
H453	H	0.116315	-0.081290	-0.472407
H454	H	0.099945	-0.042252	-0.495092
H455	H	0.234937	-0.285932	-0.698383
C456	C	0.164680	-0.294192	-0.711905
C457	C	0.129579	-0.240711	-0.661067
H458	H	0.146477	-0.311237	-0.730304
H459	H	0.177499	-0.284296	-0.731291
H460	H	0.193864	-0.323320	-0.708597
H461	H	0.100396	-0.211582	-0.664375
H462	H	0.116751	-0.250606	-0.641676
H463	H	-0.115958	-0.233942	-0.653741
H464	H	-0.160959	-0.286630	-0.699090
H465	H	-0.304420	-0.143473	-0.555937
H466	H	-0.259423	-0.090775	-0.510581
C467	C	-0.319996	-0.257426	-0.542268
C468	C	-0.319928	-0.305298	-0.547128
H469	H	-0.355249	-0.220798	-0.523858
H470	H	-0.297270	-0.250887	-0.522889
H471	H	-0.307524	-0.268123	-0.576762
H472	H	-0.332396	-0.294603	-0.512633
H473	H	-0.342662	-0.311837	-0.566506
C474	C	-0.083432	-0.547637	-0.711856
C475	C	-0.101812	-0.531890	-0.661018
H476	H	-0.048174	-0.584256	-0.730259
H477	H	-0.106150	-0.554192	-0.731239
H478	H	-0.083498	-0.515144	-0.708546
H479	H	-0.101750	-0.564381	-0.664329
H480	H	-0.079088	-0.525338	-0.641631
C481	C	-0.318079	0.188624	-0.229154
C482	C	-0.267245	0.156157	-0.264246
H483	H	-0.336470	0.171774	-0.247375
H484	H	-0.314781	0.185374	-0.199972
H485	H	-0.337465	0.230742	-0.216323
H486	H	-0.247857	0.114039	-0.277074
H487	H	-0.270541	0.159400	-0.293438
C488	C	-0.335475	0.309754	-0.098214
C489	C	-0.319391	0.260766	-0.151165
H490	H	-0.370723	0.326719	-0.079881
H491	H	-0.311968	0.295205	-0.081245
H492	H	-0.334650	0.340565	-0.097605
H493	H	-0.320212	0.229952	-0.151773
H494	H	-0.342904	0.275314	-0.168137
H495	H	0.136798	-0.089944	0.026549
C496	C	0.207331	-0.835202	-0.732253
C497	C	0.242420	-0.867666	-0.713879
H498	H	0.225552	-0.852047	-0.767504
H499	H	0.178165	-0.838461	-0.732211
H500	H	0.194486	-0.793081	-0.709506
H501	H	0.255263	-0.909786	-0.736624
H502	H	0.271596	-0.864412	-0.713924
C503	C	0.295732	-0.916987	-0.581163
C504	C	0.242783	-0.868011	-0.548249
H505	H	0.314068	-0.933943	-0.562872
H506	H	0.296359	-0.947802	-0.612811
H507	H	0.312682	-0.902424	-0.590122
H508	H	0.225832	-0.882575	-0.539294
H509	H	0.242154	-0.837190	-0.516592
H510	H	-0.259560	0.163308	0.026529
H511	H	-0.259876	-0.089942	0.026552
C512	C	-0.254967	-0.285783	0.138964
C513	C	-0.287232	-0.299349	0.153679
H514	H	-0.219073	-0.321188	0.121272
H515	H	-0.266922	-0.274000	0.115685
H516	H	-0.257019	-0.252967	0.169957
H517	H	-0.285184	-0.332162	0.122686
H518	H	-0.275273	-0.311141	0.176959
C519	C	0.164798	-0.795875	-0.477387
C520	C	0.129708	-0.763417	-0.495764
H521	H	0.146581	-0.779017	-0.442129
H522	H	0.177638	-0.837989	-0.500121
H523	H	0.193971	-0.792620	-0.477438
H524	H	0.100538	-0.766675	-0.495716
H525	H	0.116861	-0.721292	-0.473023
H526	H	-0.305191	-0.142309	0.019228
H527	H	0.137161	-0.233412	0.026528
C528	C	-0.083533	-0.294023	0.024486
C529	C	-0.101925	-0.240554	0.027118
H530	H	-0.048285	-0.311060	0.025849
H531	H	-0.106261	-0.284115	0.053772
H532	H	-0.083573	-0.323161	-0.007954
H533	H	-0.101889	-0.211414	0.059559
H534	H	-0.079191	-0.250461	-0.002171
