data_functionalizedCrystal
_audit_creation_method	'MofGen! by Chris Wilmer'
_symmetry_space_group_name_H-M	'P1'
_symmetry_Int_Tables_number	1
_symmetry_cell_setting	triclinic
loop_
_symmetry_equiv_pos_as_xyz
  x,y,z
_cell_length_a	14.908571
_cell_length_b	16.625545
_cell_length_c	14.908308
_cell_angle_alpha	93.266139
_cell_angle_beta	89.824947
_cell_angle_gamma	93.279815
loop_
_atom_site_label
_atom_site_type_symbol
_atom_site_fract_x
_atom_site_fract_y
_atom_site_fract_z
Zn1	Zn	1.345266	0.420778	0.587574
Zn2	Zn	1.353838	0.548312	0.437211
Zn3	Zn	1.203583	0.405291	0.428572
Zn4	Zn	1.194866	0.547354	0.578863
O5	O	1.274388	0.480434	0.508055
O6	O	1.472229	0.444578	0.574889
O7	O	1.341141	0.523260	0.310241
O8	O	1.222438	0.294518	0.449693
O9	O	1.478526	0.538277	0.464418
O10	O	1.326533	0.305896	0.566511
O11	O	1.230750	0.418183	0.303893
O12	O	1.076601	0.417254	0.441247
O13	O	1.207581	0.536644	0.705843
O14	O	1.070196	0.521627	0.551665
O15	O	1.318080	0.443649	0.712243
O16	O	1.332689	0.661013	0.455972
O17	O	1.215893	0.660309	0.560043
C18	C	1.040773	0.467657	0.494574
C19	C	0.940831	0.462211	0.488828
C20	C	0.746416	0.560814	0.592855
C21	C	0.652511	0.555700	0.587460
C22	C	0.659113	0.446865	0.472647
C23	C	0.753018	0.451979	0.478042
C24	C	0.796667	0.508957	0.538148
C25	C	0.890574	0.514074	0.543538
C26	C	0.897174	0.405236	0.428730
C27	C	0.803269	0.400122	0.423334
C28	C	1.274298	0.689918	0.508021
C29	C	1.274340	0.779543	0.508041
C30	C	1.274481	1.107732	0.508157
C31	C	1.274439	1.016419	0.508127
C32	C	1.274410	0.943640	0.508099
C33	C	1.274369	0.852322	0.508070
C34	C	1.508915	0.493262	0.521589
C35	C	1.608856	0.498728	0.527356
C36	C	1.260902	0.491767	0.742580
C37	C	1.255155	0.496597	0.842521
C38	C	1.274493	1.270134	0.508120
C39	C	1.274517	1.180517	0.508174
C40	C	1.287873	0.469089	0.274445
C41	C	1.293794	0.464042	0.174515
C42	C	1.359416	0.408817	1.036985
C43	C	1.354019	0.413353	1.130888
C44	C	1.238961	0.510198	1.124232
C45	C	1.244358	0.505663	1.030329
C46	C	1.304588	0.454972	0.986709
C47	C	1.309989	0.450441	0.892804
C48	C	1.194927	0.547282	0.886149
C49	C	1.189530	0.551817	0.980052
H50	H	0.767717	0.353730	0.374401
H51	H	1.359033	0.409167	0.857290
H52	H	1.408463	0.367547	1.001469
H53	H	1.189924	0.551468	1.159764
H54	H	0.623558	0.400472	0.423717
H55	H	0.781956	0.607211	0.641791
H56	H	0.926111	0.560469	0.592478
H57	H	1.398663	0.375767	1.171820
H58	H	1.140490	0.593086	1.015580
H59	H	1.150284	0.584866	0.845204
H60	H	0.938098	0.363011	0.384181
Br61	Br	0.584316	0.626078	0.661713
