data_functionalizedCrystal
_audit_creation_method	'MofGen! by Chris Wilmer'
_symmetry_space_group_name_H-M	'P1'
_symmetry_Int_Tables_number	1
_symmetry_cell_setting	triclinic
loop_
_symmetry_equiv_pos_as_xyz
  x,y,z
_cell_length_a	10.489746
_cell_length_b	10.489741
_cell_length_c	9.198806
_cell_angle_alpha	89.997101
_cell_angle_beta	89.998974
_cell_angle_gamma	84.540238
loop_
_atom_site_label
_atom_site_type_symbol
_atom_site_fract_x
_atom_site_fract_y
_atom_site_fract_z
O1	O	1.694049	0.179997	-0.120794
O2	O	1.322854	0.196883	-0.120818
O3	O	1.516898	0.002842	-0.120797
O4	O	1.500005	0.374037	-0.120815
O5	O	1.516883	0.002841	0.120988
O6	O	1.322839	0.196882	0.120967
O7	O	1.694034	0.179996	0.120991
Cu8	Cu	1.508435	0.188439	0.143056
Cu9	Cu	1.508453	0.188440	-0.142883
O10	O	1.499990	0.374037	0.120970
C11	C	1.275315	0.195606	0.000071
C12	C	1.133686	0.191786	0.000062
C13	C	0.980828	0.066062	0.000089
C14	C	1.058214	0.128919	0.119294
C15	C	1.058185	0.128949	-0.119087
C16	C	0.958723	0.247900	0.119402
C17	C	0.958688	0.247913	-0.119086
C18	C	1.036025	0.310856	0.000148
C19	C	1.515614	-0.044690	0.000095
C20	C	1.511797	-0.186320	0.000092
C21	C	1.388333	-0.254462	0.000073
C22	C	1.446649	-0.346584	0.119290
C23	C	1.446693	-0.346558	-0.119091
C24	C	1.570164	-0.276576	0.119407
C25	C	1.570191	-0.276540	-0.119081
C26	C	1.628597	-0.368635	0.000164
C27	C	1.741573	0.181273	0.000099
C28	C	1.883202	0.185093	0.000098
C29	C	1.501273	0.421569	0.000075
C30	C	1.505091	0.563198	0.000068
N31	N	1.508431	0.188438	0.344170
N32	N	1.508467	0.188431	-0.343997
C33	C	1.589904	0.106606	0.416376
C34	C	1.589924	0.106602	0.583788
H35	H	0.956107	-0.037439	0.000214
O36	O	1.673084	0.022840	0.657697
C37	C	1.650835	-0.103573	0.620648
H38	H	1.601737	-0.103847	0.510106
H39	H	1.586788	-0.143377	0.706292
C40	C	1.839676	-0.187181	0.749581
C41	C	1.779383	-0.187519	0.613805
H42	H	1.918969	-0.238966	0.745366
H43	H	1.854664	-0.102015	0.774547
H44	H	1.786291	-0.220349	0.820937
H45	H	1.832761	-0.154337	0.542456
H46	H	1.764407	-0.272682	0.588827
O47	O	1.425421	0.272076	0.581787
C48	C	1.494756	0.351178	0.493760
H49	H	1.594006	0.301067	0.471091
H50	H	1.504507	0.445534	0.552329
C51	C	1.301349	0.439367	0.376949
C52	C	1.423246	0.377815	0.349097
H53	H	1.257237	0.455804	0.287717
H54	H	1.254635	0.386078	0.436258
H55	H	1.309493	0.517990	0.425761
H56	H	1.415100	0.299187	0.300303
H57	H	1.469957	0.431091	0.289776
O58	O	0.906707	0.307993	-0.239172
C59	C	0.820077	0.412282	-0.196440
H60	H	0.845276	0.444048	-0.082328
H61	H	0.718526	0.382039	-0.196869
C62	C	0.797636	0.485127	-0.443483
C63	C	0.828592	0.524150	-0.303333
H64	H	0.802882	0.554132	-0.509422
H65	H	0.855996	0.414864	-0.472274
H66	H	0.713012	0.459925	-0.443820
H67	H	0.913220	0.549336	-0.302994
H68	H	0.770246	0.594421	-0.274544
H69	H	1.101684	0.078670	0.220082
O70	O	1.065174	0.434441	0.000470
C71	C	1.014029	0.496722	0.126306
H72	H	0.999320	0.422527	0.213766
H73	H	0.918212	0.552108	0.099005
C74	C	1.125529	0.681290	0.075082
C75	C	1.107474	0.590163	0.182505
H76	H	1.183166	0.738933	0.109745
H77	H	1.159983	0.639333	-0.009700
H78	H	1.045675	0.727431	0.052340
H79	H	1.187324	0.544013	0.205231
H80	H	1.073035	0.632115	0.267292
O81	O	1.672956	0.023021	0.342087
C82	C	1.603648	-0.056083	0.254042
H83	H	1.504367	-0.006017	0.231436
H84	H	1.593972	-0.150481	0.312565
C85	C	1.797064	-0.144096	0.137116
C86	C	1.675128	-0.082600	0.109340
H87	H	1.841157	-0.160459	0.047859
H88	H	1.843759	-0.090806	0.196437
H89	H	1.788983	-0.222754	0.185888
H90	H	1.683211	-0.003936	0.060586
H91	H	1.628436	-0.135877	0.050007
O92	O	1.425175	0.271842	0.418428
C93	C	1.345707	0.202919	0.506458
H94	H	1.395354	0.103465	0.529103
H95	H	1.251250	0.193649	0.447902
C96	C	1.258455	0.396650	0.623311
C97	C	1.319437	0.274503	0.651135
H98	H	1.242245	0.440808	0.712553
H99	H	1.311990	0.443087	0.564001
H100	H	1.179748	0.388908	0.574512
H101	H	1.398150	0.282247	0.699918
H102	H	1.265915	0.228069	0.710458
H103	H	1.101634	0.078678	-0.219868
H104	H	0.915437	0.298114	0.220298
H105	H	1.622353	-0.245743	0.220308
H106	H	1.286821	-0.204813	0.000187
H107	H	1.730200	-0.418057	0.000237
H108	H	1.394402	-0.377596	0.220072
H109	H	1.622394	-0.245495	-0.219869
H110	H	1.394444	-0.377522	-0.219889
