data_functionalizedCrystal
_audit_creation_method	'MofGen! by Chris Wilmer'
_symmetry_space_group_name_H-M	'P1'
_symmetry_Int_Tables_number	1
_symmetry_cell_setting	triclinic
loop_
_symmetry_equiv_pos_as_xyz
  x,y,z
_cell_length_a	18.050591
_cell_length_b	18.050589
_cell_length_c	15.296720
_cell_angle_alpha	80.353020
_cell_angle_beta	80.343965
_cell_angle_gamma	90.024227
loop_
_atom_site_label
_atom_site_type_symbol
_atom_site_fract_x
_atom_site_fract_y
_atom_site_fract_z
Zn1	Zn	1.062583	-0.368408	0.510231
Zn2	Zn	1.562583	0.131592	1.010231
Zn3	Zn	1.083989	-0.471122	0.359392
Zn4	Zn	1.583989	0.028878	0.859392
Zn5	Zn	0.959899	-0.346940	0.359382
Zn6	Zn	1.459899	0.153060	0.859382
Zn7	Zn	0.938358	-0.492545	0.510177
Zn8	Zn	1.438358	0.007455	1.010177
O9	O	1.011207	-0.419754	0.434795
O10	O	1.511207	0.080246	0.934795
O11	O	1.169343	-0.382053	0.490249
O12	O	1.669343	0.117947	0.990249
O13	O	1.085501	-0.436700	0.233155
O14	O	1.585501	0.063300	0.733155
O15	O	0.973576	-0.245866	0.379411
O16	O	1.473576	0.254134	0.879411
O17	O	1.185070	-0.457516	0.379428
O18	O	1.685070	0.042484	0.879428
O19	O	1.049018	-0.261639	0.490240
O20	O	1.549018	0.238361	0.990240
O21	O	0.994333	-0.345464	0.233148
O22	O	1.494333	0.154536	0.733148
O23	O	0.853120	-0.366236	0.379358
O24	O	1.353120	0.133764	0.879358
O25	O	0.936863	-0.494027	0.636419
O26	O	1.436863	0.005973	1.136419
O27	O	0.837294	-0.473211	0.490146
O28	O	1.337294	0.026789	0.990146
O29	O	1.028131	-0.402825	0.636459
O30	O	1.528131	0.097175	1.136459
O31	O	1.064614	-0.577886	0.379375
O32	O	1.564614	-0.077886	0.879375
O33	O	0.957619	-0.593625	0.490156
O34	O	1.457619	-0.093625	0.990156
C35	C	0.818262	-0.419719	0.434745
C36	C	1.318262	0.080281	0.934745
C37	C	0.735716	-0.419725	0.434746
C38	C	1.235716	0.080275	0.934746
C39	C	0.544830	-0.361515	0.374637
C40	C	1.044830	0.138485	0.874637
C41	C	0.498573	-0.426092	0.352444
C42	C	0.998573	0.073908	0.852444
C43	C	0.584580	-0.419754	0.434786
C44	C	1.084580	0.080246	0.934786
C45	C	0.483756	-0.355200	0.456977
C46	C	0.983756	0.144800	0.956977
C47	C	0.438589	-0.419775	0.434824
C48	C	0.938589	0.080225	0.934824
C49	C	0.539416	-0.484360	0.412550
C50	C	1.039416	0.015640	0.912550
C51	C	0.524597	-0.413428	0.517121
C52	C	1.024597	0.086572	1.017121
C53	C	0.478358	-0.478056	0.494959
C54	C	0.978358	0.021944	0.994959
C55	C	0.668682	-0.419740	0.434762
C56	C	1.168682	0.080260	0.934762
C57	C	0.354489	-0.419796	0.434848
C58	C	0.854489	0.080204	0.934848
C59	C	1.011119	-0.612704	0.434780
C60	C	1.511119	-0.112704	0.934780
C61	C	1.011146	-0.695253	0.434804
C62	C	1.511146	-0.195253	0.934804
C63	C	0.953014	-0.903287	0.495026
C64	C	1.453014	-0.403287	0.995026
C65	C	0.946646	-0.941003	0.412708
C66	C	1.446646	-0.441003	0.912708
C67	C	1.011217	-0.846385	0.434816
C68	C	1.511217	-0.346385	0.934816
C69	C	1.017619	-0.955752	0.517143
C70	C	1.517619	-0.455752	1.017143
C71	C	1.011283	-0.992373	0.434835
C72	C	1.511283	-0.492373	0.934835
C73	C	1.004820	-0.883008	0.352454
C74	C	1.504820	-0.383008	0.852454
C75	C	1.075816	-0.897761	0.456945
C76	C	1.575816	-0.397761	0.956945
C77	C	1.069483	-0.935446	0.374571
C78	C	1.569483	-0.435446	0.874571
C79	C	1.011176	-0.762285	0.434806
C80	C	1.511176	-0.262285	0.934806
C81	C	1.011325	-1.076469	0.434835
C82	C	1.511325	-0.576469	0.934835
C83	C	1.204905	-0.419789	0.434846
C84	C	1.704905	0.080211	0.934846
C85	C	1.287448	-0.419805	0.434867
C86	C	1.787448	0.080195	0.934867
C87	C	0.977706	-0.453211	0.670086
C88	C	1.477706	0.046789	1.170086
C89	C	0.963430	-0.467468	0.770353
C90	C	1.463430	0.032532	1.270353
C91	C	1.011312	-0.226053	0.434830
C92	C	1.511312	0.273947	0.934830
C93	C	1.011357	-0.143510	0.434845
C94	C	1.511357	0.356490	0.934845
C95	C	1.044620	-0.386374	0.200420
C96	C	1.544620	0.113626	0.700420
C97	C	1.059040	-0.371908	0.100154
C98	C	1.559040	0.128092	0.600154
C99	C	1.113267	-0.317725	1.053072
C100	C	1.613267	0.182275	1.553072
C101	C	1.126685	-0.304331	0.958866
C102	C	1.626685	0.195669	1.458866
C103	C	1.085872	-0.345114	0.911733
C104	C	1.585872	0.154886	1.411733
C105	C	1.031640	-0.399294	0.958815
C106	C	1.531640	0.100706	1.458815
C107	C	1.018225	-0.412693	1.053030
C108	C	1.518225	0.087307	1.553030
C109	C	0.990830	-0.440082	0.911691
C110	C	1.490830	0.059918	1.411691
C111	C	0.936598	-0.494261	0.958773
C112	C	1.436598	0.005739	1.458773
C113	C	0.923185	-0.507658	1.052979
C114	C	1.423185	-0.007658	1.552979
C115	C	0.963997	-0.466875	1.100112
C116	C	1.463997	0.033125	1.600112
C117	C	1.004245	-0.426682	0.817476
C118	C	1.504245	0.073318	1.317476
C119	C	0.909203	-0.521650	0.817434
C120	C	1.409203	-0.021650	1.317434
C121	C	0.895785	-0.535044	0.911640
C122	C	1.395785	-0.035044	1.411640
H123	H	0.573744	-0.312301	0.323716
H124	H	1.073744	0.187699	0.823716
F125	F	0.483125	-0.433106	0.261456
F126	F	0.983125	0.066894	0.761456
H127	H	0.563678	-0.538967	0.393719
H128	H	1.063678	-0.038967	0.893719
F129	F	0.865476	-0.565332	1.103084
F130	F	1.365476	-0.065332	1.603084
F131	F	1.156702	-0.274334	1.103239
F132	F	1.656702	0.225666	1.603239
H133	H	0.903742	-0.888874	0.545871
H134	H	1.403742	-0.388874	1.045871
F135	F	0.838069	-0.592705	0.961759
F136	F	1.338069	-0.092705	1.461759
F137	F	0.540069	-0.406386	0.608086
F138	F	1.040069	0.093614	1.108086
F139	F	0.875280	-0.965961	0.388244
F140	F	1.375280	-0.465961	0.888244
F141	F	0.451935	-0.283834	0.481488
F142	F	0.951935	0.216166	0.981488
F143	F	1.100153	-0.330856	0.811471
F144	F	1.600153	0.169144	1.311471
F145	F	1.133867	-0.954084	0.307954
F146	F	1.633867	-0.454084	0.807954
F147	F	0.865767	-0.565061	0.767277
F148	F	1.365767	-0.065061	1.267277
H149	H	0.953076	-0.477778	1.176822
H150	H	1.453076	0.022222	1.676822
F151	F	0.997694	-0.841866	0.261435
F152	F	1.497694	-0.341866	0.761435
H153	H	0.449586	-0.527364	0.545841
H154	H	0.949586	-0.027364	1.045841
H155	H	1.170843	-0.260220	0.920539
H156	H	1.670843	0.239780	1.420539
F157	F	1.024664	-0.997013	0.608135
F158	F	1.524664	-0.497013	1.108135
F159	F	1.147158	-0.872784	0.481439
F160	F	1.647158	-0.372784	0.981439
H161	H	1.048401	-0.382568	0.779152
H162	H	1.548401	0.117432	1.279152
