data_functionalizedCrystal
_audit_creation_method	'MofGen! by Chris Wilmer'
_symmetry_space_group_name_H-M	'P1'
_symmetry_Int_Tables_number	1
_symmetry_cell_setting	triclinic
loop_
_symmetry_equiv_pos_as_xyz
  x,y,z
_cell_length_a	6.817900
_cell_length_b	17.078472
_cell_length_c	11.168136
_cell_angle_alpha	95.135010
_cell_angle_beta	108.508683
_cell_angle_gamma	99.306020
loop_
_atom_site_label
_atom_site_type_symbol
_atom_site_fract_x
_atom_site_fract_y
_atom_site_fract_z
V1	V	-4.063423	-0.109779	-0.393572
O2	O	-4.071694	0.005263	-0.386211
O3	O	-3.994055	-0.217662	-0.390755
O4	O	-4.040426	-0.108096	-0.565280
O5	O	-4.025001	-0.105061	-0.210478
V6	V	-4.546477	-0.096018	-0.371688
O7	O	-4.325712	-0.139965	-0.441577
O8	O	-4.734385	-0.065832	-0.323683
O9	O	-4.392638	0.011865	-0.374505
O10	O	-4.655603	-0.211060	-0.379050
O11	O	-4.702295	-0.100736	-0.554783
O12	O	-4.346267	-0.097701	-0.199980
C13	C	-3.833133	-0.243961	-0.384514
C14	C	-3.857872	-0.332157	-0.383355
C15	C	-4.051755	-0.377632	-0.389104
C16	C	-4.074992	-0.460502	-0.388023
C17	C	-3.904339	-0.497893	-0.381183
C18	C	-3.710443	-0.452412	-0.375437
C19	C	-3.687213	-0.369545	-0.376528
C20	C	-3.954275	-0.745297	-0.377255
C21	C	-3.977519	-0.828170	-0.376161
C22	C	-4.342068	-0.836254	-0.388749
C23	C	-4.318817	-0.753384	-0.389831
C24	C	-4.124927	-0.707911	-0.384092
N25	N	-3.928085	-0.582599	-0.380074
N26	N	-4.101188	-0.623208	-0.385211
C27	C	-3.892283	-0.104198	-0.607136
C28	C	-3.954625	-0.103536	-0.747507
C29	C	-4.155666	-0.107003	-0.816195
C30	C	-4.220103	-0.106319	-0.961276
C31	C	-4.216901	0.038160	-0.380743
C32	C	-4.171401	0.126354	-0.381910
C33	C	-4.157751	-0.101602	-0.158117
C34	C	-4.074648	-0.102260	-0.017745
H35	H	-4.280077	-0.110473	-0.767593
N36	N	-3.478102	-0.320493	-0.370337
H37	H	-3.373516	-0.356753	-0.365838
H38	H	-3.423119	-0.278225	-0.291886
H39	H	-4.392330	-0.109291	-1.020324
H40	H	-4.499927	-0.873287	-0.393421
H41	H	-4.232869	-0.497525	-0.392707
N42	N	-3.846504	-0.098320	-0.939546
H43	H	-3.758291	-0.095517	-0.997170
H44	H	-3.834105	-0.147819	-0.896748
H45	H	-3.796397	-0.708282	-0.372574
H46	H	-3.830210	-0.100055	-0.796108
N47	N	-3.526371	-0.492738	-0.368040
H48	H	-3.565261	-0.534653	-0.445926
H49	H	-3.490594	-0.519176	-0.288621
N50	N	-4.502900	-0.713061	-0.397256
H51	H	-4.629262	-0.754446	-0.400752
H52	H	-4.538552	-0.686575	-0.476628
N53	N	-4.235832	-0.337312	-0.396488
H54	H	-4.271707	-0.310818	-0.475852
H55	H	-4.196807	-0.295441	-0.318536
H56	H	-3.838556	-0.858614	-0.370621
