data_functionalizedCrystal
_audit_creation_method	'MofGen! by Chris Wilmer'
_symmetry_space_group_name_H-M	'P1'
_symmetry_Int_Tables_number	1
_symmetry_cell_setting	triclinic
loop_
_symmetry_equiv_pos_as_xyz
  x,y,z
_cell_length_a	17.699083
_cell_length_b	26.210047
_cell_length_c	27.732066
_cell_angle_alpha	89.991369
_cell_angle_beta	82.966558
_cell_angle_gamma	90.002540
loop_
_atom_site_label
_atom_site_type_symbol
_atom_site_fract_x
_atom_site_fract_y
_atom_site_fract_z
O1	O	-1.003549	-0.042348	-0.061118
O2	O	-0.783102	-0.042365	-0.069071
O3	O	-0.900165	-0.042358	0.005277
O4	O	-0.886486	-0.042356	-0.135466
O5	O	-0.900142	0.042500	0.005265
O6	O	-0.783079	0.042493	-0.069083
O7	O	-1.003527	0.042510	-0.061130
Cu8	Cu	-0.893301	0.050249	-0.065108
Cu9	Cu	-0.893328	-0.050105	-0.065093
O10	O	-0.886464	0.042502	-0.135478
C11	C	-0.754896	0.000061	-0.068792
C12	C	-0.670885	0.000055	-0.067937
C13	C	-0.621884	0.000055	-0.111578
C14	C	-0.542948	0.000061	-0.110771
C15	C	-0.513014	0.000063	-0.066324
C16	C	-0.562022	0.000064	-0.022680
C17	C	-0.640957	0.000062	-0.023487
C18	C	-0.243687	0.000075	-0.019426
C19	C	-0.164746	0.000076	-0.018623
C20	C	-0.145678	0.000075	-0.106711
C21	C	-0.224613	0.000072	-0.107517
C22	C	-0.273614	0.000076	-0.063874
C23	C	-0.359205	0.000070	-0.064748
C24	C	-0.427424	0.000065	-0.065449
N25	N	-0.893288	0.120833	-0.065117
C26	C	-0.945158	0.473351	-0.032183
C27	C	-0.945174	0.687009	-0.032178
O28	O	-0.989247	0.714634	-0.004176
N29	N	-0.893331	0.713727	-0.065088
C30	C	-0.841477	0.687027	-0.097999
O31	O	-0.797377	0.714655	-0.125988
C32	C	-0.841458	0.473370	-0.098002
C33	C	-0.893309	0.446655	-0.065093
C34	C	-0.997004	0.446636	0.000724
C35	C	-0.997002	0.393224	0.000720
C36	C	-0.945154	0.366528	-0.032190
C37	C	-0.893307	0.393243	-0.065096
C38	C	-0.789601	0.446671	-0.130911
C39	C	-0.789599	0.393253	-0.130908
C40	C	-0.841450	0.366538	-0.097999
C41	C	-0.841457	0.313135	-0.098010
N42	N	-0.893300	0.286417	-0.065100
C43	C	-0.945148	0.313114	-0.032190
C44	C	-0.841492	0.799201	-0.097996
C45	C	-0.841498	0.852615	-0.097996
C46	C	-0.945194	0.852593	-0.032174
C47	C	-0.945191	0.799178	-0.032176
C48	C	-0.893335	0.772483	-0.065086
C49	C	-0.945141	0.200946	-0.032200
C50	C	-0.945136	0.147530	-0.032207
C51	C	-0.841438	0.147556	-0.098028
C52	C	-0.841444	0.200967	-0.098022
C53	C	-0.893299	0.227661	-0.065104
O54	O	-0.797401	0.285478	-0.125993
O55	O	-0.989231	0.285477	-0.004198
C56	C	-0.945160	0.526762	-0.032179
C57	C	-0.893313	0.553477	-0.065086
C58	C	-0.841464	0.526781	-0.097996
C59	C	-0.893319	0.606892	-0.065086
C60	C	-0.945167	0.633588	-0.032176
C61	C	-0.997010	0.606870	0.000734
C62	C	-0.997008	0.553459	0.000731
C63	C	-0.789621	0.553499	-0.130906
C64	C	-0.789628	0.606911	-0.130900
C65	C	-0.841477	0.633607	-0.097990
C66	C	-0.031733	0.000081	-0.061409
C67	C	-0.115743	0.000080	-0.062264
C68	C	-0.899864	0.000070	0.023279
C69	C	-0.898993	0.000065	0.076936
N70	N	-0.893346	0.879311	-0.065086
C71	C	-0.823885	0.000060	0.454279
C72	C	-0.827091	0.000058	0.252607
O73	O	-0.768812	0.000033	0.221564
N74	N	-0.896508	0.000063	0.233230
C75	C	-0.965128	0.000066	0.264275
O76	O	-1.024245	0.000065	0.243166
C77	C	-0.961922	0.000063	0.465945
C78	C	-0.892500	0.000063	0.485319
C79	C	-0.754469	0.000059	0.473654
C80	C	-0.753668	0.000062	0.524068
C81	C	-0.822284	0.000066	0.555109
C82	C	-0.891699	0.000067	0.535734
C83	C	-1.030541	0.000062	0.496988
C84	C	-1.029733	0.000060	0.547409
C85	C	-0.960312	0.000060	0.566783
C86	C	-0.959514	0.000074	0.617189
N87	N	-0.890097	0.000068	0.636567
C88	C	-0.821482	0.000064	0.605526
C89	C	-0.966807	0.000068	0.158394
C90	C	-0.967609	0.000069	0.107977
C91	C	-0.829571	0.000060	0.096313
C92	C	-0.828770	0.000063	0.146731
C93	C	-0.897390	0.000062	0.177771
C94	C	-0.819805	0.000072	0.711402
C95	C	-0.819011	0.000077	0.761822
C96	C	-0.957048	0.000083	0.773481
C97	C	-0.957843	0.000080	0.723065
C98	C	-0.889216	0.000073	0.692027
O99	O	-1.017761	0.000093	0.648261
O100	O	-0.762373	0.000054	0.626645
C101	C	-0.824686	0.000056	0.403864
C102	C	-0.894101	0.000057	0.384489
C103	C	-0.962717	0.000061	0.415530
C104	C	-0.894903	0.000058	0.334072
C105	C	-0.826288	0.000055	0.303032
C106	C	-0.756871	0.000049	0.322409
C107	C	-0.756071	0.000053	0.372824
C108	C	-1.032134	0.000066	0.396153
C109	C	-1.032929	0.000064	0.345737
C110	C	-0.964314	0.000060	0.314697
C111	C	-0.886762	0.000075	0.846520
C112	C	-0.887626	0.000081	0.792862
H113	H	-0.987364	0.222674	-0.005394
H114	H	-0.680853	0.000061	0.012050
H115	H	-1.087071	0.000062	0.481223
H116	H	-0.503054	0.000061	-0.146308
N117	N	-0.745793	0.000068	0.677924
H118	H	-0.715482	-0.031388	0.684154
H119	H	-0.715540	0.031547	0.684160
N120	N	-1.001119	0.881392	0.003322
H121	H	-0.993249	0.919282	-0.001674
H122	H	-0.992770	0.872053	0.037606
H123	H	-0.537644	0.000073	0.013510
N124	N	-0.733697	0.524716	-0.166409
H125	H	-0.762366	0.502559	-0.187791
H126	H	-0.700406	0.502580	-0.147938
N127	N	-0.682860	0.000042	0.288928
H128	H	-0.652538	0.031497	0.295144
H129	H	-0.693966	0.000021	0.254064
H130	H	-0.140378	0.000078	0.017574
N131	N	-1.001066	0.118716	0.003287
H132	H	-1.033909	0.143736	0.024136
H133	H	-0.972342	0.096550	0.024633
N134	N	-0.733671	0.364462	-0.166408
H135	H	-0.741532	0.326570	-0.161419
H136	H	-0.680048	0.373802	-0.160864
H137	H	-1.014372	0.000088	0.707291
N138	N	-0.296531	0.000082	0.027644
H139	H	-0.265589	0.000083	0.055922
H140	H	-0.329703	-0.031374	0.029237
H141	H	-1.039222	0.371476	0.027519
H142	H	-1.085613	0.000057	0.572680
N143	N	-0.678792	0.000066	0.544961
H144	H	-0.635453	0.000063	0.517641
H145	H	-0.675451	-0.031391	0.565631
N146	N	-0.744132	0.000082	0.782718
H147	H	-0.700788	0.000079	0.755400
H148	H	-0.740794	-0.031373	0.803390
N149	N	-0.256899	0.000063	-0.155456
H150	H	-0.213878	0.000064	-0.182981
H151	H	-0.289235	0.031519	-0.157716
H152	H	-0.747378	0.468415	-0.157708
H153	H	-1.039225	0.468367	0.027525
H154	H	-1.022689	0.000068	0.183663
H155	H	-0.698591	0.000054	0.448385
N156	N	-1.031052	0.000092	0.806965
H157	H	-1.020004	0.000092	0.841843
H158	H	-1.061337	-0.031366	0.800708
H159	H	-1.089464	0.000068	0.329968
N160	N	-1.001116	0.770366	0.003318
H161	H	-1.033961	0.795388	0.024163
H162	H	-0.972392	0.748204	0.024667
H163	H	-1.088010	0.000069	0.421421
H164	H	-0.699540	0.000053	0.388593
H165	H	-0.799284	0.874363	-0.124799
N166	N	-0.785525	0.229789	-0.133515
H167	H	-0.814194	0.251957	-0.154891
H168	H	-0.752692	0.204741	-0.154333
H169	H	-0.799263	0.777469	-0.124796
H170	H	-0.772241	0.000065	0.162502
H171	H	-1.024138	0.000077	0.092207
N172	N	-0.654167	0.000047	-0.159518
H173	H	-0.611144	0.000049	-0.187041
H174	H	-0.686503	0.031503	-0.161777
H175	H	-0.799225	0.125812	-0.124824
H176	H	-0.105772	0.000075	-0.142247
H177	H	-1.039230	0.531711	0.027528
H178	H	-1.039230	0.628615	0.027529
N179	N	-0.755563	0.000060	0.062829
H180	H	-0.766611	0.000061	0.027951
H181	H	-0.725292	-0.031402	0.069096
N182	N	-0.733697	0.635722	-0.166396
H183	H	-0.700850	0.610700	-0.187241
H184	H	-0.700457	0.657876	-0.147910
