data_functionalizedCrystal
_audit_creation_method	'MofGen! by Chris Wilmer'
_symmetry_space_group_name_H-M	'P1'
_symmetry_Int_Tables_number	1
_symmetry_cell_setting	triclinic
loop_
_symmetry_equiv_pos_as_xyz
  x,y,z
_cell_length_a	16.992694
_cell_length_b	23.532407
_cell_length_c	15.455313
_cell_angle_alpha	92.643560
_cell_angle_beta	87.142206
_cell_angle_gamma	86.758451
loop_
_atom_site_label
_atom_site_type_symbol
_atom_site_fract_x
_atom_site_fract_y
_atom_site_fract_z
O1	O	1.042902	0.118384	-0.072037
O2	O	1.542902	0.618384	0.427963
O3	O	0.814628	0.117059	-0.072062
O4	O	1.314628	0.617059	0.427938
O5	O	0.935648	0.035132	-0.072033
O6	O	1.435648	0.535132	0.427967
O7	O	0.921882	0.200311	-0.072066
O8	O	1.421882	0.700311	0.427934
O9	O	0.928727	0.039796	0.072228
O10	O	1.428727	0.539796	0.572228
O11	O	0.807707	0.121723	0.072198
O12	O	1.307707	0.621723	0.572198
O13	O	1.035981	0.123049	0.072224
O14	O	1.535981	0.623049	0.572224
Cu15	Cu	0.921212	0.122812	0.085383
Cu16	Cu	1.421212	0.622812	0.585383
Cu17	Cu	0.929397	0.117296	-0.085222
Cu18	Cu	1.429397	0.617296	0.414778
O19	O	0.914962	0.204976	0.072194
O20	O	1.414962	0.704976	0.572194
C21	C	0.781968	0.117688	0.000065
C22	C	1.281968	0.617688	0.500065
C23	C	0.694964	0.112604	0.000056
C24	C	1.194964	0.612604	0.500056
C25	C	0.644342	0.161650	0.000047
C26	C	1.144342	0.661650	0.500047
C27	C	0.562592	0.156871	0.000060
C28	C	1.062592	0.656871	0.500060
C29	C	0.531466	0.103045	0.000076
C30	C	1.031466	0.603045	0.500076
C31	C	0.582095	0.053995	0.000088
C32	C	1.082095	0.553995	0.500088
C33	C	0.663843	0.058775	0.000081
C34	C	1.163843	0.558775	0.500081
C35	C	0.288022	0.083234	0.000103
C36	C	0.788022	0.583234	0.500103
C37	C	0.206267	0.078457	0.000107
C38	C	0.706267	0.578457	0.500107
C39	C	0.186770	0.181334	0.000081
C40	C	0.686770	0.681334	0.500081
C41	C	0.268521	0.186109	0.000069
C42	C	0.768521	0.686109	0.500069
C43	C	0.319142	0.137059	0.000085
C44	C	0.819142	0.637059	0.500085
N45	N	0.447905	0.098158	0.000086
N46	N	0.947905	0.598158	0.500086
N47	N	0.402701	0.141946	0.000081
N48	N	0.902701	0.641946	0.500081
C49	C	0.931837	0.016231	0.000100
C50	C	1.431837	0.516231	0.500100
C51	C	0.930782	-0.047038	0.000106
C52	C	1.430782	0.452962	0.500106
C53	C	0.995791	-0.442917	0.000066
C54	C	1.495791	0.057083	0.500066
C55	C	0.994812	-0.502366	0.000059
C56	C	1.494812	-0.002366	0.500059
O57	O	1.055075	-0.536121	0.000034
O58	O	1.555075	-0.036121	0.500034
N59	N	0.922865	-0.528562	0.000052
N60	N	1.422865	-0.028562	0.500052
C61	C	0.851893	-0.495307	0.000042
C62	C	1.351893	0.004693	0.500042
O63	O	0.790607	-0.523048	0.000035
O64	O	1.290607	-0.023048	0.500035
C65	C	0.852873	-0.435859	0.000043
C66	C	1.352873	0.064141	0.500043
C67	C	0.924824	-0.409666	0.000059
C68	C	1.424824	0.090334	0.500059
C69	C	1.067736	-0.416723	0.000081
C70	C	1.567736	0.083277	0.500081
C71	C	1.068714	-0.357278	0.000089
C72	C	1.568714	0.142722	0.500089
C73	C	0.997748	-0.324027	0.000083
C74	C	1.497748	0.175973	0.500083
C75	C	0.925803	-0.350221	0.000067
C76	C	1.425803	0.149779	0.500067
C77	C	0.781902	-0.402605	0.000027
C78	C	1.281902	0.097395	0.500027
C79	C	0.782889	-0.343154	0.000027
C80	C	1.282889	0.156846	0.500027
C81	C	0.854839	-0.316960	0.000043
C82	C	1.354839	0.183040	0.500043
C83	C	0.855814	-0.257525	0.000069
C84	C	1.355814	0.242475	0.500069
N85	N	0.927761	-0.231328	0.000076
N86	N	1.427761	0.268672	0.500076
C87	C	0.998728	-0.264579	0.000083
C88	C	1.498728	0.235421	0.500083
C89	C	0.849841	-0.620151	0.000040
C90	C	1.349841	-0.120151	0.500040
C91	C	0.848860	-0.679598	0.000046
C92	C	1.348860	-0.179598	0.500046
C93	C	0.991779	-0.686653	0.000061
C94	C	1.491779	-0.186653	0.500061
C95	C	0.992759	-0.627205	0.000061
C96	C	1.492759	-0.127205	0.500061
C97	C	0.921788	-0.593955	0.000047
C98	C	1.421788	-0.093955	0.500047
C99	C	1.000777	-0.139740	0.000101
C100	C	1.500777	0.360260	0.500101
C101	C	1.001749	-0.080289	0.000113
C102	C	1.501749	0.419711	0.500113
C103	C	0.858831	-0.073240	0.000093
C104	C	1.358831	0.426760	0.500093
C105	C	0.857858	-0.132685	0.000086
C106	C	1.357858	0.367315	0.500086
C107	C	0.928838	-0.165934	0.000087
C108	C	1.428838	0.334066	0.500087
O109	O	0.795583	-0.223733	0.000090
O110	O	1.295583	0.276267	0.500090
O111	O	1.060004	-0.236831	0.000079
O112	O	1.560004	0.263169	0.500079
C113	C	1.068641	0.122420	0.000095
C114	C	1.568641	0.622420	0.500095
C115	C	1.155645	0.127504	0.000098
C116	C	1.655645	0.627504	0.500098
C117	C	0.918772	0.223877	0.000060
C118	C	1.418772	0.723877	0.500060
C119	C	0.919827	0.287146	0.000048
C120	C	1.419827	0.787146	0.500048
N121	N	0.915462	0.126692	0.205377
N122	N	1.415462	0.626692	0.705377
N123	N	0.935153	0.113412	-0.205216
N124	N	1.435153	0.613412	0.294784
C125	C	0.966893	0.091901	0.250784
C126	C	1.466893	0.591901	0.750784
C127	C	0.962551	0.094840	0.341591
C128	C	1.462551	0.594840	0.841591
C129	C	0.906782	0.132574	0.386989
C130	C	1.406782	0.632574	0.886989
C131	C	0.855345	0.167366	0.341576
C132	C	1.355345	0.667366	0.841576
C133	C	0.859684	0.164424	0.250771
C134	C	1.359684	0.664424	0.750771
C135	C	0.888055	0.145261	0.658566
C136	C	1.388055	0.645261	1.158566
C137	C	0.883722	0.148203	0.749378
C138	C	1.383722	0.648203	1.249378
C139	C	0.990928	0.075676	0.749386
C140	C	1.490928	0.575676	1.249386
C141	C	0.995265	0.072738	0.658579
C142	C	1.495265	0.572738	1.158579
C143	C	0.943825	0.107529	0.613174
C144	C	1.443825	0.607529	1.113174
N145	N	0.902344	0.135581	0.479808
N146	N	1.402344	0.635581	0.979808
N147	N	0.948260	0.104518	0.520356
N148	N	1.448260	0.604518	1.020356
H149	H	0.293858	0.229939	0.000046
H150	H	0.793858	0.729939	0.500046
H151	H	1.012310	0.061176	0.213826
H152	H	1.512310	0.561176	0.713826
H153	H	1.051348	-0.605882	0.000074
H154	H	1.551348	-0.105882	0.500074
H155	H	1.040677	0.042013	0.621617
H156	H	1.540677	0.542013	1.121617
H157	H	0.556745	0.010169	0.000113
H158	H	1.056745	0.510169	0.500113
O159	O	0.712910	0.011073	0.000047
O160	O	1.212910	0.511073	0.500047
C161	C	0.723624	-0.091469	0.000121
C162	C	1.223624	0.408531	0.500121
C163	C	0.667968	-0.037492	0.000136
C164	C	1.167968	0.462508	0.500136
H165	H	0.687310	-0.130746	0.000211
H166	H	1.187310	0.369254	0.500211
H167	H	0.765258	-0.093796	-0.060268
H168	H	1.265258	0.406204	0.439732
H169	H	0.759512	-0.089818	0.060477
H170	H	1.259512	0.410182	0.560477
H171	H	0.632028	-0.039106	-0.060180
H172	H	1.132028	0.460894	0.439820
H173	H	0.626386	-0.035185	0.060565
H174	H	1.126386	0.464815	0.560565
H175	H	0.669678	0.205481	0.000033
H176	H	1.169678	0.705481	0.500033
H177	H	0.723313	-0.423922	0.000009
H178	H	1.223313	0.076078	0.500009
O179	O	0.780848	-0.587918	-0.000077
O180	O	1.280848	-0.087918	0.499923
C181	C	0.662595	-0.566093	-0.074846
C182	C	1.162595	-0.066093	0.425154
C183	C	0.740695	-0.602639	-0.074810
C184	C	1.240695	-0.102639	0.425190
H185	H	0.630117	-0.577974	-0.135271
H186	H	1.130117	-0.077974	0.364729
H187	H	0.624221	-0.574110	-0.014517
H188	H	1.124221	-0.074110	0.485483
H189	H	0.675659	-0.519105	-0.074801
H190	H	1.175659	-0.019105	0.425199
H191	H	0.727704	-0.649639	-0.074886
H192	H	1.227704	-0.149639	0.425114
H193	H	0.779046	-0.594574	-0.135134
H194	H	1.279046	-0.094574	0.364866
H195	H	1.032806	0.047350	0.786363
H196	H	1.532806	0.547350	1.286363
H197	H	0.145546	0.221267	0.000069
H198	H	0.645546	0.721267	0.500069
O199	O	0.176159	0.026125	0.000160
O200	O	0.676159	0.526125	0.500160
C201	C	0.204122	-0.075412	0.000131
C202	C	0.704122	0.424588	0.500131
C203	C	0.238323	-0.016185	0.000096
C204	C	0.738323	0.483815	0.500096
H205	H	0.254366	-0.109636	0.000061
H206	H	0.754366	0.390364	0.500061
H207	H	0.163472	-0.078304	0.060517
H208	H	0.663472	0.421696	0.560517
H209	H	0.169201	-0.082141	-0.060228
H210	H	0.669201	0.417859	0.439772
H211	H	0.273281	-0.009416	0.060415
H212	H	0.773281	0.490584	0.560415
H213	H	0.278930	-0.013321	-0.060330
H214	H	0.778930	0.486679	0.439670
H215	H	0.799269	-0.154012	0.000097
H216	H	1.299269	0.345988	0.500097
H217	H	1.049564	-0.713737	0.000063
H218	H	1.549564	-0.213737	0.500063
H219	H	1.004430	0.066510	0.378560
H220	H	1.504430	0.566510	0.878560
H221	H	1.060342	-0.058966	0.000129
H222	H	1.560342	0.441034	0.500129
O223	O	0.829433	0.184791	0.793445
O224	O	1.329433	0.684791	1.293445
C225	C	0.691559	0.212794	0.821219
C226	C	1.191559	0.712794	1.321219
C227	C	0.752951	0.171316	0.771272
C228	C	1.252951	0.671316	1.271272
H229	H	0.629710	0.201922	0.803297
H230	H	1.129710	0.701922	1.303297
H231	H	0.697233	0.208915	0.893928
H232	H	1.197233	0.708915	1.393928
H233	H	0.702294	0.258283	0.803363
H234	H	1.202294	0.758283	1.303363
H235	H	0.742255	0.125810	0.789056
H236	H	1.242255	0.625810	1.289056
H237	H	0.747262	0.175245	0.698575
H238	H	1.247262	0.675245	1.198575
O239	O	0.838168	0.179145	0.614511
O240	O	1.338168	0.679145	1.114511
C241	C	0.792760	0.275129	0.586760
C242	C	1.292760	0.775129	1.086760
C243	C	0.849313	0.236819	0.636692
C244	C	1.349313	0.736819	1.136692
H245	H	0.801740	0.321766	0.604688
H246	H	1.301740	0.821766	1.104688
H247	H	0.805429	0.266599	0.514048
H248	H	1.305429	0.766599	1.014048
H249	H	0.729198	0.265377	0.604623
H250	H	1.229198	0.765377	1.104623
H251	H	0.912896	0.246549	0.618901
H252	H	1.412896	0.746549	1.118901
H253	H	0.836577	0.245356	0.709391
H254	H	1.336577	0.745356	1.209391
H255	H	0.521379	0.196809	0.000051
H256	H	1.021379	0.696809	0.500051
H257	H	0.809932	0.198088	0.378545
H258	H	1.309932	0.698088	0.878545
H259	H	0.817802	0.192753	0.213802
H260	H	1.317802	0.692753	0.713802
O261	O	0.713871	-0.310939	0.000052
O262	O	1.213871	0.189061	0.500052
C263	C	0.572015	-0.310223	-0.000031
C264	C	1.072015	0.189777	0.499969
C265	C	0.650117	-0.346772	-0.000041
C266	C	1.150117	0.153228	0.499959
H267	H	0.520451	-0.339179	-0.000124
H268	H	1.020451	0.160821	0.499876
H269	H	0.565942	-0.280282	0.060358
H270	H	1.065942	0.219718	0.560358
H271	H	0.571842	-0.284146	-0.060388
H272	H	1.071842	0.215854	0.439612
H273	H	0.650345	-0.372884	0.060275
H274	H	1.150345	0.127116	0.560275
H275	H	0.656160	-0.376676	-0.060469
H276	H	1.156160	0.123324	0.439531
H277	H	0.329228	0.043294	0.000117
H278	H	0.829228	0.543294	0.500117
H279	H	1.058576	-0.166805	0.000099
H280	H	1.558576	0.333195	0.500099
H281	H	1.127304	-0.335957	0.000099
H282	H	1.627304	0.164043	0.500099
H283	H	0.801051	-0.046156	0.000091
H284	H	1.301051	0.453844	0.500091
H285	H	0.790269	-0.700919	0.000047
H286	H	1.290269	-0.200919	0.500047
O287	O	1.136749	-0.448932	0.000129
O288	O	1.636749	0.051068	0.500129
C289	C	1.278608	-0.449636	0.000109
C290	C	1.778608	0.050364	0.500109
C291	C	1.200503	-0.413097	0.000066
C292	C	1.700503	0.086903	0.500066
H293	H	1.330174	-0.420680	0.000039
H294	H	1.830174	0.079320	0.500039
H295	H	1.278884	-0.475682	0.060499
H296	H	1.778884	0.024318	0.560499
H297	H	1.284589	-0.479607	-0.060247
H298	H	1.784589	0.020393	0.439753
H299	H	1.194472	-0.383095	0.060381
H300	H	1.694472	0.116905	0.560381
H301	H	1.200262	-0.387090	-0.060364
H302	H	1.700262	0.112910	0.439636
