data_functionalizedCrystal
_audit_creation_method	'MofGen! by Chris Wilmer'
_symmetry_space_group_name_H-M	'P1'
_symmetry_Int_Tables_number	1
_symmetry_cell_setting	triclinic
loop_
_symmetry_equiv_pos_as_xyz
  x,y,z
_cell_length_a	14.519709
_cell_length_b	15.944551
_cell_length_c	12.996460
_cell_angle_alpha	89.992903
_cell_angle_beta	90.000034
_cell_angle_gamma	83.589442
loop_
_atom_site_label
_atom_site_type_symbol
_atom_site_fract_x
_atom_site_fract_y
_atom_site_fract_z
O1	O	1.223676	0.110109	-0.085435
O2	O	0.955177	0.123076	-0.085467
O3	O	1.096759	-0.005672	-0.085441
O4	O	1.082094	0.238857	-0.085461
O5	O	1.096744	-0.005679	0.085693
O6	O	0.955162	0.123069	0.085667
O7	O	1.223661	0.110102	0.085699
Cu8	Cu	1.089410	0.116585	0.101309
Cu9	Cu	1.089428	0.116593	-0.101077
O10	O	1.082080	0.238849	0.085673
C11	C	0.920810	0.122468	0.000096
C12	C	0.818432	0.120657	0.000084
C13	C	0.443548	0.113990	0.000132
C14	C	0.547853	0.115842	0.000118
C15	C	0.630987	0.117323	0.000107
C16	C	0.735298	0.119175	0.000095
C17	C	1.096142	-0.036970	0.000126
C18	C	1.094317	-0.130219	0.000126
C19	C	1.002196	-0.345209	0.000101
C20	C	1.044967	-0.406168	0.084486
C21	C	1.091015	-0.300950	0.000118
C22	C	1.045002	-0.406144	-0.084239
C23	C	1.087820	-0.465867	0.000106
C24	C	1.133811	-0.360680	0.084572
C25	C	1.133834	-0.360650	-0.084228
C26	C	1.176669	-0.421591	0.000177
C27	C	1.092854	-0.205945	0.000126
C28	C	1.085988	-0.560871	0.000105
C29	C	1.258028	0.110710	0.000133
C30	C	1.360406	0.112521	0.000139
C31	C	1.082696	0.270148	0.000103
C32	C	1.084521	0.363397	0.000096
N33	N	1.089405	0.116578	0.243656
N34	N	1.089441	0.116593	-0.243424
C35	C	1.089426	0.116594	0.663470
C36	C	1.089418	0.116592	0.546665
C37	C	1.089416	0.116587	0.453567
C38	C	1.089406	0.116584	0.336754
H39	H	1.007393	-0.426334	0.155817
H40	H	0.928471	-0.312009	0.000177
O41	O	1.178521	-0.336630	0.169746
C42	C	1.179685	-0.248331	0.168732
H43	H	1.120488	-0.218218	0.118718
H44	H	1.248547	-0.232476	0.136120
C45	C	1.240604	-0.250956	0.340670
C46	C	1.167893	-0.213971	0.279248
H47	H	1.233334	-0.229761	0.408841
H48	H	1.239823	-0.310446	0.341352
H49	H	1.297982	-0.237741	0.313480
H50	H	1.110517	-0.227196	0.306430
H51	H	1.168663	-0.154483	0.278573
O52	O	1.264689	-0.461043	0.000038
C53	C	1.278774	-0.511355	-0.088997
H54	H	1.227262	-0.486401	-0.150953
H55	H	1.268029	-0.579324	-0.069656
C56	C	1.441529	-0.538856	-0.052592
C57	C	1.378265	-0.508202	-0.128691
H58	H	1.502901	-0.536915	-0.077075
H59	H	1.432039	-0.504962	0.007395
H60	H	1.432563	-0.595494	-0.036482
H61	H	1.387224	-0.451562	-0.144790
H62	H	1.387759	-0.542086	-0.188681
O63	O	1.178486	-0.336581	-0.169432
C64	C	1.131437	-0.359501	-0.258230
H65	H	1.056248	-0.366376	-0.238022
H66	H	1.166321	-0.422089	-0.289011
C67	C	1.226837	-0.282259	-0.365762
C68	C	1.134486	-0.290696	-0.340945
H69	H	1.228720	-0.239819	-0.416787
H70	H	1.258538	-0.266820	-0.305938
H71	H	1.255896	-0.334420	-0.391407
H72	H	1.105431	-0.238539	-0.315288
H73	H	1.102780	-0.306125	-0.400767
O74	O	1.000056	-0.430055	-0.169318
C75	C	0.908100	-0.390794	-0.168991
H76	H	0.903676	-0.331404	-0.119593
H77	H	0.860267	-0.436116	-0.136065
C78	C	0.883680	-0.439854	-0.340512
C79	C	0.878247	-0.366906	-0.279847
H80	H	0.865262	-0.425122	-0.408893
H81	H	0.945631	-0.466308	-0.340732
H82	H	0.843819	-0.477615	-0.313062
H83	H	0.918117	-0.329151	-0.307290
H84	H	0.816302	-0.340445	-0.279635
