data_functionalizedCrystal
_audit_creation_method	'MofGen! by Chris Wilmer'
_symmetry_space_group_name_H-M	'P1'
_symmetry_Int_Tables_number	1
_symmetry_cell_setting	triclinic
loop_
_symmetry_equiv_pos_as_xyz
  x,y,z
_cell_length_a	14.044220
_cell_length_b	8.559649
_cell_length_c	7.088929
_cell_angle_alpha	95.344185
_cell_angle_beta	83.222077
_cell_angle_gamma	81.483771
loop_
_atom_site_label
_atom_site_type_symbol
_atom_site_fract_x
_atom_site_fract_y
_atom_site_fract_z
O1	O	-1.219153	-0.396130	-0.158774
O2	O	-0.944182	-0.382376	-0.158823
O3	O	-1.105893	-0.160103	-0.158792
O4	O	-1.057442	-0.618403	-0.158805
O5	O	-1.127509	-0.130326	0.159187
O6	O	-0.965798	-0.352598	0.159156
O7	O	-1.240769	-0.366352	0.159205
Cu8	Cu	-1.105257	-0.356756	0.188215
Cu9	Cu	-1.079694	-0.391972	-0.187832
O10	O	-1.079058	-0.588625	0.159175
C11	C	-0.920113	-0.361466	0.000161
C12	C	-0.816194	-0.343504	0.000142
C13	C	-1.120372	-0.086208	0.000195
C14	C	-1.131301	0.089613	0.000186
C15	C	-1.264837	-0.387263	0.000218
C16	C	-1.368756	-0.405226	0.000224
C17	C	-0.625926	-0.310658	0.000181
C18	C	-0.559019	-0.438064	0.000185
C19	C	-0.453147	-0.419789	0.000207
C20	C	-0.731808	-0.328932	0.000159
C21	C	-1.064578	-0.662521	0.000184
C22	C	-1.053649	-0.838343	0.000180
N23	N	-1.123245	-0.331987	0.452706
N24	N	-1.061715	-0.416730	-0.452324
H25	H	-0.581249	-0.560866	0.000173
C26	C	-0.595899	-0.144771	0.000175
C27	C	-0.488455	-0.126496	0.000181
C28	C	-0.458414	0.039388	0.000165
C29	C	-0.535817	0.186998	0.000143
C30	C	-0.643269	0.168728	0.000138
C31	C	-0.673310	0.002844	0.000154
H32	H	-0.431150	-0.235770	0.000197
H33	H	-0.378871	0.052912	0.000169
H34	H	-0.513579	0.309795	0.000132
H35	H	-0.700573	0.278002	0.000122
H36	H	-0.752853	-0.010680	0.000149
H37	H	-0.997947	-0.504546	0.466018
C38	C	-1.209403	-0.213350	0.563018
C39	C	-1.224281	-0.192888	0.783178
C40	C	-1.310437	-0.074253	0.893489
C41	C	-1.381716	0.023919	0.783640
C42	C	-1.366840	0.003460	0.563467
C43	C	-1.280684	-0.115175	0.453156
H44	H	-1.171514	-0.265563	0.864506
H45	H	-1.321449	-0.059108	1.056476
H46	H	-1.445494	0.111740	0.865299
H47	H	-1.419607	0.076135	0.482139
H48	H	-1.269672	-0.130320	0.290169
H49	H	-0.978807	0.088826	0.000173
C50	C	-1.232420	0.187999	0.000213
C51	C	-1.274506	0.318902	0.165348
C52	C	-1.375622	0.417287	0.165375
C53	C	-1.434653	0.384771	0.000267
C54	C	-1.392567	0.253862	-0.164880
C55	C	-1.291451	0.155477	-0.164907
H56	H	-1.230807	0.342978	0.287581
H57	H	-1.406776	0.514194	0.287628
H58	H	-1.509505	0.457602	0.000287
H59	H	-1.436266	0.229786	-0.287113
H60	H	-1.260297	0.058570	-0.287161
