data_functionalizedCrystal
_audit_creation_method	'MofGen! by Chris Wilmer'
_symmetry_space_group_name_H-M	'P1'
_symmetry_Int_Tables_number	1
_symmetry_cell_setting	triclinic
loop_
_symmetry_equiv_pos_as_xyz
  x,y,z
_cell_length_a	19.188933
_cell_length_b	16.974813
_cell_length_c	16.053811
_cell_angle_alpha	88.912778
_cell_angle_beta	87.428528
_cell_angle_gamma	83.270760
loop_
_atom_site_label
_atom_site_type_symbol
_atom_site_fract_x
_atom_site_fract_y
_atom_site_fract_z
O1	O	0.929536	0.095076	-0.075824
O2	O	1.429536	0.595076	0.424176
O3	O	0.726286	0.108320	-0.076726
O4	O	1.226286	0.608320	0.423274
O5	O	0.833249	-0.013052	-0.068518
O6	O	1.333249	0.486948	0.431482
O7	O	0.822574	0.216448	-0.084032
O8	O	1.322574	0.716448	0.415968
O9	O	0.827361	-0.006398	0.069891
O10	O	1.327361	0.493602	0.569891
O11	O	0.720398	0.114973	0.061683
O12	O	1.220398	0.614973	0.561683
O13	O	0.923648	0.101730	0.062585
O14	O	1.423648	0.601730	0.562585
Zn15	Zn	0.821088	0.109408	0.084109
Zn16	Zn	1.321088	0.609408	0.584109
Zn17	Zn	0.828846	0.100641	-0.098250
Zn18	Zn	1.328846	0.600641	0.401750
O19	O	0.816685	0.223101	0.054377
O20	O	1.316685	0.723101	0.554377
C21	C	0.829789	-0.039087	0.002670
C22	C	1.329789	0.460913	0.502670
C23	C	0.828245	-0.126575	0.008578
C24	C	1.328245	0.373425	0.508578
C25	C	0.697329	0.111217	-0.007494
C26	C	1.197329	0.611217	0.492506
C27	C	0.619819	0.109929	-0.007410
C28	C	1.119819	0.609929	0.492590
C29	C	0.830731	-0.171300	-0.064092
C30	C	1.330731	0.328700	0.435908
C31	C	0.829275	-0.253503	-0.058537
C32	C	1.329275	0.246497	0.441463
C33	C	0.825339	-0.290982	0.019688
C34	C	1.325339	0.209018	0.519688
C35	C	0.822851	-0.246251	0.092364
C36	C	1.322851	0.253749	0.592364
C37	C	0.824301	-0.164048	0.086809
C38	C	1.324301	0.335952	0.586809
C39	C	0.820652	-0.536442	0.044393
C40	C	1.320652	-0.036442	0.544393
C41	C	0.819204	-0.618651	0.049943
C42	C	1.319204	-0.118651	0.549943
C43	C	0.825627	-0.625898	-0.100959
C44	C	1.325627	-0.125898	0.399041
C45	C	0.827081	-0.543694	-0.106507
C46	C	1.327081	-0.043694	0.393493
C47	C	0.824590	-0.498970	-0.033831
C48	C	1.324590	0.001030	0.466169
N49	N	0.823853	-0.375007	0.025368
N50	N	1.323853	0.124993	0.525368
N51	N	0.826070	-0.414945	-0.039512
N52	N	1.326070	0.085055	0.460488
C53	C	0.069731	0.097108	-0.082226
C54	C	0.569731	0.597108	0.417774
C55	C	0.142561	0.098313	-0.082311
C56	C	0.642561	0.598313	0.417689
C57	C	0.175771	0.102547	-0.006905
C58	C	0.675771	0.602547	0.493095
C59	C	0.136147	0.105555	0.068592
C60	C	0.636147	0.605555	0.568592
C61	C	0.063319	0.104341	0.068675
C62	C	0.563319	0.604341	0.568675
N63	N	0.282617	0.152000	0.046093
N64	N	0.782617	0.652000	0.546093
N65	N	0.351800	0.153155	0.046008
N66	N	0.851800	0.653155	0.546008
C67	C	0.395196	0.106202	-0.007151
C68	C	0.895196	0.606202	0.492849
N69	N	0.366794	0.058061	-0.060236
N70	N	0.866794	0.558061	0.439764
N71	N	0.297605	0.056910	-0.060154
N72	N	0.797605	0.556910	0.439846
C73	C	0.254740	0.103863	-0.006987
C74	C	0.754740	0.603863	0.493013
C75	C	0.513782	0.104496	-0.082735
C76	C	1.013782	0.604496	0.417265
C77	C	0.586614	0.105697	-0.082816
C78	C	1.086614	0.605697	0.417184
C79	C	0.580198	0.112946	0.068088
C80	C	1.080198	0.612946	0.568088
C81	C	0.507368	0.111737	0.068168
C82	C	1.007368	0.611737	0.568168
C83	C	0.474165	0.107516	-0.007246
C84	C	0.974165	0.607516	0.492754
C85	C	0.952605	0.098832	-0.006649
C86	C	1.452605	0.598832	0.493351
C87	C	1.030115	0.100120	-0.006739
C88	C	1.530115	0.600120	0.493261
C89	C	0.820145	0.249136	-0.016813
C90	C	1.320145	0.749136	0.483187
C91	C	0.821689	0.336624	-0.022727
C92	C	1.321689	0.836624	0.477273
N93	N	0.815798	0.115390	0.208565
N94	N	1.315798	0.615390	0.708565
C95	C	0.861328	0.063765	0.255750
C96	C	1.361328	0.563765	0.755750
C97	C	0.857634	0.067957	0.342874
C98	C	1.357634	0.567957	0.842874
C99	C	0.808414	0.123779	0.382810
C100	C	1.308414	0.623779	0.882810
C101	C	0.762880	0.175407	0.335618
C102	C	1.262880	0.675407	0.835618
C103	C	0.766571	0.171211	0.248497
C104	C	1.266571	0.671211	0.748497
C105	C	0.792293	0.142088	0.642981
C106	C	1.292293	0.642088	1.142981
C107	C	0.788607	0.146282	0.730109
C108	C	1.288607	0.646282	1.230109
C109	C	0.883360	0.038831	0.737358
C110	C	1.383360	0.538831	1.237358
C111	C	0.887049	0.034643	0.650235
C112	C	1.387049	0.534643	1.150235
C113	C	0.841513	0.086267	0.603051
C114	C	1.341513	0.586267	1.103051
N115	N	0.804639	0.128068	0.471863
N116	N	1.304639	0.628068	0.971863
N117	N	0.845285	0.081975	0.513999
N118	N	1.345285	0.581975	1.013999
N119	N	0.834136	0.094657	0.777294
N120	N	1.334136	0.594657	1.277294
H121	H	0.833940	-0.140792	-0.127791
H122	H	1.333940	0.359208	0.372209
H123	H	0.607237	0.116390	0.129485
H124	H	1.107237	0.616390	0.629485
H125	H	0.486747	0.101056	-0.144141
H126	H	0.986747	0.601056	0.355859
C127	C	0.463788	0.115063	0.151204
C128	C	0.963788	0.615063	0.651204
H129	H	0.493995	0.117764	0.196101
H130	H	0.993995	0.617764	0.696101
H131	H	0.440480	0.068793	0.157480
H132	H	0.940480	0.568793	0.657480
H133	H	0.430009	0.160698	0.151264
H134	H	0.930009	0.660698	0.651264
C135	C	0.814866	-0.659875	0.135995
C136	C	1.314866	-0.159875	0.635995
H137	H	0.813582	-0.621465	0.178483
H138	H	1.313582	-0.121465	0.678483
H139	H	0.854843	-0.697941	0.141721
H140	H	1.354843	-0.197941	0.641721
H141	H	0.773484	-0.685641	0.140871
H142	H	1.273484	-0.185641	0.640871
C143	C	0.818518	-0.287470	0.178412
C144	C	1.318518	0.212530	0.678412
H145	H	0.817238	-0.249057	0.220896
H146	H	1.317238	0.250943	0.720896
H147	H	0.858496	-0.325537	0.184137
H148	H	1.358496	0.174463	0.684137
H149	H	0.777136	-0.313235	0.183295
H150	H	1.277136	0.186765	0.683295
H151	H	0.755216	0.184125	0.604570
H152	H	1.255216	0.684125	1.104570
H153	H	0.827654	-0.662321	-0.160127
H154	H	1.327654	-0.162321	0.339873
H155	H	0.818637	-0.500039	0.103571
H156	H	1.318637	-0.000039	0.603571
C157	C	0.831998	-0.302695	-0.138475
C158	C	1.331998	0.197305	0.361525
H159	H	0.834554	-0.268602	-0.185858
H160	H	1.334554	0.231398	0.314142
H161	H	0.790882	-0.328756	-0.139855
H162	H	1.290882	0.171244	0.360145
H163	H	0.872243	-0.341070	-0.139035
H164	H	1.372243	0.158930	0.360965
C165	C	0.630194	0.102388	-0.165854
C166	C	1.130194	0.602388	0.334146
H167	H	0.678324	0.103708	-0.155104
H168	H	1.178324	0.603708	0.344896
H169	H	0.614338	0.146654	-0.199939
H170	H	1.114338	0.646654	0.300061
H171	H	0.624814	0.054749	-0.193743
H172	H	1.124814	0.554749	0.306257
H173	H	0.822267	-0.127632	0.145984
H174	H	1.322267	0.372368	0.645984
H175	H	0.901410	0.018312	0.223240
H176	H	1.401410	0.518312	0.723240
H177	H	0.927128	-0.010812	0.617721
H178	H	1.427128	0.489188	1.117721
H179	H	0.729495	0.213248	0.210079
H180	H	1.229495	0.713248	0.710079
H181	H	0.174821	0.095865	-0.143783
H182	H	0.674821	0.595865	0.356217
C183	C	0.831403	-0.502472	-0.192555
C184	C	1.331403	-0.002472	0.307445
H185	H	0.832667	-0.540882	-0.235041
H186	H	1.332667	-0.040882	0.264959
H187	H	0.872778	-0.476702	-0.197445
H188	H	1.372778	0.023298	0.302555
H189	H	0.791417	-0.464409	-0.198270
H190	H	1.291417	0.035591	0.301730
H191	H	0.031064	0.106797	0.130147
H192	H	0.531064	0.606797	0.630147
H193	H	0.894707	0.025919	0.381292
H194	H	1.394707	0.525919	0.881292
C195	C	0.734425	0.207647	0.774040
C196	C	1.234425	0.707647	1.274040
H197	H	0.707819	0.237776	0.733463
H198	H	1.207819	0.737776	1.233463
H199	H	0.758124	0.242042	0.805823
H200	H	1.258124	0.742042	1.305823
H201	H	0.703888	0.180963	0.809929
H202	H	1.203888	0.680963	1.309929
H203	H	0.163191	0.109000	0.129988
H204	H	0.663191	0.609000	0.629988
H205	H	0.722801	0.220856	0.368139
H206	H	1.222801	0.720856	0.868139
C207	C	0.033213	0.092444	-0.165176
C208	C	0.533213	0.592444	0.334824
H209	H	0.067242	0.090813	-0.210145
H210	H	0.567242	0.590813	0.289855
H211	H	-0.000307	0.137764	-0.171394
H212	H	0.499693	0.637764	0.328606
H213	H	0.010181	0.045860	-0.165169
H214	H	0.510181	0.545860	0.334831
C215	C	0.933439	-0.017958	0.789262
C216	C	1.433439	0.482042	1.289262
H217	H	0.924189	-0.007471	0.846869
H218	H	1.424189	0.492529	1.346869
H219	H	0.980655	-0.010221	0.774403
H220	H	1.480655	0.489779	1.274403
H221	H	0.926355	-0.071227	0.778545
H222	H	1.426355	0.428773	1.278545
