data_functionalizedCrystal
_audit_creation_method	'MofGen! by Chris Wilmer'
_symmetry_space_group_name_H-M	'P1'
_symmetry_Int_Tables_number	1
_symmetry_cell_setting	triclinic
loop_
_symmetry_equiv_pos_as_xyz
  x,y,z
_cell_length_a	26.374263
_cell_length_b	26.373608
_cell_length_c	26.370205
_cell_angle_alpha	60.005297
_cell_angle_beta	60.010839
_cell_angle_gamma	59.993700
loop_
_atom_site_label
_atom_site_type_symbol
_atom_site_fract_x
_atom_site_fract_y
_atom_site_fract_z
O1	O	0.070152	-0.740800	0.619517
O2	O	0.026377	-0.576764	0.499159
O3	O	0.130245	-0.680560	0.499088
O4	O	-0.033715	-0.637003	0.619589
O5	O	0.164701	-0.646107	0.533470
O6	O	0.060833	-0.542310	0.533541
O7	O	0.104608	-0.706346	0.653899
Cu8	Cu	0.085867	-0.621182	0.596859
Cu9	Cu	0.045119	-0.661927	0.556199
O10	O	0.000741	-0.602549	0.653971
N11	N	0.114528	-0.592529	0.625461
N12	N	0.016463	-0.690587	0.527598
C13	C	0.181428	-0.355400	0.692330
C14	C	0.181530	-0.525690	0.862573
C15	C	0.181440	-0.525667	0.692313
C16	C	0.351736	-0.525673	0.692271
C17	C	0.200174	-0.411588	0.711047
C18	C	0.200232	-0.506954	0.806384
C19	C	0.295546	-0.506943	0.711016
C20	C	0.200182	-0.506940	0.711037
C21	C	0.157567	-0.283881	0.668507
C22	C	0.157587	-0.549500	0.668479
C23	C	0.224035	-0.483107	0.734871
C24	C	0.455739	-0.507754	0.637520
C25	C	0.520749	-0.529425	0.615835
C26	C	0.520768	-0.634611	0.655947
C27	C	0.455759	-0.612939	0.677633
C28	C	0.173240	-0.251367	0.604595
C29	C	0.151546	-0.186351	0.582941
C30	C	0.098512	-0.186369	0.689113
C31	C	0.120206	-0.251385	0.710768
C32	C	0.093669	-0.533798	0.684205
C33	C	0.071992	-0.555464	0.662532
C34	C	0.178144	-0.608536	0.609422
C35	C	0.199825	-0.586869	0.631088
C36	C	0.093821	-0.533842	0.966616
C37	C	0.072187	-0.555526	1.031630
C38	C	0.178370	-0.608608	1.031591
C39	C	0.200004	-0.586926	0.966576
C40	C	0.157728	-0.549541	0.934090
C41	C	0.423247	-0.549509	0.668416
C42	C	-0.097522	-0.709158	0.508557
C43	C	-0.002050	-0.709295	0.413344
C44	C	-0.002241	-0.804604	0.508735
C45	C	-0.002225	-0.709288	0.508793
C46	C	-0.026009	-0.733087	0.484858
N47	N	0.552340	-0.592538	0.625346
O48	O	0.750867	-0.598274	0.477076
O49	O	0.751048	-0.718989	0.640960
O50	O	0.750981	-0.718715	0.537020
O51	O	0.750934	-0.598547	0.581017
O52	O	0.647701	-0.684348	0.571512
O53	O	0.647768	-0.684622	0.675452
O54	O	0.647587	-0.563907	0.511569
Cu55	Cu	0.638247	-0.621127	0.596660
Cu56	Cu	0.760388	-0.661769	0.555869
O57	O	0.647654	-0.564181	0.615509
N58	N	0.846295	-0.690358	0.527176
N59	N	0.114503	-0.154778	0.625499
O60	O	-0.033701	0.043855	0.619632
O61	O	0.130190	0.043858	0.498933
O62	O	0.026233	0.043841	0.499224
O63	O	0.070257	0.043872	0.619341
O64	O	0.060690	-0.059448	0.533654
O65	O	0.164647	-0.059431	0.533363
O66	O	0.000756	-0.059434	0.654062
Cu67	Cu	0.085848	-0.068863	0.596857
Cu68	Cu	0.045099	0.053287	0.556138
O69	O	0.104714	-0.059417	0.653771
N70	N	0.016435	0.139202	0.527497
N71	N	0.114760	-0.592585	1.063190
O72	O	0.108896	-0.740779	1.261808
O73	O	-0.011787	-0.576838	1.261822
O74	O	-0.011509	-0.680779	1.261780
O75	O	0.108618	-0.636838	1.261850
O76	O	0.022916	-0.646341	1.158496
O77	O	0.022638	-0.542399	1.158538
O78	O	0.143321	-0.706341	1.158524
Cu79	Cu	0.086123	-0.621225	1.149100
Cu80	Cu	0.045411	-0.661953	1.271246
O81	O	0.143044	-0.602399	1.158566
N82	N	0.016774	-0.690600	1.357156
C83	C	0.039504	-0.538867	0.499769
C84	C	0.168130	-0.667407	0.499680
C85	C	0.091482	-0.744243	0.653289
C86	C	-0.037145	-0.615703	0.653378
C87	C	0.699429	-0.718429	0.678853
C88	C	0.699348	-0.718091	0.550135
C89	C	0.699202	-0.564465	0.473677
C90	C	0.699287	-0.564805	0.602393
C91	C	0.168023	-0.007659	0.499484
C92	C	0.039327	-0.007807	0.499887
C93	C	-0.037119	-0.007789	0.653468
C94	C	0.091620	-0.007770	0.653109
C95	C	-0.011194	-0.538964	1.210181
C96	C	-0.010843	-0.667676	1.210109
C97	C	0.142729	-0.744214	1.210165
C98	C	0.142386	-0.615494	1.210214
H99	H	0.020147	-0.542732	1.058106
O100	O	0.424126	-0.446129	0.628490
C101	C	0.386488	-0.423600	0.593153
H102	H	0.406069	-0.455191	0.565366
H103	H	0.385736	-0.374541	0.559989
H104	H	0.337225	-0.422851	0.625530
O105	O	-0.093226	-0.007815	0.698754
C106	C	-0.093196	-0.007787	0.752193
H107	H	-0.043376	-0.027336	0.751452
H108	H	-0.120793	-0.037772	0.795424
H109	H	-0.115396	0.041769	0.752914
H110	H	0.100832	-0.791364	0.691090
O111	O	0.224265	-0.678386	0.454455
C112	C	0.224328	-0.624972	0.400950
H113	H	0.174533	-0.595392	0.401619
H114	H	0.251946	-0.639432	0.357772
H115	H	0.246557	-0.596903	0.400191
O116	O	-0.056321	-0.482742	1.210101
C117	C	-0.035095	-0.435930	1.156614
H118	H	0.017838	-0.453023	1.138791
H119	H	-0.053253	-0.392599	1.168656
H120	H	-0.052706	-0.424314	1.119144
H121	H	-0.084239	-0.606419	0.691217
H122	H	0.252044	-0.599714	0.940097
O123	O	0.102747	-0.007736	0.698190
C124	C	0.049440	-0.007753	0.751789
H125	H	0.006734	0.011797	0.738234
H126	H	0.044010	0.022239	0.774912
H127	H	0.054468	-0.057305	0.785563
O128	O	0.699464	-0.763704	0.734975
C129	C	0.699515	-0.817173	0.734943
H130	H	0.679930	-0.803412	0.698182
H131	H	0.669576	-0.840437	0.782556
H132	H	0.749079	-0.850907	0.724066
H133	H	0.030155	-0.491745	0.461969
O134	O	0.028198	-0.007904	0.454841
C135	C	0.070764	-0.061411	0.438153
H136	H	0.113807	-0.079235	0.450532
H137	H	0.084645	-0.049391	0.386058
H138	H	0.048262	-0.098873	0.464372
H139	H	-0.048566	-0.677061	1.210046
H140	H	0.214995	-0.007372	0.461496
O141	O	0.699339	-0.763051	0.538814
C142	C	0.699302	-0.740433	0.477771
H143	H	0.679707	-0.687534	0.461449
H144	H	0.669326	-0.759361	0.476886
H145	H	0.748840	-0.756114	0.445618
O146	O	0.187856	-0.800426	1.210186
C147	C	0.165511	-0.839059	1.210142
H148	H	0.112614	-0.822232	1.229688
H149	H	0.184553	-0.888813	1.240121
H150	H	0.181296	-0.837373	1.160584
H151	H	0.180125	-0.606093	1.210228
O152	O	0.699050	-0.519268	0.417534
C153	C	0.645533	-0.504864	0.406430
H154	H	0.627747	-0.545935	0.435402
H155	H	0.657520	-0.494711	0.355078
H156	H	0.608059	-0.462299	0.419831
O157	O	0.052667	-0.497551	0.935159
C158	C	-0.008377	-0.488331	0.977811
H159	H	-0.008233	-0.527534	1.024146
H160	H	-0.039260	-0.487984	0.959039
H161	H	-0.027002	-0.442020	0.984737
O162	O	0.219459	-0.645007	1.063123
C163	C	0.257056	-0.699522	1.047206
H164	H	0.231944	-0.708554	1.029336
H165	H	0.266907	-0.740482	1.089951
H166	H	0.302720	-0.693613	1.009463
O167	O	0.052556	-0.497478	0.720493
C168	C	-0.008508	-0.488274	0.729730
H169	H	-0.008410	-0.495532	0.690535
H170	H	-0.039377	-0.438966	0.730081
H171	H	-0.027113	-0.522881	0.776042
O172	O	0.699353	-0.519845	0.613667
C173	C	0.752876	-0.541209	0.628236
H174	H	0.770752	-0.594148	0.646049
H175	H	0.740862	-0.523269	0.665608
H176	H	0.790293	-0.523485	0.584832
O177	O	0.009917	-0.540326	0.677829
C178	C	-0.005768	-0.594957	0.710557
H179	H	0.037080	-0.635801	0.698809
H180	H	-0.043479	-0.589141	0.696732
H181	H	-0.023590	-0.604106	0.762592
H182	H	0.212545	-0.638970	0.578981
H183	H	0.251872	-0.599651	0.618278
H184	H	0.547237	-0.686258	0.663446
O185	O	0.424231	-0.653517	0.707543
C186	C	0.440121	-0.683968	0.667752
H187	H	0.457964	-0.654360	0.617425
H188	H	0.397371	-0.691282	0.675436
H189	H	0.477875	-0.730884	0.678220
O190	O	0.552221	-0.488776	0.585807
C191	C	0.509585	-0.428145	0.582335
H192	H	0.463236	-0.425609	0.586609
H193	H	0.528350	-0.393789	0.535867
H194	H	0.502694	-0.416008	0.621721
H195	H	0.164306	-0.159876	0.530897
O196	O	0.209502	-0.282835	0.563458
C197	C	0.218690	-0.240193	0.502402
H198	H	0.179486	-0.193852	0.502533
H199	H	0.219014	-0.258974	0.471539
H200	H	0.264998	-0.233273	0.483761
O201	O	0.062208	-0.154895	0.730248
C202	C	0.053049	-0.197538	0.791304
H203	H	0.060317	-0.243882	0.791185
H204	H	0.003753	-0.178761	0.822187
H205	H	0.087670	-0.204451	0.809912
H206	H	0.107441	-0.277854	0.762810
