data_functionalizedCrystal
_audit_creation_method	'MofGen! by Chris Wilmer'
_symmetry_space_group_name_H-M	'P1'
_symmetry_Int_Tables_number	1
_symmetry_cell_setting	triclinic
loop_
_symmetry_equiv_pos_as_xyz
  x,y,z
_cell_length_a	21.295417
_cell_length_b	16.625548
_cell_length_c	16.625539
_cell_angle_alpha	90.020568
_cell_angle_beta	90.033373
_cell_angle_gamma	90.031575
loop_
_atom_site_label
_atom_site_type_symbol
_atom_site_fract_x
_atom_site_fract_y
_atom_site_fract_z
Zn1	Zn	-0.250590	1.232635	0.455881
Zn2	Zn	-0.355864	1.232520	0.321036
Zn3	Zn	-0.250614	1.097797	0.321061
Zn4	Zn	-0.355827	1.097749	0.455826
O5	O	-0.303224	1.165175	0.388451
O6	O	-0.264560	1.345452	0.438006
O7	O	-0.341927	1.214620	0.208207
O8	O	-0.162522	1.115753	0.338979
O9	O	-0.341904	1.345367	0.338936
O10	O	-0.162504	1.214818	0.438030
O11	O	-0.264601	1.115640	0.208226
O12	O	-0.264566	0.984958	0.338926
O13	O	-0.341842	1.115670	0.568666
O14	O	-0.341866	0.984923	0.437937
O15	O	-0.264525	1.214771	0.568706
O16	O	-0.443948	1.214573	0.338883
O17	O	-0.443922	1.115558	0.437912
C18	C	-0.303215	0.955684	0.388429
C19	C	-0.303226	0.866063	0.388438
C20	C	-0.303230	0.537888	0.388473
C21	C	-0.303227	0.629196	0.388460
C22	C	-0.303229	0.701973	0.388455
C23	C	-0.303225	0.793287	0.388444
C24	C	-0.466775	1.165070	0.388407
C25	C	-0.536744	1.165098	0.388414
C26	C	-0.569603	1.216701	0.336903
C27	C	-0.635346	1.216739	0.336921
C28	C	-0.668226	1.165159	0.388442
C29	C	-0.635359	1.113552	0.439964
C30	C	-0.569617	1.113522	0.439950
N31	N	-0.771493	1.094624	0.394581
N32	N	-0.833944	1.094656	0.394590
C33	C	-0.866301	1.165250	0.388488
N34	N	-0.833847	1.235813	0.382362
N35	N	-0.771389	1.235780	0.382350
C36	C	-0.739511	1.165187	0.388463
C37	C	-0.970446	1.216898	0.336994
C38	C	-1.036189	1.216937	0.337017
C39	C	-1.036201	1.113743	0.440056
C40	C	-0.970459	1.113711	0.440037
C41	C	-0.937585	1.165288	0.388501
C42	C	-0.139033	1.165303	0.388514
C43	C	-0.069065	1.165358	0.388540
C44	C	-0.303177	1.165228	0.598760
C45	C	-0.303157	1.165250	0.688381
C46	C	-0.303233	1.375484	0.388474
C47	C	-0.303237	1.465105	0.388484
C48	C	-0.303225	1.165169	0.178960
C49	C	-0.303068	1.165303	0.089340
C50	C	-0.303086	1.165287	1.016557
C51	C	-0.303108	1.165275	0.925249
C52	C	-0.303122	1.165269	0.852472
C53	C	-0.303143	1.165256	0.761158
H54	H	-0.542839	1.258700	0.294941
O55	O	-0.667337	1.266744	0.286820
C56	C	-0.705403	1.220859	0.234703
H57	H	-0.715281	1.159754	0.263109
H58	H	-0.751615	1.253721	0.223908
H59	H	-0.680096	1.211998	0.174948
H60	H	-0.662134	1.071557	0.481915
H61	H	-1.062972	1.071750	0.482010
O62	O	-0.537763	1.063429	0.490100
C63	C	-0.553752	1.081027	0.570484
H64	H	-0.601461	1.112045	0.572197
H65	H	-0.556020	1.022817	0.606587
H66	H	-0.516704	1.122449	0.597668
O67	O	-1.068014	1.267212	0.287018
C68	C	-1.051850	1.347536	0.304755
H69	H	-1.004106	1.349111	0.335765
H70	H	-1.049571	1.383738	0.246608
H71	H	-1.088802	1.374712	0.346233
O72	O	-0.938575	1.266961	0.286828
C73	C	-0.954690	1.249380	0.206453
H74	H	-1.002448	1.218413	0.204765
H75	H	-0.956916	1.307593	0.170352
H76	H	-0.917739	1.207919	0.179248
H77	H	-0.943703	1.071688	0.481979
