data_functionalizedCrystal
_audit_creation_method	'MofGen! by Chris Wilmer'
_symmetry_space_group_name_H-M	'P1'
_symmetry_Int_Tables_number	1
_symmetry_cell_setting	triclinic
loop_
_symmetry_equiv_pos_as_xyz
  x,y,z
_cell_length_a	17.077404
_cell_length_b	12.759400
_cell_length_c	17.077396
_cell_angle_alpha	90.024356
_cell_angle_beta	90.019501
_cell_angle_gamma	90.014254
loop_
_atom_site_label
_atom_site_type_symbol
_atom_site_fract_x
_atom_site_fract_y
_atom_site_fract_z
Zn1	Zn	1.200103	-0.418260	0.443865
Zn2	Zn	1.200030	-0.593960	0.312609
Zn3	Zn	1.068835	-0.418297	0.312613
Zn4	Zn	1.068823	-0.593898	0.443832
O5	O	1.134448	-0.506104	0.378230
O6	O	1.309940	-0.441578	0.426466
O7	O	1.182601	-0.570700	0.202762
O8	O	1.086283	-0.271271	0.330040
O9	O	1.309887	-0.570664	0.330032
O10	O	1.182725	-0.271244	0.426470
O11	O	1.086213	-0.441641	0.202766
O12	O	0.958986	-0.441580	0.330008
O13	O	1.086263	-0.570558	0.553684
O14	O	0.958978	-0.570594	0.426414
O15	O	1.182714	-0.441517	0.553708
O16	O	1.182590	-0.740973	0.330000
O17	O	1.086193	-0.740927	0.426409
C18	C	0.930500	-0.506085	0.378208
C19	C	0.843250	-0.506102	0.378218
C20	C	0.802276	-0.573381	0.428336
C21	C	0.720296	-0.573383	0.428348
C22	C	0.679291	-0.506111	0.378238
C23	C	0.720271	-0.438825	0.328118
C24	C	0.802249	-0.438818	0.328110
C25	C	0.549400	-0.438846	0.328137
C26	C	0.467416	-0.438854	0.328143
C27	C	0.467447	-0.573410	0.428375
C28	C	0.549426	-0.573404	0.428367
C29	C	0.590400	-0.506119	0.378246
C30	C	1.134404	-0.779071	0.378218
C31	C	1.134456	-0.895848	0.378239
C32	C	1.184691	-1.060343	0.428510
C33	C	1.184650	-0.950619	0.428492
C34	C	1.084305	-0.950807	0.327995
C35	C	1.084350	-1.060529	0.328009
C36	C	1.277149	-0.800547	0.456603
C37	C	1.327291	-0.745592	0.506854
C38	C	1.339314	-0.781128	0.583463
C39	C	1.301183	-0.871618	0.609837
C40	C	1.251035	-0.926567	0.559591
C41	C	1.239027	-0.891033	0.482970
C42	C	0.991850	-1.210602	0.299907
C43	C	0.941698	-1.265554	0.249663
C44	C	0.929667	-1.230019	0.173052
C45	C	0.967784	-1.139527	0.146681
C46	C	1.017936	-1.084575	0.196925
C47	C	1.029968	-1.120117	0.273534
C48	C	1.339192	-0.506124	0.378252
C49	C	1.426442	-0.506132	0.378262
C50	C	1.134495	-0.506026	0.582974
C51	C	1.134515	-0.505993	0.670224
C52	C	1.134514	-0.232071	0.378259
C53	C	1.134542	-0.115294	0.378272
C54	C	1.134446	-0.506105	0.174282
C55	C	1.134577	-0.505842	0.087033
C56	C	1.184739	-0.438796	0.711228
C57	C	1.184749	-0.438761	0.793209
C58	C	1.134538	-0.505930	0.834184
C59	C	1.084308	-0.573130	0.793174
C60	C	1.084296	-0.573158	0.711195
C61	C	1.084340	-0.573066	0.964044
C62	C	1.084354	-0.573039	1.046029
C63	C	1.184793	-0.438669	1.046058
C64	C	1.184780	-0.438698	0.964079
C65	C	1.134552	-0.505900	0.923075
H66	H	0.582759	-0.384046	0.287329
O67	O	0.956163	-1.104833	0.072295
C68	C	1.000576	-1.013194	0.059788
H69	H	1.013529	-0.974139	0.118431
H70	H	0.966115	-0.956852	0.021118
H71	H	1.057995	-1.034490	0.029702
O72	O	1.035645	-0.638506	0.924240
C73	C	1.052782	-0.743205	0.944280
H74	H	1.115490	-0.748486	0.966841
H75	H	1.046021	-0.795131	0.890358
H76	H	1.010693	-0.770662	0.991845
H77	H	0.434081	-0.628193	0.469188
O78	O	0.589138	-0.638786	0.477115
C79	C	0.535396	-0.698193	0.521343
H80	H	0.476964	-0.655174	0.524125
H81	H	0.559113	-0.709504	0.583172
H82	H	0.526656	-0.777937	0.492496
H83	H	1.310968	-0.900536	0.672224
O84	O	0.427704	-0.373403	0.279447
C85	C	0.481445	-0.314025	0.235197
H86	H	0.539898	-0.310436	0.267346
H87	H	0.457761	-0.231236	0.226939
H88	H	0.490132	-0.352386	0.175527
O89	O	1.035683	-0.638379	1.085873
C90	C	1.080354	-0.706212	1.133314
H91	H	1.142169	-0.712748	1.108614
H92	H	1.051926	-0.787051	1.134243
H93	H	1.083088	-0.673692	1.195443
O94	O	1.003512	-1.244942	0.374380
C95	C	0.979823	-1.166713	0.427672
H96	H	0.981371	-1.087031	0.397542
H97	H	1.021233	-1.166036	0.480043
H98	H	0.917713	-1.183812	0.448526
H99	H	1.043423	-0.627815	0.826542
O100	O	0.680525	-0.373527	0.279333
C101	C	0.700504	-0.396367	0.201065
H102	H	0.760022	-0.436743	0.199379
H103	H	0.703301	-0.320482	0.165964
H104	H	0.654348	-0.450343	0.174562
H105	H	1.225557	-1.104929	0.469440
O106	O	1.387959	-0.727570	0.632232
C107	C	1.359951	-0.624440	0.641926
H108	H	1.321366	-0.602591	0.589953
H109	H	1.411582	-0.567983	0.645461
H110	H	1.324258	-0.619349	0.698200
O111	O	1.233405	-0.373493	0.671344
C112	C	1.188719	-0.305631	0.623941
H113	H	1.129223	-0.342688	0.611641
H114	H	1.220688	-0.291566	0.566302
H115	H	1.180113	-0.227764	0.655546
O116	O	1.035493	-0.638546	0.671482
C117	C	0.991169	-0.697814	0.725225
H118	H	1.023326	-0.701422	0.783670
H119	H	0.982784	-0.780603	0.701530
H120	H	0.931557	-0.659344	0.733931
H121	H	1.225648	-0.384045	0.826590
H122	H	0.835610	-0.384027	0.287302
H123	H	1.219985	-1.000237	0.581066
H124	H	1.358337	-0.671915	0.485373
H125	H	1.043439	-0.906206	0.287074
O126	O	0.841983	-0.638763	0.477088
C127	C	0.788235	-0.698161	0.521313
H128	H	0.729805	-0.655137	0.524089
H129	H	0.811945	-0.709469	0.583145
H130	H	0.779492	-0.777907	0.492469
H131	H	1.267373	-0.771612	0.394219
O132	O	1.055090	-0.996736	0.171361
C133	C	1.136778	-1.011402	0.176166
H134	H	1.150271	-1.074621	0.221346
H135	H	1.165892	-0.934795	0.194460
H136	H	1.160227	-1.036646	0.116578
H137	H	1.225690	-0.383950	1.079447
O138	O	0.880897	-1.283500	0.124357
C139	C	0.849781	-1.370945	0.164075
H140	H	0.890288	-1.393388	0.214418
H141	H	0.844444	-1.439665	0.121724
H142	H	0.789449	-1.350493	0.188200
O143	O	0.680403	-0.638792	0.476919
C144	C	0.632967	-0.706584	0.432139
H145	H	0.620669	-0.669421	0.372702
H146	H	0.575330	-0.720723	0.464097
H147	H	0.664543	-0.784427	0.423407
H148	H	0.910649	-1.339226	0.271146
O149	O	1.233580	-0.373355	0.924396
C150	C	1.277929	-0.314052	0.978164
H151	H	1.245791	-0.310385	1.036598
H152	H	1.286319	-0.231286	0.954484
H153	H	1.337539	-0.352529	0.986886
