data_functionalizedCrystal
_audit_creation_method	'MofGen! by Chris Wilmer'
_symmetry_space_group_name_H-M	'P1'
_symmetry_Int_Tables_number	1
_symmetry_cell_setting	triclinic
loop_
_symmetry_equiv_pos_as_xyz
  x,y,z
_cell_length_a	14.908783
_cell_length_b	18.050590
_cell_length_c	14.908308
_cell_angle_alpha	86.735264
_cell_angle_beta	90.211273
_cell_angle_gamma	93.309344
loop_
_atom_site_label
_atom_site_type_symbol
_atom_site_fract_x
_atom_site_fract_y
_atom_site_fract_z
Zn1	Zn	1.345325	-0.259750	0.587820
Zn2	Zn	1.353911	-0.376401	0.437456
Zn3	Zn	1.203639	-0.258946	0.428792
Zn4	Zn	1.194937	-0.390621	0.579078
O5	O	1.274453	-0.321430	0.508287
O6	O	1.472292	-0.269609	0.575159
O7	O	1.341212	-0.354532	0.310484
O8	O	1.222482	-0.155127	0.449920
O9	O	1.478600	-0.355312	0.464688
O10	O	1.326579	-0.155718	0.566758
O11	O	1.230807	-0.268239	0.304118
O12	O	1.076657	-0.282028	0.441442
O13	O	1.207652	-0.379549	0.706060
O14	O	1.070264	-0.378770	0.551857
O15	O	1.318141	-0.283398	0.712484
O16	O	1.332774	-0.482212	0.456210
O17	O	1.215977	-0.492660	0.560258
C18	C	1.040835	-0.331855	0.494761
C19	C	0.940890	-0.336335	0.488996
C20	C	0.746504	-0.255648	0.593373
C21	C	0.652598	-0.259854	0.587960
C22	C	0.659169	-0.348949	0.472751
C23	C	0.753076	-0.344742	0.478165
C24	C	0.796740	-0.298091	0.538479
C25	C	0.890648	-0.293890	0.543897
C26	C	0.897218	-0.382980	0.428684
C27	C	0.803311	-0.387186	0.423271
C28	C	1.274386	-0.514383	0.508247
C29	C	1.274438	-0.596927	0.508264
C30	C	1.338072	-0.790668	0.451774
C31	C	1.355299	-0.843138	0.535104
C32	C	1.274487	-0.748057	0.508303
C33	C	1.257349	-0.842666	0.425015
C34	C	1.274536	-0.894041	0.508334
C35	C	1.291753	-0.799440	0.591679
C36	C	1.193768	-0.798963	0.481532
C37	C	1.210961	-0.851415	0.564918
C38	C	1.274461	-0.663959	0.508285
C39	C	1.274562	-0.978138	0.508361
C40	C	1.508984	-0.310964	0.521865
C41	C	1.608927	-0.306504	0.527652
C42	C	1.260968	-0.333149	0.742809
C43	C	1.255222	-0.338144	0.842748
C44	C	1.274544	-0.127723	0.508348
C45	C	1.274582	-0.045176	0.508374
C46	C	1.287937	-0.309699	0.274680
C47	C	1.293858	-0.304488	0.174751
C48	C	1.359474	-0.247389	1.037235
C49	C	1.354077	-0.252079	1.131137
C50	C	1.239028	-0.352209	1.124456
C51	C	1.244425	-0.347519	1.030554
C52	C	1.304651	-0.295108	0.986947
C53	C	1.310051	-0.290423	0.893043
C54	C	1.194998	-0.390548	0.886363
C55	C	1.189602	-0.395238	0.980266
H56	H	0.926198	-0.255905	0.593008
N57	N	1.375015	-0.233903	0.846010
H58	H	1.370123	-0.238175	0.778892
H59	H	1.438279	-0.243423	0.866146
N60	N	1.413210	-0.200618	1.185385
H61	H	1.374441	-0.169782	1.222239
H62	H	1.452172	-0.166752	1.143455
N63	N	0.793606	-0.205344	0.658431
H64	H	0.747532	-0.179096	0.692390
H65	H	0.834670	-0.167358	0.624154
H66	H	1.408517	-0.204718	1.001730
H67	H	1.125507	-0.779453	0.458848
N68	N	1.409309	-0.755579	0.388518
H69	H	1.470279	-0.771583	0.408872
H70	H	1.408327	-0.699682	0.388549
N71	N	1.174039	-0.408705	1.171495
H72	H	1.178930	-0.404423	1.238611
H73	H	1.188923	-0.460313	1.155899
H74	H	1.140566	-0.437908	1.015783
N75	N	0.612053	-0.399256	0.407706
H76	H	0.627578	-0.452299	0.422496
H77	H	0.632090	-0.383640	0.344453
N78	N	1.135868	-0.442026	0.832125
H79	H	1.148425	-0.431106	0.766021
H80	H	1.070710	-0.434159	0.844822
H81	H	0.767747	-0.425165	0.374162
N82	N	0.951399	-0.428768	0.369478
H83	H	1.017515	-0.419029	0.382060
H84	H	0.938667	-0.414661	0.304338
N85	N	1.139754	-0.886313	0.628336
H86	H	1.168788	-0.918683	0.676333
H87	H	1.094883	-0.917613	0.593723
N88	N	1.238102	-0.867956	0.331705
H89	H	1.290030	-0.896062	0.310695
H90	H	1.229907	-0.823208	0.289279
N91	N	0.598414	-0.214069	0.647159
H92	H	0.640328	-0.183878	0.686184
H93	H	0.557061	-0.248167	0.686462
H94	H	1.306197	-0.780449	0.662184
N95	N	1.445741	-0.868963	0.565127
H96	H	1.493716	-0.846714	0.522377
H97	H	1.444822	-0.924969	0.565487
