data_functionalizedCrystal
_audit_creation_method	'MofGen! by Chris Wilmer'
_symmetry_space_group_name_H-M	'P1'
_symmetry_Int_Tables_number	1
_symmetry_cell_setting	triclinic
loop_
_symmetry_equiv_pos_as_xyz
  x,y,z
_cell_length_a	10.654558
_cell_length_b	19.188930
_cell_length_c	17.666332
_cell_angle_alpha	90.009680
_cell_angle_beta	90.005198
_cell_angle_gamma	83.816549
loop_
_atom_site_label
_atom_site_type_symbol
_atom_site_fract_x
_atom_site_fract_y
_atom_site_fract_z
O1	O	1.665762	0.098089	0.062947
O2	O	2.165762	0.598089	0.562947
O3	O	1.300087	0.107426	0.062952
O4	O	1.800087	0.607426	0.562952
O5	O	1.493477	0.001171	0.062935
O6	O	1.993477	0.501171	0.562935
O7	O	1.472372	0.204344	0.062965
O8	O	1.972372	0.704344	0.562965
O9	O	1.493456	0.001168	-0.062962
O10	O	1.993456	0.501168	0.437038
O11	O	1.300066	0.107423	-0.062945
O12	O	1.800066	0.607423	0.437055
O13	O	1.665740	0.098086	-0.062949
O14	O	2.165740	0.598086	0.437051
Cu15	Cu	1.482901	0.102755	-0.074442
Cu16	Cu	1.982901	0.602755	0.425558
Cu17	Cu	1.482927	0.102758	0.074445
Cu18	Cu	1.982927	0.602758	0.574445
O19	O	1.472350	0.204341	-0.062932
O20	O	1.972350	0.704341	0.437068
C21	C	1.253293	0.106738	0.000004
C22	C	1.753293	0.606738	0.500004
C23	C	1.113894	0.104683	0.000005
C24	C	1.613894	0.604683	0.500005
C25	C	0.917428	0.101796	0.068631
C26	C	1.417428	0.601796	0.568631
C27	C	1.048410	0.103721	0.068632
C28	C	1.548410	0.603721	0.568632
C29	C	1.048391	0.103714	-0.068627
C30	C	1.548391	0.603714	0.431373
C31	C	0.917412	0.101784	-0.068627
C32	C	1.417412	0.601784	0.431373
C33	C	0.851950	0.100841	0.137263
C34	C	1.351950	0.600841	0.637263
C35	C	0.917444	0.101809	0.205896
C36	C	1.417444	0.601809	0.705896
C37	C	1.048426	0.103733	0.205897
C38	C	1.548426	0.603733	0.705897
C39	C	1.113914	0.104690	0.137265
C40	C	1.613914	0.604690	0.637265
C41	C	1.492783	-0.024846	-0.000016
C42	C	1.992783	0.475154	0.499984
C43	C	1.490731	-0.102364	-0.000022
C44	C	1.990731	0.397636	0.499978
C45	C	1.604206	-0.146544	-0.000027
C46	C	2.104206	0.353456	0.499973
C47	C	1.602279	-0.219380	-0.000015
C48	C	2.102279	0.280620	0.499985
C49	C	1.486870	-0.248033	-0.000013
C50	C	1.986870	0.251967	0.499987
C51	C	1.373380	-0.203844	-0.000004
C52	C	1.873380	0.296156	0.499996
C53	C	1.375311	-0.131009	-0.000008
C54	C	1.875311	0.368991	0.499992
N55	N	1.398646	-0.356618	-0.042857
N56	N	1.898646	0.143382	0.457143
N57	N	1.396820	-0.425808	-0.042854
N58	N	1.896820	0.074192	0.457146
C59	C	1.481046	-0.467480	0.000002
C60	C	1.981046	0.032520	0.500002
N61	N	1.567186	-0.437349	0.042847
N62	N	2.067186	0.062651	0.542847
N63	N	1.569016	-0.368152	0.042840
N64	N	2.069016	0.131848	0.542840
C65	C	1.484764	-0.327010	-0.000008
C66	C	1.984764	0.172990	0.499992
C67	C	1.592439	-0.590638	0.000011
C68	C	2.092439	-0.090638	0.500011
C69	C	1.590506	-0.663476	0.000028
C70	C	2.090506	-0.163476	0.500028
C71	C	1.361604	-0.647938	0.000032
C72	C	1.861604	-0.147938	0.500032
C73	C	1.363540	-0.575102	0.000023
C74	C	1.863540	-0.075102	0.500023
C75	C	1.478960	-0.546457	0.000009
C76	C	1.978960	-0.046457	0.500009
C77	C	1.712535	0.098775	0.000000
C78	C	2.212535	0.598775	0.500000
C79	C	1.851934	0.100829	0.000004
C80	C	2.351934	0.600829	0.500004
C81	C	1.473045	0.230358	0.000020
C82	C	1.973045	0.730358	0.500020
C83	C	1.475096	0.307876	0.000032
C84	C	1.975096	0.807876	0.500032
N85	N	1.482892	0.102752	-0.179162
N86	N	1.982892	0.602752	0.320838
C87	C	1.568581	0.055718	-0.781220
C88	C	2.068581	0.555718	-0.281220
C89	C	1.568583	0.055720	-0.701972
C90	C	2.068583	0.555720	-0.201972
C91	C	1.482928	0.102751	-0.662343
C92	C	1.982928	0.602751	-0.162343
C93	C	1.397286	0.149797	-0.701969
C94	C	1.897286	0.649797	-0.201969
C95	C	1.397295	0.149799	-0.781215
C96	C	1.897295	0.649799	-0.281215
N97	N	1.371753	0.111071	-0.537929
N98	N	1.871753	0.611071	-0.037929
N99	N	1.371749	0.111065	-0.462648
N100	N	1.871749	0.611065	0.037352
C101	C	1.482898	0.102750	-0.423579
C102	C	1.982898	0.602750	0.076421
N103	N	1.594056	0.094427	-0.462635
N104	N	2.094056	0.594427	0.037365
N105	N	1.594059	0.094430	-0.537922
N106	N	2.094059	0.594430	-0.037922
C107	C	1.482909	0.102755	-0.576414
C108	C	1.982909	0.602755	-0.076414
C109	C	1.568543	0.055713	-0.298034
C110	C	2.068543	0.555713	0.201966
C111	C	1.568547	0.055719	-0.218785
C112	C	2.068547	0.555719	0.281215
C113	C	1.397239	0.149793	-0.218783
C114	C	1.897239	0.649793	0.281217
C115	C	1.397246	0.149790	-0.298031
C116	C	1.897246	0.649790	0.201969
C117	C	1.482897	0.102746	-0.337652
C118	C	1.982897	0.602746	0.162348
N119	N	1.482945	0.102755	0.179164
N120	N	1.982945	0.602755	0.679164
H121	H	0.864117	0.101025	0.261773
H122	H	1.364117	0.601025	0.761773
Br123	Br	1.221297	-0.071046	0.000001
Br124	Br	1.721297	0.428954	0.500001
Br125	Br	1.749076	-0.551758	-0.000015
Br126	Br	2.249076	-0.051758	0.499985
H127	H	1.682915	-0.699447	0.000028
H128	H	2.182915	-0.199447	0.500028
H129	H	1.101750	0.104514	0.261781
H130	H	1.601750	0.604514	0.761781
H131	H	1.694687	-0.255358	-0.000016
H132	H	2.194687	0.244642	0.499984
Br133	Br	1.204975	-0.686816	0.000042
Br134	Br	1.704975	-0.186816	0.500042
Br135	Br	1.291680	0.107288	0.137268
Br136	Br	1.791680	0.607288	0.637268
H137	H	0.864082	0.101010	-0.124510
H138	H	1.364082	0.601010	0.375490
Br139	Br	1.209529	-0.515139	0.000029
Br140	Br	1.709529	-0.015139	0.500029
Br141	Br	1.137265	0.105015	-0.161764
Br142	Br	1.637265	0.605015	0.338236
H143	H	1.638320	0.017416	-0.669711
H144	H	2.138320	0.517416	-0.169711
Br145	Br	1.760847	-0.107671	-0.000025
Br146	Br	2.260847	0.392329	0.499975
H147	H	1.638289	0.017409	-0.330295
H148	H	2.138289	0.517409	0.169705
H149	H	1.279413	-0.227178	-0.000000
H150	H	1.779413	0.272822	0.500000
Br151	Br	1.281068	0.213640	-0.834984
Br152	Br	1.781068	0.713640	-0.334984
H153	H	1.327547	0.188092	-0.669699
H154	H	1.827547	0.688092	-0.169699
H155	H	0.745297	0.099276	0.137270
H156	H	1.245297	0.599276	0.637270
H157	H	1.638325	0.017414	-0.813476
H158	H	2.138325	0.517414	-0.313476
Br159	Br	1.684786	-0.008115	-0.165016
Br160	Br	2.184786	0.491885	0.334984
Br161	Br	1.281006	0.213629	-0.165008
Br162	Br	1.781006	0.713629	0.334992
Br163	Br	1.281018	0.213626	-0.351802
Br164	Br	1.781018	0.713626	0.148198
