data_functionalizedCrystal
_audit_creation_method	'MofGen! by Chris Wilmer'
_symmetry_space_group_name_H-M	'P1'
_symmetry_Int_Tables_number	1
_symmetry_cell_setting	triclinic
loop_
_symmetry_equiv_pos_as_xyz
  x,y,z
_cell_length_a	23.532407
_cell_length_b	19.188925
_cell_length_c	18.266242
_cell_angle_alpha	89.990012
_cell_angle_beta	89.988983
_cell_angle_gamma	82.995613
loop_
_atom_site_label
_atom_site_type_symbol
_atom_site_fract_x
_atom_site_fract_y
_atom_site_fract_z
O1	O	0.071087	0.925925	-0.060904
O2	O	0.080662	0.722582	-0.060903
O3	O	-0.007044	0.830385	-0.060890
O4	O	0.158793	0.818122	-0.060917
O5	O	-0.007049	0.830367	0.060872
O6	O	0.080657	0.722564	0.060859
O7	O	0.071083	0.925907	0.060858
Zn8	Zn	0.075869	0.824233	0.080191
Zn9	Zn	0.075875	0.824256	-0.080236
O10	O	0.158789	0.818104	0.060845
C11	C	0.080350	0.696563	-0.000022
C12	C	0.079421	0.619061	-0.000021
C13	C	0.124662	0.057147	-0.000030
C14	C	0.125540	0.129967	-0.000034
C15	C	0.074077	0.175066	-0.000024
C16	C	0.021732	0.147339	-0.000029
C17	C	0.020855	0.074520	-0.000033
N18	N	0.036818	0.295856	0.041430
N19	N	0.037654	0.365030	0.041435
C20	C	0.076715	0.394467	-0.000016
N21	N	0.114916	0.352114	-0.041463
N22	N	0.114081	0.282932	-0.041464
C23	C	0.075021	0.254027	-0.000021
C24	C	0.130009	0.501146	-0.000021
C25	C	0.130884	0.573968	-0.000029
C26	C	0.027075	0.591338	-0.000017
C27	C	0.026200	0.518517	-0.000016
C28	C	0.077669	0.473425	-0.000014
C29	C	-0.028263	0.830064	-0.000007
C30	C	-0.091482	0.829125	-0.000002
C31	C	-0.490463	0.887032	-0.000042
C32	C	-0.549865	0.886159	-0.000048
O33	O	-0.586497	0.939839	-0.000075
N34	N	-0.572627	0.822070	-0.000047
C35	C	-0.535982	0.758850	-0.000048
O36	O	-0.560797	0.704257	-0.000048
C37	C	-0.476581	0.759723	-0.000048
C38	C	-0.453824	0.823816	-0.000041
C39	C	-0.467705	0.951119	-0.000036
C40	C	-0.408307	0.951991	-0.000029
C41	C	-0.371667	0.888775	-0.000028
C42	C	-0.394426	0.824688	-0.000034
C43	C	-0.439938	0.696503	-0.000054
C44	C	-0.380534	0.697381	-0.000054
C45	C	-0.357776	0.761474	-0.000048
C46	C	-0.298388	0.762344	-0.000026
N47	N	-0.275627	0.826432	-0.000027
C48	C	-0.312266	0.889648	-0.000028
C49	C	-0.660729	0.757021	-0.000050
C50	C	-0.720128	0.756148	-0.000045
C51	C	-0.734007	0.883458	-0.000046
C52	C	-0.674607	0.884331	-0.000046
C53	C	-0.637967	0.821110	-0.000051
C54	C	-0.187526	0.891475	-0.000013
C55	C	-0.128122	0.892341	-0.000003
C56	C	-0.114248	0.765031	-0.000006
C57	C	-0.173647	0.764165	-0.000012
C58	C	-0.210285	0.827392	-0.000018
O59	O	-0.261722	0.708692	-0.000002
O60	O	-0.287443	0.944232	-0.000037
C61	C	0.180008	0.818425	-0.000040
C62	C	0.243227	0.819364	-0.000050
C63	C	0.071394	0.951926	-0.000025
C64	C	0.072324	1.029428	-0.000031
N65	N	0.075865	0.824221	0.189678
N66	N	0.075875	0.824273	-0.189723
C67	C	0.037048	0.871972	0.227992
C68	C	0.037045	0.871976	0.304637
C69	C	0.075869	0.824237	0.342965
C70	C	0.114690	0.776477	0.304641
C71	C	0.114687	0.776470	0.227997
N72	N	0.126285	0.815000	0.463289
N73	N	0.126285	0.815012	0.536097
C74	C	0.075878	0.824256	0.573887
N75	N	0.025468	0.833503	0.536118
N76	N	0.025468	0.833495	0.463304
C77	C	0.075876	0.824240	0.426071
C78	C	0.037054	0.872014	0.695309
C79	C	0.037051	0.872014	0.771955
C80	C	0.114700	0.776518	0.771957
C81	C	0.114699	0.776515	0.695312
C82	C	0.075876	0.824267	0.656993
H83	H	0.173506	0.596534	-0.000035
N84	N	0.185519	0.452509	-0.000031
H85	H	0.187469	0.421916	-0.045169
H86	H	0.187436	0.421948	0.045135
N87	N	-0.103576	0.961472	0.000008
H88	H	-0.135805	1.001385	0.000005
H89	H	-0.079224	0.964617	-0.045127
N90	N	-0.004816	0.923524	0.813281
H91	H	0.001073	0.916283	0.867650
H92	H	-0.045204	0.915748	0.799897
H93	H	0.166572	0.020437	-0.000032
N94	N	0.156572	0.725023	0.653977
H95	H	0.134870	0.694261	0.622193
H96	H	0.181160	0.694826	0.689927
H97	H	-0.497532	1.002600	-0.000040
H98	H	-0.014828	0.628057	-0.000015
H99	H	0.168161	0.152541	-0.000026
H100	H	-0.656082	0.936521	-0.000041
H101	H	0.146300	0.737606	0.335851
H102	H	0.005441	0.910895	0.664108
N103	N	-0.004818	0.923490	0.345972
H104	H	0.001077	0.916249	0.400340
H105	H	-0.045207	0.915716	0.332595
N106	N	-0.030251	0.488614	-0.000011
H107	H	-0.062720	0.528232	-0.000005
H108	H	-0.032877	0.458771	0.045127
N109	N	-0.074722	0.696853	-0.000014
H110	H	-0.098149	0.656115	-0.000020
H111	H	-0.049779	0.694432	0.045124
H112	H	-0.020170	0.184063	-0.000024
H113	H	-0.350704	0.645898	-0.000059
N114	N	-0.198193	0.695036	-0.000013
H115	H	-0.222517	0.691843	-0.045156
H116	H	-0.222512	0.691869	0.045149
H117	H	-0.763851	0.934931	-0.000050
N118	N	0.156572	0.725021	0.813285
H119	H	0.150683	0.732269	0.867653
H120	H	0.196959	0.732800	0.799875
N121	N	-0.004828	0.923469	0.186665
H122	H	0.001060	0.916222	0.132296
H123	H	0.001655	0.972951	0.200047
H124	H	-0.738652	0.703957	-0.000038
H125	H	-0.630900	0.705536	-0.000048
H126	H	-0.021766	0.051952	-0.000034
N127	N	-0.227037	0.959668	-0.000019
H128	H	-0.203599	1.000394	-0.000013
H129	H	-0.251993	0.962074	0.045118
N130	N	-0.383765	1.021120	-0.000025
H131	H	-0.415997	1.061029	-0.000028
H132	H	-0.359416	1.024265	-0.045163
N133	N	-0.464474	0.627373	-0.000052
H134	H	-0.432242	0.587466	-0.000052
H135	H	-0.488811	0.624238	-0.045190
H136	H	0.146298	0.737584	0.196801
