data_functionalizedCrystal
_audit_creation_method	'MofGen! by Chris Wilmer'
_symmetry_space_group_name_H-M	'P1'
_symmetry_Int_Tables_number	1
_symmetry_cell_setting	triclinic
loop_
_symmetry_equiv_pos_as_xyz
  x,y,z
_cell_length_a	25.639239
_cell_length_b	12.759401
_cell_length_c	12.759393
_cell_angle_alpha	90.018496
_cell_angle_beta	89.962948
_cell_angle_gamma	89.961153
loop_
_atom_site_label
_atom_site_type_symbol
_atom_site_fract_x
_atom_site_fract_y
_atom_site_fract_z
Zn1	Zn	-0.208118	-1.606080	-0.593941
Zn2	Zn	-0.295564	-1.605901	-0.418245
Zn3	Zn	-0.208145	-1.430382	-0.418281
Zn4	Zn	-0.295524	-1.430297	-0.593886
O5	O	-0.251838	-1.518165	-0.506088
O6	O	-0.219723	-1.753078	-0.570643
O7	O	-0.283996	-1.582579	-0.271228
O8	O	-0.134976	-1.453799	-0.441621
O9	O	-0.283970	-1.752946	-0.441559
O10	O	-0.134956	-1.582884	-0.570678
O11	O	-0.219770	-1.453626	-0.271255
O12	O	-0.219731	-1.283350	-0.441567
O13	O	-0.283901	-1.453655	-0.740914
O14	O	-0.283928	-1.283288	-0.570584
O15	O	-0.219684	-1.582802	-0.740955
O16	O	-0.368724	-1.582496	-0.441505
O17	O	-0.368695	-1.453481	-0.570549
C18	C	-0.387680	-1.517989	-0.506040
C19	C	-0.445795	-1.518009	-0.506055
C20	C	-0.251828	-1.245198	-0.506074
C21	C	-0.251837	-1.128421	-0.506093
C22	C	-0.251785	-1.518239	-0.780122
C23	C	-0.251763	-1.518270	-0.896898
C24	C	-0.806160	-1.585519	-0.439010
C25	C	-0.860765	-1.585560	-0.439024
O26	O	-0.889004	-1.642775	-0.381967
N27	N	-0.888077	-1.518350	-0.506158
C28	C	-0.860782	-1.451103	-0.573289
O29	O	-0.889027	-1.393940	-0.630394
C30	C	-0.806179	-1.451068	-0.573280
C31	C	-0.778869	-1.518275	-0.506134
C32	C	-0.778851	-1.652721	-0.371870
C33	C	-0.724250	-1.652678	-0.371855
C34	C	-0.696959	-1.585434	-0.438980
C35	C	-0.724269	-1.518232	-0.506119
C36	C	-0.778885	-1.383827	-0.640416
C37	C	-0.724278	-1.383799	-0.640401
C38	C	-0.696968	-1.451005	-0.573256
C39	C	-0.642377	-1.450946	-0.573228
N40	N	-0.615065	-1.518155	-0.506094
C41	C	-0.642356	-1.585399	-0.438970
C42	C	-0.975453	-1.451182	-0.573306
C43	C	-1.030055	-1.451210	-0.573311
C44	C	-1.030034	-1.585669	-0.439046
C45	C	-0.975430	-1.585634	-0.439037
C46	C	-0.948140	-1.518391	-0.506172
C47	C	-0.527691	-1.585305	-0.438943
C48	C	-0.473086	-1.585253	-0.438930
C49	C	-0.473111	-1.450799	-0.573198
C50	C	-0.527712	-1.450846	-0.573207
C51	C	-0.555000	-1.518108	-0.506076
O52	O	-0.614103	-1.393762	-0.630258
O53	O	-0.614104	-1.642562	-0.381885
C54	C	-0.115465	-1.518371	-0.506159
C55	C	-0.057351	-1.518459	-0.506190
C56	C	-0.251848	-1.792198	-0.506103
C57	C	-0.251852	-1.908975	-0.506109
C58	C	-0.285318	-1.073554	-0.573160
C59	C	-0.285324	-0.963830	-0.573172
C60	C	-0.218368	-0.963850	-0.439039
C61	C	-0.218359	-1.073572	-0.439033
C62	C	-0.323976	-1.073542	-0.650598
C63	C	-0.323983	-0.963818	-0.650609
C64	C	-0.218322	-1.585526	-0.951783
C65	C	-0.218303	-1.585551	-1.061507
C66	C	-0.285170	-1.451061	-1.061452
C67	C	-0.285186	-1.451032	-0.951730
C68	C	-0.179718	-1.663176	-0.951816
C69	C	-0.179699	-1.663201	-1.061540
C70	C	-0.251853	-1.518152	-0.233121
C71	C	-0.251728	-1.518325	-0.116345
H72	H	-0.450852	-1.639981	-0.384249
C73	C	-0.378672	-0.923514	-0.620961
N74	N	-0.419862	-0.893158	-0.598628
C75	C	-0.309401	-1.113829	-0.760582
N76	N	-0.298427	-1.144173	-0.843423
C77	C	-0.181545	-0.903505	-0.365274
N78	N	-0.153811	-0.858055	-0.309712
C79	C	-0.321966	-1.377029	-0.891360
N80	N	-0.349669	-1.321285	-0.845890
C81	C	-0.125018	-1.633806	-0.911623
N82	N	-0.083820	-1.611681	-0.881349
C83	C	-0.694217	-1.726603	-0.297981
N84	N	-0.671599	-1.782284	-0.242331
C85	C	-0.375913	-1.119455	-0.611030
N86	N	-0.415032	-1.154037	-0.581225
C87	C	-0.199313	-1.767560	-0.905826
N88	N	-0.214069	-1.846186	-0.871186
H89	H	-0.309529	-0.929832	-0.727964
H90	H	-0.312382	-1.396316	-1.106109
H91	H	-0.141226	-1.634120	-1.095595
C92	C	-0.181523	-1.133922	-0.365263
N93	N	-0.153776	-1.179377	-0.309696
H94	H	-0.549903	-1.640078	-0.384280
C95	C	-0.808862	-1.726696	-0.298016
N96	N	-0.831463	-1.782411	-0.242377
H97	H	-0.190544	-1.744563	-1.091316
H98	H	-0.953198	-1.640360	-0.384362
C99	C	-0.808913	-1.309896	-0.714286
N100	N	-0.831529	-1.254209	-0.769931
C101	C	-1.060064	-1.659648	-0.365216
N102	N	-1.082685	-1.715366	-0.309612
H103	H	-1.052286	-1.396474	-0.627977
H104	H	-0.702061	-1.329043	-0.695074
C105	C	-0.557753	-1.376912	-0.647066
N106	N	-0.580377	-1.321232	-0.702707
C107	C	-0.945438	-1.377209	-0.647169
N108	N	-0.922834	-1.321498	-0.702808
H109	H	-0.450883	-1.396046	-0.627847
