data_functionalizedCrystal
_audit_creation_method	'MofGen! by Chris Wilmer'
_symmetry_space_group_name_H-M	'P1'
_symmetry_Int_Tables_number	1
_symmetry_cell_setting	triclinic
loop_
_symmetry_equiv_pos_as_xyz
  x,y,z
_cell_length_a	17.038272
_cell_length_b	10.540539
_cell_length_c	9.616153
_cell_angle_alpha	90.000094
_cell_angle_beta	90.001349
_cell_angle_gamma	87.818524
loop_
_atom_site_label
_atom_site_type_symbol
_atom_site_fract_x
_atom_site_fract_y
_atom_site_fract_z
O1	O	-1.038954	-0.275808	-0.115461
O2	O	-0.538954	0.224192	0.384539
O3	O	-0.811299	-0.271428	-0.115502
O4	O	-0.311299	0.228572	0.384498
O5	O	-0.930320	-0.089396	-0.115479
O6	O	-0.430320	0.410604	0.384521
O7	O	-0.919933	-0.457840	-0.115484
O8	O	-0.419933	0.042160	0.384516
O9	O	-0.930304	-0.089398	0.115813
O10	O	-0.430304	0.410602	0.615813
O11	O	-0.811282	-0.271431	0.115790
O12	O	-0.311282	0.228569	0.615790
O13	O	-1.038938	-0.275810	0.115831
O14	O	-0.538938	0.224190	0.615831
Zn15	Zn	-0.925107	-0.273621	0.152533
Zn16	Zn	-0.425107	0.226379	0.652533
Zn17	Zn	-0.925129	-0.273617	-0.152204
Zn18	Zn	-0.425129	0.226383	0.347796
O19	O	-0.919916	-0.457842	0.115807
O20	O	-0.419916	0.042158	0.615807
C21	C	-0.782139	-0.267446	0.000139
C22	C	-0.282139	0.232554	0.500139
C23	C	-0.695278	-0.255562	0.000123
C24	C	-0.195278	0.244438	0.500123
C25	C	-0.929533	-0.042021	0.000164
C26	C	-0.429533	0.457979	0.500164
C27	C	-0.927202	0.099144	0.000157
C28	C	-0.427202	0.599144	0.500157
C29	C	-1.068097	-0.279792	0.000187
C30	C	-0.568097	0.220208	0.500187
C31	C	-1.154958	-0.291676	0.000194
C32	C	-0.654958	0.208324	0.500194
C33	C	-0.645791	-0.364672	0.000122
C34	C	-0.145791	0.135328	0.500122
C35	C	-0.564176	-0.353498	0.000142
C36	C	-0.064176	0.146502	0.500142
C37	C	-0.532050	-0.233213	0.000151
C38	C	-0.032050	0.266787	0.500151
C39	C	-0.581544	-0.124094	0.000156
C40	C	-0.081544	0.375906	0.500156
C41	C	-0.663157	-0.135270	0.000147
C42	C	-0.163157	0.364730	0.500147
C43	C	-0.286065	-0.193733	0.000189
C44	C	0.213935	0.306267	0.500189
C45	C	-0.204446	-0.182566	0.000194
C46	C	0.295554	0.317434	0.500194
C47	C	-0.187084	-0.411971	0.000182
C48	C	0.312916	0.088029	0.500182
C49	C	-0.268699	-0.423136	0.000165
C50	C	0.231301	0.076864	0.500165
C51	C	-0.318186	-0.314017	0.000177
C52	C	0.181814	0.185983	0.500177
C53	C	-0.448627	-0.221788	0.000167
C54	C	0.051373	0.278212	0.500167
C55	C	-0.401607	-0.325443	0.000171
C56	C	0.098393	0.174557	0.500171
C57	C	-0.920703	-0.505217	0.000161
C58	C	-0.420703	-0.005217	0.500161
C59	C	-0.923034	-0.646382	0.000160
C60	C	-0.423034	-0.146382	0.500160
N61	N	-0.925098	-0.273623	0.360507
N62	N	-0.425098	0.226377	0.860507
C63	C	-0.837895	0.290901	-0.000379
C64	C	-0.337895	0.790901	0.499621
C65	C	-0.840258	0.144063	0.000142
C66	C	-0.340258	0.644063	0.500142
C67	C	-0.969035	0.156897	0.132243
C68	C	-0.469035	0.656897	0.632243
C69	C	-0.966067	0.303719	0.132354
C70	C	-0.466067	0.803719	0.632354
C71	C	-0.967854	0.304075	-0.130668
C72	C	-0.467854	0.804075	0.369332
C73	C	-0.968655	0.157018	-0.132414
C74	C	-0.468655	0.657018	0.367586
N75	N	-0.925144	-0.273606	-0.360178
N76	N	-0.425144	0.226394	0.139822
C77	C	-0.861235	-0.370633	0.580865
C78	C	-0.361235	0.129367	1.080865
C79	C	-0.861376	-0.371032	0.419697
C80	C	-0.361376	0.128968	0.919697
C81	C	-1.006891	-0.311386	0.418971
C82	C	-0.506891	0.188614	0.918971
C83	C	-1.006543	-0.312082	0.580189
C84	C	-0.506543	0.187918	1.080189
C85	C	-0.907983	-0.138588	0.580417
C86	C	-0.407983	0.361412	1.080417
C87	C	-0.906106	-0.139277	0.419190
C88	C	-0.406106	0.360723	0.919190
H89	H	-0.671941	-0.462621	0.000113
H90	H	-0.171941	0.037379	0.500113
H91	H	-1.028596	0.345854	0.138357
H92	H	-0.528596	0.845854	0.638357
F93	F	-0.968888	-0.044075	0.630249
F94	F	-0.468888	0.455925	1.130249
F95	F	-1.051510	0.117625	-0.142833
F96	F	-0.551510	0.617625	0.357167
F97	F	-1.049937	0.358147	-0.131817
F98	F	-0.549937	0.858147	0.368183
F99	F	-0.875473	-0.500613	0.633776
F100	F	-0.375473	-0.000613	1.133776
F101	F	-0.797234	0.092389	-0.123618
F102	F	-0.297234	0.592389	0.376382
F103	F	-0.925637	0.344350	0.261392
F104	F	-0.425637	0.844350	0.761392
H105	H	-0.807097	0.105398	0.094973
H106	H	-0.307097	0.605398	0.594973
F107	F	-0.511511	-0.469629	0.000135
F108	F	-0.011511	0.030371	0.500135
H109	H	-0.422461	-0.123851	0.000214
H110	H	0.077539	0.376149	0.500214
F111	F	-0.715825	-0.019139	0.000152
F112	F	-0.215825	0.480861	0.500152
F113	F	-0.928962	0.106724	-0.260152
F114	F	-0.428962	0.606724	0.239848
F115	F	-0.931036	0.104763	0.260709
F116	F	-0.431036	0.604763	0.760709
H117	H	-0.800602	-0.347232	0.380171
H118	H	-0.300602	0.152768	0.880171
F119	F	-1.026949	-0.439046	0.366182
F120	F	-0.526949	0.060954	0.866182
H121	H	-0.939722	0.338254	-0.230780
H122	H	-0.439722	0.838254	0.269220
F123	F	-0.547351	0.003923	0.000176
F124	F	-0.047351	0.503923	0.500176
F125	F	-0.435800	-0.453455	0.000166
F126	F	0.064200	0.046545	0.500166
H127	H	-0.800271	-0.347094	0.619665
H128	H	-0.300271	0.152906	1.119665
F129	F	-1.070572	-0.221957	0.368861
F130	F	-0.570572	0.278043	0.868861
H131	H	-0.872406	-0.471045	0.381118
H132	H	-0.372406	0.028955	0.881118
H133	H	-1.021552	-0.410820	0.617779
H134	H	-0.521552	0.089180	1.117779
F135	F	-0.302883	-0.551160	0.000147
F136	F	0.197117	-0.051160	0.500147
H137	H	-0.803683	0.324298	0.093800
H138	H	-0.303683	0.824298	0.593800
F139	F	-0.793010	0.332469	-0.124189
F140	F	-0.293010	0.832469	0.375811
H141	H	-1.032884	0.128587	0.137165
H142	H	-0.532884	0.628587	0.637165
F143	F	-0.831659	-0.094001	0.633609
F144	F	-0.331659	0.405999	1.133609
H145	H	-1.055624	-0.244671	0.619187
H146	H	-0.555624	0.255329	1.119187
H147	H	-0.845935	-0.110824	0.380979
H148	H	-0.345935	0.389176	0.880979
H149	H	-0.146783	-0.500809	0.000176
H150	H	0.353217	-0.000809	0.500176
F151	F	-0.170258	-0.054536	0.000229
F152	F	0.329742	0.445464	0.500229
H153	H	-0.949569	-0.063011	0.378903
H154	H	-0.449569	0.436989	0.878903
H155	H	-0.326348	-0.104880	0.000200
H156	H	0.173652	0.395120	0.500200
