data_functionalizedCrystal
_audit_creation_method	'MofGen! by Chris Wilmer'
_symmetry_space_group_name_H-M	'P1'
_symmetry_Int_Tables_number	1
_symmetry_cell_setting	triclinic
loop_
_symmetry_equiv_pos_as_xyz
  x,y,z
_cell_length_a	8.497366
_cell_length_b	18.215407
_cell_length_c	18.215405
_cell_angle_alpha	89.980602
_cell_angle_beta	90.055800
_cell_angle_gamma	89.967439
loop_
_atom_site_label
_atom_site_type_symbol
_atom_site_fract_x
_atom_site_fract_y
_atom_site_fract_z
Zn1	Zn	-0.891895	1.125179	0.292916
Zn2	Zn	-0.628071	1.125056	0.416042
Zn3	Zn	-0.628122	1.002080	0.292982
Zn4	Zn	-0.891803	1.002077	0.415934
O5	O	-0.759973	1.063598	0.354468
O6	O	-0.856915	1.228147	0.309267
O7	O	-0.407315	1.108692	0.399790
O8	O	-0.663171	1.018462	0.189989
O9	O	-0.663085	1.228056	0.399727
O10	O	-0.856964	1.108902	0.189941
O11	O	-0.407352	1.018342	0.309379
O12	O	-0.663082	0.899095	0.309274
O13	O	-1.112578	1.018458	0.399543
O14	O	-0.856808	0.899094	0.399606
O15	O	-1.112645	1.108900	0.309162
O16	O	-0.662996	1.108690	0.519012
O17	O	-0.856759	1.018338	0.518932
C18	C	-0.759942	0.872392	0.354436
C19	C	-0.759966	0.790593	0.354440
C20	C	-0.759897	1.063520	0.545675
C21	C	-0.759917	1.063554	0.627474
C22	C	-0.861061	0.525577	0.307457
C23	C	-0.861056	0.602436	0.307445
C24	C	-0.658919	0.602360	0.401504
C25	C	-0.658933	0.525503	0.401519
C26	C	-0.760002	0.487113	0.354491
C27	C	-0.759983	0.640829	0.354464
C28	C	-0.759976	0.724163	0.354452
C29	C	-0.760010	0.403774	0.354504
C30	C	-0.171453	1.063641	0.354401
C31	C	-0.350097	1.063543	0.354555
C32	C	-0.760004	1.255551	0.354501
C33	C	-0.760018	1.337350	0.354516
C34	C	-0.760083	1.063696	0.162515
C35	C	-0.760131	1.063738	0.080716
C36	C	-0.659210	1.110711	0.815684
C37	C	-0.659249	1.110744	0.892543
C38	C	-0.860848	1.016579	0.892500
C39	C	-0.860817	1.016551	0.815643
C40	C	-0.759989	1.063615	0.777237
C41	C	-0.760059	1.063677	0.930953
C42	C	-0.760101	1.063712	1.014287
C43	C	-0.759948	1.063581	0.693898
H44	H	-0.943357	0.494322	0.269163
H45	H	-0.943350	0.633749	0.269145
C46	C	-0.547731	0.644596	0.453223
N47	N	-0.463974	0.676408	0.492175
H48	H	-0.577113	1.149035	0.784416
C49	C	-0.547748	0.483191	0.453260
N50	N	-0.464007	0.451321	0.492230
C51	C	-0.548377	1.162550	0.934831
N52	N	-0.464863	1.201572	0.966683
C53	C	-0.971735	0.964803	0.934754
N54	N	-1.055251	0.925800	0.966579
C55	C	-0.971719	0.964754	0.773349
N56	N	-1.055262	0.925749	0.741492
