data_functionalizedCrystal
_audit_creation_method	'MofGen! by Chris Wilmer'
_symmetry_space_group_name_H-M	'P1'
_symmetry_Int_Tables_number	1
_symmetry_cell_setting	triclinic
loop_
_symmetry_equiv_pos_as_xyz
  x,y,z
_cell_length_a	10.654556
_cell_length_b	10.868271
_cell_length_c	11.792253
_cell_angle_alpha	89.993028
_cell_angle_beta	95.656932
_cell_angle_gamma	90.002712
loop_
_atom_site_label
_atom_site_type_symbol
_atom_site_fract_x
_atom_site_fract_y
_atom_site_fract_z
O1	O	1.667394	0.102293	-0.159448
O2	O	2.167394	0.602293	0.340552
O3	O	1.301874	0.102307	-0.174629
O4	O	1.801874	0.602307	0.325371
O5	O	1.493496	0.102274	-0.001890
O6	O	1.993496	0.602274	0.498110
O7	O	1.475772	0.102326	-0.332187
O8	O	1.975772	0.602326	0.167813
O9	O	1.493478	-0.102371	-0.001895
O10	O	1.993478	0.397629	0.498105
O11	O	1.301857	-0.102338	-0.174634
O12	O	1.801857	0.397662	0.325366
O13	O	1.667376	-0.102352	-0.159454
O14	O	2.167376	0.397648	0.340546
Zn15	Zn	1.484614	-0.134837	-0.167045
Zn16	Zn	1.984614	0.365163	0.332955
Zn17	Zn	1.484637	0.134792	-0.167038
Zn18	Zn	1.984637	0.634792	0.332962
O19	O	1.475755	-0.102319	-0.332193
O20	O	1.975755	0.397681	0.167807
C21	C	1.255071	-0.000014	-0.173516
C22	C	1.755071	0.499986	0.326484
C23	C	1.115637	-0.000010	-0.170176
C24	C	1.615637	0.499990	0.329824
C25	C	0.919114	0.111532	-0.165471
C26	C	1.419114	0.611532	0.334529
C27	C	1.050128	0.111540	-0.168602
C28	C	1.550128	0.611540	0.331398
C29	C	1.050128	-0.111575	-0.168608
C30	C	1.550128	0.388425	0.331392
C31	C	0.919118	-0.111582	-0.165469
C32	C	1.419118	0.388418	0.334531
N33	N	1.484607	-0.318851	-0.167049
N34	N	1.984607	0.181149	0.332951
C35	C	1.484617	-0.430188	-0.167050
C36	C	1.984617	0.069812	0.332950
C37	C	1.484634	-0.569866	-0.167039
C38	C	1.984634	-0.069866	0.332961
C39	C	1.714180	-0.000028	-0.160567
C40	C	2.214180	0.499972	0.339433
C41	C	1.853613	-0.000025	-0.163906
C42	C	2.353613	0.499975	0.336094
C43	C	1.492371	-0.000052	0.040401
C44	C	1.992371	0.499948	0.540401
C45	C	1.489029	-0.000064	0.166422
C46	C	1.989029	0.499936	0.666422
N47	N	1.484653	0.318806	-0.167024
N48	N	1.984653	0.818806	0.332976
C49	C	1.486314	-0.000070	0.268765
C50	C	1.986314	0.499930	0.768765
C51	C	1.482919	-0.000072	0.397159
C52	C	1.982919	0.499928	0.897159
C53	C	1.476880	-0.000016	0.625516
C54	C	1.976880	0.499984	1.125516
C55	C	1.480222	-0.000072	0.499496
C56	C	1.980222	0.499928	0.999496
H57	H	1.103453	0.202381	-0.169874
H58	H	1.603453	0.702381	0.330126
H59	H	0.865785	0.202369	-0.164198
H60	H	1.365785	0.702369	0.335802
Br61	Br	1.139032	-0.262966	-0.170738
Br62	Br	1.639032	0.237034	0.329262
H63	H	0.865785	-0.202430	-0.164194
H64	H	1.365785	0.297570	0.335806
