data_functionalizedCrystal
_audit_creation_method	'MofGen! by Chris Wilmer'
_symmetry_space_group_name_H-M	'P1'
_symmetry_Int_Tables_number	1
_symmetry_cell_setting	triclinic
loop_
_symmetry_equiv_pos_as_xyz
  x,y,z
_cell_length_a	10.685976
_cell_length_b	10.686285
_cell_length_c	17.077396
_cell_angle_alpha	85.608118
_cell_angle_beta	94.362269
_cell_angle_gamma	81.631153
loop_
_atom_site_label
_atom_site_type_symbol
_atom_site_fract_x
_atom_site_fract_y
_atom_site_fract_z
Zn1	Zn	1.979305	-0.653881	-0.318051
Zn2	Zn	1.995497	-0.866141	-0.175908
Zn3	Zn	1.767058	-0.637675	-0.197722
Zn4	Zn	1.783339	-0.849822	-0.318056
O5	O	1.881300	-0.751880	-0.252434
O6	O	2.159069	-0.695649	-0.290064
O7	O	1.965157	-0.835881	-0.068955
O8	O	1.781623	-0.462209	-0.222811
O9	O	2.170965	-0.851595	-0.185632
O10	O	1.937560	-0.474115	-0.311216
O11	O	1.797323	-0.668028	-0.084981
O12	O	1.591602	-0.652205	-0.222816
O13	O	1.809372	-0.823783	-0.427903
O14	O	1.603564	-0.808069	-0.311225
O15	O	1.953347	-0.679826	-0.427899
O16	O	1.980944	-1.041592	-0.185638
O17	O	1.825072	-1.029603	-0.290073
C18	C	1.551529	-0.726608	-0.269389
C19	C	1.410454	-0.715828	-0.276659
C20	C	1.906567	-1.081654	-0.235504
C21	C	1.917492	-1.222741	-0.228282
C22	C	2.212358	-0.777250	-0.235414
C23	C	2.353436	-0.788062	-0.228161
C24	C	1.881369	-0.751792	-0.457180
C25	C	1.881399	-0.751755	-0.544430
C26	C	1.855969	-0.420820	-0.269446
C27	C	1.845175	-0.279743	-0.276696
C28	C	1.956370	-0.676790	-0.585419
C29	C	1.956382	-0.676748	-0.667401
C30	C	1.881429	-0.751680	-0.708391
C31	C	1.806450	-0.826648	-0.667396
C32	C	1.806432	-0.826681	-0.585417
C33	C	1.806495	-0.826576	-0.838268
C34	C	1.806515	-0.826545	-0.920253
C35	C	1.956445	-0.676643	-0.920252
C36	C	1.956427	-0.676676	-0.838273
C37	C	1.881449	-0.751646	-0.797283
C38	C	1.881297	-0.751881	-0.048487
C39	C	1.881485	-0.751579	0.038757
H40	H	1.987759	-1.281882	-0.181298
H41	H	1.774904	-1.220609	-0.323672
H42	H	1.351343	-0.645740	-0.323746
H43	H	2.017409	-0.615775	-0.552051
H44	H	2.017434	-0.615708	-0.700771
C45	C	2.038918	-0.594171	-0.965334
H46	H	2.083566	-0.549563	-0.929179
H47	H	1.986146	-0.535129	-1.002650
H48	H	2.097944	-0.646960	-0.991977
C49	C	1.724061	-0.908959	-0.965342
H50	H	1.679391	-0.953600	-0.929191
H51	H	1.776849	-0.967973	-0.991986
H52	H	1.665054	-0.856138	-1.002659
C53	C	2.038873	-0.594254	-0.793185
H54	H	2.083521	-0.549591	-0.829337
H55	H	2.097880	-0.647059	-0.755867
H56	H	1.986070	-0.535240	-0.766543
C57	C	1.724066	-0.909086	-0.793176
H58	H	1.679452	-0.953732	-0.829326
H59	H	1.665030	-0.856349	-0.766516
H60	H	1.776892	-0.968117	-0.755873
C61	C	1.723998	-0.909177	-0.540325
H62	H	1.679379	-0.953817	-0.576475
H63	H	1.664967	-0.856424	-0.513671
H64	H	1.776808	-0.968212	-0.503016
C65	C	1.433288	-0.882756	-0.164549
H66	H	1.520812	-0.877822	-0.167835
H67	H	1.418177	-0.966425	-0.172671
H68	H	1.410150	-0.862420	-0.113889
H69	H	1.745417	-0.887654	-0.700778
