data_functionalizedCrystal
_audit_creation_method	'MofGen! by Chris Wilmer'
_symmetry_space_group_name_H-M	'P1'
_symmetry_Int_Tables_number	1
_symmetry_cell_setting	triclinic
loop_
_symmetry_equiv_pos_as_xyz
  x,y,z
_cell_length_a	15.995343
_cell_length_b	15.995350
_cell_length_c	9.130313
_cell_angle_alpha	90.000982
_cell_angle_beta	90.004085
_cell_angle_gamma	83.490779
loop_
_atom_site_label
_atom_site_type_symbol
_atom_site_fract_x
_atom_site_fract_y
_atom_site_fract_z
O1	O	1.110985	0.107892	-0.121645
O2	O	0.867209	0.121226	-0.121679
O3	O	0.995761	-0.007329	-0.121660
O4	O	0.982433	0.236447	-0.121664
O5	O	0.995759	-0.007325	0.121939
O6	O	0.867207	0.121230	0.121920
O7	O	1.110983	0.107895	0.121954
Cu8	Cu	0.989095	0.114563	0.144179
Cu9	Cu	0.989097	0.114559	-0.143905
O10	O	0.982431	0.236450	0.121934
C11	C	0.836013	0.120678	0.000116
C12	C	0.743062	0.119028	0.000102
C13	C	0.572876	0.116035	0.000122
C14	C	0.549530	0.023238	0.000123
C15	C	0.452852	0.021492	0.000685
C16	C	0.405316	0.113086	0.000140
C17	C	0.434407	0.159748	0.138969
C18	C	0.531199	0.160849	0.139077
C19	C	0.531112	0.162204	-0.137950
C20	C	0.434617	0.158778	-0.139766
C21	C	0.310618	0.111425	0.000155
C22	C	0.667574	0.117699	0.000117
C23	C	0.995209	-0.038522	0.000137
C24	C	0.993557	-0.131472	0.000128
C25	C	0.987625	-0.469220	0.000132
C26	C	0.896072	-0.421783	-0.000427
C27	C	0.897725	-0.325093	0.000122
C28	C	0.990567	-0.301659	0.000129
C29	C	1.035723	-0.342736	0.139240
C30	C	1.033423	-0.439372	0.139356
C31	C	1.035316	-0.439734	-0.137661
C32	C	1.035295	-0.342788	-0.139499
C33	C	0.992235	-0.206962	0.000133
C34	C	0.985960	-0.563917	0.000139
C35	C	1.142179	0.108444	0.000156
C36	C	1.235130	0.110093	0.000159
C37	C	0.982983	0.267643	0.000135
C38	C	0.984635	0.360594	0.000133
N39	N	0.989100	0.114565	0.346802
N40	N	0.989099	0.114550	-0.346527
C41	C	1.046037	0.057660	0.423462
C42	C	1.046035	0.057650	0.576799
C43	C	0.932156	0.171457	0.576801
C44	C	0.932154	0.171463	0.423467
C45	C	1.102983	0.000762	0.346797
C46	C	1.159925	-0.056146	0.423458
C47	C	1.159923	-0.056156	0.576794
C48	C	1.102978	0.000742	0.653471
H49	H	0.433834	-0.015034	-0.098813
H50	H	0.401660	0.225610	-0.148580
C51	C	0.993348	-0.304398	0.279089
N52	N	0.961424	-0.275524	0.384420
C53	C	0.587383	-0.025365	-0.134336
N54	N	0.615906	-0.061975	-0.235608
H55	H	1.005384	-0.460274	-0.243098
H56	H	0.545773	0.228899	0.145012
H57	H	0.578514	-0.012144	0.099532
C58	C	0.990735	-0.305929	-0.278532
N59	N	0.957165	-0.278170	-0.383250
C60	C	1.222550	-0.118742	0.339111
N61	N	1.269718	-0.165893	0.275583
H62	H	0.416060	0.124797	-0.242474
H63	H	1.206282	-0.102499	0.639210
C64	C	1.102979	0.000728	0.822147
N65	N	1.102985	0.000720	0.949192
C66	C	0.869522	0.234043	0.661151
N67	N	0.822346	0.281184	0.724683
H68	H	1.103932	-0.328612	0.144418
H69	H	0.434415	-0.014860	0.100787
C70	C	0.567387	0.117701	0.279805
N71	N	0.594641	0.085198	0.385802
C72	C	0.846864	-0.448224	0.133610
N73	N	0.809807	-0.468132	0.234579
H74	H	0.885790	0.217799	0.361050
H75	H	0.402561	0.227159	0.143741
H76	H	0.559382	0.132925	-0.243211
C77	C	0.407270	0.116497	0.279080
N78	N	0.386832	0.083916	0.384609
H79	H	0.545125	0.230508	-0.139290
H80	H	0.862229	-0.296671	-0.099598
H81	H	0.859481	-0.440315	-0.100186
H82	H	1.102817	-0.471496	-0.138591
C83	C	1.126765	-0.322045	-0.150835
N84	N	1.195665	-0.306424	-0.159360
C85	C	1.124227	-0.482942	0.147913
N86	N	1.192620	-0.515755	0.154367
H87	H	0.861989	-0.297226	0.100003
H88	H	1.000494	-0.457671	0.243338
H89	H	1.102991	0.000767	0.221942
