data_functionalizedCrystal
_audit_creation_method	'MofGen! by Chris Wilmer'
_symmetry_space_group_name_H-M	'P1'
_symmetry_Int_Tables_number	1
_symmetry_cell_setting	triclinic
loop_
_symmetry_equiv_pos_as_xyz
  x,y,z
_cell_length_a	12.645331
_cell_length_b	18.050589
_cell_length_c	12.645323
_cell_angle_alpha	90.025443
_cell_angle_beta	90.022676
_cell_angle_gamma	90.027200
loop_
_atom_site_label
_atom_site_type_symbol
_atom_site_fract_x
_atom_site_fract_y
_atom_site_fract_z
Zn1	Zn	1.620654	-0.295674	0.599442
Zn2	Zn	1.620503	-0.419873	0.422180
Zn3	Zn	1.443368	-0.295699	0.422186
Zn4	Zn	1.443317	-0.419824	0.599396
O5	O	1.531961	-0.357767	0.510801
O6	O	1.768981	-0.312159	0.575945
O7	O	1.596964	-0.403432	0.273834
O8	O	1.466970	-0.191771	0.445722
O9	O	1.768870	-0.403407	0.445711
O10	O	1.597221	-0.191753	0.575951
O11	O	1.466824	-0.312202	0.273838
O12	O	1.295014	-0.312155	0.445677
O13	O	1.466883	-0.403325	0.747749
O14	O	1.294977	-0.403349	0.575872
O15	O	1.597172	-0.312112	0.747783
O16	O	1.596914	-0.523791	0.445666
O17	O	1.466737	-0.523755	0.575866
C18	C	1.256531	-0.357750	0.510770
C19	C	1.138701	-0.357760	0.510783
C20	C	0.971125	-0.300126	0.429329
C21	C	1.093685	-0.300275	0.428970
C22	C	1.094160	-0.435993	0.480267
C23	C	0.971562	-0.435678	0.479711
C24	C	0.971557	-0.337906	0.623067
C25	C	1.094163	-0.336158	0.622443
C26	C	1.531833	-0.550720	0.510784
C27	C	1.531875	-0.633265	0.510811
C28	C	1.461154	-0.832724	0.581589
C29	C	1.435307	-0.882166	0.484854
C30	C	1.531979	-0.784396	0.510825
C31	C	1.557878	-0.882035	0.607571
C32	C	1.532078	-0.930381	0.510847
C33	C	1.506082	-0.832751	0.414039
C34	C	1.628697	-0.832616	0.536821
C35	C	1.602887	-0.882036	0.440020
C36	C	1.531919	-0.700297	0.510814
C37	C	1.532137	-1.014477	0.510847
C38	C	1.808466	-0.357786	0.510832
C39	C	1.926296	-0.357793	0.510846
C40	C	1.532039	-0.357710	0.787307
C41	C	1.532072	-0.357686	0.905137
C42	C	1.532118	-0.164062	0.510842
C43	C	1.532185	-0.081516	0.510859
C44	C	1.531944	-0.357771	0.235371
C45	C	1.532116	-0.357586	0.117542
C46	C	1.449855	-0.414797	1.072679
C47	C	1.450070	-0.415080	0.950119
C48	C	1.643766	-0.378927	0.949656
C49	C	1.643315	-0.379285	1.072254
C50	C	1.503651	-0.279014	1.072336
C51	C	1.501159	-0.279485	0.949729
H52	H	1.124811	-0.453148	0.399108
O53	O	1.474960	-0.492255	0.911356
H54	H	1.548049	-0.490888	0.862819
O55	O	1.682281	-0.910539	0.360677
H56	H	1.742805	-0.944322	0.402068
O57	O	1.676292	-0.454210	0.909008
H58	H	1.688809	-0.492229	0.976827
O59	O	1.476999	-0.804203	0.305640
H60	H	1.397015	-0.824540	0.283998
O61	O	1.574735	-0.220037	0.909181
H62	H	1.656896	-0.232808	0.934111
O63	O	0.930665	-0.263657	0.659835
H64	H	0.877619	-0.240099	0.598525
O65	O	0.932280	-0.494520	0.554926
H66	H	0.883608	-0.535342	0.510804
O67	O	1.381711	-0.804027	0.660743
H68	H	1.301527	-0.823873	0.638912
O69	O	0.930254	-0.317353	0.319826
H70	H	0.884674	-0.269276	0.289600
O71	O	1.340359	-0.397472	0.910242
H72	H	1.340403	-0.397655	0.822467
O73	O	1.675258	-0.455370	1.110159
H74	H	1.755716	-0.468500	1.080547
O75	O	1.327026	-0.910997	0.455721
H76	H	1.268333	-0.891253	0.514563
H77	H	1.122959	-0.313420	0.345809
O78	O	1.132732	-0.259901	0.652939
H79	H	1.183417	-0.237474	0.588848
H80	H	1.710423	-0.810837	0.558835
H81	H	1.579744	-0.903684	0.689379
H82	H	0.942911	-0.452544	0.397672
O83	O	1.133581	-0.223429	0.454297
H84	H	1.221356	-0.223458	0.454069
H85	H	1.123318	-0.480108	0.537776
H86	H	1.124810	-0.375097	0.686428
O87	O	0.933152	-0.393533	0.703532
H88	H	0.882077	-0.435146	0.663858
H89	H	1.366784	-0.401633	1.102153
H90	H	1.468461	-0.472682	1.103498
H91	H	1.706683	-0.339424	1.101934
H92	H	1.706699	-0.338575	0.920522
H93	H	1.423623	-0.259652	1.103240
H94	H	1.418962	-0.263466	0.920630
O95	O	1.583004	-0.222546	1.110768
H96	H	1.642431	-0.250259	1.161819
H97	H	0.941676	-0.241938	0.448251
