data_functionalizedCrystal
_audit_creation_method	'MofGen! by Chris Wilmer'
_symmetry_space_group_name_H-M	'P1'
_symmetry_Int_Tables_number	1
_symmetry_cell_setting	triclinic
loop_
_symmetry_equiv_pos_as_xyz
  x,y,z
_cell_length_a	6.817900
_cell_length_b	11.102183
_cell_length_c	14.858572
_cell_angle_alpha	93.467131
_cell_angle_beta	104.524003
_cell_angle_gamma	108.603876
loop_
_atom_site_label
_atom_site_type_symbol
_atom_site_fract_x
_atom_site_fract_y
_atom_site_fract_z
V1	V	-4.064537	-0.176638	-0.289959
O2	O	-4.024475	0.007665	-0.284441
O3	O	-4.041625	-0.349453	-0.287974
O4	O	-4.020827	-0.174282	-0.416420
O5	O	-4.045416	-0.168718	-0.155105
V6	V	-4.544254	-0.154551	-0.273829
O7	O	-4.334143	-0.225089	-0.325340
O8	O	-4.724846	-0.106100	-0.238448
O9	O	-4.343960	0.018263	-0.275814
O10	O	-4.701713	-0.338854	-0.279347
O11	O	-4.680771	-0.162472	-0.408683
O12	O	-4.364757	-0.156907	-0.147368
C13	C	-3.892674	-0.391570	-0.283399
C14	C	-3.955259	-0.532850	-0.282619
C15	C	-3.862503	-0.496103	-0.112284
C16	C	-3.845524	-0.544102	-0.026753
C17	C	-3.904335	-0.676848	-0.026025
C18	C	-3.980138	-0.761600	-0.110838
C19	C	-3.997117	-0.713601	-0.196369
C20	C	-3.938293	-0.580849	-0.197087
C21	C	-4.089886	-0.750348	-0.366703
C22	C	-4.031062	-0.617602	-0.367432
C23	C	-4.165689	-0.835100	-0.451515
C24	C	-4.182655	-0.787100	-0.537048
C25	C	-4.123836	-0.654346	-0.537772
C26	C	-4.048041	-0.569603	-0.452963
C27	C	-3.866143	-0.168121	-0.447244
C28	C	-3.911858	-0.167338	-0.550627
C29	C	-4.079176	-0.164478	-0.929195
C30	C	-4.032614	-0.165274	-0.823866
C31	C	-3.995519	-0.165909	-0.739915
C32	C	-3.948954	-0.166703	-0.634578
C33	C	-4.156253	0.060374	-0.280386
C34	C	-4.072907	0.201653	-0.281172
C35	C	-4.182783	-0.163072	-0.116539
C36	C	-4.116306	-0.163849	-0.013155
H37	H	-4.137694	-0.615276	-0.607422
O38	O	-4.043598	-0.904778	-0.110057
H39	H	-3.942119	-0.942873	-0.143173
O40	O	-3.799037	-0.352926	-0.113071
H41	H	-3.743478	-0.302058	-0.039730
O42	O	-4.264424	-0.878513	-0.628513
H43	H	-4.266358	-0.822840	-0.688112
O44	O	-3.886006	-0.728620	0.066227
H45	H	-3.939645	-0.835165	0.052478
O46	O	-3.984569	-0.426424	-0.453740
H47	H	-4.086055	-0.388327	-0.420629
O48	O	-3.763742	-0.452690	0.064721
H49	H	-3.871728	-0.396163	0.065005
O50	O	-4.229105	-0.978277	-0.450738
H51	H	-4.204538	-0.997418	-0.377016
