data_functionalizedCrystal
_audit_creation_method	'MofGen! by Chris Wilmer'
_symmetry_space_group_name_H-M	'P1'
_symmetry_Int_Tables_number	1
_symmetry_cell_setting	triclinic
loop_
_symmetry_equiv_pos_as_xyz
  x,y,z
_cell_length_a	19.121063
_cell_length_b	18.215407
_cell_length_c	18.215399
_cell_angle_alpha	89.988410
_cell_angle_beta	92.407307
_cell_angle_gamma	92.474914
loop_
_atom_site_label
_atom_site_type_symbol
_atom_site_fract_x
_atom_site_fract_y
_atom_site_fract_z
Zn1	Zn	-0.279490	1.112542	-0.428489
Zn2	Zn	0.220510	1.612542	0.071511
Zn3	Zn	-0.396951	1.107200	-0.310666
Zn4	Zn	0.103049	1.607200	0.189334
Zn5	Zn	-0.279530	0.989480	-0.305449
Zn6	Zn	0.220470	1.489480	0.194551
Zn7	Zn	-0.396918	0.984186	-0.433700
Zn8	Zn	0.103082	1.484186	0.066300
O9	O	-0.338222	1.048352	-0.369576
O10	O	0.161778	1.548352	0.130424
O11	O	-0.295069	1.214818	-0.412861
O12	O	0.204931	1.714818	0.087139
O13	O	-0.381405	1.091565	-0.206991
O14	O	0.118595	1.591565	0.293009
O15	O	-0.181240	1.010255	-0.317407
O16	O	0.318760	1.510255	0.182593
O17	O	-0.381366	1.210893	-0.326297
O18	O	0.118634	1.710893	0.173703
O19	O	-0.181211	1.100669	-0.407803
O20	O	0.318789	1.600669	0.092197
O21	O	-0.295136	1.005075	-0.203158
O22	O	0.204864	1.505075	0.296842
O23	O	-0.295105	0.885793	-0.322460
O24	O	0.204895	1.385793	0.177540
O25	O	-0.381311	1.001232	-0.535992
O26	O	0.118689	1.501232	-0.035992
O27	O	-0.381349	0.881903	-0.416686
O28	O	0.118651	1.381903	0.083314
O29	O	-0.295037	1.095535	-0.532163
O30	O	0.204963	1.595535	-0.032163
O31	O	-0.495231	1.086431	-0.331351
O32	O	0.004769	1.586431	0.168649
O33	O	-0.495207	0.996053	-0.421744
O34	O	0.004793	1.496053	0.078256
C35	C	-0.520703	1.040108	-0.377695
C36	C	-0.020703	1.540108	0.122305
C37	C	-0.598770	1.036648	-0.381193
C38	C	-0.098770	1.536648	0.118807
C39	C	-0.338228	0.857145	-0.369573
C40	C	0.161772	1.357145	0.130427
C41	C	-0.338248	0.775346	-0.369589
C42	C	0.161752	1.275346	0.130411
C43	C	-0.338166	1.048389	-0.561527
C44	C	0.161834	1.548389	-0.061527
C45	C	-0.338142	1.048405	-0.643324
C46	C	0.161858	1.548405	-0.143324
C47	C	-0.635434	1.082115	-0.335812
C48	C	-0.135434	1.582115	0.164188
C49	C	-0.708786	1.078865	-0.339106
C50	C	-0.208786	1.578865	0.160894
C51	C	-0.745471	1.030145	-0.387778
C52	C	-0.245471	1.530145	0.112222
C53	C	-0.708801	0.984677	-0.433163
C54	C	-0.208801	1.484677	0.066837
C55	C	-0.635451	0.987930	-0.429872
C56	C	-0.135451	1.487930	0.070128
C57	C	-0.966942	1.017969	-0.400070
C58	C	-0.466942	1.517969	0.099930
C59	C	-1.040297	1.014717	-0.403356
C60	C	-0.540297	1.514717	0.096644
C61	C	-1.040277	1.108907	-0.309300
C62	C	-0.540277	1.608907	0.190700
C63	C	-0.966925	1.112153	-0.306010
C64	C	-0.466925	1.612153	0.193990
C65	C	-0.930262	1.066688	-0.351398
C66	C	-0.430262	1.566688	0.148602
C67	C	-0.820448	1.026821	-0.391144
C68	C	-0.320448	1.526821	0.108856
C69	C	-0.855286	1.070016	-0.348035
C70	C	-0.355286	1.570016	0.151965
C71	C	-0.155028	1.056648	-0.361442
C72	C	0.344972	1.556648	0.138558
C73	C	-0.076962	1.060184	-0.357975
C74	C	0.423038	1.560184	0.142025
C75	C	-0.338217	1.240305	-0.369580
C76	C	0.161783	1.740305	0.130420
C77	C	-0.338214	1.322104	-0.369582
C78	C	0.161786	1.822104	0.130418
C79	C	-0.293300	1.512342	-0.414655
C80	C	0.206700	2.012342	0.085345
C81	C	-0.293306	1.589200	-0.414658
C82	C	0.206694	2.089200	0.085342
C83	C	-0.383167	1.585102	-0.324514
C84	C	0.116833	2.085102	0.175486
C85	C	-0.383164	1.508245	-0.324515
C86	C	0.116836	2.008245	0.175485
C87	C	-0.338226	1.471867	-0.369585
C88	C	0.161774	1.971867	0.130415
C89	C	-0.338236	1.625583	-0.369587
C90	C	0.161764	2.125583	0.130413
C91	C	-0.338244	1.708916	-0.369590
C92	C	0.161756	2.208916	0.130410
C93	C	-0.338219	1.388528	-0.369583
C94	C	0.161781	1.888528	0.130417
C95	C	-0.293192	1.003411	-0.829522
C96	C	0.206808	1.503411	-0.329522
C97	C	-0.293178	1.003425	-0.906381
C98	C	0.206822	1.503425	-0.406381
C99	C	-0.383009	1.093491	-0.910361
C100	C	0.116991	1.593491	-0.410361
C101	C	-0.383026	1.093473	-0.833504
C102	C	0.116974	1.593473	-0.333504
C103	C	-0.338114	1.048434	-0.793087
C104	C	0.161886	1.548434	-0.293087
C105	C	-0.338082	1.048466	-0.946802
C106	C	0.161918	1.548466	-0.446802
C107	C	-0.338067	1.048481	-1.030135
C108	C	0.161933	1.548481	-0.530135
C109	C	-0.338129	1.048418	-0.709748
C110	C	0.161871	1.548418	-0.209748
C111	C	-0.338227	1.048359	-0.178370
C112	C	0.161773	1.548359	0.321630
C113	C	-0.338053	1.048495	-0.096564
C114	C	0.161947	1.548495	0.403436
H115	H	-0.738635	1.115889	-0.302152
H116	H	-0.238635	1.615889	0.197848
H117	H	-0.825415	1.109687	-0.308409
H118	H	-0.325415	1.609687	0.191591
H119	H	-0.256723	1.622152	-0.451360
H120	H	0.243277	2.122152	0.048640
C121	C	-0.432068	1.624558	-0.275677
C122	C	0.067932	2.124558	0.224323
C123	C	-0.501556	1.602730	-0.294799
C124	C	-0.001556	2.102730	0.205201
C125	C	-0.546622	1.639068	-0.249831
C126	C	-0.046622	2.139068	0.250169
H127	H	-0.421896	1.612445	-0.225752
H128	H	0.078104	2.112445	0.274248
H129	H	-0.425682	1.676134	-0.282139
H130	H	0.074318	2.176134	0.217861
H131	H	-0.507939	1.551167	-0.288330
H132	H	-0.007939	2.051167	0.211670
H133	H	-0.511750	1.614844	-0.344716
H134	H	-0.011750	2.114844	0.155284
H135	H	-0.540236	1.690643	-0.256293
H136	H	-0.040236	2.190643	0.243707
H137	H	-0.536444	1.626952	-0.199909
H138	H	-0.036444	2.126952	0.300091
H139	H	-0.593775	1.624268	-0.262803
H140	H	-0.093775	2.124268	0.237197
C141	C	-0.432032	1.464253	-0.275706
C142	C	0.067968	1.964253	0.224294
C143	C	-0.477047	1.418113	-0.319378
C144	C	0.022953	1.918113	0.180622
C145	C	-0.522080	1.377585	-0.274447
C146	C	-0.022080	1.877585	0.225553
H147	H	-0.405256	1.435417	-0.242438
H148	H	0.094744	1.935417	0.257562
H149	H	-0.458834	1.496901	-0.248876
H150	H	0.041166	1.996901	0.251124
H151	H	-0.450248	1.385469	-0.346196
H152	H	0.049752	1.885469	0.153804
H153	H	-0.503839	1.446931	-0.352644
H154	H	-0.003839	1.946931	0.147356
H155	H	-0.548882	1.410233	-0.247617
H156	H	-0.048882	1.910233	0.252383
H157	H	-0.495298	1.348753	-0.241182
H158	H	0.004702	1.848753	0.258818
H159	H	-0.552632	1.346279	-0.304072
H160	H	-0.052632	1.846279	0.195928
H161	H	-1.070136	1.145924	-0.272348
H162	H	-0.570136	1.645924	0.227652
C163	C	-0.431687	1.142406	-0.793840
C164	C	0.068313	1.642406	-0.293840
C165	C	-0.391928	1.191350	-0.747937
C166	C	0.108072	1.691350	-0.247937
C167	C	-0.436730	1.236426	-0.711379
C168	C	0.063270	1.736426	-0.211379
H169	H	-0.458446	1.169305	-0.828833
H170	H	0.041554	1.669305	-0.328833
H171	H	-0.462286	1.112879	-0.765174
H172	H	0.037714	1.612879	-0.265174
H173	H	-0.361342	1.220873	-0.776601
H174	H	0.138658	1.720873	-0.276601
H175	H	-0.365170	1.164472	-0.712930
H176	H	0.134830	1.664472	-0.212930
H177	H	-0.467329	1.206900	-0.682713
H178	H	0.032671	1.706900	-0.182713
H179	H	-0.463487	1.263320	-0.746378
H180	H	0.036513	1.763320	-0.246378
H181	H	-0.409760	1.269636	-0.680225
H182	H	0.090240	1.769636	-0.180225
H183	H	-0.850326	0.987152	-0.430771
H184	H	-0.350326	1.487152	0.069229
H185	H	-0.419574	1.130160	-0.943278
H186	H	0.080426	1.630160	-0.443278
H187	H	-0.605570	1.121785	-0.296176
H188	H	-0.105570	1.621785	0.203824
H189	H	-0.937057	1.151825	-0.266378
H190	H	-0.437057	1.651825	0.233622
C191	C	-0.244412	0.954427	-0.785772
C192	C	0.255588	1.454427	-0.285772
C193	C	-0.205084	0.914985	-0.834136
C194	C	0.294916	1.414985	-0.334136
C195	C	-0.160149	0.869843	-0.793862
C196	C	0.339851	1.369843	-0.293862
H197	H	-0.213750	0.983874	-0.754426
H198	H	0.286250	1.483874	-0.254426
H199	H	-0.271275	0.921101	-0.756998
H200	H	0.228725	1.421101	-0.256998
H201	H	-0.178222	0.948307	-0.862897
H202	H	0.321778	1.448307	-0.362897
H203	H	-0.235727	0.885525	-0.865482
H204	H	0.264273	1.385525	-0.365482
H205	H	-0.187012	0.836517	-0.765089
H206	H	0.312988	1.336517	-0.265089
H207	H	-0.129491	0.899295	-0.762518
H208	H	0.370509	1.399295	-0.262518
H209	H	-0.133464	0.843071	-0.826671
H210	H	0.366536	1.343071	-0.326671
H211	H	-0.256599	0.966762	-0.936043
H212	H	0.243401	1.466762	-0.436043
H213	H	-1.070165	0.975052	-0.443003
H214	H	-0.570165	1.475052	0.056997
H215	H	-0.937096	0.980948	-0.437025
H216	H	-0.437096	1.480948	0.062975
H217	H	-0.738677	0.945011	-0.472796
H218	H	-0.238677	1.445011	0.027204
H219	H	-0.256708	1.482725	-0.451353
H220	H	0.243292	1.982725	0.048647
C221	C	-0.595768	0.938483	-0.479180
C222	C	-0.095768	1.438483	0.020820
C223	C	-0.643593	0.895107	-0.522497
C224	C	-0.143593	1.395107	-0.022497
C225	C	-0.607063	0.849543	-0.567926
C226	C	-0.107063	1.349543	-0.067926
H227	H	-0.567107	0.967809	-0.510046
H228	H	-0.067107	1.467809	-0.010046
H229	H	-0.567214	0.907660	-0.449741
H230	H	-0.067214	1.407660	0.050259
H231	H	-0.672134	0.925925	-0.551932
H232	H	-0.172134	1.425925	-0.051932
H233	H	-0.672255	0.865765	-0.491650
H234	H	-0.172255	1.365765	0.008350
H235	H	-0.578509	0.818721	-0.538487
H236	H	-0.078509	1.318721	-0.038487
H237	H	-0.578403	0.878875	-0.598787
H238	H	-0.078403	1.378875	-0.098787
H239	H	-0.639506	0.820102	-0.597317
H240	H	-0.139506	1.320102	-0.097317
