data_functionalizedCrystal
_audit_creation_method	'MofGen! by Chris Wilmer'
_symmetry_space_group_name_H-M	'P1'
_symmetry_Int_Tables_number	1
_symmetry_cell_setting	triclinic
loop_
_symmetry_equiv_pos_as_xyz
  x,y,z
_cell_length_a	10.654550
_cell_length_b	9.065218
_cell_length_c	9.130313
_cell_angle_alpha	90.000552
_cell_angle_beta	89.996220
_cell_angle_gamma	84.750394
loop_
_atom_site_label
_atom_site_type_symbol
_atom_site_fract_x
_atom_site_fract_y
_atom_site_fract_z
O1	O	1.668655	0.207228	-0.121914
O2	O	1.303255	0.226972	-0.121889
O3	O	1.493507	0.002416	-0.121899
O4	O	1.478402	0.431784	-0.121904
O5	O	1.493505	0.002422	0.121700
O6	O	1.303252	0.226978	0.121709
O7	O	1.668653	0.207234	0.121685
Cu8	Cu	1.485952	0.217107	0.143940
Cu9	Cu	1.485955	0.217100	-0.144144
O10	O	1.478400	0.431790	0.121695
C11	C	1.256450	0.225525	-0.000087
C12	C	1.116989	0.221188	-0.000078
C13	C	1.038027	0.353403	-0.000101
C14	C	0.906990	0.349319	-0.000126
C15	C	0.933890	0.080793	-0.000112
C16	C	1.064925	0.084879	-0.000076
C17	C	1.022496	0.508434	-0.000115
C18	C	0.891459	0.504350	-0.000141
C19	C	1.492055	-0.052559	-0.000102
C20	C	1.487714	-0.216378	-0.000109
C21	C	1.715457	0.208681	-0.000120
C22	C	1.854918	0.213018	-0.000139
C23	C	1.479852	0.486766	-0.000106
C24	C	1.484193	0.650585	-0.000108
N25	N	1.485959	0.217111	0.346563
N26	N	1.485957	0.217084	-0.346767
C27	C	1.570225	0.117712	0.423210
C28	C	1.570222	0.117694	0.576547
C29	C	1.401682	0.316488	0.576575
C30	C	1.401681	0.316497	0.423241
C31	C	1.667534	0.002944	0.423195
C32	C	1.667531	0.002926	0.576532
H33	H	0.891483	-0.030185	-0.000133
C34	C	0.835378	0.583240	-0.137873
C35	C	0.760829	0.497777	-0.248898
C36	C	0.704747	0.576660	-0.386625
C37	C	0.723215	0.741006	-0.413327
C38	C	0.797768	0.826478	-0.302299
C39	C	0.853850	0.747595	-0.164572
H40	H	0.747155	0.376110	-0.229135
H41	H	0.649558	0.513387	-0.468815
H42	H	0.681700	0.799400	-0.515281
H43	H	0.811442	0.948145	-0.322062
H44	H	0.909039	0.810868	-0.082382
C45	C	1.151788	-0.060556	-0.000032
C46	C	1.245610	-0.094693	-0.126491
C47	C	1.332476	-0.240133	-0.126443
C48	C	1.325519	-0.351438	0.000063
C49	C	1.231693	-0.317304	0.126531
C50	C	1.144827	-0.171864	0.126484
H51	H	1.250764	-0.012296	-0.220147
H52	H	1.401933	-0.265400	-0.220064
H53	H	1.389822	-0.459102	0.000098
H54	H	1.226540	-0.399701	0.220187
H55	H	1.075371	-0.146597	0.220104
H56	H	1.636593	-0.104243	0.624083
H57	H	1.333064	0.397404	0.639023
C58	C	1.308980	0.425825	0.338922
C59	C	1.216343	0.535221	0.423262
C60	C	1.123638	0.644551	0.338940
C61	C	1.123569	0.644485	0.170279
C62	C	1.216209	0.535085	0.085929
C63	C	1.308915	0.425755	0.170251
H64	H	1.216391	0.535273	0.548123
H65	H	1.055060	0.725537	0.401382
H66	H	1.054943	0.725418	0.107859
H67	H	1.216161	0.535033	-0.038932
H68	H	1.377493	0.344770	0.107809
C69	C	1.637951	-0.150252	0.366958
C70	C	1.724907	-0.289278	0.407686
C71	C	1.695322	-0.442468	0.351448
C72	C	1.578782	-0.456631	0.254483
C73	C	1.491818	-0.317600	0.213750
C74	C	1.521403	-0.164411	0.269988
H75	H	1.811184	-0.278797	0.479470
H76	H	1.759699	-0.545387	0.381602
H77	H	1.556881	-0.570032	0.212853
H78	H	1.405541	-0.328081	0.141966
H79	H	1.457026	-0.061491	0.239834
C80	C	1.070936	0.575126	-0.142189
C81	C	1.047981	0.501733	-0.290721
C82	C	1.096420	0.568420	-0.432799
C83	C	1.167814	0.708501	-0.426345
C84	C	1.190772	0.781902	-0.277808
C85	C	1.142333	0.715215	-0.135730
H86	H	0.995128	0.398030	-0.295503
H87	H	1.079424	0.514083	-0.542756
H88	H	1.203671	0.757866	-0.531520
H89	H	1.243625	0.885605	-0.273025
H90	H	1.159328	0.769552	-0.025773
H91	H	1.758860	0.038879	0.375630
H92	H	1.764142	0.028206	0.618142
H93	H	0.845972	0.551205	0.105027
H94	H	1.052066	0.569069	0.101835
