data_functionalizedCrystal
_audit_creation_method	'MofGen! by Chris Wilmer'
_symmetry_space_group_name_H-M	'P1'
_symmetry_Int_Tables_number	1
_symmetry_cell_setting	triclinic
loop_
_symmetry_equiv_pos_as_xyz
  x,y,z
_cell_length_a	16.974897
_cell_length_b	8.597304
_cell_length_c	15.455313
_cell_angle_alpha	85.021039
_cell_angle_beta	83.675220
_cell_angle_gamma	83.879398
loop_
_atom_site_label
_atom_site_type_symbol
_atom_site_fract_x
_atom_site_fract_y
_atom_site_fract_z
O1	O	1.058258	0.184885	-0.160153
O2	O	0.827581	0.211688	-0.145981
O3	O	0.946656	-0.028600	-0.136371
O4	O	0.939184	0.425173	-0.169763
O5	O	0.939846	-0.014915	0.007345
O6	O	0.820771	0.225373	-0.002264
O7	O	1.051449	0.198569	-0.016436
Cu8	Cu	0.935488	0.213220	0.003772
Cu9	Cu	0.943542	0.197037	-0.166189
O10	O	0.932374	0.438857	-0.026046
C11	C	0.794610	0.217761	-0.071992
C12	C	0.706511	0.215450	-0.065642
C13	C	0.668827	0.206909	-0.140993
C14	C	0.586047	0.204764	-0.135016
C15	C	0.540954	0.211148	-0.053686
C16	C	0.578643	0.219694	0.021670
C17	C	0.661421	0.221851	0.015691
C18	C	0.292986	0.205509	-0.027405
C19	C	0.210203	0.203347	-0.021431
C20	C	0.217613	0.188420	-0.178118
C21	C	0.300392	0.190568	-0.184089
C22	C	0.338074	0.199122	-0.108734
N23	N	0.456339	0.208951	-0.047574
N24	N	0.422686	0.201331	-0.114847
C25	C	0.942069	-0.079806	-0.060093
C26	C	0.938539	-0.252772	-0.046924
C27	C	1.084420	0.192496	-0.090427
C28	C	1.172519	0.194807	-0.096782
C29	C	0.936960	0.490063	-0.102326
C30	C	0.940491	0.663029	-0.115501
N31	N	0.929830	0.224602	0.123314
N32	N	0.949206	0.185643	-0.285731
C33	C	0.980435	0.122556	0.172787
C34	C	0.976163	0.131178	0.263250
C35	C	0.921289	0.241854	0.304238
C36	C	0.870678	0.343904	0.254759
C37	C	0.874947	0.335274	0.164298
C38	C	0.902864	0.279063	0.574330
C39	C	0.898601	0.287689	0.664797
C40	C	1.004085	0.074960	0.673282
C41	C	1.008352	0.066346	0.582819
C42	C	0.957739	0.168390	0.533348
N43	N	0.916923	0.250672	0.396705
N44	N	0.962101	0.159563	0.440883
H45	H	0.541921	0.224902	0.087890
H46	H	0.825994	0.434013	0.288137
H47	H	0.705537	0.201706	-0.207220
C48	C	0.847877	0.390050	0.520771
C49	C	0.798927	0.488850	0.576028
C50	C	0.748268	0.591131	0.526716
H51	H	0.815809	0.331065	0.492015
H52	H	0.878792	0.451424	0.478599
H53	H	0.768015	0.427483	0.618185
H54	H	0.830973	0.547870	0.604785
H55	H	0.779183	0.652505	0.484543
H56	H	0.716206	0.532133	0.497962
H57	H	0.715054	0.658188	0.564199
C58	C	0.946284	-0.256942	-0.207299
C59	C	0.947357	-0.369269	-0.267922
C60	C	0.952682	-0.295592	-0.352495
H61	H	0.993821	-0.206131	-0.217778
H62	H	0.901619	-0.181590	-0.213072
H63	H	0.992018	-0.444593	-0.262153
H64	H	0.899825	-0.420088	-0.257472
H65	H	0.908017	-0.220241	-0.358268
H66	H	1.000219	-0.244783	-0.362965
H67	H	0.953404	-0.371792	-0.393638
H68	H	0.186923	0.181459	-0.239468
H69	H	0.833737	0.418368	0.124018
C70	C	0.545228	0.195715	-0.216917
C71	C	0.560223	0.325755	-0.275153
C72	C	0.522644	0.317460	-0.350618
H73	H	0.489459	0.195417	-0.201842
H74	H	0.565348	0.102177	-0.243689
H75	H	0.540099	0.419269	-0.248386
H76	H	0.615984	0.326079	-0.290252
H77	H	0.542764	0.223921	-0.377390
H78	H	0.466877	0.317158	-0.335535
H79	H	0.532819	0.405681	-0.390143
H80	H	0.692102	0.228812	0.077049
H81	H	0.337103	0.185358	-0.250316
H82	H	1.017370	0.048084	0.303530
C83	C	0.932539	-0.332950	0.044843
C84	C	0.863088	-0.270909	0.092534
C85	C	0.857527	-0.344741	0.177067
H86	H	0.977591	-0.315651	0.072825
H87	H	0.930811	-0.442428	0.041851
H88	H	0.864822	-0.161458	0.095529
H89	H	0.818023	-0.288207	0.064579
H90	H	0.855800	-0.454219	0.174075
H91	H	0.902582	-0.327437	0.205040
H92	H	0.810401	-0.302668	0.209433
C93	C	1.067954	-0.053984	0.538488
C94	C	1.111345	-0.141537	0.601180
C95	C	1.166252	-0.252409	0.560376
H96	H	1.103349	-0.001728	0.496661
H97	H	1.040365	-0.122084	0.510119
H98	H	1.138932	-0.073446	0.629535
H99	H	1.075972	-0.193827	0.643010
H100	H	1.138664	-0.320509	0.532007
H101	H	1.201641	-0.200139	0.518550
H102	H	1.195695	-0.311836	0.602907
C103	C	1.040040	0.002231	0.128457
C104	C	1.083428	-0.085318	0.191153
C105	C	1.138335	-0.196196	0.150354
H106	H	1.075437	0.054483	0.086630
H107	H	1.012452	-0.065870	0.100088
H108	H	1.111015	-0.017227	0.219508
H109	H	1.048053	-0.137604	0.232982
H110	H	1.110747	-0.264297	0.121985
H111	H	1.173727	-0.143931	0.108529
H112	H	1.167775	-0.255621	0.192888
H113	H	0.173487	0.208591	0.044797
H114	H	0.323657	0.212464	0.033956
H115	H	1.045292	-0.008121	0.713569
H116	H	0.853913	0.377821	0.698164
