data_functionalizedCrystal
_audit_creation_method	'MofGen! by Chris Wilmer'
_symmetry_space_group_name_H-M	'P1'
_symmetry_Int_Tables_number	1
_symmetry_cell_setting	triclinic
loop_
_symmetry_equiv_pos_as_xyz
  x,y,z
_cell_length_a	10.540539
_cell_length_b	10.540539
_cell_length_c	9.616153
_cell_angle_alpha	89.999906
_cell_angle_beta	89.995174
_cell_angle_gamma	84.525492
loop_
_atom_site_label
_atom_site_type_symbol
_atom_site_fract_x
_atom_site_fract_y
_atom_site_fract_z
O1	O	1.685892	0.178895	-0.115573
O2	O	1.316479	0.195751	-0.115589
O3	O	1.509614	0.002617	-0.115579
O4	O	1.492758	0.372030	-0.115583
O5	O	1.509587	0.002621	0.115712
O6	O	1.316452	0.195755	0.115702
O7	O	1.685865	0.178899	0.115718
Zn8	Zn	1.501155	0.187328	0.152433
Zn9	Zn	1.501190	0.187323	-0.152304
O10	O	1.492731	0.372034	0.115708
C11	C	1.269163	0.194489	0.000054
C12	C	1.128215	0.190707	0.000048
C13	C	0.944788	0.045790	0.000589
C14	C	1.091406	0.049624	0.000054
C15	C	1.066557	0.258600	-0.132027
C16	C	0.920013	0.253785	-0.132123
C17	C	0.919494	0.256660	0.130899
C18	C	1.066476	0.257959	0.132630
C19	C	1.508336	-0.044684	0.000064
C20	C	1.504554	-0.185632	0.000056
C21	C	1.359637	-0.369059	-0.000469
C22	C	1.363471	-0.222441	0.000052
C23	C	1.572435	-0.247288	0.132138
C24	C	1.567620	-0.393832	0.132249
C25	C	1.570519	-0.394355	-0.130772
C26	C	1.571819	-0.247373	-0.132518
C27	C	1.733182	0.180161	0.000072
C28	C	1.874130	0.183943	0.000069
C29	C	1.494008	0.419335	0.000062
C30	C	1.497790	0.560283	0.000060
N31	N	1.501140	0.187331	0.360407
N32	N	1.501215	0.187310	-0.360278
C33	C	1.397510	0.290298	0.580772
C34	C	1.397739	0.290684	0.419604
C35	C	1.633864	0.217464	0.418862
C36	C	1.633299	0.218193	0.580080
C37	C	1.473368	0.053892	0.580319
C38	C	1.470321	0.054757	0.419092
H39	H	1.107427	0.208361	0.230338
H40	H	1.672423	-0.441581	-0.131656
H41	H	1.309662	-0.180683	0.094886
N42	N	0.856947	0.391644	0.132088
H43	H	0.799500	0.405680	0.048340
H44	H	0.804863	0.406336	0.219771
N45	N	0.882654	0.187293	-0.262880
H46	H	0.787279	0.183501	-0.264249
H47	H	0.909106	0.235985	-0.346824
H48	H	1.548980	-0.022762	0.618439
N49	N	1.709689	-0.217729	0.138634
H50	H	1.729232	-0.163950	0.055826
H51	H	1.724243	-0.169615	0.227145
N52	N	1.666841	0.344944	0.365370
H53	H	1.677743	0.403881	0.446413
H54	H	1.748841	0.332907	0.310554
H55	H	1.378631	0.025213	0.621052
N56	N	1.738580	0.120815	0.368071
H57	H	1.741849	0.122716	0.263128
H58	H	1.822975	0.142097	0.407015
H59	H	1.109157	0.211434	-0.230318
H60	H	1.540848	-0.025564	0.378801
N61	N	0.906888	-0.028032	0.126050
H62	H	0.866793	-0.106437	0.094537
H63	H	0.984968	-0.054390	0.183860
N64	N	1.098553	0.394211	0.143202
H65	H	1.153804	0.414366	0.061831
H66	H	1.017321	0.453353	0.142076
H67	H	1.517430	-0.422030	0.230979
H68	H	1.299122	0.272553	0.380085
H69	H	0.887936	0.211004	0.231010
N70	N	1.665540	0.347135	0.629866
H71	H	1.592791	0.388298	0.687521
H72	H	1.745470	0.336440	0.688281
H73	H	1.298585	0.272445	0.619578
N74	N	1.146724	-0.021614	-0.125587
H75	H	1.242307	-0.019418	-0.126457
H76	H	1.125564	-0.112992	-0.121452
N77	N	1.702012	-0.457384	0.140202
H78	H	1.764117	-0.390167	0.143627
H79	H	1.711666	-0.511697	0.226773
N80	N	1.509971	-0.190850	0.262338
H81	H	1.437716	-0.125361	0.236066
H82	H	1.475636	-0.260686	0.318952
N83	N	1.420902	0.420688	0.634370
H84	H	1.435773	0.478459	0.553381
H85	H	1.344190	0.457502	0.688960
N86	N	1.292720	-0.166007	-0.125363
H87	H	1.334432	-0.202829	-0.212911
H88	H	1.201257	-0.186965	-0.121808
H89	H	1.303917	-0.397661	-0.095187
H90	H	0.872044	0.355250	-0.138119
N91	N	1.340946	0.024537	0.368586
H92	H	1.302454	0.096408	0.307931
H93	H	1.350319	-0.057149	0.313055
N94	N	1.510063	-0.436151	-0.263384
H95	H	1.434909	-0.484924	-0.239989
H96	H	1.480196	-0.358720	-0.320700
H97	H	1.304122	-0.399265	0.093714
H98	H	1.088911	0.362208	-0.136942
H99	H	1.415638	0.389668	0.381024
H100	H	1.522152	-0.206516	-0.230229
H101	H	1.674680	-0.223152	-0.140490
N102	N	1.738659	0.122711	0.631779
H103	H	1.700987	0.056034	0.690169
H104	H	1.785250	0.080409	0.549772
N105	N	1.147834	-0.021138	0.125466
H106	H	1.126889	-0.112612	0.122038
H107	H	1.243386	-0.018688	0.125293
H108	H	0.914592	-0.009712	-0.093600
