data_functionalizedCrystal
_audit_creation_method	'MofGen! by Chris Wilmer'
_symmetry_space_group_name_H-M	'P1'
_symmetry_Int_Tables_number	1
_symmetry_cell_setting	triclinic
loop_
_symmetry_equiv_pos_as_xyz
  x,y,z
_cell_length_a	15.944551
_cell_length_b	10.654550
_cell_length_c	9.730223
_cell_angle_alpha	89.997037
_cell_angle_beta	90.002672
_cell_angle_gamma	83.991821
loop_
_atom_site_label
_atom_site_type_symbol
_atom_site_fract_x
_atom_site_fract_y
_atom_site_fract_z
O1	O	-1.115458	-0.161966	0.114143
O2	O	-0.871024	-0.181934	0.114177
O3	O	-0.998861	0.010862	0.114154
O4	O	-0.987621	-0.354762	0.114166
O5	O	-0.998857	0.010867	-0.114426
O6	O	-0.871020	-0.181930	-0.114403
O7	O	-1.115454	-0.161961	-0.114437
Zn8	Zn	-0.993236	-0.171945	-0.150712
Zn9	Zn	-0.993242	-0.171951	0.150452
O10	O	-0.987617	-0.354757	-0.114414
C11	C	-0.839723	-0.181103	-0.000109
C12	C	-0.746463	-0.178618	-0.000096
C13	C	-0.998034	0.057652	-0.000134
C14	C	-0.995565	0.197063	-0.000129
C15	C	-1.146755	-0.162792	-0.000148
C16	C	-1.240015	-0.165278	-0.000152
C17	C	-0.530880	-0.053173	-0.000127
C18	C	-0.470199	-0.111428	0.112577
C19	C	-0.575711	-0.174122	-0.000112
C20	C	-0.470217	-0.111452	-0.112785
C21	C	-0.410773	-0.169770	-0.000134
C22	C	-0.516259	-0.232409	0.112684
C23	C	-0.516283	-0.232416	-0.112779
C24	C	-0.455620	-0.290759	-0.000047
C25	C	-0.670728	-0.176625	-0.000099
C26	C	-0.315757	-0.167276	-0.000138
C27	C	-0.988444	-0.401547	-0.000123
C28	C	-0.990913	-0.540958	-0.000119
N29	N	-0.993238	-0.171939	-0.356249
C30	C	-1.070833	0.277523	-0.000144
C31	C	-1.068508	0.408513	-0.000134
C32	C	-0.915639	0.378572	-0.000100
C33	C	-0.917965	0.247584	-0.000101
C34	C	-1.159090	0.294810	-0.000169
C35	C	-1.156765	0.425801	-0.000159
C36	C	-0.941861	-0.095721	-0.428192
C37	C	-0.941863	-0.095727	-0.572075
C38	C	-1.044626	-0.248173	-0.572058
C39	C	-1.044619	-0.248173	-0.428178
C40	C	-0.882534	-0.007703	-0.428202
C41	C	-0.882536	-0.007709	-0.572085
N42	N	-0.993247	-0.171946	0.355988
H43	H	-0.563632	0.047204	0.000009
C44	C	-0.918245	0.120509	-0.367913
N45	N	-0.945142	0.217079	-0.322502
H46	H	-0.816285	-0.039427	-0.389158
C47	C	-0.910501	0.126442	-0.624855
N48	N	-0.931568	0.227480	-0.664600
H49	H	-0.536544	-0.283529	0.208071
C50	C	-0.442627	-0.042319	0.241290
N51	N	-0.421861	0.009742	0.338231
H52	H	-0.819276	-0.047993	-0.616709
H53	H	-0.423043	-0.391240	0.000019
C54	C	-0.543885	-0.301461	-0.241505
N55	N	-0.564679	-0.353455	-0.338473
C56	C	-0.830284	0.434158	-0.000085
N57	N	-0.765993	0.476024	-0.000080
C58	C	-1.197056	0.247167	-0.133506
N59	N	-1.225650	0.211282	-0.233939
C60	C	-0.442680	-0.042312	-0.241505
N61	N	-0.421943	0.009773	-0.338451
H62	H	-1.086457	-0.310242	-0.630641
C63	C	-1.205723	0.255742	0.129050
N64	N	-1.240845	0.226316	0.226378
C65	C	-0.835164	0.159082	-0.000054
N66	N	-0.772795	0.092421	-0.000015
H67	H	-1.183440	0.471787	0.098532
H68	H	-1.190018	0.467993	-0.095822
C69	C	-1.101132	-0.332027	-0.349046
N70	N	-1.143701	-0.395188	-0.289443
