data_functionalizedCrystal
_audit_creation_method	'MofGen! by Chris Wilmer'
_symmetry_space_group_name_H-M	'P1'
_symmetry_Int_Tables_number	1
_symmetry_cell_setting	triclinic
loop_
_symmetry_equiv_pos_as_xyz
  x,y,z
_cell_length_a	14.044191
_cell_length_b	14.044220
_cell_length_c	13.596369
_cell_angle_alpha	89.993157
_cell_angle_beta	89.997249
_cell_angle_gamma	93.190327
loop_
_atom_site_label
_atom_site_type_symbol
_atom_site_fract_x
_atom_site_fract_y
_atom_site_fract_z
O1	O	1.277174	0.230202	-0.081748
O2	O	1.527174	0.480202	0.168252
O3	O	1.777174	0.730202	0.418252
O4	O	2.027174	0.980202	0.668252
O5	O	1.000501	0.221889	-0.081761
O6	O	1.250501	0.471889	0.168239
O7	O	1.500501	0.721889	0.418239
O8	O	1.750501	0.971889	0.668239
O9	O	1.134685	0.087709	-0.081745
O10	O	1.384685	0.337709	0.168255
O11	O	1.634685	0.587709	0.418255
O12	O	1.884685	0.837709	0.668255
O13	O	1.142990	0.364381	-0.081764
O14	O	1.392990	0.614381	0.168236
O15	O	1.642990	0.864381	0.418236
O16	O	1.892990	1.114381	0.668236
O17	O	1.134669	0.087700	0.081838
O18	O	1.384669	0.337700	0.331838
O19	O	1.634669	0.587700	0.581838
O20	O	1.884669	0.837700	0.831838
O21	O	1.000486	0.221880	0.081822
O22	O	1.250486	0.471880	0.331822
O23	O	1.500486	0.721880	0.581822
O24	O	1.750486	0.971880	0.831822
O25	O	1.277158	0.230193	0.081835
O26	O	1.527158	0.480193	0.331835
O27	O	1.777158	0.730193	0.581835
O28	O	2.027158	0.980193	0.831835
Zn29	Zn	1.138820	0.226035	0.107801
Zn30	Zn	1.388820	0.476035	0.357801
Zn31	Zn	1.638820	0.726035	0.607801
Zn32	Zn	1.888820	0.976035	0.857801
Zn33	Zn	1.138840	0.226047	-0.107727
Zn34	Zn	1.388840	0.476047	0.142273
Zn35	Zn	1.638840	0.726047	0.392273
Zn36	Zn	1.888840	0.976047	0.642273
O37	O	1.142975	0.364372	0.081819
O38	O	1.392975	0.614372	0.331819
O39	O	1.642975	0.864372	0.581819
O40	O	1.892975	1.114372	0.831819
C41	C	0.964872	0.218248	0.000029
C42	C	1.214872	0.468248	0.250029
C43	C	1.464872	0.718248	0.500029
C44	C	1.714872	0.968248	0.750029
C45	C	0.858728	0.207401	0.000025
C46	C	1.108728	0.457401	0.250025
C47	C	1.358728	0.707401	0.500025
C48	C	1.608728	0.957401	0.750025
C49	C	0.613270	0.264501	0.000031
C50	C	0.863270	0.514501	0.250031
C51	C	1.113270	0.764501	0.500031
C52	C	1.363270	1.014501	0.750031
C53	C	0.664395	0.187585	0.000035
C54	C	0.914395	0.437585	0.250035
C55	C	1.164395	0.687585	0.500035
C56	C	1.414395	0.937585	0.750035
C57	C	0.772532	0.198613	0.000029
C58	C	1.022532	0.448613	0.250029
C59	C	1.272532	0.698613	0.500029
C60	C	1.522532	0.948613	0.750029
C61	C	0.505123	0.253474	0.000036
C62	C	0.755123	0.503474	0.250036
C63	C	1.005123	0.753474	0.500036
C64	C	1.255123	1.003474	0.750036
C65	C	1.131041	0.052083	0.000047
C66	C	1.381041	0.302083	0.250047
C67	C	1.631041	0.552083	0.500047
C68	C	1.881041	0.802083	0.750047
C69	C	1.120197	-0.054060	0.000048
C70	C	1.370197	0.195940	0.250048
C71	C	1.620197	0.445940	0.500048
C72	C	1.870197	0.695940	0.750048
C73	C	1.100370	-0.248398	0.000033
C74	C	1.350370	0.001602	0.250033
C75	C	1.600370	0.251602	0.500033
C76	C	1.850370	0.501602	0.750033
C77	C	1.177285	-0.299526	0.000033
C78	C	1.427285	-0.049526	0.250033
C79	C	1.677285	0.200474	0.500033
C80	C	1.927285	0.450474	0.750033
C81	C	1.166253	-0.407663	0.000025
C82	C	1.416253	-0.157663	0.250025
C83	C	1.666253	0.092337	0.500025
C84	C	1.916253	0.342337	0.750025
C85	C	1.111400	-0.140252	0.000041
C86	C	1.361400	0.109748	0.250041
C87	C	1.611400	0.359748	0.500041
C88	C	1.861400	0.609748	0.750041
C89	C	1.312788	0.233834	0.000043
C90	C	1.562788	0.483834	0.250043
C91	C	1.812788	0.733834	0.500043
C92	C	2.062788	0.983834	0.750043
C93	C	1.418931	0.244681	0.000040
C94	C	1.668931	0.494681	0.250040
C95	C	1.918931	0.744681	0.500040
C96	C	2.168931	0.994681	0.750040
C97	C	1.146618	0.399998	0.000025
C98	C	1.396618	0.649998	0.250025
C99	C	1.646618	0.899998	0.500025
C100	C	1.896618	1.149998	0.750025
C101	C	1.157463	0.506142	0.000018
C102	C	1.407463	0.756142	0.250018
C103	C	1.657463	1.006142	0.500018
C104	C	1.907463	1.256142	0.750018
N105	N	1.138813	0.226027	0.254893
N106	N	1.388813	0.476027	0.504893
N107	N	1.638813	0.726027	0.754893
N108	N	1.888813	0.976027	1.004893
N109	N	1.138853	0.226048	-0.254819
N110	N	1.388853	0.476048	-0.004819
N111	N	1.638853	0.726048	0.245181
N112	N	1.888853	0.976048	0.495181
C113	C	1.138839	0.226048	0.656184
C114	C	1.388839	0.476048	0.906184
C115	C	1.638839	0.726048	1.156184
C116	C	1.888839	0.976048	1.406184
C117	C	1.138829	0.226045	0.544532
C118	C	1.388829	0.476045	0.794532
C119	C	1.638829	0.726045	1.044532
C120	C	1.888829	0.976045	1.294532
C121	C	1.138826	0.226038	0.455542
C122	C	1.388826	0.476038	0.705542
C123	C	1.638826	0.726038	0.955542
C124	C	1.888826	0.976038	1.205542
C125	C	1.138816	0.226034	0.343883
C126	C	1.388816	0.476034	0.593883
C127	C	1.638816	0.726034	0.843883
C128	C	1.888816	0.976034	1.093883
H129	H	0.626952	0.113452	-0.000030
H130	H	0.876952	0.363452	0.249970
H131	H	1.126952	0.613452	0.499970
H132	H	1.376952	0.863452	0.749970
H133	H	1.026242	-0.285837	0.000027
H134	H	1.276242	-0.035837	0.250027
H135	H	1.526242	0.214163	0.500027
H136	H	1.776242	0.464163	0.750027
C137	C	0.663852	0.364645	0.000014
C138	C	0.913852	0.614645	0.250014
C139	C	1.163852	0.864645	0.500014
C140	C	1.413852	1.114645	0.750014
N141	N	0.701962	0.440072	-0.000003
N142	N	0.951962	0.690072	0.249997
N143	N	1.201962	0.940072	0.499997
N144	N	1.451962	1.190072	0.749997
C145	C	1.277437	-0.248947	0.000051
C146	C	1.527437	0.001053	0.250051
C147	C	1.777437	0.251053	0.500051
C148	C	2.027437	0.501053	0.750051
N149	N	1.352869	-0.210846	0.000070
N150	N	1.602869	0.039154	0.250070
N151	N	1.852869	0.289154	0.500070
N152	N	2.102869	0.539154	0.750070
