data_functionalizedCrystal
_audit_creation_method	'MofGen! by Chris Wilmer'
_symmetry_space_group_name_H-M	'P1'
_symmetry_Int_Tables_number	1
_symmetry_cell_setting	triclinic
loop_
_symmetry_equiv_pos_as_xyz
  x,y,z
_cell_length_a	18.215407
_cell_length_b	29.839131
_cell_length_c	18.215399
_cell_angle_alpha	89.968708
_cell_angle_beta	89.980650
_cell_angle_gamma	90.041868
loop_
_atom_site_label
_atom_site_type_symbol
_atom_site_fract_x
_atom_site_fract_y
_atom_site_fract_z
Zn1	Zn	1.124984	-0.178851	-0.416101
Zn2	Zn	1.624984	0.321149	0.083899
Zn3	Zn	1.124858	-0.253981	-0.293028
Zn4	Zn	1.624858	0.246019	0.206972
Zn5	Zn	1.001917	-0.178866	-0.293048
Zn6	Zn	1.501917	0.321134	0.206952
Zn7	Zn	1.001847	-0.253955	-0.416053
Zn8	Zn	1.501847	0.246045	0.083947
O9	O	1.063402	-0.216413	-0.354558
O10	O	1.563402	0.283587	0.145442
O11	O	1.227951	-0.188821	-0.399787
O12	O	1.727951	0.311179	0.100213
O13	O	1.108526	-0.244034	-0.190047
O14	O	1.608526	0.255966	0.309953
O15	O	1.018325	-0.115997	-0.309400
O16	O	1.518325	0.384003	0.190600
O17	O	1.227859	-0.244019	-0.309366
O18	O	1.727859	0.255981	0.190634
O19	O	1.108741	-0.115986	-0.399806
O20	O	1.608741	0.384014	0.100194
O21	O	1.018203	-0.188847	-0.190061
O22	O	1.518203	0.311153	0.309939
O23	O	0.898924	-0.188822	-0.309354
O24	O	1.398924	0.311178	0.190646
O25	O	1.018204	-0.243975	-0.519044
O26	O	1.518204	0.256025	-0.019044
O27	O	0.898872	-0.243990	-0.399725
O28	O	1.398872	0.256010	0.100275
O29	O	1.108673	-0.188796	-0.519079
O30	O	1.608673	0.311204	-0.019079
O31	O	1.108458	-0.316844	-0.309320
O32	O	1.608458	0.183156	0.190680
O33	O	1.018082	-0.316826	-0.399705
O34	O	1.518082	0.183174	0.100295
C35	C	0.872195	-0.216405	-0.354537
C36	C	1.372195	0.283595	0.145463
C37	C	0.790396	-0.216413	-0.354545
C38	C	1.290396	0.283587	0.145455
C39	C	1.063269	-0.333136	-0.354521
C40	C	1.563269	0.166864	0.145479
C41	C	1.063279	-0.383070	-0.354530
C42	C	1.563279	0.116930	0.145470
C43	C	0.602195	-0.245184	-0.401542
C44	C	1.102195	0.254816	0.098458
C45	C	0.525336	-0.245185	-0.401551
C46	C	1.025336	0.254815	0.098449
C47	C	0.525360	-0.187650	-0.307589
C48	C	1.025360	0.312350	0.192411
C49	C	0.602218	-0.187647	-0.307584
C50	C	1.102218	0.312353	0.192416
C51	C	0.640633	-0.216416	-0.354560
C52	C	1.140633	0.283584	0.145440
C53	C	0.486917	-0.216421	-0.354574
C54	C	0.986917	0.283579	0.145426
C55	C	0.403583	-0.216422	-0.354583
C56	C	0.903583	0.283578	0.145417
C57	C	0.723972	-0.216415	-0.354551
C58	C	1.223972	0.283585	0.145449
C59	C	1.110546	-0.692711	-0.307563
C60	C	1.610546	-0.192711	0.192437
C61	C	1.110637	-0.880384	-0.307591
C62	C	1.610637	-0.380384	0.192409
O63	O	1.150719	-0.904646	-0.267629
O64	O	1.650719	-0.404646	0.232371
N65	N	1.063554	-0.903855	-0.354613
N66	N	1.563554	-0.403855	0.145387
C67	C	1.016449	-0.880405	-0.401635
C68	C	1.516449	-0.380405	0.098365
O69	O	0.976410	-0.904676	-0.441636
O70	O	1.476410	-0.404676	0.058364
C71	C	1.016362	-0.692733	-0.401609
C72	C	1.516362	-0.192733	0.098391
C73	C	1.063443	-0.669264	-0.354579
C74	C	1.563443	-0.169264	0.145421
C75	C	1.157623	-0.669241	-0.260536
C76	C	1.657623	-0.169241	0.239464
C77	C	1.157597	-0.622326	-0.260527
C78	C	1.657597	-0.122326	0.239473
C79	C	1.110494	-0.598880	-0.307544
C80	C	1.610494	-0.098880	0.192456
C81	C	1.063417	-0.622349	-0.354570
C82	C	1.563417	-0.122349	0.145430
C83	C	0.969262	-0.669285	-0.448634
C84	C	1.469262	-0.169285	0.051366
C85	C	0.969246	-0.622363	-0.448625
C86	C	1.469246	-0.122363	0.051375
C87	C	1.016326	-0.598894	-0.401595
C88	C	1.516326	-0.098894	0.098405
C89	C	1.016288	-0.551987	-0.401577
C90	C	1.516288	-0.051987	0.098423
N91	N	1.063370	-0.528516	-0.354554
N92	N	1.563370	-0.028516	0.145446
C93	C	1.110473	-0.551962	-0.307538
C94	C	1.610473	-0.051962	0.192462
C95	C	1.016497	-0.978936	-0.401644
C96	C	1.516497	-0.478936	0.098356
C97	C	1.016517	-1.025854	-0.401649
C98	C	1.516517	-0.525854	0.098351
C99	C	1.110706	-1.025829	-0.307606
C100	C	1.610706	-0.525829	0.192394
C101	C	1.110681	-0.978910	-0.307598
C102	C	1.610681	-0.478910	0.192402
C103	C	1.063579	-0.955465	-0.354622
C104	C	1.563579	-0.455465	0.145378
C105	C	1.110414	-0.453436	-0.307521
C106	C	1.610414	0.046564	0.192479
C107	C	1.110382	-0.406516	-0.307514
C108	C	1.610382	0.093484	0.192486
C109	C	1.016197	-0.406546	-0.401559
C110	C	1.516197	0.093454	0.098441
C111	C	1.016226	-0.453461	-0.401564
C112	C	1.516226	0.046539	0.098436
C113	C	1.063341	-0.476905	-0.354543
C114	C	1.563341	0.023095	0.145457
O115	O	0.976232	-0.527696	-0.441523
O116	O	1.476232	-0.027696	0.058477
O117	O	1.150518	-0.527684	-0.267554
O118	O	1.650518	-0.027684	0.232446
C119	C	1.110572	-0.739626	-0.307572
C120	C	1.610572	-0.239626	0.192428
C121	C	1.063495	-0.763095	-0.354598
C122	C	1.563495	-0.263095	0.145402
C123	C	1.016392	-0.739649	-0.401615
C124	C	1.516392	-0.239649	0.098385
C125	C	1.063515	-0.810013	-0.354604
C126	C	1.563515	-0.310013	0.145396
C127	C	1.110618	-0.833459	-0.307587
C128	C	1.610618	-0.333459	0.192413
C129	C	1.157701	-0.809988	-0.260565
C130	C	1.657701	-0.309988	0.239435
C131	C	1.157675	-0.763072	-0.260555
C132	C	1.657675	-0.263072	0.239445
C133	C	0.969309	-0.763120	-0.448637
C134	C	1.469309	-0.263120	0.051363
C135	C	0.969339	-0.810036	-0.448642
C136	C	1.469339	-0.310036	0.051358
C137	C	1.016442	-0.833482	-0.401625
C138	C	1.516442	-0.333482	0.098375
C139	C	1.255354	-0.216421	-0.354579
C140	C	1.755354	0.283579	0.145421
C141	C	1.337153	-0.216425	-0.354589
C142	C	1.837153	0.283575	0.145411
C143	C	1.063445	-0.216381	-0.546511
C144	C	1.563445	0.283619	-0.046511
C145	C	1.063463	-0.216368	-0.628310
C146	C	1.563463	0.283632	-0.128310
C147	C	1.063555	-0.099235	-0.354610
C148	C	1.563555	0.400765	0.145390
C149	C	1.063620	-0.049300	-0.354633
C150	C	1.563620	0.450700	0.145367
C151	C	1.110597	-0.187597	-0.893387
C152	C	1.610597	0.312403	-0.393387
C153	C	1.110588	-0.187609	-0.816528
C154	C	1.610588	0.312391	-0.316528
C155	C	1.016389	-0.245073	-0.816481
C156	C	1.516389	0.254927	-0.316481
C157	C	1.016402	-0.245063	-0.893339
C158	C	1.516402	0.254937	-0.393339
C159	C	1.063505	-0.216322	-0.931789
C160	C	1.563505	0.283678	-0.431789
C161	C	1.063483	-0.216345	-0.778073
C162	C	1.563483	0.283655	-0.278073
C163	C	1.063473	-0.216358	-0.694739
C164	C	1.563473	0.283642	-0.194739
C165	C	1.063516	-0.216309	-1.015128
C166	C	1.563516	0.283691	-0.515128
C167	C	1.063401	-0.216412	-0.163351
C168	C	1.563401	0.283588	0.336649
C169	C	1.063525	-0.216299	-0.081553
C170	C	1.563525	0.283701	0.418447
H171	H	0.494043	-0.268610	-0.439810
H172	H	0.994043	0.231390	0.060190
H173	H	1.148951	-0.164195	-0.924691
H174	H	1.648951	0.335805	-0.424691
O175	O	0.639448	-0.159687	-0.261872
O176	O	1.139448	0.340313	0.238128
C177	C	0.631368	-0.102601	-0.168706
C178	C	1.131368	0.397399	0.331294
C179	C	0.589114	-0.134250	-0.220419
C180	C	1.089114	0.365750	0.279581
H181	H	0.590691	-0.082020	-0.135189
H182	H	1.090691	0.417980	0.364811
H183	H	0.667294	-0.123175	-0.130115
H184	H	1.167294	0.376825	0.369885
H185	H	0.667409	-0.079155	-0.202575
H186	H	1.167409	0.420845	0.297425
H187	H	0.553033	-0.157702	-0.186610
H188	H	1.053033	0.342298	0.313390
H189	H	0.553234	-0.113648	-0.259012
H190	H	1.053234	0.386352	0.240988
H191	H	0.633470	-0.268609	-0.439794
H192	H	1.133470	0.231391	0.060206
H193	H	0.977843	-0.387448	-0.439837
H194	H	1.477843	0.112552	0.060163
O195	O	1.156189	-0.383789	-0.261804
O196	O	1.656189	0.116211	0.238196
C197	C	1.249581	-0.388724	-0.168495
C198	C	1.749581	0.111276	0.331505
C199	C	1.197756	-0.414517	-0.220233
C200	C	1.697756	0.085483	0.279767
H201	H	1.283190	-0.413556	-0.134860
H202	H	1.783190	0.086444	0.365140
H203	H	1.288081	-0.366732	-0.202277
H204	H	1.788081	0.133268	0.297723
H205	H	1.215793	-0.366784	-0.130008
H206	H	1.715793	0.133216	0.369992
H207	H	1.231484	-0.436481	-0.258730
H208	H	1.731484	0.063519	0.241270
H209	H	1.159254	-0.436481	-0.186405
H210	H	1.659254	0.063519	0.313595
H211	H	0.494073	-0.164228	-0.269342
H212	H	0.994073	0.335772	0.230658
H213	H	1.148781	-0.472519	-0.269233
H214	H	1.648781	0.027481	0.230767
O215	O	0.970654	-0.272945	-0.779015
O216	O	1.470654	0.227055	-0.279015
C217	C	0.928913	-0.298445	-0.660592
C218	C	1.428913	0.201555	-0.160592
C219	C	0.980735	-0.266851	-0.702928
C220	C	1.480735	0.233149	-0.202928
H221	H	0.937056	-0.293535	-0.599068
H222	H	1.437056	0.206465	-0.099068
H223	H	0.869568	-0.290552	-0.675644
H224	H	1.369568	0.209448	-0.175644
H225	H	0.941786	-0.334663	-0.675728
H226	H	1.441786	0.165337	-0.175728
H227	H	0.967928	-0.230621	-0.687814
H228	H	1.467928	0.269379	-0.187814
H229	H	1.040065	-0.274782	-0.687872
H230	H	1.540065	0.225218	-0.187872
H231	H	1.149018	-0.959804	-0.269302
H232	H	1.649018	-0.459804	0.230698
H233	H	1.195984	-0.688327	-0.222250
H234	H	1.695984	-0.188327	0.277750
O235	O	1.203408	-0.599601	-0.214826
O236	O	1.703408	-0.099601	0.285174
C237	C	1.296811	-0.604546	-0.121529
C238	C	1.796811	-0.104546	0.378471
C239	C	1.244972	-0.630333	-0.173260
C240	C	1.744972	-0.130333	0.326740
H241	H	1.330418	-0.629381	-0.087899
H242	H	1.830418	-0.129381	0.412101
H243	H	1.335312	-0.582557	-0.155316
H244	H	1.835312	-0.082557	0.344684
H245	H	1.263035	-0.582602	-0.083038
H246	H	1.763035	-0.082602	0.416962
H247	H	1.278689	-0.652301	-0.211761
H248	H	1.778689	-0.152301	0.288239
H249	H	1.206469	-0.652293	-0.139427
H250	H	1.706469	-0.152293	0.360573
O251	O	1.156484	-1.048678	-0.262047
O252	O	1.656484	-0.548678	0.237953
C253	C	1.198322	-1.120953	-0.220465
C254	C	1.698322	-0.620953	0.279535
C255	C	1.146425	-1.095130	-0.272073
C256	C	1.646425	-0.595130	0.227927
H257	H	1.190197	-1.158514	-0.228542
H258	H	1.690197	-0.658514	0.271458
H259	H	1.257646	-1.111703	-0.233508
H260	H	1.757646	-0.611703	0.266492
H261	H	1.185505	-1.111755	-0.161094
H262	H	1.685505	-0.611755	0.338906
H263	H	1.159176	-1.104314	-0.331461
H264	H	1.659176	-0.604314	0.168539
H265	H	1.087116	-1.104382	-0.258967
H266	H	1.587116	-0.604382	0.241033
O267	O	0.970754	-1.048580	-0.447398
O268	O	1.470754	-0.548580	0.052602
C269	C	0.877303	-1.043640	-0.540647
C270	C	1.377303	-0.543640	-0.040647
C271	C	0.929102	-1.017850	-0.488880
C272	C	1.429102	-0.517850	0.011120
H273	H	0.843603	-1.018806	-0.574188
H274	H	1.343603	-0.518806	-0.074188
H275	H	0.911041	-1.065557	-0.579214
H276	H	1.411041	-0.565557	-0.079214
H277	H	0.838881	-1.065654	-0.506819
H278	H	1.338881	-0.565654	-0.006819
H279	H	0.967535	-0.995810	-0.522649
H280	H	1.467535	-0.495810	-0.022649
H281	H	0.895319	-0.995961	-0.450311
H282	H	1.395319	-0.495961	0.049689
O283	O	0.970760	-0.273018	-0.930678
O284	O	1.470760	0.226982	-0.430678
C285	C	0.960815	-0.333646	-1.017447
C286	C	1.460815	0.166354	-0.517447
C287	C	1.012580	-0.302021	-0.975194
C288	C	1.512580	0.197979	-0.475194
H289	H	0.994604	-0.357097	-1.053460
H290	H	1.494604	0.142903	-0.553460
H291	H	0.927159	-0.354220	-0.976794
H292	H	1.427159	0.145780	-0.476794
H293	H	0.922349	-0.313010	-1.053405
H294	H	1.422349	0.186990	-0.553405
H295	H	1.051090	-0.322622	-0.939235
H296	H	1.551090	0.177378	-0.439235
H297	H	1.046184	-0.281446	-1.015886
H298	H	1.546184	0.218554	-0.515886
O299	O	0.970409	-0.476281	-0.447139
O300	O	1.470409	0.023719	0.052861
C301	C	0.871103	-0.529333	-0.456972
C302	C	1.371103	-0.029333	0.043028
C303	C	0.922927	-0.503515	-0.405267
C304	C	1.422927	-0.003515	0.094733
H305	H	0.832711	-0.551365	-0.423140
H306	H	1.332711	-0.051365	0.076860
H307	H	0.837378	-0.504532	-0.490557
H308	H	1.337378	-0.004532	0.009443
H309	H	0.904896	-0.551238	-0.495507
H310	H	1.404896	-0.051238	0.004493
H311	H	0.889191	-0.481609	-0.366688
H312	H	1.389191	0.018391	0.133312
H313	H	0.956654	-0.528340	-0.371734
H314	H	1.456654	-0.028340	0.128266
O315	O	1.203481	-0.740347	-0.214850
O316	O	1.703481	-0.240347	0.285150
C317	C	1.296874	-0.745292	-0.121543
C318	C	1.796874	-0.245292	0.378457
C319	C	1.245044	-0.771079	-0.173281
C320	C	1.745044	-0.271079	0.326719
H321	H	1.330479	-0.770127	-0.087910
H322	H	1.830479	-0.270127	0.412090
H323	H	1.335378	-0.723302	-0.155324
H324	H	1.835378	-0.223302	0.344676
H325	H	1.263092	-0.723350	-0.083054
H326	H	1.763092	-0.223350	0.416946
H327	H	1.278766	-0.793045	-0.211780
H328	H	1.778766	-0.293045	0.288220
H329	H	1.206538	-0.793041	-0.139455
H330	H	1.706538	-0.293041	0.360545
O331	O	0.970839	-0.956145	-0.447401
O332	O	1.470839	-0.456145	0.052599
C333	C	0.960832	-0.903131	-0.546726
C334	C	1.460832	-0.403131	-0.046726
C335	C	1.012627	-0.928918	-0.494968
C336	C	1.512627	-0.428918	0.005032
H337	H	0.994595	-0.881104	-0.585186
H338	H	1.494595	-0.381104	-0.085186
H339	H	0.927201	-0.927951	-0.580382
H340	H	1.427201	-0.427951	-0.080382
H341	H	0.922343	-0.881222	-0.512886
H342	H	1.422343	-0.381222	-0.012886
H343	H	1.051159	-0.950827	-0.528751
H344	H	1.551159	-0.450827	-0.028751
H345	H	1.046206	-0.904073	-0.461310
H346	H	1.546206	-0.404073	0.038690
O347	O	0.923506	-0.692005	-0.494393
O348	O	1.423506	-0.192005	0.005607
C349	C	0.830065	-0.687058	-0.587650
C350	C	1.330065	-0.187058	-0.087650
C351	C	0.881860	-0.661272	-0.535874
C352	C	1.381860	-0.161272	-0.035874
H353	H	0.796369	-0.662222	-0.621190
H354	H	1.296369	-0.162222	-0.121190
H355	H	0.863806	-0.708974	-0.626217
H356	H	1.363806	-0.208974	-0.126217
H357	H	0.791638	-0.709074	-0.553829
H358	H	1.291638	-0.209074	-0.053829
H359	H	0.920297	-0.639232	-0.569635
H360	H	1.420297	-0.139232	-0.069635
H361	H	0.848073	-0.639385	-0.497305
H362	H	1.348073	-0.139385	0.002695
O363	O	0.923594	-0.599568	-0.494383
O364	O	1.423594	-0.099568	0.005617
C365	C	0.913609	-0.546544	-0.593697
C366	C	1.413609	-0.046544	-0.093697
C367	C	0.965393	-0.572339	-0.541937
C368	C	1.465393	-0.072339	-0.041937
H369	H	0.947382	-0.524516	-0.632146
H370	H	1.447382	-0.024516	-0.132146
H371	H	0.879979	-0.571359	-0.627363
H372	H	1.379979	-0.071359	-0.127363
H373	H	0.875119	-0.524637	-0.559857
H374	H	1.375119	-0.024637	-0.059857
H375	H	1.003927	-0.594247	-0.575720
H376	H	1.503927	-0.094247	-0.075720
H377	H	0.998971	-0.547500	-0.508268
H378	H	1.498971	-0.047500	-0.008268
O379	O	1.203452	-0.832838	-0.214980
O380	O	1.703452	-0.332838	0.285020
C381	C	1.245232	-0.905113	-0.173342
C382	C	1.745232	-0.405113	0.326658
C383	C	1.193383	-0.879289	-0.224996
C384	C	1.693383	-0.379289	0.275004
H385	H	1.237098	-0.942674	-0.181411
H386	H	1.737098	-0.442674	0.318589
H387	H	1.304570	-0.895873	-0.186345
H388	H	1.804570	-0.395873	0.313655
H389	H	1.232377	-0.895905	-0.113983
H390	H	1.732377	-0.395905	0.386017
H391	H	1.206172	-0.888483	-0.284372
H392	H	1.706172	-0.388483	0.215628
H393	H	1.134061	-0.888531	-0.211929
H394	H	1.634061	-0.388531	0.288071
H395	H	0.930994	-0.829140	-0.486939
H396	H	1.430994	-0.329140	0.013061
O397	O	1.156253	-0.159638	-0.779262
O398	O	1.656253	0.340362	-0.279262
C399	C	1.192085	-0.083220	-0.755843
C400	C	1.692085	0.416780	-0.255843
C401	C	1.140309	-0.114849	-0.798075
C402	C	1.640309	0.385151	-0.298075
H403	H	1.179223	-0.047002	-0.771050
H404	H	1.679223	0.452998	-0.271050
H405	H	1.183990	-0.088121	-0.694295
H406	H	1.683990	0.411879	-0.194295
H407	H	1.251414	-0.091128	-0.770957
H408	H	1.751414	0.408872	-0.270957
H409	H	1.080960	-0.106961	-0.783023
H410	H	1.580960	0.393039	-0.283023
H411	H	1.148467	-0.109942	-0.859612
H412	H	1.648467	0.390058	-0.359612
H413	H	0.930953	-0.744034	-0.486924
H414	H	1.430953	-0.244034	0.013076
