data_functionalizedCrystal
_audit_creation_method	'MofGen! by Chris Wilmer'
_symmetry_space_group_name_H-M	'P1'
_symmetry_Int_Tables_number	1
_symmetry_cell_setting	triclinic
loop_
_symmetry_equiv_pos_as_xyz
  x,y,z
_cell_length_a	17.640112
_cell_length_b	17.637015
_cell_length_c	17.639145
_cell_angle_alpha	114.331741
_cell_angle_beta	65.715363
_cell_angle_gamma	114.336372
loop_
_atom_site_label
_atom_site_type_symbol
_atom_site_fract_x
_atom_site_fract_y
_atom_site_fract_z
Zn1	Zn	1.158997	-0.038711	0.205161
Zn2	Zn	1.658997	0.461289	0.705161
Zn3	Zn	1.158939	-0.204422	0.039452
Zn4	Zn	1.658939	0.295578	0.539452
Zn5	Zn	1.041054	-0.086453	0.087137
Zn6	Zn	1.541054	0.413547	0.587137
Zn7	Zn	0.993321	-0.204465	0.205013
Zn8	Zn	1.493321	0.295535	0.705013
O9	O	1.088078	-0.133513	0.134191
O10	O	1.588078	0.366487	0.634191
O11	O	1.277661	-0.040694	0.163285
O12	O	1.777661	0.459306	0.663285
O13	O	1.163254	-0.208735	-0.072903
O14	O	1.663254	0.291265	0.427097
O15	O	1.076701	0.038619	0.122811
O16	O	1.576701	0.538619	0.622811
O17	O	1.277619	-0.162442	0.041539
O18	O	1.777619	0.337558	0.541539
O19	O	1.163353	0.073695	0.209523
O20	O	1.663353	0.573695	0.709523
O21	O	1.076644	-0.122064	-0.037869
O22	O	1.576644	0.377936	0.462131
O23	O	0.916051	-0.122106	0.122668
O24	O	1.416051	0.377894	0.622668
O25	O	0.995346	-0.162515	0.323713
O26	O	1.495346	0.337485	0.823713
O27	O	0.880981	-0.208809	0.209271
O28	O	1.380981	0.291191	0.709271
O29	O	1.117068	-0.040736	0.323822
O30	O	1.617068	0.459264	0.823822
O31	O	1.116969	-0.323167	0.041396
O32	O	1.616969	0.176833	0.541396
O33	O	0.995289	-0.323198	0.163033
O34	O	1.495289	0.176802	0.663033
C35	C	0.867745	-0.170643	0.171128
C36	C	1.367745	0.329357	0.671128
C37	C	0.773479	-0.186544	0.186947
C38	C	1.273479	0.313456	0.686947
C39	C	1.050963	-0.353963	0.097038
C40	C	1.550963	0.146037	0.597038
C41	C	1.035157	-0.448255	0.081160
C42	C	1.535157	0.051745	0.581160
C43	C	0.554623	-0.012694	0.014027
C44	C	1.054623	0.487306	0.514027
C45	C	0.466041	-0.027651	0.028900
C46	C	0.966041	0.472349	0.528900
C47	C	0.429583	-0.118116	0.118867
C48	C	0.929583	0.381884	0.618867
C49	C	0.518164	-0.103163	0.104005
C50	C	1.018164	0.396837	0.604005
C51	C	0.580677	-0.050452	0.051584
C52	C	1.080677	0.449548	0.551584
C53	C	0.544219	-0.140921	0.141562
C54	C	1.044219	0.359079	0.641562
C55	C	0.632792	-0.125972	0.126698
C56	C	1.132792	0.374028	0.626698
C57	C	0.695310	-0.073266	0.074277
C58	C	1.195310	0.426734	0.574277
C59	C	0.669251	-0.035504	0.036720
C60	C	1.169251	0.464496	0.536720
C61	C	0.481704	-0.193636	0.193978
C62	C	0.981704	0.306364	0.693978
C63	C	0.507758	-0.231394	0.231535
C64	C	1.007758	0.268606	0.731535
C65	C	0.596333	-0.216441	0.216676
C66	C	1.096333	0.283559	0.716676
C67	C	0.658851	-0.163735	0.164255
C68	C	1.158851	0.336265	0.664255
C69	C	0.622392	-0.254204	0.254233
C70	C	1.122392	0.245796	0.754233
C71	C	0.710966	-0.239255	0.239368
C72	C	1.210966	0.260745	0.739368
C73	C	0.747424	-0.148787	0.149390
C74	C	1.247424	0.351213	0.649390
C75	C	0.967810	-0.599488	0.013574
C76	C	1.467810	-0.099488	0.513574
C77	C	0.982666	-0.510884	0.028499
C78	C	1.482666	-0.010884	0.528499
C79	C	1.072817	-0.474211	0.118912
C80	C	1.572817	0.025789	0.618912
C81	C	1.057971	-0.562814	0.103990
C82	C	1.557971	-0.062814	0.603990
C83	C	1.005466	-0.625446	0.051321
C84	C	1.505466	-0.125446	0.551321
C85	C	1.095628	-0.588772	0.141738
C86	C	1.595628	-0.088772	0.641738
C87	C	1.080780	-0.677366	0.126820
C88	C	1.580780	-0.177366	0.626820
C89	C	1.028275	-0.740003	0.074156
C90	C	1.528275	-0.240003	0.574156
C91	C	0.990618	-0.714040	0.036404
C92	C	1.490618	-0.214040	0.536404
C93	C	1.148127	-0.526138	0.194411
C94	C	1.648127	-0.026138	0.694411
C95	C	1.185784	-0.552096	0.232159
C96	C	1.685784	-0.052096	0.732159
C97	C	1.170941	-0.640692	0.217237
C98	C	1.670941	-0.140692	0.717237
C99	C	1.118436	-0.703329	0.164573
C100	C	1.618436	-0.203329	0.664573
C101	C	1.208597	-0.666655	0.254989
C102	C	1.708597	-0.166655	0.754989
C103	C	1.193749	-0.755249	0.240072
C104	C	1.693749	-0.255249	0.740072
C105	C	1.103588	-0.791924	0.149655
C106	C	1.603588	-0.291924	0.649655
C107	C	1.309271	-0.096238	0.097109
C108	C	1.809271	0.403762	0.597109
C109	C	1.403530	-0.080353	0.081308
C110	C	1.903530	0.419647	0.581308
C111	C	1.050888	-0.096305	0.355401
C112	C	1.550888	0.403695	0.855401
C113	C	1.035041	-0.080449	0.449667
C114	C	1.535041	0.419551	0.949667
C115	C	1.125358	0.087806	0.171503
C116	C	1.625358	0.587806	0.671503
C117	C	1.141245	0.182119	0.187403
C118	C	1.641245	0.682119	0.687403
C119	C	1.208396	-0.253928	0.668470
C120	C	1.708396	0.246072	1.168470
C121	C	1.193495	-0.239021	0.757051
C122	C	1.693495	0.260979	1.257051
C123	C	1.103315	-0.148776	0.793528
C124	C	1.603315	0.351224	1.293528
C125	C	1.118204	-0.163679	0.704948
C126	C	1.618204	0.336321	1.204948
C127	C	1.170747	-0.216254	0.642425
C128	C	1.670747	0.283746	1.142425
C129	C	1.080555	-0.126005	0.678904
C130	C	1.580555	0.373995	1.178904
C131	C	1.095447	-0.140903	0.590332
C132	C	1.595447	0.359097	1.090332
C133	C	1.147989	-0.193474	0.527804
C134	C	1.647989	0.306526	1.027804
C135	C	1.185639	-0.231152	0.553853
C136	C	1.685639	0.268848	1.053853
C137	C	1.028018	-0.073425	0.741429
C138	C	1.528018	0.426575	1.241429
C139	C	0.990369	-0.035751	0.715385
C140	C	1.490369	0.464249	1.215385
C141	C	1.005256	-0.050654	0.626811
C142	C	1.505256	0.449346	1.126811
C143	C	1.057798	-0.103225	0.564283
C144	C	1.557798	0.396775	1.064283
C145	C	0.967606	-0.012976	0.600762
C146	C	1.467606	0.487024	1.100762
C147	C	0.982498	-0.027874	0.512190
C148	C	1.482498	0.472126	1.012190
C149	C	1.072690	-0.118123	0.475711
C150	C	1.572690	0.381877	0.975711
C151	C	1.125115	-0.170596	0.913839
C152	C	1.625115	0.329404	1.413839
C153	C	1.140967	-0.186454	0.819571
C154	C	1.640967	0.313546	1.319571
H155	H	0.798328	-0.105849	0.106718
H156	H	1.298328	0.394151	0.606718
H157	H	0.571482	-0.297128	0.296907
H158	H	1.071482	0.202872	0.796907
H159	H	0.924833	0.029838	0.651681
H160	H	1.424833	0.529838	1.151681
H161	H	1.016180	-0.812142	0.062018
H162	H	1.516180	-0.312142	0.562018
H163	H	0.409583	-0.205806	0.206079
H164	H	0.909583	0.294194	0.706079
H165	H	0.456849	-0.274314	0.274213
H166	H	0.956849	0.225686	0.774213
F167	F	0.738697	-0.279443	0.279338
F168	F	1.238697	0.220557	0.779338
F169	F	1.012175	-0.057565	0.835696
F170	F	1.512175	0.442435	1.335696
H171	H	0.947591	0.007058	0.766302
H172	H	1.447591	0.507058	1.266302
F173	F	0.735788	0.020604	-0.019067
F174	F	1.235788	0.520604	0.480933
H175	H	1.060839	-0.842923	0.106762
H176	H	1.560839	-0.342923	0.606762
F177	F	1.241655	-0.485431	0.288218
F178	F	1.741655	0.014569	0.788218
F179	F	1.128600	-0.174091	0.409164
F180	F	1.628600	0.325909	0.909164
F181	F	0.942588	-0.483263	-0.011686
F182	F	1.442588	0.016737	0.488314
F183	F	1.264306	-0.309896	0.601922
F184	F	1.764306	0.190104	1.101922
H185	H	1.224402	-0.776383	0.270821
H186	H	1.724402	-0.276383	0.770821
H187	H	0.947869	-0.765040	-0.006490
H188	H	1.447869	-0.265040	0.493510
H189	H	1.251340	-0.615649	0.297879
H190	H	1.751340	-0.115649	0.797879
F191	F	0.942430	0.012225	0.484470
F192	F	1.442430	0.512225	0.984470
F193	F	0.911939	-0.666151	-0.042494
F194	F	1.411939	-0.166151	0.457506
H195	H	1.115564	-0.423207	0.161798
H196	H	1.615564	0.076793	0.661798
F197	F	1.163654	-0.431848	0.210560
F198	F	1.663654	0.068152	0.710560
H199	H	0.767431	-0.061098	0.062173
H200	H	1.267431	0.438902	0.562173
H201	H	1.160116	-0.205600	0.455684
H202	H	1.660116	0.294400	0.955684
F203	F	1.241549	-0.287121	0.487306
F204	F	1.741549	0.212879	0.987306
F205	F	1.047400	-0.092821	0.860077
F206	F	1.547400	0.407179	1.360077
F207	F	0.621160	0.043413	-0.041759
F208	F	1.121160	0.543413	0.458241
F209	F	0.438317	0.012535	-0.011083
F210	F	0.938317	0.512535	0.488917
H211	H	0.378673	-0.161036	0.161546
H212	H	0.878673	0.338964	0.661546
H213	H	1.224160	-0.269702	0.778249
H214	H	1.724160	0.230298	1.278249
