data_functionalizedCrystal
_audit_creation_method	'MofGen! by Chris Wilmer'
_symmetry_space_group_name_H-M	'P1'
_symmetry_Int_Tables_number	1
_symmetry_cell_setting	triclinic
loop_
_symmetry_equiv_pos_as_xyz
  x,y,z
_cell_length_a	8.634740
_cell_length_b	10.065918
_cell_length_c	8.559649
_cell_angle_alpha	100.806484
_cell_angle_beta	85.174486
_cell_angle_gamma	98.439902
loop_
_atom_site_label
_atom_site_type_symbol
_atom_site_fract_x
_atom_site_fract_y
_atom_site_fract_z
O1	O	2.002916	0.113477	0.535163
O2	O	1.559045	0.113481	0.492262
O3	O	1.820086	0.113477	0.287130
O4	O	1.741875	0.113480	0.740294
O5	O	1.785171	-0.113511	0.240047
O6	O	1.524131	-0.113507	0.445178
O7	O	1.968002	-0.113512	0.488080
Zn8	Zn	1.740523	-0.149549	0.459154
Zn9	Zn	1.786524	0.149518	0.521188
O10	O	1.706961	-0.113508	0.693211
C11	C	1.485289	-0.000013	0.459001
C12	C	1.317538	-0.000011	0.430023
N13	N	1.709140	-0.353654	0.416818
C14	C	1.775595	-0.421434	0.506457
C15	C	1.751456	-0.578601	0.473861
C16	C	2.041758	-0.000015	0.521341
C17	C	2.209511	-0.000008	0.550321
C18	C	1.808556	-0.000015	0.204972
C19	C	1.826200	-0.000007	0.030310
N20	N	1.817921	0.353623	0.563513
C21	C	1.718491	-0.000013	0.775370
C22	C	1.700849	-0.000012	0.950034
H23	H	1.281695	0.000024	0.304870
C24	C	1.537629	-0.000003	0.037696
C25	C	1.406088	-0.117873	-0.011251
C26	C	1.242866	-0.117864	0.076422
C27	C	1.211184	0.000013	0.213041
C28	C	1.342728	0.117891	0.261994
C29	C	1.505951	0.117883	0.174321
H30	H	1.429538	-0.205140	-0.112390
H31	H	1.145488	-0.205126	0.040183
H32	H	1.090357	0.000019	0.277941
H33	H	1.319279	0.205159	0.363134
H34	H	1.603329	0.205144	0.210561
H35	H	1.892695	-0.588057	0.664392
C36	C	1.608133	-0.432434	0.280537
C37	C	1.680792	-0.530693	0.143480
C38	C	1.579783	-0.609470	0.007196
C39	C	1.406116	-0.589986	0.007969
C40	C	1.333448	-0.491723	0.145031
C41	C	1.434457	-0.412946	0.281315
H42	H	1.809359	-0.545120	0.142903
H43	H	1.633577	-0.682211	-0.094266
H44	H	1.331343	-0.648301	-0.092916
H45	H	1.204881	-0.477296	0.145608
H46	H	1.380663	-0.340205	0.382778
C47	C	1.989428	-0.000015	-0.057358
C48	C	2.021113	-0.117893	-0.193976
C49	C	2.184338	-0.117901	-0.281643
C50	C	2.315878	-0.000032	-0.232693
C51	C	2.284197	0.117854	-0.096069
C52	C	2.120972	0.117863	-0.008401
H53	H	1.923737	-0.205155	-0.230218
H54	H	2.207790	-0.205169	-0.382782
H55	H	2.436707	-0.000038	-0.297590
H56	H	2.381573	0.205116	-0.059827
H57	H	2.097520	0.205130	0.092737
H58	H	1.245364	-0.000016	0.675488
H59	H	1.850367	-0.363107	0.607326
H60	H	1.676691	-0.636922	0.372976
