data_functionalizedCrystal
_audit_creation_method	'MofGen! by Chris Wilmer'
_symmetry_space_group_name_H-M	'P1'
_symmetry_Int_Tables_number	1
_symmetry_cell_setting	triclinic
loop_
_symmetry_equiv_pos_as_xyz
  x,y,z
_cell_length_a	31.640172
_cell_length_b	14.560438
_cell_length_c	14.560438
_cell_angle_alpha	59.996950
_cell_angle_beta	89.994320
_cell_angle_gamma	59.994291
loop_
_atom_site_label
_atom_site_type_symbol
_atom_site_fract_x
_atom_site_fract_y
_atom_site_fract_z
Zr1	Zr	0.407177	1.005219	-0.120607
O2	O	0.339688	1.196844	-0.267259
O3	O	0.427866	0.813607	-0.075645
O4	O	0.427866	1.005217	-0.267258
O5	O	0.339688	1.005231	0.075495
O6	O	0.497422	1.005202	-0.267264
O7	O	0.339688	1.005234	-0.075646
O8	O	0.497422	0.662446	0.075497
O9	O	0.339688	1.347987	-0.267265
O10	O	0.488599	0.892404	-0.056480
O11	O	0.436690	0.892413	0.056319
O12	O	0.436689	1.118010	-0.169281
O13	O	0.384780	1.118020	-0.056482
Zr14	Zr	0.518111	1.005190	0.120435
Zr15	Zr	0.518111	1.005195	-0.120617
Zr16	Zr	0.407177	1.005215	0.120445
Zr17	Zr	0.407177	1.246275	-0.120618
Zr18	Zr	0.518111	0.764135	0.120446
O19	O	0.497422	1.196803	0.075473
O20	O	0.497422	1.196809	-0.267272
O21	O	0.339688	1.196838	0.075487
O22	O	0.585600	0.813566	0.267087
O23	O	0.585600	0.813572	-0.075658
O24	O	0.427866	0.813601	0.267101
O25	O	0.585600	1.005179	-0.075667
O26	O	0.497422	1.005193	0.267086
O27	O	0.427866	1.005208	0.267092
O28	O	0.585600	1.005176	0.075474
O29	O	0.427866	1.347967	-0.267273
O30	O	0.497422	0.662443	0.267101
O31	O	0.585600	0.662423	0.267094
O32	O	0.585600	0.662426	0.075489
O33	O	0.339688	1.347984	-0.075661
O34	O	0.427866	1.347964	-0.075669
O35	O	0.488599	0.892400	0.169109
O36	O	0.540508	0.892390	0.056310
O37	O	0.488598	1.117996	-0.056491
O38	O	0.436690	1.118006	0.056309
C39	C	0.462644	0.703681	-0.000072
C40	C	0.462644	0.601347	-0.000068
C41	C	0.424325	0.540418	-0.083364
C42	C	0.424324	0.636561	-0.083344
C43	C	0.500965	0.469978	0.083201
C44	C	0.500964	0.373838	0.083184
C45	C	0.386005	0.575643	-0.166652
C46	C	0.347683	0.707005	-0.249919
C47	C	0.347682	0.803149	-0.249899
C48	C	0.386003	0.767930	-0.166612
C49	C	0.323882	1.005236	-0.000074
C50	C	0.276788	1.005246	-0.000070
C51	C	-0.015218	1.005183	-0.083348
C52	C	-0.192204	1.005167	-0.083357
O53	O	-0.215077	1.005110	-0.154143
N54	N	-0.214335	1.005168	-0.000093
C55	C	-0.192214	1.005165	0.083183
O56	O	-0.215096	1.005152	0.154010
C57	C	-0.015226	1.005172	0.083195
C58	C	0.006899	1.005184	-0.000081
C59	C	0.006908	1.005193	-0.166616
C60	C	0.051150	1.005205	-0.166617
C61	C	0.073267	1.005205	-0.083350
C62	C	0.051141	1.005195	-0.000081
C63	C	0.006896	1.005159	0.166474
C64	C	0.051146	1.005158	0.166472
C65	C	0.073272	1.005169	0.083196
C66	C	0.117500	1.005207	0.083185
N67	N	0.139631	1.005205	-0.000078
C68	C	0.117514	1.005205	-0.083346
C69	C	-0.285136	1.005163	0.083169
C70	C	-0.329383	1.005164	0.083165
C71	C	-0.329370	1.005164	-0.083373
C72	C	-0.285124	1.005172	-0.083373
C73	C	-0.263005	1.005162	-0.000094
C74	C	0.210426	1.005229	-0.083341
C75	C	0.254671	1.005246	-0.083337
C76	C	0.254655	1.005239	0.083204
C77	C	0.210413	1.005230	0.083197
C78	C	0.188300	1.005220	-0.000081
O79	O	0.140404	1.005248	0.153942
O80	O	0.140410	1.005189	-0.154148
C81	C	-0.059460	1.005172	-0.083348
C82	C	-0.081586	1.005161	-0.000080
C83	C	-0.059469	1.005162	0.083188
C84	C	-0.125833	1.005162	-0.000084
C85	C	-0.147950	1.005161	-0.083351
C86	C	-0.125819	1.005160	-0.166615
C87	C	-0.081577	1.005171	-0.166615
C88	C	-0.081600	1.005163	0.166451
C89	C	-0.125842	1.005153	0.166445
C90	C	-0.147959	1.005153	0.083177
C91	C	0.601406	1.005174	-0.000098
C92	C	0.648500	1.005163	-0.000102
C93	C	0.462644	1.005210	-0.301605
C94	C	0.462644	1.005212	-0.403938
C95	C	0.462644	1.306729	-0.000099
C96	C	0.462644	1.409063	-0.000104
C97	C	0.435546	1.122974	-0.510895
C98	C	0.435547	1.122967	-0.607044
C99	C	0.489746	0.887427	-0.489265
C100	C	0.489747	0.887435	-0.393119
C101	C	0.408443	1.240751	-0.521715
C102	C	0.381342	1.358522	-0.628676
C103	C	0.381343	1.358516	-0.724825
C104	C	0.408446	1.240738	-0.714012
C105	C	0.462644	1.005200	0.301434
C106	C	0.462644	1.005198	0.403767
C107	C	0.601406	0.703650	-0.000084
C108	C	0.648500	0.601305	-0.000084
C109	C	0.462644	0.703676	0.301447
C110	C	0.462644	0.601340	0.403785
C111	C	0.601406	0.703645	0.301435
C112	C	0.648500	0.601298	0.403769
C113	C	0.323882	1.306765	-0.301607
C114	C	0.276788	1.409112	-0.403940
C115	C	0.323882	1.306760	-0.000087
C116	C	0.276788	1.409105	-0.000088
C117	C	0.462644	1.306734	-0.301619
C118	C	0.462644	1.409070	-0.403957
C119	C	0.643520	0.553250	-0.058969
C120	C	0.687766	0.457099	-0.058991
C121	C	0.736992	0.408999	-0.000121
C122	C	0.741971	0.457064	0.058766
C123	C	0.697725	0.553219	0.058781
C124	C	0.697717	0.553230	0.392945
C125	C	0.741972	0.457078	0.489089
C126	C	0.737008	0.408989	0.596055
C127	C	0.687787	0.457067	0.606876
C128	C	0.643533	0.553224	0.510734
C129	C	0.227571	1.457191	-0.393117
C130	C	0.183316	1.553373	-0.489261
C131	C	0.188280	1.601467	-0.596227
C132	C	0.237502	1.553384	-0.607048
C133	C	0.281755	1.457210	-0.510905
C134	C	0.281768	1.457170	0.058787
C135	C	0.237522	1.553347	0.058783
C136	C	0.188296	1.601451	-0.000091
C137	C	0.183317	1.553381	-0.058973
C138	C	0.227563	1.457213	-0.058975
C139	C	0.489741	0.553250	0.510739
C140	C	0.489737	0.457099	0.606892
C141	C	0.435539	0.457133	0.489124
C142	C	0.435540	0.553288	0.392973
C143	C	0.516845	0.601302	0.521551
C144	C	0.543945	0.553211	0.628509
C145	C	0.543941	0.457060	0.724662
C146	C	0.516837	0.409000	0.713857
H147	H	0.316475	0.910105	-0.317691
Cl148	Cl	0.385997	0.888800	-0.166584
Cl149	Cl	0.132641	1.722371	-0.717083
H150	H	0.532164	0.441315	0.151008
H151	H	0.566008	0.592355	0.637299
Cl152	Cl	0.408453	1.240735	-0.834889
H153	H	0.413476	0.592442	0.305885
Cl154	Cl	0.792610	0.288113	-0.000148
H155	H	0.773047	0.330692	0.674332
Cl156	Cl	0.803844	0.396652	0.475460
Cl157	Cl	0.243732	1.613853	-0.741529
H158	H	0.532166	0.266880	0.150983
Cl159	Cl	0.221293	1.396791	-0.132989
H160	H	0.272684	1.005259	-0.151154
Cl161	Cl	-0.153632	1.005164	-0.271295
H162	H	0.143232	1.592562	-0.106907
Cl163	Cl	0.516853	0.722175	0.400677
Cl164	Cl	0.681556	0.396596	0.741357
Cl165	Cl	0.343626	1.396769	-0.524531
Cl166	Cl	0.347278	1.506577	-0.642267
Cl167	Cl	0.182634	1.005220	-0.188037
H168	H	0.069164	1.005209	-0.234424
Cl169	Cl	0.581662	0.613633	0.524360
H170	H	-0.143856	1.005154	0.234257
H171	H	-0.011094	1.005188	-0.234423
Cl172	Cl	0.132678	1.722348	-0.000075
Cl173	Cl	0.386005	0.454784	-0.166686
Cl174	Cl	-0.357181	1.005160	-0.188050
H175	H	0.566002	0.417916	0.811748
H176	H	0.782056	0.417887	0.106696
H177	H	0.223520	1.418039	-0.306029
Cl178	Cl	0.299508	0.751276	-0.354608
Cl179	Cl	-0.053802	1.005166	0.271139
Cl180	Cl	-0.257313	1.005183	-0.188064
H181	H	0.701768	0.592370	0.305857
H182	H	0.701787	0.592333	0.106739
Cl183	Cl	0.523812	0.739375	-0.475678
H184	H	0.516832	0.330717	0.792156
H185	H	0.511812	0.791543	-0.306028
H186	H	-0.347399	1.005175	0.150966
H187	H	-0.267130	1.005156	0.150987
H188	H	-0.011112	1.005148	0.234285
H189	H	0.408437	1.240769	-0.443432
H190	H	0.413473	0.417993	0.480336
H191	H	0.069154	1.005145	0.234291
H192	H	-0.063565	1.005180	-0.234426
Cl193	Cl	0.347279	1.506568	-0.859287
Cl194	Cl	0.581642	0.613704	-0.132992
H195	H	0.143242	1.592507	-0.480429
Cl196	Cl	0.182594	1.005235	0.187880
H197	H	0.272668	1.005245	0.150997
H198	H	0.321846	1.418011	0.106737
H199	H	0.683702	0.417977	-0.106944
H200	H	0.241586	1.592469	0.106736
