data_functionalizedCrystal
_audit_creation_method	'MofGen! by Chris Wilmer'
_symmetry_space_group_name_H-M	'P1'
_symmetry_Int_Tables_number	1
_symmetry_cell_setting	triclinic
loop_
_symmetry_equiv_pos_as_xyz
  x,y,z
_cell_length_a	14.519709
_cell_length_b	17.699083
_cell_length_c	16.176319
_cell_angle_alpha	89.992304
_cell_angle_beta	89.998204
_cell_angle_gamma	83.481580
loop_
_atom_site_label
_atom_site_type_symbol
_atom_site_fract_x
_atom_site_fract_y
_atom_site_fract_z
O1	O	-1.223449	-0.099215	0.068641
O2	O	-0.954923	-0.110899	0.068666
O3	O	-1.096773	0.005110	0.068645
O4	O	-1.081600	-0.215225	0.068661
O5	O	-1.096753	0.005118	-0.068848
O6	O	-0.954903	-0.110892	-0.068827
O7	O	-1.223430	-0.099208	-0.068853
Cu8	Cu	-1.089165	-0.105049	-0.081394
Cu9	Cu	-1.089188	-0.105058	0.081208
O10	O	-1.081580	-0.215217	-0.068832
C11	C	-0.920556	-0.110351	-0.000077
C12	C	-0.818181	-0.108719	-0.000068
C13	C	-1.096219	0.033312	-0.000101
C14	C	-1.094588	0.117335	-0.000101
C15	C	-1.257797	-0.099756	-0.000107
C16	C	-1.360171	-0.101388	-0.000111
C17	C	-0.443311	-0.102712	-0.000106
C18	C	-0.547612	-0.104380	-0.000095
C19	C	-0.630743	-0.105716	-0.000086
C20	C	-0.735050	-0.107384	-0.000077
C21	C	-1.082134	-0.243420	-0.000083
C22	C	-1.083765	-0.327442	-0.000078
N23	N	-1.089155	-0.105043	-0.195759
C24	C	-1.177851	0.165718	-0.000111
C25	C	-1.176313	0.244665	-0.000103
C26	C	-1.091511	0.275229	-0.000093
C27	C	-1.008242	0.226840	-0.000081
C28	C	-1.009781	0.147894	-0.000082
C29	C	-1.002033	0.545221	-0.000074
C30	C	-1.000501	0.624173	-0.000075
C31	C	-1.168566	0.641992	-0.000094
C32	C	-1.170105	0.563046	-0.000096
C33	C	-1.086836	0.514664	-0.000080
C34	C	-1.088505	0.429060	-0.000086
C35	C	-1.089841	0.360831	-0.000092
C36	C	-1.151985	-0.053695	-0.239033
C37	C	-1.151990	-0.053694	-0.325580
C38	C	-1.089168	-0.105045	-0.368852
C39	C	-1.026332	-0.156396	-0.325572
C40	C	-1.026323	-0.156392	-0.239027
C41	C	-1.026363	-0.156410	-0.674601
C42	C	-1.026378	-0.156411	-0.761152
C43	C	-1.152030	-0.053712	-0.761154
C44	C	-1.152022	-0.053708	-0.674608
C45	C	-1.089182	-0.105055	-0.631336
C46	C	-1.089177	-0.105055	-0.537492
C47	C	-1.089178	-0.105050	-0.462694
N48	N	-1.089205	-0.105059	0.195573
H49	H	-1.244114	0.284056	-0.000112
H50	H	-0.975218	-0.198229	-0.796383
H51	H	-0.934231	0.505837	-0.000061
H52	H	-1.239159	0.538166	-0.000109
C53	C	-1.258947	0.694560	0.000070
C54	C	-1.263000	0.740379	0.070820
C55	C	-1.346247	0.788804	0.071002
H56	H	-1.261922	0.725807	-0.047819
H57	H	-1.309697	0.665076	0.000105
H58	H	-1.212264	0.769860	0.070777
H59	H	-1.260041	0.709153	0.118720
H60	H	-1.396998	0.759320	0.071037
H61	H	-1.349216	0.820045	0.023110
H62	H	-1.349013	0.819892	0.119009
H63	H	-0.975199	-0.198220	-0.639376
C64	C	-1.270019	0.132685	-0.000077
C65	C	-1.342606	0.191958	-0.000059
C66	C	-1.427526	0.161560	-0.000012
H67	H	-1.274242	0.102275	-0.048011
H68	H	-1.274167	0.102275	0.047889
H69	H	-1.338461	0.222355	-0.048020
H70	H	-1.338414	0.222373	0.047871
H71	H	-1.431674	0.131150	0.047954
H72	H	-1.431740	0.131150	-0.047947
H73	H	-1.476787	0.201772	0.000008
H74	H	-0.975177	-0.198204	-0.360810
C75	C	-0.958068	-0.212229	-0.192190
C76	C	-0.903070	-0.257216	-0.248608
C77	C	-0.840187	-0.308667	-0.205494
H78	H	-0.919653	-0.185018	-0.158436
H79	H	-0.991142	-0.243837	-0.158436
H80	H	-0.869999	-0.225612	-0.282348
H81	H	-0.941460	-0.284443	-0.282364
H82	H	-0.873261	-0.340275	-0.171739
H83	H	-0.801778	-0.281449	-0.171741
H84	H	-0.802869	-0.339201	-0.243766
H85	H	-1.203146	-0.011882	-0.203806
H86	H	-0.941980	0.108501	-0.000075
H87	H	-1.203150	-0.011882	-0.360813
C88	C	-0.908330	0.657212	-0.000013
C89	C	-0.835735	0.597944	0.000025
C90	C	-0.750821	0.628351	0.000093
H91	H	-0.904094	0.687632	-0.047946
H92	H	-0.904204	0.687613	0.047954
H93	H	-0.839859	0.567556	-0.047937
H94	H	-0.839941	0.567519	0.047955
H95	H	-0.746695	0.658752	0.048059
H96	H	-0.746594	0.658771	-0.047841
H97	H	-0.701555	0.588143	0.000126
H98	H	-0.939195	0.251731	-0.000067
H99	H	-1.203180	-0.011896	-0.639378
C100	C	-1.220202	0.002168	-0.808033
C101	C	-1.205431	0.076570	-0.786975
C102	C	-1.268219	0.128064	-0.830134
H103	H	-1.211274	-0.005078	-0.865786
H104	H	-1.281747	-0.006118	-0.793826
H105	H	-1.143901	0.084853	-0.801188
H106	H	-1.214366	0.083841	-0.729230
H107	H	-1.329764	0.119778	-0.815927
H108	H	-1.259286	0.120811	-0.887885
H109	H	-1.258212	0.178551	-0.815847
