data_functionalizedCrystal
_audit_creation_method	'MofGen! by Chris Wilmer'
_symmetry_space_group_name_H-M	'P1'
_symmetry_Int_Tables_number	1
_symmetry_cell_setting	triclinic
loop_
_symmetry_equiv_pos_as_xyz
  x,y,z
_cell_length_a	11.792241
_cell_length_b	10.654550
_cell_length_c	9.130313
_cell_angle_alpha	90.003780
_cell_angle_beta	89.998583
_cell_angle_gamma	95.660841
loop_
_atom_site_label
_atom_site_type_symbol
_atom_site_fract_x
_atom_site_fract_y
_atom_site_fract_z
O1	O	0.159415	-1.667383	-0.121920
O2	O	0.174603	-1.301862	-0.121897
O3	O	0.001859	-1.493493	-0.121899
O4	O	0.332159	-1.475752	-0.121918
O5	O	0.001864	-1.493490	0.121700
O6	O	0.174608	-1.301859	0.121702
O7	O	0.159419	-1.667381	0.121678
Cu8	Cu	0.167014	-1.484620	0.143933
Cu9	Cu	0.167008	-1.484623	-0.144151
O10	O	0.332164	-1.475750	0.121680
C11	C	-0.040432	-1.492377	-0.000100
C12	C	-0.166454	-1.489042	-0.000101
C13	C	0.173490	-1.255066	-0.000095
C14	C	0.170154	-1.115632	-0.000085
C15	C	0.160532	-1.714177	-0.000127
C16	C	0.163869	-1.853611	-0.000146
C17	C	-0.397180	-1.482908	-0.000125
C18	C	-0.268787	-1.486316	-0.000112
C19	C	0.374455	-1.476865	-0.000122
C20	C	0.500476	-1.480201	-0.000130
N21	N	0.167017	-1.484627	0.346555
C22	C	0.271863	-1.035858	-0.000113
C23	C	0.268721	-0.904847	-0.000138
C24	C	0.062152	-0.933394	-0.000114
C25	C	0.065295	-1.064404	-0.000079
C26	C	0.376722	-1.087087	-0.000119
C27	C	0.478439	-1.007312	-0.000148
C28	C	0.475297	-0.876300	-0.000173
C29	C	0.370438	-0.825063	-0.000170
N30	N	0.166996	-1.484625	-0.346774
C31	C	0.090552	-1.569503	0.423206
C32	C	0.090539	-1.569500	0.576543
C33	C	0.243465	-1.399740	0.576564
C34	C	0.243472	-1.399739	0.423230
C35	C	0.014097	-1.654392	0.346531
C36	C	-0.062373	-1.739275	0.423182
C37	C	-0.062387	-1.739272	0.576519
C38	C	0.014070	-1.654385	0.653205
H39	H	0.379291	-1.193762	-0.000106
H40	H	0.014045	-1.654381	0.778062
H41	H	0.563812	-1.049039	-0.000139
Br42	Br	-0.072741	-1.172676	-0.000033
H43	H	0.305736	-1.330624	0.360820
H44	H	-0.023220	-0.891666	-0.000136
Br45	Br	0.014120	-1.654407	0.138432
H46	H	0.367888	-0.718383	-0.000167
Br47	Br	0.613338	-0.768037	-0.000193
Br48	Br	0.347223	-1.284545	0.680635
H49	H	-0.124628	-1.808381	0.360737
H50	H	-0.124659	-1.808379	0.638927
