data_functionalizedCrystal
_audit_creation_method	'MofGen! by Chris Wilmer'
_symmetry_space_group_name_H-M	'P1'
_symmetry_Int_Tables_number	1
_symmetry_cell_setting	triclinic
loop_
_symmetry_equiv_pos_as_xyz
  x,y,z
_cell_length_a	16.992694
_cell_length_b	15.944551
_cell_length_c	16.053802
_cell_angle_alpha	92.564789
_cell_angle_beta	87.249047
_cell_angle_gamma	87.083481
loop_
_atom_site_label
_atom_site_type_symbol
_atom_site_fract_x
_atom_site_fract_y
_atom_site_fract_z
O1	O	1.043704	0.174798	-0.069327
O2	O	0.815419	0.172843	-0.069352
O3	O	0.935795	0.051964	-0.069332
O4	O	0.923328	0.295677	-0.069348
O5	O	0.929169	0.058588	0.069526
O6	O	0.808793	0.179467	0.069506
O7	O	1.037078	0.181422	0.069530
Zn8	Zn	0.921884	0.181497	0.091565
Zn9	Zn	0.930613	0.172769	-0.091386
O10	O	0.916702	0.302301	0.069510
C11	C	0.782894	0.173641	0.000074
C12	C	0.695850	0.166141	0.000065
C13	C	0.645613	0.238506	0.000061
C14	C	0.563826	0.231454	0.000073
C15	C	0.532276	0.152037	0.000083
C16	C	0.582519	0.079667	0.000089
C17	C	0.664305	0.086719	0.000083
C18	C	0.288676	0.122807	0.000107
C19	C	0.206884	0.115759	0.000111
C20	C	0.188196	0.267548	0.000095
C21	C	0.269984	0.274593	0.000084
C22	C	0.320220	0.202223	0.000095
N23	N	0.448677	0.144827	0.000092
N24	N	0.403818	0.209434	0.000092
C25	C	0.931964	0.023948	0.000097
C26	C	0.930413	-0.069402	0.000098
C27	C	0.852090	-0.289513	0.000078
C28	C	0.885194	-0.344825	0.068547
C29	C	0.927606	-0.240317	0.000091
C30	C	0.891744	-0.351338	-0.068356
C31	C	0.924889	-0.405412	0.000081
C32	C	0.960728	-0.294396	0.068617
C33	C	0.967271	-0.300907	-0.068348
C34	C	1.000429	-0.356196	0.000138
C35	C	0.929169	-0.145209	0.000098
C36	C	0.923332	-0.500518	0.000080
C37	C	1.069603	0.180624	0.000103
C38	C	1.156648	0.188124	0.000106
C39	C	0.920533	0.330318	0.000079
C40	C	0.922085	0.423667	0.000073
N41	N	0.915931	0.187453	0.216424
N42	N	0.936572	0.166806	-0.216246
C43	C	0.967170	0.136040	0.260127
C44	C	0.963014	0.140215	0.347533
C45	C	0.907622	0.195808	0.391235
C46	C	0.856378	0.247223	0.347526
C47	C	0.860531	0.243043	0.260121
C48	C	0.889481	0.214042	0.652641
C49	C	0.885333	0.218220	0.740052
C50	C	0.991968	0.111209	0.740053
C51	C	0.996120	0.107038	0.652646
C52	C	0.944873	0.158450	0.608945
N53	N	0.903374	0.200078	0.480578
N54	N	0.949118	0.154175	0.519604
H55	H	0.705207	0.027792	0.000086
H56	H	0.789404	-0.260406	0.000139
C57	C	1.085141	-0.395393	0.000243
H58	H	1.095607	-0.431129	-0.048396
H59	H	1.090602	-0.427217	0.048454
H60	H	1.121468	-0.352032	0.000739
H61	H	0.818806	0.284908	0.224539
H62	H	1.001946	-0.281397	-0.126229
C63	C	0.838317	-0.371159	0.146733
H64	H	0.785625	-0.348197	0.146646
H65	H	0.862316	-0.350792	0.195353
H66	H	0.838076	-0.430740	0.146423
H67	H	0.862556	-0.376319	-0.126245
H68	H	1.041224	0.061770	0.617066
C69	C	1.000098	-0.260771	0.146905
H70	H	1.000814	-0.201253	0.146446
H71	H	1.052625	-0.284167	0.147113
H72	H	0.971127	-0.276137	0.195459
C73	C	0.680314	0.325863	0.000047
H74	H	0.736218	0.319702	0.000036
H75	H	0.660768	0.358203	0.048467
H76	H	0.665372	0.353576	-0.048384
C77	C	1.028101	0.074885	0.212062
H78	H	1.058015	0.044858	0.250612
H79	H	1.062361	0.105678	0.177954
H80	H	1.001509	0.036375	0.177979
H81	H	1.033690	0.069351	0.775642
C82	C	1.019384	0.083668	0.395602
H83	H	1.052976	0.049970	0.357057
H84	H	0.989567	0.048417	0.429711
H85	H	1.050401	0.117738	0.429686
H86	H	0.181201	0.051085	0.000118
H87	H	0.522926	0.290381	0.000068
H88	H	0.840224	0.263494	0.775630
H89	H	0.329568	0.063878	0.000117
C90	C	0.833118	0.270601	0.604581
H91	H	0.799542	0.304314	0.643129
H92	H	0.802096	0.236547	0.570494
H93	H	0.862948	0.305851	0.570475
C94	C	0.795450	0.308376	0.395595
H95	H	0.800319	0.303509	0.453910
H96	H	0.743801	0.295026	0.381282
H97	H	0.804652	0.364329	0.381257
H98	H	0.295666	0.339262	0.000066
C99	C	0.132940	0.347149	0.000087
H100	H	0.163444	0.395456	0.000074
H101	H	0.098341	0.349867	0.048510
H102	H	0.102953	0.345241	-0.048341
H103	H	0.556825	0.015004	0.000110
