data_functionalizedCrystal
_audit_creation_method	'MofGen! by Chris Wilmer'
_symmetry_space_group_name_H-M	'P1'
_symmetry_Int_Tables_number	1
_symmetry_cell_setting	triclinic
loop_
_symmetry_equiv_pos_as_xyz
  x,y,z
_cell_length_a	18.215407
_cell_length_b	19.805405
_cell_length_c	18.215399
_cell_angle_alpha	89.969667
_cell_angle_beta	89.983176
_cell_angle_gamma	90.027174
loop_
_atom_site_label
_atom_site_type_symbol
_atom_site_fract_x
_atom_site_fract_y
_atom_site_fract_z
Zn1	Zn	1.125041	-0.269446	-0.416116
Zn2	Zn	1.124952	-0.382642	-0.293050
Zn3	Zn	1.001980	-0.269473	-0.293063
Zn4	Zn	1.001935	-0.382599	-0.416075
O5	O	1.063477	-0.326040	-0.354576
O6	O	1.228013	-0.284468	-0.399803
O7	O	1.108620	-0.367659	-0.190067
O8	O	1.018360	-0.174753	-0.309410
O9	O	1.227948	-0.367633	-0.309386
O10	O	1.108772	-0.174733	-0.399816
O11	O	1.018274	-0.284514	-0.190077
O12	O	0.898990	-0.284473	-0.309369
O13	O	1.018284	-0.367560	-0.519064
O14	O	0.898957	-0.367586	-0.399745
O15	O	1.108729	-0.284427	-0.519095
O16	O	1.108577	-0.477353	-0.309346
O17	O	1.018198	-0.477321	-0.399732
C18	C	0.872271	-0.326028	-0.354555
C19	C	0.790472	-0.326040	-0.354563
C20	C	1.063393	-0.501896	-0.354549
C21	C	1.063424	-0.577128	-0.354563
C22	C	0.602280	-0.369385	-0.401563
C23	C	0.525421	-0.369387	-0.401572
C24	C	0.525426	-0.282707	-0.307605
C25	C	0.602283	-0.282702	-0.307600
C26	C	0.640708	-0.326045	-0.354578
C27	C	0.486992	-0.326052	-0.354592
C28	C	0.403658	-0.326054	-0.354602
C29	C	0.724047	-0.326042	-0.354570
C30	C	1.110474	-0.612404	-0.401674
C31	C	1.110501	-0.683092	-0.401688
C32	C	1.063481	-0.718503	-0.354586
C33	C	1.016426	-0.683223	-0.307472
C34	C	1.016396	-0.612536	-0.307463
C35	C	1.016544	-0.968296	-0.307510
C36	C	1.016579	-1.038988	-0.307521
C37	C	1.110649	-1.038852	-0.401735
C38	C	1.110619	-0.968165	-0.401725
C39	C	1.063562	-0.932891	-0.354615
C40	C	1.063532	-0.856242	-0.354602
C41	C	1.063513	-0.795151	-0.354595
C42	C	1.255430	-0.326052	-0.354598
C43	C	1.337229	-0.326057	-0.354607
C44	C	1.063512	-0.325986	-0.546529
C45	C	1.063526	-0.325963	-0.628328
C46	C	1.063581	-0.149497	-0.354619
C47	C	1.063625	-0.074265	-0.354637
C48	C	1.016523	-0.282640	-0.816528
C49	C	1.016535	-0.282627	-0.893387
C50	C	1.110618	-0.369205	-0.893366
C51	C	1.110601	-0.369221	-0.816508
C52	C	1.063554	-0.325935	-0.778091
C53	C	1.063584	-0.325905	-0.931808
C54	C	1.063598	-0.325890	-1.015141
C55	C	1.063539	-0.325950	-0.694752
C56	C	1.063485	-0.326045	-0.163370
C57	C	1.063612	-0.325877	-0.081571
H58	H	0.633563	-0.404676	-0.439817
C59	C	0.964762	-0.929503	-0.255704
N60	N	0.925752	-0.900282	-0.216687
C61	C	1.162356	-0.416839	-0.774226
N62	N	1.201340	-0.452700	-0.742378
C63	C	0.964764	-0.235030	-0.774272
N64	N	0.925775	-0.199170	-0.742447
C65	C	0.964638	-0.573733	-0.255636
N66	N	0.925651	-0.544508	-0.216600
C67	C	0.964801	-0.234995	-0.935664
N68	N	0.925833	-0.199115	-0.967506
C69	C	0.644557	-0.235022	-0.255910
N70	N	0.676397	-0.199111	-0.216980
C71	C	0.483151	-0.235036	-0.255928
N72	N	0.451310	-0.199131	-0.217002
H73	H	1.148767	-0.583576	-0.440027
C74	C	1.162269	-0.721892	-0.453504
N75	N	1.201267	-0.751116	-0.492532
C76	C	1.162205	-0.416965	-0.935631
N77	N	1.201004	-0.452992	-0.967465
H78	H	0.494136	-0.404678	-0.439833
C79	C	1.162349	-0.929217	-0.453536
N80	N	1.201313	-0.899881	-0.492562
C81	C	1.162408	-1.077660	-0.453564
N82	N	1.201392	-1.106890	-0.492599
H83	H	0.978138	-0.712061	-0.269124
H84	H	0.978286	-1.067818	-0.269164
