data_functionalizedCrystal
_audit_creation_method	'MofGen! by Chris Wilmer'
_symmetry_space_group_name_H-M	'P1'
_symmetry_Int_Tables_number	1
_symmetry_cell_setting	triclinic
loop_
_symmetry_equiv_pos_as_xyz
  x,y,z
_cell_length_a	6.817900
_cell_length_b	16.256275
_cell_length_c	16.255661
_cell_angle_alpha	95.350152
_cell_angle_beta	103.488922
_cell_angle_gamma	103.500333
loop_
_atom_site_label
_atom_site_type_symbol
_atom_site_fract_x
_atom_site_fract_y
_atom_site_fract_z
V1	V	-4.026776	-0.117778	-0.264174
O2	O	-4.014188	0.004956	-0.258835
O3	O	-3.978390	-0.232858	-0.262665
O4	O	-3.978337	-0.116275	-0.379253
O5	O	-4.014241	-0.112433	-0.141440
V6	V	-4.510407	-0.103061	-0.249458
O7	O	-4.287797	-0.150061	-0.296455
O8	O	-4.699583	-0.070779	-0.217177
O9	O	-4.335586	0.012018	-0.250967
O10	O	-4.640392	-0.225796	-0.254796
O11	O	-4.640339	-0.108406	-0.372192
O12	O	-4.335639	-0.104564	-0.134378
C13	C	-3.823396	-0.260902	-0.258575
C14	C	-3.865121	-0.354983	-0.258108
C15	C	-3.823327	-0.112188	-0.407293
C16	C	-3.865007	-0.111721	-0.501373
C17	C	-4.156068	-0.586814	-0.261383
C18	C	-4.122322	-0.651960	-0.329022
C19	C	-3.941423	-0.527229	-0.257239
C20	C	-4.049504	-0.629721	-0.188785
C21	C	-4.015138	-0.693610	-0.256397
C22	C	-3.907157	-0.591145	-0.324943
C23	C	-3.834331	-0.568892	-0.184644
C24	C	-3.800444	-0.634012	-0.252297
C25	C	-3.898963	-0.431381	-0.257726
C26	C	-4.057586	-0.789457	-0.255916
C27	C	-3.775560	-0.106138	-0.724178
C28	C	-3.932015	-0.178197	-0.793839
C29	C	-3.941391	-0.110845	-0.673620
C30	C	-3.859225	-0.037961	-0.771594
C31	C	-4.015158	-0.109994	-0.840001
C32	C	-4.097328	-0.182968	-0.742051
C33	C	-4.024476	-0.042668	-0.719790
C34	C	-4.181067	-0.114748	-0.789432
C35	C	-3.898890	-0.111335	-0.577772
C36	C	-4.057676	-0.109510	-0.935848
C37	C	-4.153923	0.040058	-0.255055
C38	C	-4.091435	0.134138	-0.255527
C39	C	-4.153992	-0.108654	-0.106334
C40	C	-4.091551	-0.109117	-0.012253
H41	H	-4.306013	-0.565956	-0.265315
N42	N	-3.726416	0.043214	-0.789375
H43	H	-3.636752	0.079483	-0.733458
H44	H	-3.819954	0.076233	-0.821190
H45	H	-3.650355	-0.654729	-0.248471
N46	N	-4.284101	-0.699706	-0.409872
H47	H	-4.408751	-0.735670	-0.394546
H48	H	-4.221581	-0.738029	-0.442557
N49	N	-3.827060	-0.568471	-0.401252
H50	H	-3.799267	-0.504644	-0.401119
H51	H	-3.935171	-0.599590	-0.455671
N52	N	-4.408725	-0.119585	-0.826993
H53	H	-4.498703	-0.174348	-0.816502
H54	H	-4.435400	-0.118696	-0.890642
N55	N	-4.129812	-0.652548	-0.112562
H56	H	-4.022467	-0.621111	-0.058064
H57	H	-4.156327	-0.716323	-0.112558
H58	H	-3.712256	-0.532828	-0.123605
N59	N	-4.230121	-0.264237	-0.724435
H60	H	-4.382828	-0.267704	-0.748802
H61	H	-4.200723	-0.264025	-0.660567
H62	H	-3.893373	-0.235496	-0.826072
N63	N	-3.548053	-0.101438	-0.686440
H64	H	-3.536813	-0.153561	-0.658254
H65	H	-3.481559	-0.048050	-0.642416
N66	N	-4.075573	0.033229	-0.677061
H67	H	-3.985130	0.087957	-0.687400
H68	H	-4.048132	0.031936	-0.613459
