data_functionalizedCrystal
_audit_creation_method	'MofGen! by Chris Wilmer'
_symmetry_space_group_name_H-M	'P1'
_symmetry_Int_Tables_number	1
_symmetry_cell_setting	triclinic
loop_
_symmetry_equiv_pos_as_xyz
  x,y,z
_cell_length_a	16.974959
_cell_length_b	16.974800
_cell_length_c	15.455313
_cell_angle_alpha	89.026089
_cell_angle_beta	83.692525
_cell_angle_gamma	83.162696
loop_
_atom_site_label
_atom_site_type_symbol
_atom_site_fract_x
_atom_site_fract_y
_atom_site_fract_z
O1	O	-0.101131	-1.048632	0.008597
O2	O	-0.113246	-0.819147	-0.006671
O3	O	0.008284	-0.940666	-0.006650
O4	O	-0.222661	-0.927113	0.008577
O5	O	0.001363	-0.933717	0.137609
O6	O	-0.120167	-0.812198	0.137588
O7	O	-0.108052	-1.041684	0.152856
Cu8	Cu	-0.114741	-0.926306	0.158394
Cu9	Cu	-0.106557	-0.934524	-0.012209
O10	O	-0.229582	-0.920165	0.152835
C11	C	-0.116119	-0.786316	0.063356
C12	C	-0.114359	-0.698842	0.057089
C13	C	0.034381	-0.936802	0.063380
C14	C	0.122454	-0.935633	0.057122
C15	C	-0.105179	-1.074515	0.082828
C16	C	-0.106939	-1.161989	0.089089
C17	C	-0.255679	-0.924028	0.082804
C18	C	-0.343752	-0.925198	0.089056
C19	C	0.618628	-0.929532	0.013369
C20	C	0.535872	-0.930622	0.019265
C21	C	0.490738	-0.927373	0.100849
C22	C	0.528364	-0.923042	0.176541
C23	C	0.611119	-0.921957	0.170645
C24	C	0.242835	-0.930216	0.126918
C25	C	0.160074	-0.931299	0.132809
C26	C	0.167589	-0.938881	-0.024468
C27	C	0.250344	-0.937791	-0.030358
C28	C	0.287964	-0.933464	0.045335
N29	N	0.406148	-0.928485	0.106878
N30	N	0.372553	-0.932357	0.039305
N31	N	-0.120498	-0.920532	0.278387
C32	C	-0.117302	-0.653963	0.132783
C33	C	-0.115636	-0.571774	0.126896
C34	C	-0.111031	-0.534464	0.045316
C35	C	-0.108085	-0.579348	-0.030383
C36	C	-0.109746	-0.661537	-0.024496
C37	C	-0.105654	-0.289063	0.019276
C38	C	-0.103995	-0.206868	0.013395
C39	C	-0.111545	-0.199299	0.170675
C40	C	-0.113210	-0.281489	0.176555
C41	C	-0.110260	-0.326367	0.100856
N42	N	-0.109330	-0.450452	0.039297
N43	N	-0.111955	-0.410377	0.106875
N44	N	-0.100794	-0.940305	-0.132202
C45	C	-0.068886	-0.972175	0.323793
C46	C	-0.073247	-0.967816	0.414600
C47	C	-0.129223	-0.911816	0.460001
C48	C	-0.180837	-0.860167	0.414589
C49	C	-0.176472	-0.864524	0.323783
C50	C	-0.148043	-0.893012	0.731580
C51	C	-0.152405	-0.888661	0.822393
C52	C	-0.044814	-0.996309	0.822398
C53	C	-0.040457	-1.000664	0.731590
C54	C	-0.092068	-0.949012	0.686186
N55	N	-0.133683	-0.907360	0.552820
N56	N	-0.087603	-0.953465	0.593367
H57	H	0.655370	-0.932170	-0.053066
C58	C	0.011960	-1.053116	0.872349
N59	N	0.054728	-1.095902	0.909972
H60	H	0.505246	-0.934153	-0.042367
C61	C	-0.118271	-0.322524	0.266300
N62	N	-0.122085	-0.353431	0.333897
C63	C	0.110428	-0.927732	0.222562
N64	N	0.073035	-0.925046	0.290160
H65	H	0.273455	-0.926694	0.188553
C66	C	-0.242404	-0.798559	0.464532
N67	N	-0.288777	-0.752155	0.502148
C68	C	0.478712	-0.919464	0.266284
N69	N	0.441314	-0.916764	0.333880
H70	H	0.287089	-0.940442	-0.096791
C71	C	-0.114782	-0.149927	0.253938
N72	N	-0.117216	-0.112741	0.316655
H73	H	0.641747	-0.918428	0.232277
H74	H	-0.100248	-0.176492	-0.053041
H75	H	-0.104330	-0.548965	-0.096808
C76	C	-0.204920	-0.836295	0.681661
N77	N	-0.247799	-0.793610	0.644065
H78	H	-0.121059	-0.684334	0.199215
H79	H	-0.103248	-0.325593	-0.042364
H80	H	-0.118020	-0.535239	0.188533
C81	C	0.021125	-1.062264	0.681656
N82	N	0.067509	-1.108662	0.644045
C83	C	-0.106509	-0.710903	-0.107765
N84	N	-0.104069	-0.748085	-0.170486
H85	H	-0.218498	-0.822469	0.286814
H86	H	-0.023308	-1.017779	0.286834
H87	H	-0.031221	-1.009867	0.451569
H88	H	0.136950	-0.942405	-0.086092
H89	H	-0.197991	-0.843057	0.859354
