data_functionalizedCrystal
_audit_creation_method	'MofGen! by Chris Wilmer'
_symmetry_space_group_name_H-M	'P1'
_symmetry_Int_Tables_number	1
_symmetry_cell_setting	triclinic
loop_
_symmetry_equiv_pos_as_xyz
  x,y,z
_cell_length_a	14.560438
_cell_length_b	21.606444
_cell_length_c	21.606444
_cell_angle_alpha	89.997469
_cell_angle_beta	60.000086
_cell_angle_gamma	119.999696
loop_
_atom_site_label
_atom_site_type_symbol
_atom_site_fract_x
_atom_site_fract_y
_atom_site_fract_z
Zr1	Zr	1.005284	0.081204	0.596228
O2	O	1.196892	0.180030	0.497398
O3	O	0.813680	0.050909	0.626525
O4	O	1.005290	0.180030	0.626518
O5	O	1.005275	-0.050944	0.497410
O6	O	1.005290	0.180029	0.728370
O7	O	1.005282	0.050910	0.497405
O8	O	0.662535	-0.050945	0.728383
O9	O	1.348030	0.180029	0.497398
O10	O	0.892488	0.037987	0.715457
O11	O	0.892483	-0.038025	0.639450
O12	O	1.118079	0.113998	0.639442
O13	O	1.118074	0.037987	0.563435
Zr14	Zr	1.005273	-0.081244	0.758679
Zr15	Zr	1.005283	0.081201	0.758670
Zr16	Zr	1.005273	-0.081242	0.596237
Zr17	Zr	1.246332	0.081201	0.596228
Zr18	Zr	0.764224	-0.081242	0.758679
O19	O	1.196877	-0.050950	0.728382
O20	O	1.196891	0.180027	0.728370
O21	O	1.196877	-0.050946	0.497410
O22	O	0.813665	-0.180071	0.857509
O23	O	0.813680	0.050906	0.857497
O24	O	0.813665	-0.180067	0.626537
O25	O	1.005281	0.050904	0.857497
O26	O	1.005267	-0.180071	0.728389
O27	O	1.005267	-0.180069	0.626537
O28	O	1.005275	-0.050950	0.857502
O29	O	1.348030	0.180027	0.626518
O30	O	0.662526	-0.180067	0.728389
O31	O	0.662526	-0.180069	0.857509
O32	O	0.662535	-0.050947	0.857503
O33	O	1.348022	0.050906	0.497404
O34	O	1.348022	0.050904	0.626524
O35	O	0.892478	-0.114039	0.715465
O36	O	0.892483	-0.038027	0.791472
O37	O	1.118074	0.037984	0.715457
O38	O	1.118069	-0.038027	0.639450
C39	C	0.703763	-0.000017	0.677454
C40	C	0.601432	-0.000016	0.677454
C41	C	1.005291	0.203174	0.677443
C42	C	1.005296	0.272137	0.677440
C43	C	1.005265	-0.203215	0.677464
C44	C	1.005261	-0.272177	0.677467
C45	C	0.553360	0.039662	0.717126
C46	C	0.457202	0.039656	0.717128
C47	C	0.457201	-0.039707	0.637779
C48	C	0.553350	-0.039706	0.637783
C49	C	0.601441	0.079351	0.756798
C50	C	0.553370	0.119034	0.796473
C51	C	0.457213	0.119028	0.796475
C52	C	0.409126	0.079340	0.756802
C53	C	1.306793	-0.000023	0.677453
C54	C	1.409125	-0.000024	0.677453
C55	C	1.005279	-0.000017	0.474263
C56	C	1.005279	-0.000016	0.405302
C57	C	1.123051	0.344213	0.637760
C58	C	1.123047	0.409008	0.637767
C59	C	1.005287	0.401725	0.677449
C60	C	0.887523	0.329641	0.717133
C61	C	0.887528	0.264848	0.717131
C62	C	0.887500	0.590944	0.717145
C63	C	0.887504	0.655745	0.717143
C64	C	1.123020	0.735104	0.637781
C65	C	1.123025	0.670311	0.637779
C66	C	1.005261	0.598233	0.677466
C67	C	1.005267	0.527976	0.677460
C68	C	1.005280	0.471981	0.677451
C69	C	1.005286	0.056098	0.372901
C70	C	1.005280	0.056096	0.308107
C71	C	1.005275	-0.000019	0.275712
C72	C	1.005264	-0.056139	0.308119
C73	C	1.005261	-0.056139	0.372915
C74	C	1.005273	-0.056142	0.046806
C75	C	1.005280	-0.056136	-0.017996
C76	C	1.005292	0.056093	-0.018002
C77	C	1.005289	0.056093	0.046793
C78	C	1.005271	-0.000029	0.079197
C79	C	1.005275	-0.000026	0.149455
C80	C	1.005280	-0.000019	0.205453
C81	C	1.005278	-0.000023	0.880644
C82	C	1.005278	-0.000024	0.949605
C83	C	0.703763	-0.000020	0.880644
C84	C	0.601431	-0.000020	0.949606
C85	C	0.703750	-0.203212	0.677464
C86	C	0.601414	-0.272173	0.677468
C87	C	0.703750	-0.203215	0.880655
C88	C	0.601414	-0.272177	0.949619
C89	C	1.306807	0.203175	0.474252
C90	C	1.409143	0.272137	0.405288
C91	C	1.306794	-0.000020	0.474263
C92	C	1.409125	-0.000020	0.405301
C93	C	1.306806	0.203171	0.677443
C94	C	1.409142	0.272133	0.677439
C95	C	0.553378	0.039665	0.942311
C96	C	0.457240	0.039680	1.007102
C97	C	0.409150	0.000005	1.079185
C98	C	0.457213	-0.039682	1.086478
C99	C	0.553356	-0.039692	1.021688
C100	C	0.553354	-0.344244	0.717149
C101	C	0.457212	-0.409046	0.717149
C102	C	0.409126	-0.401777	0.677473
C103	C	0.457196	-0.329699	0.637788
C104	C	0.553342	-0.264898	0.637783
C105	C	0.553358	-0.264886	1.021688
C106	C	0.457216	-0.329677	1.086493
C107	C	0.409125	-0.401759	1.079229
C108	C	0.457190	-0.409050	1.007153
C109	C	0.553337	-0.344259	0.942349
C110	C	1.457210	0.264845	0.333219
C111	C	1.553382	0.329637	0.268414
C112	C	1.601478	0.401719	0.275678
C113	C	1.553407	0.409009	0.347754
C114	C	1.457243	0.344219	0.412558
C115	C	1.457189	-0.039698	0.412596
C116	C	1.553353	-0.039696	0.347805
C117	C	1.601446	-0.000018	0.275722
C118	C	1.553379	0.039665	0.268429
C119	C	1.457223	0.039666	0.333219
C120	C	1.457198	0.264840	0.717123
C121	C	1.553341	0.329630	0.717134
C122	C	1.601432	0.401713	0.677457
C123	C	1.553367	0.409005	0.637772
C124	C	1.457220	0.344215	0.637765
H125	H	0.679740	0.079362	0.756799
H126	H	1.418103	0.350164	0.605447
H127	H	1.218936	0.467693	0.605457
H128	H	0.330836	-0.454510	1.132003
H129	H	1.418055	0.206158	0.327290
H130	H	0.418045	-0.071983	1.145177
H131	H	0.418020	-0.467748	1.001250
H132	H	0.592495	-0.350177	0.749458
H133	H	1.592505	0.323686	0.209733
H134	H	0.592451	-0.350207	0.883670
H135	H	1.679781	0.454470	0.222904
H136	H	0.592461	-0.206218	0.605473
H137	H	0.791604	0.649807	0.749459
H138	H	0.791639	0.206161	0.749442
H139	H	1.592551	0.071969	0.209730
H140	H	1.592580	0.467706	0.353659
H141	H	1.418108	0.350165	0.471237
H142	H	1.005300	0.101788	-0.044390
H143	H	0.330822	0.079334	0.756810
H144	H	1.005253	-0.101833	0.399297
H145	H	0.418084	-0.467729	0.749469
H146	H	1.218917	0.676247	0.605462
H147	H	1.592538	0.467703	0.605467
H148	H	0.592500	-0.206199	1.027617
H149	H	0.330837	-0.454549	0.677483
H150	H	0.592469	-0.072013	1.027638
H151	H	1.218909	0.793799	0.605468
H152	H	0.418029	-0.323792	0.605484
H153	H	1.418039	-0.072013	0.471284
H154	H	0.592520	0.151342	0.828779
H155	H	0.418091	-0.323728	1.145175
H156	H	1.005298	0.101796	0.399270
H157	H	1.592474	-0.072013	0.353758
H158	H	1.418092	0.071975	0.327269
H159	H	0.418044	-0.072018	0.605478
H160	H	1.679743	-0.000025	0.222972
H161	H	0.418065	0.151333	0.828785
H162	H	1.418057	0.206152	0.749433
H163	H	0.330863	0.000019	1.131935
H164	H	1.592465	0.323678	0.749449
H165	H	1.679722	0.454463	0.677468
H166	H	1.218945	0.350152	0.605441
H167	H	0.592498	-0.072011	0.605473
H168	H	1.005284	0.101788	0.281727
H169	H	0.791610	0.532264	0.749462
H170	H	1.005299	0.101789	0.073165
H171	H	1.005274	-0.101834	-0.044370
H172	H	1.005262	-0.101837	0.073183
H173	H	0.791640	0.323716	0.749447
H174	H	1.005252	-0.101832	0.281743
H175	H	0.418119	0.071997	1.001149
H176	H	0.592531	0.071982	0.883623
