data_functionalizedCrystal
_audit_creation_method	'MofGen! by Chris Wilmer'
_symmetry_space_group_name_H-M	'P1'
_symmetry_Int_Tables_number	1
_symmetry_cell_setting	triclinic
loop_
_symmetry_equiv_pos_as_xyz
  x,y,z
_cell_length_a	17.699083
_cell_length_b	17.699083
_cell_length_c	8.965430
_cell_angle_alpha	89.991253
_cell_angle_beta	90.002817
_cell_angle_gamma	83.283015
loop_
_atom_site_label
_atom_site_type_symbol
_atom_site_fract_x
_atom_site_fract_y
_atom_site_fract_z
O1	O	-1.004074	-0.095715	0.123833
O2	O	-0.783696	-0.108167	0.123882
O3	O	-0.900111	0.008248	0.123843
O4	O	-0.887659	-0.212130	0.123872
O5	O	-0.900105	0.008259	-0.124236
O6	O	-0.783689	-0.108156	-0.124196
O7	O	-1.004068	-0.095704	-0.124246
Cu8	Cu	-0.893878	-0.101929	-0.146873
Cu9	Cu	-0.893885	-0.101942	0.146509
O10	O	-0.887652	-0.212119	-0.124207
C11	C	-0.755495	-0.107716	-0.000151
C12	C	-0.671477	-0.106377	-0.000132
C13	C	-0.899662	0.036451	-0.000196
C14	C	-0.898323	0.120469	-0.000197
C15	C	-1.032268	-0.096156	-0.000209
C16	C	-1.116286	-0.097494	-0.000218
C17	C	-0.888102	-0.240322	-0.000164
C18	C	-0.889440	-0.324340	-0.000154
C19	C	-0.622856	-0.174710	-0.000124
C20	C	-0.543913	-0.173448	-0.000143
C21	C	-0.513592	-0.103852	-0.000161
C22	C	-0.562219	-0.035513	-0.000174
C23	C	-0.641161	-0.036776	-0.000165
C24	C	-0.243856	-0.030418	-0.000211
C25	C	-0.164908	-0.029160	-0.000216
C26	C	-0.146608	-0.167090	-0.000190
C27	C	-0.225550	-0.168353	-0.000181
C28	C	-0.274170	-0.100015	-0.000202
C29	C	-0.359769	-0.101384	-0.000183
C30	C	-0.427995	-0.102481	-0.000168
C31	C	-0.966656	0.169090	-0.000214
C32	C	-0.965394	0.248033	-0.000200
C33	C	-0.895798	0.278354	-0.000180
C34	C	-0.827459	0.229727	-0.000158
C35	C	-0.828722	0.150785	-0.000161
C36	C	-0.822364	0.548090	-0.000145
C37	C	-0.821106	0.627038	-0.000147
C38	C	-0.959036	0.645338	-0.000184
C39	C	-0.960299	0.566396	-0.000187
C40	C	-0.891961	0.517776	-0.000157
C41	C	-0.893330	0.432177	-0.000169
C42	C	-0.894427	0.363951	-0.000179
N43	N	-0.893878	-0.101920	-0.353222
C44	C	-0.947304	-0.047666	-0.549910
C45	C	-0.962474	-0.115819	-0.450428
C46	C	-0.878742	-0.033772	-0.450496
C47	C	-0.909095	-0.170133	-0.549848
C48	C	-0.825333	-0.088041	-0.549925
C49	C	-0.840474	-0.156244	-0.450488
N50	N	-0.893891	-0.101946	0.352858
H51	H	-0.647537	-0.231384	-0.000109
O52	O	-0.748568	-0.072441	-0.607871
H53	H	-0.723474	-0.121450	-0.675923
O54	O	-0.491469	-0.247150	-0.000135
H55	H	-0.525815	-0.295756	-0.000103
O56	O	-0.258256	-0.243417	-0.000184
H57	H	-0.211183	-0.290723	-0.000203
O58	O	-0.132207	0.045911	-0.000248
H59	H	-0.069146	0.035305	-0.000234
H60	H	-0.865934	0.023871	-0.406852
H61	H	-0.107012	-0.222734	-0.000181
H62	H	-0.283434	0.025228	-0.000230
O63	O	-0.746035	0.659739	-0.000125
H64	H	-0.756641	0.722800	-0.000149
H65	H	-0.795297	-0.202184	-0.407110
O66	O	-0.752392	0.262425	-0.000132
H67	H	-0.719559	0.242884	-0.101230
H68	H	-0.537526	0.021154	-0.000209
O69	O	-0.693608	0.036925	-0.000170
H70	H	-0.659264	0.085533	-0.000170
O71	O	-1.041725	0.136394	-0.000237
H72	H	-1.031126	0.073332	-0.000249
O73	O	-0.926164	-0.246502	-0.607396
H74	H	-0.877794	-0.272254	-0.676376
H75	H	-1.016971	0.541714	-0.000211
O76	O	-1.039096	0.300477	-0.000244
H77	H	-1.087702	0.266131	-0.000286
O78	O	-1.032749	0.697777	-0.000204
H79	H	-1.020183	0.757765	-0.000183
H80	H	-0.773078	0.111198	-0.000147
O81	O	-0.748660	0.495653	-0.000151
H82	H	-0.700056	0.530002	-0.000164
H83	H	-0.992509	-0.001826	-0.593562
O84	O	-1.039258	-0.131394	-0.392512
H85	H	-1.083505	-0.086273	-0.432317
