data_functionalizedCrystal
_audit_creation_method	'MofGen! by Chris Wilmer'
_symmetry_space_group_name_H-M	'P1'
_symmetry_Int_Tables_number	1
_symmetry_cell_setting	triclinic
loop_
_symmetry_equiv_pos_as_xyz
  x,y,z
_cell_length_a	15.944545
_cell_length_b	15.021413
_cell_length_c	19.288865
_cell_angle_alpha	90.001222
_cell_angle_beta	83.316210
_cell_angle_gamma	90.004532
loop_
_atom_site_label
_atom_site_type_symbol
_atom_site_fract_x
_atom_site_fract_y
_atom_site_fract_z
O1	O	1.114187	0.073985	0.089552
O2	O	1.447521	0.407318	0.422885
O3	O	1.780854	0.740652	0.756219
O4	O	0.869594	0.074001	0.100601
O5	O	1.202928	0.407334	0.433935
O6	O	1.536261	0.740667	0.767268
O7	O	0.998958	0.073975	-0.006035
O8	O	1.332292	0.407308	0.327298
O9	O	1.665625	0.740641	0.660631
O10	O	0.984823	0.074011	0.196188
O11	O	1.318157	0.407344	0.529522
O12	O	1.651490	0.740678	0.862855
O13	O	0.998938	-0.074090	-0.006020
O14	O	1.332271	0.259244	0.327313
O15	O	1.665604	0.592577	0.660647
O16	O	0.869574	-0.074064	0.100616
O17	O	1.202907	0.259270	0.433950
O18	O	1.536240	0.592603	0.767283
O19	O	1.114167	-0.074079	0.089567
O20	O	1.447500	0.259254	0.422901
O21	O	1.780833	0.592587	0.756234
Zn22	Zn	0.991867	-0.097580	0.095094
Zn23	Zn	1.325200	0.235754	0.428428
Zn24	Zn	1.658534	0.569087	0.761761
Zn25	Zn	0.991894	0.097501	0.095074
Zn26	Zn	1.325227	0.430835	0.428408
Zn27	Zn	1.658561	0.764168	0.761741
O28	O	0.984803	-0.074053	0.196204
O29	O	1.318136	0.259280	0.529537
O30	O	1.651469	0.592613	0.862870
C31	C	0.838292	-0.000030	0.100151
C32	C	1.171625	0.333304	0.433484
C33	C	1.504958	0.666637	0.766818
C34	C	0.745051	-0.000024	0.098778
C35	C	1.078384	0.333309	0.432111
C36	C	1.411717	0.666642	0.765445
C37	C	0.474688	-0.000046	0.028578
C38	C	0.808022	0.333287	0.361911
C39	C	1.141355	0.666620	0.695244
C40	C	0.525129	-0.073046	0.062430
C41	C	0.858463	0.260287	0.395763
C42	C	1.191796	0.593621	0.729097
C43	C	0.409426	-0.000041	0.093882
C44	C	0.742759	0.333293	0.427215
C45	C	1.076092	0.666626	0.760549
C46	C	0.525130	0.072934	0.062433
C47	C	0.858464	0.406267	0.395766
C48	C	1.191797	0.739600	0.729099
C49	C	0.574330	-0.000031	0.096284
C50	C	0.907663	0.333302	0.429617
C51	C	1.240997	0.666635	0.762951
C52	C	0.458639	-0.073100	0.127717
C53	C	0.791972	0.260233	0.461050
C54	C	1.125305	0.593566	0.794384
C55	C	0.458636	0.072945	0.127710
C56	C	0.791969	0.406278	0.461043
C57	C	1.125303	0.739612	0.794377
C58	C	0.509044	-0.000072	0.161611
C59	C	0.842378	0.333261	0.494944
C60	C	1.175711	0.666594	0.828277
C61	C	0.314429	-0.000047	0.092497
C62	C	0.647762	0.333287	0.425830
C63	C	0.981096	0.666620	0.759163
C64	C	0.669324	-0.000031	0.097675
C65	C	1.002657	0.333302	0.431008
C66	C	1.335991	0.666635	0.764341
N67	N	0.991855	-0.230717	0.095108
N68	N	1.325188	0.102616	0.428441
N69	N	1.658521	0.435949	0.761774
C70	C	0.932028	-0.470389	0.144393
C71	C	1.265361	-0.137055	0.477726
C72	C	1.598694	0.196278	0.811060
C73	C	1.007876	-0.529725	0.157876
C74	C	1.341210	-0.196392	0.491210
C75	C	1.674543	0.136942	0.824543
C76	C	0.991876	-0.412324	0.095090
C77	C	1.325209	-0.078991	0.428424
C78	C	1.658543	0.254342	0.761757
C79	C	0.916048	-0.529730	0.081622
C80	C	1.249381	-0.196396	0.414956
C81	C	1.582715	0.136937	0.748289
C82	C	0.991890	-0.587748	0.095075
C83	C	1.325223	-0.254415	0.428408
C84	C	1.658557	0.078918	0.761742
C85	C	1.067763	-0.470354	0.108605
C86	C	1.401096	-0.137021	0.441938
C87	C	1.734430	0.196312	0.775271
C88	C	0.975885	-0.470354	0.032324
C89	C	1.309218	-0.137020	0.365657
C90	C	1.642552	0.196313	0.698990
C91	C	1.051788	-0.529663	0.045780
C92	C	1.385122	-0.196330	0.379113
C93	C	1.718455	0.137003	0.712447
C94	C	0.991867	-0.311267	0.095101
C95	C	1.325200	0.022066	0.428434
C96	C	1.658533	0.355400	0.761767
C97	C	0.991908	-0.688804	0.095064
C98	C	1.325241	-0.355470	0.428397
C99	C	1.658575	-0.022137	0.761731
C100	C	1.145469	-0.000047	0.090018
C101	C	1.478803	0.333286	0.423351
C102	C	1.812136	0.666620	0.756684
C103	C	1.238710	-0.000046	0.091390
C104	C	1.572044	0.333287	0.424724
C105	C	1.905377	0.666620	0.758057
C106	C	0.998493	-0.000060	-0.031905
C107	C	1.331827	0.333273	0.301428
C108	C	1.665160	0.666607	0.634761
C109	C	0.997128	-0.000068	-0.109012
C110	C	1.330461	0.333266	0.224321
C111	C	1.663795	0.666599	0.557654
N112	N	0.991913	0.230639	0.095055
N113	N	1.325246	0.563972	0.428389
N114	N	1.658580	0.897305	0.761722
C115	C	1.073033	-0.000077	-0.153510
C116	C	1.406366	0.333256	0.179823
C117	C	1.739700	0.666590	0.513157
C118	C	1.071750	-0.000063	-0.225961
C119	C	1.405084	0.333271	0.107373
C120	C	1.738417	0.666604	0.440706
C121	C	0.994558	-0.000057	-0.253910
C122	C	1.327892	0.333276	0.079423
C123	C	1.661225	0.666609	0.412757
C124	C	0.918643	-0.000043	-0.209402
C125	C	1.251977	0.333290	0.123931
C126	C	1.585310	0.666624	0.457264
C127	C	0.919928	-0.000048	-0.136954
C128	C	1.253261	0.333285	0.196380
C129	C	1.586595	0.666618	0.529713
C130	C	0.933869	-0.051917	-0.362351
C131	C	1.267202	0.281416	-0.029017
C132	C	1.600536	0.614750	0.304316
C133	C	0.932587	-0.051917	-0.434799
C134	C	1.265921	0.281416	-0.101465
C135	C	1.599254	0.614749	0.231868
C136	C	0.990592	-0.000037	-0.477366
C137	C	1.323925	0.333296	-0.144033
C138	C	1.657259	0.666630	0.189301
C139	C	1.049893	0.051832	-0.447478
C140	C	1.383226	0.385165	-0.114145
C141	C	1.716560	0.718499	0.219189
C142	C	1.051178	0.051827	-0.375029
C143	C	1.384511	0.385160	-0.041696
C144	C	1.717844	0.718493	0.291637
C145	C	0.993156	-0.000051	-0.332468
C146	C	1.326490	0.333282	0.000866
C147	C	1.659823	0.666616	0.334199
C148	C	1.065112	-0.000030	-0.600423
C149	C	1.398445	0.333304	-0.267090
C150	C	1.731778	0.666637	0.066243
C151	C	1.063826	-0.000010	-0.672875
C152	C	1.397159	0.333323	-0.339541
C153	C	1.730492	0.666657	-0.006208
C154	C	0.910717	0.000001	-0.656315
C155	C	1.244050	0.333334	-0.322982
C156	C	1.577383	0.666667	0.010352
C157	C	0.912005	-0.000010	-0.583865
C158	C	1.245338	0.333323	-0.250532
C159	C	1.578671	0.666657	0.082802
C160	C	0.989204	-0.000029	-0.555924
C161	C	1.322538	0.333304	-0.222591
C162	C	1.655871	0.666637	0.110743
C163	C	0.985268	-0.000017	0.222074
C164	C	1.318601	0.333317	0.555407
C165	C	1.651934	0.666650	0.888740
C166	C	0.986633	-0.000003	0.299181
C167	C	1.319966	0.333330	0.632514
C168	C	1.653300	0.666664	0.965848
H169	H	0.429714	-0.134882	0.155283
H170	H	0.763048	0.198451	0.488616
H171	H	1.096381	0.531785	0.821949
H172	H	0.524319	-0.000105	0.217895
H173	H	0.857653	0.333228	0.551228
H174	H	1.190986	0.666562	0.884562
H175	H	1.099461	0.094062	-0.350698
H176	H	1.432794	0.427395	-0.017364
H177	H	1.766127	0.760728	0.315969
F178	F	1.118020	-0.563473	-0.008728
F179	F	1.451353	-0.230139	0.324606
F180	F	1.784686	0.103194	0.657939
F181	F	0.872129	-0.107140	-0.317054
F182	F	1.205463	0.226193	0.016280
F183	F	1.538796	0.559526	0.349613
H184	H	0.855793	-0.000037	-0.232163
H185	H	1.189126	0.333297	0.101170
H186	H	1.522460	0.666630	0.434503
F187	F	1.111630	0.107052	-0.492776
F188	F	1.444964	0.440385	-0.159442
F189	F	1.778297	0.773719	0.173891
F190	F	0.839136	-0.000038	-0.089594
F191	F	1.172469	0.333295	0.243740
F192	F	1.505803	0.666629	0.577073
H193	H	0.847865	0.000010	-0.679070
H194	H	1.181199	0.333343	-0.345737
H195	H	1.514532	0.666676	-0.012404
F196	F	0.454509	-0.000150	-0.044932
F197	F	0.787842	0.333183	0.288401
F198	F	1.121175	0.666517	0.621735
F199	F	1.147273	-0.000055	-0.570684
F200	F	1.480606	0.333279	-0.237350
F201	F	1.813940	0.666612	0.095983
H202	H	0.429592	0.134672	0.155259
H203	H	0.762926	0.468006	0.488593
H204	H	1.096259	0.801339	0.821926
F205	F	0.563079	0.153595	0.026362
F206	F	0.896412	0.486928	0.359696
F207	F	1.229745	0.820262	0.693029
H208	H	0.850194	-0.000007	-0.547634
H209	H	1.183528	0.333326	-0.214300
H210	H	1.516861	0.666659	0.119033
F211	F	0.865941	-0.436367	0.198932
F212	F	1.199275	-0.103033	0.532265
F213	F	1.532608	0.230300	0.865599
F214	F	1.152542	-0.000071	-0.273327
F215	F	1.485875	0.333262	0.060006
F216	F	1.819208	0.666595	0.393340
F217	F	1.025573	-0.563813	0.227246
F218	F	1.358906	-0.230480	0.560580
F219	F	1.692240	0.102854	0.893913
H220	H	0.884298	-0.094147	-0.459127
H221	H	1.217631	0.239186	-0.125794
H222	H	1.550964	0.572520	0.207540
F223	F	1.151608	-0.436411	0.123566
F224	F	1.484942	-0.103078	0.456899
F225	F	1.818275	0.230255	0.790232
F226	F	0.958159	-0.436238	-0.037026
F227	F	1.291492	-0.102904	0.296307
F228	F	1.624826	0.230429	0.629641
F229	F	0.832223	-0.563822	0.066741
F230	F	1.165557	-0.230488	0.400074
F231	F	1.498890	0.102845	0.733407
F232	F	1.155196	-0.000079	-0.123777
F233	F	1.488529	0.333255	0.209556
F234	F	1.821863	0.666588	0.542889
H235	H	1.125639	-0.000013	-0.709105
H236	H	1.458973	0.333321	-0.375772
H237	H	1.792306	0.666654	-0.042438
H238	H	0.554158	-0.134771	0.034857
H239	H	0.887491	0.198562	0.368190
H240	H	1.220825	0.531895	0.701523
