data_functionalizedCrystal
_audit_creation_method	'MofGen! by Chris Wilmer'
_symmetry_space_group_name_H-M	'P1'
_symmetry_Int_Tables_number	1
_symmetry_cell_setting	triclinic
loop_
_symmetry_equiv_pos_as_xyz
  x,y,z
_cell_length_a	8.497374
_cell_length_b	8.497374
_cell_length_c	14.908571
_cell_angle_alpha	93.295221
_cell_angle_beta	86.691137
_cell_angle_gamma	90.000078
loop_
_atom_site_label
_atom_site_type_symbol
_atom_site_fract_x
_atom_site_fract_y
_atom_site_fract_z
Zn1	Zn	-0.767763	1.031072	1.379253
Zn2	Zn	-1.031510	0.767314	1.379263
Zn3	Zn	-0.752489	0.752097	1.228429
Zn4	Zn	-1.016247	1.015842	1.228425
O5	O	-0.892003	0.891581	1.303843
O6	O	-0.815529	1.008827	1.505501
O7	O	-0.994493	0.544534	1.359261
O8	O	-0.533753	0.789109	1.248433
O9	O	-1.009303	0.815045	1.505509
O10	O	-0.544975	0.994071	1.359243
O11	O	-0.789497	0.533354	1.248444
O12	O	-0.774698	0.774341	1.102182
O13	O	-0.983290	1.238624	1.248427
O14	O	-0.968480	0.968113	1.102179
O15	O	-0.800730	1.249814	1.359239
O16	O	-1.250248	0.800277	1.359257
O17	O	-1.239035	0.982869	1.248437
C18	C	-0.868276	0.867924	1.069446
C19	C	-0.858164	0.857841	0.969171
C20	C	-0.301882	0.891575	1.303840
C21	C	-0.480527	0.891585	1.303844
C22	C	-0.892004	1.303061	1.303836
C23	C	-0.892021	1.481705	1.303838
C24	C	-1.041260	1.040397	0.780788
C25	C	-1.031764	1.030928	0.686570
C26	C	-0.829668	0.829443	0.686515
C27	C	-0.839164	0.838912	0.780733
C28	C	-0.944966	0.944391	0.827866
C29	C	-0.954469	0.953850	0.922086
C30	C	-0.752366	0.752375	0.922029
C31	C	-0.742870	0.742906	0.827812
C32	C	-0.915822	0.915332	1.539154
C33	C	-0.925973	0.925453	1.639430
H34	H	-1.127416	1.126273	0.819164
C35	C	-0.713286	0.713440	0.634663
H36	H	-0.657282	0.657623	0.676193
H37	H	-0.769814	0.640922	0.597902
H38	H	-0.640933	0.770224	0.597912
H39	H	-1.110174	1.109109	0.648242
H40	H	-0.673959	0.674196	0.960371
H41	H	-1.040621	1.039734	0.960460
H42	H	-0.656726	0.657033	0.789423
