data_functionalizedCrystal
_audit_creation_method	'MofGen! by Chris Wilmer'
_symmetry_space_group_name_H-M	'P1'
_symmetry_Int_Tables_number	1
_symmetry_cell_setting	triclinic
loop_
_symmetry_equiv_pos_as_xyz
  x,y,z
_cell_length_a	17.019282
_cell_length_b	14.519709
_cell_length_c	16.098692
_cell_angle_alpha	86.949862
_cell_angle_beta	83.070929
_cell_angle_gamma	83.534293
loop_
_atom_site_label
_atom_site_type_symbol
_atom_site_fract_x
_atom_site_fract_y
_atom_site_fract_z
O1	O	1.047113	0.117739	-0.005866
O2	O	1.380446	0.451072	0.327468
O3	O	1.713780	0.784405	0.660801
O4	O	0.816718	0.131857	0.010665
O5	O	1.150051	0.465191	0.343999
O6	O	1.483384	0.798524	0.677332
O7	O	0.938024	-0.009437	0.001954
O8	O	1.271358	0.323896	0.335287
O9	O	1.604691	0.657230	0.668621
O10	O	0.925806	0.259033	0.002846
O11	O	1.259140	0.592366	0.336179
O12	O	1.592473	0.925700	0.669512
O13	O	0.944327	-0.002061	-0.137008
O14	O	1.277660	0.331272	0.196326
O15	O	1.610994	0.664605	0.529659
O16	O	0.823020	0.139233	-0.128296
O17	O	1.156354	0.472566	0.205037
O18	O	1.489687	0.805900	0.538370
O19	O	1.053416	0.125114	-0.144827
O20	O	1.386749	0.458448	0.188506
O21	O	1.720082	0.791781	0.521840
Zn22	Zn	0.939219	0.133345	-0.158625
Zn23	Zn	1.272552	0.466678	0.174709
Zn24	Zn	1.605885	0.800011	0.508042
Zn25	Zn	0.930915	0.123627	0.024463
Zn26	Zn	1.264248	0.456960	0.357796
Zn27	Zn	1.597581	0.790294	0.691130
O28	O	0.932109	0.266409	-0.136116
O29	O	1.265442	0.599742	0.197217
O30	O	1.598776	0.933075	0.530551
C31	C	0.940606	-0.040109	-0.067486
C32	C	1.273940	0.293224	0.265847
C33	C	1.607273	0.626558	0.599181
C34	C	0.938900	-0.142491	-0.067364
C35	C	1.272233	0.190842	0.265969
C36	C	1.605567	0.524175	0.599303
C37	C	0.790383	0.134866	-0.056700
C38	C	1.123716	0.468200	0.276633
C39	C	1.457050	0.801533	0.609967
C40	C	0.702524	0.132833	-0.050396
C41	C	1.035857	0.466167	0.282937
C42	C	1.369191	0.799500	0.616270
C43	C	0.932618	-0.517391	-0.066892
C44	C	1.265951	-0.184058	0.266442
C45	C	1.599284	0.149275	0.599775
C46	C	0.934362	-0.413082	-0.067023
C47	C	1.267696	-0.079749	0.266310
C48	C	1.601029	0.253584	0.599643
C49	C	0.935759	-0.329945	-0.067129
C50	C	1.269092	0.003389	0.266205
C51	C	1.602425	0.336722	0.599538
C52	C	0.937504	-0.225629	-0.067259
C53	C	1.270837	0.107704	0.266075
C54	C	1.604170	0.441038	0.599408
C55	C	0.664688	0.135896	-0.123185
C56	C	0.998021	0.469230	0.210149
C57	C	1.331355	0.802563	0.543482
C58	C	0.582137	0.133971	-0.117264
C59	C	0.915470	0.467305	0.216069
C60	C	1.248803	0.800638	0.549403
C61	C	0.537422	0.128990	-0.038554
C62	C	0.870755	0.462323	0.294779
C63	C	1.204089	0.795657	0.628112
C64	C	0.575264	0.125924	0.034239
C65	C	0.908597	0.459257	0.367573
C66	C	1.241930	0.792590	0.700906
C67	C	0.657814	0.127842	0.028318
C68	C	0.991148	0.461175	0.361651
C69	C	1.324481	0.794509	0.694985
C70	C	0.288001	0.122990	-0.016886
C71	C	0.621335	0.456324	0.316447
C72	C	0.954668	0.789657	0.649781
C73	C	0.205445	0.121075	-0.010970
C74	C	0.538778	0.454408	0.322363
C75	C	0.872112	0.787742	0.655697
C76	C	0.212324	0.129121	-0.162474
C77	C	0.545657	0.462454	0.170859
C78	C	0.878990	0.795788	0.504192
C79	C	0.294875	0.131045	-0.168389
C80	C	0.628208	0.464378	0.164945
C81	C	0.961542	0.797711	0.498278
C82	C	0.332710	0.127973	-0.095595
C83	C	0.666043	0.461307	0.237738
C84	C	0.999377	0.794640	0.571072
C85	C	0.453041	0.127025	-0.032501
C86	C	0.786374	0.460358	0.300833
C87	C	1.119708	0.793692	0.634166
C88	C	0.417090	0.129932	-0.101649
C89	C	0.750424	0.463265	0.231684
C90	C	1.083757	0.796598	0.565017
C91	C	1.079750	0.122105	-0.077460
C92	C	1.413084	0.455438	0.255873
C93	C	1.746417	0.788772	0.589206
C94	C	1.167609	0.124138	-0.083758
C95	C	1.500942	0.457471	0.249575
C96	C	1.834276	0.790805	0.582908
C97	C	0.929527	0.297081	-0.066674
C98	C	1.262860	0.630414	0.266659
C99	C	1.596194	0.963747	0.599993
C100	C	0.931233	0.399463	-0.066791
C101	C	1.264566	0.732796	0.266543
C102	C	1.597900	1.066129	0.599876
N103	N	0.944892	0.139976	-0.283578
N104	N	1.278225	0.473310	0.049756
N105	N	1.611558	0.806643	0.383089
C106	C	0.898817	0.086215	-0.323884
C107	C	1.232150	0.419548	0.009449
C108	C	1.565484	0.752882	0.342783
C109	C	0.902805	0.090865	-0.411357
C110	C	1.236139	0.424198	-0.078023
C111	C	1.569472	0.757532	0.255310
C112	C	0.952873	0.149272	-0.458522
C113	C	1.286207	0.482606	-0.125189
C114	C	1.619540	0.815939	0.208145
C115	C	0.998950	0.203040	-0.418210
C116	C	1.332283	0.536373	-0.084876
C117	C	1.665616	0.869706	0.248457
C118	C	0.994956	0.198394	-0.330738
C119	C	1.328290	0.531727	0.002595
C120	C	1.661623	0.865061	0.335928
C121	C	0.967331	0.166110	-0.722801
C122	C	1.300664	0.499443	-0.389468
C123	C	1.633998	0.832776	-0.056134
C124	C	0.971322	0.170749	-0.810278
C125	C	1.304656	0.504083	-0.476945
C126	C	1.637989	0.837416	-0.143612
C127	C	0.875177	0.058576	-0.803419
C128	C	1.208510	0.391909	-0.470086
C129	C	1.541843	0.725242	-0.136753
C130	C	0.871192	0.053931	-0.715947
C131	C	1.204525	0.387264	-0.382613
C132	C	1.537858	0.720597	-0.049280
C133	C	0.917265	0.107702	-0.675642
C134	C	1.250598	0.441035	-0.342308
C135	C	1.583931	0.774369	-0.008975
C136	C	0.956953	0.154025	-0.547934
C137	C	1.290286	0.487358	-0.214600
C138	C	1.623620	0.820691	0.118733
C139	C	0.913180	0.102954	-0.586232
C140	C	1.246514	0.436287	-0.252898
C141	C	1.579847	0.769621	0.080435
N142	N	0.925248	0.116988	0.149415
N143	N	1.258581	0.450321	0.482749
N144	N	1.591915	0.783655	0.816082
H145	H	0.701088	0.139961	-0.187279
H146	H	1.034421	0.473294	0.146055
H147	H	1.367755	0.806627	0.479388
H148	H	0.551336	0.136450	-0.176536
H149	H	0.884670	0.469784	0.156797
H150	H	1.218003	0.803117	0.490130
H151	H	0.865287	0.047086	-0.444170
H152	H	1.198620	0.380420	-0.110837
H153	H	1.531954	0.713753	0.222497
H154	H	0.997721	0.201577	-0.586345
H155	H	1.331054	0.534910	-0.253012
H156	H	1.664388	0.868244	0.080321
H157	H	0.830424	0.006367	-0.677550
H158	H	1.163757	0.339700	-0.344217
H159	H	1.497090	0.673033	-0.010884
H160	H	0.331277	0.135097	-0.232482
H161	H	0.664610	0.468430	0.100851
H162	H	0.997944	0.801763	0.434184
H163	H	0.453501	0.133983	-0.165735
H164	H	0.786834	0.467317	0.167599
H165	H	1.120168	0.800650	0.500932
H166	H	0.872412	0.055403	-0.547826
H167	H	1.205745	0.388736	-0.214492
H168	H	1.539079	0.722070	0.118841
H169	H	0.181510	0.131620	-0.221739
H170	H	0.514843	0.464953	0.111595
H171	H	0.848176	0.798286	0.444928
H172	H	1.012095	0.218315	-0.848678
H173	H	1.345428	0.551648	-0.515345
H174	H	1.678761	0.884982	-0.182012
H175	H	0.837666	0.014800	-0.836245
H176	H	1.170999	0.348133	-0.502912
H177	H	1.504332	0.681466	-0.169578
H178	H	1.039712	0.250600	-0.456618
H179	H	1.373046	0.583933	-0.123285
H180	H	1.706379	0.917267	0.210048
H181	H	1.004851	0.209890	-0.689996
H182	H	1.338184	0.543223	-0.356662
H183	H	1.671517	0.876557	-0.023329
H184	H	1.032473	0.242175	-0.297922
H185	H	1.365806	0.575508	0.035411
H186	H	1.699140	0.908842	0.368745
H187	H	0.169040	0.117021	0.053128
H188	H	0.502373	0.450354	0.386461
H189	H	0.835707	0.783687	0.719795
H190	H	0.318797	0.120487	0.042388
H191	H	0.652130	0.453820	0.375721
H192	H	0.985464	0.787153	0.709055
H193	H	0.538851	0.121861	0.098327
H194	H	0.872185	0.455194	0.431660
H195	H	1.205518	0.788528	0.764993
H196	H	0.688619	0.125350	0.087590
H197	H	1.021952	0.458683	0.420924
H198	H	1.355285	0.792016	0.754257
H199	H	0.416625	0.122969	0.031585
H200	H	0.749959	0.456302	0.364918
H201	H	1.083292	0.789635	0.698252
H202	H	0.858049	0.038651	-0.285488
H203	H	1.191382	0.371984	0.047845
H204	H	1.524716	0.705317	0.381179
