data_functionalizedCrystal
_audit_creation_method	'MofGen! by Chris Wilmer'
_symmetry_space_group_name_H-M	'P1'
_symmetry_Int_Tables_number	1
_symmetry_cell_setting	triclinic
loop_
_symmetry_equiv_pos_as_xyz
  x,y,z
_cell_length_a	23.096457
_cell_length_b	23.096457
_cell_length_c	19.851628
_cell_angle_alpha	60.006501
_cell_angle_beta	90.000013
_cell_angle_gamma	60.000185
loop_
_atom_site_label
_atom_site_type_symbol
_atom_site_fract_x
_atom_site_fract_y
_atom_site_fract_z
Zr1	Zr	0.557783	0.633730	-0.088388
O2	O	0.465340	0.754503	-0.195932
O3	O	0.586120	0.512948	-0.055424
O4	O	0.586126	0.633719	-0.195943
O5	O	0.465331	0.633743	0.055436
O6	O	0.681407	0.633721	-0.195948
O7	O	0.465334	0.633731	-0.055413
O8	O	0.681395	0.417682	0.055416
O9	O	0.465343	0.849781	-0.195928
O10	O	0.669314	0.562631	-0.041363
O11	O	0.598205	0.562639	0.041365
O12	O	0.598213	0.704832	-0.124079
O13	O	0.527104	0.704839	-0.041350
Zr14	Zr	0.709740	0.633750	0.088396
Zr15	Zr	0.709744	0.633732	-0.088395
Zr16	Zr	0.557778	0.633747	0.088403
Zr17	Zr	0.557787	0.785687	-0.088381
Zr18	Zr	0.709736	0.481793	0.088389
O19	O	0.681403	0.754532	0.055432
O20	O	0.681410	0.754507	-0.195942
O21	O	0.465334	0.754528	0.055442
O22	O	0.802182	0.512977	0.195941
O23	O	0.802189	0.512951	-0.055433
O24	O	0.586113	0.512973	0.195950
O25	O	0.802192	0.633737	-0.055427
O26	O	0.681396	0.633760	0.195952
O27	O	0.586116	0.633759	0.195956
O28	O	0.802189	0.633748	0.055421
O29	O	0.586132	0.849783	-0.195933
O30	O	0.681391	0.417697	0.195941
O31	O	0.802180	0.417699	0.195936
O32	O	0.802183	0.417684	0.055411
O33	O	0.465339	0.849795	-0.055402
O34	O	0.586128	0.849797	-0.055408
O35	O	0.669310	0.562648	0.124087
O36	O	0.740418	0.562641	0.041359
O37	O	0.669318	0.704841	-0.041356
O38	O	0.598209	0.704848	0.041372
C39	C	0.633757	0.443664	-0.000005
C40	C	0.633755	0.379154	-0.000008
C41	C	0.670868	0.348850	-0.043195
C42	C	0.670875	0.288227	-0.043188
C43	C	0.633755	0.257924	-0.000006
C44	C	0.596640	0.288233	0.043190
C45	C	0.596640	0.348848	0.043189
N46	N	0.573351	0.195527	-0.005991
N47	N	0.573352	0.137946	-0.005994
C48	C	0.633754	0.075292	0.000002
N49	N	0.694154	0.072401	0.005985
N50	N	0.694151	0.129990	0.005984
C51	C	0.633751	0.192196	0.000000
C52	C	0.670878	-0.020747	-0.043179
C53	C	0.670887	-0.081374	-0.043167
C54	C	0.596645	-0.081362	0.043205
C55	C	0.596643	-0.020742	0.043198
C56	C	0.633758	0.009564	0.000001
C57	C	0.443681	0.633737	0.000012
C58	C	0.379170	0.633736	0.000015
C59	C	0.385978	0.559511	0.043184
C60	C	0.325362	0.559510	0.043187
C61	C	0.257939	0.633737	0.000006
C62	C	0.251133	0.707972	-0.043164
C63	C	0.311748	0.707971	-0.043160
N64	N	0.135146	0.688985	-0.070272
N65	N	0.077567	0.688981	-0.070275
C66	C	0.075306	0.633745	-0.000009
N67	N	0.132806	0.578500	0.070260
N68	N	0.190392	0.578502	0.070261
C69	C	0.192208	0.633747	-0.000003
C70	C	0.016391	0.559514	0.043168
C71	C	-0.044227	0.559515	0.043174
C72	C	-0.118456	0.707980	-0.043186
C73	C	-0.057838	0.707976	-0.043184
C74	C	0.009583	0.633741	-0.000009
C75	C	0.823842	0.633743	-0.000004
C76	C	0.888353	0.633744	-0.000007
C77	C	0.633767	0.633718	-0.221134
C78	C	0.633769	0.633710	-0.296187
C79	C	0.633766	0.823815	0.000013
C80	C	0.633768	0.888325	0.000017
C81	C	0.672534	0.556195	-0.432453
C82	C	0.605675	0.594950	-0.499901
C83	C	0.633762	0.633731	-0.433618
C84	C	0.700607	0.594970	-0.499905
C85	C	0.633761	0.633746	-0.566367
C86	C	0.566864	0.672487	-0.500078
C87	C	0.661844	0.672496	-0.500071
C88	C	0.594946	0.711309	-0.567532
C89	C	0.633764	0.633720	-0.357144
C90	C	0.633753	0.633763	-0.642844
C91	C	0.633756	0.633762	0.221143
C92	C	0.633754	0.633770	0.296195
C93	C	0.823837	0.443668	-0.000013
C94	C	0.888347	0.379159	-0.000019
C95	C	0.633751	0.443687	0.221133
C96	C	0.633747	0.379184	0.296183
C97	C	0.823831	0.443690	0.221125
C98	C	0.888339	0.379189	0.296172
C99	C	0.443692	0.823790	-0.221117
C100	C	0.379184	0.888291	-0.296164
C101	C	0.443686	0.823812	0.000022
C102	C	0.379176	0.888321	0.000027
C103	C	0.633772	0.823793	-0.221125
C104	C	0.633775	0.888295	-0.296174
C105	C	0.881525	0.348860	-0.043210
C106	C	0.942133	0.288255	-0.043232
C107	C	1.009562	0.257947	-0.000058
C108	C	1.016382	0.288252	0.043134
C109	C	0.955775	0.348859	0.043150
C110	C	0.670861	0.348898	0.374614
C111	C	0.670855	0.288300	0.445138
C112	C	0.633739	0.257985	0.437228
C113	C	0.596620	0.288277	0.358788
C114	C	0.596622	0.348878	0.288266
C115	C	0.955757	0.348894	0.288231
C116	C	1.016375	0.288297	0.358739
C117	C	1.009573	0.257991	0.437186
C118	C	0.942148	0.288291	0.445125
C119	C	0.881532	0.348892	0.374618
C120	C	0.311766	0.918593	-0.288223
C121	C	0.251148	0.979209	-0.358730
C122	C	0.257950	1.009518	-0.437178
C123	C	0.325375	0.979214	-0.445117
C124	C	0.385991	0.918603	-0.374610
C125	C	0.385997	0.918626	0.043210
C126	C	0.325389	0.979247	0.043213
C127	C	0.257960	1.009558	0.000037
C128	C	0.251141	0.979250	-0.043151
C129	C	0.311748	0.918634	-0.043158
C130	C	0.670899	0.918591	-0.288238
C131	C	0.670916	0.979190	-0.358748
C132	C	0.633805	1.009496	-0.437194
C133	C	0.596681	0.979194	-0.445128
C134	C	0.596668	0.918592	-0.374619
H135	H	0.566416	0.373523	0.078356
H136	H	0.566422	-0.106035	0.078365
F137	F	0.557182	1.011461	-0.528622
F138	F	0.179396	1.011447	-0.350264
H139	H	0.701098	0.263549	-0.078356
F140	F	0.710371	0.381149	0.383051
F141	F	-0.065086	0.786977	-0.089135
F142	F	0.692915	0.715295	-0.499148
F143	F	0.557121	0.256004	0.350383
H144	H	0.701091	0.373522	-0.078366
F145	F	0.774496	0.552120	-0.500770
F146	F	0.809768	0.381107	-0.089166
H147	H	0.826639	0.373549	0.381095
H148	H	0.701119	0.893926	-0.224370
H149	H	1.058907	0.208596	-0.000078
H150	H	0.701147	1.003856	-0.352272
F151	F	0.710366	0.256070	0.528611
F152	F	0.557147	0.886361	-0.383078
H153	H	0.633821	1.058842	-0.494600
F154	F	0.557139	0.255976	0.089153
F155	F	0.193462	1.074071	0.000053
F156	F	0.710383	0.011505	-0.089147
F157	F	0.934860	0.256011	-0.089201
H158	H	0.961339	0.373521	0.078326
F159	F	0.710389	-0.113625	-0.089136
F160	F	1.088151	0.255985	0.089081
F161	F	0.304511	0.886344	-0.204740
F162	F	0.633743	0.193486	0.512292
H163	H	0.566402	0.373529	0.224407
H164	H	1.071270	0.263633	0.352260
F165	F	0.557140	0.011513	0.089161
H166	H	0.961309	0.373561	0.224362
H167	H	0.196232	1.003938	-0.078304
F168	F	1.074093	0.193493	0.512219
H169	H	0.936620	0.263607	0.509006
F170	F	0.088147	0.480507	0.089121
F171	F	0.193429	1.074026	-0.512211
H172	H	0.330904	1.003900	-0.508997
H173	H	0.440884	0.893932	-0.381085
H174	H	0.440896	0.893952	0.078375
H175	H	0.330956	1.003914	0.078385
H176	H	0.440871	0.499062	0.078335
H177	H	0.196233	0.768409	-0.078322
F178	F	0.332605	0.480506	0.089132
F179	F	0.304500	0.786975	-0.089108
H180	H	-0.038677	0.499070	0.078333
F181	F	-0.190210	0.786980	-0.089138
H182	H	0.306184	0.893961	-0.078321
H183	H	0.705265	0.490636	-0.374621
H184	H	0.581919	0.562180	-0.500578
F185	F	0.492939	0.715288	-0.499297
F186	F	0.552031	0.797070	-0.642999
