data_functionalizedCrystal
_audit_creation_method	'MofGen! by Chris Wilmer'
_symmetry_space_group_name_H-M	'P1'
_symmetry_Int_Tables_number	1
_symmetry_cell_setting	triclinic
loop_
_symmetry_equiv_pos_as_xyz
  x,y,z
_cell_length_a	17.000371
_cell_length_b	14.519709
_cell_length_c	13.596369
_cell_angle_alpha	90.006934
_cell_angle_beta	89.994129
_cell_angle_gamma	100.360304
loop_
_atom_site_label
_atom_site_type_symbol
_atom_site_fract_x
_atom_site_fract_y
_atom_site_fract_z
O1	O	1.056151	-0.033229	-0.081796
O2	O	1.556151	0.466771	0.418204
O3	O	0.824466	-0.066696	-0.081798
O4	O	1.324466	0.433304	0.418202
O5	O	0.946451	0.084786	-0.081788
O6	O	1.446451	0.584786	0.418212
O7	O	0.934165	-0.184711	-0.081806
O8	O	1.434165	0.315289	0.418194
O9	O	0.946439	0.084792	0.081795
O10	O	1.446439	0.584792	0.581795
O11	O	0.824453	-0.066690	0.081785
O12	O	1.324453	0.433310	0.581785
O13	O	1.056139	-0.033222	0.081787
O14	O	1.556139	0.466778	0.581787
Zn15	Zn	0.940294	-0.049955	0.107758
Zn16	Zn	1.440294	0.450045	0.607758
Zn17	Zn	0.940310	-0.049963	-0.107769
Zn18	Zn	1.440310	0.450037	0.392231
O19	O	0.934153	-0.184704	0.081777
O20	O	1.434153	0.315296	0.581777
C21	C	0.794808	-0.068490	-0.000006
C22	C	1.294808	0.431510	0.499994
C23	C	0.706457	-0.073836	-0.000007
C24	C	1.206457	0.426164	0.499993
C25	C	0.674315	0.008422	0.000000
C26	C	1.174315	0.508422	0.500000
C27	C	0.591299	0.003394	-0.000007
C28	C	1.091299	0.503394	0.499993
C29	C	0.540427	-0.083893	-0.000015
C30	C	1.040427	0.416107	0.499985
C31	C	0.572575	-0.166156	-0.000025
C32	C	1.072575	0.333844	0.499975
C33	C	0.655589	-0.161127	-0.000024
C34	C	1.155589	0.338873	0.499976
C35	C	0.289309	-0.103318	-0.000023
C36	C	0.789309	0.396682	0.499977
C37	C	0.206289	-0.108340	-0.000020
C38	C	0.706289	0.391660	0.499980
C39	C	0.225019	0.061210	-0.000004
C40	C	0.725019	0.561210	0.499996
C41	C	0.308034	0.066232	0.000002
C42	C	0.808034	0.566232	0.500002
C43	C	0.340175	-0.016032	-0.000013
C44	C	0.840175	0.483968	0.499987
C45	C	0.455571	-0.089034	-0.000019
C46	C	0.955571	0.410966	0.499981
C47	C	0.425029	-0.010890	-0.000016
C48	C	0.925029	0.489110	0.499984
C49	C	0.945872	0.119101	0.000004
C50	C	1.445872	0.619101	0.500004
C51	C	0.944157	0.221340	0.000004
C52	C	1.444157	0.721340	0.500004
C53	C	1.085796	-0.031428	-0.000007
C54	C	1.585796	0.468572	0.499993
C55	C	1.174147	-0.026083	-0.000013
C56	C	1.674147	0.473917	0.499987
C57	C	0.934732	-0.219020	-0.000017
C58	C	1.434732	0.280980	0.499983
C59	C	0.936448	-0.321259	-0.000024
C60	C	1.436448	0.178741	0.499976
N61	N	0.940289	-0.049948	0.254850
N62	N	1.440289	0.450052	0.754850
C63	C	0.937840	0.595712	-0.000021
C64	C	1.437840	1.095712	0.499979
C65	C	0.939594	0.491549	-0.000014
C66	C	1.439594	0.991549	0.499986
C67	C	0.940998	0.408529	-0.000008
C68	C	1.440998	0.908529	0.499992
C69	C	0.942753	0.304360	-0.000002
C70	C	1.442753	0.804360	0.499998
N71	N	0.940322	-0.049963	-0.254861
N72	N	1.440322	0.450037	0.245139
C73	C	0.940309	-0.049965	0.656141
C74	C	1.440309	0.450035	1.156141
C75	C	0.940301	-0.049963	0.544490
C76	C	1.440301	0.450037	1.044490
C77	C	0.940299	-0.049957	0.455499
C78	C	1.440299	0.450043	0.955499
C79	C	0.940291	-0.049954	0.343841
C80	C	1.440291	0.450046	0.843841
H81	H	0.715730	0.079500	0.000011
H82	H	1.215730	0.579500	0.500011
O83	O	0.320391	-0.183316	0.000016
O84	O	0.820391	0.316684	0.500016
C85	C	0.293046	-0.352017	-0.000047
C86	C	0.793046	0.147983	0.499953
C87	C	0.257735	-0.261488	-0.000070
C88	C	0.757735	0.238512	0.499930
H89	H	0.242406	-0.415242	-0.000138
H90	H	0.742406	0.084758	0.499862
H91	H	0.331409	-0.353965	0.068427
H92	H	0.831409	0.146035	0.568427
H93	H	0.331474	-0.353857	-0.068491
H94	H	0.831474	0.146143	0.431509
H95	H	0.219271	-0.259587	0.068327
H96	H	0.719271	0.240413	0.568327
H97	H	0.219418	-0.259576	-0.068590
H98	H	0.719418	0.240424	0.431410
O99	O	0.156840	-0.193115	0.000143
O100	O	0.656840	0.306885	0.500143
C101	C	0.052210	-0.297168	0.084855
C102	C	0.552210	0.202832	0.584855
C103	C	0.108176	-0.201146	0.084800
C104	C	0.608176	0.298854	0.584800
H105	H	0.012839	-0.303684	0.153283
H106	H	0.512839	0.196316	0.653283
H107	H	0.089404	-0.355137	0.084906
H108	H	0.589404	0.144863	0.584906
H109	H	0.012915	-0.303743	0.016368
H110	H	0.512915	0.196257	0.516368
H111	H	0.147482	-0.194479	0.153277
H112	H	0.647482	0.305521	0.653277
H113	H	0.070934	-0.143223	0.084698
H114	H	0.570934	0.356777	0.584698
O115	O	0.474523	0.073843	-0.000139
O116	O	0.974523	0.573843	0.499861
C117	C	0.579097	0.177932	-0.084903
C118	C	1.079097	0.677932	0.415097
C119	C	0.523095	0.081935	-0.084879
C120	C	1.023095	0.581935	0.415121
H121	H	0.618370	0.184513	-0.153418
H122	H	1.118370	0.684513	0.346582
H123	H	0.618480	0.184534	-0.016490
H124	H	1.118480	0.684534	0.483510
H125	H	0.541853	0.235851	-0.084846
H126	H	1.041853	0.735851	0.415154
H127	H	0.560276	0.023959	-0.084971
H128	H	1.060276	0.523959	0.415029
H129	H	0.483709	0.075414	-0.153286
H130	H	0.983709	0.575414	0.346714
H131	H	0.565133	0.070377	-0.000002
H132	H	1.065133	0.570377	0.499998
O133	O	0.523079	-0.250892	-0.000163
O134	O	1.023079	0.249108	0.499837
C135	C	0.418523	-0.354994	-0.084944
C136	C	0.918523	0.145006	0.415056
C137	C	0.474517	-0.258990	-0.084902
C138	C	0.974517	0.241010	0.415098
H139	H	0.379258	-0.361580	-0.153457
H140	H	0.879258	0.138420	0.346543
H141	H	0.379132	-0.361600	-0.016530
H142	H	0.879132	0.138400	0.483470
H143	H	0.455774	-0.412906	-0.084902
H144	H	0.955774	0.087094	0.415098
H145	H	0.437329	-0.201021	-0.084977
H146	H	0.937329	0.298979	0.415023
H147	H	0.513911	-0.252465	-0.153310
H148	H	1.013911	0.247535	0.346690
H149	H	0.349450	0.137309	0.000013
H150	H	0.849450	0.637309	0.500013
H151	H	0.681758	-0.228110	-0.000026
H152	H	1.181758	0.271890	0.499974
H153	H	0.198841	0.128185	-0.000003
H154	H	0.698841	0.628185	0.499997
H155	H	0.414142	-0.160103	-0.000024
H156	H	0.914142	0.339897	0.499976
