data_functionalizedCrystal
_audit_creation_method	'MofGen! by Chris Wilmer'
_symmetry_space_group_name_H-M	'P1'
_symmetry_Int_Tables_number	1
_symmetry_cell_setting	triclinic
loop_
_symmetry_equiv_pos_as_xyz
  x,y,z
_cell_length_a	16.974800
_cell_length_b	16.974813
_cell_length_c	15.455313
_cell_angle_alpha	89.012317
_cell_angle_beta	90.973911
_cell_angle_gamma	83.627081
loop_
_atom_site_label
_atom_site_type_symbol
_atom_site_fract_x
_atom_site_fract_y
_atom_site_fract_z
O1	O	1.049303	0.100458	-0.005495
O2	O	1.549303	0.600458	0.494505
O3	O	0.819898	0.112492	-0.022451
O4	O	1.319898	0.612492	0.477549
O5	O	0.940611	-0.008229	-0.005496
O6	O	1.440611	0.491771	0.494504
O7	O	0.928591	0.221179	-0.022451
O8	O	1.428591	0.721179	0.477549
O9	O	0.933708	-0.001354	0.137799
O10	O	1.433708	0.498646	0.637799
O11	O	0.812995	0.119367	0.120843
O12	O	1.312995	0.619367	0.620843
O13	O	1.042400	0.107332	0.137799
O14	O	1.542400	0.607332	0.637799
Cu15	Cu	0.927068	0.113978	0.142405
Cu16	Cu	1.427068	0.613978	0.642405
Cu17	Cu	0.935231	0.105847	-0.027057
Cu18	Cu	1.435231	0.605847	0.472943
O19	O	0.921688	0.228054	0.120844
O20	O	1.421688	0.728054	0.620844
C21	C	0.787086	0.115346	0.047175
C22	C	1.287086	0.615346	0.547175
C23	C	0.699600	0.113597	0.041154
C24	C	1.199600	0.613597	0.541154
C25	C	0.654741	0.116521	0.116437
C26	C	1.154741	0.616521	0.616437
C27	C	0.572541	0.114866	0.110782
C28	C	1.072541	0.614866	0.610782
C29	C	0.535200	0.110292	0.029844
C30	C	1.035200	0.610292	0.529844
C31	C	0.580066	0.107365	-0.045445
C32	C	1.080066	0.607365	0.454555
C33	C	0.662265	0.109015	-0.039789
C34	C	1.162265	0.609015	0.460211
C35	C	0.289764	0.104950	0.004554
C36	C	0.789764	0.604950	0.504554
C37	C	0.207558	0.103303	-0.001096
C38	C	0.707558	0.603303	0.498904
C39	C	0.200039	0.110802	0.155132
C40	C	0.700039	0.610802	0.655132
C41	C	0.282240	0.112457	0.160780
C42	C	0.782240	0.612457	0.660780
C43	C	0.327098	0.109526	0.085492
C44	C	0.827098	0.609526	0.585492
N45	N	0.451178	0.108602	0.024062
N46	N	0.951178	0.608602	0.524062
N47	N	0.411120	0.111210	0.091275
N48	N	0.911120	0.611210	0.591275
C49	C	0.936574	-0.034153	0.068171
C50	C	1.436574	0.465847	0.568171
C51	C	0.934820	-0.121639	0.074186
C52	C	1.434820	0.378361	0.574186
C53	C	0.937761	-0.166483	-0.001097
C54	C	1.437761	0.333517	0.498903
C55	C	0.936108	-0.248685	0.004558
C56	C	1.436108	0.251315	0.504558
C57	C	0.931519	-0.286042	0.085496
C58	C	1.431519	0.213958	0.585496
C59	C	0.928576	-0.241192	0.160785
C60	C	1.428576	0.258808	0.660785
C61	C	0.930224	-0.158990	0.155129
C62	C	1.430224	0.341010	0.655129
C63	C	0.926183	-0.531485	0.110787
C64	C	1.426183	-0.031485	0.610787
C65	C	0.924538	-0.613692	0.116437
C66	C	1.424538	-0.113692	0.616437
C67	C	0.932068	-0.621180	-0.039791
C68	C	1.432068	-0.121180	0.460209
C69	C	0.933720	-0.538978	-0.045439
C70	C	1.433720	-0.038978	0.454561
C71	C	0.930773	-0.494134	0.029849
C72	C	1.430773	0.005866	0.529849
N73	N	0.929832	-0.370066	0.091278
N74	N	1.429832	0.129934	0.591278
N75	N	0.932454	-0.410111	0.024066
N76	N	1.432454	0.089889	0.524066
C77	C	1.075213	0.104479	0.068171
C78	C	1.575213	0.604479	0.568171
C79	C	1.162699	0.106227	0.074187
C80	C	1.662699	0.606227	0.574187
C81	C	0.925725	0.253977	0.047175
C82	C	1.425725	0.753977	0.547175
C83	C	0.927479	0.341463	0.041154
C84	C	1.427479	0.841463	0.541154
N85	N	0.921331	0.119695	0.261596
N86	N	1.421331	0.619695	0.761596
N87	N	0.940973	0.100123	-0.146247
N88	N	1.440973	0.600123	0.353753
C89	C	0.972632	0.068428	0.314194
C90	C	1.472632	0.568428	0.814194
C91	C	0.968302	0.072759	0.404393
C92	C	1.468302	0.572759	0.904393
C93	C	0.912673	0.128363	0.441994
C94	C	1.412673	0.628363	0.941994
C95	C	0.861367	0.179633	0.389389
C96	C	1.361367	0.679633	0.889389
C97	C	0.865694	0.175297	0.299192
C98	C	1.365694	0.675297	0.799192
C99	C	0.893994	0.147057	0.710950
C100	C	1.393994	0.647057	1.210950
C101	C	0.889672	0.151391	0.801155
C102	C	1.389672	0.651391	1.301155
C103	C	0.996607	0.044516	0.816153
C104	C	1.496607	0.544516	1.316153
C105	C	1.000932	0.040188	0.725953
C106	C	1.500932	0.540188	1.225953
C107	C	0.949623	0.091455	0.673356
C108	C	1.449623	0.591455	1.173356
N109	N	0.908247	0.132793	0.534192
N110	N	1.408247	0.632793	1.034192
N111	N	0.954046	0.087020	0.581160
N112	N	1.454046	0.587020	1.081160
H113	H	0.312637	0.116177	0.226689
H114	H	0.812637	0.616177	0.726689
F115	F	0.839390	0.201621	0.654980
F116	F	1.339390	0.701621	1.154980
F117	F	0.939238	-0.296409	-0.075569
F118	F	1.439238	0.203591	0.424431
F119	F	0.923684	-0.280951	0.246926
F120	F	1.423684	0.219049	0.746926
F121	F	1.022901	0.018194	0.460372
F122	F	1.522901	0.518194	0.960372
H123	H	0.937457	-0.508568	-0.111348
H124	H	1.437457	-0.008568	0.388652
H125	H	0.823919	0.217044	0.256367
H126	H	1.323919	0.717044	0.756367
F127	F	1.060139	-0.018990	0.685937
F128	F	1.560139	0.481010	1.185937
F129	F	0.694474	0.121395	0.202583
F130	F	1.194474	0.621395	0.702583
H131	H	0.923799	-0.494985	0.172093
H132	H	1.423799	0.005015	0.672093
H133	H	0.816069	0.224904	0.420009
H134	H	1.316069	0.724904	0.920009
F135	F	1.051208	-0.010045	0.872135
F136	F	1.551208	0.489955	1.372135
F137	F	0.524801	0.117989	0.190909
F138	F	1.024801	0.617989	0.690909
H139	H	0.927818	-0.122477	0.216432
H140	H	1.427818	0.377523	0.716432
F141	F	0.152292	0.113919	0.235253
F142	F	0.652292	0.613919	0.735253
H143	H	0.844371	0.196673	0.831764
H144	H	1.344371	0.696673	1.331764
H145	H	0.177157	0.099580	-0.067010
H146	H	0.677157	0.599580	0.432990
H147	H	1.017934	0.023153	0.283586
H148	H	1.517934	0.523153	0.783586
H149	H	0.326278	0.102561	-0.056751
H150	H	0.826278	0.602561	0.443249
F151	F	0.540326	0.102473	-0.131584
F152	F	1.040326	0.602473	0.368416
H153	H	0.941501	-0.136074	-0.067006
H154	H	1.441501	0.363926	0.432994
F155	F	0.710008	0.105900	-0.119916
F156	F	1.210008	0.605900	0.380084
H157	H	0.934466	-0.657701	-0.101086
H158	H	1.434466	-0.157701	0.398914
F159	F	0.919659	-0.653449	0.202588
F160	F	1.419659	-0.153449	0.702588
