data_functionalizedCrystal
_audit_creation_method	'MofGen! by Chris Wilmer'
_symmetry_space_group_name_H-M	'P1'
_symmetry_Int_Tables_number	1
_symmetry_cell_setting	triclinic
loop_
_symmetry_equiv_pos_as_xyz
  x,y,z
_cell_length_a	6.817900
_cell_length_b	11.168129
_cell_length_c	14.858340
_cell_angle_alpha	93.501048
_cell_angle_beta	104.519754
_cell_angle_gamma	108.508637
loop_
_atom_site_label
_atom_site_type_symbol
_atom_site_fract_x
_atom_site_fract_y
_atom_site_fract_z
V1	V	-4.063997	-0.175510	-0.289968
V2	V	-3.730663	0.157823	0.043365
V3	V	-3.397330	0.491157	0.376698
O4	O	-4.024455	0.007605	-0.284440
O5	O	-3.691122	0.340939	0.048893
O6	O	-3.357788	0.674272	0.382226
O7	O	-4.040598	-0.347210	-0.287993
O8	O	-3.707264	-0.013877	0.045340
O9	O	-3.373931	0.319457	0.378673
O10	O	-4.020275	-0.173174	-0.416430
O11	O	-3.686942	0.160159	-0.083097
O12	O	-3.353609	0.493493	0.250237
O13	O	-4.044918	-0.167635	-0.155114
O14	O	-3.711585	0.165698	0.178219
O15	O	-3.378252	0.499031	0.511552
V16	V	-4.543779	-0.153564	-0.273838
V17	V	-4.210445	0.179769	0.059495
V18	V	-3.877112	0.513102	0.392829
O19	O	-4.333461	-0.223650	-0.325352
O20	O	-4.000128	0.109684	0.007981
O21	O	-3.666794	0.443017	0.341314
O22	O	-4.724512	-0.105425	-0.238454
O23	O	-4.391178	0.227909	0.094879
O24	O	-4.057845	0.561242	0.428213
O25	O	-4.343971	0.018136	-0.275813
O26	O	-4.010638	0.351469	0.057520
O27	O	-3.677304	0.684802	0.390854
O28	O	-4.700717	-0.336680	-0.279366
O29	O	-4.367384	-0.003346	0.053967
O30	O	-4.034051	0.329987	0.387301
O31	O	-4.680254	-0.161439	-0.408692
O32	O	-4.346921	0.171894	-0.075359
O33	O	-4.013587	0.505228	0.257975
O34	O	-4.364294	-0.155900	-0.147376
O35	O	-4.030960	0.177433	0.185957
O36	O	-3.697627	0.510766	0.519290
C37	C	-3.891529	-0.389055	-0.283421
C38	C	-3.558196	-0.055722	0.049912
C39	C	-3.224863	0.277611	0.383246
C40	C	-3.953716	-0.529425	-0.282649
C41	C	-3.620383	-0.196091	0.050684
C42	C	-3.287049	0.137242	0.384018
C43	C	-4.089715	-0.754438	-0.362442
C44	C	-3.756382	-0.421104	-0.029108
C45	C	-3.423048	-0.087771	0.304225
C46	C	-4.025443	-0.609359	-0.363241
C47	C	-3.692110	-0.276026	-0.029908
C48	C	-3.358776	0.057308	0.303425
C49	C	-3.865604	-0.167053	-0.447254
C50	C	-3.532271	0.166280	-0.113920
C51	C	-3.198938	0.499613	0.219413
C52	C	-3.911306	-0.166280	-0.550637
C53	C	-3.577973	0.167054	-0.217303
C54	C	-3.244640	0.500387	0.116030
C55	C	-3.948419	-0.165650	-0.634595
C56	C	-3.615085	0.167684	-0.301262
C57	C	-3.281752	0.501017	0.032071
C58	C	-3.994992	-0.164854	-0.739924
C59	C	-3.661659	0.168479	-0.406591
C60	C	-3.328326	0.501813	-0.073258
C61	C	-4.032128	-0.164220	-0.823876
C62	C	-3.698795	0.169113	-0.490543
C63	C	-3.365462	0.502447	-0.157209
C64	C	-4.078707	-0.163427	-0.929212
C65	C	-3.745373	0.169907	-0.595879
C66	C	-3.412040	0.503240	-0.262545
C67	C	-4.156382	0.059974	-0.280383
C68	C	-3.823049	0.393308	0.052951
C69	C	-3.489716	0.726641	0.386284
C70	C	-4.073434	0.200342	-0.281161
C71	C	-3.740101	0.533676	0.052173
C72	C	-3.406768	0.867009	0.385506
C73	C	-4.182307	-0.162025	-0.116548
C74	C	-3.848974	0.171308	0.216786
C75	C	-3.515640	0.504642	0.550119
C76	C	-4.115843	-0.162793	-0.013164
C77	C	-3.782509	0.170541	0.320170
C78	C	-3.449176	0.503874	0.653503
H79	H	-4.011923	-0.730967	-0.212166
H80	H	-3.678590	-0.397634	0.121168
H81	H	-3.345256	-0.064300	0.454501
H82	H	-4.151248	-0.823129	-0.431437
H83	H	-3.817915	-0.489796	-0.098104
H84	H	-3.484582	-0.156463	0.235229
H85	H	-3.939865	-0.568370	-0.213056
H86	H	-3.606531	-0.235037	0.120277
H87	H	-3.273198	0.098297	0.453610
C88	C	-4.044077	-0.556743	-0.457252
C89	C	-3.710743	-0.223410	-0.123919
C90	C	-3.377410	0.109923	0.209415
H91	H	-3.998422	-0.466137	-0.445456
H92	H	-3.665089	-0.132803	-0.112123
H93	H	-3.331755	0.200530	0.221210
H94	H	-3.955421	-0.581699	-0.489163
H95	H	-3.622088	-0.248365	-0.155830
H96	H	-3.288754	0.084968	0.177504
H97	H	-4.189892	-0.589919	-0.495132
H98	H	-3.856559	-0.256586	-0.161799
H99	H	-3.523225	0.076748	0.171535
