data_functionalizedCrystal
_audit_creation_method	'MofGen! by Chris Wilmer'
_symmetry_space_group_name_H-M	'P1'
_symmetry_Int_Tables_number	1
_symmetry_cell_setting	triclinic
loop_
_symmetry_equiv_pos_as_xyz
  x,y,z
_cell_length_a	12.759395
_cell_length_b	12.759394
_cell_length_c	19.805399
_cell_angle_alpha	89.976033
_cell_angle_beta	89.984838
_cell_angle_gamma	90.014682
loop_
_atom_site_label
_atom_site_type_symbol
_atom_site_fract_x
_atom_site_fract_y
_atom_site_fract_z
Zn1	Zn	1.606223	-0.418295	-0.382657
Zn2	Zn	1.606127	-0.593989	-0.269476
Zn3	Zn	1.430535	-0.418324	-0.269490
Zn4	Zn	1.430514	-0.593932	-0.382631
O5	O	1.518350	-0.506135	-0.326064
O6	O	1.753232	-0.441613	-0.367648
O7	O	1.582802	-0.570722	-0.174761
O8	O	1.453889	-0.271299	-0.284519
O9	O	1.753161	-0.570694	-0.284494
O10	O	1.582967	-0.271278	-0.367662
O11	O	1.453796	-0.441662	-0.174772
O12	O	1.283511	-0.441607	-0.284494
O13	O	1.453853	-0.570598	-0.477351
O14	O	1.283495	-0.570626	-0.367618
O15	O	1.582947	-0.441558	-0.477370
O16	O	1.582782	-0.741002	-0.284469
O17	O	1.453760	-0.740961	-0.367604
C18	C	1.245382	-0.506114	-0.326055
C19	C	1.128605	-0.506131	-0.326068
C20	C	1.518286	-0.779102	-0.326047
C21	C	1.518356	-0.895879	-0.326063
C22	C	1.128660	-0.371936	-0.412796
C23	C	1.073827	-0.304851	-0.456165
C24	C	0.964105	-0.304869	-0.456173
C25	C	0.909214	-0.371978	-0.412806
C26	C	0.964048	-0.439063	-0.369437
C27	C	1.073772	-0.439039	-0.369435
C28	C	0.963993	-0.573251	-0.282707
C29	C	1.073715	-0.573239	-0.282701
C30	C	0.909102	-0.640359	-0.239340
C31	C	0.963936	-0.707451	-0.195973
C32	C	1.073664	-0.707430	-0.195967
C33	C	1.128548	-0.640324	-0.239331
C34	C	1.652807	-0.895869	-0.239559
C35	C	1.720061	-0.950725	-0.196316
C36	C	1.720122	-1.060446	-0.196334
C37	C	1.652925	-1.115315	-0.239602
C38	C	1.585672	-1.060459	-0.282846
C39	C	1.585616	-0.950735	-0.282822
C40	C	1.451227	-1.060469	-0.369352
C41	C	1.451159	-0.950748	-0.369331
C42	C	1.384031	-1.115338	-0.412620
C43	C	1.316771	-1.060482	-0.455862
C44	C	1.316711	-0.950754	-0.455841
C45	C	1.383906	-0.895892	-0.412575
C46	C	1.792383	-0.506157	-0.326072
C47	C	1.909160	-0.506166	-0.326076
C48	C	1.518408	-0.506069	-0.502606
C49	C	1.518434	-0.506041	-0.577838
C50	C	1.518441	-0.232102	-0.326095
C51	C	1.518481	-0.115325	-0.326108
C52	C	1.585654	-0.438846	-0.613194
C53	C	1.585665	-0.438816	-0.683882
C54	C	1.518460	-0.505986	-0.719214
C55	C	1.451232	-0.573183	-0.683854
C56	C	1.451217	-0.573207	-0.613167
C57	C	1.451291	-0.573085	-0.968928
C58	C	1.451314	-0.573058	-1.039620
C59	C	1.585739	-0.438693	-1.039643
C60	C	1.585724	-0.438718	-0.968955
C61	C	1.518493	-0.505911	-0.933602
C62	C	1.518481	-0.505942	-0.856953
C63	C	1.518476	-0.505961	-0.795861
C64	C	1.518351	-0.506125	-0.150208
C65	C	1.518530	-0.505857	-0.074976
H66	H	1.218001	-0.371909	-0.412790
H67	H	1.640384	-0.384152	-0.584431
Br68	Br	1.676982	-0.347499	-1.087626
Br69	Br	0.760305	-0.371985	-0.412808
Br70	Br	1.811402	-1.134898	-0.137652
Br71	Br	1.652519	-1.264222	-0.239309
Br72	Br	1.676940	-0.347561	-0.921008
H73	H	1.217889	-0.640295	-0.239327
H74	H	0.819761	-0.640367	-0.239348
Br75	Br	1.148324	-0.213776	-0.515015
Br76	Br	0.889683	-0.213816	-0.515025
H77	H	1.384090	-1.204679	-0.412635
H78	H	0.919235	-0.762080	-0.160664
H79	H	1.640405	-0.384102	-0.712665
H80	H	1.118303	-0.762055	-0.160648
H81	H	1.774774	-0.906041	-0.161088
H82	H	1.261950	-0.906096	-0.491058
Br83	Br	1.653054	-0.746960	-0.239741
H84	H	1.262070	-1.105164	-0.491090
Br85	Br	1.384167	-0.746983	-0.412761
H86	H	1.396583	-0.627758	-1.068385
H87	H	1.396563	-0.627813	-0.940151
Br88	Br	1.360017	-0.664337	-0.731804
H89	H	1.396468	-0.627913	-0.584382
