data_functionalizedCrystal
_audit_creation_method	'MofGen! by Chris Wilmer'
_symmetry_space_group_name_H-M	'P1'
_symmetry_Int_Tables_number	1
_symmetry_cell_setting	triclinic
loop_
_symmetry_equiv_pos_as_xyz
  x,y,z
_cell_length_a	6.817900
_cell_length_b	16.305597
_cell_length_c	19.453114
_cell_angle_alpha	95.862248
_cell_angle_beta	101.709288
_cell_angle_gamma	103.455834
loop_
_atom_site_label
_atom_site_type_symbol
_atom_site_fract_x
_atom_site_fract_y
_atom_site_fract_z
V1	V	-4.006694	-0.117595	-0.219242
O2	O	-3.994747	0.004747	-0.214820
O3	O	-3.958196	-0.232303	-0.217981
O4	O	-3.949610	-0.116183	-0.314752
O5	O	-4.003392	-0.112176	-0.117379
V6	V	-4.491459	-0.102915	-0.207029
O7	O	-4.265226	-0.149798	-0.246031
O8	O	-4.683125	-0.070712	-0.180240
O9	O	-4.316750	0.011792	-0.208290
O10	O	-4.620803	-0.225258	-0.211450
O11	O	-4.612158	-0.108334	-0.308892
O12	O	-4.325337	-0.104327	-0.111519
C13	C	-3.803454	-0.260254	-0.214583
C14	C	-3.845031	-0.354031	-0.214189
C15	C	-3.792501	-0.112130	-0.338024
C16	C	-3.827111	-0.111735	-0.416105
C17	C	-3.996283	-0.694784	-0.212789
C18	C	-3.760904	-0.653937	-0.208954
C19	C	-3.717354	-0.556339	-0.209086
C20	C	-3.921244	-0.525732	-0.213484
C21	C	-4.010036	-0.550838	-0.148037
C22	C	-4.051884	-0.648368	-0.147553
C23	C	-4.128164	-0.674239	-0.281883
C24	C	-4.081225	-0.576731	-0.283095
C25	C	-3.878845	-0.430191	-0.213875
C26	C	-4.038685	-0.790324	-0.212394
C27	C	-4.025150	-0.115783	-0.456371
C28	C	-4.057671	-0.115411	-0.529737
C29	C	-3.892150	-0.111008	-0.562837
C30	C	-3.694081	-0.106954	-0.522561
C31	C	-3.661562	-0.107318	-0.449196
N32	N	-3.832369	-0.155559	-0.681718
N33	N	-3.863274	-0.155216	-0.751413
C34	C	-3.990117	-0.109912	-0.783883
N35	N	-4.084923	-0.064975	-0.744027
N36	N	-4.054023	-0.065322	-0.674327
C37	C	-3.927391	-0.110613	-0.642389
C38	C	-4.223431	-0.113556	-0.903700
C39	C	-4.255942	-0.113179	-0.977067
C40	C	-3.892351	-0.104730	-0.969890
C41	C	-3.859841	-0.105099	-0.896524
C42	C	-4.025390	-0.109516	-0.863434
C43	C	-4.134835	0.039739	-0.211685
C44	C	-4.072496	0.133515	-0.212084
C45	C	-4.145788	-0.108383	-0.088243
C46	C	-4.090416	-0.108774	-0.010161
H47	H	-3.646958	-0.539610	-0.255852
H48	H	-4.221903	-0.675212	-0.147509
Br49	Br	-4.415377	-0.719245	-0.287700
Br50	Br	-3.894625	-0.667193	-0.060910
H51	H	-4.018058	-0.561235	-0.331522
Br52	Br	-3.677558	-0.705052	-0.286584
H53	H	-4.358230	-0.117150	-0.876756
Br54	Br	-3.593209	-0.676103	-0.125899
H55	H	-3.757576	-0.101138	-0.996839
H56	H	-4.232924	-0.556927	-0.290370
Br57	Br	-4.249822	-0.121775	-0.411465
H58	H	-4.417209	-0.116470	-1.009849
Br59	Br	-3.591064	-0.099616	-0.841876
Br60	Br	-3.392775	-0.101825	-0.394546
H61	H	-3.595005	-0.521706	-0.159110
H62	H	-3.559314	-0.103367	-0.549515
H63	H	-3.896622	-0.515019	-0.096507
H64	H	-4.160000	-0.530988	-0.148752
Br65	Br	-4.074678	-0.728765	-0.364609
H66	H	-4.218945	-0.118713	-0.562528
