data_functionalizedCrystal
_audit_creation_method	'MofGen! by Chris Wilmer'
_symmetry_space_group_name_H-M	'P1'
_symmetry_Int_Tables_number	1
_symmetry_cell_setting	triclinic
loop_
_symmetry_equiv_pos_as_xyz
  x,y,z
_cell_length_a	15.995350
_cell_length_b	16.109301
_cell_length_c	15.186229
_cell_angle_alpha	89.999362
_cell_angle_beta	89.999624
_cell_angle_gamma	96.523072
loop_
_atom_site_label
_atom_site_type_symbol
_atom_site_fract_x
_atom_site_fract_y
_atom_site_fract_z
O1	O	-0.107624	1.103160	-0.073165
O2	O	0.225709	1.436493	0.260169
O3	O	0.559043	1.769826	0.593502
O4	O	-0.121018	0.861101	-0.073178
O5	O	0.212316	1.194435	0.260156
O6	O	0.545649	1.527768	0.593489
O7	O	0.007569	0.988747	-0.073174
O8	O	0.340902	1.322081	0.260159
O9	O	0.674235	1.655414	0.593492
O10	O	-0.236210	0.975514	-0.073168
O11	O	0.097123	1.308847	0.260165
O12	O	0.430456	1.642180	0.593498
O13	O	0.007570	0.988739	0.073283
O14	O	0.340904	1.322072	0.406616
O15	O	0.674237	1.655405	0.739950
O16	O	-0.121016	0.861093	0.073280
O17	O	0.212317	1.194426	0.406613
O18	O	0.545651	1.527759	0.739946
O19	O	-0.107622	1.103151	0.073293
O20	O	0.225711	1.436484	0.406626
O21	O	0.559044	1.769818	0.739959
Zn22	Zn	-0.114319	0.982121	0.096539
Zn23	Zn	0.219015	1.315454	0.429873
Zn24	Zn	0.552348	1.648787	0.763206
Zn25	Zn	-0.114321	0.982132	-0.096424
Zn26	Zn	0.219012	1.315465	0.236909
Zn27	Zn	0.552346	1.648798	0.570242
O28	O	-0.236208	0.975505	0.073289
O29	O	0.097125	1.308838	0.406622
O30	O	0.430458	1.642172	0.739956
C31	C	-0.120474	0.830122	0.000049
C32	C	0.212859	1.163455	0.333382
C33	C	0.546192	1.496789	0.666716
C34	C	-0.118848	0.737826	0.000044
C35	C	0.214486	1.071160	0.333377
C36	C	0.547819	1.404493	0.666710
C37	C	-0.191366	0.515573	0.000056
C38	C	0.141967	0.848907	0.333389
C39	C	0.475301	1.182240	0.666722
C40	C	-0.189831	0.428853	0.000061
C41	C	0.143502	0.762186	0.333395
C42	C	0.476835	1.095519	0.666728
C43	C	-0.037268	0.448686	0.000054
C44	C	0.296065	0.782019	0.333387
C45	C	0.629399	1.115352	0.666721
C46	C	-0.038804	0.535405	0.000055
C47	C	0.294530	0.868738	0.333388
C48	C	0.627863	1.202072	0.666721
C49	C	-0.115855	0.568846	0.000051
C50	C	0.217478	0.902179	0.333384
C51	C	0.550811	1.235513	0.666718
C52	C	-0.112785	0.395406	0.000056
C53	C	0.220549	0.728740	0.333389
C54	C	0.553882	1.062073	0.666723
C55	C	-0.111120	0.301380	0.000062
C56	C	0.222213	0.634713	0.333395
C57	C	0.555547	0.968046	0.666729
C58	C	-0.117520	0.662879	0.000047
C59	C	0.215813	0.996212	0.333380
C60	C	0.549146	1.329545	0.666713
C61	C	-0.267404	0.976056	0.000061
C62	C	0.065929	1.309390	0.333395
C63	C	0.399263	1.642723	0.666728
C64	C	-0.360354	0.977697	0.000064
C65	C	-0.027021	1.311030	0.333397
C66	C	0.306313	1.644363	0.666730
C67	C	-0.698100	0.983587	0.000050
C68	C	-0.364767	1.316920	0.333384
C69	C	-0.031433	1.650254	0.666717
C70	C	-0.650641	1.074494	-0.000272
C71	C	-0.317308	1.407828	0.333062
C72	C	0.016026	1.741161	0.666395
C73	C	-0.553951	1.072854	0.000063
C74	C	-0.220618	1.406187	0.333397
C75	C	0.112715	1.739520	0.666730
C76	C	-0.530540	0.980665	0.000057
C77	C	-0.197207	1.313999	0.333390
C78	C	0.136127	1.647332	0.666723
C79	C	-0.571634	0.935822	0.083685
C80	C	-0.238301	1.269155	0.417019
C81	C	0.095033	1.602489	0.750352
C82	C	-0.668269	0.938106	0.083751
C83	C	-0.334936	1.271439	0.417084
C84	C	-0.001603	1.604772	0.750417
C85	C	-0.668619	0.936237	-0.082799
C86	C	-0.335286	1.269570	0.250535
C87	C	-0.001953	1.602904	0.583868
C88	C	-0.571674	0.936259	-0.083899
C89	C	-0.238341	1.269592	0.249434
C90	C	0.094993	1.602925	0.582767
C91	C	-0.435843	0.979009	0.000063
C92	C	-0.102510	1.312343	0.333396
C93	C	0.230824	1.645676	0.666730
C94	C	-0.792797	0.985240	0.000050
C95	C	-0.459464	1.318574	0.333383
C96	C	-0.126131	1.651907	0.666717
C97	C	0.038764	0.988196	0.000052
C98	C	0.372097	1.321529	0.333385
C99	C	0.705431	1.654863	0.666718
C100	C	0.131714	0.986556	0.000043
C101	C	0.465047	1.319889	0.333377
C102	C	0.798381	1.653222	0.666710
C103	C	-0.108166	1.134130	0.000064
C104	C	0.225168	1.467464	0.333397
C105	C	0.558501	1.800797	0.666730
C106	C	-0.109792	1.226426	0.000063
C107	C	0.223541	1.559759	0.333397
C108	C	0.556874	1.893093	0.666730
N109	N	-0.114317	0.982119	0.228232
N110	N	0.219017	1.315452	0.561565
N111	N	0.552350	1.648786	0.894899
N112	N	-0.114317	0.982140	-0.228117
N113	N	0.219017	1.315473	0.105216
N114	N	0.552350	1.648807	0.438550
C115	C	-0.057398	1.038660	0.453956
C116	C	0.275936	1.371993	0.787290
C117	C	0.609269	1.705327	1.120623
C118	C	-0.057396	1.038662	0.546146
C119	C	0.275938	1.371996	0.879479
C120	C	0.609271	1.705329	1.212813
C121	C	-0.171238	0.925593	0.546152
C122	C	0.162095	1.258926	0.879485
C123	C	0.495428	1.592260	1.212819
C124	C	-0.171236	0.925587	0.453964
C125	C	0.162098	1.258920	0.787297
C126	C	0.495431	1.592254	1.120631
C127	C	-0.114316	0.982125	0.407869
C128	C	0.219017	1.315459	0.741202
C129	C	0.552350	1.648792	1.074535
C130	C	-0.114317	0.982134	0.592246
C131	C	0.219016	1.315467	0.925580
C132	C	0.552350	1.648800	1.258913
C133	C	-0.114315	0.982136	0.692202
C134	C	0.219018	1.315470	1.025536
C135	C	0.552351	1.648803	1.358869
C136	C	-0.114317	0.982122	0.307906
C137	C	0.219017	1.315455	0.641239
C138	C	0.552350	1.648789	0.974573
H139	H	-0.525516	1.108108	-0.059882
H140	H	-0.192183	1.441441	0.273452
H141	H	0.141151	1.774775	0.606785
H142	H	-0.217586	0.879546	0.416437
H143	H	0.115748	1.212879	0.749770
H144	H	0.449081	1.546212	1.083104
H145	H	-0.251320	0.385481	0.000067
H146	H	0.082013	0.718814	0.333400
H147	H	0.415347	1.052147	0.666734
H148	H	0.022690	0.578782	0.000053
H149	H	0.356023	0.912116	0.333387
H150	H	0.689357	1.245449	0.666720
H151	H	-0.254106	0.542798	0.000060
H152	H	0.079227	0.876131	0.333393
H153	H	0.412560	1.209465	0.666726
O154	O	-0.002075	1.093662	0.590779
O155	O	0.331258	1.426996	0.924112
O156	O	0.664591	1.760329	1.257445
C157	C	0.110872	1.205779	0.581038
C158	C	0.444206	1.539113	0.914371
C159	C	0.777539	1.872446	1.247704
C160	C	0.048250	1.143549	0.530383
C161	C	0.381584	1.476883	0.863716
C162	C	0.714917	1.810216	1.197049
H163	H	0.151589	1.246117	0.532230
H164	H	0.484922	1.579451	0.865563
H165	H	0.818255	1.912784	1.198896
H166	H	0.074753	1.247369	0.624172
H167	H	0.408087	1.580703	0.957505
H168	H	0.741420	1.914036	1.290838
H169	H	0.152676	1.169874	0.624223
H170	H	0.486009	1.503208	0.957557
H171	H	0.819343	1.836541	1.290890
H172	H	0.006431	1.179386	0.487149
H173	H	0.339764	1.512720	0.820483
H174	H	0.673098	1.846053	1.153816
H175	H	0.084422	1.101960	0.487304
H176	H	0.417755	1.435293	0.820638
H177	H	0.751088	1.768627	1.153971
H178	H	-0.217582	0.879562	0.583692
H179	H	0.115752	1.212895	0.917025
H180	H	0.449085	1.546229	1.250359
H181	H	0.025465	0.421447	0.000062
H182	H	0.358798	0.754780	0.333395
H183	H	0.692131	1.088114	0.666729
H184	H	-0.011050	1.084695	0.416428
H185	H	0.322284	1.418029	0.749761
H186	H	0.655617	1.751362	1.083094
H187	H	-0.669149	1.110828	-0.060253
H188	H	-0.335816	1.444161	0.273081
H189	H	-0.002483	1.777495	0.606414
H190	H	-0.670305	1.110697	0.059312
H191	H	-0.336972	1.444030	0.392645
H192	H	-0.003638	1.777363	0.725979
H193	H	-0.526080	1.108331	0.060122
H194	H	-0.192747	1.441664	0.393455
H195	H	0.140586	1.774997	0.726788
O196	O	-0.689952	0.977174	0.158351
O197	O	-0.356619	1.310508	0.491684
O198	O	-0.023285	1.643841	0.825017
C199	C	-0.641875	1.045621	0.293172
C200	C	-0.308542	1.378955	0.626505
C201	C	0.024791	1.712288	0.959838
C202	C	-0.617209	1.001401	0.208717
C203	C	-0.283875	1.334734	0.542050
C204	C	0.049458	1.668067	0.875384
H205	H	-0.583079	1.065205	0.333925
H206	H	-0.249746	1.398539	0.667259
H207	H	0.083588	1.731872	1.000592
H208	H	-0.673337	1.103290	0.274879
H209	H	-0.340003	1.436624	0.608212
H210	H	-0.006670	1.769957	0.941545
H211	H	-0.687491	1.001047	0.333265
H212	H	-0.354157	1.334380	0.666599
H213	H	-0.020824	1.667713	0.999932
H214	H	-0.571569	1.045909	0.168584
H215	H	-0.238236	1.379243	0.501918
H216	H	0.095098	1.712576	0.835251
H217	H	-0.585794	0.943720	0.227071
H218	H	-0.252460	1.277054	0.560404
H219	H	0.080873	1.610387	0.893738
H220	H	-0.700536	0.871363	0.087548
H221	H	-0.367202	1.204697	0.420881
H222	H	-0.033869	1.538030	0.754215
H223	H	-0.557527	0.868093	0.086790
H224	H	-0.224194	1.201427	0.420124
H225	H	0.109139	1.534760	0.753457
H226	H	-0.543255	0.966968	0.145927
H227	H	-0.209922	1.300301	0.479260
H228	H	0.123411	1.633635	0.812594
O229	O	-0.693246	0.971699	-0.158363
O230	O	-0.359913	1.305032	0.174971
O231	O	-0.026580	1.638366	0.508304
C232	C	-0.809496	1.008276	-0.245543
C233	C	-0.476163	1.341609	0.087790
C234	C	-0.142830	1.674942	0.421124
C235	C	-0.781722	0.968100	-0.159929
C236	C	-0.448388	1.301433	0.173404
C237	C	-0.115055	1.634766	0.506737
H238	H	-0.881031	1.005364	-0.246846
H239	H	-0.547698	1.338697	0.086487
H240	H	-0.214364	1.672030	0.419820
H241	H	-0.780663	1.076264	-0.248639
H242	H	-0.447330	1.409597	0.084694
H243	H	-0.113996	1.742930	0.418028
H244	H	-0.787351	0.972887	-0.304561
H245	H	-0.454017	1.306220	0.028773
H246	H	-0.120684	1.639553	0.362106
H247	H	-0.803860	1.003422	-0.100864
H248	H	-0.470527	1.336755	0.232469
H249	H	-0.137193	1.670089	0.565803
H250	H	-0.810547	0.900107	-0.156911
H251	H	-0.477213	1.233440	0.176422
H252	H	-0.143880	1.566773	0.509756
H253	H	-0.544363	0.969003	-0.145767
H254	H	-0.211029	1.302336	0.187566
H255	H	0.122304	1.635670	0.520899
H256	H	-0.556326	0.869033	-0.088957
H257	H	-0.222992	1.202366	0.244376
H258	H	0.110341	1.535700	0.577710
O259	O	-0.706431	0.856241	-0.083599
O260	O	-0.373098	1.189574	0.249734
O261	O	-0.039764	1.522907	0.583067
C262	C	-0.722542	0.723762	-0.158980
C263	C	-0.389208	1.057095	0.174354
C264	C	-0.055875	1.390428	0.507687
C265	C	-0.679643	0.814325	-0.158179
C266	C	-0.346310	1.147658	0.175154
C267	C	-0.012976	1.480991	0.508487
H268	H	-0.700914	0.689851	-0.219281
H269	H	-0.367580	1.023185	0.114052
H270	H	-0.034247	1.356518	0.447385
H271	H	-0.704800	0.690245	-0.096759
H272	H	-0.371467	1.023578	0.236574
H273	H	-0.038133	1.356912	0.569907
H274	H	-0.793726	0.724164	-0.161518
H275	H	-0.460392	1.057497	0.171815
H276	H	-0.127059	1.390830	0.505148
H277	H	-0.608452	0.813999	-0.155672
H278	H	-0.275119	1.147333	0.177661
H279	H	0.058215	1.480666	0.510994
H280	H	-0.697453	0.847804	-0.220397
H281	H	-0.364120	1.181137	0.112937
H282	H	-0.030786	1.514471	0.446270
