data_functionalizedCrystal
_audit_creation_method	'MofGen! by Chris Wilmer'
_symmetry_space_group_name_H-M	'P1'
_symmetry_Int_Tables_number	1
_symmetry_cell_setting	triclinic
loop_
_symmetry_equiv_pos_as_xyz
  x,y,z
_cell_length_a	29.839134
_cell_length_b	21.295417
_cell_length_c	21.295411
_cell_angle_alpha	90.021644
_cell_angle_beta	90.025746
_cell_angle_gamma	90.008818
loop_
_atom_site_label
_atom_site_type_symbol
_atom_site_fract_x
_atom_site_fract_y
_atom_site_fract_z
Zn1	Zn	-0.686808	0.251045	-0.355931
Zn2	Zn	-0.186808	0.751045	0.144069
Zn3	Zn	-0.686738	0.356297	-0.250657
Zn4	Zn	-0.186738	0.856297	0.249343
Zn5	Zn	-0.611675	0.251006	-0.250674
Zn6	Zn	-0.111675	0.751006	0.249326
Zn7	Zn	-0.611653	0.356241	-0.355886
Zn8	Zn	-0.111653	0.856241	0.144114
O9	O	-0.649219	0.303647	-0.303287
O10	O	-0.149219	0.803647	0.196713
O11	O	-0.749666	0.265047	-0.341978
O12	O	-0.249666	0.765047	0.158022
O13	O	-0.676761	0.342337	-0.162569
O14	O	-0.176761	0.842337	0.337431
O15	O	-0.621680	0.162922	-0.264663
O16	O	-0.121680	0.662922	0.235337
O17	O	-0.749615	0.342375	-0.264633
O18	O	-0.249615	0.842375	0.235367
O19	O	-0.676880	0.162951	-0.341995
O20	O	-0.176880	0.662951	0.158005
O21	O	-0.621612	0.264980	-0.162582
O22	O	-0.121612	0.764980	0.337418
O23	O	-0.548805	0.264925	-0.264619
O24	O	-0.048805	0.764925	0.235381
O25	O	-0.621642	0.342279	-0.443982
O26	O	-0.121642	0.842279	0.056018
O27	O	-0.548789	0.342241	-0.341918
O28	O	-0.048789	0.842241	0.158082
O29	O	-0.676859	0.264992	-0.444015
O30	O	-0.176859	0.764992	0.055985
O31	O	-0.676740	0.444379	-0.264589
O32	O	-0.176740	0.944379	0.235411
O33	O	-0.621575	0.444337	-0.341901
O34	O	-0.121575	0.944337	0.158099
C35	C	-0.532496	0.303573	-0.303266
C36	C	-0.032496	0.803573	0.196734
C37	C	-0.482562	0.303557	-0.303272
C38	C	0.017438	0.803557	0.196728
C39	C	-0.125997	0.263437	-0.343623
C40	C	0.374003	0.763437	0.156377
C41	C	-0.313670	0.263397	-0.343615
C42	C	0.186330	0.763397	0.156385
O43	O	-0.337954	0.229224	-0.377930
O44	O	0.162046	0.729224	0.122070
N45	N	-0.337116	0.303590	-0.303282
N46	N	0.162884	0.803590	0.196718
C47	C	-0.313642	0.343799	-0.262952
C48	C	0.186358	0.843799	0.237048
O49	O	-0.337891	0.377989	-0.228651
O50	O	0.162109	0.877989	0.271349
C51	C	-0.125970	0.343842	-0.262964
C52	C	0.374030	0.843842	0.237036
C53	C	-0.102526	0.303642	-0.303295
C54	C	0.397474	0.803642	0.196705
C55	C	-0.102553	0.223241	-0.383951
C56	C	0.397447	0.723241	0.116049
C57	C	-0.055637	0.223249	-0.383951
C58	C	0.444363	0.723249	0.116049
C59	C	-0.032166	0.263454	-0.343622
C60	C	0.467834	0.763454	0.156378
C61	C	-0.055610	0.303650	-0.303294
C62	C	0.444390	0.803650	0.196706
C63	C	-0.102496	0.384053	-0.222637
C64	C	0.397504	0.884053	0.277363
C65	C	-0.055575	0.384061	-0.222645
C66	C	0.444425	0.884061	0.277355
C67	C	-0.032131	0.343861	-0.262976
C68	C	0.467869	0.843861	0.237024
C69	C	0.014777	0.343862	-0.262965
C70	C	0.514777	0.843862	0.237035
N71	N	0.038223	0.303669	-0.303298
N72	N	0.538223	0.803669	0.196702
C73	C	0.014752	0.263465	-0.343626
C74	C	0.514752	0.763465	0.156374
C75	C	-0.412172	0.343772	-0.262947
C76	C	0.087828	0.843772	0.237053
C77	C	-0.459090	0.343761	-0.262943
C78	C	0.040910	0.843761	0.237057
C79	C	-0.459115	0.263360	-0.343607
C80	C	0.040885	0.763360	0.156393
C81	C	-0.412197	0.263369	-0.343608
C82	C	0.087803	0.763369	0.156392
C83	C	-0.388726	0.303580	-0.303280
C84	C	0.111274	0.803580	0.196720
C85	C	0.113278	0.263485	-0.343621
C86	C	0.613278	0.763485	0.156379
C87	C	0.160197	0.263494	-0.343615
C88	C	0.660197	0.763494	0.156385
C89	C	0.160218	0.343897	-0.262954
C90	C	0.660218	0.843897	0.237046
C91	C	0.113303	0.343885	-0.262957
C92	C	0.613303	0.843885	0.237043
C93	C	0.089834	0.303677	-0.303296
C94	C	0.589834	0.803677	0.196704
O95	O	0.039089	0.378022	-0.228672
O96	O	0.539089	0.878022	0.271328
O97	O	0.039009	0.229290	-0.377932
O98	O	0.539009	0.729290	0.122068
C99	C	-0.172912	0.263429	-0.343624
C100	C	0.327088	0.763429	0.156376
C101	C	-0.196356	0.303626	-0.303296
C102	C	0.303644	0.803626	0.196704
C103	C	-0.172885	0.343830	-0.262968
C104	C	0.327115	0.843830	0.237032
C105	C	-0.243274	0.303614	-0.303292
C106	C	0.256726	0.803614	0.196708
C107	C	-0.266746	0.263410	-0.343621
C108	C	0.233254	0.763410	0.156379
C109	C	-0.243299	0.223217	-0.383953
C110	C	0.256701	0.723217	0.116047
C111	C	-0.196384	0.223225	-0.383953
C112	C	0.303616	0.723225	0.116047
C113	C	-0.196331	0.384022	-0.222635
C114	C	0.303669	0.884022	0.277365
C115	C	-0.243247	0.384011	-0.222638
C116	C	0.256753	0.884011	0.277362
C117	C	-0.266718	0.343806	-0.262967
C118	C	0.233282	0.843806	0.237033
C119	C	-0.649160	0.467199	-0.303252
C120	C	-0.149160	0.967199	0.196748
C121	C	-0.649176	0.537167	-0.303258
C122	C	-0.149176	1.037167	0.196742
C123	C	-0.649256	0.303634	-0.467477
C124	C	-0.149256	0.803634	0.032523
C125	C	-0.649272	0.303628	-0.537445
C126	C	-0.149272	0.803628	-0.037445
C127	C	0.233603	0.303708	-0.303301
C128	C	0.733603	0.803708	0.196699
C129	C	0.183669	0.303698	-0.303287
C130	C	0.683669	0.803698	0.196713
C131	C	-0.649290	0.139457	-0.303336
C132	C	-0.149290	0.639457	0.196664
C133	C	-0.649320	0.069489	-0.303357
C134	C	-0.149320	0.569489	0.196643
C135	C	-0.677926	0.570034	-0.263043
C136	C	-0.177926	1.070034	0.236957
C137	C	-0.677947	0.635777	-0.263057
C138	C	-0.177947	1.135777	0.236943
C139	C	-0.649210	0.668649	-0.303280
C140	C	-0.149210	1.168649	0.196720
C141	C	-0.620458	0.635774	-0.343503
C142	C	-0.120458	1.135774	0.156497
C143	C	-0.620441	0.570033	-0.343492
C144	C	-0.120441	1.070033	0.156508
N145	N	-0.609910	0.771895	-0.308072
N146	N	-0.109910	1.271895	0.191928
N147	N	-0.609927	0.834347	-0.308078
N148	N	-0.109927	1.334347	0.191922
C149	C	-0.649260	0.866724	-0.303316
C150	C	-0.149260	1.366724	0.196684
N151	N	-0.688575	0.834291	-0.298534
N152	N	-0.188575	1.334291	0.201466
N153	N	-0.688557	0.771834	-0.298525
N154	N	-0.188557	1.271834	0.201475
C155	C	-0.649225	0.739935	-0.303296
C156	C	-0.149225	1.239935	0.196704
C157	C	-0.678035	0.970877	-0.263114
C158	C	-0.178035	1.470877	0.236886
C159	C	-0.678057	1.036621	-0.263133
C160	C	-0.178057	1.536621	0.236867
C161	C	-0.620564	1.036617	-0.343575
C162	C	-0.120564	1.536617	0.156425
C163	C	-0.620546	0.970874	-0.343560
C164	C	-0.120546	1.470874	0.156440
C165	C	-0.649281	0.938008	-0.303326
C166	C	-0.149281	1.438008	0.196674
C167	C	-0.678022	0.263383	-0.570330
C168	C	-0.178022	0.763383	-0.070330
C169	C	-0.678021	0.263356	-0.636073
C170	C	-0.178021	0.763356	-0.136073
C171	C	-0.649275	0.303585	-0.668928
C172	C	-0.149275	0.803585	-0.168928
C173	C	-0.620520	0.343833	-0.636035
C174	C	-0.120520	0.843833	-0.136035
C175	C	-0.620518	0.343854	-0.570294
C176	C	-0.120518	0.843854	-0.070294
N177	N	-0.645809	0.358651	-0.772143
N178	N	-0.145809	0.858651	-0.272143
N179	N	-0.645813	0.358628	-0.834595
N180	N	-0.145813	0.858628	-0.334595
C181	C	-0.649278	0.303521	-0.867003
C182	C	-0.149278	0.803521	-0.367003
N183	N	-0.652747	0.248436	-0.834600
N184	N	-0.152747	0.748436	-0.334600
N185	N	-0.652745	0.248459	-0.772143
N186	N	-0.152745	0.748459	-0.272143
C187	C	-0.649274	0.303566	-0.740213
C188	C	-0.149274	0.803566	-0.240213
C189	C	-0.678029	0.263243	-0.971173
C190	C	-0.178029	0.763243	-0.471173
C191	C	-0.678025	0.263215	-1.036917
C192	C	-0.178025	0.763215	-0.536917
C193	C	-0.620526	0.343697	-1.036878
C194	C	-0.120526	0.843697	-0.536878
C195	C	-0.620528	0.343720	-0.971136
C196	C	-0.120528	0.843720	-0.471136
C197	C	-0.649281	0.303494	-0.938287
C198	C	-0.149281	0.803494	-0.438287
C199	C	-0.649207	0.303615	-0.139735
C200	C	-0.149207	0.803615	0.360265
C201	C	-0.649278	0.303443	-0.069768
C202	C	-0.149278	0.803443	0.430232
H203	H	0.094175	0.230743	-0.376469
H204	H	0.594175	0.730743	0.123531
F205	F	-0.708661	1.071600	-0.220332
F206	F	-0.208661	1.571600	0.279668
H207	H	-0.701439	0.230485	-0.944427
H208	H	-0.201439	0.730485	-0.444427
F209	F	-0.589929	0.386507	-1.071841
F210	F	-0.089929	0.886507	-0.571841
H211	H	-0.036553	0.190517	-0.416795
H212	H	0.463447	0.690517	0.083205
F213	F	0.088351	0.386672	-0.220035
F214	F	0.588351	0.886672	0.279965
H215	H	-0.597168	1.063381	-0.376328
H216	H	-0.097168	1.563381	0.123672
H217	H	-0.597029	0.543272	-0.376240
H218	H	-0.097029	1.043272	0.123760
F219	F	0.185146	0.220705	-0.386542
F220	F	0.685146	0.720705	0.113458
F221	F	-0.127526	0.180448	-0.426880
F222	F	0.372474	0.680448	0.073120
H223	H	-0.597133	0.944112	-0.376304
H224	H	-0.097133	1.444112	0.123696
H225	H	-0.597113	0.376585	-0.662790
H226	H	-0.097113	0.876585	-0.162790
F227	F	-0.387199	0.386566	-0.220015
F228	F	0.112801	0.886566	0.279985
H229	H	-0.701324	0.543277	-0.230284
H230	H	-0.201324	1.043277	0.269716
F231	F	-0.127436	0.426832	-0.179703
F232	F	0.372564	0.926832	0.320297
H233	H	-0.036467	0.416808	-0.189806
H234	H	0.463533	0.916808	0.310194
F235	F	-0.589929	0.386557	-0.936136
F236	F	-0.089929	0.886557	-0.436136
F237	F	-0.708547	0.670764	-0.220253
F238	F	-0.208547	1.170764	0.279747
H239	H	-0.393112	0.230634	-0.376448
H240	H	0.106888	0.730634	0.123552
F241	F	-0.171358	0.426810	-0.179704
F242	F	0.328642	0.926810	0.320296
H243	H	-0.597061	0.662543	-0.376253
H244	H	-0.097061	1.162543	0.123747
H245	H	-0.478234	0.230623	-0.376443
H246	H	0.021766	0.730623	0.123557
F247	F	-0.708622	0.220568	-0.535374
F248	F	-0.208622	0.720568	-0.035374
H249	H	-0.478174	0.376489	-0.230095
H250	H	0.021826	0.876489	0.269905
H251	H	-0.701432	0.230580	-0.662853
H252	H	-0.201432	0.730580	-0.162853
F253	F	0.185206	0.386681	-0.220034
F254	F	0.685206	0.886681	0.279966
H255	H	-0.597104	0.376626	-0.543519
H256	H	-0.097104	0.876626	-0.043519
F257	F	-0.268288	0.180427	-0.426872
F258	F	0.231712	0.680427	0.073128
F259	F	-0.708631	0.220385	-1.071916
F260	F	-0.208631	0.720385	-0.571916
H261	H	-0.701434	0.944116	-0.230356
H262	H	-0.201434	1.444116	0.269644
F263	F	-0.171439	0.180440	-0.426880
F264	F	0.328561	0.680440	0.073120
H265	H	-0.262331	0.416745	-0.189790
H266	H	0.237669	0.916745	0.310210
