data_functionalizedCrystal
_audit_creation_method	'MofGen! by Chris Wilmer'
_symmetry_space_group_name_H-M	'P1'
_symmetry_Int_Tables_number	1
_symmetry_cell_setting	triclinic
loop_
_symmetry_equiv_pos_as_xyz
  x,y,z
_cell_length_a	17.077402
_cell_length_b	21.295419
_cell_length_c	17.077396
_cell_angle_alpha	89.980408
_cell_angle_beta	89.972472
_cell_angle_gamma	90.038294
loop_
_atom_site_label
_atom_site_type_symbol
_atom_site_fract_x
_atom_site_fract_y
_atom_site_fract_z
Zn1	Zn	-0.312198	0.962355	-0.443850
Zn2	Zn	-0.443473	0.962280	-0.312586
Zn3	Zn	-0.312259	0.857088	-0.312598
Zn4	Zn	-0.443460	0.857061	-0.443810
O5	O	-0.377847	0.909696	-0.378211
O6	O	-0.329592	1.050435	-0.426450
O7	O	-0.426098	0.948305	-0.202741
O8	O	-0.202404	0.871095	-0.330030
O9	O	-0.426039	1.050379	-0.330011
O10	O	-0.202359	0.948434	-0.426461
O11	O	-0.329696	0.871021	-0.202749
O12	O	-0.329683	0.768995	-0.329991
O13	O	-0.426017	0.871049	-0.553662
O14	O	-0.426076	0.768975	-0.426392
O15	O	-0.329579	0.948408	-0.553692
O16	O	-0.553318	0.948280	-0.329971
O17	O	-0.553308	0.870976	-0.426381
C18	C	-0.377885	0.746144	-0.378189
C19	C	-0.377920	0.676176	-0.378198
C20	C	-0.327782	0.643361	-0.428491
C21	C	-0.327761	0.577619	-0.428494
C22	C	-0.377892	0.544694	-0.378212
C23	C	-0.428033	0.577517	-0.327909
C24	C	-0.428048	0.643258	-0.327902
N25	N	-0.446574	0.441426	-0.372084
N26	N	-0.446559	0.378974	-0.372096
C27	C	-0.377851	0.346619	-0.378230
N28	N	-0.309159	0.379075	-0.384367
N29	N	-0.309175	0.441532	-0.384360
C30	C	-0.377882	0.473408	-0.378214
C31	C	-0.327686	0.242518	-0.428529
C32	C	-0.327664	0.176775	-0.428527
C33	C	-0.427943	0.176674	-0.327945
C34	C	-0.427959	0.242417	-0.327944
C35	C	-0.377831	0.275335	-0.378240
C36	C	-0.581795	0.909634	-0.378188
C37	C	-0.669045	0.909664	-0.378204
C38	C	-0.709944	0.949913	-0.428456
C39	C	-0.791925	0.949940	-0.428472
C40	C	-0.833005	0.909720	-0.378233
C41	C	-0.792099	0.869467	-0.327979
C42	C	-0.710121	0.869438	-0.327967
C43	C	-0.962969	0.869531	-0.328006
C44	C	-1.044954	0.869561	-0.328017
C45	C	-1.044774	0.950033	-0.428512
C46	C	-0.962795	0.950004	-0.428500
C47	C	-0.921896	0.909752	-0.378244
C48	C	-0.173103	0.909776	-0.378251
C49	C	-0.085853	0.909810	-0.378269
C50	C	-0.377790	0.909734	-0.582955
C51	C	-0.377765	0.909750	-0.670205
C52	C	-0.377810	1.073886	-0.378233
C53	C	-0.377794	1.143854	-0.378243
C54	C	-0.327546	0.950033	-0.711212
C55	C	-0.327520	0.950040	-0.793192
C56	C	-0.377717	0.909768	-0.834165
C57	C	-0.427939	0.869481	-0.793152
C58	C	-0.427960	0.869471	-0.711173
C59	C	-0.427891	0.869507	-0.964022
C60	C	-0.427871	0.869518	-1.046007
C61	C	-0.327451	0.950076	-1.046042
C62	C	-0.327473	0.950066	-0.964063
C63	C	-0.377695	0.909779	-0.923056
C64	C	-0.377848	0.909694	-0.174263
C65	C	-0.377652	0.909800	-0.087014
H66	H	-0.468790	0.269135	-0.286993
H67	H	-0.286964	0.670159	-0.469446
N68	N	-0.665640	0.993297	-0.482639
H69	H	-0.703992	1.018797	-0.514477
H70	H	-0.631639	0.967644	-0.518931
H71	H	-0.286831	0.150058	-0.469480
N72	N	-0.482015	0.141170	-0.273714
H73	H	-0.513783	0.171937	-0.241853
H74	H	-0.450008	0.113904	-0.237446
H75	H	-0.825222	0.982719	-0.469386
H76	H	-0.929348	0.982757	-0.469404
N77	N	-1.088881	0.993452	-0.482715
H78	H	-1.147047	0.987367	-0.475104
H79	H	-1.074527	0.983627	-0.538764
N80	N	-0.482098	0.542010	-0.273670
H81	H	-0.474482	0.495383	-0.281306
H82	H	-0.538179	0.553468	-0.285783
H83	H	-0.286672	0.982829	-0.677858
H84	H	-0.929672	0.836751	-0.287086
N85	N	-0.481978	0.826054	-1.090198
H86	H	-0.474335	0.832171	-1.148353
H87	H	-0.538053	0.835800	-1.075875
H88	H	-1.078399	0.836808	-0.287111
N89	N	-0.836401	0.826088	-0.273786
H90	H	-0.870440	0.796915	-0.305654
H91	H	-0.870352	0.851749	-0.237455
N92	N	-0.666004	0.826025	-0.273769
H93	H	-0.704465	0.800550	-0.241943
H94	H	-0.631975	0.851652	-0.237467
H95	H	-0.468877	0.669976	-0.286946
H96	H	-0.286929	0.550895	-0.469448
H97	H	-0.286865	0.269322	-0.469478
N98	N	-0.273340	0.993475	-0.837422
H99	H	-0.241542	1.018985	-0.799027
H100	H	-0.305263	1.022601	-0.871446
N101	N	-0.482086	0.826049	-0.837342
H102	H	-0.513902	0.800528	-0.798922
H103	H	-0.450133	0.796934	-0.871358
H104	H	-0.286557	0.982878	-1.079433
H105	H	-0.286602	0.982863	-0.930705
N106	N	-0.482055	0.826053	-0.919790
H107	H	-0.513854	0.800543	-0.958184
H108	H	-0.518384	0.851659	-0.885774
H109	H	-0.468846	0.836662	-0.677786
