data_functionalizedCrystal
_audit_creation_method	'MofGen! by Chris Wilmer'
_symmetry_space_group_name_H-M	'P1'
_symmetry_Int_Tables_number	1
_symmetry_cell_setting	triclinic
loop_
_symmetry_equiv_pos_as_xyz
  x,y,z
_cell_length_a	23.532361
_cell_length_b	23.532407
_cell_length_c	16.053802
_cell_angle_alpha	92.540846
_cell_angle_beta	87.439726
_cell_angle_gamma	82.839208
loop_
_atom_site_label
_atom_site_type_symbol
_atom_site_fract_x
_atom_site_fract_y
_atom_site_fract_z
O1	O	0.757691	0.066599	-0.069360
O2	O	1.091024	0.399932	0.263973
O3	O	1.424357	0.733266	0.597307
O4	O	0.591824	0.076629	-0.069382
O5	O	0.925158	0.409963	0.263951
O6	O	1.258491	0.743296	0.597285
O7	O	0.679758	-0.011318	-0.069347
O8	O	1.013092	0.322016	0.263986
O9	O	1.346425	0.655349	0.597320
O10	O	0.669757	0.154546	-0.069395
O11	O	1.003090	0.487879	0.263938
O12	O	1.336423	0.821212	0.597272
O13	O	0.674918	-0.006497	0.069510
O14	O	1.008252	0.326837	0.402843
O15	O	1.341585	0.660170	0.736177
O16	O	0.586984	0.081450	0.069475
O17	O	0.920318	0.414784	0.402808
O18	O	1.253651	0.748117	0.736142
O19	O	0.752851	0.071420	0.069497
O20	O	1.086184	0.404753	0.402830
O21	O	1.419517	0.738087	0.736164
Zn22	Zn	0.669149	0.077201	0.091533
Zn23	Zn	1.002482	0.410534	0.424866
Zn24	Zn	1.335816	0.743867	0.758199
Zn25	Zn	0.675526	0.070849	-0.091418
Zn26	Zn	1.008859	0.404182	0.241916
Zn27	Zn	1.342193	0.737515	0.575249
O28	O	0.664917	0.159367	0.069462
O29	O	0.998250	0.492700	0.402795
O30	O	1.331583	0.826034	0.736129
C31	C	0.568188	0.078788	0.000044
C32	C	0.901521	0.412122	0.333377
C33	C	1.234854	0.745455	0.666711
C34	C	0.504970	0.078033	0.000037
C35	C	0.838303	0.411366	0.333370
C36	C	1.171636	0.744700	0.666703
C37	C	0.677083	-0.030123	0.000086
C38	C	1.010417	0.303210	0.333419
C39	C	1.343750	0.636544	0.666752
C40	C	0.676317	-0.093339	0.000098
C41	C	1.009650	0.239994	0.333432
C42	C	1.342984	0.573327	0.666765
C43	C	0.234364	0.072102	-0.075648
C44	C	0.567697	0.405435	0.257685
C45	C	0.901031	0.738768	0.591018
C46	C	0.293764	0.072817	-0.075651
C47	C	0.627097	0.406150	0.257683
C48	C	0.960430	0.739483	0.591016
O49	O	0.326733	0.070932	-0.140022
O50	O	0.660067	0.404265	0.193312
O51	O	0.993400	0.737598	0.526645
N52	N	0.320831	0.075806	0.000040
N53	N	0.654164	0.409139	0.333374
N54	N	0.987498	0.742472	0.666707
C55	C	0.288496	0.078074	0.075739
C56	C	0.621830	0.411408	0.409072
C57	C	0.955163	0.744741	0.742406
O58	O	0.316973	0.080682	0.140120
O59	O	0.650307	0.414015	0.473453
O60	O	0.983640	0.747348	0.806787
C61	C	0.229098	0.077355	0.075740
C62	C	0.562431	0.410689	0.409074
C63	C	0.895765	0.744022	0.742407
C64	C	0.202033	0.074372	0.000044
C65	C	0.535366	0.407705	0.333377
C66	C	0.868700	0.741039	0.666711
C67	C	0.207299	0.069118	-0.151338
C68	C	0.540632	0.402451	0.181995
C69	C	0.873965	0.735785	0.515328
C70	C	0.147903	0.068404	-0.151336
C71	C	0.481236	0.401738	0.181998
C72	C	0.814570	0.735071	0.515331
C73	C	0.115572	0.070674	-0.075643
C74	C	0.448905	0.404008	0.257690
C75	C	0.782239	0.737341	0.591023
C76	C	0.142637	0.073658	0.000047
C77	C	0.475971	0.406991	0.333380
C78	C	0.809304	0.740325	0.666713
C79	C	0.196765	0.079620	0.151438
C80	C	0.530098	0.412953	0.484771
C81	C	0.863431	0.746286	0.818104
C82	C	0.137363	0.078900	0.151433
C83	C	0.470696	0.412233	0.484766
C84	C	0.804030	0.745567	0.818099
C85	C	0.110298	0.075917	0.075736
C86	C	0.443631	0.409250	0.409070
C87	C	0.776965	0.742583	0.742403
C88	C	0.050911	0.075215	0.075742
C89	C	0.384244	0.408548	0.409075
C90	C	0.717577	0.741881	0.742408
N91	N	0.023843	0.072225	0.000051
N92	N	0.357176	0.405559	0.333384
N93	N	0.690510	0.738892	0.666717
C94	C	0.056174	0.069955	-0.075642
C95	C	0.389507	0.403289	0.257691
C96	C	0.722841	0.736622	0.591025
C97	C	0.413237	0.079583	0.075730
C98	C	0.746570	0.412916	0.409063
C99	C	1.079903	0.746250	0.742397
C100	C	0.472633	0.080306	0.075730
C101	C	0.805966	0.413639	0.409063
C102	C	1.139300	0.746973	0.742396
C103	C	0.477897	0.075047	-0.075660
C104	C	0.811230	0.408381	0.257673
C105	C	1.144563	0.741714	0.591006
C106	C	0.418499	0.074328	-0.075659
C107	C	0.751832	0.407662	0.257675
C108	C	1.085165	0.740995	0.591008
C109	C	0.386169	0.076594	0.000039
C110	C	0.719503	0.409927	0.333372
C111	C	1.052836	0.743261	0.666706
C112	C	-0.068562	0.068457	-0.075631
C113	C	0.264771	0.401791	0.257703
C114	C	0.598105	0.735124	0.591036
C115	C	-0.127964	0.067746	-0.075621
C116	C	0.205370	0.401079	0.257712
C117	C	0.538703	0.734413	0.591045
C118	C	-0.133222	0.073002	0.075768
C119	C	0.200112	0.406335	0.409101
C120	C	0.533445	0.739668	0.742434
C121	C	-0.073826	0.073716	0.075759
C122	C	0.259508	0.407049	0.409092
C123	C	0.592841	0.740383	0.742426
C124	C	-0.041497	0.071441	0.000053
C125	C	0.291837	0.404775	0.333386
C126	C	0.625170	0.738108	0.666720
O127	O	0.017905	0.077095	0.140080
O128	O	0.351238	0.410429	0.473413
O129	O	0.684571	0.743762	0.806746
O130	O	0.027690	0.067341	-0.140012
O131	O	0.361023	0.400674	0.193321
O132	O	0.694357	0.734007	0.526655
C133	C	0.621122	-0.359500	0.000039
C134	C	0.954456	-0.026166	0.333372
C135	C	1.287789	0.307167	0.666706
C136	C	0.621834	-0.300099	0.000045
C137	C	0.955167	0.033234	0.333379
C138	C	1.288500	0.366567	0.666712
O139	O	0.578048	-0.263349	0.000013
O140	O	0.911381	0.069985	0.333346
O141	O	1.244715	0.403318	0.666680
N142	N	0.674111	-0.277481	0.000062
N143	N	1.007444	0.055852	0.333395
N144	N	1.340777	0.389185	0.666729
C145	C	0.725680	-0.314267	0.000064
C146	C	1.059013	0.019066	0.333397
C147	C	1.392347	0.352399	0.666730
O148	O	0.770211	-0.289575	0.000077
O149	O	1.103544	0.043759	0.333411
O150	O	1.436878	0.377092	0.666744
C151	C	0.724968	-0.373667	0.000051
C152	C	1.058302	-0.040333	0.333384
C153	C	1.391635	0.293000	0.666718
C154	C	0.672688	-0.396281	0.000043
C155	C	1.006021	-0.062948	0.333376
C156	C	1.339354	0.270386	0.666710
C157	C	0.568846	-0.382114	0.000030
C158	C	0.902179	-0.048781	0.333363
C159	C	1.235513	0.284552	0.666696
C160	C	0.568135	-0.441511	0.000025
C161	C	0.901468	-0.108177	0.333358
C162	C	1.234802	0.225156	0.666692
C163	C	0.619700	-0.478292	0.000029
C164	C	0.953034	-0.144959	0.333362
C165	C	1.286367	0.188375	0.666696
C166	C	0.671977	-0.455677	0.000038
C167	C	1.005310	-0.122344	0.333371
C168	C	1.338643	0.210989	0.666705
C169	C	0.776537	-0.410452	0.000047
C170	C	1.109871	-0.077119	0.333380
C171	C	1.443204	0.256215	0.666713
C172	C	0.775821	-0.469855	0.000034
C173	C	1.109154	-0.136521	0.333367
C174	C	1.442488	0.196812	0.666700
C175	C	0.723541	-0.492469	0.000025
C176	C	1.056874	-0.159136	0.333359
C177	C	1.390207	0.174198	0.666692
C178	C	0.722831	-0.551855	0.000037
C179	C	1.056164	-0.218521	0.333370
C180	C	1.389498	0.114812	0.666704
N181	N	0.670554	-0.574473	0.000021
N182	N	1.003887	-0.241139	0.333354
N183	N	1.337221	0.092194	0.666687
C184	C	0.618989	-0.537691	0.000016
C185	C	0.952322	-0.204358	0.333350
C186	C	1.285655	0.128975	0.666683
C187	C	0.727170	-0.189524	0.000088
C188	C	1.060504	0.143809	0.333422
C189	C	1.393837	0.477142	0.666755
C190	C	0.727882	-0.130126	0.000107
C191	C	1.061216	0.203208	0.333440
C192	C	1.394549	0.536541	0.666773
C193	C	0.624036	-0.115962	0.000087
C194	C	0.957369	0.217372	0.333420
C195	C	1.290703	0.550705	0.666754
C196	C	0.623324	-0.175361	0.000075
C197	C	0.956658	0.157972	0.333408
C198	C	1.289991	0.491305	0.666741
C199	C	0.674894	-0.212142	0.000072
C200	C	1.008227	0.121191	0.333405
C201	C	1.341560	0.454524	0.666738
C202	C	0.617499	-0.662428	0.000007
C203	C	0.950833	-0.329095	0.333340
C204	C	1.284166	0.004238	0.666673
C205	C	0.616793	-0.721830	0.000005
C206	C	0.950126	-0.388497	0.333339
C207	C	1.283459	-0.055164	0.666672
C208	C	0.720639	-0.735989	0.000021
C209	C	1.053972	-0.402656	0.333354
C210	C	1.387306	-0.069322	0.666687
C211	C	0.721346	-0.676592	0.000026
C212	C	1.054679	-0.343259	0.333360
C213	C	1.388013	-0.009926	0.666693
C214	C	0.669771	-0.639813	0.000017
C215	C	1.003105	-0.306479	0.333350
C216	C	1.336438	0.026854	0.666683
O217	O	0.766594	-0.588640	0.000066
O218	O	1.099927	-0.255307	0.333399
O219	O	1.433260	0.078026	0.666733
O220	O	0.574465	-0.562393	-0.000008
O221	O	0.907799	-0.229059	0.333325
O222	O	1.241132	0.104274	0.666658
C223	C	0.776487	0.069261	0.000069
C224	C	1.109820	0.402594	0.333403
C225	C	1.443154	0.735927	0.666736
C226	C	0.839706	0.070016	0.000071
C227	C	1.173039	0.403349	0.333404
C228	C	1.506372	0.736683	0.666738
C229	C	0.667592	0.178172	0.000027
C230	C	1.000925	0.511505	0.333361
C231	C	1.334258	0.844839	0.666694
C232	C	0.668358	0.241388	0.000009
C233	C	1.001691	0.574722	0.333343
C234	C	1.335025	0.908055	0.666676
N235	N	0.664801	0.081535	0.216391
N236	N	0.998134	0.414869	0.549724
N237	N	1.331468	0.748202	0.883058
N238	N	0.679878	0.066510	-0.216276
N239	N	1.013212	0.399843	0.117057
N240	N	1.346545	0.733176	0.450391
C241	C	0.702231	0.044127	0.260100
C242	C	1.035564	0.377460	0.593433
C243	C	1.368897	0.710794	0.926767
C244	C	0.699194	0.047164	0.347506
C245	C	1.032528	0.380498	0.680839
C246	C	1.365861	0.713831	1.014172
C247	C	0.658731	0.087613	0.391201
C248	C	0.992064	0.420947	0.724534
C249	C	1.325398	0.754280	1.057867
C250	C	0.621298	0.125023	0.347486
C251	C	0.954631	0.458357	0.680819
C252	C	1.287964	0.791690	1.014152
C253	C	0.624331	0.121983	0.260082
C254	C	0.957665	0.455316	0.593415
C255	C	1.290998	0.788649	0.926748
C256	C	0.645479	0.100879	0.652605
C257	C	0.978812	0.434212	0.985938
C258	C	1.312145	0.767546	1.319272
C259	C	0.642449	0.103918	0.740015
C260	C	0.975782	0.437251	1.073348
C261	C	1.309115	0.770585	1.406682
C262	C	0.720345	0.026058	0.740029
C263	C	1.053679	0.359391	1.073362
C264	C	1.387012	0.692725	1.406696
C265	C	0.723378	0.023023	0.652623
C266	C	1.056711	0.356356	0.985957
C267	C	1.390045	0.689690	1.319290
C268	C	0.685942	0.060431	0.608916
C269	C	1.019276	0.393764	0.942249
C270	C	1.352609	0.727098	1.275583
N271	N	0.655628	0.090720	0.480543
N272	N	0.988961	0.424054	0.813876
N273	N	1.322294	0.757387	1.147210
N274	N	0.689043	0.057321	0.519575
N275	N	1.022377	0.390654	0.852908
N276	N	1.355710	0.723988	1.186242
H277	H	-0.149997	0.065318	-0.137265
H278	H	0.183336	0.398651	0.196068
H279	H	0.516670	0.731985	0.529402
Br280	Br	0.111182	0.064351	-0.254072
Br281	Br	0.444515	0.397684	0.079261
Br282	Br	0.777849	0.731017	0.412595
Br283	Br	0.587532	0.158820	0.799310
Br284	Br	0.920865	0.492154	1.132644
Br285	Br	1.254198	0.825487	1.465977
H286	H	0.386916	0.081435	0.137376
H287	H	0.720250	0.414769	0.470710
H288	H	1.053583	0.748102	0.804043
Br289	Br	-0.024696	0.065370	-0.178375
Br290	Br	0.308637	0.398704	0.154958
Br291	Br	0.641970	0.732037	0.488291
Br292	Br	0.573528	0.172750	0.200762
Br293	Br	0.906861	0.506083	0.534096
Br294	Br	1.240195	0.839417	0.867429
Br295	Br	0.566377	0.179916	0.406783
Br296	Br	0.899711	0.513249	0.740116
Br297	Br	1.233044	0.846582	1.073449
Br298	Br	0.757152	-0.010767	0.200809
Br299	Br	1.090486	0.322566	0.534142
Br300	Br	1.423819	0.655900	0.867475
Br301	Br	0.251166	0.066035	-0.254078
Br302	Br	0.584499	0.399368	0.079255
Br303	Br	0.917833	0.732701	0.412588
Br304	Br	0.594676	0.151646	0.593292
Br305	Br	0.928009	0.484980	0.926626
Br306	Br	1.261343	0.818313	1.259959
H307	H	0.396467	0.071899	-0.137297
H308	H	0.729800	0.405232	0.196036
H309	H	1.063133	0.738566	0.529369
Br310	Br	0.771147	-0.024709	0.799349
Br311	Br	1.104480	0.308625	1.132682
Br312	Br	1.437814	0.641958	1.466016
Br313	Br	-0.037095	0.077774	0.178490
Br314	Br	0.296239	0.411108	0.511823
Br315	Br	0.629572	0.744441	0.845157
Br316	Br	0.509355	0.084370	0.178464
Br317	Br	0.842688	0.417703	0.511798
Br318	Br	1.176021	0.751036	0.845131
Br319	Br	0.521785	0.071970	-0.178387
Br320	Br	0.855119	0.405303	0.154946
Br321	Br	1.188452	0.738636	0.488280
H322	H	0.111042	0.080750	0.213076
H323	H	0.444376	0.414083	0.546410
H324	H	0.777709	0.747417	0.879743
Br325	Br	0.233480	0.083670	0.254175
Br326	Br	0.566813	0.417004	0.587508
Br327	Br	0.900147	0.750337	0.920842
Br328	Br	0.790617	-0.785917	0.000035
Br329	Br	1.123950	-0.452584	0.333368
Br330	Br	1.457283	-0.119251	0.666701
H331	H	0.817816	-0.499800	0.000027
H332	H	1.151150	-0.166467	0.333360
H333	H	1.484483	0.166867	0.666693
H334	H	0.580753	-0.193769	0.000071
H335	H	0.914086	0.139564	0.333405
H336	H	1.247419	0.472898	0.666738
H337	H	-0.159556	0.074852	0.137395
H338	H	0.173777	0.408186	0.470728
H339	H	0.507110	0.741519	0.804061
Br340	Br	0.547505	-0.612522	-0.000006
Br341	Br	0.880838	-0.279189	0.333327
Br342	Br	1.214172	0.054144	0.666661
Br343	Br	0.545836	-0.752517	-0.000001
Br344	Br	0.879169	-0.419183	0.333332
Br345	Br	1.212502	-0.085850	0.666665
Br346	Br	0.497179	-0.472192	0.000005
Br347	Br	0.830513	-0.138859	0.333338
Br348	Br	1.163846	0.194475	0.666672
H349	H	0.770454	-0.111719	0.000126
H350	H	1.103787	0.221615	0.333460
H351	H	1.437121	0.554948	0.666793
Br352	Br	0.749990	-0.003607	0.406828
Br353	Br	1.083324	0.329727	0.740161
Br354	Br	1.416657	0.663060	1.073494
Br355	Br	0.498855	-0.332207	0.000020
Br356	Br	0.832188	0.001126	0.333354
Br357	Br	1.165521	0.334460	0.666687
H358	H	0.582049	-0.086003	0.000084
H359	H	0.915382	0.247330	0.333418
H360	H	1.248715	0.580663	0.666751
Br361	Br	0.778295	-0.031870	0.593321
Br362	Br	1.111628	0.301464	0.926655
Br363	Br	1.444962	0.634797	1.259988
H364	H	0.769167	-0.219469	0.000092
H365	H	1.102500	0.113865	0.333425
H366	H	1.435833	0.447198	0.666759
H367	H	0.819110	-0.392050	0.000053
H368	H	1.152443	-0.058717	0.333386
H369	H	1.485776	0.274616	0.666719
H370	H	0.763917	-0.658179	0.000045
H371	H	1.097250	-0.324845	0.333378
H372	H	1.430583	0.008488	0.666712
