data_functionalizedCrystal
_audit_creation_method	'MofGen! by Chris Wilmer'
_symmetry_space_group_name_H-M	'P1'
_symmetry_Int_Tables_number	1
_symmetry_cell_setting	triclinic
loop_
_symmetry_equiv_pos_as_xyz
  x,y,z
_cell_length_a	19.121102
_cell_length_b	19.121063
_cell_length_c	16.625539
_cell_angle_alpha	92.410374
_cell_angle_beta	87.544243
_cell_angle_gamma	90.126902
loop_
_atom_site_label
_atom_site_type_symbol
_atom_site_fract_x
_atom_site_fract_y
_atom_site_fract_z
Zn1	Zn	1.059831	-0.324912	-0.523634
Zn2	Zn	1.309831	-0.074912	-0.273634
Zn3	Zn	1.559831	0.175088	-0.023634
Zn4	Zn	1.809831	0.425088	0.226366
Zn5	Zn	1.054741	-0.442148	-0.394284
Zn6	Zn	1.304741	-0.192148	-0.144284
Zn7	Zn	1.554741	0.057852	0.105716
Zn8	Zn	1.804741	0.307852	0.355716
Zn9	Zn	0.942598	-0.319923	-0.382837
Zn10	Zn	1.192598	-0.069923	-0.132837
Zn11	Zn	1.442598	0.180077	0.117163
Zn12	Zn	1.692598	0.430077	0.367163
Zn13	Zn	0.937556	-0.437102	-0.523095
Zn14	Zn	1.187556	-0.187102	-0.273095
Zn15	Zn	1.437556	0.062898	-0.023095
Zn16	Zn	1.687556	0.312898	0.226905
O17	O	0.998681	-0.381021	-0.455962
O18	O	1.248681	-0.131021	-0.205962
O19	O	1.498681	0.118979	0.044038
O20	O	1.748681	0.368979	0.294038
O21	O	1.157260	-0.344663	-0.511492
O22	O	1.407260	-0.094663	-0.261492
O23	O	1.657260	0.155337	-0.011492
O24	O	1.907260	0.405337	0.238508
O25	O	1.039846	-0.425959	-0.279933
O26	O	1.289846	-0.175959	-0.029933
O27	O	1.539846	0.074041	0.220067
O28	O	1.789846	0.324041	0.470067
O29	O	0.962390	-0.222482	-0.396949
O30	O	1.212390	0.027518	-0.146949
O31	O	1.462390	0.277518	0.103051
O32	O	1.712390	0.527518	0.353051
O33	O	1.153521	-0.430796	-0.416459
O34	O	1.403521	-0.180796	-0.166459
O35	O	1.653521	0.069204	0.083541
O36	O	1.903521	0.319204	0.333541
O37	O	1.048520	-0.226147	-0.500392
O38	O	1.298520	0.023853	-0.250392
O39	O	1.548520	0.273853	-0.000392
O40	O	1.798520	0.523853	0.249608
O41	O	0.957455	-0.336161	-0.271523
O42	O	1.207455	-0.086161	-0.021523
O43	O	1.457455	0.163839	0.228477
O44	O	1.707455	0.413839	0.478477
O45	O	0.843824	-0.331268	-0.396426
O46	O	1.093824	-0.081268	-0.146426
O47	O	1.343824	0.168732	0.103574
O48	O	1.593824	0.418732	0.353574
O49	O	0.953795	-0.422196	-0.635998
O50	O	1.203795	-0.172196	-0.385998
O51	O	1.453795	0.077804	-0.135998
O52	O	1.703795	0.327804	0.114002
O53	O	0.840120	-0.417359	-0.499473
O54	O	1.090120	-0.167359	-0.249473
O55	O	1.340120	0.082641	0.000527
O56	O	1.590120	0.332641	0.250527
O57	O	1.043630	-0.339770	-0.636395
O58	O	1.293630	-0.089770	-0.386395
O59	O	1.543630	0.160230	-0.136395
O60	O	1.793630	0.410230	0.113605
O61	O	1.034956	-0.539582	-0.415935
O62	O	1.284956	-0.289582	-0.165935
O63	O	1.534956	-0.039582	0.084065
O64	O	1.784956	0.210418	0.334065
O65	O	0.948860	-0.535875	-0.510572
O66	O	1.198860	-0.285875	-0.260572
O67	O	1.448860	-0.035875	-0.010572
O68	O	1.698860	0.214125	0.239428
C69	C	0.816535	-0.373225	-0.446649
C70	C	1.066535	-0.123225	-0.196649
C71	C	1.316535	0.126775	0.053351
C72	C	1.566535	0.376775	0.303351
C73	C	0.738611	-0.369906	-0.442684
C74	C	0.988611	-0.119906	-0.192684
C75	C	1.238611	0.130094	0.057316
C76	C	1.488611	0.380094	0.307316
C77	C	0.990828	-0.563167	-0.464456
C78	C	1.240828	-0.313167	-0.214456
C79	C	1.490828	-0.063167	0.035544
C80	C	1.740828	0.186833	0.285544
C81	C	0.987532	-0.641092	-0.468120
C82	C	1.237532	-0.391092	-0.218120
C83	C	1.487532	-0.141092	0.031880
C84	C	1.737532	0.108908	0.281880
C85	C	0.700088	-0.413238	-0.494395
C86	C	0.950088	-0.163238	-0.244395
C87	C	1.200088	0.086762	0.005605
C88	C	1.450088	0.336762	0.255605
C89	C	0.626871	-0.410111	-0.490674
C90	C	0.876871	-0.160111	-0.240674
C91	C	1.126871	0.089889	0.009326
C92	C	1.376871	0.339889	0.259326
C93	C	0.592177	-0.363655	-0.435237
C94	C	0.842177	-0.113655	-0.185237
C95	C	1.092177	0.136345	0.064763
C96	C	1.342177	0.386345	0.314763
C97	C	0.630704	-0.320319	-0.383524
C98	C	0.880704	-0.070319	-0.133524
C99	C	1.130704	0.179681	0.116476
C100	C	1.380704	0.429681	0.366476
C101	C	0.703921	-0.323443	-0.387250
C102	C	0.953921	-0.073443	-0.137250
C103	C	1.203921	0.176557	0.112750
C104	C	1.453921	0.426557	0.362750
C105	C	0.371207	-0.351973	-0.421310
C106	C	0.621207	-0.101973	-0.171310
C107	C	0.871207	0.148027	0.078690
C108	C	1.121207	0.398027	0.328690
C109	C	0.297985	-0.348853	-0.417586
C110	C	0.547985	-0.098853	-0.167586
C111	C	0.797985	0.151147	0.082414
C112	C	1.047985	0.401147	0.332414
C113	C	0.294157	-0.438644	-0.524738
C114	C	0.544157	-0.188644	-0.274738
C115	C	0.794157	0.061356	-0.024738
C116	C	1.044157	0.311356	0.225262
C117	C	0.367374	-0.441767	-0.528455
C118	C	0.617374	-0.191767	-0.278455
C119	C	0.867374	0.058233	-0.028455
C120	C	1.117374	0.308233	0.221545
C121	C	0.405896	-0.398429	-0.476745
C122	C	0.655896	-0.148429	-0.226745
C123	C	0.905896	0.101571	0.023255
C124	C	1.155896	0.351571	0.273255
C125	C	0.517337	-0.360459	-0.431430
C126	C	0.767337	-0.110459	-0.181430
C127	C	1.017337	0.139541	0.068570
C128	C	1.267337	0.389541	0.318570
C129	C	0.480735	-0.401622	-0.480557
C130	C	0.730735	-0.151622	-0.230557
C131	C	0.980735	0.098378	0.019443
C132	C	1.230735	0.348378	0.269443
C133	C	1.030844	-0.679610	-0.420613
C134	C	1.280844	-0.429610	-0.170613
C135	C	1.530844	-0.179610	0.079387
C136	C	1.780844	0.070390	0.329387
C137	C	1.027749	-0.752829	-0.424064
C138	C	1.277749	-0.502829	-0.174064
C139	C	1.527749	-0.252829	0.075936
C140	C	1.777749	-0.002829	0.325936
C141	C	0.981338	-0.787529	-0.475018
C142	C	1.231338	-0.537529	-0.225018
C143	C	1.481338	-0.287529	0.024982
C144	C	1.731338	-0.037529	0.274982
C145	C	0.938024	-0.749006	-0.522530
C146	C	1.188024	-0.499006	-0.272530
C147	C	1.438024	-0.249006	-0.022530
C148	C	1.688024	0.000994	0.227470
C149	C	0.941123	-0.675788	-0.519083
C150	C	1.191123	-0.425788	-0.269083
C151	C	1.441123	-0.175788	-0.019083
C152	C	1.691123	0.074212	0.230917
C153	C	0.969738	-1.008503	-0.487893
C154	C	1.219738	-0.758503	-0.237893
C155	C	1.469738	-0.508503	0.012107
C156	C	1.719738	-0.258503	0.262107
C157	C	0.966641	-1.081726	-0.491335
C158	C	1.216641	-0.831726	-0.241335
C159	C	1.466641	-0.581726	0.008665
C160	C	1.716641	-0.331726	0.258665
C161	C	1.056367	-1.085544	-0.392870
C162	C	1.306367	-0.835544	-0.142870
C163	C	1.556367	-0.585544	0.107130
C164	C	1.806367	-0.335544	0.357130
C165	C	1.059460	-1.012325	-0.389424
C166	C	1.309460	-0.762325	-0.139424
C167	C	1.559460	-0.512325	0.110576
C168	C	1.809460	-0.262325	0.360576
C169	C	1.016148	-0.973808	-0.436939
C170	C	1.266148	-0.723808	-0.186939
C171	C	1.516148	-0.473808	0.063061
C172	C	1.766148	-0.223808	0.313061
C173	C	0.978171	-0.862370	-0.478545
C174	C	1.228171	-0.612370	-0.228545
C175	C	1.478171	-0.362370	0.021455
C176	C	1.728171	-0.112370	0.271455
C177	C	1.019319	-0.898968	-0.433416
C178	C	1.269319	-0.648968	-0.183416
C179	C	1.519319	-0.398968	0.066584
C180	C	1.769319	-0.148968	0.316584
C181	C	1.181540	-0.388849	-0.465313
C182	C	1.431540	-0.138849	-0.215313
C183	C	1.681540	0.111151	0.034687
C184	C	1.931540	0.361151	0.284687
C185	C	1.259463	-0.392184	-0.469297
C186	C	1.509463	-0.142184	-0.219297
C187	C	1.759463	0.107816	0.030703
C188	C	2.009463	0.357816	0.280703
C189	C	0.998718	-0.380977	-0.666271
C190	C	1.248718	-0.130977	-0.416271
C191	C	1.498718	0.119023	-0.166271
C192	C	1.748718	0.369023	0.083729
C193	C	0.998733	-0.380958	-0.755892
C194	C	1.248733	-0.130958	-0.505892
C195	C	1.498733	0.119042	-0.255892
C196	C	1.748733	0.369042	-0.005892
C197	C	1.006585	-0.198166	-0.447454
C198	C	1.256585	0.051834	-0.197454
C199	C	1.506585	0.301834	0.052546
C200	C	1.756585	0.551834	0.302546
C201	C	1.009953	-0.120244	-0.443828
C202	C	1.259953	0.129756	-0.193828
C203	C	1.509953	0.379756	0.056172
C204	C	1.759953	0.629756	0.306172
C205	C	0.998745	-0.380943	-0.828674
C206	C	1.248745	-0.130943	-0.578674
C207	C	1.498745	0.119057	-0.328674
C208	C	1.748745	0.369057	-0.078674
C209	C	0.998763	-0.380917	-0.919982
C210	C	1.248763	-0.130917	-0.669982
C211	C	1.498763	0.119083	-0.419982
C212	C	1.748763	0.369083	-0.169982
C213	C	0.998780	-0.380893	-0.992759
C214	C	1.248780	-0.130893	-0.742759
C215	C	1.498780	0.119107	-0.492759
C216	C	1.748780	0.369107	-0.242759
C217	C	0.998799	-0.380869	-1.084073
C218	C	1.248799	-0.130869	-0.834073
C219	C	1.498799	0.119131	-0.584073
C220	C	1.748799	0.369131	-0.334073
C221	C	0.998688	-0.381017	-0.246472
C222	C	1.248688	-0.131017	0.003528
C223	C	1.498688	0.118983	0.253528
C224	C	1.748688	0.368983	0.503528
C225	C	0.998817	-0.380845	-0.156849
C226	C	1.248817	-0.130845	0.093151
C227	C	1.498817	0.119155	0.343151
C228	C	1.748817	0.369155	0.593151
H229	H	0.728331	-0.451070	-0.539535
H230	H	0.978331	-0.201070	-0.289535
H231	H	1.228331	0.048930	-0.039535
H232	H	1.478331	0.298930	0.210465
Br233	Br	0.574593	-0.468919	-0.560858
Br234	Br	0.824593	-0.218919	-0.310858
Br235	Br	1.074593	0.031081	-0.060858
Br236	Br	1.324593	0.281081	0.189142
Br237	Br	0.250900	-0.285809	-0.342337
Br238	Br	0.500900	-0.035809	-0.092337
Br239	Br	0.750900	0.214191	0.157663
Br240	Br	1.000900	0.464191	0.407663
H241	H	0.940381	-0.890631	-0.520030
H242	H	1.190381	-0.640631	-0.270030
H243	H	1.440381	-0.390631	-0.020030
H244	H	1.690381	-0.140631	0.229970
H245	H	0.934471	-0.977148	-0.526580
H246	H	1.184471	-0.727148	-0.276580
H247	H	1.434471	-0.477148	-0.026580
H248	H	1.684471	-0.227148	0.223420
H249	H	0.508986	-0.439443	-0.525696
H250	H	0.758986	-0.189443	-0.275696
H251	H	1.008986	0.060557	-0.025696
H252	H	1.258986	0.310557	0.224304
Br253	Br	0.875042	-0.796097	-0.591690
Br254	Br	1.125042	-0.546097	-0.341690
Br255	Br	1.375042	-0.296097	-0.091690
Br256	Br	1.625042	-0.046097	0.158310
H257	H	0.262785	-0.473927	-0.566838
H258	H	0.512785	-0.223927	-0.316838
H259	H	0.762785	0.026073	-0.066838
H260	H	1.012785	0.276073	0.183162
H261	H	1.063018	-0.784187	-0.385379
H262	H	1.313018	-0.534187	-0.135379
H263	H	1.563018	-0.284187	0.114621
H264	H	1.813018	-0.034187	0.364621
Br265	Br	0.583621	-0.257264	-0.308295
Br266	Br	0.833621	-0.007264	-0.058295
Br267	Br	1.083621	0.242736	0.191705
Br268	Br	1.333621	0.492736	0.441705
H269	H	1.097251	-0.984074	-0.347933
H270	H	1.347251	-0.734074	-0.097933
H271	H	1.597251	-0.484074	0.152067
H272	H	1.847251	-0.234074	0.402067
Br273	Br	0.882344	-0.623513	-0.583564
Br274	Br	1.132344	-0.373513	-0.333564
Br275	Br	1.382344	-0.123513	-0.083564
Br276	Br	1.632344	0.126487	0.166436
H277	H	0.402562	-0.316688	-0.379198
H278	H	0.652562	-0.066688	-0.129198
H279	H	0.902562	0.183312	0.120802
H280	H	1.152562	0.433312	0.370802
Br281	Br	1.115147	-1.137820	-0.328393
Br282	Br	1.365147	-0.887820	-0.078393
Br283	Br	1.615147	-0.637820	0.171607
Br284	Br	1.865147	-0.387820	0.421607
H285	H	0.735285	-0.288154	-0.345146
H286	H	0.985285	-0.038154	-0.095146
H287	H	1.235285	0.211846	0.154854
H288	H	1.485285	0.461846	0.404854
H289	H	0.928855	-1.109976	-0.532842
H290	H	1.178855	-0.859976	-0.282842
H291	H	1.428855	-0.609976	-0.032842
H292	H	1.678855	-0.359976	0.217158
Br293	Br	0.414454	-0.504821	-0.603689
Br294	Br	0.664454	-0.254821	-0.353689
Br295	Br	0.914454	-0.004821	-0.103689
Br296	Br	1.164454	0.245179	0.146311
H297	H	1.057110	-0.870714	-0.391932
H298	H	1.307110	-0.620714	-0.141932
H299	H	1.557110	-0.370714	0.108068
H300	H	1.807110	-0.120714	0.358068
H301	H	0.489081	-0.322636	-0.386291
H302	H	0.739081	-0.072636	-0.136291
H303	H	0.989081	0.177364	0.113709
H304	H	1.239081	0.427364	0.363709
Br305	Br	1.093828	-0.632524	-0.351451
Br306	Br	1.343828	-0.382524	-0.101451
Br307	Br	1.593828	-0.132524	0.148549
Br308	Br	1.843828	0.117476	0.398549
