data_functionalizedCrystal
_audit_creation_method	'MofGen! by Chris Wilmer'
_symmetry_space_group_name_H-M	'P1'
_symmetry_Int_Tables_number	1
_symmetry_cell_setting	triclinic
loop_
_symmetry_equiv_pos_as_xyz
  x,y,z
_cell_length_a	17.699077
_cell_length_b	14.853567
_cell_length_c	13.930277
_cell_angle_alpha	89.997891
_cell_angle_beta	90.004237
_cell_angle_gamma	83.457753
loop_
_atom_site_label
_atom_site_type_symbol
_atom_site_fract_x
_atom_site_fract_y
_atom_site_fract_z
O1	O	1.004375	0.113976	0.079810
O2	O	1.504375	0.613976	0.579810
O3	O	0.784035	0.128815	0.079814
O4	O	1.284035	0.628815	0.579814
O5	O	0.900091	-0.009856	0.079815
O6	O	1.400091	0.490144	0.579815
O7	O	0.888319	0.252647	0.079809
O8	O	1.388319	0.752647	0.579809
O9	O	0.900079	-0.009852	-0.079847
O10	O	1.400079	0.490148	0.420153
O11	O	0.784023	0.128819	-0.079848
O12	O	1.284023	0.628819	0.420152
O13	O	1.004364	0.113980	-0.079852
O14	O	1.504364	0.613980	0.420148
Zn15	Zn	0.894192	0.121400	-0.105200
Zn16	Zn	1.394192	0.621400	0.394800
Zn17	Zn	0.894207	0.121395	0.105162
Zn18	Zn	1.394207	0.621395	0.605162
O19	O	0.888308	0.252651	-0.079853
O20	O	1.388308	0.752651	0.420147
C21	C	0.755830	0.128286	-0.000017
C22	C	1.255830	0.628286	0.499983
C23	C	0.671808	0.126694	-0.000015
C24	C	1.171808	0.626694	0.499985
C25	C	0.632332	0.125945	-0.087047
C26	C	1.132332	0.625945	0.412953
C27	C	0.553386	0.124435	-0.087048
C28	C	1.053386	0.624435	0.412952
C29	C	0.513916	0.123679	-0.000016
C30	C	1.013916	0.623679	0.499984
C31	C	0.553397	0.124424	0.087024
C32	C	1.053397	0.624424	0.587024
C33	C	0.632343	0.125928	0.087024
C34	C	1.132343	0.625928	0.587024
C35	C	0.235018	0.118357	0.087026
C36	C	0.735018	0.618357	0.587026
C37	C	0.156067	0.116856	0.087019
C38	C	0.656067	0.616856	0.587019
C39	C	0.156061	0.116864	-0.087046
C40	C	0.656061	0.616864	0.412954
C41	C	0.235007	0.118368	-0.087047
C42	C	0.735007	0.618368	0.412953
C43	C	0.274482	0.119108	-0.000008
C44	C	0.774482	0.619108	0.499992
C45	C	0.360085	0.120745	-0.000008
C46	C	0.860085	0.620745	0.499992
C47	C	0.428314	0.122049	-0.000015
C48	C	0.928314	0.622049	0.499985
C49	C	0.899551	-0.043441	-0.000013
C50	C	1.399551	0.456559	0.499987
C51	C	0.897953	-0.143519	-0.000005
C52	C	1.397953	0.356481	0.499995
C53	C	0.822257	-0.555772	-0.000022
C54	C	1.322257	-0.055772	0.499978
C55	C	0.960134	-0.577564	-0.000024
C56	C	1.460134	-0.077564	0.499976
C57	C	0.961637	-0.483536	-0.000019
C58	C	1.461637	0.016464	0.499981
C59	C	0.893449	-0.425621	-0.000016
C60	C	1.393449	0.074379	0.499984
C61	C	0.823758	-0.461735	-0.000019
C62	C	1.323758	0.038265	0.499981
C63	C	1.031327	-0.447415	-0.000025
C64	C	1.531327	0.052585	0.499975
C65	C	1.032832	-0.353382	-0.000021
C66	C	1.532832	0.146618	0.499979
C67	C	0.964643	-0.295465	-0.000011
C68	C	1.464643	0.204535	0.499989
C69	C	0.894950	-0.331584	-0.000013
C70	C	1.394950	0.168416	0.499987
C71	C	0.826761	-0.273669	-0.000011
C72	C	1.326761	0.226331	0.499989
C73	C	0.757067	-0.309786	-0.000006
C74	C	1.257067	0.190214	0.499994
C75	C	0.755569	-0.403818	-0.000010
C76	C	1.255569	0.096182	0.499990
C77	C	0.966141	-0.201433	-0.000008
C78	C	1.466141	0.298567	0.499992
C79	C	0.828262	-0.179632	-0.000008
C80	C	1.328262	0.320368	0.499992
C81	C	1.032568	0.114509	-0.000019
C82	C	1.532568	0.614509	0.499981
C83	C	1.116590	0.116101	-0.000015
C84	C	1.616590	0.616101	0.499985
C85	C	0.888847	0.286236	-0.000022
C86	C	1.388847	0.786236	0.499978
C87	C	0.890445	0.386313	-0.000025
C88	C	1.390445	0.886313	0.499975
N89	N	0.894187	0.121403	-0.248766
N90	N	1.394187	0.621403	0.251234
C91	C	0.842790	0.182788	-0.299029
C92	C	1.342790	0.682788	0.200971
C93	C	0.945588	0.060015	-0.299007
C94	C	1.445588	0.560015	0.200993
C95	C	0.945596	0.060011	-0.399503
C96	C	1.445596	0.560011	0.100497
C97	C	0.894200	0.121396	-0.449766
C98	C	1.394200	0.621396	0.050234
C99	C	0.842795	0.182784	-0.399534
C100	C	1.342795	0.682784	0.100466
C101	C	0.996995	-0.001382	-0.449742
C102	C	1.496995	0.498618	0.050258
C103	C	0.997004	-0.001389	-0.550244
C104	C	1.497004	0.498611	-0.050244
C105	C	0.945611	0.060001	-0.600510
C106	C	1.445611	0.560001	-0.100510
C107	C	0.894205	0.121392	-0.550272
C108	C	1.394205	0.621392	-0.050272
C109	C	0.842808	0.182777	-0.600535
C110	C	1.342808	0.682777	-0.100535
C111	C	0.791405	0.244173	-0.550299
C112	C	1.291405	0.744173	-0.050299
C113	C	0.791402	0.244174	-0.449800
C114	C	1.291402	0.744174	0.050200
C115	C	0.945614	0.060000	-0.701009
C116	C	1.445614	0.560000	-0.201009
C117	C	0.842813	0.182773	-0.701040
C118	C	1.342813	0.682773	-0.201040
N119	N	0.894218	0.121385	0.248728
N120	N	1.394218	0.621385	0.748728
H121	H	0.521255	0.123803	0.157887
H122	H	1.021255	0.623803	0.657887
O123	O	0.670558	0.126636	-0.171679
O124	O	1.170558	0.626636	0.328321
C125	C	0.618781	0.125672	-0.248495
C126	C	1.118781	0.625672	0.251505
H127	H	0.565612	0.096070	-0.222976
H128	H	1.065612	0.596070	0.277024
H129	H	0.646347	0.082354	-0.309365
H130	H	1.146347	0.582354	0.190635
H131	H	0.602514	0.197810	-0.275260
H132	H	1.102514	0.697810	0.224740
H133	H	0.267139	0.118988	-0.157918
H134	H	0.767139	0.618988	0.342082
H135	H	0.987462	0.010008	-0.741906
H136	H	1.487462	0.510008	-0.241906
O137	O	0.792780	0.242313	-0.749821
O138	O	1.292780	0.742313	-0.249821
C139	C	0.717845	0.227795	-0.725250
C140	C	1.217845	0.727795	-0.225250
H141	H	0.717397	0.155617	-0.697613
H142	H	1.217397	0.655617	-0.197613
H143	H	0.679874	0.238221	-0.791347
H144	H	1.179874	0.738221	-0.291347
H145	H	0.695668	0.277806	-0.666923
H146	H	1.195668	0.777806	-0.166923
H147	H	0.267150	0.118958	0.157898
H148	H	0.767150	0.618958	0.657898
H149	H	0.698827	-0.433234	-0.000007
H150	H	1.198827	0.066766	0.499993
H151	H	0.664483	0.126539	0.157895
H152	H	1.164483	0.626539	0.657895
O153	O	0.754625	-0.591000	-0.000061
O154	O	1.254625	-0.091000	0.499939
C155	C	0.767915	-0.686414	-0.000035
C156	C	1.267915	-0.186414	0.499965
H157	H	0.826954	-0.708626	-0.030263
H158	H	1.326954	-0.208626	0.469737
H159	H	0.723312	-0.715187	-0.046386
H160	H	1.223312	-0.215187	0.453614
H161	H	0.764227	-0.712583	0.076564
H162	H	1.264227	-0.212583	0.576564
H163	H	0.772734	-0.132483	-0.000002
H164	H	1.272734	0.367517	0.499998
H165	H	0.701548	-0.262620	-0.000011
H166	H	1.201548	0.237380	0.499989
O167	O	0.741374	0.303709	-0.599088
O168	O	1.241374	0.803709	-0.099088
C169	C	0.666437	0.289191	-0.574523
C170	C	1.166437	0.789191	-0.074523
H171	H	0.665989	0.217017	-0.546876
H172	H	1.165989	0.717017	-0.046876
H173	H	0.628471	0.299607	-0.640626
H174	H	1.128471	0.799607	-0.140626
H175	H	0.644255	0.339210	-0.516205
H176	H	1.144255	0.839210	-0.016205
O177	O	0.515029	0.123541	-0.171571
O178	O	1.015029	0.623541	0.328429
C179	C	0.477852	0.044626	-0.176770
C180	C	0.977852	0.544626	0.323230
H181	H	0.507583	-0.009467	-0.127371
H182	H	1.007583	0.490533	0.372629
H183	H	0.479816	0.018408	-0.253745
H184	H	0.979816	0.518408	0.246255
H185	H	0.416098	0.061124	-0.153401
H186	H	0.916098	0.561124	0.346599
O187	O	0.117812	0.116014	-0.171661
O188	O	0.617812	0.616014	0.328339
C189	C	0.145586	0.038326	-0.224598
C190	C	0.645586	0.538326	0.275402
H191	H	0.205739	0.013398	-0.199847
H192	H	0.705739	0.513398	0.300153
H193	H	0.146375	0.055936	-0.304219
H194	H	0.646375	0.555936	0.195781
H195	H	0.107105	-0.017176	-0.212538
H196	H	0.607105	0.482824	0.287462
O197	O	1.046890	-0.060865	-0.400705
O198	O	1.546890	0.439135	0.099295
C199	C	1.006436	-0.116446	-0.342432
C200	C	1.506436	0.383554	0.157568
H201	H	0.947176	-0.080607	-0.327496
H202	H	1.447176	0.419393	0.172504
H203	H	1.038012	-0.130463	-0.271711
H204	H	1.538012	0.369537	0.228289
H205	H	1.001408	-0.183213	-0.380965
H206	H	1.501408	0.316787	0.119035
O207	O	0.117846	0.116079	0.171654
O208	O	0.617846	0.616079	0.671654
C209	C	0.169613	0.117077	0.248477
C210	C	0.669613	0.617077	0.748477
H211	H	0.228992	0.089617	0.222967
H212	H	0.728992	0.589617	0.722967
H213	H	0.151563	0.072885	0.309344
H214	H	0.651563	0.572885	0.809344
H215	H	0.170143	0.189532	0.275244
H216	H	0.670143	0.689532	0.775244
H217	H	1.022885	-0.172031	-0.000018
H218	H	1.522885	0.327969	0.499982
O219	O	1.046970	-0.060897	-0.599146
O220	O	1.546970	0.439103	-0.099146
C221	C	1.093728	-0.012686	-0.657250
C222	C	1.593728	0.487314	-0.157250
H223	H	1.063658	0.057907	-0.672314
H224	H	1.563658	0.557907	-0.172314
H225	H	1.105668	-0.050334	-0.727919
H226	H	1.605668	0.449666	-0.227919
H227	H	1.149665	-0.006649	-0.618505
H228	H	1.649665	0.493351	-0.118505
H229	H	1.015650	-0.624723	-0.000034
H230	H	1.515650	-0.124723	0.499966
H231	H	0.800941	0.232778	-0.258125
H232	H	1.300941	0.732778	0.241875
O233	O	1.097538	-0.503711	0.000138
O234	O	1.597538	-0.003711	0.500138
C235	C	1.100792	-0.558774	0.082816
C236	C	1.600792	-0.058774	0.582816
H237	H	1.062134	-0.524250	0.140616
H238	H	1.562134	-0.024250	0.640616
H239	H	1.161750	-0.569491	0.110565
H240	H	1.661750	-0.069491	0.610565
H241	H	1.081123	-0.627106	0.064123
H242	H	1.581123	-0.127106	0.564123
H243	H	1.089582	-0.323984	-0.000023
H244	H	1.589582	0.176016	0.499977
H245	H	0.749551	0.294160	-0.408891
H246	H	1.249551	0.794160	0.091109
H247	H	0.987430	0.010033	-0.258079
H248	H	1.487430	0.510033	0.241921
