data_functionalizedCrystal
_audit_creation_method	'MofGen! by Chris Wilmer'
_symmetry_space_group_name_H-M	'P1'
_symmetry_Int_Tables_number	1
_symmetry_cell_setting	triclinic
loop_
_symmetry_equiv_pos_as_xyz
  x,y,z
_cell_length_a	19.188925
_cell_length_b	17.666332
_cell_length_c	12.837942
_cell_angle_alpha	89.996283
_cell_angle_beta	88.985744
_cell_angle_gamma	89.993057
loop_
_atom_site_label
_atom_site_type_symbol
_atom_site_fract_x
_atom_site_fract_y
_atom_site_fract_z
O1	O	0.935021	-0.062964	0.129351
O2	O	1.435021	0.437036	0.629351
O3	O	0.732904	-0.062962	0.146773
O4	O	1.232904	0.437038	0.646773
O5	O	0.829481	-0.062959	-0.012820
O6	O	1.329481	0.437041	0.487180
O7	O	0.838444	-0.062968	0.288944
O8	O	1.338444	0.437032	0.788944
O9	O	0.829468	0.062938	-0.012824
O10	O	1.329468	0.562938	0.487176
O11	O	0.732891	0.062934	0.146770
O12	O	1.232891	0.562934	0.646770
O13	O	0.935008	0.062932	0.129347
O14	O	1.435008	0.562932	0.629347
Cu15	Cu	0.833949	0.074429	0.138058
Cu16	Cu	1.333949	0.574429	0.638058
Cu17	Cu	0.833964	-0.074459	0.138062
Cu18	Cu	1.333964	0.425541	0.638062
O19	O	0.838431	0.062929	0.288941
O20	O	1.338431	0.562929	0.788941
C21	C	0.706848	-0.000014	0.146208
C22	C	1.206848	0.499986	0.646208
C23	C	0.629227	-0.000013	0.144517
C24	C	1.129227	0.499987	0.644517
N25	N	0.833943	0.179148	0.138054
N26	N	1.333943	0.679148	0.638054
C27	C	0.073103	-0.000017	0.226840
C28	C	0.573103	0.499983	0.726840
C29	C	0.146036	-0.000021	0.228437
C30	C	0.646036	0.499979	0.728437
C31	C	0.184548	-0.000017	0.134793
C32	C	0.684548	0.499983	0.634793
C33	C	0.150121	-0.000028	0.039544
C34	C	0.650121	0.499972	0.539544
C35	C	0.077189	-0.000031	0.037949
C36	C	0.577189	0.499969	0.537949
N37	N	0.300571	0.042841	0.066997
N38	N	0.800571	0.542841	0.566997
N39	N	0.369852	0.042846	0.068519
N40	N	0.869852	0.542846	0.568519
C41	C	0.404286	-0.000008	0.139593
C42	C	0.904286	0.499992	0.639593
N43	N	0.366821	-0.042858	0.209104
N44	N	0.866821	0.457142	0.709104
N45	N	0.297533	-0.042860	0.207586
N46	N	0.797533	0.457140	0.707586
C47	C	0.263630	-0.000014	0.136512
C48	C	0.763630	0.499986	0.636512
C49	C	0.517787	-0.000007	0.236569
C50	C	1.017787	0.499993	0.736569
C51	C	0.590721	-0.000016	0.238163
C52	C	1.090721	0.499984	0.738163
C53	C	0.594804	-0.000015	0.049266
C54	C	1.094804	0.499985	0.549266
C55	C	0.521871	-0.000014	0.047675
C56	C	1.021871	0.499986	0.547675
C57	C	0.483367	-0.000006	0.141329
C58	C	0.983367	0.499994	0.641329
C59	C	0.876738	0.781200	0.067411
C60	C	1.376738	1.281200	0.567411
C61	C	0.876740	0.701952	0.067413
C62	C	1.376740	1.201952	0.567413
C63	C	0.833962	0.662330	0.138054
C64	C	1.333962	1.162330	0.638054
C65	C	0.791192	0.701961	0.208716
C66	C	1.291192	1.201961	0.708716
C67	C	0.791197	0.781207	0.208719
C68	C	1.291197	1.281207	0.708719
N69	N	0.773071	0.537917	0.151486
N70	N	1.273071	1.037917	0.651486
N71	N	0.773068	0.462637	0.151477
N72	N	1.273068	0.962637	0.651477
C73	C	0.833946	0.423566	0.138052
C74	C	1.333946	0.923566	0.638052
N75	N	0.894826	0.462619	0.124616
N76	N	1.394826	0.962619	0.624616
N77	N	0.894828	0.537906	0.124619
N78	N	1.394828	1.037906	0.624619
C79	C	0.833952	0.576401	0.138060
C80	C	1.333952	1.076401	0.638060
C81	C	0.876718	0.298014	0.067402
C82	C	1.376718	0.798014	0.567402
C83	C	0.876721	0.218765	0.067411
C84	C	1.376721	0.718765	0.567411
C85	C	0.791167	0.218776	0.208710
C86	C	1.291167	0.718776	0.708710
C87	C	0.791170	0.298023	0.208705
C88	C	1.291170	0.798023	0.708705
C89	C	0.833945	0.337638	0.138046
C90	C	1.333945	0.837638	0.638046
C91	C	0.961064	-0.000018	0.129912
C92	C	1.461064	0.499982	0.629912
C93	C	1.038685	-0.000024	0.131603
C94	C	1.538685	0.499976	0.631603
N95	N	0.833971	0.820822	0.138060
N96	N	1.333971	1.320822	0.638060
C97	C	0.826446	-0.000011	-0.051429
C98	C	1.326446	0.499989	0.448571
C99	C	0.817415	-0.000012	-0.166465
C100	C	1.317415	0.499988	0.333535
C101	C	0.925983	-0.000029	-0.407919
C102	C	1.425983	0.499971	0.092081
C103	C	0.917501	-0.000030	-0.516006
C104	C	1.417501	0.499970	-0.016006
C105	C	0.791970	-0.000021	-0.490728
C106	C	1.291970	0.499979	0.009272
C107	C	0.800452	-0.000020	-0.382641
C108	C	1.300452	0.499980	0.117359
C109	C	0.867461	-0.000022	-0.341241
C110	C	1.367461	0.499978	0.158759
C111	C	0.875942	-0.000016	-0.233151
C112	C	1.375942	0.499984	0.266849
C113	C	0.750411	-0.000012	-0.207876
C114	C	1.250411	0.499988	0.292124
C115	C	0.741929	-0.000013	-0.315963
C116	C	1.241929	0.499987	0.184037
C117	C	0.841466	-0.000021	0.327549
C118	C	1.341466	0.499979	0.827549
C119	C	0.850497	-0.000025	0.442585
C120	C	1.350497	0.499975	0.942585
H121	H	0.041758	-0.000015	0.303100
H122	H	0.541758	0.499985	0.803100
N123	N	0.476250	-0.000015	0.337573
N124	N	0.976250	0.499985	0.837573
H125	H	0.445894	0.046655	0.341124
H126	H	0.945894	0.546655	0.841124
H127	H	0.509168	-0.000048	0.398092
H128	H	1.009168	0.499952	0.898092
H129	H	0.930504	-0.000015	-0.199445
H130	H	1.430504	0.499985	0.300555
N131	N	0.745030	0.340764	0.284889
N132	N	1.245030	0.840764	0.784889
H133	H	0.757954	0.326967	0.358413
H134	H	1.257954	0.826967	0.858413
H135	H	0.694716	0.326962	0.273037
H136	H	1.194716	0.826962	0.773037
N137	N	0.627848	-0.000023	0.340887
N138	N	1.127848	0.499977	0.840887
H139	H	0.592386	-0.000019	0.399970
H140	H	1.092386	0.499981	0.899970
H141	H	0.658017	0.046646	0.345661
H142	H	1.158017	0.546646	0.845661
H143	H	0.911550	0.186504	0.009884
H144	H	1.411550	0.686504	0.509884
H145	H	0.756363	0.669696	0.266235
H146	H	1.256363	1.169696	0.766235
N147	N	0.183171	-0.000015	0.331160
N148	N	0.683171	0.499985	0.831160
H149	H	0.147712	-0.000012	0.390246
H150	H	0.647712	0.499988	0.890246
H151	H	0.213334	0.046659	0.335922
H152	H	0.713334	0.546659	0.835922
H153	H	0.049166	-0.000037	-0.039607
H154	H	0.549166	0.499963	0.460393
H155	H	0.687373	-0.000014	-0.349687
H156	H	1.187373	0.499986	0.150313
H157	H	0.181481	-0.000027	-0.036702
H158	H	0.681481	0.499973	0.463298
H159	H	0.626159	-0.000017	-0.026981
H160	H	1.126159	0.499983	0.473019
N161	N	0.484742	-0.000015	-0.055045
N162	N	0.984742	0.499985	0.444955
H163	H	0.520204	-0.000012	-0.114128
H164	H	1.020204	0.499988	0.385872
H165	H	0.454565	0.046656	-0.059823
H166	H	0.954565	0.546656	0.440177
N167	N	0.980623	-0.000025	-0.587921
N168	N	1.480623	0.499975	-0.087921
H169	H	0.965084	-0.000024	-0.662678
H170	H	1.465084	0.499976	-0.162678
H171	H	1.009518	-0.046697	-0.574544
H172	H	1.509518	0.453303	-0.074544
H173	H	0.737414	-0.000027	-0.524456
H174	H	1.237414	0.499973	-0.024456
N175	N	0.998252	-0.000020	-0.363256
N176	N	1.498252	0.499980	0.136744
H177	H	1.034040	-0.000020	-0.421898
H178	H	1.534040	0.499980	0.078102
H179	H	1.004512	-0.046690	-0.318954
H180	H	1.504512	0.453310	0.181046
N181	N	0.687287	-0.000011	-0.135956
N182	N	1.187287	0.499989	0.364044
H183	H	0.643552	-0.000009	-0.178588
H184	H	1.143552	0.499991	0.321412
H185	H	0.688070	0.046663	-0.090568
H186	H	1.188070	0.546663	0.409432
N187	N	0.922896	0.823927	-0.008763
N188	N	1.422896	1.323927	0.491237
H189	H	0.949998	0.786796	-0.053507
H190	H	1.449998	1.286796	0.446493
H191	H	0.956389	0.856782	0.030831
H192	H	1.456389	1.356782	0.530831
H193	H	0.911567	0.669686	0.009881
H194	H	1.411567	1.169686	0.509881
H195	H	0.911550	0.330270	0.009870
H196	H	1.411550	0.830270	0.509870
H197	H	0.756370	0.813468	0.266251
H198	H	1.256370	1.313468	0.766251
N199	N	0.745032	0.176052	0.284911
N200	N	1.245032	0.676052	0.784911
H201	H	0.751519	0.119836	0.274193
H202	H	1.251519	0.619836	0.774193
H203	H	0.694720	0.189912	0.273128
H204	H	1.194720	0.689912	0.773128
