data_functionalizedCrystal
_audit_creation_method	'MofGen! by Chris Wilmer'
_symmetry_space_group_name_H-M	'P1'
_symmetry_Int_Tables_number	1
_symmetry_cell_setting	triclinic
loop_
_symmetry_equiv_pos_as_xyz
  x,y,z
_cell_length_a	6.817900
_cell_length_b	19.551823
_cell_length_c	14.125465
_cell_angle_alpha	96.298245
_cell_angle_beta	100.398878
_cell_angle_gamma	101.663376
loop_
_atom_site_label
_atom_site_type_symbol
_atom_site_fract_x
_atom_site_fract_y
_atom_site_fract_z
V1	V	-3.982343	-0.096074	-0.300423
O2	O	-3.979997	0.005234	-0.294242
O3	O	-3.925224	-0.191092	-0.298814
O4	O	-3.918648	-0.094325	-0.431245
O5	O	-3.986618	-0.092203	-0.160894
V6	V	-4.469083	-0.083988	-0.283680
O7	O	-4.236546	-0.122585	-0.337151
O8	O	-4.665077	-0.057477	-0.246953
O9	O	-4.302995	0.011030	-0.285290
O10	O	-4.588825	-0.185296	-0.289862
O11	O	-4.582204	-0.087859	-0.423210
O12	O	-4.309571	-0.085737	-0.152859
C13	C	-3.768599	-0.214264	-0.294190
C14	C	-3.803082	-0.291941	-0.293746
C15	C	-3.760210	-0.090827	-0.463118
C16	C	-3.789359	-0.090026	-0.570068
C17	C	-4.000485	-0.331978	-0.298348
C18	C	-4.032890	-0.404965	-0.297941
C19	C	-3.867873	-0.437910	-0.292911
C20	C	-3.670443	-0.397865	-0.288314
C21	C	-3.638048	-0.324880	-0.288731
C22	C	-3.761777	-0.544520	-0.231903
C23	C	-3.794177	-0.617502	-0.231480
C24	C	-3.967785	-0.663018	-0.291629
C25	C	-4.109018	-0.635542	-0.352189
C26	C	-4.076622	-0.562558	-0.352606
C27	C	-3.902980	-0.517049	-0.292459
C28	C	-4.200338	-0.782196	-0.295791
C29	C	-4.232737	-0.855185	-0.295390
C30	C	-3.870282	-0.848082	-0.285753
C31	C	-3.837891	-0.775096	-0.286164
C32	C	-4.002925	-0.742157	-0.291179
C33	C	-3.842786	-0.088557	-0.765884
C34	C	-4.028008	-0.091504	-0.818219
C35	C	-4.057738	-0.090686	-0.927178
C36	C	-3.813049	-0.089374	-0.656916
C37	C	-4.122962	0.034198	-0.289912
C38	C	-4.067716	0.111875	-0.290362
C39	C	-4.131351	-0.089237	-0.120981
C40	C	-4.081442	-0.090035	-0.014030
H41	H	-4.193644	-0.437568	-0.301689
O42	O	-3.662504	-0.084529	-0.815033
H43	H	-3.594924	-0.130879	-0.803942
H44	H	-4.134874	-0.305164	-0.302438
O45	O	-4.228917	-0.532925	-0.417937
H46	H	-4.381162	-0.547351	-0.398636
O47	O	-4.296282	-0.684620	-0.417074
H48	H	-4.248044	-0.722204	-0.467961
O49	O	-4.378327	-0.746662	-0.301222
H50	H	-4.521052	-0.786770	-0.304374
O51	O	-4.445660	-0.898372	-0.300348
H52	H	-4.554960	-0.863201	-0.303893
O53	O	-4.208482	-0.095663	-0.769176
H54	H	-4.276298	-0.049361	-0.780247
H55	H	-3.735923	-0.874906	-0.281664
H56	H	-3.679183	-0.639867	-0.182163
O57	O	-3.624971	-0.731906	-0.281194
H58	H	-3.522664	-0.736877	-0.212887
H59	H	-3.620390	-0.507466	-0.182926
H60	H	-3.536088	-0.424694	-0.284221
H61	H	-3.477296	-0.292283	-0.284984
