data_functionalizedCrystal
_audit_creation_method	'MofGen! by Chris Wilmer'
_symmetry_space_group_name_H-M	'P1'
_symmetry_Int_Tables_number	1
_symmetry_cell_setting	triclinic
loop_
_symmetry_equiv_pos_as_xyz
  x,y,z
_cell_length_a	12.759401
_cell_length_b	19.077068
_cell_length_c	12.759393
_cell_angle_alpha	92.261232
_cell_angle_beta	89.981504
_cell_angle_gamma	92.327081
loop_
_atom_site_label
_atom_site_type_symbol
_atom_site_fract_x
_atom_site_fract_y
_atom_site_fract_z
Zn1	Zn	1.589361	-0.280156	-0.610733
Zn2	Zn	1.582157	-0.397871	-0.442092
Zn3	Zn	1.413661	-0.280192	-0.435075
Zn4	Zn	1.406557	-0.397817	-0.617730
O5	O	1.497934	-0.339009	-0.526408
O6	O	1.735426	-0.295778	-0.588371
O7	O	1.559764	-0.382299	-0.294142
O8	O	1.442956	-0.181697	-0.452511
O9	O	1.730133	-0.382263	-0.464471
O10	O	1.572043	-0.181670	-0.581567
O11	O	1.435971	-0.295841	-0.288987
O12	O	1.265698	-0.295788	-0.459296
O13	O	1.430848	-0.382171	-0.763821
O14	O	1.260479	-0.382207	-0.593492
O15	O	1.565154	-0.295726	-0.758680
O16	O	1.552875	-0.496355	-0.471256
O17	O	1.423862	-0.496315	-0.600297
C18	C	1.224968	-0.338996	-0.526393
C19	C	1.108190	-0.339007	-0.526412
C20	C	1.050634	-0.384078	-0.596181
C21	C	0.940909	-0.384086	-0.596193
C22	C	0.946308	-0.293953	-0.456658
C23	C	1.056030	-0.293941	-0.456652
C24	C	1.047516	-0.436117	-0.676738
C25	C	0.937791	-0.436126	-0.676750
C26	C	1.486845	-0.521872	-0.537320
C27	C	1.482197	-0.600102	-0.542023
C28	C	1.547235	-0.636852	-0.477104
C29	C	1.542870	-0.710357	-0.481534
C30	C	1.473460	-0.747111	-0.550879
C31	C	1.408418	-0.710356	-0.615805
C32	C	1.412790	-0.636852	-0.611380
C33	C	1.453182	-0.966943	-0.571318
C34	C	1.448813	-1.040452	-0.575736
C35	C	1.583267	-1.040448	-0.441466
C36	C	1.587627	-0.966943	-0.437042
C37	C	1.522590	-0.930195	-0.501972
N38	N	1.468994	-0.822245	-0.555406
N39	N	1.527062	-0.855062	-0.497450
C40	C	1.771967	-0.339023	-0.526423
C41	C	1.888743	-0.339028	-0.526430
C42	C	1.498012	-0.338938	-0.800437
C43	C	1.498045	-0.338908	-0.917212
C44	C	1.509096	-0.155432	-0.515476
C45	C	1.513852	-0.077202	-0.510817
C46	C	1.567988	-0.293891	-0.969398
C47	C	1.568014	-0.293866	-1.079121
C48	C	1.428152	-0.383879	-1.084461
C49	C	1.428122	-0.383901	-0.974740
C50	C	1.648739	-0.241925	-0.966316
C51	C	1.648766	-0.241900	-1.076039
C52	C	1.497920	-0.339029	-0.253441
C53	C	1.498102	-0.338861	-0.136655
H54	H	0.903825	-0.257262	-0.399862
H55	H	1.622775	-0.190110	-1.106990
H56	H	1.102889	-0.257236	-0.399846
O57	O	1.654909	-0.931215	-0.369568
C58	C	1.674057	-0.848270	-0.222776
C59	C	1.597745	-0.888699	-0.299112
H60	H	1.627872	-0.813876	-0.165808
H61	H	1.719774	-0.887136	-0.177061
H62	H	1.731037	-0.813832	-0.269004
H63	H	1.540702	-0.923139	-0.252965
H64	H	1.552104	-0.849796	-0.344829
H65	H	1.595830	-0.740275	-0.428669
O66	O	1.744743	-0.259441	-1.112579
C67	C	1.876278	-0.346617	-1.121082
C68	C	1.767567	-0.326848	-1.079651
H69	H	1.894774	-0.401110	-1.094458
H70	H	1.876334	-0.346646	-1.210432
H71	H	1.938243	-0.306699	-1.088963
H72	H	1.705541	-0.366746	-1.111692
H73	H	1.767599	-0.326797	-0.990300
O74	O	1.341020	-0.746165	-0.683075
C75	C	1.274735	-0.859400	-0.749439
C76	C	1.351099	-0.818937	-0.673193
H77	H	1.282873	-0.918243	-0.741491
H78	H	1.190860	-0.845055	-0.730050
H79	H	1.293993	-0.844851	-0.833284
H80	H	1.331937	-0.833465	-0.589322
H81	H	1.434952	-0.833285	-0.692672
O82	O	1.626556	-0.176957	-0.926797
C83	C	1.509554	-0.107805	-0.821086
C84	C	1.534569	-0.181419	-0.865752
H85	H	1.435170	-0.111385	-0.771739
H86	H	1.577637	-0.086068	-0.770096
H87	H	1.497302	-0.071451	-0.888429
H88	H	1.546801	-0.217825	-0.798475
H89	H	1.466473	-0.203098	-0.916770
O90	O	1.646413	-1.076255	-0.378516
C91	C	1.699248	-1.189489	-0.325798
C92	C	1.627682	-1.149027	-0.397159
H93	H	1.684114	-1.248333	-0.340829
H94	H	1.784832	-1.175028	-0.343465
H95	H	1.681726	-1.175055	-0.240204
H96	H	1.645110	-1.163440	-0.482776
H97	H	1.542119	-1.163492	-0.379402
O98	O	1.360282	-0.427684	-1.140236
C99	C	1.302050	-0.547397	-1.180966
C100	C	1.378957	-0.497865	-1.117727
H101	H	1.317136	-0.604149	-1.162807
H102	H	1.218060	-0.535094	-1.158633
H103	H	1.314066	-0.539613	-1.268344
H104	H	1.367036	-0.505622	-1.030333
H105	H	1.462919	-0.510180	-1.140148
O106	O	1.739426	-0.265341	-0.927054
C107	C	1.819902	-0.351665	-0.823938
C108	C	1.717127	-0.325228	-0.868357
H109	H	1.801907	-0.400078	-0.776454
H110	H	1.874880	-0.365805	-0.891274
H111	H	1.859005	-0.308644	-0.771140
H112	H	1.677936	-0.368216	-0.921141
H113	H	1.662223	-0.311067	-0.800970
H114	H	1.078409	-0.487869	-0.650548
O115	O	1.083958	-0.418732	-0.772859
C116	C	1.040115	-0.387160	-0.948044
C117	C	0.998703	-0.406824	-0.839234
H118	H	0.971206	-0.377540	-1.001746
H119	H	1.092713	-0.337487	-0.939960
H120	H	1.087093	-0.431948	-0.983002
H121	H	0.951679	-0.362081	-0.804216
H122	H	0.946160	-0.456518	-0.847386
H123	H	0.904967	-0.416669	-0.752938
O124	O	0.898260	-0.501155	-0.654649
C125	C	0.790500	-0.601657	-0.713688
C126	C	0.835218	-0.528031	-0.738861
H127	H	0.739503	-0.623402	-0.781749
H128	H	0.857740	-0.638028	-0.701272
H129	H	0.741092	-0.598026	-0.639359
H130	H	0.884613	-0.531595	-0.813200
H131	H	0.767929	-0.491689	-0.751211
H132	H	1.400224	-0.937029	-0.624184
O133	O	1.614751	-0.601261	-0.409712
C134	C	1.747603	-0.609024	-0.276958
C135	C	1.671205	-0.649414	-0.353249
H136	H	1.793251	-0.647938	-0.231272
H137	H	1.804633	-0.574572	-0.323113
H138	H	1.701424	-0.574650	-0.219956
H139	H	1.717298	-0.683826	-0.410268
H140	H	1.614175	-0.683821	-0.307026
O141	O	1.360313	-0.427660	-0.923937
C142	C	1.340331	-0.522738	-0.805761
C143	C	1.417246	-0.473213	-0.863210
H144	H	1.386331	-0.559590	-0.756667
H145	H	1.287364	-0.490465	-0.752404
H146	H	1.290345	-0.554855	-0.865752
H147	H	1.467301	-0.441085	-0.803294
H148	H	1.470141	-0.505526	-0.916585
H149	H	1.392304	-1.070375	-0.632223
H150	H	1.359830	-0.606931	-0.664245
