data_functionalizedCrystal
_audit_creation_method	'MofGen! by Chris Wilmer'
_symmetry_space_group_name_H-M	'P1'
_symmetry_Int_Tables_number	1
_symmetry_cell_setting	triclinic
loop_
_symmetry_equiv_pos_as_xyz
  x,y,z
_cell_length_a	21.295419
_cell_length_b	21.295417
_cell_length_c	21.295411
_cell_angle_alpha	90.021644
_cell_angle_beta	90.024539
_cell_angle_gamma	90.045308
loop_
_atom_site_label
_atom_site_type_symbol
_atom_site_fract_x
_atom_site_fract_y
_atom_site_fract_z
Zn1	Zn	0.962356	-0.250432	0.355911
Zn2	Zn	0.962258	-0.355684	0.250637
Zn3	Zn	0.857079	-0.250460	0.250656
Zn4	Zn	0.857048	-0.355695	0.355868
O5	O	0.909685	-0.303068	0.303268
O6	O	1.050432	-0.264378	0.341956
O7	O	0.948278	-0.341733	0.162550
O8	O	0.871098	-0.162367	0.264645
O9	O	1.050360	-0.341706	0.264611
O10	O	0.948444	-0.162347	0.341975
O11	O	0.871003	-0.264425	0.162564
O12	O	0.768985	-0.264436	0.264603
O13	O	0.871045	-0.341724	0.443963
O14	O	0.768963	-0.341751	0.341902
O15	O	0.948414	-0.264388	0.443995
O16	O	0.948248	-0.443775	0.264570
O17	O	0.870951	-0.443783	0.341883
C18	C	0.746133	-0.303098	0.303250
C19	C	0.676165	-0.303126	0.303258
C20	C	0.643358	-0.262927	0.343593
C21	C	0.577616	-0.262910	0.343596
C22	C	0.544683	-0.303104	0.303269
C23	C	0.577498	-0.343305	0.262926
C24	C	0.643239	-0.343317	0.262920
N25	N	0.441407	-0.358181	0.298349
N26	N	0.378956	-0.358168	0.298359
C27	C	0.346608	-0.303071	0.303283
N28	N	0.379071	-0.247985	0.308210
N29	N	0.441528	-0.247999	0.308205
C30	C	0.473397	-0.303095	0.303271
C31	C	0.242516	-0.262850	0.343624
C32	C	0.176772	-0.262832	0.343622
C33	C	0.176655	-0.343233	0.262955
C34	C	0.242397	-0.343245	0.262953
C35	C	0.275324	-0.303055	0.303291
C36	C	0.909603	-0.466619	0.303233
C37	C	0.909625	-0.536588	0.303239
C38	C	0.949909	-0.569429	0.263024
C39	C	0.949939	-0.635172	0.263038
C40	C	0.909673	-0.668070	0.303261
C41	C	0.869385	-0.635220	0.343485
C42	C	0.869361	-0.569479	0.343474
N43	N	0.854606	-0.771351	0.308054
N44	N	0.854630	-0.833802	0.308061
C45	C	0.909743	-0.866145	0.303297
N46	N	0.964832	-0.833676	0.298514
N47	N	0.964807	-0.771219	0.298504
C48	C	0.909694	-0.739355	0.303278
C49	C	0.950063	-0.970272	0.263095
C50	C	0.950093	-1.036016	0.263113
C51	C	0.869534	-1.036063	0.343557
C52	C	0.869510	-0.970321	0.343541
C53	C	0.909773	-0.937429	0.303307
C54	C	1.073875	-0.303038	0.303286
C55	C	1.143843	-0.303025	0.303294
C56	C	0.909737	-0.303055	0.467458
C57	C	0.909760	-0.303049	0.537426
C58	C	0.909785	-0.138878	0.303317
C59	C	0.909828	-0.068909	0.303338
C60	C	0.909669	-0.303036	0.139716
C61	C	0.909769	-0.302864	0.069749
C62	C	0.950044	-0.262778	0.570311
C63	C	0.950043	-0.262751	0.636053
C64	C	0.909764	-0.303006	0.668909
C65	C	0.869472	-0.343279	0.636017
C66	C	0.869470	-0.343301	0.570276
N67	N	0.904908	-0.358075	0.772124
N68	N	0.904914	-0.358052	0.834576
C69	C	0.909768	-0.302942	0.866984
N70	N	0.914629	-0.247853	0.834581
N71	N	0.914626	-0.247876	0.772124
C72	C	0.909762	-0.302986	0.740194
C73	C	0.950054	-0.262638	0.971154
C74	C	0.950049	-0.262610	1.036897
C75	C	0.869481	-0.343143	1.036860
C76	C	0.869483	-0.343166	0.971118
C77	C	0.909773	-0.302914	0.938268
H78	H	0.149841	-0.375959	0.230120
H79	H	0.836663	-0.376093	0.543502
O80	O	0.993506	-0.934798	0.219713
H81	H	1.025501	-0.904796	0.247922
O82	O	0.826032	-0.386560	1.072286
H83	H	0.854185	-0.418577	1.102245
O84	O	0.993499	-0.219220	0.935716
H85	H	1.021504	-0.191203	0.969630
H86	H	0.982846	-0.229954	0.662833
H87	H	0.269326	-0.230121	0.376465
O88	O	0.993497	-0.219172	1.072373
H89	H	1.042895	-0.229971	1.059783
H90	H	0.836683	-0.375963	0.944343
O91	O	0.678874	-0.219570	0.387087
H92	H	0.645012	-0.191607	0.415129
O93	O	0.542219	-0.219556	0.387107
H94	H	0.576159	-0.191615	0.415157
H95	H	0.550679	-0.376030	0.230091
H96	H	0.836675	-0.376052	0.662773
H97	H	0.982902	-1.062754	0.230366
O98	O	0.678629	-0.386675	0.219412
H99	H	0.665973	-0.436095	0.230118
O100	O	0.141383	-0.219469	0.387125
H101	H	0.154007	-0.230346	0.436509
O102	O	0.277789	-0.386605	0.219451
H103	H	0.243846	-0.414554	0.191411
O104	O	0.993343	-0.533952	0.219639
H105	H	1.021365	-0.567838	0.191681
H106	H	0.982745	-0.661917	0.230289
H107	H	0.836752	-1.062848	0.376310
H108	H	0.836602	-0.662010	0.376236
H109	H	0.836556	-0.542739	0.376223
H110	H	0.836703	-0.943579	0.376286
O111	O	0.993495	-0.219364	0.534879
H112	H	1.021504	-0.191353	0.568794
