data_functionalizedCrystal
_audit_creation_method	'MofGen! by Chris Wilmer'
_symmetry_space_group_name_H-M	'P1'
_symmetry_Int_Tables_number	1
_symmetry_cell_setting	triclinic
loop_
_symmetry_equiv_pos_as_xyz
  x,y,z
_cell_length_a	16.120530
_cell_length_b	18.101395
_cell_length_c	16.120297
_cell_angle_alpha	87.130194
_cell_angle_beta	89.871860
_cell_angle_gamma	87.127367
loop_
_atom_site_label
_atom_site_type_symbol
_atom_site_fract_x
_atom_site_fract_y
_atom_site_fract_z
Zn1	Zn	1.247379	-0.375189	0.534544
Zn2	Zn	1.747379	0.124811	1.034544
Zn3	Zn	1.254311	-0.493081	0.395480
Zn4	Zn	1.754311	0.006919	0.895480
Zn5	Zn	1.115371	-0.362675	0.388463
Zn6	Zn	1.615371	0.137325	0.888463
Zn7	Zn	1.108267	-0.492399	0.527449
Zn8	Zn	1.608267	0.007601	1.027449
O9	O	1.181332	-0.430836	0.461484
O10	O	1.681332	0.069164	0.961484
O11	O	1.364664	-0.396350	0.522003
O12	O	1.864664	0.103650	1.022003
O13	O	1.241754	-0.470830	0.278184
O14	O	1.741754	0.029170	0.778184
O15	O	1.132955	-0.260707	0.407873
O16	O	1.632955	0.239293	0.907873
O17	O	1.369756	-0.482965	0.419833
O18	O	1.869756	0.017035	0.919833
O19	O	1.229940	-0.269901	0.515199
O20	O	1.729940	0.230099	1.015199
O21	O	1.139676	-0.375022	0.273028
O22	O	1.639676	0.124978	0.773028
O23	O	0.998064	-0.374360	0.400994
O24	O	1.498064	0.125640	0.900994
O25	O	1.120847	-0.481802	0.644756
O26	O	1.620847	0.018198	1.144756
O27	O	0.992844	-0.469668	0.503107
O28	O	1.492844	0.030332	1.003107
O29	O	1.223051	-0.395689	0.649968
O30	O	1.723051	0.104311	1.149968
O31	O	1.234865	-0.596619	0.412954
O32	O	1.734865	-0.096619	0.912954
O33	O	1.127568	-0.596117	0.509911
O34	O	1.627568	-0.096117	1.009911
C35	C	0.965282	-0.420583	0.450519
C36	C	1.465282	0.079417	0.950519
C37	C	0.872853	-0.416215	0.445848
C38	C	1.372853	0.083785	0.945848
C39	C	0.703625	-0.408224	0.437327
C40	C	1.203625	0.091776	0.937327
C41	C	0.659876	-0.453505	0.485701
C42	C	1.159876	0.046495	0.985701
C43	C	0.565712	-0.449058	0.480960
C44	C	1.065712	0.050942	0.980960
C45	C	0.797798	-0.412669	0.442067
C46	C	1.297798	0.087331	0.942067
C47	C	1.181219	-0.623239	0.461443
C48	C	1.681219	-0.123239	0.961443
C49	C	1.181246	-0.705555	0.461457
C50	C	1.681246	-0.205555	0.961457
C51	C	1.181340	-0.856270	0.461495
C52	C	1.681340	-0.356270	0.961495
C53	C	1.113800	-0.887336	0.522447
C54	C	1.613800	-0.387336	1.022447
C55	C	1.114030	-0.972977	0.522730
C56	C	1.614030	-0.472977	1.022730
C57	C	1.181431	-1.004658	0.461532
C58	C	1.681431	-0.504658	0.961532
C59	C	1.267903	-0.978638	0.489547
C60	C	1.767903	-0.478638	0.989547
C61	C	1.267455	-0.892992	0.489973
C62	C	1.767455	-0.392992	0.989973
C63	C	1.163200	-0.883074	0.372414
C64	C	1.663200	-0.383074	0.872414
C65	C	1.161296	-0.968658	0.372806
C66	C	1.661296	-0.468658	0.872806
C67	C	1.181487	-1.088521	0.461552
C68	C	1.681487	-0.588521	0.961552
C69	C	1.181289	-0.772407	0.461477
C70	C	1.681289	-0.272407	0.961477
C71	C	1.398226	-0.441129	0.472492
C72	C	1.898226	0.058871	0.972492
C73	C	1.490653	-0.445516	0.477183
C74	C	1.990653	0.054484	0.977183
C75	C	1.170383	-0.440065	0.678378
C76	C	1.670383	0.059935	1.178378
C77	C	1.165718	-0.443999	0.770805
C78	C	1.665718	0.056001	1.270805
C79	C	1.181467	-0.237683	0.461545
C80	C	1.681467	0.262317	0.961545
C81	C	1.181524	-0.155372	0.461570
C82	C	1.681524	0.344628	0.961570
C83	C	1.192286	-0.421591	0.245437
C84	C	1.692286	0.078409	0.745437
C85	C	1.197113	-0.417457	0.153018
C86	C	1.697113	0.082543	0.653018
C87	C	1.157169	-0.451162	0.940029
C88	C	1.657169	0.048838	1.440029
C89	C	1.205659	-0.410296	0.983799
C90	C	1.705659	0.089704	1.483799
C91	C	1.200902	-0.414281	1.077961
C92	C	1.700902	0.085719	1.577961
C93	C	1.161924	-0.447177	0.845858
C94	C	1.661924	0.052823	1.345858
H95	H	1.049777	-0.990355	0.504703
H96	H	1.549777	-0.490355	1.004703
C97	C	1.032681	-0.806106	0.428377
C98	C	1.532681	-0.306106	0.928377
C99	C	1.026735	-0.854613	0.498332
C100	C	1.526735	-0.354613	0.998332
H101	H	0.978928	-0.785898	0.413494
H102	H	1.478928	-0.285898	0.913494
H103	H	1.055741	-0.832304	0.383490
H104	H	1.555741	-0.332304	0.883490
H105	H	1.067396	-0.767212	0.440712
H106	H	1.567396	-0.267212	0.940712
H107	H	0.992024	-0.893511	0.485996
H108	H	1.492024	-0.393511	0.985996
H109	H	1.003662	-0.828415	0.543229
H110	H	1.503662	-0.328415	1.043229
C111	C	1.310449	-0.322014	0.997661
C112	C	1.810449	0.177986	1.497661
C113	C	1.266531	-0.359027	0.938927
C114	C	1.766531	0.140973	1.438927
H115	H	1.348024	-0.290363	0.969955
H116	H	1.848024	0.209637	1.469955
H117	H	1.340550	-0.357195	1.033153
H118	H	1.840550	0.142805	1.533153
H119	H	1.272555	-0.293370	1.029700
H120	H	1.772555	0.206630	1.529700
H121	H	1.304424	-0.387676	0.906892
H122	H	1.804424	0.112324	1.406892
H123	H	1.236428	-0.323841	0.903421
H124	H	1.736428	0.176159	1.403421
H125	H	0.693142	-0.495609	0.530678
H126	H	1.193142	0.004391	1.030678
H127	H	1.319267	-0.872671	0.447739
H128	H	1.819267	-0.372671	0.947739
H129	H	1.284165	-1.003677	0.554112
H130	H	1.784165	-0.503677	1.054112
H131	H	1.101426	-0.857643	0.347722
H132	H	1.601426	-0.357643	0.847722
H133	H	0.670362	-0.366123	0.392355
H134	H	1.170362	0.133877	0.892355
H135	H	1.125310	-0.869239	0.587984
H136	H	1.625310	-0.369239	1.087984
H137	H	1.319432	-0.999364	0.446722
H138	H	1.819432	-0.499364	0.946722
C139	C	1.103331	-0.496510	1.070849
C140	C	1.603331	0.003490	1.570849
C141	C	1.096313	-0.502437	0.984903
C142	C	1.596313	-0.002437	1.484903
H143	H	1.065767	-0.528170	1.098558
H144	H	1.565767	-0.028170	1.598558
H145	H	1.090487	-0.446771	1.084416
H146	H	1.590487	0.053229	1.584416
H147	H	1.158498	-0.510582	1.087862
H148	H	1.658498	-0.010582	1.587862
H149	H	1.041147	-0.488359	0.967889
H150	H	1.541147	0.011641	1.467889
H151	H	1.109152	-0.552187	0.971330
H152	H	1.609152	-0.052187	1.471330
H153	H	1.125755	-0.996915	0.588651
H154	H	1.625755	-0.496915	1.088651
H155	H	1.283324	-0.876618	0.555216
H156	H	1.783324	-0.376618	1.055216
H157	H	1.097679	-0.985231	0.351756
H158	H	1.597679	-0.485231	0.851756
H159	H	1.207258	-0.989944	0.324630
H160	H	1.707258	-0.489944	0.824630
H161	H	1.212441	-0.862953	0.326948
H162	H	1.712441	-0.362953	0.826948
