data_functionalizedCrystal
_audit_creation_method	'MofGen! by Chris Wilmer'
_symmetry_space_group_name_H-M	'P1'
_symmetry_Int_Tables_number	1
_symmetry_cell_setting	triclinic
loop_
_symmetry_equiv_pos_as_xyz
  x,y,z
_cell_length_a	18.215407
_cell_length_b	16.625546
_cell_length_c	16.625525
_cell_angle_alpha	89.905447
_cell_angle_beta	89.938707
_cell_angle_gamma	90.022916
loop_
_atom_site_label
_atom_site_type_symbol
_atom_site_fract_x
_atom_site_fract_y
_atom_site_fract_z
Zn1	Zn	1.125386	-0.320480	-0.455902
Zn2	Zn	1.625386	0.179520	0.044098
Zn3	Zn	1.125210	-0.455474	-0.321064
Zn4	Zn	1.625210	0.044526	0.178936
Zn5	Zn	1.002229	-0.320660	-0.321082
Zn6	Zn	1.502229	0.179340	0.178918
Zn7	Zn	1.002289	-0.455275	-0.455854
Zn8	Zn	1.502289	0.044725	0.044146
O9	O	1.063778	-0.387972	-0.388476
O10	O	1.563778	0.112028	0.111524
O11	O	1.228347	-0.338395	-0.438028
O12	O	1.728347	0.161605	0.061972
O13	O	1.108798	-0.437749	-0.208234
O14	O	1.608798	0.062251	0.291766
O15	O	1.018614	-0.207804	-0.338994
O16	O	1.518614	0.292196	0.161006
O17	O	1.228218	-0.437575	-0.338964
O18	O	1.728218	0.062425	0.161036
O19	O	1.109097	-0.207671	-0.438046
O20	O	1.609097	0.292329	0.061954
O21	O	1.018444	-0.338702	-0.208247
O22	O	1.518444	0.161298	0.291753
O23	O	0.899253	-0.338509	-0.338947
O24	O	1.399253	0.161491	0.161053
O25	O	1.018717	-0.437236	-0.568693
O26	O	1.518717	0.062764	-0.068693
O27	O	0.899297	-0.437411	-0.437964
O28	O	1.399297	0.062589	0.062036
O29	O	1.109155	-0.338202	-0.568729
O30	O	1.609155	0.161798	-0.068729
O31	O	1.108856	-0.568280	-0.338917
O32	O	1.608856	-0.068280	0.161083
O33	O	1.018547	-0.568134	-0.437946
O34	O	1.518547	-0.068134	0.062054
C35	C	0.872572	-0.387959	-0.388453
C36	C	1.372572	0.112041	0.111547
C37	C	0.790773	-0.387972	-0.388462
C38	C	1.290773	0.112028	0.111538
C39	C	1.063709	-0.597463	-0.388442
C40	C	1.563709	-0.097463	0.111558
C41	C	1.063746	-0.687084	-0.388454
C42	C	1.563746	-0.187084	0.111546
C43	C	0.602622	-0.439551	-0.439955
C44	C	1.102622	0.060449	0.060045
C45	C	0.525763	-0.439554	-0.439965
C46	C	1.025763	0.060446	0.060035
C47	C	0.525687	-0.336408	-0.337014
C48	C	1.025687	0.163592	0.162986
C49	C	0.602545	-0.336402	-0.337009
C50	C	1.102545	0.163598	0.162991
C51	C	0.641010	-0.387978	-0.388478
C52	C	1.141010	0.112022	0.111522
C53	C	0.487294	-0.387987	-0.388493
C54	C	0.987294	0.112013	0.111507
C55	C	0.403960	-0.387989	-0.388504
C56	C	0.903960	0.112011	0.111496
C57	C	0.724349	-0.387975	-0.388469
C58	C	1.224349	0.112025	0.111531
C59	C	1.063875	-1.015260	-0.388538
C60	C	1.563875	-0.515260	0.111462
C61	C	1.063837	-0.923951	-0.388517
C62	C	1.563837	-0.423951	0.111483
C63	C	1.063810	-0.851175	-0.388496
C64	C	1.563810	-0.351175	0.111504
C65	C	1.063773	-0.759861	-0.388476
C66	C	1.563773	-0.259861	0.111524
C67	C	1.255731	-0.387987	-0.388499
C68	C	1.755731	0.112013	0.111501
C69	C	1.337530	-0.387993	-0.388510
C70	C	1.837530	0.112007	0.111490
C71	C	1.063962	-0.387677	-0.598785
C72	C	1.563962	0.112323	-0.098785
C73	C	1.064041	-0.387551	-0.688407
C74	C	1.564041	0.112449	-0.188407
C75	C	1.063868	-0.177663	-0.388527
C76	C	1.563868	0.322337	0.111473
C77	C	1.063907	-0.088042	-0.388549
C78	C	1.563907	0.411958	0.111451
C79	C	1.063638	-0.388209	-0.178984
C80	C	1.563638	0.111791	0.321016
C81	C	1.063702	-0.388107	-0.089363
C82	C	1.563702	0.111893	0.410637
C83	C	1.063766	-0.388013	-0.016581
C84	C	1.563766	0.111987	0.483419
C85	C	1.063845	-0.387887	0.074727
C86	C	1.563845	0.112113	0.574727
C87	C	1.063904	-0.387781	0.147503
C88	C	1.563904	0.112219	0.647503
C89	C	1.063982	-0.387656	0.238817
C90	C	1.563982	0.112344	0.738817
H91	H	0.494511	-0.481548	-0.481884
H92	H	0.994511	0.018452	0.018116
O93	O	0.488400	-0.286355	-0.286904
O94	O	0.988400	0.213645	0.213096
C95	C	0.507078	-0.303979	-0.206508
C96	C	1.007078	0.196021	0.293492
H97	H	0.562871	-0.334967	-0.204777
H98	H	1.062871	0.165033	0.295223
H99	H	0.509684	-0.245783	-0.170455
H100	H	1.009684	0.254217	0.329545
H101	H	0.463782	-0.345436	-0.179282
H102	H	0.963782	0.154564	0.320718
O103	O	0.639954	-0.286329	-0.287075
O104	O	1.139954	0.213671	0.212925
C105	C	0.716038	-0.297397	-0.298096
C106	C	1.216038	0.202603	0.201904
H107	H	0.726587	-0.323811	-0.360275
H108	H	1.226587	0.176189	0.139725
H109	H	0.745262	-0.237000	-0.292733
H110	H	1.245262	0.263000	0.207267
H111	H	0.737786	-0.340329	-0.250194
H112	H	1.237786	0.159671	0.249806
O113	O	0.639874	-0.489669	-0.490032
O114	O	1.139874	0.010331	0.009968
C115	C	0.589506	-0.535202	-0.535455
C116	C	1.089506	-0.035202	-0.035455
H117	H	0.534732	-0.502179	-0.538306
H118	H	1.034732	-0.002179	-0.038306
H119	H	0.611774	-0.543804	-0.598968
H120	H	1.111774	-0.043804	-0.098968
H121	H	0.581283	-0.596438	-0.505825
H122	H	1.081283	-0.096438	-0.005825
