data_functionalizedCrystal
_audit_creation_method	'MofGen! by Chris Wilmer'
_symmetry_space_group_name_H-M	'P1'
_symmetry_Int_Tables_number	1
_symmetry_cell_setting	triclinic
loop_
_symmetry_equiv_pos_as_xyz
  x,y,z
_cell_length_a	17.640112
_cell_length_b	13.897447
_cell_length_c	17.640968
_cell_angle_alpha	78.769972
_cell_angle_beta	92.139080
_cell_angle_gamma	101.244075
loop_
_atom_site_label
_atom_site_type_symbol
_atom_site_fract_x
_atom_site_fract_y
_atom_site_fract_z
Zn1	Zn	1.247780	-0.027714	-0.195081
Zn2	Zn	1.222020	-0.226719	-0.068102
Zn3	Zn	1.095115	-0.090459	-0.093728
Zn4	Zn	1.120760	-0.214022	-0.220684
O5	O	1.171418	-0.139729	-0.144399
O6	O	1.350631	-0.033168	-0.156797
O7	O	1.183672	-0.240217	0.034771
O8	O	1.115414	0.052860	-0.107182
O9	O	1.331705	-0.179376	-0.063506
O10	O	1.227576	0.098958	-0.181645
O11	O	1.090436	-0.140107	0.015944
O12	O	0.992248	-0.127795	-0.132008
O13	O	1.159123	-0.157736	-0.323560
O14	O	1.011090	-0.218577	-0.225282
O15	O	1.252443	-0.020856	-0.304749
O16	O	1.208539	-0.360031	-0.088333
O17	O	1.134144	-0.350702	-0.200434
C18	C	0.974115	-0.178617	-0.184205
C19	C	0.889711	-0.195272	-0.201252
C20	C	0.563040	-0.013187	-0.014898
C21	C	0.483732	-0.028853	-0.030927
C22	C	0.503372	-0.123604	-0.127886
C23	C	0.582684	-0.107942	-0.111868
C24	C	0.612511	-0.052734	-0.055373
C25	C	0.632155	-0.147488	-0.152342
C26	C	0.711459	-0.131831	-0.136322
C27	C	0.741292	-0.076628	-0.079828
C28	C	0.691815	-0.037077	-0.039353
C29	C	0.602325	-0.202701	-0.208833
C30	C	0.651796	-0.242247	-0.249307
C31	C	0.731103	-0.226585	-0.233292
C32	C	0.760936	-0.171382	-0.176798
C33	C	0.780580	-0.266136	-0.273767
C34	C	0.859884	-0.250480	-0.257747
C35	C	0.840240	-0.155726	-0.160778
C36	C	1.171353	-0.390361	-0.144393
C37	C	1.171400	-0.497561	-0.144403
C38	C	1.171440	-0.584618	-0.144412
C39	C	1.171497	-0.693834	-0.144421
C40	C	1.369492	-0.100689	-0.104437
C41	C	1.453900	-0.084053	-0.087408
C42	C	1.211517	-0.080881	-0.342480
C43	C	1.228605	-0.055803	-0.426891
C44	C	1.171508	0.111891	-0.144416
C45	C	1.171546	0.219116	-0.144424
C46	C	1.041897	-0.329658	-0.753469
C47	C	1.057969	-0.306078	-0.832783
C48	C	1.155136	-0.163558	-0.813187
C49	C	1.139069	-0.187123	-0.733870
C50	C	1.082449	-0.270175	-0.704018
C51	C	1.179622	-0.127639	-0.684419
C52	C	1.163559	-0.151206	-0.605110
C53	C	1.106943	-0.234255	-0.575251
C54	C	1.066386	-0.293741	-0.624709
C55	C	1.236245	-0.044592	-0.714272
C56	C	1.276797	0.014891	-0.664821
C57	C	1.260731	-0.008670	-0.585511
C58	C	1.204115	-0.091720	-0.555652
C59	C	1.301288	0.050815	-0.536053
C60	C	1.285224	0.027249	-0.456743
C61	C	1.188052	-0.115286	-0.476342
C62	C	1.131520	-0.198270	0.052921
C63	C	1.114579	-0.223046	0.137361
H64	H	0.805867	-0.063884	-0.066784
H65	H	0.443455	0.003362	0.002031
Cl66	Cl	1.006980	-0.380865	-0.894949
Cl67	Cl	1.116865	-0.219689	-0.438809
H68	H	0.537750	-0.215447	-0.221874
H69	H	0.995773	-0.397268	-0.729166
H70	H	1.201238	-0.095939	-0.837503
Cl71	Cl	0.877744	-0.086312	-0.089759
Cl72	Cl	1.336208	0.102026	-0.394571
H73	H	0.716104	0.007896	0.006640
H74	H	1.093869	-0.253445	-0.510671
H75	H	0.756281	-0.311095	-0.319760
H76	H	1.249323	-0.025409	-0.778852
H77	H	0.587329	0.031786	0.031094
Cl78	Cl	0.922080	-0.300198	-0.308628
Cl79	Cl	1.372472	0.155210	-0.573590
Cl80	Cl	0.614289	-0.311663	-0.320318
H81	H	0.479075	-0.168557	-0.173882
Cl82	Cl	0.995199	-0.398144	-0.587175
Cl83	Cl	1.347976	0.119294	-0.702357
