data_functionalizedCrystal
_audit_creation_method	'MofGen! by Chris Wilmer'
_symmetry_space_group_name_H-M	'P1'
_symmetry_Int_Tables_number	1
_symmetry_cell_setting	triclinic
loop_
_symmetry_equiv_pos_as_xyz
  x,y,z
_cell_length_a	14.853567
_cell_length_b	10.489741
_cell_length_c	13.330367
_cell_angle_alpha	89.995673
_cell_angle_beta	89.995418
_cell_angle_gamma	84.087052
loop_
_atom_site_label
_atom_site_type_symbol
_atom_site_fract_x
_atom_site_fract_y
_atom_site_fract_z
O1	O	1.197303	0.166528	-0.083354
O2	O	0.934954	0.186366	-0.083371
O3	O	1.072098	-0.009218	-0.083356
O4	O	1.060159	0.362112	-0.083369
O5	O	1.072078	-0.009223	0.083491
O6	O	0.934934	0.186361	0.083476
O7	O	1.197282	0.166524	0.083493
Cu8	Cu	1.066107	0.176442	0.098719
Cu9	Cu	1.066130	0.176447	-0.098597
O10	O	1.060139	0.362107	0.083479
C11	C	0.901351	0.185464	0.000051
C12	C	0.801252	0.182771	0.000044
C13	C	0.388003	0.055204	0.000071
C14	C	0.368025	0.287562	0.000062
C15	C	0.462072	0.290094	0.000059
C16	C	0.519090	0.175180	0.000060
C17	C	0.482060	0.057733	0.000065
C18	C	0.499110	0.407539	0.000044
C19	C	0.593163	0.410077	0.000040
C20	C	0.650183	0.295161	0.000048
C21	C	0.613147	0.177709	0.000054
C22	C	0.670164	0.062795	0.000055
C23	C	0.633130	-0.054658	0.000068
C24	C	0.539079	-0.057183	0.000073
C25	C	0.744234	0.297685	0.000043
C26	C	0.764221	0.065324	0.000049
C27	C	1.071186	-0.056742	0.000067
C28	C	1.068488	-0.198341	0.000065
C29	C	0.981228	-0.265502	0.000052
C30	C	1.022439	-0.358089	0.082319
C31	C	1.022479	-0.358060	-0.082179
C32	C	1.109735	-0.289063	0.082400
C33	C	1.109764	-0.289024	-0.082172
C34	C	1.151038	-0.381585	0.000115
C35	C	1.230886	0.167425	0.000070
C36	C	1.330985	0.170118	0.000070
C37	C	1.061051	0.409631	0.000053
C38	C	1.063748	0.551230	0.000049
N39	N	1.066096	0.176437	0.237501
N40	N	1.066147	0.176441	-0.237378
C41	C	1.005400	0.263017	0.710117
C42	C	1.126885	0.089867	0.710098
C43	C	1.126874	0.089863	0.605080
C44	C	1.066127	0.176439	0.552575
C45	C	1.005390	0.263019	0.605089
C46	C	1.187617	0.003293	0.552558
C47	C	1.187610	0.003287	0.447534
C48	C	1.126857	0.089858	0.395027
C49	C	1.066117	0.176440	0.447547
C50	C	1.005369	0.263016	0.395043
C51	C	0.944624	0.349594	0.447561
C52	C	0.944637	0.349590	0.552582
C53	C	1.126844	0.089861	0.290005
C54	C	1.005359	0.263017	0.290015
H55	H	0.452680	0.501096	0.000033
H56	H	0.895182	0.420079	0.595349
H57	H	1.237080	-0.067188	0.595311
C58	C	0.250664	0.419507	-0.085707
C59	C	0.305350	0.413868	0.000060
H60	H	0.211965	0.497483	-0.085701
H61	H	0.287773	0.415679	-0.143879
H62	H	0.215156	0.349190	-0.085694
H63	H	0.340864	0.484179	0.000044
H64	H	0.268237	0.417707	0.058248
H65	H	0.955888	0.333514	0.247272
C66	C	1.113764	-0.282081	-0.262129
C67	C	1.159575	-0.247654	-0.176059
H68	H	1.144508	-0.256529	-0.320095
H69	H	1.111935	-0.372316	-0.263139
H70	H	1.053782	-0.240726	-0.261531
H71	H	1.219555	-0.289016	-0.176653
H72	H	1.161413	-0.157402	-0.175049
H73	H	0.895167	0.420090	0.404799
H74	H	0.623308	0.505714	0.000029
H75	H	0.955940	0.333504	0.752880
H76	H	0.679566	-0.148221	0.000062
C77	C	1.307690	-0.167878	0.458076
C78	C	1.254371	-0.091887	0.389811
H79	H	1.348899	-0.226641	0.422437
H80	H	1.340467	-0.114698	0.499020
H81	H	1.269862	-0.213847	0.499056
H82	H	1.292198	-0.045911	0.348835
H83	H	1.221591	-0.145074	0.348849
C84	C	0.715035	0.527105	0.000024
C85	C	0.784943	0.426776	0.000029
H86	H	0.740168	0.606803	0.000023
H87	H	0.678773	0.521283	-0.058154
H88	H	0.678762	0.521280	0.058213
H89	H	0.821212	0.432596	-0.058163
H90	H	0.821220	0.432601	0.058214
H91	H	0.909483	-0.215045	0.000130
C92	C	0.883673	-0.340236	0.176049
C93	C	0.972588	-0.399409	0.176202
H94	H	0.852894	-0.365749	0.234004
H95	H	0.884552	-0.249827	0.176421
H96	H	0.853267	-0.365022	0.117626
H97	H	1.002997	-0.374616	0.234622
H98	H	0.971713	-0.489839	0.175840
H99	H	1.146617	-0.258647	0.152028
C100	C	0.527141	-0.256024	0.085847
C101	C	0.498370	-0.186279	0.000076
H102	H	0.502002	-0.335718	0.085846
H103	H	0.591307	-0.270964	0.085841
H104	H	0.507612	-0.208695	0.144023
H105	H	0.517905	-0.233604	-0.058101
H106	H	0.434191	-0.171343	0.000073
C107	C	0.883725	-0.340121	-0.175909
C108	C	0.972635	-0.399314	-0.176074
H109	H	0.852953	-0.365581	-0.233877
H110	H	0.853309	-0.364933	-0.117504
H111	H	0.884618	-0.249702	-0.176252
H112	H	0.971743	-0.489734	-0.175724
H113	H	1.003059	-0.374510	-0.234495
H114	H	1.176348	0.019385	0.752851
H115	H	1.222848	-0.431815	0.000165
H116	H	0.810640	-0.028255	0.000054
H117	H	0.357845	-0.040424	0.000085
H118	H	1.176306	0.019377	0.247250
