data_functionalizedCrystal
_audit_creation_method	'MofGen! by Chris Wilmer'
_symmetry_space_group_name_H-M	'P1'
_symmetry_Int_Tables_number	1
_symmetry_cell_setting	triclinic
loop_
_symmetry_equiv_pos_as_xyz
  x,y,z
_cell_length_a	10.723024
_cell_length_b	18.266242
_cell_length_c	10.723024
_cell_angle_alpha	90.005133
_cell_angle_beta	84.467869
_cell_angle_gamma	90.008718
loop_
_atom_site_label
_atom_site_type_symbol
_atom_site_fract_x
_atom_site_fract_y
_atom_site_fract_z
O1	O	1.657196	0.060874	0.175029
O2	O	1.294044	0.060877	0.191783
O3	O	1.483997	0.060873	0.001830
O4	O	1.467244	0.060878	0.364982
O5	O	1.483964	-0.060889	0.001820
O6	O	1.294012	-0.060885	0.191772
O7	O	1.657164	-0.060888	0.175019
Zn8	Zn	1.475583	-0.080219	0.183394
Zn9	Zn	1.475625	0.080208	0.183408
O10	O	1.467211	-0.060884	0.364972
C11	C	1.247528	-0.000004	0.190558
C12	C	1.108974	-0.000003	0.186911
C13	C	0.917217	-0.000004	0.073603
C14	C	1.060420	-0.000005	0.077371
N15	N	1.475562	-0.189706	0.183384
C16	C	1.559702	-0.228016	0.099315
C17	C	1.559710	-0.304661	0.099309
C18	C	1.475590	-0.342993	0.183394
C19	C	1.391435	-0.304673	0.267470
C20	C	1.391421	-0.228030	0.267465
N21	N	1.460652	-0.463323	0.293680
N22	N	1.460672	-0.536132	0.293681
C23	C	1.475625	-0.573915	0.183413
N24	N	1.490582	-0.536140	0.073140
N25	N	1.490567	-0.463326	0.073141
C26	C	1.475595	-0.426100	0.183409
C27	C	1.559778	-0.695333	0.099331
C28	C	1.559777	-0.771979	0.099323
C29	C	1.391509	-0.771989	0.267495
C30	C	1.391503	-0.695345	0.267491
C31	C	1.475645	-0.657021	0.183411
C32	C	1.703680	-0.000005	0.176243
C33	C	1.842234	-0.000002	0.179891
C34	C	1.482762	-0.000008	-0.044675
C35	C	1.479114	-0.000005	-0.183229
N36	N	1.475656	0.189695	0.183408
C37	C	1.585401	-0.000005	-0.258212
C38	C	1.581634	-0.000002	-0.401415
C39	C	1.468447	-0.000002	0.411477
C40	C	1.472094	0.000000	0.550031
H41	H	1.124853	-0.000002	-0.013619
F42	F	1.353153	-0.000006	-0.365762
H43	H	1.385328	0.000000	-0.225051
F44	F	1.707991	-0.000001	-0.203554
H45	H	1.628290	-0.803172	0.030857
F46	F	1.301865	-0.187255	0.356947
H47	H	0.875395	-0.000016	-0.020182
F48	F	0.896892	-0.000005	0.302481
H49	H	1.628211	-0.196816	0.030849
F50	F	1.024767	0.000004	0.305852
F51	F	1.301905	-0.345468	0.356956
F52	F	1.649267	-0.345441	0.009827
H53	H	1.628287	-0.664129	0.030863
H54	H	1.323012	-0.803198	0.335953
H55	H	1.322994	-0.664150	0.335953
F56	F	1.700570	-0.000007	-0.485629
