data_functionalizedCrystal
_audit_creation_method	'MofGen! by Chris Wilmer'
_symmetry_space_group_name_H-M	'P1'
_symmetry_Int_Tables_number	1
_symmetry_cell_setting	triclinic
loop_
_symmetry_equiv_pos_as_xyz
  x,y,z
_cell_length_a	23.532407
_cell_length_b	23.532407
_cell_length_c	16.176319
_cell_angle_alpha	90.011464
_cell_angle_beta	90.002085
_cell_angle_gamma	82.848678
loop_
_atom_site_label
_atom_site_type_symbol
_atom_site_fract_x
_atom_site_fract_y
_atom_site_fract_z
O1	O	0.755262	0.069136	0.068652
O2	O	1.088595	0.402470	0.401985
O3	O	1.421928	0.735803	0.735318
O4	O	0.589398	0.079139	0.068677
O5	O	0.922732	0.412473	0.402010
O6	O	1.256065	0.745806	0.735344
O7	O	0.677332	-0.008794	0.068649
O8	O	1.010665	0.324539	0.401982
O9	O	1.343998	0.657873	0.735315
O10	O	0.667328	0.157070	0.068680
O11	O	1.000662	0.490403	0.402014
O12	O	1.333995	0.823736	0.735347
O13	O	0.677320	-0.008799	-0.068845
O14	O	1.010653	0.324534	0.264489
O15	O	1.343986	0.657867	0.597822
O16	O	0.589386	0.079134	-0.068816
O17	O	0.922720	0.412467	0.264517
O18	O	1.256053	0.745801	0.597851
O19	O	0.755250	0.069131	-0.068841
O20	O	1.088583	0.402464	0.264492
O21	O	1.421916	0.735797	0.597825
Cu22	Cu	0.672317	0.074132	-0.081383
Cu23	Cu	1.005650	0.407465	0.251950
Cu24	Cu	1.338984	0.740798	0.585284
Cu25	Cu	0.672331	0.074138	0.081219
Cu26	Cu	1.005664	0.407472	0.414552
Cu27	Cu	1.338998	0.740805	0.747885
O28	O	0.667316	0.157064	-0.068813
O29	O	1.000650	0.490397	0.264520
O30	O	1.333983	0.823731	0.597854
C31	C	0.568176	0.078882	-0.000066
C32	C	0.901510	0.412215	0.333267
C33	C	1.234843	0.745549	0.666600
C34	C	0.504959	0.078116	-0.000057
C35	C	0.838293	0.411449	0.333276
C36	C	1.171626	0.744783	0.666609
C37	C	0.105856	0.125350	-0.000086
C38	C	0.439190	0.458683	0.333248
C39	C	0.772523	0.792016	0.666581
C40	C	0.046456	0.124638	-0.000091
C41	C	0.379789	0.457971	0.333242
C42	C	0.713123	0.791305	0.666576
O43	O	0.009711	0.168424	-0.000113
O44	O	0.343045	0.501757	0.333221
O45	O	0.676378	0.835091	0.666554
N46	N	0.023830	0.072362	-0.000100
N47	N	0.357163	0.405695	0.333234
N48	N	0.690496	0.739028	0.666567
C49	C	0.060607	0.020794	-0.000111
C50	C	0.393941	0.354127	0.333222
C51	C	0.727274	0.687460	0.666555
O52	O	0.035908	-0.023737	-0.000120
O53	O	0.369241	0.309596	0.333213
O54	O	0.702574	0.642930	0.666547
C55	C	0.120006	0.021506	-0.000112
C56	C	0.453340	0.354839	0.333221
C57	C	0.786673	0.688172	0.666554
C58	C	0.142629	0.073785	-0.000095
C59	C	0.475962	0.407119	0.333238
C60	C	0.809296	0.740452	0.666572
C61	C	0.128479	0.177625	-0.000070
C62	C	0.461813	0.510958	0.333264
C63	C	0.795146	0.844292	0.666597
C64	C	0.187876	0.178336	-0.000063
C65	C	0.521209	0.511670	0.333270
C66	C	0.854542	0.845003	0.666604
C67	C	0.224649	0.126772	-0.000072
C68	C	0.557982	0.460105	0.333261
C69	C	0.891315	0.793439	0.666594
C70	C	0.202025	0.074496	-0.000088
C71	C	0.535359	0.407830	0.333245
C72	C	0.868692	0.741163	0.666578
C73	C	0.156783	-0.030062	-0.000130
C74	C	0.490116	0.303271	0.333203
C75	C	0.823450	0.636605	0.666537
C76	C	0.216185	-0.029345	-0.000131
C77	C	0.549519	0.303988	0.333202
C78	C	0.882852	0.637321	0.666535
C79	C	0.238808	0.022934	-0.000114
C80	C	0.572141	0.356268	0.333219
C81	C	0.905475	0.689601	0.666552
C82	C	0.298194	0.023643	-0.000091
C83	C	0.631528	0.356977	0.333242
C84	C	0.964861	0.690310	0.666576
N85	N	0.320820	0.075920	-0.000082
N86	N	0.654154	0.409253	0.333251
N87	N	0.987487	0.742586	0.666584
C88	C	0.284048	0.127484	-0.000073
C89	C	0.617381	0.460817	0.333260
C90	C	0.950714	0.794151	0.666594
C91	C	-0.064135	0.019302	-0.000111
C92	C	0.269198	0.352635	0.333222
C93	C	0.602532	0.685969	0.666555
C94	C	-0.123533	0.018589	-0.000105
C95	C	0.209800	0.351923	0.333229
C96	C	0.543134	0.685256	0.666562
C97	C	-0.137680	0.122434	-0.000086
C98	C	0.195653	0.455768	0.333248
C99	C	0.528986	0.789101	0.666581
C100	C	-0.078281	0.123146	-0.000087
C101	C	0.255052	0.456480	0.333247
C102	C	0.588385	0.789813	0.666580
C103	C	-0.041509	0.071578	-0.000103
C104	C	0.291824	0.404912	0.333231
C105	C	0.625158	0.738245	0.666564
C106	C	0.408784	0.128974	-0.000058
C107	C	0.742118	0.462307	0.333275
C108	C	1.075451	0.795640	0.666609
C109	C	0.468186	0.129680	-0.000048
C110	C	0.801520	0.463014	0.333285
C111	C	1.134853	0.796347	0.666619
C112	C	0.482329	0.025836	-0.000071
C113	C	0.815662	0.359169	0.333262
C114	C	1.148995	0.692503	0.666595
C115	C	0.422932	0.025129	-0.000077
C116	C	0.756265	0.358462	0.333256
C117	C	1.089598	0.691796	0.666590
C118	C	0.386160	0.076702	-0.000073
C119	C	0.719494	0.410036	0.333260
C120	C	1.052827	0.743369	0.666593
O121	O	0.334974	-0.020119	-0.000073
O122	O	0.668307	0.313214	0.333261
O123	O	1.001640	0.646547	0.666594
O124	O	0.308755	0.172007	-0.000075
O125	O	0.642089	0.505340	0.333258
O126	O	0.975422	0.838674	0.666591
C127	C	0.677071	-0.030013	-0.000100
C128	C	1.010404	0.303321	0.333233
C129	C	1.343738	0.636654	0.666566
C130	C	0.676305	-0.093230	-0.000106
C131	C	1.009638	0.240104	0.333227
C132	C	1.342972	0.573437	0.666560
C133	C	0.776472	0.069388	-0.000096
C134	C	1.109805	0.402722	0.333237
C135	C	1.443138	0.736055	0.666571
C136	C	0.839689	0.070154	-0.000100
C137	C	1.173022	0.403487	0.333234
C138	C	1.506355	0.736821	0.666567
C139	C	0.723539	-0.492333	-0.000068
C140	C	1.056872	-0.158999	0.333265
C141	C	1.390205	0.174334	0.666598
C142	C	0.722827	-0.551733	-0.000062
C143	C	1.056160	-0.218400	0.333271
C144	C	1.389494	0.114934	0.666605
O145	O	0.766613	-0.588478	-0.000038
O146	O	1.099946	-0.255144	0.333295
O147	O	1.433280	0.078189	0.666629
N148	N	0.670551	-0.574359	-0.000055
N149	N	1.003884	-0.241026	0.333279
N150	N	1.337217	0.092307	0.666612
C151	C	0.618983	-0.537582	-0.000045
C152	C	0.952316	-0.204248	0.333288
C153	C	1.285649	0.129085	0.666622
O154	O	0.574452	-0.562281	-0.000037
O155	O	0.907785	-0.228948	0.333296
O156	O	1.241119	0.104385	0.666629
C157	C	0.619695	-0.478182	-0.000046
C158	C	0.953028	-0.144849	0.333288
C159	C	1.286361	0.188484	0.666621
C160	C	0.671974	-0.455560	-0.000061
C161	C	1.005308	-0.122227	0.333272
C162	C	1.338641	0.211107	0.666605
C163	C	0.775814	-0.469710	-0.000083
C164	C	1.109147	-0.136376	0.333250
C165	C	1.442481	0.196957	0.666583
C166	C	0.776525	-0.410313	-0.000091
C167	C	1.109859	-0.076980	0.333242
C168	C	1.443192	0.256353	0.666576
C169	C	0.724961	-0.373540	-0.000084
C170	C	1.058294	-0.040207	0.333249
C171	C	1.391628	0.293126	0.666582
C172	C	0.672685	-0.396164	-0.000069
C173	C	1.006019	-0.062830	0.333264
C174	C	1.339352	0.270503	0.666597
C175	C	0.568127	-0.441406	-0.000030
C176	C	0.901460	-0.108073	0.333303
C177	C	1.234794	0.225261	0.666636
C178	C	0.568844	-0.382004	-0.000030
C179	C	0.902177	-0.048670	0.333303
C180	C	1.235510	0.284663	0.666637
C181	C	0.621123	-0.359381	-0.000046
C182	C	0.954457	-0.026048	0.333287
C183	C	1.287790	0.307286	0.666621
C184	C	0.621832	-0.299995	-0.000070
C185	C	0.955166	0.033339	0.333263
C186	C	1.288499	0.366672	0.666596
N187	N	0.674109	-0.277368	-0.000078
N188	N	1.007442	0.055965	0.333256
N189	N	1.340775	0.389298	0.666589
C190	C	0.725673	-0.314141	-0.000085
C191	C	1.059006	0.019192	0.333249
C192	C	1.392340	0.352525	0.666582
C193	C	0.617491	-0.662324	-0.000043
C194	C	0.950824	-0.328991	0.333291
C195	C	1.284158	0.004343	0.666624
C196	C	0.616778	-0.721722	-0.000048
C197	C	0.950112	-0.388389	0.333285
C198	C	1.283445	-0.055055	0.666619
C199	C	0.720623	-0.735869	-0.000063
C200	C	1.053957	-0.402536	0.333270
C201	C	1.387290	-0.069203	0.666603
C202	C	0.721335	-0.676470	-0.000064
C203	C	1.054669	-0.343137	0.333269
C204	C	1.388002	-0.009804	0.666603
C205	C	0.669767	-0.639698	-0.000050
C206	C	1.003101	-0.306365	0.333283
C207	C	1.336434	0.026969	0.666617
C208	C	0.727163	-0.189405	-0.000102
C209	C	1.060496	0.143929	0.333231
C210	C	1.393829	0.477262	0.666565
C211	C	0.727869	-0.130003	-0.000113
C212	C	1.061203	0.203331	0.333220
C213	C	1.394536	0.536664	0.666553
C214	C	0.624025	-0.115860	-0.000094
C215	C	0.957358	0.217473	0.333240
C216	C	1.290692	0.550806	0.666573
C217	C	0.623318	-0.175257	-0.000087
C218	C	0.956651	0.158076	0.333247
C219	C	1.289985	0.491409	0.666580
C220	C	0.674891	-0.212029	-0.000088
C221	C	1.008225	0.121305	0.333245
C222	C	1.341558	0.454638	0.666579
O223	O	0.578070	-0.263215	-0.000091
O224	O	0.911403	0.070118	0.333243
O225	O	1.244736	0.403451	0.666576
O226	O	0.770196	-0.289433	-0.000081
O227	O	1.103529	0.043900	0.333252
O228	O	1.436863	0.377233	0.666585
C229	C	0.667577	0.178283	-0.000062
C230	C	1.000910	0.511616	0.333271
C231	C	1.334244	0.844949	0.666604
C232	C	0.668343	0.241500	-0.000051
C233	C	1.001676	0.574833	0.333283
C234	C	1.335010	0.908167	0.666616
N235	N	0.672311	0.074127	-0.195748
N236	N	1.005644	0.407460	0.137585
N237	N	1.338978	0.740794	0.470918
C238	C	0.711260	0.035206	-0.239025
C239	C	1.044593	0.368539	0.094308
C240	C	1.377926	0.701872	0.427642
C241	C	0.711262	0.035205	-0.325572
C242	C	1.044596	0.368538	0.007761
C243	C	1.377929	0.701872	0.341095
C244	C	0.672319	0.074129	-0.368841
C245	C	1.005652	0.407462	-0.035507
C246	C	1.338986	0.740795	0.297826
C247	C	0.633367	0.113052	-0.325558
C248	C	0.966700	0.446385	0.007775
C249	C	1.300033	0.779718	0.341109
C250	C	0.633361	0.113049	-0.239012
C251	C	0.966695	0.446383	0.094321
C252	C	1.300028	0.779716	0.427654
C253	C	0.633386	0.113062	-0.674586
C254	C	0.966719	0.446396	-0.341253
C255	C	1.300053	0.779729	-0.007919
C256	C	0.633395	0.113063	-0.761138
C257	C	0.966729	0.446396	-0.427804
C258	C	1.300062	0.779730	-0.094471
C259	C	0.711287	0.035218	-0.761146
C260	C	1.044620	0.368552	-0.427813
C261	C	1.377954	0.701885	-0.094479
C262	C	0.711282	0.035216	-0.674600
C263	C	1.044615	0.368549	-0.341267
C264	C	1.377949	0.701882	-0.007934
C265	C	0.672328	0.074136	-0.631325
C266	C	1.005661	0.407470	-0.297992
C267	C	1.338994	0.740803	0.035342
C268	C	0.672324	0.074136	-0.537481
C269	C	1.005658	0.407469	-0.204148
C270	C	1.338991	0.740803	0.129186
C271	C	0.672325	0.074132	-0.462683
C272	C	1.005658	0.407466	-0.129350
C273	C	1.338991	0.740799	0.203983
N274	N	0.672342	0.074139	0.195584
N275	N	1.005675	0.407472	0.528917
N276	N	1.339008	0.740805	0.862251
H277	H	-0.167632	0.164421	-0.000082
H278	H	0.165701	0.497754	0.333251
H279	H	0.499035	0.831087	0.666585
Cl280	Cl	0.760242	-0.013717	-0.620209
Cl281	Cl	1.093576	0.319617	-0.286875
Cl282	Cl	1.426909	0.652950	0.046458
H283	H	0.742974	0.003512	-0.203801
H284	H	1.076307	0.336845	0.129532
H285	H	1.409641	0.670179	0.462865
H286	H	0.206289	0.220908	-0.000049
H287	H	0.539622	0.554241	0.333285
H288	H	0.872956	0.887574	0.666618
H289	H	-0.141947	-0.023982	-0.000106
H290	H	0.191387	0.309351	0.333228
H291	H	0.524720	0.642685	0.666561
Cl292	Cl	0.528568	-0.038984	-0.000087
Cl293	Cl	0.861901	0.294349	0.333246
Cl294	Cl	1.195235	0.627683	0.666580
H295	H	0.582043	-0.085909	-0.000091
H296	H	0.915376	0.247424	0.333242
H297	H	1.248709	0.580757	0.666576
H298	H	0.580748	-0.193677	-0.000097
H299	H	0.914081	0.139656	0.333237
H300	H	1.247414	0.472989	0.666570
Cl301	Cl	0.785447	-0.782109	-0.000066
Cl302	Cl	1.118781	-0.448776	0.333267
Cl303	Cl	1.452114	-0.115443	0.666600
H304	H	0.601669	0.144754	-0.639358
H305	H	0.935002	0.478087	-0.306025
H306	H	1.268336	0.811421	0.027309
H307	H	0.819097	-0.391900	-0.000101
H308	H	1.152430	-0.058567	0.333233
H309	H	1.485763	0.274767	0.666566
H310	H	0.404512	-0.017441	-0.000079
H311	H	0.737845	0.315892	0.333254
H312	H	1.071178	0.649225	0.666588
Cl313	Cl	0.551053	-0.750154	-0.000044
Cl314	Cl	0.884386	-0.416821	0.333289
Cl315	Cl	1.217719	-0.083487	0.666623
Cl316	Cl	0.760226	-0.013726	-0.379979
Cl317	Cl	1.093560	0.319608	-0.046646
Cl318	Cl	1.426893	0.652941	0.286688
Cl319	Cl	0.584406	0.161983	-0.379951
Cl320	Cl	0.917739	0.495316	-0.046618
Cl321	Cl	1.251072	0.828649	0.286716
Cl322	Cl	0.840647	-0.515929	-0.000093
Cl323	Cl	1.173980	-0.182596	0.333240
Cl324	Cl	1.507314	0.150738	0.666573
H325	H	0.601645	0.144742	-0.203777
H326	H	0.934978	0.478075	0.129556
H327	H	1.268312	0.811409	0.462890
Cl328	Cl	0.791999	-0.235622	-0.000105
Cl329	Cl	1.125332	0.097711	0.333228
Cl330	Cl	1.458666	0.431044	0.666562
Cl331	Cl	0.496622	0.195408	-0.000024
Cl332	Cl	0.829955	0.528742	0.333309
Cl333	Cl	1.163289	0.862075	0.666643
Cl334	Cl	0.760257	-0.013714	-0.815554
Cl335	Cl	1.093591	0.319619	-0.482221
Cl336	Cl	1.426924	0.652953	-0.148887
Cl337	Cl	0.584433	0.161999	-0.815532
Cl338	Cl	0.917767	0.495332	-0.482199
Cl339	Cl	1.251100	0.828665	-0.148865
H340	H	0.378851	0.170970	-0.000058
H341	H	0.712185	0.504303	0.333276
H342	H	1.045518	0.837637	0.666609
Cl343	Cl	0.552656	-0.616101	-0.000035
Cl344	Cl	0.885989	-0.282768	0.333299
Cl345	Cl	1.219323	0.050566	0.666632
Cl346	Cl	-0.049848	0.188872	-0.000068
Cl347	Cl	0.283485	0.522205	0.333265
Cl348	Cl	0.616819	0.855538	0.666599
Cl349	Cl	-0.017912	-0.045533	-0.000122
Cl350	Cl	0.315421	0.287800	0.333211
Cl351	Cl	0.648755	0.621134	0.666545
Cl352	Cl	0.082260	0.242458	-0.000056
Cl353	Cl	0.415593	0.575791	0.333278
Cl354	Cl	0.748927	0.909125	0.666611
Cl355	Cl	0.787061	-0.648037	-0.000083
Cl356	Cl	1.120394	-0.314704	0.333251
Cl357	Cl	1.453727	0.018630	0.666584
Cl358	Cl	0.128358	-0.095789	-0.000138
Cl359	Cl	0.461692	0.237544	0.333196
Cl360	Cl	0.795025	0.570877	0.666529
H361	H	0.246123	-0.071339	-0.000145
H362	H	0.579457	0.261994	0.333188
H363	H	0.912790	0.595327	0.666522
H364	H	0.526850	-0.352066	-0.000018
H365	H	0.860183	-0.018732	0.333316
H366	H	1.193516	0.314601	0.666649
Cl367	Cl	0.793597	-0.101567	-0.000132
Cl368	Cl	1.126931	0.231766	0.333202
Cl369	Cl	1.460264	0.565100	0.666535
Cl370	Cl	0.502400	-0.469831	-0.000005
Cl371	Cl	0.835733	-0.136497	0.333328
Cl372	Cl	1.169066	0.196836	0.666662
