data_functionalizedCrystal
_audit_creation_method	'MofGen! by Chris Wilmer'
_symmetry_space_group_name_H-M	'P1'
_symmetry_Int_Tables_number	1
_symmetry_cell_setting	triclinic
loop_
_symmetry_equiv_pos_as_xyz
  x,y,z
_cell_length_a	10.654550
_cell_length_b	14.519709
_cell_length_c	9.730223
_cell_angle_alpha	89.997715
_cell_angle_beta	89.996251
_cell_angle_gamma	84.082524
loop_
_atom_site_label
_atom_site_type_symbol
_atom_site_fract_x
_atom_site_fract_y
_atom_site_fract_z
O1	O	1.666589	0.129528	-0.114406
O2	O	1.300991	0.141869	-0.114384
O3	O	1.493483	0.001510	-0.114384
O4	O	1.474097	0.269887	-0.114407
O5	O	1.493481	0.001514	0.114196
O6	O	1.300989	0.141873	0.114195
O7	O	1.666586	0.129532	0.114174
Zn8	Zn	1.483787	0.135703	0.150477
Zn9	Zn	1.483790	0.135698	-0.150687
O10	O	1.474094	0.269890	0.114173
C11	C	1.254201	0.140965	-0.000092
C12	C	1.114784	0.138254	-0.000083
C13	C	1.034504	0.220895	-0.000110
C14	C	0.903507	0.218342	-0.000134
C15	C	0.933085	0.050500	-0.000108
C16	C	1.064078	0.053054	-0.000075
C17	C	1.017426	0.317797	-0.000131
C18	C	0.886430	0.315244	-0.000154
C19	C	1.492579	-0.032852	-0.000093
C20	C	1.489871	-0.135247	-0.000092
C21	C	1.479904	-0.510195	-0.000127
C22	C	1.482672	-0.405873	-0.000117
C23	C	1.484887	-0.322725	-0.000109
C24	C	1.487656	-0.218396	-0.000101
C25	C	1.713377	0.130436	-0.000122
C26	C	1.852794	0.133147	-0.000140
C27	C	1.474999	0.304253	-0.000120
C28	C	1.477707	0.406648	-0.000130
N29	N	1.483795	0.135705	0.356013
N30	N	1.483793	0.135688	-0.356224
C31	C	1.569052	0.073576	0.427939
C32	C	1.569048	0.073565	0.571822
C33	C	1.398527	0.197821	0.571840
C34	C	1.398525	0.197827	0.427959
C35	C	1.667505	0.001840	0.427931
C36	C	1.667502	0.001829	0.571814
H37	H	0.844347	0.351754	-0.095825
O38	O	1.059404	0.354667	-0.117919
C39	C	1.004116	0.421207	-0.339381
C40	C	0.956401	0.379494	-0.206040
H41	H	0.920866	0.441273	-0.410675
H42	H	1.053013	0.485304	-0.313769
H43	H	1.073820	0.367856	-0.392453
H44	H	0.886653	0.432776	-0.152902
H45	H	0.907578	0.315379	-0.231741
O46	O	1.315754	0.258291	0.641578
C47	C	1.242548	0.418146	0.685679
C48	C	1.336342	0.349765	0.606597
H49	H	1.259179	0.492118	0.657448
H50	H	1.141918	0.405514	0.657361
H51	H	1.257169	0.407422	0.800863
H52	H	1.321837	0.360448	0.491394
H53	H	1.436938	0.362414	0.635029
H54	H	1.637633	-0.065157	0.616437
H55	H	1.758473	0.024302	0.383297
H56	H	0.840476	0.344531	0.098527
H57	H	1.046392	0.355697	0.095532
H58	H	1.329091	0.248409	0.369398
O59	O	1.642661	-0.082760	0.381567
C60	C	1.597564	-0.236951	0.441648
C61	C	1.625658	-0.141182	0.494340
H62	H	1.583835	-0.284217	0.532797
H63	H	1.508095	-0.229194	0.376617
H64	H	1.680060	-0.268358	0.376502
H65	H	1.543240	-0.109721	0.559543
H66	H	1.715170	-0.148998	0.559296
O67	O	1.782508	0.020725	0.618173
C68	C	1.992110	0.055039	0.558085
C69	C	1.861921	0.033674	0.505397
H70	H	2.056360	0.065495	0.466933
H71	H	1.980863	0.120674	0.623135
H72	H	2.035516	-0.005309	0.623210
H73	H	1.818442	0.093964	0.440216
H74	H	1.873250	-0.031992	0.440422
H75	H	1.129439	-0.014241	-0.000033
H76	H	0.891784	-0.018867	-0.000123
