data_functionalizedCrystal
_audit_creation_method	'MofGen! by Chris Wilmer'
_symmetry_space_group_name_H-M	'P1'
_symmetry_Int_Tables_number	1
_symmetry_cell_setting	triclinic
loop_
_symmetry_equiv_pos_as_xyz
  x,y,z
_cell_length_a	19.188930
_cell_length_b	9.065218
_cell_length_c	7.540329
_cell_angle_alpha	89.998312
_cell_angle_beta	90.008296
_cell_angle_gamma	95.919667
loop_
_atom_site_label
_atom_site_type_symbol
_atom_site_fract_x
_atom_site_fract_y
_atom_site_fract_z
O1	O	0.102369	-1.956844	0.147510
O2	O	0.602369	-1.456844	0.647510
O3	O	0.110766	-1.527268	0.147515
O4	O	0.610766	-1.027268	0.647515
O5	O	0.005008	-1.754453	0.147478
O6	O	0.505008	-1.254453	0.647478
O7	O	0.208127	-1.729659	0.147547
O8	O	0.708127	-1.229659	0.647547
O9	O	0.005007	-1.754445	-0.147487
O10	O	0.505007	-1.254445	0.352513
O11	O	0.110765	-1.527260	-0.147450
O12	O	0.610765	-1.027260	0.352550
O13	O	0.102368	-1.956836	-0.147455
O14	O	0.602368	-1.456836	0.352545
Cu15	Cu	0.106567	-1.742048	-0.174385
Cu16	Cu	0.606567	-1.242048	0.325615
Cu17	Cu	0.106568	-1.742057	0.174445
Cu18	Cu	0.606568	-1.242057	0.674445
O19	O	0.208126	-1.729652	-0.147418
O20	O	0.708126	-1.229652	0.352582
C21	C	-0.021009	-1.753646	-0.000010
C22	C	0.478991	-1.253646	0.499990
C23	C	-0.098533	-1.751236	-0.000025
C24	C	0.401467	-1.251236	0.499975
C25	C	0.109959	-1.472305	0.000032
C26	C	0.609959	-0.972305	0.500032
C27	C	0.107546	-1.308546	0.000033
C28	C	0.607546	-0.808546	0.500033
N29	N	0.106566	-1.742052	-0.419734
N30	N	0.606566	-1.242052	0.080266
C31	C	-0.142421	-1.884540	-0.000035
C32	C	0.357579	-1.384540	0.499965
C33	C	-0.215262	-1.882276	-0.000006
C34	C	0.284738	-1.382276	0.499994
C35	C	-0.244212	-1.746699	-0.000004
C36	C	0.255788	-1.246699	0.499996
C37	C	-0.200314	-1.613377	0.000016
C38	C	0.299686	-1.113377	0.500016
C39	C	-0.127474	-1.615646	0.000006
C40	C	0.372526	-1.115646	0.500006
N41	N	-0.353023	-1.643065	-0.100385
N42	N	0.146977	-1.143065	0.399615
N43	N	-0.422218	-1.640919	-0.100379
N44	N	0.077782	-1.140919	0.399621
C45	C	-0.463674	-1.739858	0.000032
C46	C	0.036326	-1.239858	0.500032
N47	N	-0.433322	-1.841045	0.100414
N48	N	0.066678	-1.341045	0.600414
N49	N	-0.364121	-1.843195	0.100400
N50	N	0.135879	-1.343195	0.600400
C51	C	-0.323194	-1.744225	0.000009
C52	C	0.176806	-1.244225	0.500009
C53	C	-0.586546	-1.870716	0.000056
C54	C	-0.086546	-1.370716	0.500056
C55	C	-0.659388	-1.868446	0.000095
C56	C	-0.159388	-1.368446	0.500095
C57	C	-0.644438	-1.599544	0.000100
C58	C	-0.144438	-1.099544	0.500100
C59	C	-0.571598	-1.601818	0.000078
C60	C	-0.071598	-1.101818	0.500078
C61	C	-0.542656	-1.737408	0.000048
C62	C	-0.042656	-1.237408	0.500048
C63	C	0.234144	-1.730458	0.000074
C64	C	0.734144	-1.230458	0.500074
C65	C	0.311667	-1.732869	0.000101
C66	C	0.811667	-1.232869	0.500101
C67	C	0.103176	-2.011799	0.000032
C68	C	0.603176	-1.511799	0.500032
C69	C	0.105589	-2.175558	0.000043
C70	C	0.605589	-1.675558	0.500043
N71	N	0.106563	-1.742064	0.419794
N72	N	0.606563	-1.242064	0.919794
H73	H	-0.251003	-1.990832	-0.000007
H74	H	0.248997	-1.490832	0.499993
H75	H	-0.091740	-1.507089	0.000013
H76	H	0.408260	-1.007089	0.500013
H77	H	-0.535863	-1.493266	0.000076
H78	H	-0.035863	-0.993266	0.500076
H79	H	-0.223890	-1.502990	0.000022
H80	H	0.276110	-1.002990	0.500022
H81	H	-0.562980	-1.981122	0.000039
H82	H	-0.062980	-1.481122	0.500039
H83	H	-0.695122	-1.977004	0.000097
H84	H	-0.195122	-1.477004	0.500097
H85	H	-0.668009	-1.489155	0.000111
H86	H	-0.168009	-0.989155	0.500111
O87	O	-0.111213	-2.030788	-0.000038
O88	O	0.388787	-1.530788	0.499962
H89	H	-0.078398	-2.038268	-0.120269
H90	H	0.421602	-1.538268	0.379731
