data_functionalizedCrystal
_audit_creation_method	'MofGen! by Chris Wilmer'
_symmetry_space_group_name_H-M	'P1'
_symmetry_Int_Tables_number	1
_symmetry_cell_setting	triclinic
loop_
_symmetry_equiv_pos_as_xyz
  x,y,z
_cell_length_a	14.908795
_cell_length_b	14.908520
_cell_length_c	12.759393
_cell_angle_alpha	86.737527
_cell_angle_beta	93.321554
_cell_angle_gamma	96.791092
loop_
_atom_site_label
_atom_site_type_symbol
_atom_site_fract_x
_atom_site_fract_y
_atom_site_fract_z
Zn1	Zn	1.363072	-0.280560	0.704629
Zn2	Zn	1.863072	0.219440	1.204629
Zn3	Zn	1.354225	-0.431956	0.538514
Zn4	Zn	1.854225	0.068044	1.038514
Zn5	Zn	1.211692	-0.289330	0.519360
Zn6	Zn	1.711692	0.210670	1.019360
Zn7	Zn	1.202933	-0.440604	0.704545
Zn8	Zn	1.702933	0.059396	1.204545
O9	O	1.282981	-0.360613	0.616762
O10	O	1.782981	0.139387	1.116762
O11	O	1.488568	-0.293354	0.690645
O12	O	1.988568	0.206646	1.190645
O13	O	1.335281	-0.413088	0.388953
O14	O	1.835281	0.086912	0.888953
O15	O	1.239142	-0.161498	0.535955
O16	O	1.739142	0.338502	1.035955
O17	O	1.482068	-0.404584	0.568601
O18	O	1.982068	0.095416	1.068601
O19	O	1.350360	-0.155055	0.672072
O20	O	1.850360	0.344945	1.172072
O21	O	1.230563	-0.308301	0.374881
O22	O	1.730563	0.191699	0.874881
O23	O	1.083861	-0.316686	0.535874
O24	O	1.583861	0.183314	1.035874
O25	O	1.224213	-0.419323	0.851576
O26	O	1.724213	0.080677	1.351576
O27	O	1.077425	-0.427827	0.671928
O28	O	1.577425	0.072173	1.171928
O29	O	1.341866	-0.301739	0.851638
O30	O	1.841866	0.198261	1.351638
O31	O	1.326787	-0.559772	0.568520
O32	O	1.826787	-0.059772	1.068520
O33	O	1.215633	-0.566126	0.690502
O34	O	1.715633	-0.066126	1.190502
C35	C	1.047799	-0.374147	0.601814
C36	C	1.547799	0.125853	1.101814
C37	C	0.947186	-0.379959	0.595446
C38	C	1.447186	0.120041	1.095446
C39	C	1.269324	-0.595791	0.631604
C40	C	1.769324	-0.095791	1.131604
C41	C	1.263565	-0.696397	0.637994
C42	C	1.763565	-0.196397	1.137994
C43	C	0.802000	-0.445966	0.522818
C44	C	1.302000	0.054034	1.022818
C45	C	0.896534	-0.440509	0.528802
C46	C	1.396534	0.059491	1.028802
C47	C	0.903298	-0.324861	0.656108
C48	C	1.403298	0.175139	1.156108
C49	C	0.808763	-0.330318	0.650125
C50	C	1.308763	0.169682	1.150125
C51	C	0.758117	-0.390873	0.583479
C52	C	1.258117	0.109127	1.083479
C53	C	0.663581	-0.396334	0.577502
C54	C	1.163581	0.103666	1.077502
C55	C	0.670346	-0.280683	0.704802
C56	C	1.170346	0.219317	1.204802
C57	C	0.764880	-0.275226	0.710785
C58	C	1.264880	0.224774	1.210785
C59	C	1.368606	-0.878762	0.523098
C60	C	1.868606	-0.378762	1.023098
C61	C	1.363197	-0.973290	0.529099
C62	C	1.863197	-0.473290	1.029099
C63	C	1.247345	-0.979982	0.656002
C64	C	1.747345	-0.479982	1.156002
C65	C	1.252753	-0.885454	0.650001
C66	C	1.752753	-0.385454	1.150001
C67	C	1.313385	-0.834847	0.583546
C68	C	1.813385	-0.334847	1.083546
C69	C	1.318788	-0.740318	0.577540
C70	C	1.818788	-0.240318	1.077540
C71	C	1.202941	-0.747012	0.704448
C72	C	1.702941	-0.247012	1.204448
C73	C	1.197532	-0.841540	0.710449
C74	C	1.697532	-0.341540	1.210449
C75	C	1.519080	-0.347026	0.631769
C76	C	2.019080	0.152974	1.131769
C77	C	1.619692	-0.341236	0.638164
C78	C	2.119692	0.158764	1.138164
C79	C	1.283049	-0.360518	0.890794
C80	C	1.783049	0.139482	1.390794
C81	C	1.283079	-0.360477	1.007570
C82	C	1.783079	0.139523	1.507570
C83	C	1.296715	-0.124514	0.601886
C84	C	1.796715	0.375486	1.101886
C85	C	1.302568	-0.023903	0.595547
C86	C	1.802568	0.476097	1.095547
C87	C	1.282968	-0.360639	0.343796
C88	C	1.782968	0.139361	0.843796
C89	C	1.283129	-0.360414	0.227015
C90	C	1.783129	0.139586	0.727015
C91	C	1.344349	-0.299245	1.062466
C92	C	1.844349	0.200755	1.562466
C93	C	1.344373	-0.299211	1.172189
C94	C	1.844373	0.200789	1.672189
C95	C	1.221852	-0.421649	1.172111
C96	C	1.721852	0.078351	1.672111
C97	C	1.221825	-0.421678	1.062389
C98	C	1.721825	0.078322	1.562389
C99	C	1.415088	-0.228559	1.062512
C100	C	1.915088	0.271441	1.562512
C101	C	1.415112	-0.228525	1.172236
C102	C	1.915112	0.271475	1.672236
H103	H	0.622346	-0.445645	0.523238
H104	H	1.122346	0.054355	1.023238
Cl105	Cl	0.738327	-0.522107	0.439059
Cl106	Cl	1.238327	-0.022107	0.939059
H107	H	1.368155	-0.699115	0.523426
H108	H	1.868155	-0.199115	1.023426
H109	H	0.634607	-0.235824	0.754198
H110	H	1.134607	0.264176	1.254198
Cl111	Cl	0.951698	-0.509768	0.452537
Cl112	Cl	1.451698	-0.009768	0.952537
H113	H	0.944550	-0.275555	0.710362
H114	H	1.444550	0.224445	1.210362
H115	H	1.408165	-1.009041	0.479878
H116	H	1.908165	-0.509041	0.979878
H117	H	1.400388	-0.159541	1.027134
H118	H	1.900388	0.340459	1.527134
H119	H	1.157973	-0.711246	0.753665
H120	H	1.657973	-0.211246	1.253665
H121	H	0.806129	-0.225921	0.765044
H122	H	1.306129	0.274079	1.265044
H123	H	1.417968	-0.837557	0.468980
H124	H	1.917968	-0.337557	0.968980
Cl125	Cl	1.144852	-0.498583	1.241035
Cl126	Cl	1.644852	0.001417	1.741035
H127	H	1.197988	-1.021202	0.710113
H128	H	1.697988	-0.521202	1.210113
Cl129	Cl	1.144782	-0.498645	0.993378
Cl130	Cl	1.644782	0.001355	1.493378
Cl131	Cl	1.515631	-0.261431	1.018933
Cl132	Cl	2.015631	0.238569	1.518933
H133	H	1.148170	-0.882756	0.764557
H134	H	1.648170	-0.382756	1.264557
Cl135	Cl	1.382200	-0.127984	1.215847
Cl136	Cl	1.882200	0.372016	1.715847
Cl137	Cl	1.521674	-0.251263	1.226924
Cl138	Cl	2.021674	0.248737	1.726924
