data_functionalizedCrystal
_audit_creation_method	'MofGen! by Chris Wilmer'
_symmetry_space_group_name_H-M	'P1'
_symmetry_Int_Tables_number	1
_symmetry_cell_setting	triclinic
loop_
_symmetry_equiv_pos_as_xyz
  x,y,z
_cell_length_a	17.699099
_cell_length_b	17.699083
_cell_length_c	16.776229
_cell_angle_alpha	90.007545
_cell_angle_beta	89.993452
_cell_angle_gamma	96.713817
loop_
_atom_site_label
_atom_site_type_symbol
_atom_site_fract_x
_atom_site_fract_y
_atom_site_fract_z
O1	O	1.004071	-0.095769	-0.066279
O2	O	1.504071	0.404231	0.433721
O3	O	0.783694	-0.108209	-0.066283
O4	O	1.283694	0.391791	0.433717
O5	O	0.900109	0.008200	-0.066274
O6	O	1.400109	0.508200	0.433726
O7	O	0.887657	-0.212178	-0.066288
O8	O	1.387657	0.287822	0.433712
O9	O	0.900093	0.008207	0.066303
O10	O	1.400093	0.508207	0.566303
O11	O	0.783679	-0.108202	0.066294
O12	O	1.283679	0.391798	0.566294
O13	O	1.004056	-0.095762	0.066298
O14	O	1.504056	0.404238	0.566298
Zn15	Zn	0.893865	-0.101981	0.087345
Zn16	Zn	1.393865	0.398019	0.587345
Zn17	Zn	0.893885	-0.101990	-0.087330
Zn18	Zn	1.393885	0.398010	0.412670
O19	O	0.887641	-0.212171	0.066289
O20	O	1.387641	0.287829	0.566289
C21	C	0.755490	-0.107758	0.000005
C22	C	1.255490	0.392242	0.500005
C23	C	0.671472	-0.106414	0.000004
C24	C	1.171472	0.393586	0.500004
C25	C	0.899655	0.036400	0.000015
C26	C	1.399655	0.536400	0.500015
C27	C	0.898316	0.120419	0.000015
C28	C	1.398316	0.620419	0.500015
N29	N	0.893857	-0.101974	0.206556
N30	N	1.393857	0.398026	0.706556
C31	C	1.032260	-0.096213	0.000008
C32	C	1.532260	0.403787	0.500008
C33	C	1.116278	-0.097556	0.000005
C34	C	1.616278	0.402444	0.500005
C35	C	1.155753	-0.098192	-0.072264
C36	C	1.655753	0.401808	0.427736
C37	C	1.234697	-0.099448	-0.072265
C38	C	1.734697	0.400552	0.427735
C39	C	1.274164	-0.100073	0.000004
C40	C	1.774164	0.399927	0.500004
C41	C	1.234683	-0.099435	0.072277
C42	C	1.734683	0.400565	0.572277
C43	C	1.155741	-0.098174	0.072278
C44	C	1.655741	0.401826	0.572278
C45	C	1.553048	-0.104520	0.072278
C46	C	2.053048	0.395480	0.572278
C47	C	1.631995	-0.105784	0.072273
C48	C	2.131995	0.394216	0.572273
C49	C	1.632004	-0.105795	-0.072264
C50	C	2.132004	0.394205	0.427736
C51	C	1.553062	-0.104533	-0.072264
C52	C	2.053062	0.395467	0.427736
C53	C	1.513588	-0.103891	0.000010
C54	C	2.013588	0.396109	0.500010
C55	C	1.427988	-0.102528	0.000010
C56	C	1.927988	0.397472	0.500010
C57	C	1.359762	-0.101442	0.000004
C58	C	1.859762	0.398558	0.500004
C59	C	0.888095	-0.240371	-0.000001
C60	C	1.388095	0.259629	0.499999
C61	C	0.889434	-0.324389	-0.000007
C62	C	1.389434	0.175611	0.499993
C63	C	0.966649	0.169036	0.000018
C64	C	1.466649	0.669036	0.500018
C65	C	0.965387	0.247979	0.000011
C66	C	1.465387	0.747979	0.500011
C67	C	0.895791	0.278304	0.000007
C68	C	1.395791	0.778304	0.500007
C69	C	0.827453	0.229680	0.000002
C70	C	1.327453	0.729680	0.500002
C71	C	0.828716	0.150739	0.000003
C72	C	1.328716	0.650739	0.500003
C73	C	0.822358	0.548044	-0.000005
C74	C	1.322358	1.048044	0.499995
C75	C	0.821100	0.626992	-0.000004
C76	C	1.321100	1.126992	0.499996
C77	C	0.959029	0.645284	0.000003
C78	C	1.459029	1.145284	0.500003
C79	C	0.960292	0.566342	0.000004
C80	C	1.460292	1.066342	0.500004
C81	C	0.891954	0.517726	-0.000005
C82	C	1.391954	1.017726	0.499995
C83	C	0.893324	0.432127	0.000001
C84	C	1.393324	0.932127	0.500001
C85	C	0.894421	0.363902	0.000006
C86	C	1.394421	0.863902	0.500006
N87	N	0.893899	-0.101991	-0.206541
N88	N	1.393899	0.398009	0.293459
C89	C	0.945421	-0.050449	0.248278
C90	C	1.445421	0.449551	0.748278
C91	C	0.945425	-0.050448	0.331730
C92	C	1.445425	0.449552	0.831730
C93	C	0.893868	-0.101977	0.373459
C94	C	1.393868	0.398023	0.873459
C95	C	0.842298	-0.153504	0.331732
C96	C	1.342298	0.346496	0.831732
C97	C	0.842291	-0.153500	0.248282
C98	C	1.342291	0.346500	0.748282
C99	C	0.842326	-0.153519	0.668280
C100	C	1.342326	0.346481	1.168280
C101	C	0.842338	-0.153520	0.751736
C102	C	1.342338	0.346480	1.251736
C103	C	0.945459	-0.050467	0.751728
C104	C	1.445459	0.449533	1.251728
C105	C	0.945452	-0.050463	0.668277
C106	C	1.445452	0.449537	1.168277
C107	C	0.893880	-0.101987	0.626557
C108	C	1.393880	0.398013	1.126557
C109	C	0.893875	-0.101987	0.536069
C110	C	1.393875	0.398013	1.036069
C111	C	0.893876	-0.101982	0.463946
C112	C	1.393876	0.398018	0.963946
H113	H	1.123624	-0.097688	-0.131113
H114	H	1.623624	0.402312	0.368887
H115	H	0.764423	0.651678	-0.000005
H116	H	1.264423	1.151678	0.499995
N117	N	0.755008	0.098308	0.000014
N118	N	1.255008	0.598308	0.500014
H119	H	0.752454	0.065156	0.049163
H120	H	1.252454	0.565156	0.549163
H121	H	0.752498	0.065188	-0.049162
H122	H	1.252498	0.565188	0.450838
N123	N	1.001084	0.005109	0.796725
N124	N	1.501084	0.505109	1.296725
H125	H	0.993267	-0.002707	0.855923
H126	H	1.493267	0.497293	1.355923
H127	H	0.992446	0.058793	0.782148
H128	H	1.492446	0.558793	1.282148
N129	N	1.001047	0.005110	0.376739
N130	N	1.501047	0.505110	0.876739
H131	H	1.034490	-0.023792	0.411348
H132	H	1.534490	0.476208	0.911348
H133	H	0.972144	0.038574	0.411333
H134	H	1.472144	0.538574	0.911333
N135	N	1.039089	0.300417	0.000023
N136	N	1.539089	0.800417	0.500023
H137	H	1.041653	0.333570	-0.049125
H138	H	1.541653	0.833570	0.450875
H139	H	1.083325	0.269173	0.000062
H140	H	1.583325	0.769173	0.500062
N141	N	0.786694	-0.209080	0.376744
N142	N	1.286694	0.290920	0.876744
H143	H	0.795306	-0.262787	0.362207
H144	H	1.295306	0.237213	0.862207
H145	H	0.733019	-0.200361	0.362221
H146	H	1.233019	0.299639	0.862221
H147	H	1.266835	-0.099961	-0.131113
H148	H	1.766835	0.400039	0.368887
N149	N	1.032741	0.697718	-0.000001
N150	N	1.532741	1.197718	0.499999
H151	H	1.063102	0.687984	0.049149
H152	H	1.563102	1.187984	0.549149
H153	H	1.021325	0.752308	-0.000036
H154	H	1.521325	1.252308	0.499964
H155	H	0.800352	-0.195482	0.785711
H156	H	1.300352	0.304518	1.285711
N157	N	0.748654	0.495614	-0.000011
N158	N	1.248654	0.995614	0.499989
H159	H	0.704376	0.526806	-0.000010
H160	H	1.204376	1.026806	0.499990
H161	H	0.746167	0.462467	0.049136
H162	H	1.246167	0.962467	0.549136
N163	N	1.510500	-0.103854	-0.150213
N164	N	2.010500	0.396146	0.349787
H165	H	1.483970	-0.056430	-0.153427
H166	H	1.983970	0.443570	0.346573
H167	H	1.471565	-0.150261	-0.153394
H168	H	1.971565	0.349739	0.346606
H169	H	1.023322	0.144352	0.000026
H170	H	1.523322	0.644352	0.500026
N171	N	0.786701	-0.209085	0.623288
N172	N	1.286701	0.290915	1.123288
H173	H	0.754043	-0.241727	0.662388
H174	H	1.254043	0.258273	1.162388
H175	H	0.815600	-0.242512	0.588646
H176	H	1.315600	0.257488	1.088646
N177	N	1.001062	0.005110	0.623269
N178	N	1.501062	0.505110	1.123269
H179	H	1.033729	0.037753	0.662363
H180	H	1.533729	0.537753	1.162363
H181	H	0.972147	0.038536	0.588658
H182	H	1.472147	0.538536	1.088658
H183	H	0.770787	0.254377	-0.000006
H184	H	1.270787	0.754377	0.499994
H185	H	1.016964	0.541657	0.000011
H186	H	1.516964	1.041657	0.500011
H187	H	1.520919	-0.103987	0.131128
H188	H	2.020919	0.396013	0.631128
N189	N	1.674579	-0.106483	-0.150219
N190	N	2.174579	0.393517	0.349781
H191	H	1.730577	-0.107373	-0.139258
H192	H	2.230577	0.392627	0.360742
H193	H	1.667000	-0.059365	-0.181777
H194	H	2.167000	0.440635	0.318223
N195	N	1.674565	-0.106461	0.150223
N196	N	2.174565	0.393539	0.650223
H197	H	1.637581	-0.105861	0.196008
H198	H	2.137581	0.394139	0.696008
H199	H	1.713542	-0.060085	0.153368
H200	H	2.213542	0.439915	0.653368
N201	N	1.277247	-0.100107	0.150226
N202	N	1.777247	0.399893	0.650226
H203	H	1.333246	-0.101006	0.139261
H204	H	1.833246	0.398994	0.639261
H205	H	1.257221	-0.146786	0.181780
H206	H	1.757221	0.353214	0.681780
N207	N	0.786672	-0.209069	0.203278
N208	N	1.286672	0.290931	0.703278
H209	H	0.754012	-0.241714	0.242375
H210	H	1.254012	0.258286	0.742375
H211	H	0.815576	-0.242495	0.168638
H212	H	1.315576	0.257505	0.668638
N213	N	1.001033	0.005124	0.203272
N214	N	1.501033	0.505124	0.703272
H215	H	1.033698	0.037765	0.242369
H216	H	1.533698	0.537765	0.742369
H217	H	0.972121	0.038552	0.168660
H218	H	1.472121	0.538552	0.668660
H219	H	1.123600	-0.097664	0.131126
H220	H	1.623600	0.402336	0.631126
