data_functionalizedCrystal
_audit_creation_method	'MofGen! by Chris Wilmer'
_symmetry_space_group_name_H-M	'P1'
_symmetry_Int_Tables_number	1
_symmetry_cell_setting	triclinic
loop_
_symmetry_equiv_pos_as_xyz
  x,y,z
_cell_length_a	15.995350
_cell_length_b	15.995350
_cell_length_c	14.472310
_cell_angle_alpha	89.998838
_cell_angle_beta	90.009379
_cell_angle_gamma	83.492375
loop_
_atom_site_label
_atom_site_type_symbol
_atom_site_fract_x
_atom_site_fract_y
_atom_site_fract_z
O1	O	-1.110997	-0.107921	-0.076758
O2	O	-0.610997	0.392079	0.423242
O3	O	-0.867221	-0.121248	-0.076776
O4	O	-0.367221	0.378752	0.423224
O5	O	-0.995773	0.007303	-0.076766
O6	O	-0.495773	0.507303	0.423234
O7	O	-0.982445	-0.236472	-0.076769
O8	O	-0.482445	0.263528	0.423231
O9	O	-0.995740	0.007296	0.076916
O10	O	-0.495740	0.507296	0.576916
O11	O	-0.867188	-0.121256	0.076906
O12	O	-0.367188	0.378744	0.576906
O13	O	-1.110963	-0.107928	0.076924
O14	O	-0.610963	0.392072	0.576924
Cu15	Cu	-0.989073	-0.114593	0.090947
Cu16	Cu	-0.489073	0.385407	0.590947
Cu17	Cu	-0.989112	-0.114584	-0.090800
Cu18	Cu	-0.489112	0.385416	0.409200
O19	O	-0.982412	-0.236480	0.076913
O20	O	-0.482412	0.263520	0.576913
C21	C	-0.836010	-0.120701	0.000062
C22	C	-0.336010	0.379299	0.500062
C23	C	-0.743060	-0.119049	0.000055
C24	C	-0.243060	0.380951	0.500055
C25	C	-0.995205	0.038494	0.000073
C26	C	-0.495205	0.538494	0.500073
C27	C	-0.993553	0.131444	0.000068
C28	C	-0.493553	0.631444	0.500068
C29	C	-1.142175	-0.108476	0.000083
C30	C	-0.642175	0.391524	0.500083
C31	C	-1.235125	-0.110127	0.000084
C32	C	-0.735125	0.389873	0.500084
C33	C	-0.405312	-0.113117	0.000074
C34	C	0.094688	0.386883	0.500074
C35	C	-0.452746	-0.021565	0.000418
C36	C	0.047254	0.478435	0.500418
C37	C	-0.549436	-0.023217	0.000065
C38	C	-0.049436	0.476783	0.500065
C39	C	-0.572873	-0.116060	0.000065
C40	C	-0.072873	0.383940	0.500065
C41	C	-0.531804	-0.161212	-0.087692
C42	C	-0.031804	0.338788	0.412308
C43	C	-0.435169	-0.158912	-0.087759
C44	C	0.064831	0.341088	0.412241
C45	C	-0.434792	-0.160812	0.087007
C46	C	0.065208	0.339188	0.587007
C47	C	-0.531737	-0.160790	0.088160
C48	C	-0.031737	0.339210	0.588160
C49	C	-0.667570	-0.117727	0.000057
C50	C	-0.167570	0.382273	0.500057
C51	C	-0.310614	-0.111452	0.000076
C52	C	0.189386	0.388548	0.500076
C53	C	-0.982980	-0.267671	0.000072
C54	C	-0.482980	0.232329	0.500072
C55	C	-0.984631	-0.360621	0.000071
C56	C	-0.484631	0.139379	0.500071
N57	N	-0.989051	-0.114598	0.218778
N58	N	-0.489051	0.385402	0.718778
C59	C	-0.987621	0.469192	0.000071
C60	C	-0.487621	0.969192	0.500071
C61	C	-0.896069	0.421758	-0.000281
C62	C	-0.396069	0.921758	0.499719
C63	C	-0.897721	0.325068	0.000066
C64	C	-0.397721	0.825068	0.500066
C65	C	-0.990564	0.301631	0.000069
C66	C	-0.490564	0.801631	0.500069
C67	C	-1.035701	0.342705	0.087831
C68	C	-0.535701	0.842705	0.587831
C69	C	-1.033401	0.439340	0.087904
C70	C	-0.533401	0.939340	0.587904
C71	C	-1.035330	0.439707	-0.086861
C72	C	-0.535330	0.939707	0.413139
C73	C	-1.035309	0.342762	-0.088021
C74	C	-0.535309	0.842762	0.411979
C75	C	-0.992231	0.206934	0.000071
C76	C	-0.492231	0.706934	0.500071
C77	C	-0.985956	0.563890	0.000075
C78	C	-0.485956	1.063890	0.500075
N79	N	-0.989140	-0.114572	-0.218631
N80	N	-0.489140	0.385428	0.281369
C81	C	-0.989111	-0.114581	0.592869
C82	C	-0.489111	0.385419	1.092869
C83	C	-0.920095	-0.183135	0.553698
C84	C	-0.420095	0.316865	1.053698
C85	C	-0.920254	-0.183385	0.446610
C86	C	-0.420254	0.316615	0.946610
C87	C	-0.989081	-0.114590	0.407278
C88	C	-0.489081	0.385410	0.907278
C89	C	-1.076445	-0.133671	0.446122
C90	C	-0.576445	0.366329	0.946122
C91	C	-1.076057	-0.134159	0.553243
C92	C	-0.576057	0.365841	1.053243
C93	C	-0.971542	-0.026741	0.553398
C94	C	-0.471542	0.473259	1.053398
C95	C	-0.969538	-0.027327	0.446270
C96	C	-0.469538	0.472673	0.946270
C97	C	-0.989069	-0.114593	0.302390
C98	C	-0.489069	0.385407	0.802390
C99	C	-0.989128	-0.114579	0.697757
C100	C	-0.489128	0.385421	1.197757
H101	H	-0.577852	0.012275	0.062973
H102	H	-0.077852	0.512275	0.562973
N103	N	-1.031802	0.043420	0.410827
N104	N	-0.531802	0.543420	0.910827
H105	H	-1.073748	0.019801	0.368805
H106	H	-0.573748	0.519801	0.868805
H107	H	-1.062380	0.073060	0.464724
H108	H	-0.562380	0.573060	0.964724
H109	H	-0.560193	-0.129845	-0.153002
H110	H	-0.060193	0.370155	0.346998
N111	N	-1.124996	0.322424	-0.095037
N112	N	-0.624996	0.822424	0.404963
H113	H	-1.152103	0.349666	-0.152233
H114	H	-0.652103	0.849666	0.347767
H115	H	-1.125433	0.259432	-0.098913
H116	H	-0.625433	0.759432	0.401087
N117	N	-1.124744	0.481770	-0.087635
N118	N	-0.624744	0.981770	0.412365
H119	H	-1.164976	0.437486	-0.085579
H120	H	-0.664976	0.937486	0.414421
H121	H	-1.134253	0.519743	-0.031976
H122	H	-0.634253	1.019743	0.468024
H123	H	-0.434210	0.015027	0.063352
H124	H	0.065790	0.515027	0.563352
H125	H	-0.931473	-0.248569	0.420976
H126	H	-0.431473	0.251431	0.920976
N127	N	-0.989764	0.463580	0.174797
N128	N	-0.489764	0.963580	0.674797
H129	H	-0.930526	0.434036	0.176277
H130	H	-0.430526	0.934036	0.676277
H131	H	-0.987896	0.526477	0.175665
H132	H	-0.487896	1.026477	0.675665
H133	H	-0.433166	0.014865	-0.062168
H134	H	0.066834	0.514865	0.437832
H135	H	-1.129029	-0.085068	0.420643
H136	H	-0.629029	0.414932	0.920643
H137	H	-0.414242	-0.130885	0.153524
H138	H	0.085758	0.369115	0.653524
H139	H	-0.559040	-0.127830	0.153082
H140	H	-0.059040	0.372170	0.653082
H141	H	-0.416874	-0.125979	-0.153359
H142	H	0.083126	0.374021	0.346641
N143	N	-0.550523	-0.251558	-0.092032
N144	N	-0.050523	0.248442	0.407968
H145	H	-0.527196	-0.282572	-0.035185
H146	H	-0.027196	0.217428	0.464815
H147	H	-0.613404	-0.253206	-0.094868
H148	H	-0.113404	0.246794	0.405132
H149	H	-1.100617	0.471588	0.091888
H150	H	-0.600617	0.971588	0.591888
H151	H	-0.402921	-0.226128	-0.091741
H152	H	0.097079	0.273872	0.408259
N153	N	-0.850726	0.287423	-0.083271
N154	N	-0.350726	0.787423	0.416729
H155	H	-0.889951	0.257348	-0.122766
H156	H	-0.389951	0.757348	0.377234
H157	H	-0.828756	0.333682	-0.120484
H158	H	-0.328756	0.833682	0.379516
N159	N	-0.934771	-0.269003	0.589294
N160	N	-0.434771	0.230997	1.089294
H161	H	-0.985928	-0.263688	0.630689
H162	H	-0.485928	0.236312	1.130689
H163	H	-0.944211	-0.306955	0.535419
H164	H	-0.444211	0.193045	1.035419
H165	H	-0.547101	-0.228494	0.093461
H166	H	-0.047101	0.271506	0.593461
N167	N	-0.847789	0.447700	0.082611
N168	N	-0.347789	0.947700	0.582611
H169	H	-0.884963	0.490045	0.120389
H170	H	-0.384963	0.990045	0.620389
H171	H	-0.829523	0.396588	0.121727
H172	H	-0.329523	0.896588	0.621727
H173	H	-0.403031	-0.228313	0.087600
H174	H	0.096969	0.271687	0.587600
H175	H	-1.103909	0.328579	0.091097
H176	H	-0.603909	0.828579	0.591097
H177	H	-0.859490	0.440293	-0.063217
H178	H	-0.359490	0.940293	0.436783
H179	H	-0.861973	0.297200	0.063079
H180	H	-0.361973	0.797200	0.563079
H181	H	-1.004324	0.314320	0.153137
H182	H	-0.504324	0.814320	0.653137
N183	N	-1.096565	-0.219011	0.586337
N184	N	-0.596565	0.280989	1.086337
H185	H	-1.105770	-0.255747	0.531339
H186	H	-0.605770	0.244253	1.031339
H187	H	-1.048312	-0.246533	0.624664
H188	H	-0.548312	0.253467	1.124664
H189	H	-0.909219	-0.008392	0.580461
H190	H	-0.409219	0.491608	1.080461
N191	N	-1.146099	-0.070509	0.587575
N192	N	-0.646099	0.429491	1.087575
H193	H	-1.177095	-0.042265	0.533119
H194	H	-0.677095	0.457735	1.033119
H195	H	-1.186444	-0.099913	0.626260
H196	H	-0.686444	0.400087	1.126260
N197	N	-0.995702	0.466917	-0.174972
N198	N	-0.495702	0.966917	0.325028
H199	H	-0.975489	0.415702	-0.213097
H200	H	-0.475489	0.915702	0.286903
H201	H	-1.038682	0.504658	-0.211350
H202	H	-0.538682	1.004658	0.288650
N203	N	-0.991646	0.306607	-0.174020
N204	N	-0.491646	0.806607	0.325980
H205	H	-0.994016	0.243796	-0.175773
H206	H	-0.494016	0.743796	0.324227
H207	H	-1.020725	0.333357	-0.230403
H208	H	-0.520725	0.833357	0.269597
H209	H	-0.855314	-0.172016	0.420349
H210	H	-0.355314	0.327984	0.920349
N211	N	-1.097446	-0.217558	0.410575
N212	N	-0.597446	0.282442	0.910575
H213	H	-1.052646	-0.263390	0.431107
H214	H	-0.552646	0.236610	0.931107
H215	H	-1.153790	-0.229197	0.435963
H216	H	-0.653790	0.270803	0.935963
H217	H	-0.854945	-0.171953	0.579481
H218	H	-0.354945	0.328047	1.079481
H219	H	-0.905272	-0.012845	0.420883
H220	H	-0.405272	0.487155	0.920883
N221	N	-0.586366	0.024123	-0.083403
N222	N	-0.086366	0.524123	0.416597
H223	H	-0.539824	0.046142	-0.120114
H224	H	-0.039824	0.546142	0.379886
H225	H	-0.616222	-0.014946	-0.123326
H226	H	-0.116222	0.485054	0.376674
H227	H	-1.021872	0.024275	0.578728
H228	H	-0.521872	0.524275	1.078728
