data_functionalizedCrystal
_audit_creation_method	'MofGen! by Chris Wilmer'
_symmetry_space_group_name_H-M	'P1'
_symmetry_Int_Tables_number	1
_symmetry_cell_setting	triclinic
loop_
_symmetry_equiv_pos_as_xyz
  x,y,z
_cell_length_a	15.944551
_cell_length_b	14.519709
_cell_length_c	12.996460
_cell_angle_alpha	90.007090
_cell_angle_beta	89.998907
_cell_angle_gamma	96.410558
loop_
_atom_site_label
_atom_site_type_symbol
_atom_site_fract_x
_atom_site_fract_y
_atom_site_fract_z
O1	O	1.114698	-0.118943	-0.085462
O2	O	0.870170	-0.133608	-0.085488
O3	O	0.998917	0.007974	-0.085465
O4	O	0.985950	-0.260525	-0.085485
O5	O	0.998904	0.007982	0.085669
O6	O	0.870156	-0.133600	0.085646
O7	O	1.114684	-0.118935	0.085672
Cu8	Cu	0.992419	-0.126267	0.101285
Cu9	Cu	0.992435	-0.126276	-0.101101
O10	O	0.985937	-0.260517	0.085649
C11	C	0.838868	-0.132995	0.000076
C12	C	0.745619	-0.131170	0.000066
N13	N	0.992414	-0.126260	0.243632
C14	C	0.998306	0.042337	0.000102
C15	C	0.996495	0.144715	0.000103
C16	C	0.530629	-0.039048	0.000093
C17	C	0.469678	-0.081830	-0.084288
C18	C	0.574889	-0.127868	0.000079
C19	C	0.469687	-0.081844	0.084437
C20	C	0.409971	-0.124672	0.000095
C21	C	0.515165	-0.170674	-0.084372
C22	C	0.515181	-0.170675	0.084428
C23	C	0.454247	-0.213522	0.000027
C24	C	0.669894	-0.129706	0.000069
C25	C	0.314967	-0.122840	0.000098
C26	C	1.145986	-0.119548	0.000106
C27	C	1.239235	-0.121373	0.000109
C28	C	0.986548	-0.294880	0.000080
C29	C	0.988359	-0.397258	0.000073
C30	C	0.989829	0.519599	0.000075
C31	C	0.991680	0.415295	0.000083
C32	C	0.993162	0.332161	0.000090
C33	C	0.995013	0.227849	0.000096
N34	N	0.992447	-0.126276	-0.243448
C35	C	0.992434	-0.126277	0.663446
C36	C	0.992426	-0.126275	0.546641
C37	C	0.992424	-0.126269	0.453543
C38	C	0.992415	-0.126266	0.336730
H39	H	0.449518	-0.044266	-0.155621
H40	H	0.535213	-0.208217	-0.155788
C41	C	0.542459	-0.221376	0.180795
C42	C	0.524828	-0.184084	0.288665
C43	C	0.552111	-0.234774	0.385041
C44	C	0.597027	-0.322756	0.373548
C45	C	0.614661	-0.360053	0.265675
C46	C	0.587377	-0.309363	0.169298
H47	H	0.491576	-0.118950	0.297176
H48	H	0.539057	-0.207164	0.464896
H49	H	0.617224	-0.360280	0.444892
H50	H	0.647913	-0.425187	0.257163
H51	H	0.600432	-0.336973	0.089443
C52	C	0.409587	-0.313201	-0.000040
C53	C	0.350410	-0.346799	0.089222
C54	C	0.305748	-0.446477	0.089150
C55	C	0.320263	-0.512556	-0.000183
C56	C	0.379444	-0.478960	-0.089451
C57	C	0.424105	-0.379282	-0.089380
H58	H	0.339662	-0.297882	0.155358
H59	H	0.261939	-0.471346	0.155233
H60	H	0.287202	-0.586343	-0.000236
H61	H	0.390191	-0.527877	-0.155587
H62	H	0.467914	-0.354412	-0.155463
C63	C	0.442469	-0.031074	0.180810
C64	C	0.381193	-0.082413	0.258658
C65	C	0.353979	-0.031636	0.355024
C66	C	0.388041	0.070481	0.373542
C67	C	0.449320	0.121826	0.295692
C68	C	0.476534	0.071049	0.199325
H69	H	0.355976	-0.158011	0.244952
H70	H	0.308616	-0.069646	0.412654
H71	H	0.367895	0.108069	0.444878
H72	H	0.474538	0.197424	0.309398
H73	H	0.521898	0.109058	0.141695
H74	H	0.563855	0.034665	-0.000006
