data_functionalizedCrystal
_audit_creation_method	'MofGen! by Chris Wilmer'
_symmetry_space_group_name_H-M	'P1'
_symmetry_Int_Tables_number	1
_symmetry_cell_setting	triclinic
loop_
_symmetry_equiv_pos_as_xyz
  x,y,z
_cell_length_a	13.897447
_cell_length_b	25.639242
_cell_length_c	25.639217
_cell_angle_alpha	90.082993
_cell_angle_beta	89.891836
_cell_angle_gamma	89.985443
loop_
_atom_site_label
_atom_site_type_symbol
_atom_site_fract_x
_atom_site_fract_y
_atom_site_fract_z
Zn1	Zn	-0.383361	-0.799601	-0.295781
Zn2	Zn	0.116639	-0.299601	0.204219
Zn3	Zn	-0.544905	-0.799463	-0.208353
Zn4	Zn	-0.044905	-0.299463	0.291647
Zn5	Zn	-0.383611	-0.712087	-0.208343
Zn6	Zn	0.116389	-0.212087	0.291657
Zn7	Zn	-0.544602	-0.712152	-0.295741
Zn8	Zn	-0.044602	-0.212152	0.204259
O9	O	-0.464120	-0.755826	-0.252055
O10	O	0.035880	-0.255826	0.247945
O11	O	-0.404812	-0.872748	-0.284205
O12	O	0.095188	-0.372748	0.215795
O13	O	-0.523740	-0.787788	-0.135186
O14	O	-0.023740	-0.287788	0.364814
O15	O	-0.248596	-0.723727	-0.219954
O16	O	0.251404	-0.223727	0.280046
O17	O	-0.523498	-0.872647	-0.219972
O18	O	-0.023498	-0.372647	0.280028
O19	O	-0.248413	-0.788023	-0.284195
O20	O	0.251587	-0.288023	0.215805
O21	O	-0.405239	-0.723593	-0.135179
O22	O	0.094761	-0.223593	0.364821
O23	O	-0.404945	-0.638930	-0.219915
O24	O	0.095055	-0.138930	0.280085
O25	O	-0.522981	-0.723837	-0.368912
O26	O	-0.022981	-0.223837	0.131088
O27	O	-0.523224	-0.638978	-0.284126
O28	O	-0.023224	-0.138978	0.215874
O29	O	-0.404518	-0.788086	-0.368941
O30	O	0.095482	-0.288086	0.131059
O31	O	-0.679846	-0.787851	-0.219932
O32	O	-0.179846	-0.287851	0.280068
O33	O	-0.679624	-0.723704	-0.284136
O34	O	-0.179624	-0.223704	0.215864
C35	C	-0.464080	-0.619983	-0.252016
C36	C	0.035920	-0.119983	0.247984
C37	C	-0.464086	-0.561869	-0.252011
C38	C	0.035914	-0.061869	0.247989
C39	C	-0.525802	-0.201540	-0.285444
C40	C	-0.025802	0.298460	0.214556
C41	C	-0.525807	-0.146936	-0.285451
C42	C	-0.025807	0.353064	0.214549
O43	O	-0.578238	-0.118728	-0.313853
O44	O	-0.078238	0.381272	0.186147
N45	N	-0.464136	-0.119587	-0.252073
N46	N	0.035864	0.380413	0.247927
C47	C	-0.402449	-0.146845	-0.218690
C48	C	0.097551	0.353155	0.281310
O49	O	-0.349993	-0.118569	-0.190300
O50	O	0.150007	0.381431	0.309700
C51	C	-0.402440	-0.201449	-0.218686
C52	C	0.097560	0.298551	0.281314
C53	C	-0.464122	-0.228795	-0.252062
C54	C	0.035878	0.271205	0.247938
C55	C	-0.587478	-0.228886	-0.318818
C56	C	-0.087478	0.271114	0.181182
C57	C	-0.587474	-0.283487	-0.318810
C58	C	-0.087474	0.216513	0.181190
C59	C	-0.525794	-0.310741	-0.285428
C60	C	-0.025794	0.189259	0.214572
C61	C	-0.464118	-0.283395	-0.252054
C62	C	0.035882	0.216605	0.247946
C63	C	-0.340749	-0.228706	-0.185306
C64	C	0.159251	0.271294	0.314694
C65	C	-0.340745	-0.283313	-0.185305
C66	C	0.159255	0.216687	0.314695
C67	C	-0.402426	-0.310659	-0.218681
C68	C	0.097574	0.189341	0.281319
C69	C	-0.402434	-0.365250	-0.218665
C70	C	0.097566	0.134750	0.281335
N71	N	-0.464105	-0.392599	-0.252043
N72	N	0.035895	0.107401	0.247957
C73	C	-0.525785	-0.365344	-0.285424
C74	C	-0.025785	0.134656	0.214576
C75	C	-0.402472	-0.032175	-0.218701
C76	C	0.097528	0.467825	0.281299
C77	C	-0.402485	0.022428	-0.218702
C78	C	0.097515	0.522428	0.281298
C79	C	-0.525842	0.022333	-0.285464
C80	C	-0.025842	0.522333	0.214536
C81	C	-0.525833	-0.032270	-0.285460
C82	C	-0.025833	0.467730	0.214540
C83	C	-0.464143	-0.059523	-0.252079
C84	C	0.035857	0.440477	0.247921
C85	C	-0.525772	-0.480009	-0.285405
C86	C	-0.025772	0.019991	0.214595
C87	C	-0.525766	-0.534615	-0.285393
C88	C	-0.025766	-0.034615	0.214607
C89	C	-0.402406	-0.534516	-0.218634
C90	C	0.097594	-0.034516	0.281366
C91	C	-0.402416	-0.479915	-0.218644
C92	C	0.097584	0.020085	0.281356
C93	C	-0.464102	-0.452663	-0.252034
C94	C	0.035898	0.047337	0.247966
O95	O	-0.350027	-0.393493	-0.190279
O96	O	0.149973	0.106507	0.309721
O97	O	-0.578223	-0.393627	-0.313814
O98	O	-0.078223	0.106373	0.186186
C99	C	-0.714734	-0.755783	-0.252042
C100	C	-0.214734	-0.255783	0.247958
C101	C	-0.821948	-0.755813	-0.252055
C102	C	-0.321948	-0.255813	0.247945
C103	C	-0.909018	-0.755838	-0.252067
C104	C	-0.409018	-0.255838	0.247933
C105	C	-1.018250	-0.755875	-0.252080
C106	C	-0.518250	-0.255875	0.247920
C107	C	-0.212527	-0.755883	-0.252078
C108	C	0.287473	-0.255883	0.247922
C109	C	-0.105313	-0.755907	-0.252088
C110	C	0.394687	-0.255907	0.247912
C111	C	-0.463688	-0.755984	-0.388428
C112	C	0.036312	-0.255984	0.111572
C113	C	-0.463504	-0.756052	-0.446542
C114	C	0.036496	-0.256052	0.053458
C115	C	-0.464157	0.107801	-0.252088
C116	C	0.035843	0.607801	0.247912
C117	C	-0.464162	0.049687	-0.252086
C118	C	0.035838	0.549687	0.247914
C119	C	-0.464480	-0.755698	-0.116212
C120	C	0.035520	-0.255698	0.383788
C121	C	-0.464392	-0.755732	-0.058098
C122	C	0.035608	-0.255732	0.441902
C123	C	-0.401886	-0.789067	0.192927
C124	C	0.098114	-0.289067	0.692927
C125	C	-0.401965	-0.789038	0.138323
C126	C	0.098035	-0.289038	0.638323
O127	O	-0.349152	-0.817249	0.109943
O128	O	0.150848	-0.317249	0.609943
N129	N	-0.464132	-0.755818	0.111176
N130	N	0.035868	-0.255818	0.611176
C131	C	-0.526218	-0.722622	0.138636
C132	C	-0.026218	-0.222622	0.638636
O133	O	-0.579103	-0.694363	0.110531
O134	O	-0.079103	-0.194363	0.610531
C135	C	-0.526134	-0.722649	0.193239
C136	C	-0.026134	-0.222649	0.693239
C137	C	-0.463969	-0.755875	0.220383
C138	C	0.036031	-0.255875	0.720383
C139	C	-0.339726	-0.822290	0.220072
C140	C	0.160274	-0.322290	0.720072
C141	C	-0.339649	-0.822320	0.274672
C142	C	0.160351	-0.322320	0.774672
C143	C	-0.401732	-0.789127	0.302128
C144	C	0.098268	-0.289127	0.802128
C145	C	-0.463892	-0.755905	0.274984
C146	C	0.036108	-0.255905	0.774984
C147	C	-0.588214	-0.689451	0.220698
C148	C	-0.088214	-0.189451	0.720698
C149	C	-0.588123	-0.689481	0.275305
C150	C	-0.088123	-0.189481	0.775305
C151	C	-0.525959	-0.722706	0.302449
C152	C	-0.025959	-0.222706	0.802449
C153	C	-0.525898	-0.722742	0.357040
C154	C	-0.025898	-0.222742	0.857040
N155	N	-0.463730	-0.755962	0.384188
N156	N	0.036270	-0.255962	0.884188
C157	C	-0.401647	-0.789155	0.356731
C158	C	0.098353	-0.289155	0.856731
C159	C	-0.526389	-0.722567	0.023965
C160	C	-0.026389	-0.222567	0.523965
C161	C	-0.526479	-0.722542	-0.030637
C162	C	-0.026479	-0.222542	0.469363
C163	C	-0.402225	-0.788957	-0.030946
C164	C	0.097775	-0.288957	0.469054
C165	C	-0.402140	-0.788984	0.023657
C166	C	0.097860	-0.288984	0.523657
C167	C	-0.464222	-0.755786	0.051113
C168	C	0.035778	-0.255786	0.551113
C169	C	-0.401490	-0.789216	0.471396
C170	C	0.098510	-0.289216	0.971396
C171	C	-0.401421	-0.789244	0.526002
C172	C	0.098579	-0.289244	1.026002
C173	C	-0.525672	-0.722827	0.526306
C174	C	-0.025672	-0.222827	1.026306
C175	C	-0.525745	-0.722800	0.471705
C176	C	-0.025745	-0.222800	0.971705
C177	C	-0.463646	-0.755996	0.444252
C178	C	0.036354	-0.255996	0.944252
O179	O	-0.578681	-0.694544	0.385455
O180	O	-0.078681	-0.194544	0.885455
O181	O	-0.348763	-0.817404	0.384843
O182	O	0.151237	-0.317404	0.884843
H183	H	-0.637706	-0.206701	-0.346004
H184	H	-0.137706	0.293299	0.153996
H185	H	-0.290523	-0.206450	-0.158126
H186	H	0.209477	0.293550	0.341874
C187	C	-0.655325	-0.313560	-0.355529
C188	C	-0.155325	0.186440	0.144471
N189	N	-0.706432	-0.336208	-0.383190
N190	N	-0.206432	0.163792	0.116810
C191	C	-0.333184	-0.825736	0.441205
C192	C	0.166816	-0.325736	0.941205
N193	N	-0.281741	-0.853245	0.418466
N194	N	0.218259	-0.353245	0.918466
H195	H	-0.576058	-0.054531	-0.312638
H196	H	-0.076058	0.445469	0.187362
H197	H	-0.351519	-0.816038	0.045755
H198	H	0.148481	-0.316038	0.545755
H199	H	-0.290502	-0.305500	-0.158125
H200	H	0.209498	0.194500	0.341875
C201	C	-0.656423	-0.652961	0.305502
C202	C	-0.156423	-0.152961	0.805502
N203	N	-0.707868	-0.625455	0.328246
N204	N	-0.207868	-0.125455	0.828246
C205	C	-0.271249	-0.858863	0.304523
C206	C	0.228751	-0.358863	0.804523
N207	N	-0.219721	-0.886387	0.327004
N208	N	0.280279	-0.386387	0.827004
C209	C	-0.334550	-0.564506	-0.181922
C210	C	0.165450	-0.064506	0.318078
N211	N	-0.283431	-0.587097	-0.154275
N212	N	0.216569	-0.087097	0.345725
H213	H	-0.352267	0.044688	-0.191518
H214	H	0.147733	0.544688	0.308482
H215	H	-0.350799	-0.816302	0.548100
H216	H	0.149201	-0.316302	1.048100
H217	H	-0.351671	-0.815983	-0.053311
H218	H	0.148329	-0.315983	0.446689
H219	H	-0.577110	-0.695492	-0.052733
H220	H	-0.077110	-0.195492	0.447267
C221	C	-0.593955	-0.686315	0.556518
C222	C	-0.093955	-0.186315	1.056518
N223	N	-0.645380	-0.658810	0.579276
N224	N	-0.145380	-0.158810	1.079276
H225	H	-0.638835	-0.662395	0.198607
H226	H	-0.138835	-0.162395	0.698607
H227	H	-0.576949	-0.695532	0.046316
H228	H	-0.076949	-0.195532	0.546316
H229	H	-0.352237	-0.054361	-0.191514
H230	H	0.147763	0.445639	0.308486
H231	H	-0.289165	-0.849319	0.197722
H232	H	0.210835	-0.349319	0.697722
C233	C	-0.594134	-0.686254	0.441846
C234	C	-0.094134	-0.186254	0.941846
N235	N	-0.645640	-0.658723	0.419359
N236	N	-0.145640	-0.158723	0.919359
C237	C	-0.593623	-0.564692	-0.322112
C238	C	-0.093623	-0.064692	0.177888
N239	N	-0.644730	-0.587345	-0.349768
N240	N	-0.144730	-0.087345	0.150232
C241	C	-0.334570	-0.449834	-0.181924
C242	C	0.165430	0.050166	0.318076
N243	N	-0.283462	-0.427180	-0.154270
N244	N	0.216538	0.072820	0.345730
C245	C	-0.593685	0.052324	-0.322188
C246	C	-0.093685	0.552324	0.177812
N247	N	-0.644780	0.074914	-0.349848
N248	N	-0.144780	0.574914	0.150152
C249	C	-0.593638	-0.450040	-0.322132
C250	C	-0.093638	0.049960	0.177868
N251	N	-0.644760	-0.427468	-0.349792
N252	N	-0.144760	0.072532	0.150208
