data_functionalizedCrystal
_audit_creation_method	'MofGen! by Chris Wilmer'
_symmetry_space_group_name_H-M	'P1'
_symmetry_Int_Tables_number	1
_symmetry_cell_setting	triclinic
loop_
_symmetry_equiv_pos_as_xyz
  x,y,z
_cell_length_a	10.489741
_cell_length_b	8.965430
_cell_length_c	10.540539
_cell_angle_alpha	90.002562
_cell_angle_beta	95.467667
_cell_angle_gamma	90.001157
loop_
_atom_site_label
_atom_site_type_symbol
_atom_site_fract_x
_atom_site_fract_y
_atom_site_fract_z
O1	O	1.694032	0.123939	-0.179093
O2	O	1.322834	0.123962	-0.195905
O3	O	1.516902	0.123948	-0.002793
O4	O	1.499964	0.123953	-0.372204
O5	O	1.516885	-0.124131	-0.002806
O6	O	1.322818	-0.124117	-0.195918
O7	O	1.694015	-0.124139	-0.179106
Cu8	Cu	1.508415	-0.146780	-0.187513
Cu9	Cu	1.508434	0.146602	-0.187498
O10	O	1.499948	-0.124126	-0.372217
C11	C	1.275294	-0.000075	-0.194641
C12	C	1.133665	-0.000066	-0.190843
C13	C	1.065540	-0.000081	-0.067971
C14	C	0.973414	0.122232	-0.126008
C15	C	0.973432	-0.122354	-0.126050
C16	C	1.043405	0.122349	-0.248930
C17	C	1.043432	-0.122347	-0.248955
C18	C	0.951334	-0.000004	-0.307081
N19	N	1.508411	-0.353129	-0.187523
C20	C	1.418633	-0.450428	-0.276801
C21	C	1.534126	-0.549849	-0.302487
C22	C	1.392966	-0.549836	-0.161847
C23	C	1.623963	-0.450361	-0.213267
C24	C	1.482726	-0.450339	-0.072577
C25	C	1.598302	-0.549714	-0.098215
C26	C	1.741555	-0.000100	-0.180369
C27	C	1.883184	-0.000099	-0.184168
C28	C	1.515623	-0.000088	0.044503
C29	C	1.511823	-0.000080	0.185452
N30	N	1.508449	0.352951	-0.187478
C31	C	1.501226	-0.000086	-0.419514
C32	C	1.505026	-0.000084	-0.560463
C33	C	1.366206	0.000485	0.368896
C34	C	1.370058	-0.000073	0.222277
C35	C	1.580037	-0.141749	0.247094
C36	C	1.575199	-0.141869	0.393639
C37	C	1.578101	0.140243	0.394172
C38	C	1.579407	0.142116	0.247190
H39	H	0.942413	0.225640	-0.074014
H40	H	1.316383	0.101481	0.179686
Br41	Br	1.095161	-0.294710	-0.335549
Br42	Br	1.501628	0.319213	0.446761
H43	H	1.342781	-0.406835	-0.352370
H44	H	0.901898	0.000064	-0.408195
Br45	Br	1.491146	-0.318362	0.440648
H46	H	1.460940	-0.406595	0.024580
Br47	Br	0.921798	-0.294707	-0.039374
Br48	Br	1.786754	-0.377850	-0.249617
H49	H	1.310212	0.102079	0.397508
Br50	Br	1.570385	-0.622700	-0.464471
H51	H	1.674324	-0.593035	-0.022693
H52	H	1.295321	-0.593535	-0.140151
Br53	Br	1.748767	0.141825	0.472863
Br54	Br	1.272962	-0.167369	0.419852
Br55	Br	1.279938	-0.169603	0.152670
H56	H	1.074234	0.225872	-0.300873
Br57	Br	1.745124	-0.152610	0.473576
Br58	Br	1.753560	-0.150548	0.209823
H59	H	1.682765	0.150665	0.222956
Br60	Br	1.501041	-0.317462	0.176099
Br61	Br	1.496929	0.316826	0.178284
H62	H	1.115242	0.000070	0.033036
