data_functionalizedCrystal
_audit_creation_method	'MofGen! by Chris Wilmer'
_symmetry_space_group_name_H-M	'P1'
_symmetry_Int_Tables_number	1
_symmetry_cell_setting	triclinic
loop_
_symmetry_equiv_pos_as_xyz
  x,y,z
_cell_length_a	6.817900
_cell_length_b	7.190339
_cell_length_c	12.530095
_cell_angle_alpha	82.928836
_cell_angle_beta	90.000194
_cell_angle_gamma	119.388276
loop_
_atom_site_label
_atom_site_type_symbol
_atom_site_fract_x
_atom_site_fract_y
_atom_site_fract_z
V1	V	3.965304	0.291786	-0.331761
O2	O	3.863971	-0.017434	-0.326221
O3	O	4.003815	0.581844	-0.328746
O4	O	3.850602	0.285800	-0.476794
O5	O	4.018245	0.280659	-0.177149
V6	V	4.446261	0.254976	-0.313359
O7	O	4.232190	0.372530	-0.372128
O8	O	4.629573	0.174232	-0.272992
O9	O	4.184543	-0.035082	-0.316374
O10	O	4.664991	0.564196	-0.318898
O11	O	4.510717	0.266102	-0.467971
O12	O	4.337757	0.260962	-0.168326
C13	C	3.872119	0.652603	-0.323325
C14	C	3.986563	0.894178	-0.321801
C15	C	3.676675	0.274957	-0.512168
C16	C	3.664526	0.271923	-0.632956
C17	C	4.166081	0.274928	-0.012167
C18	C	4.175065	0.271840	-0.132951
V19	V	3.894914	0.291841	0.168238
O20	O	3.830506	0.280804	0.322846
O21	O	4.003376	0.285774	0.023212
O22	O	4.156630	0.581920	0.171209
O23	O	3.676191	-0.017391	0.173824
V24	V	3.375850	0.255016	0.186648
O25	O	3.711583	0.372553	0.127862
O26	O	3.108972	0.174281	0.227026
O27	O	3.490601	0.261094	0.331673
O28	O	3.322859	0.266047	0.032040
O29	O	3.477174	0.564243	0.181062
O30	O	3.337347	-0.035051	0.183675
C31	C	4.361564	0.652681	0.176621
C32	C	4.497161	0.894267	0.178111
