data_functionalizedCrystal
_audit_creation_method	'MofGen! by Chris Wilmer'
_symmetry_space_group_name_H-M	'P1'
_symmetry_Int_Tables_number	1
_symmetry_cell_setting	triclinic
loop_
_symmetry_equiv_pos_as_xyz
  x,y,z
_cell_length_a	18.215407
_cell_length_b	18.215404
_cell_length_c	18.215399
_cell_angle_alpha	90.026844
_cell_angle_beta	90.017777
_cell_angle_gamma	90.018838
loop_
_atom_site_label
_atom_site_type_symbol
_atom_site_fract_x
_atom_site_fract_y
_atom_site_fract_z
Zn1	Zn	-1.125080	0.293078	-0.416081
Zn2	Zn	-0.875080	0.543078	-0.166081
Zn3	Zn	-0.625080	0.793078	0.083919
Zn4	Zn	-0.375080	1.043078	0.333919
Zn5	Zn	-1.124992	0.416149	-0.293017
Zn6	Zn	-0.874992	0.666149	-0.043017
Zn7	Zn	-0.624992	0.916149	0.206983
Zn8	Zn	-0.374992	1.166149	0.456983
Zn9	Zn	-1.002013	0.293092	-0.293033
Zn10	Zn	-0.752013	0.543092	-0.043033
Zn11	Zn	-0.502013	0.793092	0.206967
Zn12	Zn	-0.252013	1.043092	0.456967
Zn13	Zn	-1.001982	0.416098	-0.416047
Zn14	Zn	-0.751982	0.666098	-0.166047
Zn15	Zn	-0.501982	0.916098	0.083953
Zn16	Zn	-0.251982	1.166098	0.333953
O17	O	-1.063517	0.354604	-0.354544
O18	O	-0.813517	0.604604	-0.104544
O19	O	-0.563517	0.854604	0.145456
O20	O	-0.313517	1.104604	0.395456
O21	O	-1.228053	0.309419	-0.399764
O22	O	-0.978053	0.559419	-0.149764
O23	O	-0.728053	0.809419	0.100236
O24	O	-0.478053	1.059419	0.350236
O25	O	-1.108655	0.399852	-0.190035
O26	O	-0.858655	0.649852	0.059965
O27	O	-0.608655	0.899852	0.309965
O28	O	-0.358655	1.149852	0.559965
O29	O	-1.018388	0.190105	-0.309377
O30	O	-0.768388	0.440105	-0.059377
O31	O	-0.518388	0.690105	0.190623
O32	O	-0.268388	0.940105	0.440623
O33	O	-1.227988	0.399839	-0.309350
O34	O	-0.977988	0.649839	-0.059350
O35	O	-0.727988	0.899839	0.190650
O36	O	-0.477988	1.149839	0.440650
O37	O	-1.108805	0.190095	-0.399780
O38	O	-0.858805	0.440095	-0.149780
O39	O	-0.608805	0.690095	0.100220
O40	O	-0.358805	0.940095	0.350220
O41	O	-1.018302	0.309443	-0.190047
O42	O	-0.768302	0.559443	0.059953
O43	O	-0.518302	0.809443	0.309953
O44	O	-0.268302	1.059443	0.559953
O45	O	-0.899025	0.309393	-0.309343
O46	O	-0.649025	0.559393	-0.059343
O47	O	-0.399025	0.809393	0.190657
O48	O	-0.149025	1.059393	0.440657
O49	O	-1.018336	0.399752	-0.519035
O50	O	-0.768336	0.649752	-0.269035
O51	O	-0.518336	0.899752	-0.019035
O52	O	-0.268336	1.149752	0.230965
O53	O	-0.899002	0.399765	-0.399721
O54	O	-0.649002	0.649765	-0.149721
O55	O	-0.399002	0.899765	0.100279
O56	O	-0.149002	1.149765	0.350279
O57	O	-1.108775	0.309369	-0.519061
O58	O	-0.858775	0.559369	-0.269061
O59	O	-0.608775	0.809369	-0.019061
O60	O	-0.358775	1.059369	0.230939
O61	O	-1.108625	0.519127	-0.309316
O62	O	-0.858625	0.769127	-0.059316
O63	O	-0.608625	1.019127	0.190684
O64	O	-0.358625	1.269127	0.440684
O65	O	-1.018250	0.519089	-0.399705
O66	O	-0.768250	0.769089	-0.149705
O67	O	-0.518250	1.019089	0.100295
O68	O	-0.268250	1.269089	0.350295
C69	C	-0.872311	0.354575	-0.354530
C70	C	-0.622311	0.604575	-0.104530
C71	C	-0.372311	0.854575	0.145470
C72	C	-0.122311	1.104575	0.395470
C73	C	-0.790512	0.354581	-0.354542
C74	C	-0.540512	0.604581	-0.104542
C75	C	-0.290512	0.854581	0.145458
C76	C	-0.040512	1.104581	0.395458
C77	C	-0.602351	0.307590	-0.401693
C78	C	-0.352351	0.557590	-0.151693
C79	C	-0.102351	0.807590	0.098307
C80	C	0.147649	1.057590	0.348307
C81	C	-0.525492	0.307594	-0.401695
C82	C	-0.275492	0.557594	-0.151695
C83	C	-0.025492	0.807594	0.098305
C84	C	0.224508	1.057594	0.348305
C85	C	-0.525436	0.401607	-0.307401
C86	C	-0.275436	0.651607	-0.057401
C87	C	-0.025436	0.901607	0.192599
C88	C	0.224564	1.151607	0.442599
C89	C	-0.602293	0.401599	-0.307396
C90	C	-0.352293	0.651599	-0.057396
C91	C	-0.102293	0.901599	0.192604
C92	C	0.147707	1.151599	0.442604
C93	C	-0.640748	0.354591	-0.354546
C94	C	-0.390748	0.604591	-0.104546
C95	C	-0.140748	0.854591	0.145454
C96	C	0.109252	1.104591	0.395454
C97	C	-0.487032	0.354603	-0.354553
C98	C	-0.237032	0.604603	-0.104553
C99	C	0.012968	0.854603	0.145447
C100	C	0.262968	1.104603	0.395447
C101	C	-0.403699	0.354608	-0.354555
C102	C	-0.153699	0.604608	-0.104555
C103	C	0.096301	0.854608	0.145445
C104	C	0.346301	1.104608	0.395445
C105	C	-0.724087	0.354586	-0.354544
C106	C	-0.474087	0.604586	-0.104544
C107	C	-0.224087	0.854586	0.145456
C108	C	0.025913	1.104586	0.395456
C109	C	-1.063445	0.545810	-0.354521
C110	C	-0.813445	0.795810	-0.104521
C111	C	-0.563445	1.045810	0.145479
C112	C	-0.313445	1.295810	0.395479
C113	C	-1.063481	0.627609	-0.354536
C114	C	-0.813481	0.877609	-0.104536
C115	C	-0.563481	1.127609	0.145464
C116	C	-0.313481	1.377609	0.395464
C117	C	-0.255470	0.354625	-0.354557
C118	C	-0.005470	0.604625	-0.104557
C119	C	0.244530	0.854625	0.145443
C120	C	0.494530	1.104625	0.395443
C121	C	-0.337269	0.354614	-0.354558
C122	C	-0.087269	0.604614	-0.104558
C123	C	0.162731	0.854614	0.145442
C124	C	0.412731	1.104614	0.395442
C125	C	-1.110680	0.892662	-0.307582
C126	C	-0.860680	1.142662	-0.057582
C127	C	-0.610680	1.392662	0.192418
C128	C	-0.360680	1.642662	0.442418
C129	C	-1.110649	0.815803	-0.307562
C130	C	-0.860649	1.065803	-0.057562
C131	C	-0.610649	1.315803	0.192438
C132	C	-0.360649	1.565803	0.442438
C133	C	-1.016455	0.815805	-0.401602
C134	C	-0.766455	1.065805	-0.151602
C135	C	-0.516455	1.315805	0.098398
C136	C	-0.266455	1.565805	0.348398
C137	C	-1.016483	0.892662	-0.401618
C138	C	-0.766483	1.142662	-0.151618
C139	C	-0.516483	1.392662	0.098382
C140	C	-0.266483	1.642662	0.348382
C141	C	-1.063600	0.931089	-0.354609
C142	C	-0.813600	1.181089	-0.104609
C143	C	-0.563600	1.431089	0.145391
C144	C	-0.313600	1.681089	0.395391
C145	C	-1.063541	0.777373	-0.354573
C146	C	-0.813541	1.027373	-0.104573
C147	C	-0.563541	1.277373	0.145427
C148	C	-0.313541	1.527373	0.395427
C149	C	-1.063507	0.694039	-0.354551
C150	C	-0.813507	0.944039	-0.104551
C151	C	-0.563507	1.194039	0.145449
C152	C	-0.313507	1.444039	0.395449
C153	C	-1.063633	1.014428	-0.354629
C154	C	-0.813633	1.264428	-0.104629
C155	C	-0.563633	1.514428	0.145371
C156	C	-0.313633	1.764428	0.395371
C157	C	-1.063562	0.354553	-0.546497
C158	C	-0.813562	0.604553	-0.296497
C159	C	-0.563562	0.854553	-0.046497
C160	C	-0.313562	1.104553	0.203503
C161	C	-1.063581	0.354532	-0.628296
C162	C	-0.813581	0.604532	-0.378296
C163	C	-0.563581	0.854532	-0.128296
C164	C	-0.313581	1.104532	0.121704
C165	C	-1.063612	1.162651	-0.354595
C166	C	-0.813612	1.412651	-0.104595
C167	C	-0.563612	1.662651	0.145405
C168	C	-0.313612	1.912651	0.395405
C169	C	-1.063659	1.080852	-0.354645
C170	C	-0.813659	1.330852	-0.104645
C171	C	-0.563659	1.580852	0.145355
C172	C	-0.313659	1.830852	0.395355
C173	C	-1.110690	0.307426	-0.816505
C174	C	-0.860690	0.557426	-0.566505
C175	C	-0.610690	0.807426	-0.316505
C176	C	-0.360690	1.057426	-0.066505
C177	C	-1.110699	0.307404	-0.893364
C178	C	-0.860699	0.557404	-0.643364
C179	C	-0.610699	0.807404	-0.393364
C180	C	-0.360699	1.057404	-0.143364
C181	C	-1.016524	0.401524	-0.893326
C182	C	-0.766524	0.651524	-0.643326
C183	C	-0.516524	0.901524	-0.393326
C184	C	-0.266524	1.151524	-0.143326
C185	C	-1.016512	0.401541	-0.816468
C186	C	-0.766512	0.651541	-0.566468
C187	C	-0.516512	0.901541	-0.316468
C188	C	-0.266512	1.151541	-0.066468
C189	C	-1.063599	0.354493	-0.778060
C190	C	-0.813599	0.604493	-0.528060
C191	C	-0.563599	0.854493	-0.278060
C192	C	-0.313599	1.104493	-0.028060
C193	C	-1.063620	0.354454	-0.931776
C194	C	-0.813620	0.604454	-0.681776
C195	C	-0.563620	0.854454	-0.431776
C196	C	-0.313620	1.104454	-0.181776
C197	C	-1.063629	0.354432	-1.015110
C198	C	-0.813629	0.604432	-0.765110
C199	C	-0.563629	0.854432	-0.515110
C200	C	-0.313629	1.104432	-0.265110
C201	C	-1.063589	0.354515	-0.694721
C202	C	-0.813589	0.604515	-0.444721
C203	C	-0.563589	0.854515	-0.194721
C204	C	-0.313589	1.104515	0.055279
C205	C	-1.063515	0.354601	-0.163338
C206	C	-0.813515	0.604601	0.086662
C207	C	-0.563515	0.854601	0.336662
C208	C	-0.313515	1.104601	0.586662
C209	C	-1.063638	0.354416	-0.081540
C210	C	-0.813638	0.604416	0.168460
C211	C	-0.563638	0.854416	0.418460
C212	C	-0.313638	1.104416	0.668460
H213	H	-0.494232	0.269320	-0.440086
H214	H	-0.244232	0.519320	-0.190086
H215	H	0.005768	0.769320	0.059914
H216	H	0.255768	1.019320	0.309914
H217	H	-1.149029	0.269114	-0.785235
H218	H	-0.899029	0.519114	-0.535235
H219	H	-0.649029	0.769114	-0.285235
H220	H	-0.399029	1.019114	-0.035235
H221	H	-0.494116	0.439879	-0.269014
H222	H	-0.244116	0.689879	-0.019014
H223	H	0.005884	0.939879	0.230986
H224	H	0.255884	1.189879	0.480986
H225	H	-0.633557	0.439874	-0.269000
H226	H	-0.383557	0.689874	-0.019000
H227	H	-0.133557	0.939874	0.231000
H228	H	0.116443	1.189874	0.481000
H229	H	-1.149045	0.923947	-0.269304
H230	H	-0.899045	1.173947	-0.019304
H231	H	-0.649045	1.423947	0.230696
H232	H	-0.399045	1.673947	0.480696
H233	H	-1.148985	0.784518	-0.269267
H234	H	-0.898985	1.034518	-0.019267
H235	H	-0.648985	1.284518	0.230733
H236	H	-0.398985	1.534518	0.480733
O237	O	-0.970826	0.929961	-0.447410
O238	O	-0.720826	1.179961	-0.197410
O239	O	-0.470826	1.429961	0.052590
O240	O	-0.220826	1.679961	0.302590
C241	C	-0.934999	0.953390	-0.572560
C242	C	-0.684999	1.203390	-0.322560
C243	C	-0.434999	1.453390	-0.072560
C244	C	-0.184999	1.703390	0.177440
C245	C	-0.986762	0.911117	-0.520791
C246	C	-0.736762	1.161117	-0.270791
C247	C	-0.486762	1.411117	-0.020791
C248	C	-0.236762	1.661117	0.229209
H249	H	-0.947854	0.938158	-0.631899
H250	H	-0.697854	1.188158	-0.381899
H251	H	-0.447854	1.438158	-0.131899
H252	H	-0.197854	1.688158	0.118101
H253	H	-0.943114	1.014931	-0.564558
H254	H	-0.693114	1.264931	-0.314558
H255	H	-0.443114	1.514931	-0.064558
H256	H	-0.193114	1.764931	0.185442
H257	H	-0.875665	0.938338	-0.559538
H258	H	-0.625665	1.188338	-0.309538
H259	H	-0.375665	1.438338	-0.059538
H260	H	-0.125665	1.688338	0.190462
H261	H	-1.046116	0.926108	-0.533781
H262	H	-0.796116	1.176108	-0.283781
H263	H	-0.546116	1.426108	-0.033781
H264	H	-0.296116	1.676108	0.216219
H265	H	-0.978584	0.849586	-0.528803
H266	H	-0.728584	1.099586	-0.278803
H267	H	-0.478584	1.349586	-0.028803
H268	H	-0.228584	1.599586	0.221197
H269	H	-0.978160	0.439868	-0.785166
H270	H	-0.728160	0.689868	-0.535166
H271	H	-0.478160	0.939868	-0.285166
H272	H	-0.228160	1.189868	-0.035166
H273	H	-1.149043	0.269076	-0.924662
H274	H	-0.899043	0.519076	-0.674662
H275	H	-0.649043	0.769076	-0.424662
H276	H	-0.399043	1.019076	-0.174662
H277	H	-0.978095	0.784510	-0.439876
H278	H	-0.728095	1.034510	-0.189876
H279	H	-0.478095	1.284510	0.060124
H280	H	-0.228095	1.534510	0.310124
H281	H	-0.633659	0.269311	-0.440084
H282	H	-0.383659	0.519311	-0.190084
H283	H	-0.133659	0.769311	0.059916
H284	H	0.116341	1.019311	0.309916
O285	O	-0.970859	0.447204	-0.930751
O286	O	-0.720859	0.697204	-0.680751
O287	O	-0.470859	0.947204	-0.430751
O288	O	-0.220859	1.197204	-0.180751
C289	C	-0.929109	0.488860	-1.049137
C290	C	-0.679109	0.738860	-0.799137
C291	C	-0.429109	0.988860	-0.549137
C292	C	-0.179109	1.238860	-0.299137
C293	C	-0.980874	0.437101	-1.006847
C294	C	-0.730874	0.687101	-0.756847
C295	C	-0.480874	0.937101	-0.506847
C296	C	-0.230874	1.187101	-0.256847
H297	H	-0.937177	0.480699	-1.110668
H298	H	-0.687177	0.730699	-0.860668
H299	H	-0.437177	0.980699	-0.610668
H300	H	-0.187177	1.230699	-0.360668
H301	H	-0.942004	0.548223	-1.034067
H302	H	-0.692004	0.798223	-0.784067
H303	H	-0.442004	1.048223	-0.534067
H304	H	-0.192004	1.298223	-0.284067
H305	H	-0.869780	0.475941	-1.033976
H306	H	-0.619780	0.725941	-0.783976
H307	H	-0.369780	0.975941	-0.533976
H308	H	-0.119780	1.225941	-0.283976
H309	H	-1.040221	0.449954	-1.021986
H310	H	-0.790221	0.699954	-0.771986
H311	H	-0.540221	0.949954	-0.521986
H312	H	-0.290221	1.199954	-0.271986
H313	H	-0.967916	0.377754	-1.021921
H314	H	-0.717916	0.627754	-0.771921
H315	H	-0.467916	0.877754	-0.521921
H316	H	-0.217916	1.127754	-0.271921
