data_functionalizedCrystal
_audit_creation_method	'MofGen! by Chris Wilmer'
_symmetry_space_group_name_H-M	'P1'
_symmetry_Int_Tables_number	1
_symmetry_cell_setting	triclinic
loop_
_symmetry_equiv_pos_as_xyz
  x,y,z
_cell_length_a	8.497365
_cell_length_b	18.050589
_cell_length_c	18.050591
_cell_angle_alpha	89.978650
_cell_angle_beta	89.960758
_cell_angle_gamma	90.059774
loop_
_atom_site_label
_atom_site_type_symbol
_atom_site_fract_x
_atom_site_fract_y
_atom_site_fract_z
Zn1	Zn	-0.892148	0.295543	1.135453
Zn2	Zn	-0.628311	0.419796	1.135328
Zn3	Zn	-0.628344	0.295616	1.011229
Zn4	Zn	-0.892013	0.419688	1.011227
O5	O	-0.760204	0.357661	1.073309
O6	O	-0.857192	0.312040	1.239361
O7	O	-0.407553	0.403399	1.118815
O8	O	-0.663408	0.191682	1.027761
O9	O	-0.663353	0.403328	1.239269
O10	O	-0.857223	0.191628	1.119027
O11	O	-0.407577	0.312165	1.027640
O12	O	-0.663277	0.312060	0.907305
O13	O	-1.112793	0.403145	1.027757
O14	O	-0.856993	0.403216	0.907303
O15	O	-1.112892	0.311936	1.119025
O16	O	-0.663222	0.523706	1.118813
O17	O	-0.856962	0.523627	1.027636
C18	C	-0.760108	0.550613	1.073231
C19	C	-0.760120	0.633159	1.073265
C20	C	-0.760125	0.357635	0.880357
C21	C	-0.760129	0.357641	0.797811
C22	C	-0.654900	0.882000	1.122957
C23	C	-0.616148	0.832674	1.055197
C24	C	-0.760195	0.930279	1.073336
C25	C	-0.798836	0.832524	1.141057
C26	C	-0.760155	0.784294	1.073305
C27	C	-0.721369	0.882040	1.005540
C28	C	-0.904124	0.881895	1.091445
C29	C	-0.865426	0.832590	1.023639
C30	C	-0.760215	1.014378	1.073355
C31	C	-0.760135	0.700198	1.073278
C32	C	-0.655035	0.308020	0.548965
C33	C	-0.799012	0.289901	0.598419
C34	C	-0.760258	0.357679	0.500691
C35	C	-0.616225	0.375744	0.598319
C36	C	-0.760187	0.357659	0.646676
C37	C	-0.904312	0.339526	0.549058
C38	C	-0.721427	0.425400	0.548953
C39	C	-0.865504	0.407307	0.598384
C40	C	-0.760296	0.357689	0.416593
C41	C	-0.760164	0.357649	0.730773
C42	C	-0.350324	0.357742	1.073256
C43	C	-0.171680	0.357589	1.073361
C44	C	-0.760284	0.357688	1.267015
C45	C	-0.760318	0.357699	1.349561
C46	C	-0.760295	1.163955	1.073389
C47	C	-0.760235	1.081410	1.073374
H48	H	-0.565805	0.903694	1.164881
Cl49	Cl	-1.002882	0.799306	0.958759
Cl50	Cl	-0.428214	0.399349	0.631732
Cl51	Cl	-0.428204	0.799282	1.031522
H52	H	-0.688532	0.903697	0.948240
H53	H	-0.954560	0.449294	0.619945
Cl54	Cl	-1.092018	0.915311	1.115155
H55	H	-0.831534	0.810775	1.198340
Cl56	Cl	-0.517870	0.243150	0.515461
Cl57	Cl	-0.849703	0.201467	0.631959
H58	H	-1.026124	0.324171	0.527508
H59	H	-0.688562	0.482663	0.527209
