data_functionalizedCrystal
_audit_creation_method	'MofGen! by Chris Wilmer'
_symmetry_space_group_name_H-M	'P1'
_symmetry_Int_Tables_number	1
_symmetry_cell_setting	triclinic
loop_
_symmetry_equiv_pos_as_xyz
  x,y,z
_cell_length_a	10.654554
_cell_length_b	15.995292
_cell_length_c	9.130313
_cell_angle_alpha	90.001944
_cell_angle_beta	89.999615
_cell_angle_gamma	83.977680
loop_
_atom_site_label
_atom_site_type_symbol
_atom_site_fract_x
_atom_site_fract_y
_atom_site_fract_z
O1	O	1.666257	0.117620	-0.121793
O2	O	1.300630	0.128820	-0.121794
O3	O	1.493476	0.001387	-0.121796
O4	O	1.473411	0.245053	-0.121791
O5	O	1.493474	0.001391	0.121803
O6	O	1.300627	0.128824	0.121805
O7	O	1.666255	0.117623	0.121806
Cu8	Cu	1.483441	0.123224	0.144048
Cu9	Cu	1.483444	0.123220	-0.144036
O10	O	1.473409	0.245056	0.121808
C11	C	1.253842	0.127999	0.000005
C12	C	1.114432	0.125536	0.000005
C13	C	0.902951	0.198255	0.000003
C14	C	1.033941	0.200570	0.000003
C15	C	1.063926	0.048182	-0.000008
C16	C	0.932938	0.045868	-0.000018
C17	C	0.885640	0.286235	0.000015
C18	C	1.016630	0.288550	0.000015
C19	C	1.492659	-0.029811	0.000000
C20	C	1.490210	-0.122778	-0.000011
C21	C	1.481209	-0.460569	0.000002
C22	C	1.620401	-0.436447	0.000547
C23	C	1.623046	-0.339756	-0.000007
C24	C	1.485676	-0.292987	-0.000003
C25	C	1.416088	-0.322495	-0.139106
C26	C	1.414412	-0.419295	-0.139217
C27	C	1.411567	-0.419165	0.137800
C28	C	1.416725	-0.322643	0.139634
C29	C	1.488192	-0.198277	-0.000012
C30	C	1.478688	-0.555280	0.000001
C31	C	1.713043	0.118444	0.000003
C32	C	1.852453	0.120907	-0.000006
C33	C	1.474226	0.276255	0.000009
C34	C	1.476675	0.369222	0.000010
N35	N	1.483448	0.123226	0.346671
N36	N	1.483447	0.123211	-0.346659
C37	C	1.568862	0.066818	0.423322
C38	C	1.568859	0.066808	0.576658
C39	C	1.398023	0.179621	0.576680
C40	C	1.398022	0.179627	0.423345
C41	C	1.667497	0.001689	0.423311
C42	C	1.667493	0.001679	0.576648
H43	H	0.891829	-0.017115	-0.000044
H44	H	1.673755	-0.465156	-0.098650
H45	H	0.843452	0.319388	-0.101926
N46	N	0.824684	0.321439	0.139330
H47	H	0.891576	0.340152	0.206650
H48	H	0.761520	0.371055	0.115006
H49	H	1.129473	-0.012912	-0.000021
N50	N	1.063353	0.325655	-0.139303
H51	H	0.989584	0.341885	-0.206617
H52	H	1.106626	0.377151	-0.114978
N53	N	1.695624	-0.314931	-0.132336
H54	H	1.770561	-0.285961	-0.099430
H55	H	1.725944	-0.366863	-0.190496
H56	H	1.758407	0.022083	0.375753
H57	H	1.464413	-0.302155	-0.242628
N58	N	1.279234	-0.439360	-0.147602
H59	H	1.267229	-0.473378	-0.238783
H60	H	1.258998	-0.472770	-0.058372
H61	H	1.315001	-0.291216	-0.144275
H62	H	1.328471	0.225541	0.639125
N63	N	1.054917	0.334124	0.135051
H64	H	1.029332	0.303672	0.225410
H65	H	1.149410	0.335807	0.134968
H66	H	1.455400	-0.446997	0.243240
N67	N	1.640239	-0.083557	0.368160
H68	H	1.628067	-0.121602	0.454147
H69	H	1.561017	-0.077232	0.306666
N70	N	1.695200	-0.314122	0.132092
H71	H	1.725575	-0.365676	0.191206
H72	H	1.770083	-0.285227	0.098786
N73	N	1.628190	-0.078890	0.639633
H74	H	1.540036	-0.086780	0.605501
H75	H	1.688660	-0.127856	0.605457
H76	H	1.674051	-0.464131	0.100303
H77	H	1.763813	0.016026	0.618265
H78	H	1.462608	-0.445833	-0.243202
H79	H	1.316458	-0.290256	0.148037
N80	N	1.483828	-0.297656	0.275955
H81	H	1.558579	-0.267252	0.247396
H82	H	1.423748	-0.259369	0.337669
H83	H	1.328460	0.225551	0.360937
N84	N	1.275854	-0.438483	0.139073
H85	H	1.232075	-0.415316	0.047343
H86	H	1.273080	-0.501365	0.142934
