data_functionalizedCrystal
_audit_creation_method	'MofGen! by Chris Wilmer'
_symmetry_space_group_name_H-M	'P1'
_symmetry_Int_Tables_number	1
_symmetry_cell_setting	triclinic
loop_
_symmetry_equiv_pos_as_xyz
  x,y,z
_cell_length_a	10.654551
_cell_length_b	10.540535
_cell_length_c	9.130313
_cell_angle_alpha	90.001210
_cell_angle_beta	90.002482
_cell_angle_gamma	84.504456
loop_
_atom_site_label
_atom_site_type_symbol
_atom_site_fract_x
_atom_site_fract_y
_atom_site_fract_z
O1	O	1.667899	0.178298	0.121786
O2	O	1.302426	0.195284	0.121793
O3	O	1.493503	0.002081	0.121774
O4	O	1.476821	0.371500	0.121804
O5	O	1.493490	0.002092	-0.121824
O6	O	1.302413	0.195295	-0.121806
O7	O	1.667886	0.178309	-0.121813
Cu8	Cu	1.485148	0.186803	-0.144052
Cu9	Cu	1.485164	0.186790	0.144032
O10	O	1.476808	0.371512	-0.121795
C11	C	1.255621	0.194042	-0.000005
C12	C	1.116177	0.190310	-0.000003
C13	C	0.919636	0.185042	-0.132791
C14	C	1.050657	0.188560	-0.132791
C15	C	1.050666	0.188554	0.132794
C16	C	0.919646	0.185045	0.132793
C17	C	0.854125	0.183279	-0.265587
C18	C	0.919626	0.185037	-0.398385
C19	C	1.050648	0.188555	-0.398385
C20	C	1.116168	0.190316	-0.265588
C21	C	1.492247	-0.045216	-0.000026
C22	C	1.488508	-0.186163	-0.000028
C23	C	1.348998	-0.222784	-0.000014
C24	C	1.345063	-0.369383	0.000565
C25	C	1.552199	-0.395517	0.138841
C26	C	1.555168	-0.248753	0.138931
C27	C	1.557182	-0.248879	-0.138096
C28	C	1.550730	-0.395223	-0.139895
C29	C	1.714690	0.179551	-0.000011
C30	C	1.854135	0.183283	-0.000004
C31	C	1.478065	0.418809	0.000009
C32	C	1.481804	0.559756	0.000020
N33	N	1.485146	0.186812	-0.346675
C34	C	1.562002	0.264516	-0.423336
C35	C	1.562020	0.264493	-0.576672
C36	C	1.408317	0.109058	-0.576674
C37	C	1.408306	0.109075	-0.423340
C38	C	1.638842	0.342253	-0.346671
C39	C	1.715703	0.419964	-0.423332
C40	C	1.715721	0.419941	-0.576669
C41	C	1.638879	0.342205	-0.653344
N42	N	1.485175	0.186771	0.346655
H43	H	1.222853	0.193195	-0.265599
H44	H	1.295419	-0.180798	-0.099556
H45	H	0.747441	0.180413	-0.265602
H46	H	1.296327	-0.179305	0.099393
H47	H	1.638833	0.342284	-0.221816
H48	H	1.104023	0.189987	0.240911
H49	H	1.507638	-0.208561	0.243102
H50	H	1.659823	-0.226720	-0.139452
H51	H	1.652879	-0.442909	0.143612
H52	H	1.778272	0.483246	-0.360892
H53	H	1.290296	-0.397814	0.100677
H54	H	1.657440	-0.225758	0.144841
H55	H	1.503912	-0.426397	0.242557
H56	H	1.778313	0.483208	-0.639082
H57	H	1.513643	-0.206408	-0.243360
H58	H	1.638911	0.342181	-0.778202
H59	H	0.866313	0.183617	0.240919
H60	H	1.345753	0.045772	-0.639115
H61	H	1.289998	-0.398703	-0.098918
H62	H	0.866270	0.183614	-0.506503
H63	H	1.103974	0.189999	-0.506515
H64	H	1.345721	0.045804	-0.360921
H65	H	1.499503	-0.423814	-0.242597
H66	H	1.650533	-0.444294	-0.148698
