data_functionalizedCrystal
_audit_creation_method	'MofGen! by Chris Wilmer'
_symmetry_space_group_name_H-M	'P1'
_symmetry_Int_Tables_number	1
_symmetry_cell_setting	triclinic
loop_
_symmetry_equiv_pos_as_xyz
  x,y,z
_cell_length_a	6.817900
_cell_length_b	7.076028
_cell_length_c	14.359045
_cell_angle_alpha	83.265728
_cell_angle_beta	63.445413
_cell_angle_gamma	62.299348
loop_
_atom_site_label
_atom_site_type_symbol
_atom_site_fract_x
_atom_site_fract_y
_atom_site_fract_z
V1	V	4.264076	-0.655569	-0.141789
O2	O	4.179978	-0.652910	0.008513
O3	O	4.278498	-0.641641	-0.282779
O4	O	4.289737	-0.945794	-0.138863
O5	O	4.168662	-0.346651	-0.136400
V6	V	4.729967	-0.619767	-0.123900
O7	O	4.564011	-0.734103	-0.181032
O8	O	4.880229	-0.541233	-0.084657
O9	O	4.492338	-0.633696	0.017090
O10	O	4.931462	-0.622426	-0.274202
O11	O	4.942778	-0.928685	-0.129289
O12	O	4.481100	-0.329542	-0.126826
C13	C	4.297809	-0.646470	0.051478
C14	C	4.181348	-0.656147	0.168898
C15	C	4.136404	-0.628871	-0.317174
C16	C	4.231738	-0.619245	-0.434597
C17	C	4.283442	-0.258487	-0.132099
C18	C	4.157683	-0.016830	-0.133585
V19	V	4.246383	-0.652370	0.359859
O20	O	4.128540	-0.644613	0.512781
O21	O	4.298003	-0.649832	0.213041
O22	O	4.308638	-0.954069	0.356916
O23	O	4.117831	-0.338270	0.367910
V24	V	4.645419	-0.559232	0.407005
O25	O	4.532201	-0.704098	0.334282
O26	O	4.755046	-0.455540	0.459092
O27	O	4.397738	-0.587533	0.540678
O28	O	4.866381	-0.553439	0.260996
O29	O	4.877090	-0.859782	0.405866
O30	O	4.387103	-0.283296	0.396804
C31	C	4.205083	-0.231967	0.381471
C32	C	4.061274	0.007287	0.378771
