data_functionalizedCrystal
_audit_creation_method	'MofGen! by Chris Wilmer'
_symmetry_space_group_name_H-M	'P1'
_symmetry_Int_Tables_number	1
_symmetry_cell_setting	triclinic
loop_
_symmetry_equiv_pos_as_xyz
  x,y,z
_cell_length_a	12.759401
_cell_length_b	25.639240
_cell_length_c	25.639233
_cell_angle_alpha	89.974071
_cell_angle_beta	89.988407
_cell_angle_gamma	90.034283
loop_
_atom_site_label
_atom_site_type_symbol
_atom_site_fract_x
_atom_site_fract_y
_atom_site_fract_z
Zn1	Zn	1.606038	-0.208193	-0.295569
Zn2	Zn	1.939371	0.125140	0.037765
Zn3	Zn	2.272704	0.458474	0.371098
Zn4	Zn	1.605902	-0.295612	-0.208122
Zn5	Zn	1.939235	0.037721	0.125211
Zn6	Zn	2.272569	0.371055	0.458545
Zn7	Zn	1.430365	-0.208195	-0.208149
Zn8	Zn	1.763698	0.125139	0.125184
Zn9	Zn	2.097032	0.458472	0.458518
Zn10	Zn	1.430273	-0.295602	-0.295528
Zn11	Zn	1.763606	0.037732	0.037805
Zn12	Zn	2.096939	0.371065	0.371139
O13	O	1.518144	-0.251900	-0.251842
O14	O	1.851478	0.081433	0.081491
O15	O	2.184811	0.414766	0.414825
O16	O	1.753041	-0.219793	-0.283974
O17	O	2.086374	0.113540	0.049359
O18	O	2.419707	0.446874	0.382692
O19	O	1.582598	-0.284021	-0.134960
O20	O	1.915932	0.049313	0.198373
O21	O	2.249265	0.382646	0.531706
O22	O	1.453764	-0.135029	-0.219774
O23	O	1.787097	0.198304	0.113560
O24	O	2.120430	0.531637	0.446893
O25	O	1.752941	-0.284019	-0.219728
O26	O	2.086274	0.049314	0.113606
O27	O	2.419608	0.382647	0.446939
O28	O	1.582830	-0.135028	-0.284000
O29	O	1.916163	0.198305	0.049333
O30	O	2.249496	0.531639	0.382666
O31	O	1.453632	-0.219796	-0.134980
O32	O	1.786965	0.113538	0.198353
O33	O	2.120299	0.446871	0.531687
O34	O	1.283332	-0.219786	-0.219734
O35	O	1.616665	0.113548	0.113599
O36	O	1.949998	0.446881	0.446932
O37	O	1.453607	-0.284002	-0.368699
O38	O	1.786940	0.049331	-0.035365
O39	O	2.120273	0.382665	0.297968
O40	O	1.283264	-0.284003	-0.283931
O41	O	1.616597	0.049330	0.049402
O42	O	1.949931	0.382663	0.382735
O43	O	1.582740	-0.219783	-0.368729
O44	O	1.916074	0.113550	-0.035395
O45	O	2.249407	0.446884	0.297938
O46	O	1.582509	-0.368776	-0.219688
O47	O	1.915842	-0.035442	0.113645
O48	O	2.249176	0.297891	0.446978
O49	O	1.453475	-0.368768	-0.283905
O50	O	1.786808	-0.035435	0.049428
O51	O	2.120142	0.297898	0.382761
C52	C	1.245177	-0.251894	-0.251832
C53	C	1.578510	0.081439	0.081502
C54	C	1.911844	0.414773	0.414835
C55	C	1.128400	-0.251904	-0.251840
C56	C	1.461734	0.081430	0.081494
C57	C	1.795067	0.414763	0.414827
C58	C	1.073531	-0.285393	-0.285214
C59	C	1.406864	0.047941	0.048119
C60	C	1.740197	0.381274	0.381452
C61	C	0.963807	-0.285395	-0.285225
C62	C	1.297140	0.047939	0.048109
C63	C	1.630473	0.381272	0.381442
C64	C	0.963832	-0.218417	-0.218481
C65	C	1.297165	0.114916	0.114852
C66	C	1.630498	0.448249	0.448186
C67	C	1.073554	-0.218413	-0.218474
C68	C	1.406887	0.114920	0.114860
C69	C	1.740220	0.448253	0.448193
C70	C	0.813878	-0.304174	-0.346860
C71	C	1.147212	0.029159	-0.013527
C72	C	1.480545	0.362493	0.319807
C73	C	0.759005	-0.337671	-0.380230
C74	C	1.092338	-0.004338	-0.046897
C75	C	1.425672	0.328996	0.286437
C76	C	0.794568	-0.388698	-0.388155
C77	C	1.127901	-0.055365	-0.054822
C78	C	1.461234	0.277969	0.278511
C79	C	0.885002	-0.406238	-0.362703
C80	C	1.218336	-0.072905	-0.029369
C81	C	1.551669	0.260428	0.303964
C82	C	0.939870	-0.372744	-0.329328
C83	C	1.273203	-0.039411	0.004005
C84	C	1.606537	0.293923	0.337338
C85	C	0.904309	-0.321710	-0.321413
C86	C	1.237642	0.011624	0.011920
C87	C	1.570976	0.344957	0.345253
C88	C	1.223484	-0.199639	-0.156838
C89	C	1.556817	0.133694	0.176496
C90	C	1.890150	0.467027	0.509829
C91	C	1.278353	-0.166147	-0.123461
C92	C	1.611687	0.167186	0.209873
C93	C	1.945020	0.500519	0.543206
C94	C	1.242793	-0.115119	-0.115530
C95	C	1.576126	0.218214	0.217803
C96	C	1.909459	0.551547	0.551137
C97	C	1.152355	-0.097581	-0.140974
C98	C	1.485688	0.235752	0.192360
C99	C	1.819022	0.569086	0.525693
C100	C	1.097485	-0.131073	-0.174351
C101	C	1.430818	0.202260	0.158983
C102	C	1.764152	0.535594	0.492316
C103	C	1.133053	-0.182100	-0.182282
C104	C	1.466387	0.151233	0.151051
C105	C	1.799720	0.484566	0.484385
C106	C	1.517996	-0.387743	-0.251801
C107	C	1.851329	-0.054410	0.081532
C108	C	2.184663	0.278924	0.414866
C109	C	1.518028	-0.445857	-0.251801
C110	C	1.851362	-0.112524	0.081532
C111	C	2.184695	0.220810	0.414866
C112	C	1.585382	-0.806181	-0.285345
C113	C	1.918716	-0.472848	0.047988
C114	C	2.252049	-0.139514	0.381321
C115	C	1.585413	-0.860785	-0.285356
C116	C	1.918747	-0.527452	0.047977
C117	C	2.252080	-0.194119	0.381311
O118	O	1.642503	-0.888989	-0.313834
O119	O	1.975837	-0.555655	0.019499
O120	O	2.309170	-0.222322	0.352832
N121	N	1.518290	-0.888139	-0.251892
N122	N	1.851623	-0.554806	0.081441
N123	N	2.184957	-0.221473	0.414774
C124	C	1.451124	-0.860886	-0.218420
C125	C	1.784457	-0.527553	0.114913
C126	C	2.117791	-0.194220	0.448247
O127	O	1.394033	-0.889167	-0.189958
O128	O	1.727366	-0.555834	0.143375
O129	O	2.060699	-0.222501	0.476709
C130	C	1.451089	-0.806283	-0.218412
C131	C	1.784422	-0.472950	0.114921
C132	C	2.117755	-0.139616	0.448254
C133	C	1.518224	-0.778932	-0.251874
C134	C	1.851557	-0.445598	0.081459
C135	C	2.184890	-0.112265	0.414792
C136	C	1.652511	-0.778830	-0.318805
C137	C	1.985844	-0.445496	0.014529
C138	C	2.319178	-0.112163	0.347862
C139	C	1.652481	-0.724229	-0.318793
C140	C	1.985815	-0.390896	0.014540
C141	C	2.319148	-0.057562	0.347873
C142	C	1.585323	-0.696980	-0.285322
C143	C	1.918656	-0.363647	0.048011
C144	C	2.251989	-0.030313	0.381344
C145	C	1.518194	-0.724331	-0.251863
C146	C	1.851527	-0.390998	0.081471
C147	C	2.184860	-0.057665	0.414804
C148	C	1.383918	-0.779031	-0.184943
C149	C	1.717251	-0.445698	0.148390
C150	C	2.050585	-0.112364	0.481724
C151	C	1.383888	-0.724424	-0.184939
C152	C	1.717221	-0.391091	0.148395
C153	C	2.050554	-0.057757	0.481728
C154	C	1.451023	-0.697073	-0.218400
C155	C	1.784356	-0.363739	0.114933
C156	C	2.117689	-0.030406	0.448266
C157	C	1.451005	-0.642482	-0.218380
C158	C	1.784339	-0.309148	0.114953
C159	C	2.117672	0.024185	0.448286
N160	N	1.518128	-0.615127	-0.251844
N161	N	1.851462	-0.281794	0.081490
N162	N	2.184795	0.051539	0.414823
C163	C	1.585287	-0.642377	-0.285315
C164	C	1.918620	-0.309043	0.048019
C165	C	2.251954	0.024290	0.381352
C166	C	1.451202	-0.975557	-0.218439
C167	C	1.784536	-0.642224	0.114894
C168	C	2.117869	-0.308890	0.448227
C169	C	1.451242	-1.030159	-0.218444
C170	C	1.784576	-0.696826	0.114890
C171	C	2.117909	-0.363493	0.448223
C172	C	1.585531	-1.030054	-0.285380
C173	C	1.918864	-0.696721	0.047953
C174	C	2.252197	-0.363388	0.381286
C175	C	1.585495	-0.975451	-0.285373
C176	C	1.918828	-0.642118	0.047960
C177	C	2.252162	-0.308784	0.381294
C178	C	1.518326	-0.948203	-0.251903
C179	C	1.851659	-0.614870	0.081431
C180	C	2.184992	-0.281536	0.414764
C181	C	1.585220	-0.527712	-0.285288
C182	C	1.918553	-0.194378	0.048045
C183	C	2.251887	0.138955	0.381379
C184	C	1.585187	-0.473106	-0.285272
C185	C	1.918520	-0.139773	0.048061
C186	C	2.251854	0.193560	0.381395
C187	C	1.450896	-0.473216	-0.218337
C188	C	1.784229	-0.139883	0.114996
C189	C	2.117562	0.193451	0.448329
C190	C	1.450932	-0.527816	-0.218351
C191	C	1.784265	-0.194483	0.114982
C192	C	2.117598	0.138850	0.448315
C193	C	1.518097	-0.555063	-0.251831
C194	C	1.851431	-0.221730	0.081503
C195	C	2.184764	0.111604	0.414836
O196	O	1.393941	-0.614243	-0.189918
O197	O	1.727275	-0.280910	0.143415
O198	O	2.060608	0.052423	0.476749
O199	O	1.642359	-0.614089	-0.313777
O200	O	1.975692	-0.280756	0.019557
O201	O	2.309026	0.052578	0.352890
C202	C	1.792178	-0.251907	-0.251853
C203	C	2.125511	0.081426	0.081481
C204	C	2.458844	0.414760	0.414814
C205	C	1.908954	-0.251910	-0.251857
C206	C	2.242288	0.081423	0.081476
C207	C	2.575621	0.414757	0.414809
C208	C	1.518178	-0.251891	-0.388215
C209	C	1.851512	0.081442	-0.054882
C210	C	2.184845	0.414775	0.278452
C211	C	1.518193	-0.251887	-0.446329
C212	C	1.851526	0.081446	-0.112996
C213	C	2.184859	0.414779	0.220338
C214	C	1.518322	-0.115527	-0.251895
C215	C	1.851655	0.217806	0.081439
C216	C	2.184989	0.551139	0.414772
C217	C	1.518398	-0.057413	-0.251917
C218	C	1.851731	0.275920	0.081416
C219	C	2.185064	0.609253	0.414750
C220	C	1.585518	-0.218349	-0.806713
C221	C	1.918851	0.114984	-0.473380
C222	C	2.252184	0.448317	-0.140047
C223	C	1.585531	-0.218335	-0.861318
C224	C	1.918864	0.114999	-0.527984
C225	C	2.252197	0.448332	-0.194651
O226	O	1.642688	-0.189881	-0.889573
O227	O	1.976021	0.143452	-0.556239
O228	O	2.309355	0.476785	-0.222906
N229	N	1.518308	-0.251765	-0.888612
N230	N	1.851642	0.081569	-0.555278
N231	N	2.184975	0.414902	-0.221945
C232	C	1.451061	-0.285207	-0.861299
C233	C	1.784395	0.048126	-0.527965
C234	C	2.117728	0.381459	-0.194632
O235	O	1.393884	-0.313641	-0.889528
O236	O	1.727217	0.019693	-0.556195
O237	O	2.060551	0.353026	-0.222862
C238	C	1.451044	-0.285219	-0.806695
C239	C	1.784377	0.048114	-0.473362
C240	C	2.117710	0.381448	-0.140029
C241	C	1.518278	-0.251791	-0.779404
C242	C	1.851611	0.081543	-0.446071
C243	C	2.184945	0.414876	-0.112737
C244	C	1.652746	-0.184923	-0.779422
C245	C	1.986079	0.148410	-0.446089
C246	C	2.319412	0.481743	-0.112756
C247	C	1.652734	-0.184939	-0.724822
C248	C	1.986067	0.148395	-0.391488
C249	C	2.319400	0.481728	-0.058155
C250	C	1.585494	-0.218380	-0.697512
C251	C	1.918827	0.114954	-0.364179
C252	C	2.252161	0.448287	-0.030846
C253	C	1.518266	-0.251806	-0.724804
C254	C	1.851599	0.081527	-0.391470
C255	C	2.184933	0.414861	-0.058137
C256	C	1.383792	-0.318659	-0.779383
C257	C	1.717125	0.014675	-0.446050
C258	C	2.050459	0.348008	-0.112716
C259	C	1.383780	-0.318667	-0.724776
C260	C	1.717113	0.014666	-0.391443
C261	C	2.050447	0.348000	-0.058109
C262	C	1.451014	-0.285239	-0.697485
C263	C	1.784347	0.048095	-0.364151
C264	C	2.117681	0.381428	-0.030818
C265	C	1.451015	-0.285262	-0.642894
C266	C	1.784348	0.048071	-0.309560
C267	C	2.117681	0.381404	0.023773
N268	N	1.518237	-0.251833	-0.615600
N269	N	1.851570	0.081501	-0.282266
N270	N	2.184903	0.414834	0.051067
C271	C	1.585477	-0.218391	-0.642909
C272	C	1.918810	0.114942	-0.309576
C273	C	2.252143	0.448275	0.023758
C274	C	1.451102	-0.285180	-0.975969
C275	C	1.784435	0.048153	-0.642636
C276	C	2.117769	0.381486	-0.309303
C277	C	1.451124	-0.285172	-1.030572
C278	C	1.784457	0.048161	-0.697238
C279	C	2.117791	0.381495	-0.363905
C280	C	1.585592	-0.218298	-1.030587
C281	C	1.918926	0.115035	-0.697254
C282	C	2.252259	0.448368	-0.363920
C283	C	1.585575	-0.218310	-0.975984
C284	C	1.918908	0.115024	-0.642650
C285	C	2.252241	0.448357	-0.309317
C286	C	1.518324	-0.251750	-0.948675
C287	C	1.851657	0.081583	-0.615342
C288	C	2.184991	0.414916	-0.282009
C289	C	1.585447	-0.218426	-0.528244
C290	C	1.918781	0.114907	-0.194910
C291	C	2.252114	0.448240	0.138423
C292	C	1.585432	-0.218446	-0.473638
C293	C	1.918766	0.114887	-0.140305
C294	C	2.252099	0.448221	0.193028
C295	C	1.450961	-0.285317	-0.473628
C296	C	1.784294	0.048016	-0.140294
C297	C	2.117627	0.381349	0.193039
C298	C	1.450979	-0.285300	-0.528228
C299	C	1.784312	0.048034	-0.194895
C300	C	2.117646	0.381367	0.138438
C301	C	1.518226	-0.251850	-0.555535
C302	C	1.851559	0.081483	-0.222202
C303	C	2.184892	0.414817	0.111132
O304	O	1.393883	-0.313700	-0.614604
O305	O	1.727217	0.019633	-0.281271
O306	O	2.060550	0.352967	0.052063
O307	O	1.642634	-0.189958	-0.614673
O308	O	1.975968	0.143375	-0.281339
O309	O	2.309301	0.476709	0.051994
C310	C	1.518171	-0.251872	-0.115999
C311	C	1.851504	0.081462	0.217334
C312	C	2.184838	0.414795	0.550667
C313	C	1.518360	-0.251728	-0.057886
C314	C	1.851694	0.081605	0.275448
C315	C	2.185027	0.414938	0.608781
H316	H	0.913944	-0.447792	-0.369154
H317	H	1.247277	-0.114459	-0.035820
H318	H	1.580610	0.218875	0.297513
H319	H	1.640202	-0.191186	-0.550471
H320	H	1.973536	0.142147	-0.217137
H321	H	2.306869	0.475480	0.116196
H322	H	1.329004	-0.345893	-0.702544
H323	H	1.662337	-0.012560	-0.369211
H324	H	1.995670	0.320773	-0.035878
H325	H	1.640186	-0.191224	-0.451420
H326	H	1.973520	0.142109	-0.118087
H327	H	2.306853	0.475443	0.215246
H328	H	1.639860	-0.450838	-0.312520
H329	H	1.973194	-0.117505	0.020813
H330	H	2.306527	0.215828	0.354146
H331	H	1.013500	-0.387025	-0.308605
H332	H	1.346833	-0.053692	0.024728
H333	H	1.680166	0.279641	0.358062
H334	H	1.396219	-0.451021	-0.191084
H335	H	1.729552	-0.117688	0.142249
H336	H	2.062885	0.215646	0.475583
H337	H	1.396508	-0.953374	-0.191179
H338	H	1.729841	-0.620041	0.142154
H339	H	2.063175	-0.286707	0.475487
H340	H	1.396337	-0.312414	-0.953738
H341	H	1.729671	0.020919	-0.620405
H342	H	2.063004	0.354252	-0.287071
H343	H	1.023851	-0.116787	-0.195072
H344	H	1.357184	0.216546	0.138262
H345	H	1.690517	0.549879	0.471595
H346	H	1.287473	-0.087852	-0.088347
H347	H	1.620806	0.245481	0.244986
H348	H	1.954140	0.578814	0.578320
H349	H	1.329250	-0.801291	-0.157695
H350	H	1.662583	-0.467958	0.175639
H351	H	1.995916	-0.134625	0.508972
H352	H	1.351993	-0.180432	-0.102743
H353	H	1.685326	0.152902	0.230590
H354	H	2.018659	0.486235	0.563924
H355	H	1.396273	-0.550087	-0.191100
H356	H	1.729607	-0.216754	0.142234
H357	H	2.062940	0.116580	0.475567
H358	H	1.396241	-0.312525	-0.550450
H359	H	1.729575	0.020809	-0.217117
H360	H	2.062908	0.354142	0.116217
H361	H	1.707481	-0.157717	-0.702606
H362	H	2.040814	0.175617	-0.369273
H363	H	2.374148	0.508950	-0.035939
H364	H	1.396219	-0.312546	-0.451383
H365	H	1.729552	0.020787	-0.118049
H366	H	2.062886	0.354121	0.215284
H367	H	0.749882	-0.415972	-0.415327
H368	H	1.083216	-0.082638	-0.081993
H369	H	1.416549	0.250695	0.251340
H370	H	1.707501	-0.157688	-0.801652
H371	H	2.040834	0.175645	-0.468318
H372	H	2.374167	0.508978	-0.134985
H373	H	1.640321	-0.191089	-0.953767
H374	H	1.973654	0.142245	-0.620434
H375	H	2.306988	0.475578	-0.287100
H376	H	1.707200	-0.801010	-0.346064
H377	H	2.040533	-0.467677	-0.012731
H378	H	2.373866	-0.134343	0.320603
H379	H	0.685374	-0.323385	-0.400954
H380	H	1.018707	0.009949	-0.067621
H381	H	1.352040	0.343282	0.265713
H382	H	1.640340	-0.191067	-1.052832
H383	H	1.973673	0.142266	-0.719499
H384	H	2.307007	0.475599	-0.386166
H385	H	1.640162	-0.953185	-0.312621
H386	H	1.973495	-0.619852	0.020713
H387	H	2.306828	-0.286518	0.354046
H388	H	1.396386	-0.312398	-1.052787
H389	H	1.729720	0.020935	-0.719454
H390	H	2.063053	0.354268	-0.386121
H391	H	1.329042	-0.345880	-0.801594
H392	H	1.662376	-0.012546	-0.468261
H393	H	1.995709	0.320787	-0.134927
H394	H	1.707145	-0.701963	-0.346042
H395	H	2.040479	-0.368629	-0.012709
H396	H	2.373812	-0.035296	0.320624
H397	H	1.329187	-0.702241	-0.157684
H398	H	1.662520	-0.368908	0.175650
H399	H	1.995853	-0.035575	0.508983
H400	H	0.919162	-0.191151	-0.191315
H401	H	1.252495	0.142182	0.142019
H402	H	1.585829	0.475515	0.475352
H403	H	0.784922	-0.262622	-0.340416
H404	H	1.118255	0.070711	-0.007082
H405	H	1.451588	0.404045	0.326251
H406	H	1.118184	-0.312662	-0.312384
H407	H	1.451517	0.020672	0.020949
H408	H	1.784850	0.354005	0.354282
H409	H	1.123388	-0.056033	-0.134508
H410	H	1.456722	0.277300	0.198825
H411	H	1.790055	0.610634	0.532159
H412	H	1.639905	-0.549889	-0.312554
H413	H	1.973239	-0.216556	0.020780
H414	H	2.306572	0.116777	0.354113
H415	H	1.252453	-0.241189	-0.163297
H416	H	1.585786	0.092144	0.170037
H417	H	1.919119	0.425477	0.503370
H418	H	1.640213	-1.052251	-0.312635
H419	H	1.973546	-0.718917	0.020698
H420	H	2.306880	-0.385584	0.354031
H421	H	1.396586	-1.052424	-0.191190
H422	H	1.729919	-0.719091	0.142143
H423	H	2.063252	-0.385758	0.475477
