data_functionalizedCrystal
_audit_creation_method	'MofGen! by Chris Wilmer'
_symmetry_space_group_name_H-M	'P1'
_symmetry_Int_Tables_number	1
_symmetry_cell_setting	triclinic
loop_
_symmetry_equiv_pos_as_xyz
  x,y,z
_cell_length_a	17.699083
_cell_length_b	15.072220
_cell_length_c	17.699083
_cell_angle_alpha	89.991052
_cell_angle_beta	83.283015
_cell_angle_gamma	90.001563
loop_
_atom_site_label
_atom_site_type_symbol
_atom_site_fract_x
_atom_site_fract_y
_atom_site_fract_z
O1	O	-1.004076	0.073651	-0.095715
O2	O	-0.504076	0.573651	0.404285
O3	O	-0.783697	0.073682	-0.108167
O4	O	-0.283697	0.573682	0.391833
O5	O	-0.900113	0.073658	0.008248
O6	O	-0.400113	0.573658	0.508248
O7	O	-0.887660	0.073675	-0.212130
O8	O	-0.387660	0.573675	0.287870
O9	O	-0.900103	-0.073907	0.008259
O10	O	-0.400103	0.426093	0.508259
O11	O	-0.783687	-0.073883	-0.108156
O12	O	-0.283687	0.426117	0.391844
O13	O	-1.004066	-0.073914	-0.095704
O14	O	-0.504066	0.426086	0.404296
Zn15	Zn	-0.893875	-0.097328	-0.101929
Zn16	Zn	-0.393875	0.402672	0.398071
Zn17	Zn	-0.893888	0.097096	-0.101943
Zn18	Zn	-0.393888	0.597096	0.398057
O19	O	-0.887650	-0.073890	-0.212119
O20	O	-0.387650	0.426110	0.287881
C21	C	-0.755495	-0.000096	-0.107716
C22	C	-0.255495	0.499904	0.392284
C23	C	-0.671477	-0.000085	-0.106377
C24	C	-0.171477	0.499915	0.393623
N25	N	-0.893871	-0.230016	-0.101918
N26	N	-0.393871	0.269984	0.398082
C27	C	-0.622856	-0.000079	-0.174710
C28	C	-0.122856	0.499921	0.325290
C29	C	-0.543913	-0.000090	-0.173448
C30	C	-0.043913	0.499910	0.326552
C31	C	-0.513592	-0.000100	-0.103852
C32	C	-0.013592	0.499900	0.396148
C33	C	-0.562219	-0.000108	-0.035513
C34	C	-0.062219	0.499892	0.464487
C35	C	-0.641161	-0.000104	-0.036776
C36	C	-0.141161	0.499896	0.463224
C37	C	-0.243856	-0.000128	-0.030418
C38	C	0.256144	0.499872	0.469582
C39	C	-0.164908	-0.000130	-0.029160
C40	C	0.335092	0.499870	0.470840
C41	C	-0.146608	-0.000114	-0.167090
C42	C	0.353392	0.499886	0.332910
C43	C	-0.225550	-0.000110	-0.168353
C44	C	0.274450	0.499890	0.331647
C45	C	-0.274170	-0.000122	-0.100015
C46	C	0.225830	0.499878	0.399985
C47	C	-0.359769	-0.000112	-0.101384
C48	C	0.140231	0.499888	0.398616
C49	C	-0.427995	-0.000104	-0.102481
C50	C	0.072005	0.499896	0.397519
C51	C	-0.893880	-0.411014	-0.101928
C52	C	-0.393880	0.088986	0.398072
C53	C	-0.956186	-0.448668	-0.039658
C54	C	-0.456186	0.051332	0.460342
C55	C	-0.956412	-0.551494	-0.039823
C56	C	-0.456412	-0.051494	0.460177
C57	C	-0.893889	-0.589218	-0.101937
C58	C	-0.393889	-0.089218	0.398063
C59	C	-0.910665	-0.551869	-0.180975
C60	C	-0.410665	-0.051869	0.319025
C61	C	-0.911107	-0.449012	-0.180605
C62	C	-0.411107	0.050988	0.319395
C63	C	-0.814610	-0.448923	-0.085873
C64	C	-0.314610	0.051077	0.414127
C65	C	-0.815150	-0.551788	-0.084083
C66	C	-0.315150	-0.051788	0.415917
C67	C	-0.893892	-0.689931	-0.101947
C68	C	-0.393892	-0.189931	0.398053
C69	C	-0.893878	-0.310301	-0.101924
C70	C	-0.393878	0.189699	0.398076
C71	C	-0.032268	-0.000131	-0.096156
C72	C	0.467732	0.499869	0.403844
C73	C	-0.116286	-0.000131	-0.097494
C74	C	0.383714	0.499869	0.402506
C75	C	-0.899662	-0.000125	0.036451
C76	C	-0.399662	0.499875	0.536451
C77	C	-0.898323	-0.000125	0.120469
C78	C	-0.398323	0.499875	0.620469
N79	N	-0.893898	0.229785	-0.101947
N80	N	-0.393898	0.729785	0.398053
C81	C	-0.888102	-0.000105	-0.240322
C82	C	-0.388102	0.499895	0.259678
C83	C	-0.889440	-0.000099	-0.324340
C84	C	-0.389440	0.499901	0.175660
C85	C	-0.966656	-0.000136	0.169090
C86	C	-0.466656	0.499864	0.669090
C87	C	-0.965394	-0.000128	0.248033
C88	C	-0.465394	0.499872	0.748033
C89	C	-0.895798	-0.000115	0.278354
C90	C	-0.395798	0.499885	0.778354
C91	C	-0.827459	-0.000102	0.229727
C92	C	-0.327459	0.499898	0.729727
C93	C	-0.828722	-0.000103	0.150785
C94	C	-0.328722	0.499897	0.650785
C95	C	-0.822364	-0.000094	0.548090
C96	C	-0.322364	0.499906	1.048090
C97	C	-0.821106	-0.000095	0.627038
C98	C	-0.321106	0.499905	1.127038
C99	C	-0.959036	-0.000118	0.645338
C100	C	-0.459036	0.499882	1.145338
C101	C	-0.960299	-0.000120	0.566396
C102	C	-0.460299	0.499880	1.066396
C103	C	-0.891961	-0.000102	0.517776
C104	C	-0.391961	0.499898	1.017776
C105	C	-0.893330	-0.000109	0.432177
C106	C	-0.393330	0.499891	0.932177
C107	C	-0.894427	-0.000114	0.363951
C108	C	-0.394427	0.499886	0.863951
H109	H	-0.504328	-0.000085	-0.229092
H110	H	-0.004328	0.499915	0.270908
O111	O	-0.255129	-0.000050	-0.235893
O112	O	0.244871	0.499950	0.264107
C113	C	-0.335231	-0.000063	-0.222354
C114	C	0.164769	0.499937	0.277646
H115	H	-0.353874	0.027860	-0.163254
H116	H	0.146126	0.527860	0.336746
H117	H	-0.359383	0.042795	-0.266876
H118	H	0.140617	0.542795	0.233124
H119	H	-0.357208	-0.070853	-0.225985
H120	H	0.142792	0.429147	0.274015
O121	O	-0.099269	-0.000149	-0.233406
O122	O	0.400731	0.499851	0.266594
C123	C	-0.023090	-0.000137	-0.217374
C124	C	0.476910	0.499863	0.282626
H125	H	-0.020174	-0.028085	-0.157931
H126	H	0.479826	0.471915	0.342069
H127	H	0.012751	-0.042974	-0.260940
H128	H	0.512751	0.457026	0.239060
H129	H	-0.000248	0.070656	-0.220287
H130	H	0.499752	0.570656	0.279713
O131	O	-0.688286	-0.000065	0.029673
O132	O	-0.188286	0.499935	0.529673
C133	C	-0.644599	-0.000095	0.091372
C134	C	-0.144599	0.499905	0.591372
H135	H	-0.585641	0.027841	0.072053
H136	H	-0.085641	0.527841	0.572053
H137	H	-0.673807	0.042744	0.139239
H138	H	-0.173807	0.542744	0.639239
H139	H	-0.639023	-0.070892	0.112717
H140	H	-0.139023	0.429108	0.612717
O141	O	-0.759805	-0.000205	0.259087
O142	O	-0.259805	0.499795	0.759087
C143	C	-0.718158	-0.076633	0.234252
C144	C	-0.218158	0.423367	0.734252
H145	H	-0.738684	-0.102117	0.179542
H146	H	-0.238684	0.397883	0.679542
H147	H	-0.655111	-0.059432	0.223174
H148	H	-0.155111	0.440568	0.723174
H149	H	-0.727000	-0.130150	0.279957
H150	H	-0.227000	0.369850	0.779957
H151	H	-0.773078	-0.000094	0.111198
H152	H	-0.273078	0.499906	0.611198
O153	O	-0.757333	-0.582315	-0.134778
O154	O	-0.257333	-0.082315	0.365222
C155	C	-0.769369	-0.555735	-0.208811
C156	C	-0.269369	-0.055735	0.291189
H157	H	-0.807884	-0.494897	-0.205375
H158	H	-0.307884	0.005103	0.294625
H159	H	-0.712458	-0.538730	-0.242756
H160	H	-0.212458	-0.038730	0.257244
H161	H	-0.797496	-0.612084	-0.238165
H162	H	-0.297496	-0.112084	0.261835
O163	O	-0.978860	-0.582641	-0.198105
O164	O	-0.478860	-0.082641	0.301895
C165	C	-1.011541	-0.637963	-0.138839
C166	C	-0.511541	-0.137963	0.361161
H167	H	-0.986821	-0.620709	-0.084026
H168	H	-0.486821	-0.120709	0.415974
H169	H	-1.075786	-0.627671	-0.130376
H170	H	-0.575786	-0.127671	0.369624
H171	H	-0.998444	-0.710241	-0.154189
H172	H	-0.498444	-0.210241	0.345811
O173	O	-1.026657	-0.580750	-0.051998
O174	O	-0.526657	-0.080750	0.448002
C175	C	-1.081069	-0.549262	0.006389
C176	C	-0.581069	-0.049262	0.506389
H177	H	-1.058170	-0.487470	0.033070
H178	H	-0.558170	0.012530	0.533070
H179	H	-1.135861	-0.532064	-0.018398
H180	H	-0.635861	-0.032064	0.481602
H181	H	-1.093175	-0.602790	0.051705
H182	H	-0.593175	-0.102790	0.551705
H183	H	-0.647537	-0.000070	-0.231384
H184	H	-0.147537	0.499930	0.268616
H185	H	-0.140225	-0.000139	0.027517
H186	H	0.359775	0.499861	0.527517
H187	H	-1.014680	-0.000129	0.684934
H188	H	-0.514680	0.499871	1.184934
H189	H	-0.283434	-0.000139	0.025228
H190	H	0.216566	0.499861	0.525228
H191	H	-1.021038	-0.000139	0.287618
H192	H	-0.521038	0.499861	0.787618
H193	H	-1.016971	-0.000134	0.541714
H194	H	-0.516971	0.499866	1.041714
H195	H	-0.764429	-0.000086	0.651721
H196	H	-0.264429	0.499914	1.151721
O197	O	-0.979992	-0.420369	-0.197624
O198	O	-0.479992	0.079631	0.302376
C199	C	-0.969950	-0.368285	-0.264222
C200	C	-0.469950	0.131715	0.235778
H201	H	-0.913641	-0.386313	-0.298832
H202	H	-0.413641	0.113687	0.201168
H203	H	-1.018645	-0.381349	-0.299587
H204	H	-0.518645	0.118651	0.200413
H205	H	-0.969443	-0.295077	-0.248099
H206	H	-0.469443	0.204923	0.251901
H207	H	-0.537526	-0.000129	0.021154
H208	H	-0.037526	0.499871	0.521154
H209	H	-0.867304	-0.424100	-0.228231
H210	H	-0.367304	0.075900	0.271769
H211	H	-0.946492	-0.576748	0.018924
H212	H	-0.446492	-0.076748	0.518924
O213	O	-0.795367	-0.417943	-0.018538
O214	O	-0.295367	0.082057	0.481462
C215	C	-0.853282	-0.361436	0.015097
C216	C	-0.353282	0.138564	0.515097
H217	H	-0.909056	-0.377984	-0.008074
H218	H	-0.409056	0.122016	0.491926
H219	H	-0.860310	-0.371125	0.079418
H220	H	-0.360310	0.128875	0.579418
H221	H	-0.837313	-0.289509	0.001147
H222	H	-0.337313	0.210491	0.501147
H223	H	-0.866472	-0.576302	-0.228438
H224	H	-0.366472	-0.076302	0.271562
O225	O	-0.755931	0.000032	0.500946
O226	O	-0.255931	0.500032	1.000946
C227	C	-0.713679	0.076472	0.514651
C228	C	-0.213679	0.576472	1.014651
H229	H	-0.732381	0.101951	0.574565
H230	H	-0.232381	0.601951	1.074565
H231	H	-0.650544	0.059288	0.508990
H232	H	-0.150544	0.559288	1.008990
H233	H	-0.723945	0.129986	0.471480
H234	H	-0.223945	0.629986	0.971480
O235	O	-0.944690	-0.419138	0.030691
O236	O	-0.444690	0.080862	0.530691
C237	C	-1.008866	-0.370716	0.062338
C238	C	-0.508866	0.129284	0.562338
H239	H	-1.060708	-0.391932	0.034177
H240	H	-0.560708	0.108068	0.534177
H241	H	-1.019568	-0.384254	0.126064
H242	H	-0.519568	0.115746	0.626064
H243	H	-0.998219	-0.296809	0.052364
H244	H	-0.498219	0.203191	0.552364
H245	H	-1.014688	-0.422810	-0.049779
H246	H	-0.514688	0.077190	0.450221
O247	O	-0.759213	-0.419831	-0.139936
O248	O	-0.259213	0.080169	0.360064
C249	C	-0.704972	-0.370717	-0.105116
C250	C	-0.204972	0.129283	0.394884
H251	H	-0.707103	-0.391147	-0.042885
H252	H	-0.207103	0.108853	0.457115
H253	H	-0.645763	-0.384380	-0.135609
H254	H	-0.145763	0.115620	0.364391
H255	H	-0.718187	-0.296910	-0.108698
H256	H	-0.218187	0.203090	0.391302
O257	O	-0.799844	-0.580792	-0.014717
O258	O	-0.299844	-0.080792	0.485283
C259	C	-0.729028	-0.546802	0.000703
C260	C	-0.229028	-0.046802	0.500703
H261	H	-0.715180	-0.484334	-0.034535
H262	H	-0.215180	0.015666	0.465465
H263	H	-0.731776	-0.529955	0.063755
H264	H	-0.231776	-0.029955	0.563755
H265	H	-0.682866	-0.598629	-0.014642
H266	H	-0.182866	-0.098629	0.485358
O267	O	-1.034330	-0.000107	0.139765
O268	O	-0.534330	0.499893	0.639765
C269	C	-1.094371	-0.000134	0.199612
C270	C	-0.594371	0.499866	0.699612
H271	H	-1.073252	0.027805	0.253197
H272	H	-0.573252	0.527805	0.753197
H273	H	-1.142972	0.042705	0.183200
H274	H	-0.642972	0.542705	0.683200
H275	H	-1.115441	-0.070930	0.210831
H276	H	-0.615441	0.429070	0.710831
