data_functionalizedCrystal
_audit_creation_method	'MofGen! by Chris Wilmer'
_symmetry_space_group_name_H-M	'P1'
_symmetry_Int_Tables_number	1
_symmetry_cell_setting	triclinic
loop_
_symmetry_equiv_pos_as_xyz
  x,y,z
_cell_length_a	16.959455
_cell_length_b	21.295417
_cell_length_c	16.959447
_cell_angle_alpha	89.964725
_cell_angle_beta	89.983056
_cell_angle_gamma	90.027454
loop_
_atom_site_label
_atom_site_type_symbol
_atom_site_fract_x
_atom_site_fract_y
_atom_site_fract_z
Zn1	Zn	1.208347	-0.250648	-0.446882
Zn2	Zn	1.541680	0.082686	-0.113549
Zn3	Zn	1.875014	0.416019	0.219785
Zn4	Zn	1.208239	-0.355924	-0.314692
Zn5	Zn	1.541573	-0.022591	0.018641
Zn6	Zn	1.874906	0.310742	0.351975
Zn7	Zn	1.076169	-0.250667	-0.314719
Zn8	Zn	1.409503	0.082666	0.018614
Zn9	Zn	1.742836	0.415999	0.351947
Zn10	Zn	1.076116	-0.355877	-0.446831
Zn11	Zn	1.409449	-0.022544	-0.113497
Zn12	Zn	1.742783	0.310789	0.219836
O13	O	1.142218	-0.303279	-0.380781
O14	O	1.475551	0.030054	-0.047448
O15	O	1.808885	0.363387	0.285886
O16	O	1.318943	-0.264624	-0.429357
O17	O	1.652277	0.068709	-0.096023
O18	O	1.985610	0.402042	0.237310
O19	O	1.190697	-0.341990	-0.204085
O20	O	1.524031	-0.008657	0.129249
O21	O	1.857364	0.324677	0.462582
O22	O	1.093770	-0.162575	-0.332284
O23	O	1.427104	0.170758	0.001049
O24	O	1.760437	0.504091	0.334383
O25	O	1.318864	-0.341971	-0.332237
O26	O	1.652198	-0.008637	0.001096
O27	O	1.985531	0.324696	0.334429
O28	O	1.190881	-0.162561	-0.429383
O29	O	1.524214	0.170773	-0.096050
O30	O	1.857547	0.504106	0.237284
O31	O	1.093666	-0.264658	-0.204105
O32	O	1.426999	0.068675	0.129228
O33	O	1.760333	0.402009	0.462562
O34	O	0.965551	-0.264612	-0.332234
O35	O	1.298885	0.068721	0.001099
O36	O	1.632218	0.402054	0.334432
O37	O	1.093679	-0.341890	-0.557448
O38	O	1.427013	-0.008557	-0.224115
O39	O	1.760346	0.324776	0.109218
O40	O	0.965512	-0.341910	-0.429296
O41	O	1.298846	-0.008576	-0.095963
O42	O	1.632179	0.324757	0.237371
O43	O	1.190829	-0.264578	-0.557486
O44	O	1.524162	0.068755	-0.224153
O45	O	1.857496	0.402088	0.109181
O46	O	1.190645	-0.444008	-0.332188
O47	O	1.523979	-0.110674	0.001146
O48	O	1.857312	0.222659	0.334479
O49	O	1.093575	-0.443973	-0.429269
O50	O	1.426908	-0.110640	-0.095936
O51	O	1.760242	0.222694	0.237397
C52	C	0.936852	-0.303258	-0.380763
C53	C	1.270185	0.030075	-0.047430
C54	C	1.603518	0.363408	0.285904
C55	C	0.848995	-0.303265	-0.380774
C56	C	1.182328	0.030069	-0.047441
C57	C	1.515662	0.363402	0.285893
C58	C	0.477515	-0.262998	-0.330347
C59	C	0.810849	0.070336	0.002987
C60	C	1.144182	0.403669	0.336320
C61	C	0.477523	-0.343613	-0.431261
C62	C	0.810857	-0.010279	-0.097927
C63	C	1.144190	0.323054	0.235406
C64	C	0.560069	-0.343604	-0.431256
C65	C	0.893403	-0.010270	-0.097923
C66	C	1.226736	0.323063	0.235411
C67	C	0.601342	-0.303292	-0.380795
C68	C	0.934675	0.030042	-0.047461
C69	C	1.268009	0.363375	0.285872
C70	C	0.560069	-0.262989	-0.330339
C71	C	0.893402	0.070345	0.002995
C72	C	1.226736	0.403678	0.336328
C73	C	0.601349	-0.383910	-0.481705
C74	C	0.934682	-0.050577	-0.148372
C75	C	1.268015	0.282756	0.184961
C76	C	0.683900	-0.383903	-0.481702
C77	C	1.017233	-0.050570	-0.148369
C78	C	1.350566	0.282763	0.184965
C79	C	0.725174	-0.343588	-0.431244
C80	C	1.058507	-0.010254	-0.097911
C81	C	1.391840	0.323079	0.235422
C82	C	0.683896	-0.303283	-0.380787
C83	C	1.017229	0.030051	-0.047453
C84	C	1.350562	0.363384	0.285880
C85	C	0.725168	-0.262971	-0.330326
C86	C	1.058502	0.070363	0.003008
C87	C	1.391835	0.403696	0.336341
C88	C	0.683892	-0.222662	-0.279871
C89	C	1.017225	0.110671	0.053462
C90	C	1.350558	0.444005	0.386795
C91	C	0.601343	-0.222673	-0.279881
C92	C	0.934677	0.110660	0.053452
C93	C	1.268010	0.443994	0.386786
C94	C	0.807722	-0.343577	-0.431235
C95	C	1.141056	-0.010243	-0.097902
C96	C	1.474389	0.323090	0.235432
C97	C	0.807722	-0.262962	-0.330318
C98	C	1.141055	0.070372	0.003016
C99	C	1.474389	0.403705	0.336349
C100	C	1.142114	-0.466831	-0.380737
C101	C	1.475448	-0.133497	-0.047404
C102	C	1.808781	0.199836	0.285929
C103	C	1.142142	-0.536799	-0.380745
C104	C	1.475476	-0.203466	-0.047412
C105	C	1.808809	0.129868	0.285922
C106	C	1.192732	-0.569663	-0.330246
C107	C	1.526065	-0.236329	0.003087
C108	C	1.859398	0.097004	0.336420
C109	C	1.192769	-0.635405	-0.330264
C110	C	1.526102	-0.302072	0.003069
C111	C	1.859435	0.031261	0.336403
C112	C	1.142202	-0.668281	-0.380772
C113	C	1.475536	-0.334948	-0.047439
C114	C	1.808869	-0.001615	0.285894
C115	C	1.091609	-0.635410	-0.431281
C116	C	1.424943	-0.302076	-0.097947
C117	C	1.758276	0.031257	0.235386
C118	C	1.091579	-0.569668	-0.431267
C119	C	1.424913	-0.236335	-0.097934
C120	C	1.758246	0.096998	0.235400
N121	N	1.073056	-0.771544	-0.386792
N122	N	1.406389	-0.438211	-0.053459
N123	N	1.739722	-0.104877	0.279875
N124	N	1.073086	-0.833995	-0.386800
N125	N	1.406420	-0.500662	-0.053467
N126	N	1.739753	-0.167329	0.279866
C127	C	1.142291	-0.866356	-0.380818
C128	C	1.475624	-0.533023	-0.047484
C129	C	1.808957	-0.199689	0.285849
N130	N	1.211465	-0.833906	-0.374811
N131	N	1.544798	-0.500573	-0.041477
N132	N	1.878131	-0.167239	0.291856
N133	N	1.211433	-0.771449	-0.374798
N134	N	1.544766	-0.438116	-0.041465
N135	N	1.878100	-0.104782	0.291868
C136	C	1.142229	-0.739567	-0.380793
C137	C	1.475563	-0.406233	-0.047460
C138	C	1.808896	-0.072900	0.285874
C139	C	1.192925	-0.970505	-0.330335
C140	C	1.526258	-0.637172	0.002998
C141	C	1.859591	-0.303839	0.336331
C142	C	1.192963	-1.036249	-0.330359
C143	C	1.526296	-0.702916	0.002975
C144	C	1.859630	-0.369582	0.336308
C145	C	1.091796	-1.036252	-0.431371
C146	C	1.425130	-0.702919	-0.098038
C147	C	1.758463	-0.369586	0.235295
C148	C	1.091765	-0.970510	-0.431352
C149	C	1.425098	-0.637177	-0.098019
C150	C	1.758432	-0.303843	0.235315
C151	C	1.142328	-0.937640	-0.380830
C152	C	1.475661	-0.604307	-0.047497
C153	C	1.808995	-0.270974	0.285837
C154	C	1.348386	-0.303300	-0.380800
C155	C	1.681719	0.030033	-0.047466
C156	C	2.015053	0.363366	0.285867
C157	C	1.436243	-0.303310	-0.380808
C158	C	1.769576	0.030024	-0.047474
C159	C	2.102909	0.363357	0.285859
C160	C	1.142260	-0.303227	-0.586949
C161	C	1.475594	0.030107	-0.253616
C162	C	1.808927	0.363440	0.079717
C163	C	1.142278	-0.303205	-0.674806
C164	C	1.475612	0.030129	-0.341473
C165	C	1.808945	0.363462	-0.008139
C166	C	1.142343	-0.139089	-0.380842
C167	C	1.475677	0.194244	-0.047509
C168	C	1.809010	0.527578	0.285824
C169	C	1.142397	-0.069121	-0.380868
C170	C	1.475730	0.264213	-0.047535
C171	C	1.809064	0.597546	0.285798
C172	C	1.091828	-0.262875	-1.046299
C173	C	1.425162	0.070458	-0.712965
C174	C	1.758495	0.403792	-0.379632
C175	C	1.192868	-0.343401	-1.046265
C176	C	1.526201	-0.010068	-0.712932
C177	C	1.859534	0.323265	-0.379598
C178	C	1.192854	-0.343416	-0.963719
C179	C	1.526187	-0.010083	-0.630386
C180	C	1.859521	0.323251	-0.297053
C181	C	1.142326	-0.303160	-0.922459
C182	C	1.475659	0.030173	-0.589126
C183	C	1.808992	0.363506	-0.255792
C184	C	1.091811	-0.262890	-0.963745
C185	C	1.425145	0.070444	-0.630412
C186	C	1.758478	0.403777	-0.297078
C187	C	1.243362	-0.383690	-0.922427
C188	C	1.576695	-0.050357	-0.589094
C189	C	1.910028	0.282976	-0.255761
C190	C	1.243349	-0.383707	-0.839876
C191	C	1.576683	-0.050374	-0.506543
C192	C	1.910016	0.282960	-0.173210
C193	C	1.192825	-0.343448	-0.798615
C194	C	1.526158	-0.010114	-0.465281
C195	C	1.859491	0.323219	-0.131948
C196	C	1.142309	-0.303175	-0.839906
C197	C	1.475642	0.030158	-0.506572
C198	C	1.808975	0.363492	-0.173239
C199	C	1.091781	-0.262919	-0.798645
C200	C	1.425114	0.070414	-0.465312
C201	C	1.758447	0.403747	-0.131979
C202	C	1.041268	-0.222643	-0.839935
C203	C	1.374602	0.110690	-0.506602
C204	C	1.707935	0.444024	-0.173268
C205	C	1.041287	-0.222630	-0.922483
C206	C	1.374620	0.110703	-0.589150
C207	C	1.707953	0.444036	-0.255817
C208	C	1.192806	-0.343460	-0.716066
C209	C	1.526140	-0.010127	-0.382733
C210	C	1.859473	0.323206	-0.049399
C211	C	1.091764	-0.262934	-0.716092
C212	C	1.425097	0.070399	-0.382758
C213	C	1.758430	0.403733	-0.049425
C214	C	1.142221	-0.303286	-0.175415
C215	C	1.475555	0.030047	0.157919
C216	C	1.808888	0.363381	0.491252
C217	C	1.142356	-0.303131	-0.087559
C218	C	1.475690	0.030202	0.245775
C219	C	1.809023	0.363536	0.579108
H220	H	0.443914	-0.376436	-0.472339
H221	H	0.777248	-0.043103	-0.139006
H222	H	1.110581	0.290230	0.194328
C223	C	0.853123	-0.387913	-0.486731
C224	C	1.186456	-0.054580	-0.153398
C225	C	1.519789	0.278753	0.179936
N226	N	0.887318	-0.421309	-0.528536
N227	N	1.220651	-0.087976	-0.195202
N228	N	1.553984	0.245358	0.138131
C229	C	1.036178	-0.218648	-0.670712
C230	C	1.369511	0.114685	-0.337379
C231	C	1.702844	0.448018	-0.004046
N232	N	0.994309	-0.185293	-0.636533
N233	N	1.327642	0.148040	-0.303200
N234	N	1.660976	0.481374	0.030134
H235	H	1.000125	-0.189869	-0.806330
H236	H	1.333458	0.143464	-0.472997
H237	H	1.666792	0.476797	-0.139663
C238	C	1.035934	-0.533517	-0.486832
C239	C	1.369268	-0.200184	-0.153499
C240	C	1.702601	0.133150	0.179835
N241	N	0.994025	-0.506287	-0.528687
N242	N	1.327358	-0.172954	-0.195354
N243	N	1.660691	0.160380	0.137979
H244	H	1.284490	-0.416472	-0.956027
H245	H	1.617823	-0.083138	-0.622694
H246	H	1.951157	0.250195	-0.289361
H247	H	1.284479	-0.416503	-0.806265
H248	H	1.617812	-0.083170	-0.472932
H249	H	1.951146	0.250163	-0.139599
H250	H	1.233938	-0.376248	-0.682452
H251	H	1.567272	-0.042915	-0.349119
H252	H	1.900605	0.290418	-0.015785
H253	H	1.000161	-0.189840	-0.956109
H254	H	1.333494	0.143493	-0.622775
H255	H	1.666828	0.476826	-0.289442
H256	H	0.567738	-0.416735	-0.522782
H257	H	0.901072	-0.083401	-0.189449
H258	H	1.234405	0.249932	0.143884
C259	C	1.248556	-0.934347	-0.274772
C260	C	1.581889	-0.601013	0.058561
C261	C	1.915223	-0.267680	0.391894
N262	N	1.290461	-0.907114	-0.232925
N263	N	1.623794	-0.573780	0.100409
N264	N	1.957128	-0.240447	0.433742
H265	H	1.234164	-1.063006	-0.289238
H266	H	1.567497	-0.729672	0.044095
H267	H	1.900831	-0.396339	0.377428
C268	C	0.555933	-0.178340	-0.224383
C269	C	0.889266	0.154993	0.108950
C270	C	1.222600	0.488327	0.442284
N271	N	0.521727	-0.144950	-0.182581
N272	N	0.855060	0.188383	0.150753
N273	N	1.188393	0.521717	0.484086
H274	H	1.233905	-0.542902	-0.289110
H275	H	1.567238	-0.209569	0.044223
H276	H	1.900572	0.123764	0.377556
H277	H	0.717500	-0.416725	-0.522785
H278	H	1.050833	-0.083391	-0.189452
H279	H	1.384167	0.249942	0.143881
H280	H	0.443904	-0.230177	-0.289270
H281	H	0.777238	0.103156	0.044063
H282	H	1.110571	0.436489	0.377396
H283	H	1.050628	-1.063019	-0.472499
H284	H	1.383961	-0.729686	-0.139166
H285	H	1.717294	-0.396353	0.194167
C286	C	1.248419	-0.671563	-0.274705
C287	C	1.581752	-0.338229	0.058628
C288	C	1.915086	-0.004896	0.391961
N289	N	1.290333	-0.698795	-0.232856
N290	N	1.623667	-0.365461	0.100477
N291	N	1.957000	-0.032128	0.433810
H292	H	1.050704	-0.230081	-1.079920
H293	H	1.384038	0.103252	-0.746587
H294	H	1.717371	0.436585	-0.413253
H295	H	1.050439	-0.662182	-0.472406
H296	H	1.383772	-0.328848	-0.139073
H297	H	1.717106	0.004485	0.194261
H298	H	1.050567	-0.943750	-0.472469
H299	H	1.383900	-0.610417	-0.139136
H300	H	1.717234	-0.277084	0.194197
H301	H	1.233999	-0.376181	-1.079864
H302	H	1.567333	-0.042847	-0.746531
H303	H	1.900666	0.290486	-0.413197
H304	H	0.717507	-0.189843	-0.238783
H305	H	1.050840	0.143491	0.094551
H306	H	1.384173	0.476824	0.427884
C307	C	0.853115	-0.218614	-0.274805
C308	C	1.186449	0.114719	0.058528
C309	C	1.519782	0.448052	0.391861
N310	N	0.887305	-0.185212	-0.232992
N311	N	1.220639	0.148121	0.100341
N312	N	1.553972	0.481454	0.433674
