data_functionalizedCrystal
_audit_creation_method	'MofGen! by Chris Wilmer'
_symmetry_space_group_name_H-M	'P1'
_symmetry_Int_Tables_number	1
_symmetry_cell_setting	triclinic
loop_
_symmetry_equiv_pos_as_xyz
  x,y,z
_cell_length_a	14.044220
_cell_length_b	14.044220
_cell_length_c	13.101039
_cell_angle_alpha	86.332523
_cell_angle_beta	86.340132
_cell_angle_gamma	86.811122
loop_
_atom_site_label
_atom_site_type_symbol
_atom_site_fract_x
_atom_site_fract_y
_atom_site_fract_z
O1	O	1.281968	-0.225348	-0.085109
O2	O	1.781968	0.274652	0.414891
O3	O	1.005298	-0.217041	-0.085135
O4	O	1.505298	0.282959	0.414865
O5	O	1.139480	-0.082860	-0.085112
O6	O	1.639480	0.417140	0.414888
O7	O	1.147787	-0.359530	-0.085132
O8	O	1.647787	0.140470	0.414868
O9	O	1.129854	-0.092504	0.085316
O10	O	1.629854	0.407496	0.585316
O11	O	0.995673	-0.226686	0.085293
O12	O	1.495673	0.273314	0.585293
O13	O	1.272343	-0.234993	0.085319
O14	O	1.772343	0.265007	0.585319
Zn15	Zn	1.132479	-0.232371	0.112365
Zn16	Zn	1.632479	0.267629	0.612365
Zn17	Zn	1.145162	-0.219663	-0.112181
Zn18	Zn	1.645162	0.280337	0.387819
O19	O	1.138161	-0.369175	0.085296
O20	O	1.638161	0.130825	0.585296
C21	C	0.964864	-0.218228	0.000076
C22	C	1.464864	0.281772	0.500076
C23	C	0.858722	-0.207383	0.000066
C24	C	1.358722	0.292617	0.500066
C25	C	0.664383	-0.187558	0.000088
C26	C	1.164383	0.312442	0.500088
C27	C	0.613253	-0.264472	0.000087
C28	C	1.113253	0.235528	0.500087
C29	C	0.505116	-0.253441	0.000099
C30	C	1.005116	0.246559	0.500099
C31	C	0.772529	-0.198587	0.000076
C32	C	1.272529	0.301413	0.500076
C33	C	1.131031	-0.052060	0.000102
C34	C	1.631031	0.447940	0.500102
C35	C	1.120187	0.054083	0.000102
C36	C	1.620187	0.554083	0.500102
C37	C	1.312777	-0.233806	0.000106
C38	C	1.812777	0.266194	0.500106
C39	C	1.418920	-0.244651	0.000109
C40	C	1.918920	0.255349	0.500109
C41	C	1.146610	-0.399974	0.000080
C42	C	1.646610	0.100026	0.500080
C43	C	1.157455	-0.506116	0.000073
C44	C	1.657455	-0.006116	0.500073
N45	N	1.123831	-0.241043	0.265612
N46	N	1.623831	0.258957	0.765612
C47	C	1.100362	0.248421	0.000086
C48	C	1.600362	0.748421	0.500086
C49	C	1.177276	0.299551	0.000090
C50	C	1.677276	0.799551	0.500090
C51	C	1.166245	0.407688	0.000080
C52	C	1.666245	0.907688	0.500080
C53	C	1.111391	0.140275	0.000095
C54	C	1.611391	0.640275	0.500095
N55	N	1.153817	-0.210984	-0.265428
N56	N	1.653817	0.289016	0.234572
C57	C	1.112065	-0.252851	0.474653
C58	C	1.612065	0.247149	0.974653
C59	C	1.165580	-0.199179	0.525538
C60	C	1.665580	0.300821	1.025538
C61	C	1.159034	-0.205749	0.641855
C62	C	1.659034	0.294251	1.141855
C63	C	1.118610	-0.246282	0.358325
C64	C	1.618610	0.253718	0.858325
H65	H	0.626945	-0.113431	0.000099
H66	H	1.126945	0.386569	0.500099
H67	H	1.251413	0.262115	0.000028
H68	H	1.751413	0.762115	0.500028
C69	C	1.000220	0.298992	0.000085
C70	C	1.500220	0.798992	0.500085
H71	H	1.005851	0.366090	0.000091
H72	H	1.505851	0.866090	0.500091
H73	H	0.969864	0.284409	-0.059344
H74	H	1.469864	0.784409	0.440656
H75	H	0.963170	0.277691	0.059528
H76	H	1.463170	0.777691	0.559528
C77	C	1.234148	-0.130469	0.466384
C78	C	1.734148	0.369531	0.966384
H79	H	1.229630	-0.135028	0.394832
H80	H	1.729630	0.364972	0.894832
H81	H	1.217349	-0.066854	0.483893
H82	H	1.717349	0.433146	0.983893
H83	H	1.297785	-0.147165	0.483919
H84	H	1.797785	0.352835	0.983919
C85	C	1.043511	-0.321568	0.533802
C86	C	1.543511	0.178432	1.033802
H87	H	1.010781	-0.354372	0.486582
H88	H	1.510781	0.145628	0.986582
H89	H	1.078945	-0.366503	0.575668
H90	H	1.578945	0.133497	1.075668
H91	H	0.998493	-0.286208	0.575645
H92	H	1.498493	0.213792	1.075645
C93	C	0.663825	-0.364618	0.000057
C94	C	1.163825	0.135382	0.500057
H95	H	0.730926	-0.358993	0.000038
H96	H	1.230926	0.141007	0.500038
H97	H	0.642539	-0.401697	0.059481
H98	H	1.142539	0.098303	0.559481
H99	H	0.649224	-0.394941	-0.059391
H100	H	1.149224	0.105059	0.440609
