data_functionalizedCrystal
_audit_creation_method	'MofGen! by Chris Wilmer'
_symmetry_space_group_name_H-M	'P1'
_symmetry_Int_Tables_number	1
_symmetry_cell_setting	triclinic
loop_
_symmetry_equiv_pos_as_xyz
  x,y,z
_cell_length_a	13.339070
_cell_length_b	15.944551
_cell_length_c	12.376457
_cell_angle_alpha	101.276265
_cell_angle_beta	75.589755
_cell_angle_gamma	99.564016
loop_
_atom_site_label
_atom_site_type_symbol
_atom_site_fract_x
_atom_site_fract_y
_atom_site_fract_z
O1	O	1.361721	0.409519	-0.094056
O2	O	1.067189	0.354248	-0.094048
O3	O	1.222496	0.261484	-0.094042
O4	O	1.206414	0.502283	-0.094062
O5	O	1.183683	0.284634	0.093969
O6	O	1.028376	0.377398	0.093963
O7	O	1.322908	0.432670	0.093955
Zn8	Zn	1.169480	0.408710	0.123810
Zn9	Zn	1.220618	0.378208	-0.123903
O10	O	1.167601	0.525433	0.093949
C11	C	1.010092	0.356487	-0.000041
C12	C	0.897788	0.328657	-0.000038
C13	C	0.533017	0.545045	-0.000074
C14	C	0.638533	0.571195	-0.000081
C15	C	0.703352	0.510563	-0.000069
C16	C	0.662645	0.423776	-0.000053
C17	C	0.557120	0.397623	-0.000055
C18	C	0.727455	0.363140	-0.000050
C19	C	0.686748	0.276354	-0.000033
C20	C	0.581233	0.250205	-0.000035
C21	C	0.516415	0.310837	-0.000046
C22	C	0.832979	0.389294	-0.000048
C23	C	0.857082	0.241871	-0.000029
C24	C	0.751566	0.215722	-0.000022
C25	C	1.202422	0.241610	-0.000036
C26	C	1.200420	0.147897	-0.000036
C27	C	1.099369	-0.090507	-0.000048
C28	C	1.127158	-0.129176	0.092651
C29	C	1.196799	-0.023674	-0.000044
C30	C	1.165448	-0.151979	-0.092713
C31	C	1.193296	-0.189405	-0.000057
C32	C	1.224599	-0.061099	0.092732
C33	C	1.262892	-0.083908	-0.092715
C34	C	1.290747	-0.122540	0.000007
C35	C	1.198814	0.071800	-0.000036
C36	C	1.191287	-0.284874	-0.000058
C37	C	1.380005	0.430431	-0.000054
C38	C	1.492311	0.458260	-0.000065
C39	C	1.187676	0.545308	-0.000059
C40	C	1.189680	0.639019	-0.000067
N41	N	1.134587	0.429527	0.292867
N42	N	1.255518	0.357386	-0.292960
C43	C	1.336516	0.309045	0.647859
C44	C	1.360931	0.294473	0.529520
C45	C	1.304347	0.328235	0.470351
C46	C	1.223343	0.376572	0.529532
C47	C	1.198930	0.391151	0.647883
C48	C	1.166762	0.410341	0.470375
C49	C	1.085758	0.458678	0.529556
C50	C	1.061349	0.473254	0.647895
C51	C	1.117933	0.439492	0.707064
C52	C	1.191175	0.395762	0.352024
C53	C	1.053590	0.477868	0.352048
C54	C	1.029174	0.492440	0.470387
H55	H	0.430494	0.289550	-0.000040
O56	O	0.541848	0.165874	0.000025
C57	C	0.576907	0.022403	-0.000021
C58	C	0.621638	0.117883	-0.000063
H59	H	0.641401	-0.016428	-0.000116
H60	H	0.511895	0.016119	0.078679
H61	H	0.544316	-0.003175	-0.078685
H62	H	0.654286	0.143523	0.078548
H63	H	0.686603	0.124111	-0.078815
H64	H	1.320246	-0.063834	-0.171092
H65	H	0.718409	0.145057	-0.000018
H66	H	1.371680	-0.136832	0.000057
H67	H	1.007515	0.505362	0.303873
H68	H	0.909859	0.192498	-0.000025
O69	O	0.805814	0.536114	-0.000018
C70	C	0.944024	0.654524	-0.000094
C71	C	0.827959	0.625702	-0.000133
H72	H	0.961970	0.726954	-0.000210
H73	H	0.961806	0.638713	0.078616
H74	H	0.994241	0.619219	-0.078748
H75	H	0.777665	0.660989	0.078468
H76	H	0.810261	0.641495	-0.078895
H77	H	1.382585	0.281565	0.696043
O78	O	0.982797	0.520333	0.705438
C79	C	0.933688	0.646446	0.839101
C80	C	1.022748	0.593223	0.773985
H81	H	0.965951	0.705379	0.894555
H82	H	0.897437	0.668144	0.776541
H83	H	0.871718	0.605174	0.894473
H84	H	1.084784	0.634442	0.718612
H85	H	1.058915	0.571516	0.836606
H86	H	1.324230	0.316368	0.373994
O87	O	1.002812	-0.073249	0.000258
C88	C	0.822215	-0.076531	0.098306
C89	C	0.931511	-0.096101	0.098107
H90	H	0.764533	-0.095015	0.177396
H91	H	0.824728	-0.004822	0.097570
H92	H	0.796457	-0.115327	0.020041
H93	H	0.957334	-0.057361	0.176358
H94	H	0.928936	-0.167826	0.098784
O95	O	1.058774	-0.153252	0.186111
C96	C	0.980911	-0.268995	0.291227
C97	C	1.058414	-0.241844	0.185359
H98	H	0.980578	-0.340627	0.290643
H99	H	1.005342	-0.230294	0.370267
H100	H	0.899371	-0.256170	0.291110
H101	H	1.139979	-0.254668	0.185366
H102	H	1.033894	-0.280543	0.106367
H103	H	1.098051	0.451353	0.803425
O104	O	1.254336	-0.014159	0.186298
C105	C	1.289640	0.127379	0.291238
C106	C	1.255933	0.074323	0.185242
H107	H	1.290964	0.198926	0.290407
H108	H	1.232091	0.108476	0.370181
H109	H	1.370900	0.114006	0.291558
H110	H	1.174694	0.087668	0.184812
H111	H	1.313551	0.093234	0.106347
O112	O	1.135430	-0.198826	-0.186175
C113	C	1.000573	-0.236092	-0.291729
C114	C	1.034456	-0.182981	-0.185858
H115	H	0.918925	-0.223314	-0.291496
H116	H	1.057557	-0.216758	-0.370768
H117	H	1.000133	-0.307580	-0.291263
H118	H	1.034890	-0.111480	-0.186215
H119	H	0.977463	-0.202387	-0.106867
H120	H	1.257129	0.356407	0.303849
H121	H	1.426885	0.255119	0.481339
O122	O	0.677974	0.655500	-0.000249
C123	C	0.709792	0.777481	-0.097718
C124	C	0.665072	0.682001	-0.097652
H125	H	0.699396	0.798931	-0.176472
H126	H	0.666833	0.818422	-0.019097
H127	H	0.796330	0.785756	-0.097666
H128	H	0.578540	0.673643	-0.097744
H129	H	0.708109	0.641106	-0.176267
O130	O	0.469982	0.603836	-0.000238
C131	C	0.357016	0.647885	-0.097698
C132	C	0.428356	0.581227	-0.097637
H133	H	0.323359	0.629640	-0.176448
H134	H	0.290704	0.649001	-0.019073
H135	H	0.404237	0.714406	-0.097649
H136	H	0.381224	0.514674	-0.097726
H137	H	0.494671	0.580186	-0.176255
O138	O	0.950426	0.539287	0.528008
C139	C	0.784681	0.541338	0.661611
C140	C	0.873801	0.488194	0.596445
H141	H	0.722697	0.500045	0.716939
H142	H	0.816860	0.600306	0.717079
H143	H	0.748476	0.562993	0.598983
H144	H	0.910043	0.466477	0.658990
H145	H	0.841564	0.429267	0.540959
H146	H	0.866111	0.459956	-0.000057
