data_functionalizedCrystal
_audit_creation_method	'MofGen! by Chris Wilmer'
_symmetry_space_group_name_H-M	'P1'
_symmetry_Int_Tables_number	1
_symmetry_cell_setting	triclinic
loop_
_symmetry_equiv_pos_as_xyz
  x,y,z
_cell_length_a	6.817900
_cell_length_b	19.453103
_cell_length_c	17.982651
_cell_angle_alpha	96.122937
_cell_angle_beta	102.445951
_cell_angle_gamma	101.709178
loop_
_atom_site_label
_atom_site_type_symbol
_atom_site_fract_x
_atom_site_fract_y
_atom_site_fract_z
V1	V	-4.006174	-0.097822	-0.237901
O2	O	-4.003107	0.004042	-0.233008
O3	O	-3.949150	-0.193331	-0.236624
O4	O	-3.952756	-0.096606	-0.341497
O5	O	-3.999476	-0.093352	-0.127408
V6	V	-4.491570	-0.085604	-0.224642
O7	O	-4.263325	-0.124624	-0.266984
O8	O	-4.684617	-0.058802	-0.195559
O9	O	-4.325388	0.009906	-0.225919
O10	O	-4.612034	-0.187468	-0.229535
O11	O	-4.615665	-0.090073	-0.335135
O12	O	-4.321782	-0.086820	-0.121045
C13	C	-3.792215	-0.216605	-0.232961
C14	C	-3.826844	-0.294688	-0.232608
C15	C	-3.796814	-0.093222	-0.366737
C16	C	-3.834365	-0.092860	-0.451430
C17	C	-4.098951	-0.155082	-0.982425
C18	C	-4.063623	-0.155409	-0.902844
C19	C	-4.012112	-0.091218	-0.851947
C20	C	-3.995909	-0.026696	-0.880635
C21	C	-4.031222	-0.026369	-0.960215
C22	C	-3.853490	-0.028011	-0.559699
C23	C	-3.818183	-0.028342	-0.480115
C24	C	-3.885891	-0.157050	-0.502328
C25	C	-3.921204	-0.156724	-0.581908
C26	C	-3.904987	-0.092202	-0.610588
C27	C	-3.943291	-0.091848	-0.696879
C28	C	-3.973823	-0.091571	-0.765658
C29	C	-4.024702	-0.334953	-0.236252
C30	C	-4.057245	-0.408320	-0.235928
C31	C	-3.891909	-0.441417	-0.231944
C32	C	-3.694025	-0.401143	-0.228304
C33	C	-3.661493	-0.327778	-0.228636
N34	N	-3.785416	-0.547555	-0.184993
N35	N	-3.816332	-0.617249	-0.184677
C36	C	-3.989917	-0.662462	-0.230946
N37	N	-4.131445	-0.635347	-0.277534
N38	N	-4.100530	-0.565647	-0.277848
C39	C	-3.927165	-0.520969	-0.231584
C40	C	-4.223075	-0.782281	-0.234239
C41	C	-4.255612	-0.855650	-0.233920
C42	C	-3.892383	-0.848471	-0.226288
C43	C	-3.859855	-0.775104	-0.226616
C44	C	-4.025207	-0.742013	-0.230588
C45	C	-4.145665	0.033176	-0.229579
C46	C	-4.090273	0.111257	-0.229937
C47	C	-4.141066	-0.090206	-0.095802
C48	C	-4.082754	-0.090565	-0.011108
H49	H	-4.140900	-0.207354	-1.023860
C50	C	-3.642187	-0.730809	-0.222595
N51	N	-3.478230	-0.697445	-0.219567
H52	H	-3.840258	0.024528	-0.583040
H53	H	-3.963155	-0.208995	-0.623345
C54	C	-4.473283	-0.899943	-0.237930
N55	N	-4.637235	-0.933304	-0.240950
H56	H	-3.899081	-0.209587	-0.478967
H57	H	-3.953954	0.025570	-0.839188
H58	H	-3.559411	-0.428096	-0.225063
H59	H	-4.076819	-0.207945	-0.879494
H60	H	-3.776234	0.023933	-0.438675
H61	H	-3.757765	-0.875418	-0.223050
C62	C	-4.206620	-0.298564	-0.240666
N63	N	-4.343650	-0.271157	-0.244007
C64	C	-4.274911	-0.452620	-0.239930
N65	N	-4.438856	-0.485984	-0.242942
H66	H	-4.018046	0.026167	-0.983567
H67	H	-3.500371	-0.294994	-0.225670
H68	H	-4.357713	-0.755337	-0.237472
