data_functionalizedCrystal
_audit_creation_method	'MofGen! by Chris Wilmer'
_symmetry_space_group_name_H-M	'P1'
_symmetry_Int_Tables_number	1
_symmetry_cell_setting	triclinic
loop_
_symmetry_equiv_pos_as_xyz
  x,y,z
_cell_length_a	12.645331
_cell_length_b	29.839131
_cell_length_c	12.645323
_cell_angle_alpha	89.967288
_cell_angle_beta	89.977178
_cell_angle_gamma	90.041634
loop_
_atom_site_label
_atom_site_type_symbol
_atom_site_fract_x
_atom_site_fract_y
_atom_site_fract_z
Zn1	Zn	1.620556	-0.178847	-0.599393
Zn2	Zn	2.120556	0.321153	-0.099393
Zn3	Zn	1.620365	-0.253979	-0.422108
Zn4	Zn	2.120365	0.246021	0.077892
Zn5	Zn	1.443271	-0.178864	-0.422137
Zn6	Zn	1.943271	0.321136	0.077863
Zn7	Zn	1.443179	-0.253951	-0.599323
Zn8	Zn	1.943179	0.246049	-0.099323
O9	O	1.531843	-0.216410	-0.510740
O10	O	2.031843	0.283590	-0.010740
O11	O	1.768878	-0.188818	-0.575893
O12	O	2.268878	0.311182	-0.075893
O13	O	1.596831	-0.244033	-0.273765
O14	O	2.096831	0.255967	0.226235
O15	O	1.466907	-0.115995	-0.445691
O16	O	1.966907	0.384005	0.054309
O17	O	1.768737	-0.244017	-0.445643
O18	O	2.268737	0.255983	0.054357
O19	O	1.597158	-0.115982	-0.575920
O20	O	2.097158	0.384018	-0.075920
O21	O	1.466721	-0.188847	-0.273785
O22	O	1.966721	0.311153	0.226215
O23	O	1.294912	-0.188820	-0.445624
O24	O	1.794912	0.311180	0.054376
O25	O	1.466751	-0.243970	-0.747680
O26	O	1.966751	0.256030	-0.247680
O27	O	1.294844	-0.243986	-0.575802
O28	O	1.794844	0.256014	-0.075802
O29	O	1.597069	-0.188791	-0.747731
O30	O	2.097069	0.311209	-0.247731
O31	O	1.596742	-0.316842	-0.445576
O32	O	2.096742	0.183158	0.054424
O33	O	1.466565	-0.316822	-0.575775
O34	O	1.966565	0.183178	-0.075775
C35	C	1.256413	-0.216402	-0.510709
C36	C	1.756413	0.283598	-0.010709
C37	C	1.138583	-0.216410	-0.510721
C38	C	1.638583	0.283590	-0.010721
C39	C	1.093708	-0.181650	-0.428959
C40	C	1.593708	0.318350	0.071041
C41	C	0.971148	-0.181522	-0.429239
C42	C	1.471148	0.318478	0.070761
C43	C	0.970766	-0.203784	-0.622632
C44	C	1.470766	0.296216	-0.122632
C45	C	1.093364	-0.203524	-0.622122
C46	C	1.593364	0.296476	-0.122122
C47	C	1.093322	-0.263898	-0.481627
C48	C	1.593322	0.236102	0.018373
C49	C	0.970714	-0.263650	-0.479201
C50	C	1.470714	0.236350	0.020799
C51	C	1.531651	-0.333133	-0.510688
C52	C	2.031651	0.166867	-0.010688
C53	C	1.531667	-0.383067	-0.510701
C54	C	2.031667	0.116933	-0.010701
C55	C	1.599749	-0.692709	-0.443045
C56	C	2.099749	-0.192709	0.056955
C57	C	1.599880	-0.880382	-0.443086
C58	C	2.099880	-0.380382	0.056914
O59	O	1.657615	-0.904645	-0.385522
O60	O	2.157615	-0.404645	0.114478
N61	N	1.532063	-0.903852	-0.510820
N62	N	2.032063	-0.403852	-0.010820
C63	C	1.464212	-0.880402	-0.578554
C64	C	1.964212	-0.380402	-0.078554
O65	O	1.406540	-0.904671	-0.636175
O66	O	1.906540	-0.404671	-0.136175
C67	C	1.464088	-0.692730	-0.578517
C68	C	1.964088	-0.192730	-0.078517
C69	C	1.531902	-0.669261	-0.510771
C70	C	2.031902	-0.169261	-0.010771
C71	C	1.667559	-0.669240	-0.375305
C72	C	2.167559	-0.169240	0.124695
C73	C	1.667522	-0.622325	-0.375291
C74	C	2.167522	-0.122325	0.124709
C75	C	1.599675	-0.598878	-0.443017
C76	C	2.099675	-0.098878	0.056983
C77	C	1.531865	-0.622346	-0.510757
C78	C	2.031865	-0.122346	-0.010757
C79	C	1.396244	-0.669280	-0.646256
C80	C	1.896244	-0.169280	-0.146256
C81	C	1.396220	-0.622359	-0.646243
C82	C	1.896220	-0.122359	-0.146243
C83	C	1.464035	-0.598891	-0.578496
C84	C	1.964035	-0.098891	-0.078496
C85	C	1.463980	-0.551983	-0.578470
C86	C	1.963980	-0.051983	-0.078470
N87	N	1.531798	-0.528513	-0.510736
N88	N	2.031798	-0.028513	-0.010736
C89	C	1.599645	-0.551960	-0.443009
C90	C	2.099645	-0.051960	0.056991
C91	C	1.464281	-0.978933	-0.578567
C92	C	1.964281	-0.478933	-0.078567
C93	C	1.464311	-1.025850	-0.578575
C94	C	1.964311	-0.525850	-0.078575
C95	C	1.599980	-1.025827	-0.443108
C96	C	2.099980	-0.525827	0.056892
C97	C	1.599945	-0.978908	-0.443095
C98	C	2.099945	-0.478908	0.056905
C99	C	1.532099	-0.955462	-0.510833
C100	C	2.032099	-0.455462	-0.010833
C101	C	1.599560	-0.453434	-0.442985
C102	C	2.099560	0.046566	0.057015
C103	C	1.599514	-0.406515	-0.442974
C104	C	2.099514	0.093485	0.057026
C105	C	1.463849	-0.406542	-0.578445
C106	C	1.963849	0.093458	-0.078445
C107	C	1.463891	-0.453458	-0.578452
C108	C	1.963891	0.046542	-0.078452
C109	C	1.531755	-0.476902	-0.510719
C110	C	2.031755	0.023098	-0.010719
O111	O	1.406284	-0.527691	-0.636012
O112	O	1.906284	-0.027691	-0.136012
O113	O	1.657325	-0.527682	-0.385414
O114	O	2.157325	-0.027682	0.114586
C115	C	1.599787	-0.739624	-0.443058
C116	C	2.099787	-0.239624	0.056942
C117	C	1.531977	-0.763092	-0.510798
C118	C	2.031977	-0.263092	-0.010798
C119	C	1.464130	-0.739645	-0.578525
C120	C	1.964130	-0.239645	-0.078525
C121	C	1.532007	-0.810010	-0.510806
C122	C	2.032007	-0.310010	-0.010806
C123	C	1.599854	-0.833457	-0.443080
C124	C	2.099854	-0.333457	0.056920
C125	C	1.667672	-0.809987	-0.375346
C126	C	2.167672	-0.309987	0.124654
C127	C	1.667634	-0.763071	-0.375332
C128	C	2.167634	-0.263071	0.124668
C129	C	1.396312	-0.763116	-0.646259
C130	C	1.896312	-0.263116	-0.146259
C131	C	1.396354	-0.810031	-0.646266
C132	C	1.896354	-0.310031	-0.146266
C133	C	1.464202	-0.833479	-0.578540
C134	C	1.964202	-0.333479	-0.078540
C135	C	1.808348	-0.216419	-0.510772
C136	C	2.308348	0.283581	-0.010772
C137	C	1.926178	-0.216422	-0.510786
C138	C	2.426178	0.283578	-0.010786
C139	C	1.531921	-0.216376	-0.787246
C140	C	2.031921	0.283624	-0.287246
C141	C	1.531954	-0.216361	-0.905076
C142	C	2.031954	0.283639	-0.405076
C143	C	1.532064	-0.099232	-0.510816
C144	C	2.032064	0.400768	-0.010816
C145	C	1.532158	-0.049298	-0.510849
C146	C	2.032158	0.450702	-0.010849
C147	C	1.449718	-0.250910	-1.072608
C148	C	1.949718	0.249090	-0.572608
C149	C	1.449934	-0.251081	-0.950048
C150	C	1.949934	0.248919	-0.450048
C151	C	1.643641	-0.229209	-0.949592
C152	C	2.143641	0.270791	-0.449592
C153	C	1.643190	-0.229426	-1.072190
C154	C	2.143190	0.270574	-0.572190
C155	C	1.503560	-0.168770	-1.072289
C156	C	2.003560	0.331230	-0.572289
C157	C	1.501067	-0.169055	-0.949682
C158	C	2.001067	0.330945	-0.449682
C159	C	1.531826	-0.216413	-0.235310
C160	C	2.031826	0.283587	0.264690
C161	C	1.531998	-0.216301	-0.117481
C162	C	2.031998	0.283699	0.382519
H163	H	0.940090	-0.290922	-0.534376
H164	H	1.440090	0.209078	-0.034376
H165	H	1.366652	-0.242947	-1.102084
H166	H	1.866652	0.257053	-0.602084
H167	H	1.706571	-0.205312	-1.101876
H168	H	2.206571	0.294688	-0.601876
H169	H	1.563489	-0.142985	-1.101311
H170	H	2.063489	0.357015	-0.601311
H171	H	1.668166	-0.263591	-0.918892
H172	H	2.168166	0.236409	-0.418892
H173	H	1.655225	-1.044926	-0.387963
H174	H	2.155225	-0.544926	0.112037
H175	H	1.122016	-0.168818	-0.646713
H176	H	1.622016	0.331182	-0.146713
H177	H	1.123055	-0.227751	-0.685151
H178	H	1.623055	0.272249	-0.185151
H179	H	1.556621	-0.141906	-0.919070
H180	H	2.056621	0.358094	-0.419070
H181	H	0.940120	-0.169463	-0.647663
H182	H	1.440120	0.330537	-0.147663
H183	H	0.941642	-0.228331	-0.685244
H184	H	1.441642	0.271669	-0.185244
H185	H	1.654824	-0.472517	-0.387832
H186	H	2.154824	0.027483	0.112168
H187	H	1.124176	-0.275438	-0.401423
H188	H	1.624176	0.224562	0.098577
H189	H	1.722855	-0.743967	-0.320167
H190	H	2.222855	-0.243967	0.179833
H191	H	1.367112	-0.243041	-0.919948
H192	H	1.867112	0.256959	-0.419948
H193	H	1.468306	-0.285927	-1.103416
H194	H	1.968306	0.214073	-0.603416
H195	H	1.706588	-0.204799	-0.920465
H196	H	2.206588	0.295201	-0.420465
H197	H	1.722814	-0.688326	-0.320153
H198	H	2.222814	-0.188326	0.179847
H199	H	0.941566	-0.273183	-0.396886
H200	H	1.441566	0.226817	0.103114
H201	H	1.122336	-0.289793	-0.541178
H202	H	1.622336	0.210207	-0.041178
H203	H	1.654736	-0.387408	-0.387803
H204	H	2.154736	0.112592	0.112197
H205	H	1.468704	-0.286318	-0.920722
H206	H	1.968704	0.213682	-0.420722
H207	H	1.667301	-0.264172	-1.100790
H208	H	2.167301	0.235828	-0.600790
H209	H	1.722745	-0.603220	-0.320129
H210	H	2.222745	-0.103220	0.179871
H211	H	1.408605	-0.387444	-0.633584
H212	H	1.908605	0.112556	-0.133584
H213	H	1.722912	-0.829086	-0.320197
H214	H	2.222912	-0.329086	0.179803
H215	H	1.418876	-0.159366	-0.920586
H216	H	1.918876	0.340634	-0.420586
H217	H	1.655165	-0.959803	-0.387931
H218	H	2.155165	-0.459803	0.112069
H219	H	1.409080	-1.044954	-0.633731
H220	H	1.909080	-0.544954	-0.133731
H221	H	1.341122	-0.829135	-0.701433
H222	H	1.841122	-0.329135	-0.201433
H223	H	1.341064	-0.744029	-0.701412
H224	H	1.841064	-0.244029	-0.201412
H225	H	1.409030	-0.959846	-0.633728
H226	H	1.909030	-0.459846	-0.133728
H227	H	1.341017	-0.688380	-0.701417
H228	H	1.841017	-0.188380	-0.201417
H229	H	1.423538	-0.157058	-1.103197
H230	H	1.923538	0.342942	-0.603197
H231	H	1.123104	-0.189445	-0.345759
H232	H	1.623104	0.310555	0.154241
H233	H	0.940997	-0.189407	-0.346320
H234	H	1.440997	0.310593	0.153680
H235	H	1.340973	-0.603271	-0.701406
H236	H	1.840973	-0.103271	-0.201406
H237	H	1.408674	-0.472566	-0.633620
H238	H	1.908674	0.027434	-0.133620
H239	H	0.941874	-0.146337	-0.448562
H240	H	1.441874	0.353663	0.051438
H241	H	1.124569	-0.146662	-0.448028
H242	H	1.624569	0.353338	0.051972
