data_functionalizedCrystal
_audit_creation_method	'MofGen! by Chris Wilmer'
_symmetry_space_group_name_H-M	'P1'
_symmetry_Int_Tables_number	1
_symmetry_cell_setting	triclinic
loop_
_symmetry_equiv_pos_as_xyz
  x,y,z
_cell_length_a	18.101398
_cell_length_b	18.101397
_cell_length_c	18.101390
_cell_angle_alpha	90.035542
_cell_angle_beta	90.024681
_cell_angle_gamma	90.015732
loop_
_atom_site_label
_atom_site_type_symbol
_atom_site_fract_x
_atom_site_fract_y
_atom_site_fract_z
Zn1	Zn	1.132178	-0.294895	0.418825
Zn2	Zn	1.132096	-0.418752	0.294978
Zn3	Zn	1.008337	-0.294918	0.294986
Zn4	Zn	1.008311	-0.418689	0.418767
O5	O	1.070231	-0.356813	0.356889
O6	O	1.235800	-0.311341	0.402418
O7	O	1.115656	-0.402361	0.191346
O8	O	1.024809	-0.191282	0.311442
O9	O	1.235740	-0.402338	0.311428
O10	O	1.115795	-0.191265	0.402426
O11	O	1.024730	-0.311381	0.191352
O12	O	0.904700	-0.311320	0.311385
O13	O	1.024766	-0.402231	0.522407
O14	O	0.904682	-0.402254	0.402326
O15	O	1.115771	-0.311280	0.522450
O16	O	1.115631	-0.522376	0.311371
O17	O	1.024686	-0.522330	0.402318
C18	C	0.877820	-0.356783	0.356850
C19	C	0.795506	-0.356788	0.356851
C20	C	0.496415	-0.356835	0.356914
C21	C	0.527727	-0.299336	0.299975
C22	C	0.613345	-0.299490	0.299732
C23	C	0.644798	-0.356811	0.356883
C24	C	0.613694	-0.434824	0.335555
C25	C	0.528049	-0.434505	0.335159
C26	C	0.528026	-0.336998	0.435314
C27	C	0.613677	-0.335261	0.434886
C28	C	0.728657	-0.356802	0.356867
C29	C	0.412556	-0.356848	0.356928
C30	C	1.070167	-0.549224	0.356853
C31	C	1.070208	-0.631538	0.356863
C32	C	1.070302	-0.930629	0.356930
C33	C	1.127363	-0.899302	0.299555
C34	C	1.127560	-0.813684	0.299704
C35	C	1.070256	-0.782246	0.356896
C36	C	1.091412	-0.813249	0.434959
C37	C	1.091854	-0.898894	0.434646
C38	C	0.991933	-0.899133	0.336918
C39	C	0.992321	-0.813484	0.335175
C40	C	1.070228	-0.698387	0.356881
C41	C	1.070332	-1.014488	0.356950
C42	C	1.263392	-0.356844	0.356928
C43	C	1.345707	-0.356857	0.356945
C44	C	1.070275	-0.356746	0.550051
C45	C	1.070293	-0.356717	0.632365
C46	C	1.070314	-0.163652	0.356941
C47	C	1.070350	-0.081337	0.356964
C48	C	1.070229	-0.356827	0.164479
C49	C	1.070354	-0.356648	0.082165
C50	C	1.070333	-0.356671	0.931456
C51	C	1.127780	-0.299648	0.900158
C52	C	1.127600	-0.299437	0.814540
C53	C	1.070314	-0.356694	0.783074
C54	C	0.992293	-0.335484	0.814141
C55	C	0.992637	-0.335057	0.899787
C56	C	1.090221	-0.435050	0.899867
C57	C	1.091933	-0.434650	0.814217
C58	C	1.070299	-0.356708	0.699214
C59	C	1.070344	-0.356655	1.015316
H60	H	0.508040	-0.451326	0.277844
H61	H	0.507146	-0.241309	0.313197
H62	H	1.185612	-0.793144	0.312946
H63	H	1.149349	-0.450643	0.793911
H64	H	1.185097	-0.920774	0.312645
H65	H	1.052114	-0.919613	0.478868
H66	H	0.975780	-0.277762	0.919779
H67	H	0.506444	-0.281101	0.454705
H68	H	0.947519	-0.792092	0.373903
H69	H	1.053135	-0.479419	0.792794
C70	C	1.167938	-0.784205	0.458244
N71	N	1.225579	-0.762332	0.475778
H72	H	0.507335	-0.478797	0.374821
H73	H	1.149138	-0.918816	0.451597
C74	C	0.965935	-0.928393	0.261346
N75	N	0.946362	-0.950432	0.204422
H76	H	1.048383	-0.477538	0.920111
H77	H	1.114324	-0.792726	0.241822
C78	C	0.641758	-0.221334	0.317783
N79	N	0.663154	-0.162463	0.331375
C80	C	0.640983	-0.317210	0.221251
N81	N	0.661799	-0.330561	0.162135
C82	C	0.498607	-0.316841	0.221951
N83	N	0.476670	-0.330027	0.163184
C84	C	0.642598	-0.387719	0.495271
N85	N	0.664378	-0.427238	0.540751
C86	C	1.036988	-0.785731	0.494267
N87	N	0.995995	-0.765002	0.538937
C88	C	0.932896	-0.389858	0.786596
N89	N	0.888158	-0.430812	0.765846
H90	H	0.975129	-0.278826	0.792704
C91	C	0.970762	-0.786111	0.257570
N92	N	0.954525	-0.765487	0.199119
C93	C	1.206197	-0.317374	0.927991
N94	N	1.265263	-0.330729	0.948956
H95	H	1.114287	-0.919949	0.241500
C96	C	0.934498	-0.926505	0.393369
N97	N	0.891243	-0.947126	0.435890
H98	H	0.634067	-0.478814	0.375728
H99	H	0.634010	-0.277852	0.450968
C100	C	0.500668	-0.393573	0.492629
N101	N	0.480056	-0.436186	0.535792
C102	C	1.205766	-0.317349	0.786163
N103	N	1.264646	-0.330830	0.764794
H104	H	1.114781	-0.241908	0.921697
H105	H	1.114435	-0.241372	0.794069
H106	H	0.635111	-0.451937	0.278859
H107	H	0.948379	-0.374782	0.920488
C108	C	1.165765	-0.461109	0.929057
N109	N	1.222669	-0.480728	0.951044
