data_functionalizedCrystal
_audit_creation_method	'MofGen! by Chris Wilmer'
_symmetry_space_group_name_H-M	'P1'
_symmetry_Int_Tables_number	1
_symmetry_cell_setting	triclinic
loop_
_symmetry_equiv_pos_as_xyz
  x,y,z
_cell_length_a	27.732048
_cell_length_b	19.188930
_cell_length_c	17.666332
_cell_angle_alpha	89.976867
_cell_angle_beta	90.010186
_cell_angle_gamma	97.106284
loop_
_atom_site_label
_atom_site_type_symbol
_atom_site_fract_x
_atom_site_fract_y
_atom_site_fract_z
O1	O	0.060347	-0.925765	0.063200
O2	O	0.560347	-0.425765	0.563200
O3	O	0.068471	-0.722402	0.063149
O4	O	0.568471	-0.222402	0.563149
O5	O	-0.005968	-0.830399	0.063161
O6	O	0.494032	-0.330399	0.563161
O7	O	0.134786	-0.817767	0.063187
O8	O	0.634786	-0.317767	0.563187
O9	O	-0.005971	-0.830380	-0.062735
O10	O	0.494029	-0.330380	0.437265
O11	O	0.068469	-0.722383	-0.062748
O12	O	0.568469	-0.222383	0.437252
O13	O	0.060345	-0.925746	-0.062697
O14	O	0.560345	-0.425746	0.437303
Cu15	Cu	0.064407	-0.824063	-0.074218
Cu16	Cu	0.564407	-0.324063	0.425782
Cu17	Cu	0.064409	-0.824085	0.074670
Cu18	Cu	0.564409	-0.324085	0.574670
O19	O	0.134784	-0.817748	-0.062710
O20	O	0.634784	-0.317748	0.437290
C21	C	-0.023977	-0.830125	0.000211
C22	C	0.476023	-0.330125	0.500211
C23	C	-0.077635	-0.829326	0.000204
C24	C	0.422365	-0.329326	0.500204
C25	C	0.068207	-0.696383	0.000194
C26	C	0.568207	-0.196383	0.500194
C27	C	0.067417	-0.618883	0.000174
C28	C	0.567417	-0.118883	0.500174
C29	C	0.060609	-0.951765	0.000260
C30	C	0.560609	-0.451765	0.500260
C31	C	0.061399	-1.029264	0.000285
C32	C	0.561399	-0.529264	0.500285
C33	C	-0.416270	-0.888119	0.000258
C34	C	0.083730	-0.388119	0.500258
C35	C	-0.617939	-0.885157	0.000268
C36	C	-0.117939	-0.385157	0.500268
O37	O	-0.649030	-0.938918	0.000314
O38	O	-0.149030	-0.438918	0.500314
N39	N	-0.637258	-0.821118	0.000251
N40	N	-0.137258	-0.321118	0.500251
C41	C	-0.606157	-0.757816	0.000237
C42	C	-0.106157	-0.257816	0.500237
O43	O	-0.627217	-0.703280	0.000231
O44	O	-0.127217	-0.203280	0.500231
C45	C	-0.404489	-0.760780	0.000233
C46	C	0.095511	-0.260780	0.500233
C47	C	-0.385173	-0.824822	0.000242
C48	C	0.114827	-0.324822	0.500242
C49	C	-0.396953	-0.952156	0.000268
C50	C	0.103047	-0.452156	0.500268
C51	C	-0.346539	-0.952896	0.000261
C52	C	0.153461	-0.452896	0.500261
C53	C	-0.315441	-0.889599	0.000245
C54	C	0.184559	-0.389599	0.500245
C55	C	-0.334759	-0.825562	0.000235
C56	C	0.165241	-0.325562	0.500235
C57	C	-0.373389	-0.697478	0.000224
C58	C	0.126611	-0.197478	0.500224
C59	C	-0.322969	-0.698225	0.000225
C60	C	0.177031	-0.198225	0.500225
C61	C	-0.303653	-0.762267	0.000234
C62	C	0.196347	-0.262267	0.500234
C63	C	-0.253247	-0.763005	0.000212
C64	C	0.246753	-0.263005	0.500212
N65	N	-0.233928	-0.827043	0.000229
N66	N	0.266072	-0.327043	0.500229
C67	C	-0.265025	-0.890340	0.000245
C68	C	0.234975	-0.390340	0.500245
C69	C	-0.712036	-0.756265	0.000238
C70	C	-0.212036	-0.256265	0.500238
C71	C	-0.762452	-0.755524	0.000238
C72	C	-0.262452	-0.255524	0.500238
C73	C	-0.774231	-0.882865	0.000270
C74	C	-0.274231	-0.382865	0.500270
C75	C	-0.723813	-0.883605	0.000265
C76	C	-0.223813	-0.383605	0.500265
C77	C	-0.692716	-0.820303	0.000254
C78	C	-0.192716	-0.320303	0.500254
C79	C	-0.159151	-0.891889	0.000231
C80	C	0.340849	-0.391889	0.500231
C81	C	-0.108732	-0.892623	0.000221
C82	C	0.391268	-0.392623	0.500221
C83	C	-0.096958	-0.765283	0.000193
C84	C	0.403042	-0.265283	0.500193
C85	C	-0.147373	-0.764549	0.000198
C86	C	0.352627	-0.264549	0.500198
C87	C	-0.178468	-0.827857	0.000220
C88	C	0.321532	-0.327857	0.500220
O89	O	-0.222127	-0.709272	0.000174
O90	O	0.277873	-0.209272	0.500174
O91	O	-0.243956	-0.944868	0.000268
O92	O	0.256044	-0.444868	0.500268
C93	C	-0.466684	-0.887379	0.000265
C94	C	0.033316	-0.387379	0.500265
C95	C	-0.486001	-0.823342	0.000255
C96	C	0.013999	-0.323342	0.500255
C97	C	-0.454904	-0.760045	0.000238
C98	C	0.045096	-0.260045	0.500238
C99	C	-0.536418	-0.822601	0.000254
C100	C	-0.036418	-0.322601	0.500254
C101	C	-0.567515	-0.885898	0.000271
C102	C	-0.067515	-0.385898	0.500271
C103	C	-0.548195	-0.949936	0.000288
C104	C	-0.048195	-0.449936	0.500288
C105	C	-0.497781	-0.950676	0.000281
C106	C	0.002219	-0.450676	0.500281
C107	C	-0.474224	-0.696007	0.000222
C108	C	0.025776	-0.196007	0.500222
C109	C	-0.524638	-0.695272	0.000227
C110	C	-0.024638	-0.195272	0.500227
C111	C	-0.555735	-0.758569	0.000244
C112	C	-0.055735	-0.258569	0.500244
C113	C	0.152793	-0.818023	0.000243
C114	C	0.652793	-0.318023	0.500243
C115	C	0.206450	-0.818821	0.000254
C116	C	0.706450	-0.318821	0.500254
N117	N	0.064405	-0.824052	-0.178937
N118	N	0.564405	-0.324052	0.321063
C119	C	0.111096	-0.573681	0.000194
C120	C	0.611096	-0.073681	0.500194
C121	C	0.110354	-0.500862	0.000202
C122	C	0.610354	-0.000862	0.500202
C123	C	0.065931	-0.473249	0.000205
C124	C	0.565931	0.026751	0.500205
C125	C	0.022246	-0.518461	0.000181
C126	C	0.522246	-0.018461	0.500181
C127	C	0.022990	-0.591278	0.000165
C128	C	0.522990	-0.091278	0.500165
N129	N	0.031976	-0.365491	0.043078
N130	N	0.531976	0.134509	0.543078
N131	N	0.031273	-0.296317	0.043094
N132	N	0.531273	0.203683	0.543094
C133	C	0.063689	-0.253854	0.000251
C134	C	0.563689	0.246146	0.500251
N135	N	0.096842	-0.283177	-0.042600
N136	N	0.596842	0.216823	0.457400
N137	N	0.097547	-0.352357	-0.042613
N138	N	0.597547	0.147643	0.457387
C139	C	0.065120	-0.394291	0.000222
C140	C	0.565120	0.105709	0.500222
C141	C	0.106566	-0.129692	0.000279
C142	C	0.606566	0.370308	0.500279
C143	C	0.105822	-0.056872	0.000282
C144	C	0.605822	0.443128	0.500282
C145	C	0.017714	-0.074473	0.000269
C146	C	0.517714	0.425527	0.500269
C147	C	0.018459	-0.147292	0.000258
C148	C	0.518459	0.352708	0.500258
C149	C	0.062886	-0.174897	0.000267
C150	C	0.562886	0.325103	0.500267
C151	C	0.093652	-0.866074	-0.218524
C152	C	0.593652	-0.366074	0.281476
C153	C	0.093650	-0.866086	-0.297771
C154	C	0.593650	-0.366086	0.202229
C155	C	0.064407	-0.824061	-0.337429
C156	C	0.564407	-0.324061	0.162571
C157	C	0.035154	-0.782036	-0.297833
C158	C	0.535154	-0.282036	0.202167
C159	C	0.035153	-0.782032	-0.218587
C160	C	0.535153	-0.282032	0.281413
N161	N	0.063217	-0.762921	-0.461885
N162	N	0.563217	-0.262921	0.038115
N163	N	0.063221	-0.762927	-0.537165
N164	N	0.563221	-0.262927	-0.037165
C165	C	0.064409	-0.824074	-0.576193
C166	C	0.564409	-0.324074	-0.076193
N167	N	0.065603	-0.885215	-0.537097
N168	N	0.565603	-0.385215	-0.037097
N169	N	0.065601	-0.885208	-0.461810
N170	N	0.565601	-0.385208	0.038190
C171	C	0.064405	-0.824062	-0.423359
C172	C	0.564405	-0.324062	0.076641
C173	C	0.093656	-0.866112	-0.701709
C174	C	0.593656	-0.366112	-0.201709
C175	C	0.093651	-0.866125	-0.780958
C176	C	0.593651	-0.366125	-0.280958
C177	C	0.035158	-0.782069	-0.781019
C178	C	0.535158	-0.282069	-0.281019
C179	C	0.035160	-0.782063	-0.701771
C180	C	0.535160	-0.282063	-0.201771
C181	C	0.064412	-0.824083	-0.662121
C182	C	0.564412	-0.324083	-0.162121
N183	N	0.064407	-0.824101	0.179389
N184	N	0.564407	-0.324101	0.679389
H185	H	-0.093007	-0.944776	0.000226
H186	H	0.406993	-0.444776	0.500226
H187	H	-0.799559	-0.934404	0.000283
H188	H	-0.299559	-0.434404	0.500283
Cl189	Cl	-0.001610	-0.729208	-0.347688
Cl190	Cl	0.498390	-0.229208	0.152312
Cl191	Cl	0.162416	-0.164399	0.000282
Cl192	Cl	0.662416	0.335601	0.500282
H193	H	-0.071630	-0.713749	0.000177
H194	H	0.428370	-0.213749	0.500177
Cl195	Cl	-0.436038	-1.031741	0.000287
Cl196	Cl	0.063962	-0.531741	0.500287
Cl197	Cl	-0.699535	-0.964118	0.000277
Cl198	Cl	-0.199535	-0.464118	0.500277
Cl199	Cl	-0.038133	-0.039766	0.000265
Cl200	Cl	0.461867	0.460234	0.500265
H201	H	-0.686720	-0.704714	0.000229
H202	H	-0.186720	-0.204714	0.500229
Cl203	Cl	0.166947	-0.608381	0.000201
Cl204	Cl	0.666947	-0.108381	0.500201
H205	H	0.011348	-0.747853	-0.813307
H206	H	0.511348	-0.247853	-0.313307
Cl207	Cl	-0.397660	-0.616963	0.000217
Cl208	Cl	0.102340	-0.116963	0.500217
H209	H	0.117474	-0.900328	-0.669425
H210	H	0.617474	-0.400328	-0.169425
Cl211	Cl	0.165268	-0.444025	0.000225
Cl212	Cl	0.665268	0.055975	0.500225
H213	H	-0.163101	-0.712400	0.000170
H214	H	0.336899	-0.212400	0.500170
H215	H	0.141392	-0.020068	0.000294
H216	H	0.641392	0.479932	0.500294
Cl217	Cl	-0.001600	-0.729217	-0.652002
Cl218	Cl	0.498400	-0.229217	-0.152002
H219	H	-0.013923	-0.495974	0.000195
H220	H	0.486077	0.004026	0.500195
Cl221	Cl	-0.322263	-1.033411	0.000294
Cl222	Cl	0.177737	-0.533411	0.500294
H223	H	0.117468	-0.900306	-0.330009
H224	H	0.617468	-0.400306	0.169991
H225	H	-0.012580	-0.628083	0.000150
H226	H	0.487420	-0.128083	0.500150
Cl227	Cl	-0.001615	-0.729194	-0.168819
Cl228	Cl	0.498385	-0.229194	0.331181
Cl229	Cl	-0.036455	-0.204121	0.000238
Cl230	Cl	0.463545	0.295879	0.500238
H231	H	-0.482059	-1.002826	0.000289
H232	H	0.017941	-0.502826	0.500289
H233	H	0.117469	-0.900294	-0.186246
H234	H	0.617469	-0.400294	0.313754
H235	H	-0.184464	-0.943441	0.000251
H236	H	0.315536	-0.443441	0.500251
H237	H	0.117466	-0.900350	-0.813188
H238	H	0.617466	-0.400350	-0.313188
Cl239	Cl	-0.548915	-0.614753	0.000212
Cl240	Cl	-0.048915	-0.114753	0.500212
Cl241	Cl	-0.786730	-0.675011	0.000212
Cl242	Cl	-0.286730	-0.175011	0.500212
H243	H	-0.297652	-0.646676	0.000217
H244	H	0.202348	-0.146676	0.500217
Cl245	Cl	-0.435137	-0.616425	0.000202
Cl246	Cl	0.064863	-0.116425	0.500202
H247	H	-0.573524	-1.001475	0.000298
H248	H	-0.073524	-0.501475	0.500298
