data_functionalizedCrystal
_audit_creation_method	'MofGen! by Chris Wilmer'
_symmetry_space_group_name_H-M	'P1'
_symmetry_Int_Tables_number	1
_symmetry_cell_setting	triclinic
loop_
_symmetry_equiv_pos_as_xyz
  x,y,z
_cell_length_a	16.109301
_cell_length_b	15.944493
_cell_length_c	15.186229
_cell_angle_alpha	90.002130
_cell_angle_beta	89.999006
_cell_angle_gamma	83.468314
loop_
_atom_site_label
_atom_site_type_symbol
_atom_site_fract_x
_atom_site_fract_y
_atom_site_fract_z
O1	O	1.103143	0.107970	-0.073169
O2	O	0.861083	0.121407	-0.073180
O3	O	0.988748	-0.007592	-0.073181
O4	O	0.975478	0.236969	-0.073167
O5	O	0.988740	-0.007594	0.073276
O6	O	0.861074	0.121405	0.073278
O7	O	1.103135	0.107968	0.073289
Zn8	Zn	0.982103	0.114686	0.096536
Zn9	Zn	0.982114	0.114689	-0.096427
O10	O	0.975469	0.236967	0.073290
C11	C	0.830104	0.120861	0.000048
C12	C	0.737808	0.119229	0.000043
C13	C	0.428818	0.190440	0.000062
C14	C	0.515539	0.191981	0.000057
C15	C	0.535394	0.038929	0.000037
C16	C	0.448675	0.037389	0.000035
C17	C	0.395389	0.113147	0.000053
C18	C	0.568828	0.116228	0.000049
C19	C	0.662855	0.117899	0.000043
C20	C	0.301357	0.111477	0.000056
C21	C	0.988202	-0.038887	0.000044
C22	C	0.986576	-0.132136	0.000033
C23	C	1.061722	-0.367920	0.000053
C24	C	1.021203	-0.418474	-0.072160
C25	C	0.983562	-0.302856	0.000043
C26	C	1.021176	-0.418452	0.072236
C27	C	0.980658	-0.467764	0.000057
C28	C	0.943064	-0.352181	-0.072229
C29	C	0.943049	-0.352156	0.072231
C30	C	0.902472	-0.402677	0.000001
C31	C	0.985238	-0.207856	0.000034
C32	C	0.978976	-0.562761	0.000060
C33	C	1.134114	0.108514	0.000060
C34	C	1.226409	0.110145	0.000059
C35	C	0.976016	0.268262	0.000063
C36	C	0.977642	0.361510	0.000069
N37	N	0.982102	0.114684	0.228229
N38	N	0.982123	0.114684	-0.228120
C39	C	1.038651	0.057583	0.453951
C40	C	1.038654	0.057581	0.546141
C41	C	0.925567	0.171788	0.546151
C42	C	0.925561	0.171786	0.453963
C43	C	0.982108	0.114684	0.407866
C44	C	0.982116	0.114685	0.592243
C45	C	0.982119	0.114683	0.692200
C46	C	0.982105	0.114684	0.307903
H47	H	0.385435	0.252128	0.000076
H48	H	1.054197	-0.447395	0.133282
O49	O	0.822143	-0.421256	-0.000006
C50	C	0.821461	-0.509601	0.000694
H51	H	0.882972	-0.540775	0.028834
H52	H	0.813394	-0.532959	-0.069401
C53	C	0.672972	-0.494148	0.023570
C54	C	0.748519	-0.532437	0.058139
H55	H	0.627976	-0.508236	0.059001
H56	H	0.673431	-0.434629	0.023095
H57	H	0.666261	-0.513618	-0.034842
H58	H	0.755234	-0.512960	0.116545
H59	H	0.748060	-0.591954	0.058626
H60	H	0.910066	-0.323185	0.133282
O61	O	0.547909	0.267119	-0.000050
C62	C	0.520687	0.313291	-0.075905
H63	H	0.460549	0.290408	-0.101193
H64	H	0.570868	0.303560	-0.129024
C65	C	0.578266	0.435890	-0.021793
C66	C	0.504399	0.407789	-0.052848
H67	H	0.568222	0.494181	-0.007572
H68	H	0.596609	0.404782	0.029311
H69	H	0.620076	0.427773	-0.066064
H70	H	0.462594	0.415897	-0.008574
H71	H	0.486049	0.438901	-0.103944
H72	H	1.129047	-0.352314	-0.000017
H73	H	0.879513	0.218284	0.416438
H74	H	0.578790	-0.022751	0.000025
O75	O	1.060506	-0.452910	-0.145081
C76	C	1.020010	-0.417844	-0.221097
H77	H	0.984597	-0.353845	-0.204267
H78	H	0.974254	-0.461838	-0.246318
C79	C	1.128914	-0.485164	-0.313469
C80	C	1.085425	-0.406557	-0.292800
H81	H	1.169264	-0.478205	-0.357701
H82	H	1.156196	-0.508792	-0.262257
H83	H	1.090775	-0.521819	-0.334482
H84	H	1.123562	-0.369908	-0.271778
H85	H	1.058151	-0.382922	-0.344011
O86	O	1.093604	0.002030	0.409308
C87	C	1.143523	-0.048355	0.469758
H88	H	1.109441	-0.049309	0.535475
H89	H	1.205280	-0.021065	0.479557
C90	C	1.202530	-0.137797	0.353064
C91	C	1.160666	-0.138975	0.433777
H92	H	1.213108	-0.193695	0.330868
H93	H	1.168901	-0.103850	0.312336
H94	H	1.253989	-0.115051	0.361241
H95	H	1.109204	-0.161710	0.425597
H96	H	1.194287	-0.172928	0.474502
H97	H	0.910078	-0.323350	-0.133344
H98	H	1.084695	0.011083	0.583661
O99	O	0.416335	-0.037772	0.000066
C100	C	0.481960	-0.104308	0.000036
H101	H	0.540867	-0.080783	0.027770
H102	H	0.494237	-0.127668	-0.070230
C103	C	0.385137	-0.206107	0.023396
C104	C	0.457486	-0.177214	0.057466
H105	H	0.370040	-0.251080	0.058818
H106	H	0.340924	-0.161281	0.023413
H107	H	0.395377	-0.225567	-0.035158
H108	H	0.447242	-0.157745	0.116015
H109	H	0.501697	-0.222038	0.057461
H110	H	0.879529	0.218280	0.583693
