data_functionalizedCrystal
_audit_creation_method	'MofGen! by Chris Wilmer'
_symmetry_space_group_name_H-M	'P1'
_symmetry_Int_Tables_number	1
_symmetry_cell_setting	triclinic
loop_
_symmetry_equiv_pos_as_xyz
  x,y,z
_cell_length_a	29.839134
_cell_length_b	18.101396
_cell_length_c	18.101389
_cell_angle_alpha	89.983791
_cell_angle_beta	90.028730
_cell_angle_gamma	89.968115
loop_
_atom_site_label
_atom_site_type_symbol
_atom_site_fract_x
_atom_site_fract_y
_atom_site_fract_z
Zn1	Zn	0.686763	0.295009	0.418937
Zn2	Zn	0.686692	0.418834	0.295100
Zn3	Zn	0.611637	0.295000	0.295089
Zn4	Zn	0.611600	0.418802	0.418879
O5	O	0.649173	0.356911	0.357001
O6	O	0.749621	0.311452	0.402539
O7	O	0.676722	0.402418	0.191466
O8	O	0.621648	0.191368	0.311537
O9	O	0.749569	0.402426	0.311557
O10	O	0.676843	0.191375	0.402528
O11	O	0.621580	0.311437	0.191457
O12	O	0.548765	0.311406	0.311481
O13	O	0.621584	0.402370	0.522520
O14	O	0.548737	0.402362	0.402429
O15	O	0.676807	0.311420	0.522562
O16	O	0.676686	0.522463	0.311501
O17	O	0.621515	0.522439	0.402440
C18	C	0.532451	0.356880	0.356948
C19	C	0.482516	0.356884	0.356943
C20	C	0.172868	0.404342	0.404300
C21	C	-0.014805	0.404363	0.404333
O22	O	-0.039074	0.444679	0.444567
N23	N	-0.038269	0.356938	0.357057
C24	C	-0.014812	0.309502	0.309773
O25	O	-0.039075	0.269159	0.269568
C26	C	0.172861	0.309478	0.309744
C27	C	0.196322	0.356911	0.357018
C28	C	0.196329	0.451771	0.451571
C29	C	0.243245	0.451768	0.451559
C30	C	0.266699	0.404337	0.404277
C31	C	0.243237	0.356908	0.357007
C32	C	0.196317	0.262038	0.262464
C33	C	0.243238	0.262034	0.262463
C34	C	0.266700	0.309468	0.309737
C35	C	0.313607	0.309474	0.309713
N36	N	0.337071	0.356898	0.356989
C37	C	0.313617	0.404330	0.404271
C38	C	-0.113342	0.309519	0.309790
C39	C	-0.160260	0.309525	0.309796
C40	C	-0.160250	0.404386	0.404358
C41	C	-0.113332	0.404383	0.404347
C42	C	-0.089878	0.356943	0.357066
C43	C	0.412142	0.404321	0.404243
C44	C	0.459062	0.404316	0.404225
C45	C	0.459048	0.309453	0.309666
C46	C	0.412133	0.309460	0.309681
C47	C	0.388681	0.356897	0.356975
O48	O	0.337905	0.269173	0.269506
O49	O	0.337888	0.444655	0.444482
C50	C	0.125952	0.404345	0.404312
C51	C	0.102491	0.356917	0.357041
C52	C	0.125945	0.309485	0.309759
C53	C	0.055573	0.356923	0.357047
C54	C	0.032119	0.404355	0.404329
C55	C	0.055583	0.451780	0.451605
C56	C	0.102498	0.451777	0.451594
C57	C	0.102481	0.262060	0.262483
C58	C	0.055566	0.262067	0.262498
C59	C	0.032112	0.309499	0.309780
C60	C	0.649101	0.549322	0.356982
C61	C	0.649111	0.631636	0.356998
C62	C	0.649191	0.930727	0.357041
C63	C	0.614562	0.899418	0.414400
C64	C	0.614403	0.813800	0.414219
C65	C	0.649151	0.782344	0.357020
C66	C	0.636332	0.813480	0.278968
C67	C	0.636103	0.899125	0.279312
C68	C	0.696718	0.899081	0.377048
C69	C	0.696444	0.813430	0.378759
C70	C	0.649130	0.698485	0.357004
C71	C	0.649212	1.014586	0.357053
C72	C	0.766351	0.356943	0.357055
C73	C	0.816286	0.356957	0.357078
C74	C	0.649199	0.356893	0.550163
C75	C	0.649210	0.356885	0.632477
C76	C	0.649242	1.163749	0.357040
C77	C	0.649231	1.081435	0.357064
C78	C	0.649173	0.356877	0.164591
C79	C	0.649249	0.356676	0.082277
C80	C	0.649236	0.356746	0.931569
C81	C	0.614372	0.413787	0.900217
C82	C	0.614466	0.414052	0.814598
C83	C	0.649223	0.356815	0.783186
C84	C	0.696554	0.378006	0.814299
C85	C	0.696360	0.378380	0.899944
C86	C	0.637181	0.278386	0.899988
C87	C	0.636127	0.278839	0.814337
C88	C	0.649218	0.356852	0.699326
C89	C	0.649244	0.356710	1.015428
H90	H	-0.179358	0.270908	0.271294
H91	H	0.601362	0.919160	0.262366
H92	H	0.723228	0.337765	0.793954
C93	C	0.566813	0.396055	0.928011
H94	H	0.567791	0.353709	0.958989
H95	H	0.547773	0.386597	0.887020
H96	H	0.555535	0.436920	0.955188
C97	C	0.710601	0.454568	0.785347
H98	H	0.687688	0.473721	0.754308
H99	H	0.737635	0.450169	0.758006
H100	H	0.715135	0.487056	0.825873
C101	C	0.667953	0.218383	0.785513
H102	H	0.659260	0.171905	0.805224
H103	H	0.697750	0.229281	0.800429
H104	H	0.666485	0.216661	0.733114
C105	C	0.029779	0.503931	0.503639
H106	H	0.050468	0.532177	0.531800
H107	H	0.011505	0.475624	0.535947
H108	H	0.011449	0.536167	0.475274
C109	C	0.732646	0.324707	0.927969
H110	H	0.747443	0.302775	0.887009
H111	H	0.719087	0.287241	0.957119
H112	H	0.753803	0.351004	0.957057
H113	H	0.622423	0.792747	0.472094
C114	C	0.709509	0.785929	0.456352
H115	H	0.686244	0.755625	0.475424
H116	H	0.713888	0.827068	0.488111
H117	H	0.736454	0.758110	0.453384
H118	H	0.579368	0.400790	0.793561
H119	H	0.603267	0.259081	0.921569
C120	C	0.029764	0.209886	0.210495
H121	H	0.050456	0.181634	0.182342
H122	H	0.011437	0.238159	0.178178
H123	H	0.011486	0.177657	0.238893
H124	H	0.177223	0.223414	0.223967
H125	H	0.622425	0.472134	0.794119
H126	H	0.660232	0.919838	0.235117
C127	C	0.567260	0.928566	0.396731
H128	H	0.546546	0.909390	0.431649
H129	H	0.558838	0.913310	0.348477
H130	H	0.567216	0.980991	0.399181
H131	H	0.662574	0.235888	0.920266
H132	H	0.601296	0.262859	0.794000
C133	C	0.669332	0.785953	0.219654
H134	H	0.691272	0.755151	0.242019
H135	H	0.683612	0.827062	0.197097
H136	H	0.653468	0.758649	0.183259
C137	C	0.625242	0.927282	0.492822
H138	H	0.650918	0.958253	0.491290
H139	H	0.630964	0.886336	0.524285
H140	H	0.600420	0.954491	0.511263
C141	C	0.710163	0.455762	0.926948
H142	H	0.715834	0.486675	0.885576
H143	H	0.736509	0.452006	0.956193
H144	H	0.686654	0.476353	0.955724
H145	H	0.478162	0.442944	0.442721
H146	H	0.579177	0.793369	0.400966
H147	H	0.622252	0.471515	0.921745
H148	H	0.722518	0.919327	0.335272
H149	H	0.601961	0.792087	0.261718
H150	H	0.393053	0.442946	0.442756
C151	C	0.484854	0.257279	0.257664
H152	H	0.516156	0.264068	0.264438
H153	H	0.477147	0.268036	0.207885
H154	H	0.477185	0.207535	0.268601
H155	H	0.708402	0.920641	0.432995
H156	H	0.262343	0.490392	0.490056
H157	H	0.177238	0.490396	0.490077
H158	H	0.723612	0.792015	0.340027
H159	H	-0.179355	0.443007	0.442857
C160	C	-0.087549	0.257340	0.257770
H161	H	-0.108247	0.229107	0.229613
H162	H	-0.069226	0.225105	0.286142
H163	H	-0.069269	0.285626	0.225446
C164	C	-0.087529	0.456553	0.456354
H165	H	-0.108221	0.484797	0.484514
H166	H	-0.069243	0.488778	0.427972
H167	H	-0.069209	0.428264	0.488674
H168	H	0.393030	0.270837	0.271186
C169	C	0.269034	0.209849	0.210453
H170	H	0.248339	0.181608	0.182300
H171	H	0.287358	0.177623	0.238835
H172	H	0.287315	0.238130	0.178125
C173	C	0.128300	0.503948	0.503601
H174	H	0.107606	0.532188	0.531763
H175	H	0.146583	0.536177	0.475220
H176	H	0.146621	0.475661	0.535920
C177	C	0.128275	0.209889	0.210464
H178	H	0.107578	0.181653	0.182309
H179	H	0.146601	0.177656	0.238834
H180	H	0.146553	0.238177	0.178139
