data_functionalizedCrystal
_audit_creation_method	'MofGen! by Chris Wilmer'
_symmetry_space_group_name_H-M	'P1'
_symmetry_Int_Tables_number	1
_symmetry_cell_setting	triclinic
loop_
_symmetry_equiv_pos_as_xyz
  x,y,z
_cell_length_a	12.759395
_cell_length_b	13.897447
_cell_length_c	12.759387
_cell_angle_alpha	89.968815
_cell_angle_beta	89.982772
_cell_angle_gamma	90.021067
loop_
_atom_site_label
_atom_site_type_symbol
_atom_site_fract_x
_atom_site_fract_y
_atom_site_fract_z
Zn1	Zn	1.606199	-0.383927	-0.594000
Zn2	Zn	1.606085	-0.545254	-0.418319
Zn3	Zn	1.430508	-0.383979	-0.418337
Zn4	Zn	1.430475	-0.545186	-0.593958
O5	O	1.518317	-0.464586	-0.506154
O6	O	1.753205	-0.405334	-0.570706
O7	O	1.582760	-0.523910	-0.271300
O8	O	1.453875	-0.248990	-0.441665
O9	O	1.753122	-0.523860	-0.441633
O10	O	1.582955	-0.248952	-0.570724
O11	O	1.453764	-0.405422	-0.271314
O12	O	1.283482	-0.405357	-0.441624
O13	O	1.453820	-0.523744	-0.740985
O14	O	1.283458	-0.523795	-0.570651
O15	O	1.582923	-0.405268	-0.741016
O16	O	1.582729	-0.680226	-0.441592
O17	O	1.453709	-0.680177	-0.570634
C18	C	1.245349	-0.464575	-0.506136
C19	C	1.128573	-0.464593	-0.506153
C20	C	1.518231	-0.715201	-0.506129
C21	C	1.518291	-0.822415	-0.506154
C22	C	1.128586	-0.588122	-0.640292
C23	C	1.073732	-0.649894	-0.707365
C24	C	0.964011	-0.649906	-0.707378
C25	C	0.909141	-0.588137	-0.640313
C26	C	0.963995	-0.526365	-0.573240
C27	C	1.073719	-0.526362	-0.573232
C28	C	0.963981	-0.402832	-0.439108
C29	C	1.073703	-0.402824	-0.439088
C30	C	0.909111	-0.341063	-0.372043
C31	C	0.963965	-0.279294	-0.304963
C32	C	1.073693	-0.279286	-0.304953
C33	C	1.128556	-0.341051	-0.372015
C34	C	1.518342	-0.909484	-0.506178
C35	C	1.518416	-1.018717	-0.506205
C36	C	1.792350	-0.464599	-0.506172
C37	C	1.909127	-0.464604	-0.506180
C38	C	1.518381	-0.464493	-0.780187
C39	C	1.518408	-0.464453	-0.896964
C40	C	1.518431	-0.212993	-0.506201
C41	C	1.518480	-0.105779	-0.506221
C42	C	1.652805	-0.587768	-1.116375
C43	C	1.719947	-0.649478	-1.061497
C44	C	1.719912	-0.649515	-0.951775
C45	C	1.652726	-0.587837	-0.896929
C46	C	1.585584	-0.526127	-0.951807
C47	C	1.585629	-0.526095	-1.061532
C48	C	1.451266	-0.402743	-0.951842
C49	C	1.451304	-0.402700	-1.061564
C50	C	1.384080	-0.341065	-0.896996
C51	C	1.316942	-0.279348	-0.951875
C52	C	1.316980	-0.279313	-1.061603
C53	C	1.384162	-0.340989	-1.116442
C54	C	1.518314	-0.464610	-0.233186
C55	C	1.518490	-0.464378	-0.116410
H56	H	1.217928	-0.588126	-0.640281
Br57	Br	1.811115	-0.733188	-1.135934
H58	H	1.262302	-0.229063	-1.106278
Br59	Br	1.652876	-0.587705	-1.265284
Br60	Br	1.148128	-0.195439	-0.213929
Br61	Br	0.889561	-0.733731	-0.798414
H62	H	0.819800	-0.588144	-0.640338
Br63	Br	0.760202	-0.341069	-0.372068
H64	H	1.118420	-0.700184	-0.761969
H65	H	1.774591	-0.699760	-0.907093
Br66	Br	1.384227	-0.340940	-1.265351
H67	H	1.384052	-0.341103	-0.807655
H68	H	0.919281	-0.229002	-0.250370
Br69	Br	1.277465	-0.341052	-0.371999
Br70	Br	1.652667	-0.587900	-0.748020
Br71	Br	1.225774	-0.195648	-0.877437
