data_functionalizedCrystal
_audit_creation_method	'MofGen! by Chris Wilmer'
_symmetry_space_group_name_H-M	'P1'
_symmetry_Int_Tables_number	1
_symmetry_cell_setting	triclinic
loop_
_symmetry_equiv_pos_as_xyz
  x,y,z
_cell_length_a	23.204063
_cell_length_b	23.204065
_cell_length_c	23.204116
_cell_angle_alpha	90.002541
_cell_angle_beta	120.002710
_cell_angle_gamma	60.000253
loop_
_atom_site_label
_atom_site_type_symbol
_atom_site_fract_x
_atom_site_fract_y
_atom_site_fract_z
O1	O	-0.508346	-0.395341	-0.017155
O2	O	-0.390333	-0.311537	0.017054
O3	O	-0.508342	-0.311536	-0.100958
O4	O	-0.390337	-0.395342	0.100857
O5	O	-0.412490	-0.407387	-0.100957
O6	O	-0.294482	-0.407388	0.017055
O7	O	-0.412495	-0.491192	-0.017155
Zn8	Zn	-0.338270	-0.464508	-0.000050
Zn9	Zn	-0.464558	-0.338221	-0.000051
O10	O	-0.294486	-0.491193	0.100857
C11	C	-0.212793	-0.144182	0.035748
C12	C	-0.253251	-0.068163	0.030852
C13	C	-0.142949	-0.179183	0.036234
C14	C	-0.212790	-0.248543	0.035754
C15	C	-0.253244	-0.284107	0.030863
C16	C	-0.142946	-0.283385	0.036239
C17	C	-0.108434	-0.248541	0.035748
C18	C	-0.037311	-0.284103	0.030852
C19	C	-0.247146	-0.179185	0.036239
C20	C	0.020148	-0.312832	0.026895
C21	C	-0.285938	-0.006747	0.026896
C22	C	-0.285928	-0.312839	0.026911
C23	C	0.092234	-0.348875	0.021932
C24	C	-0.326944	0.070302	0.021933
C25	C	-0.326930	-0.348884	0.021954
C26	C	-0.621381	-0.492071	-0.024951
C27	C	-0.692508	-0.456508	-0.020060
C28	C	-0.586869	-0.561428	-0.025441
C29	C	-0.517017	-0.492074	-0.024945
C30	C	-0.476558	-0.456513	-0.020046
C31	C	-0.482663	-0.561430	-0.025434
C32	C	-0.517022	-0.596430	-0.024951
C33	C	-0.476568	-0.672449	-0.020059
C34	C	-0.586864	-0.457230	-0.025435
C35	C	-0.590042	-0.248547	-0.445855
C36	C	-0.549585	-0.284109	-0.481418
C37	C	-0.659886	-0.179190	-0.480698
C38	C	-0.590041	-0.248548	-0.341496
C39	C	-0.549585	-0.284110	-0.265477
C40	C	-0.659886	-0.179191	-0.376497
C41	C	-0.694400	-0.144189	-0.445854
C42	C	-0.765524	-0.068171	-0.481415
C43	C	-0.555686	-0.283390	-0.376498
C44	C	-0.822984	-0.006755	-0.510145
C45	C	-0.516900	-0.312839	-0.510148
C46	C	-0.516899	-0.312840	-0.204061
C47	C	-0.895072	0.070293	-0.546188
C48	C	-0.475895	-0.348883	-0.546192
C49	C	-0.475894	-0.348884	-0.127012
O50	O	0.280999	-0.491187	-0.017170
O51	O	0.113389	-0.407379	0.017033
O52	O	0.113381	-0.407384	-0.100976
O53	O	0.281008	-0.491181	0.100840
O54	O	0.113378	-0.311532	-0.100981
O55	O	0.113387	-0.311527	0.017028
O56	O	0.280997	-0.395334	-0.017174
Zn57	Zn	0.197191	-0.338212	-0.000074
Zn58	Zn	0.197195	-0.464501	-0.000067
O59	O	0.281005	-0.395329	0.100835
O60	O	-0.412509	0.298171	-0.017173
O61	O	-0.294499	0.096358	0.017029
O62	O	-0.412512	0.214358	-0.100980
O63	O	-0.294496	0.180171	0.100836
O64	O	-0.508359	0.214355	-0.100975
O65	O	-0.390346	0.096356	0.017034
O66	O	-0.508356	0.298168	-0.017168
Zn67	Zn	-0.464569	0.197261	-0.000066
Zn68	Zn	-0.338286	0.197265	-0.000073
O69	O	-0.390343	0.180169	0.100841
O70	O	-1.083838	0.298157	-0.592639
O71	O	-0.916225	0.096346	-0.508838
O72	O	-0.916219	0.214349	-0.508829
O73	O	-1.083843	0.180155	-0.592648
O74	O	-0.916222	0.214352	-0.604681
O75	O	-0.916227	0.096349	-0.604691
O76	O	-1.083841	0.298160	-0.688491
Zn77	Zn	-1.000034	0.197255	-0.661809
Zn78	Zn	-1.000031	0.197251	-0.535520
O79	O	-1.083846	0.180157	-0.688500
O80	O	-0.390333	-0.395346	-0.688498
O81	O	-0.508342	-0.311535	-0.604695
O82	O	-0.390331	-0.311539	-0.604686
O83	O	-0.508344	-0.395343	-0.688506
O84	O	-0.294482	-0.407388	-0.508835
O85	O	-0.412493	-0.407385	-0.508844
O86	O	-0.294484	-0.491196	-0.592647
Zn87	Zn	-0.338270	-0.464508	-0.535527
Zn88	Zn	-0.464556	-0.338223	-0.661815
O89	O	-0.412495	-0.491193	-0.592655
C90	C	-0.181460	-0.596437	0.310616
C91	C	-0.110335	-0.672455	0.346176
C92	C	-0.215973	-0.561436	0.345460
C93	C	-0.285819	-0.492078	0.206258
C94	C	-0.326276	-0.456515	0.130239
C95	C	-0.320173	-0.457235	0.241261
C96	C	-0.285817	-0.492079	0.310618
C97	C	-0.326273	-0.456518	0.346181
C98	C	-0.215974	-0.561435	0.241259
C99	C	0.482995	-0.492057	0.310598
C100	C	0.523453	-0.456493	0.346159
C101	C	0.517352	-0.561413	0.345443
C102	C	0.378630	-0.492061	0.206239
C103	C	0.307501	-0.456501	0.130220
C104	C	0.413146	-0.561417	0.241243
C105	C	0.482995	-0.596416	0.310600
C106	C	0.523453	-0.672434	0.346164
C107	C	0.413146	-0.457216	0.241240
C108	C	-0.285829	0.172420	0.310596
C109	C	-0.326285	0.177318	0.346160
C110	C	-0.215987	0.171940	0.345436
C111	C	-0.285829	0.172404	0.206238
C112	C	-0.326284	0.177286	0.130220
C113	C	-0.215987	0.171924	0.241235
C114	C	-0.181475	0.172423	0.310591
C115	C	-0.110353	0.177325	0.346148
C116	C	-0.320183	0.171921	0.241241
C117	C	-0.212826	-0.144199	-0.445881
C118	C	-0.253285	-0.068182	-0.481445
C119	C	-0.247183	-0.179203	-0.480722
C120	C	-0.108461	-0.248554	-0.341519
C121	C	-0.037332	-0.284114	-0.265499
C122	C	-0.142976	-0.283399	-0.376519
C123	C	-0.212825	-0.248559	-0.445877
C124	C	-0.253282	-0.284124	-0.481438
C125	C	-0.142978	-0.179198	-0.376523
C126	C	-0.285969	-0.312855	-0.510167
C127	C	-0.285973	-0.006766	-0.510177
C128	C	0.020132	-0.312841	-0.204083
C129	C	-0.326975	-0.348901	-0.546209
C130	C	-0.326980	0.070281	-0.546223
C131	C	0.092223	-0.348882	-0.127033
O132	O	0.609675	-0.903629	0.395302
O133	O	0.491663	-0.701819	0.311487
O134	O	0.609667	-0.819824	0.311487
O135	O	0.491671	-0.785625	0.395302
O136	O	0.705522	-0.819818	0.407336
O137	O	0.587517	-0.701813	0.407336
O138	O	0.705530	-0.903623	0.491151
Zn139	Zn	0.661742	-0.802717	0.464462
Zn140	Zn	0.535450	-0.802725	0.338176
O141	O	0.587525	-0.785619	0.491151
C142	C	-0.694411	0.233009	-0.445864
C143	C	-0.765533	0.228108	-0.481422
C144	C	-0.659898	0.233492	-0.480709
C145	C	-0.590056	0.233028	-0.341511
C146	C	-0.549601	0.228146	-0.265494
C147	C	-0.555702	0.233511	-0.376514
C148	C	-0.590056	0.233011	-0.445870
C149	C	-0.549600	0.228112	-0.481433
C150	C	-0.659899	0.233508	-0.376509
C151	C	-0.516915	0.224153	-0.510165
C152	C	-0.822991	0.224147	-0.510149
C153	C	-0.516916	0.224201	-0.204079
C154	C	-0.475910	0.219187	-0.546210
C155	C	-0.895075	0.219178	-0.546188
C156	C	-0.475913	0.219252	-0.127032
H157	H	-0.303346	-0.151083	0.037029
C158	C	-0.698906	-0.141227	-0.338532
N159	N	-0.728296	-0.112633	-0.309939
C160	C	-0.479763	-0.360377	-0.338537
N161	N	-0.422581	-0.418363	-0.309946
H162	H	-0.376377	-0.400249	0.213157
C163	C	-0.176948	-0.599400	0.422446
N164	N	-0.147558	-0.627993	0.480430
C165	C	-0.103935	-0.141215	0.037282
N166	N	-0.074552	-0.112618	0.038067
H167	H	-0.499497	0.234295	-0.348412
C168	C	-0.625883	-0.380245	-0.026489
N169	N	-0.655271	-0.322263	-0.027283
C170	C	-0.176952	-0.599398	0.203295
N171	N	-0.147562	-0.627989	0.174700
H172	H	-0.688784	0.234293	-0.348408
C173	C	-0.103956	-0.141231	-0.338560
N174	N	-0.074566	-0.112636	-0.309967
H175	H	-0.688771	-0.151093	-0.537685
C176	C	0.374118	-0.599379	0.203282
N177	N	0.344721	-0.627972	0.174693
H178	H	-0.426457	-0.589531	-0.026213
C179	C	-0.103939	-0.360364	0.037276
N180	N	-0.074563	-0.418340	0.038049
H181	H	-0.615759	-0.589525	-0.026228
C182	C	0.593281	-0.599373	0.422430
N183	N	0.650469	-0.627964	0.480415
C184	C	0.374118	-0.380229	0.203277
N185	N	0.344720	-0.322244	0.174685
C186	C	-0.176975	0.170874	0.203265
N187	N	-0.147595	0.170088	0.174666
C188	C	-0.176968	0.170895	0.422419
N189	N	-0.147580	0.170111	0.480400
C190	C	-0.396112	0.170861	0.203280
N191	N	-0.453301	0.170065	0.174687
C192	C	-0.103951	-0.360384	-0.338553
N193	N	-0.074559	-0.418367	-0.309959
C194	C	-0.323116	-0.141241	-0.557708
N195	N	-0.380309	-0.112650	-0.615691
C196	C	-0.698928	0.234551	-0.557697
N197	N	-0.728325	0.235351	-0.615684
