data_functionalizedCrystal
_audit_creation_method	'MofGen! by Chris Wilmer'
_symmetry_space_group_name_H-M	'P1'
_symmetry_Int_Tables_number	1
_symmetry_cell_setting	triclinic
loop_
_symmetry_equiv_pos_as_xyz
  x,y,z
_cell_length_a	6.817900
_cell_length_b	10.773894
_cell_length_c	11.168130
_cell_angle_alpha	95.440822
_cell_angle_beta	108.508653
_cell_angle_gamma	96.645922
loop_
_atom_site_label
_atom_site_type_symbol
_atom_site_fract_x
_atom_site_fract_y
_atom_site_fract_z
V1	V	-3.973865	-0.388954	-0.170064
O2	O	-3.936042	-0.381539	0.012947
O3	O	-3.951080	-0.386303	-0.341801
O4	O	-3.890835	-0.558585	-0.165353
O5	O	-3.996704	-0.208065	-0.164722
V6	V	-4.458661	-0.367317	-0.148422
O7	O	-4.232331	-0.436416	-0.217539
O8	O	-4.650393	-0.319854	-0.100947
O9	O	-4.258240	-0.369967	0.023315
O10	O	-4.613881	-0.374731	-0.331433
O11	O	-4.553219	-0.548206	-0.153764
O12	O	-4.318484	-0.197685	-0.153133
C13	C	-3.803433	-0.380170	-0.383732
C14	C	-3.865859	-0.379134	-0.524116
C15	C	-3.939361	-0.269038	-0.715950
C16	C	-3.874840	-0.270106	-0.570855
C17	C	-3.726584	-0.599931	-0.158654
C18	C	-3.740151	-0.738606	-0.155939
C19	C	-3.918928	-0.806469	-0.160645
C20	C	-3.932954	-0.949797	-0.157838
C21	C	-4.069231	-0.376097	0.065240
C22	C	-3.986041	-0.377142	0.205622
C23	C	-4.146080	-0.156333	-0.159836
C24	C	-4.111751	-0.017657	-0.162545
H25	H	-3.978228	-0.470484	-0.754105
H26	H	-4.254441	-0.969654	-0.168657
C27	C	-3.547373	-0.803451	-0.147637
N28	N	-3.402160	-0.852289	-0.141368
C29	C	-4.111678	-0.741614	-0.168887
N30	N	-4.256863	-0.692768	-0.175095
C31	C	-3.919982	-0.504174	-0.615140
N32	N	-3.960745	-0.598355	-0.683709
H33	H	-3.834779	-0.177557	-0.503470
C34	C	-3.949949	-0.142933	-0.770350
N35	N	-3.957943	-0.047947	-0.811323
H36	H	-3.790264	-0.997800	-0.151723
