data_functionalizedCrystal
_audit_creation_method	'MofGen! by Chris Wilmer'
_symmetry_space_group_name_H-M	'P1'
_symmetry_Int_Tables_number	1
_symmetry_cell_setting	triclinic
loop_
_symmetry_equiv_pos_as_xyz
  x,y,z
_cell_length_a	18.101398
_cell_length_b	25.639239
_cell_length_c	25.639234
_cell_angle_alpha	89.978894
_cell_angle_beta	89.983678
_cell_angle_gamma	90.033952
loop_
_atom_site_label
_atom_site_type_symbol
_atom_site_fract_x
_atom_site_fract_y
_atom_site_fract_z
Zn1	Zn	1.132023	-0.208268	-0.295694
Zn2	Zn	1.632023	0.291732	0.204306
Zn3	Zn	1.131920	-0.295691	-0.208259
Zn4	Zn	1.631920	0.204309	0.291741
Zn5	Zn	1.008200	-0.208264	-0.208264
Zn6	Zn	1.508200	0.291736	0.291736
Zn7	Zn	1.008117	-0.295667	-0.295654
Zn8	Zn	1.508117	0.204333	0.204346
O9	O	1.070065	-0.251972	-0.251968
O10	O	1.570065	0.248028	0.248032
O11	O	1.235643	-0.219877	-0.284111
O12	O	1.735643	0.280123	0.215889
O13	O	1.115500	-0.284101	-0.135094
O14	O	1.615500	0.215899	0.364906
O15	O	1.024703	-0.135099	-0.219880
O16	O	1.524703	0.364901	0.280120
O17	O	1.235567	-0.284106	-0.219872
O18	O	1.735567	0.215894	0.280128
O19	O	1.115676	-0.135102	-0.284115
O20	O	1.615676	0.364898	0.215885
O21	O	1.024603	-0.219869	-0.135098
O22	O	1.524603	0.280131	0.364902
O23	O	0.904556	-0.219846	-0.219841
O24	O	1.404556	0.280154	0.280159
O25	O	1.024562	-0.284066	-0.368824
O26	O	1.524562	0.215934	0.131176
O27	O	0.904495	-0.284061	-0.284046
O28	O	1.404495	0.215939	0.215954
O29	O	1.115595	-0.219854	-0.368854
O30	O	1.615595	0.280146	0.131146
O31	O	1.115420	-0.368853	-0.219833
O32	O	1.615420	0.131147	0.280167
O33	O	1.024462	-0.368836	-0.284042
O34	O	1.524462	0.131164	0.215958
C35	C	0.877654	-0.251951	-0.251940
C36	C	1.377654	0.248049	0.248060
C37	C	0.795340	-0.251955	-0.251941
C38	C	1.295340	0.248045	0.248059
C39	C	0.496249	-0.251987	-0.251985
C40	C	0.996249	0.248013	0.248015
C41	C	0.527588	-0.211383	-0.211786
C42	C	1.027588	0.288617	0.288214
C43	C	0.613206	-0.211492	-0.211614
C44	C	1.113206	0.288508	0.288386
C45	C	0.644632	-0.251971	-0.251963
C46	C	1.144632	0.248029	0.248037
C47	C	0.613506	-0.307045	-0.236906
C48	C	1.113506	0.192955	0.263094
C49	C	0.527861	-0.306819	-0.236626
C50	C	1.027861	0.193181	0.263374
C51	C	0.527856	-0.237996	-0.307336
C52	C	1.027856	0.262004	0.192664
C53	C	0.613507	-0.236770	-0.307034
C54	C	1.113507	0.263230	0.192966
C55	C	0.728491	-0.251965	-0.251952
C56	C	1.228491	0.248035	0.248048
C57	C	0.412390	-0.251997	-0.251995
C58	C	0.912390	0.248003	0.248005
C59	C	1.069940	-0.387815	-0.251944
C60	C	1.569940	0.112185	0.248056
C61	C	1.069955	-0.445929	-0.251951
C62	C	1.569955	0.054071	0.248049
C63	C	1.117550	-0.806289	-0.218591
C64	C	1.617550	-0.306289	0.281409
C65	C	1.117579	-0.860893	-0.218598
C66	C	1.617579	-0.360893	0.281402
O67	O	1.157917	-0.889126	-0.190208
O68	O	1.657917	-0.389126	0.309792
N69	N	1.070195	-0.888212	-0.252002
N70	N	1.570195	-0.388212	0.247998
C71	C	1.022785	-0.860923	-0.285405
C72	C	1.522785	-0.360923	0.214595
O73	O	0.982484	-0.889174	-0.313819
O74	O	1.482484	-0.389174	0.186181
C75	C	1.022760	-0.806320	-0.285401
C76	C	1.522760	-0.306320	0.214599
C77	C	1.070142	-0.779004	-0.251990
C78	C	1.570142	-0.279004	0.248010
C79	C	1.164929	-0.778973	-0.185184
C80	C	1.664929	-0.278973	0.314816
C81	C	1.164899	-0.724372	-0.185176
C82	C	1.664899	-0.224372	0.314824
C83	C	1.117491	-0.697087	-0.218576
C84	C	1.617491	-0.197087	0.281424
C85	C	1.070112	-0.724403	-0.251983
C86	C	1.570112	-0.224403	0.248017
C87	C	0.975354	-0.779032	-0.318806
C88	C	1.475354	-0.279032	0.181194
C89	C	0.975334	-0.724425	-0.318799
C90	C	1.475334	-0.224425	0.181201
C91	C	1.022716	-0.697109	-0.285388
C92	C	1.522716	-0.197109	0.214612
C93	C	1.022674	-0.642518	-0.285375
C94	C	1.522674	-0.142518	0.214625
N95	N	1.070058	-0.615200	-0.251971
N96	N	1.570058	-0.115200	0.248029
C97	C	1.117466	-0.642484	-0.218571
C98	C	1.617466	-0.142484	0.281429
C99	C	1.022841	-0.975594	-0.285413
C100	C	1.522841	-0.475594	0.214587
C101	C	1.022861	-1.030196	-0.285416
C102	C	1.522861	-0.530196	0.214584
C103	C	1.117656	-1.030162	-0.218609
C104	C	1.617656	-0.530162	0.281391
C105	C	1.117632	-0.975559	-0.218604
C106	C	1.617632	-0.475559	0.281396
C107	C	1.070224	-0.948275	-0.252009
C108	C	1.570224	-0.448275	0.247991
C109	C	1.117399	-0.527819	-0.218557
C110	C	1.617399	-0.027819	0.281443
C111	C	1.117363	-0.473214	-0.218551
C112	C	1.617363	0.026786	0.281449
C113	C	1.022571	-0.473253	-0.285360
C114	C	1.522571	0.026747	0.214640
C115	C	1.022604	-0.527853	-0.285364
C116	C	1.522604	-0.027853	0.214636
C117	C	1.070024	-0.555135	-0.251961
C118	C	1.570024	-0.055135	0.248039
O119	O	0.982359	-0.614250	-0.313752
O120	O	1.482359	-0.114250	0.186248
O121	O	1.157767	-0.614227	-0.190167
O122	O	1.657767	-0.114227	0.309833
C123	C	1.263227	-0.251994	-0.251995
C124	C	1.763227	0.248006	0.248005
C125	C	1.345541	-0.252003	-0.252007
C126	C	1.845541	0.247997	0.247993
C127	C	1.070081	-0.251958	-0.388341
C128	C	1.570081	0.248042	0.111659
C129	C	1.070088	-0.251951	-0.446455
C130	C	1.570088	0.248049	0.053545
C131	C	1.070210	-0.115599	-0.252003
C132	C	1.570210	0.384401	0.247997
C133	C	1.070272	-0.057485	-0.252018
C134	C	1.570272	0.442515	0.247982
C135	C	1.022736	-0.285321	-0.697627
C136	C	1.522736	0.214679	-0.197627
C137	C	1.022723	-0.285332	-0.643023
C138	C	1.522723	0.214668	-0.143023
O139	O	0.982392	-0.313756	-0.614768
O140	O	1.482392	0.186244	-0.114768
N141	N	1.070116	-0.251909	-0.615729
N142	N	1.570116	0.248091	-0.115729
C143	C	1.117520	-0.218468	-0.643042
C144	C	1.617520	0.281532	-0.143042
O145	O	1.157829	-0.190040	-0.614812
O146	O	1.657829	0.309960	-0.114812
C147	C	1.117528	-0.218454	-0.697645
C148	C	1.617528	0.281546	-0.197645
C149	C	1.070137	-0.251883	-0.724936
C150	C	1.570137	0.248117	-0.224936
C151	C	0.975348	-0.318747	-0.724918
C152	C	1.475348	0.181253	-0.224918
C153	C	0.975362	-0.318736	-0.779519
C154	C	1.475362	0.181264	-0.279519
C155	C	1.022764	-0.285298	-0.806828
C156	C	1.522764	0.214702	-0.306828
C157	C	1.070152	-0.251872	-0.779537
C158	C	1.570152	0.248128	-0.279537
C159	C	1.164928	-0.185011	-0.724957
C160	C	1.664928	0.314989	-0.224957
C161	C	1.164932	-0.185000	-0.779564
C162	C	1.664932	0.315000	-0.279564
C163	C	1.117541	-0.218429	-0.806855
C164	C	1.617541	0.281571	-0.306855
C165	C	1.117567	-0.218424	-0.861447
C166	C	1.617567	0.281576	-0.361447
N167	N	1.070174	-0.251847	-0.888741
N168	N	1.570174	0.248153	-0.388741
C169	C	1.022773	-0.285284	-0.861431
C170	C	1.522773	0.214716	-0.361431
C171	C	1.117497	-0.218500	-0.528371
C172	C	1.617497	0.281500	-0.028371
C173	C	1.117492	-0.218516	-0.473769
C174	C	1.617492	0.281484	0.026231
C175	C	1.022694	-0.285380	-0.473753
C176	C	1.522694	0.214620	0.026247
C177	C	1.022703	-0.285366	-0.528357
C178	C	1.522703	0.214634	-0.028357
C179	C	1.070104	-0.251923	-0.555665
C180	C	1.570104	0.248077	-0.055665
C181	C	1.022806	-0.285258	-0.976097
C182	C	1.522806	0.214742	-0.476097
C183	C	1.022827	-0.285246	-1.030702
C184	C	1.522827	0.214754	-0.530702
C185	C	1.117622	-0.218380	-1.030713
C186	C	1.617622	0.281620	-0.530713
C187	C	1.117605	-0.218395	-0.976112
C188	C	1.617605	0.281605	-0.476112
C189	C	1.070191	-0.251836	-0.948805
C190	C	1.570191	0.248164	-0.448805
O191	O	1.157876	-0.190013	-0.889736
O192	O	1.657876	0.309987	-0.389736
O193	O	0.982463	-0.313703	-0.889668
O194	O	1.482463	0.186297	-0.389668
C195	C	1.070092	-0.251949	-0.116125
C196	C	1.570092	0.248051	0.383875
C197	C	1.070229	-0.251809	-0.058011
C198	C	1.570229	0.248191	0.441989
H199	H	0.507855	-0.318685	-0.196162
H200	H	1.007855	0.181315	0.303838
H201	H	0.983969	-0.451029	-0.312552
H202	H	1.483969	0.048971	0.187448
C203	C	0.970479	-0.557901	-0.322115
C204	C	1.470479	-0.057901	0.177885
N205	N	0.931224	-0.580530	-0.349801
N206	N	1.431224	-0.080530	0.150199
H207	H	0.634927	-0.319117	-0.196879
H208	H	1.134927	0.180883	0.303121
C209	C	1.169757	-0.945516	-0.181853
C210	C	1.669757	-0.445516	0.318147
N211	N	1.209021	-0.922891	-0.154170
N212	N	1.709021	-0.422891	0.345830
C213	C	0.923232	-0.809068	-0.355562
C214	C	1.423232	-0.309068	0.144438
N215	N	0.883971	-0.831689	-0.383250
N216	N	1.383971	-0.331689	0.116750
H217	H	0.633666	-0.220741	-0.170600
H218	H	1.133666	0.279259	0.329400
H219	H	0.984096	-0.312605	-0.451508
H220	H	1.484096	0.187395	0.048492
H221	H	0.984191	-0.312484	-0.953870
H222	H	1.484191	0.187516	-0.453870
C223	C	0.641641	-0.156317	-0.224358
C224	C	1.141641	0.343683	0.275642
N225	N	0.663054	-0.114756	-0.233953
N226	N	1.163054	0.385244	0.266047
C227	C	1.217055	-0.148230	-0.694949
C228	C	1.717055	0.351770	-0.194949
N229	N	1.256316	-0.120522	-0.672348
N230	N	1.756316	0.379478	-0.172348
H231	H	1.203538	-0.801182	-0.157986
H232	H	1.703538	-0.301182	0.342014
C233	C	1.217080	-0.148211	-0.809600
C234	C	1.717080	0.351789	-0.309600
N235	N	1.256360	-0.120503	-0.832222
N236	N	1.756360	0.379497	-0.332222
H237	H	1.156199	-0.191178	-0.953890
H238	H	1.656199	0.308822	-0.453890
C239	C	1.169560	-0.557821	-0.181809
C240	C	1.669560	-0.057821	0.318191
N241	N	1.208843	-0.580419	-0.154128
N242	N	1.708843	-0.080419	0.345872
C243	C	1.169754	-0.181596	-1.060763
C244	C	1.669754	0.318404	-0.560763
N245	N	1.209013	-0.153885	-1.083399
N246	N	1.709013	0.346115	-0.583399
C247	C	1.169631	-0.181744	-0.443754
C248	C	1.669631	0.318256	0.056246
N249	N	1.208899	-0.154044	-0.421150
N250	N	1.708899	0.345956	0.078850
H251	H	0.984235	-0.312470	-1.052920
H252	H	1.484235	0.187530	-0.552920
H253	H	0.507128	-0.338096	-0.264629
H254	H	1.007128	0.161904	0.235371
C255	C	0.923198	-0.355534	-0.694887
C256	C	1.423198	0.144466	-0.194887
N257	N	0.883918	-0.383247	-0.672270
N258	N	1.383918	0.116753	-0.172270
C259	C	0.499803	-0.156040	-0.224393
C260	C	0.999803	0.343960	0.275607
N261	N	0.478870	-0.114355	-0.233890
N262	N	0.978870	0.385645	0.266110
H263	H	0.633860	-0.338108	-0.265269
H264	H	1.133860	0.161892	0.234731
H265	H	0.936770	-0.345956	-0.801734
H266	H	1.436770	0.154044	-0.301734
C267	C	0.498473	-0.223728	-0.156701
C268	C	0.998473	0.276272	0.343299
N269	N	0.476541	-0.233028	-0.115211
N270	N	0.976541	0.266972	0.384789
H271	H	0.634901	-0.264189	-0.338590
H272	H	1.134901	0.235811	0.161410
C273	C	1.217017	-0.694332	-0.148418
C274	C	1.717017	-0.194332	0.351582
N275	N	1.256273	-0.671709	-0.120728
N276	N	1.756273	-0.171709	0.379272
H277	H	1.156261	-1.052387	-0.191415
H278	H	1.656261	-0.552387	0.308585
C279	C	0.970565	-0.322136	-0.558372
C280	C	1.470565	0.177864	-0.058372
N281	N	0.931290	-0.349832	-0.580977
N282	N	1.431290	0.150168	-0.080977
C283	C	0.970730	-1.060237	-0.322165
C284	C	1.470730	-0.560237	0.177835
N285	N	0.931466	-1.082863	-0.349847
N286	N	1.431466	-0.582863	0.150153
C287	C	0.923181	-0.694417	-0.355548
C288	C	1.423181	-0.194417	0.144452
N289	N	0.883899	-0.671815	-0.383226
N290	N	1.383899	-0.171815	0.116774
C291	C	0.498726	-0.184684	-0.325827
C292	C	0.998726	0.315316	0.174173
N293	N	0.476788	-0.144526	-0.339748
N294	N	0.976788	0.355474	0.160252
H295	H	1.156102	-0.191267	-0.550602
H296	H	1.656102	0.308733	-0.050602
C297	C	0.970688	-0.945587	-0.322166
C298	C	1.470688	-0.445587	0.177834
N299	N	0.931412	-0.922988	-0.349851
N300	N	1.431412	-0.422988	0.150149
H301	H	0.507588	-0.267571	-0.337288
H302	H	1.007588	0.232429	0.162712
H303	H	0.633856	-0.196241	-0.318387
H304	H	1.133856	0.303759	0.181613
H305	H	1.155947	-0.450975	-0.191343
H306	H	1.655947	0.049025	0.308657
