data_functionalizedCrystal
_audit_creation_method	'MofGen! by Chris Wilmer'
_symmetry_space_group_name_H-M	'P1'
_symmetry_Int_Tables_number	1
_symmetry_cell_setting	triclinic
loop_
_symmetry_equiv_pos_as_xyz
  x,y,z
_cell_length_a	11.792241
_cell_length_b	16.992695
_cell_length_c	15.455438
_cell_angle_alpha	87.143447
_cell_angle_beta	87.312358
_cell_angle_gamma	92.569181
loop_
_atom_site_label
_atom_site_type_symbol
_atom_site_fract_x
_atom_site_fract_y
_atom_site_fract_z
O1	O	1.511055	-0.110916	0.072046
O2	O	1.181619	-0.121998	0.072067
O3	O	1.345017	-0.002308	0.072050
O4	O	1.347657	-0.230606	0.072063
O5	O	1.354308	0.004512	-0.072210
O6	O	1.190911	-0.115177	-0.072194
O7	O	1.520347	-0.104096	-0.072214
Cu8	Cu	1.356477	-0.109013	-0.085376
Cu9	Cu	1.345488	-0.117080	0.085229
O10	O	1.356949	-0.223785	-0.072197
C11	C	1.346265	0.030329	-0.000080
C12	C	1.336127	0.117416	-0.000079
C13	C	1.143917	-0.117891	-0.000061
C14	C	1.017732	-0.115808	-0.000053
N15	N	1.364214	-0.103340	-0.205370
C16	C	0.786708	-0.111977	-0.000078
C17	C	0.915267	-0.114106	-0.000065
C18	C	1.558049	-0.108202	-0.000084
C19	C	1.684233	-0.110285	-0.000086
C20	C	1.355701	-0.256422	-0.000065
C21	C	1.365838	-0.343510	-0.000060
C22	C	1.433945	0.167241	-0.000086
C23	C	1.424412	0.249068	-0.000077
C24	C	1.317060	0.281068	-0.000068
C25	C	1.219234	0.231237	-0.000058
C26	C	1.228768	0.149411	-0.000061
C27	C	1.277546	0.524833	-0.000053
C28	C	1.268020	0.606665	-0.000053
C29	C	1.473199	0.624491	-0.000071
C30	C	1.482723	0.542663	-0.000079
C31	C	1.384897	0.492839	-0.000065
N32	N	1.307313	0.364708	-0.000062
N33	N	1.394645	0.409200	-0.000065
C34	C	1.294782	-0.154168	-0.250778
C35	C	1.300665	-0.149874	-0.341585
C36	C	1.375976	-0.094747	-0.386981
C37	C	1.445416	-0.043917	-0.341567
C38	C	1.439537	-0.048215	-0.250762
C39	C	1.401322	-0.076215	-0.658558
C40	C	1.407192	-0.071919	-0.749369
C41	C	1.262442	-0.177878	-0.749381
C42	C	1.256566	-0.182168	-0.658574
C43	C	1.326010	-0.131340	-0.613167
N44	N	1.381988	-0.090355	-0.479800
N45	N	1.320002	-0.135737	-0.520350
N46	N	1.337760	-0.122748	0.205223
H47	H	1.521363	0.141193	-0.000099
C48	C	1.225083	-0.204973	-0.390836
C49	C	1.110932	-0.192758	-0.368780
C50	C	1.041273	-0.243498	-0.414139
H51	H	1.241044	-0.258118	-0.375982
H52	H	1.239292	-0.194521	-0.451426
H53	H	1.096729	-0.203216	-0.308202
H54	H	1.094936	-0.139624	-0.383635
H55	H	1.055481	-0.233046	-0.474730
H56	H	1.057243	-0.296640	-0.399282
H57	H	0.963813	-0.235212	-0.399186
H58	H	1.195242	-0.227057	-0.621614
C59	C	1.488876	-0.011939	-0.798556
C60	C	1.462061	0.064180	-0.776453
C61	C	1.537277	0.119453	-0.821742
H62	H	1.482484	-0.016551	-0.859151
H63	H	1.564485	-0.021461	-0.783662
H64	H	1.386470	0.073699	-0.791353
H65	H	1.468459	0.068818	-0.715866
H66	H	1.612886	0.109931	-0.806848
H67	H	1.530879	0.114834	-0.882335
H68	H	1.519100	0.171106	-0.806746
C69	C	1.102743	0.266080	0.000087
C70	C	1.086509	0.309040	0.074295
C71	C	0.979216	0.341156	0.074450
H72	H	1.045741	0.224765	0.000137
H73	H	1.097983	0.300053	-0.050193
H74	H	1.091258	0.275069	0.124563
H75	H	1.143485	0.350367	0.074261
H76	H	0.974456	0.375129	0.024169
H77	H	0.922223	0.299836	0.074497
H78	H	0.968191	0.370314	0.124794
C79	C	1.187113	-0.233195	-0.798568
C80	C	1.211061	-0.311408	-0.776456
C81	C	1.141678	-0.362392	-0.821740
H82	H	1.201324	-0.222853	-0.859163
H83	H	1.109584	-0.225074	-0.783674
H84	H	1.288572	-0.319525	-0.791356
H85	H	1.196844	-0.321775	-0.715869
H86	H	1.064148	-0.354271	-0.806846
H87	H	1.155894	-0.352042	-0.882333
H88	H	1.157909	-0.415465	-0.806738
H89	H	1.233451	-0.199055	-0.213822
H90	H	1.496078	-0.006826	-0.213791
H91	H	1.457864	-0.034827	-0.621595
C92	C	1.122432	0.095445	-0.000097
C93	C	1.026378	0.140982	-0.000111
C94	C	0.928399	0.091297	-0.000150
H95	H	1.118491	0.060758	0.050197
H96	H	1.125061	0.065547	-0.050423
H97	H	1.023749	0.170867	0.050210
H98	H	1.030281	0.175667	-0.050401
H99	H	0.931028	0.061399	-0.050476
H100	H	0.924469	0.056613	0.050145
H101	H	0.863215	0.122187	-0.000167
C102	C	1.527070	0.015909	-0.391009
C103	C	1.517335	0.008812	-0.480252
C104	C	1.592525	0.063920	-0.525822
H105	H	1.602707	0.006389	-0.376224
H106	H	1.509023	0.067633	-0.376178
H107	H	1.535389	-0.042900	-0.495076
H108	H	1.441715	0.018339	-0.495062
H109	H	1.574478	0.115644	-0.510991
H110	H	1.668157	0.054396	-0.511030
H111	H	1.585922	0.059117	-0.586377
H112	H	1.504066	0.289633	-0.000085
H113	H	1.570140	0.516615	-0.000087
H114	H	1.552843	0.665066	-0.000081
H115	H	1.197889	0.484275	-0.000042
H116	H	1.180598	0.632717	-0.000060
