data_functionalizedCrystal
_audit_creation_method	'MofGen! by Chris Wilmer'
_symmetry_space_group_name_H-M	'P1'
_symmetry_Int_Tables_number	1
_symmetry_cell_setting	triclinic
loop_
_symmetry_equiv_pos_as_xyz
  x,y,z
_cell_length_a	14.044220
_cell_length_b	12.503552
_cell_length_c	14.044220
_cell_angle_alpha	93.839943
_cell_angle_beta	86.811122
_cell_angle_gamma	93.839891
loop_
_atom_site_label
_atom_site_type_symbol
_atom_site_fract_x
_atom_site_fract_y
_atom_site_fract_z
O1	O	1.282207	0.089210	-0.225121
O2	O	1.005537	0.089237	-0.216814
O3	O	1.139718	0.089214	-0.082632
O4	O	1.148025	0.089234	-0.359303
O5	O	1.129615	-0.089427	-0.092732
O6	O	0.995434	-0.089403	-0.226914
O7	O	1.272104	-0.089430	-0.235221
Cu8	Cu	1.132846	-0.105728	-0.231989
Cu9	Cu	1.144794	0.105535	-0.220045
O10	O	1.137922	-0.089407	-0.369402
C11	C	0.964864	-0.000080	-0.218228
C12	C	0.858721	-0.000070	-0.207383
N13	N	1.124449	-0.254319	-0.240390
C14	C	0.664382	-0.000092	-0.187558
C15	C	0.613253	-0.000091	-0.264472
C16	C	0.505116	-0.000104	-0.253441
C17	C	0.772529	-0.000080	-0.198587
C18	C	1.165545	-0.526760	-0.199276
C19	C	1.112106	-0.473426	-0.252749
C20	C	1.118975	-0.351504	-0.245871
C21	C	1.158676	-0.648693	-0.206153
C22	C	1.312777	-0.000111	-0.233807
C23	C	1.418920	-0.000114	-0.244651
C24	C	1.131031	-0.000107	-0.052060
C25	C	1.120187	-0.000107	0.054082
N26	N	1.153198	0.254126	-0.211637
C27	C	1.146609	-0.000084	-0.399974
C28	C	1.157454	-0.000077	-0.506117
C29	C	1.100361	-0.000090	0.248421
C30	C	1.177275	-0.000094	0.299551
C31	C	1.166244	-0.000084	0.407687
C32	C	1.111391	-0.000099	0.140274
H33	H	0.626945	-0.000104	-0.113431
H34	H	1.251413	-0.000029	0.262115
H35	H	1.026234	-0.000080	0.285859
H36	H	1.061196	-0.519333	-0.303695
C37	C	0.663823	-0.000076	-0.364624
C38	C	0.773531	-0.000063	-0.375665
C39	C	0.824107	-0.000047	-0.475812
C40	C	0.764974	-0.000045	-0.564918
C41	C	0.655259	-0.000059	-0.553880
C42	C	0.604684	-0.000074	-0.453733
H43	H	0.817311	-0.000064	-0.309701
H44	H	0.905325	-0.000037	-0.483983
H45	H	0.802412	-0.000034	-0.639053
H46	H	0.611480	-0.000057	-0.619844
H47	H	0.523466	-0.000084	-0.445562
H48	H	1.216452	-0.480859	-0.148334
