data_functionalizedCrystal
_audit_creation_method	'MofGen! by Chris Wilmer'
_symmetry_space_group_name_H-M	'P1'
_symmetry_Int_Tables_number	1
_symmetry_cell_setting	triclinic
loop_
_symmetry_equiv_pos_as_xyz
  x,y,z
_cell_length_a	12.759401
_cell_length_b	12.827892
_cell_length_c	12.759393
_cell_angle_alpha	89.970028
_cell_angle_beta	89.980198
_cell_angle_gamma	90.014477
loop_
_atom_site_label
_atom_site_type_symbol
_atom_site_fract_x
_atom_site_fract_y
_atom_site_fract_z
Zn1	Zn	1.606261	-0.416008	-0.593992
Zn2	Zn	1.606150	-0.590785	-0.418314
Zn3	Zn	1.430560	-0.416056	-0.418331
Zn4	Zn	1.430550	-0.590705	-0.593954
O5	O	1.518380	-0.503389	-0.506148
O6	O	1.753268	-0.439206	-0.570697
O7	O	1.582816	-0.567661	-0.271295
O8	O	1.453918	-0.269814	-0.441655
O9	O	1.753186	-0.567614	-0.441627
O10	O	1.583005	-0.269778	-0.570713
O11	O	1.453810	-0.439288	-0.271307
O12	O	1.283538	-0.439210	-0.441619
O13	O	1.453900	-0.567477	-0.740981
O14	O	1.283530	-0.567524	-0.570649
O15	O	1.582995	-0.439128	-0.741008
O16	O	1.582806	-0.737011	-0.441590
O17	O	1.453793	-0.736952	-0.570633
C18	C	1.245413	-0.503364	-0.506132
C19	C	1.128636	-0.503379	-0.506151
C20	C	0.964080	-0.436662	-0.573468
C21	C	1.073804	-0.436641	-0.573461
C22	C	1.073739	-0.570149	-0.438850
C23	C	0.964016	-0.570174	-0.438863
C24	C	1.518315	-0.774899	-0.506128
C25	C	1.518383	-0.891052	-0.506155
C26	C	1.582231	-0.942735	-0.570074
C27	C	1.582302	-1.062786	-0.570103
C28	C	1.792414	-0.503414	-0.506164
C29	C	1.909190	-0.503425	-0.506171
C30	C	1.518459	-0.503288	-0.780181
C31	C	1.518492	-0.503246	-0.896958
C32	C	1.518475	-0.230818	-0.506190
C33	C	1.518515	-0.114665	-0.506208
C34	C	1.585717	-0.436403	-0.951836
C35	C	1.585735	-0.436358	-1.061560
C36	C	1.451301	-0.570006	-1.061519
C37	C	1.451278	-0.570045	-0.951796
C38	C	1.518362	-0.503413	-0.233180
C39	C	1.518533	-0.503161	-0.116404
H40	H	1.118391	-0.624492	-0.384048
H41	H	1.463768	-0.935680	-0.451458
H42	H	1.463853	-1.070226	-0.451478
C43	C	1.645446	-0.376938	-1.229772
C44	C	1.659624	-0.362879	-1.121883
H45	H	1.691058	-0.331564	-1.267010
H46	H	1.660806	-0.447136	-1.247745
H47	H	1.574859	-0.361631	-1.247729
H48	H	1.730209	-0.378193	-1.103925
H49	H	1.644272	-0.292665	-1.103903
C50	C	1.718590	-0.304285	-0.962902
C51	C	1.659587	-0.362968	-0.891557
H52	H	1.764188	-0.258942	-0.925688
H53	H	1.758770	-0.349803	-1.005692
H54	H	1.672824	-0.264298	-1.005701
H55	H	1.705353	-0.402961	-0.848763
H56	H	1.619404	-0.317444	-0.848748
C57	C	1.391648	-0.629295	-1.229698
C58	C	1.377430	-0.643439	-1.121801
H59	H	1.346047	-0.674637	-1.266909
H60	H	1.376299	-0.559083	-1.247684
H61	H	1.462240	-0.644593	-1.247674
H62	H	1.306839	-0.628134	-1.103823
H63	H	1.392771	-0.713668	-1.103807
H64	H	0.919444	-0.382310	-0.628274
C65	C	1.760053	-0.908742	-0.621384
C66	C	1.655953	-0.882507	-0.643933
H67	H	1.805564	-0.871567	-0.666990
H68	H	1.775436	-0.890935	-0.550798
H69	H	1.769759	-0.981519	-0.631089
H70	H	1.646245	-0.809731	-0.634221
H71	H	1.640565	-0.900307	-0.714536
H72	H	1.396529	-0.624475	-0.907113
H73	H	0.919324	-0.624546	-0.384060
C74	C	1.062841	-0.304669	-0.706507
C75	C	1.134139	-0.363249	-0.647432
H76	H	1.100091	-0.259354	-0.752171
H77	H	1.020064	-0.350254	-0.746620
H78	H	1.020025	-0.264656	-0.660790
H79	H	1.176951	-0.403267	-0.693149
H80	H	1.176935	-0.317658	-0.607316
C81	C	1.596777	-1.185534	-0.711356
C82	C	1.656096	-1.122780	-0.643986
H83	H	1.642337	-1.222568	-0.756973
H84	H	1.556780	-1.233638	-0.671270
H85	H	1.550997	-1.142950	-0.751527
H86	H	1.701871	-1.165365	-0.603809
H87	H	1.696112	-1.074671	-0.684077
