data_functionalizedCrystal
_audit_creation_method	'MofGen! by Chris Wilmer'
_symmetry_space_group_name_H-M	'P1'
_symmetry_Int_Tables_number	1
_symmetry_cell_setting	triclinic
loop_
_symmetry_equiv_pos_as_xyz
  x,y,z
_cell_length_a	14.519709
_cell_length_b	10.540510
_cell_length_c	13.596369
_cell_angle_alpha	89.996501
_cell_angle_beta	90.000291
_cell_angle_gamma	84.096728
loop_
_atom_site_label
_atom_site_type_symbol
_atom_site_fract_x
_atom_site_fract_y
_atom_site_fract_z
O1	O	1.224752	0.166402	-0.081658
O2	O	0.956379	0.185998	-0.081687
O3	O	1.096703	-0.008572	-0.081671
O4	O	1.084429	0.360971	-0.081673
O5	O	1.096689	-0.008582	0.081912
O6	O	0.956365	0.185987	0.081896
O7	O	1.224738	0.166392	0.081925
Zn8	Zn	1.090549	0.176188	0.107883
Zn9	Zn	1.090568	0.176202	-0.107645
O10	O	1.084414	0.360961	0.081909
C11	C	0.922008	0.185079	0.000100
C12	C	0.819612	0.182343	0.000089
C13	C	1.095781	-0.055871	0.000118
C14	C	1.093044	-0.196793	0.000112
C15	C	0.444662	0.172268	0.000134
C16	C	0.548985	0.175066	0.000121
C17	C	0.632134	0.177305	0.000111
C18	C	0.736463	0.180103	0.000100
C19	C	1.190527	-0.415244	0.000497
C20	C	1.193446	-0.268678	0.000124
C21	C	1.041657	-0.241021	-0.093306
C22	C	1.039449	-0.387760	-0.093379
C23	C	1.037342	-0.387559	0.092645
C24	C	1.042104	-0.241266	0.093875
C25	C	1.259110	0.167310	0.000135
C26	C	1.361505	0.170047	0.000140
C27	C	1.085336	0.408261	0.000118
C28	C	1.088073	0.549182	0.000118
N29	N	1.090543	0.176178	0.254975
N30	N	1.090581	0.176202	-0.254737
C31	C	1.090567	0.176203	0.656266
C32	C	1.090557	0.176200	0.544614
C33	C	1.090555	0.176191	0.455624
C34	C	1.090545	0.176187	0.343965
H35	H	1.233654	-0.239749	0.067088
C36	C	1.243076	-0.474528	-0.089489
C37	C	1.193369	-0.555015	-0.163212
C38	C	1.245915	-0.614297	-0.253201
C39	C	1.348168	-0.593093	-0.269467
C40	C	1.397880	-0.512602	-0.195743
C41	C	1.345334	-0.453320	-0.105754
H42	H	1.117671	-0.570715	-0.151172
H43	H	1.209114	-0.673882	-0.307776
H44	H	1.387065	-0.636977	-0.336082
H45	H	1.473579	-0.496902	-0.207782
H46	H	1.382135	-0.393735	-0.051178
H47	H	1.229636	-0.457602	0.067492
H48	H	0.967743	-0.192878	-0.096787
H49	H	1.077356	-0.210525	-0.162819
H50	H	0.968803	-0.191451	0.099508
H51	H	1.079496	-0.213040	0.162985
C52	C	0.935508	-0.416449	0.093496
C53	C	0.898523	-0.497026	0.010685
C54	C	0.796695	-0.525927	0.011528
C55	C	0.731851	-0.474250	0.095182
C56	C	0.768835	-0.393668	0.177999
C57	C	0.870664	-0.364767	0.177156
H58	H	0.946525	-0.535285	-0.051246
H59	H	0.769317	-0.585580	-0.049779
H60	H	0.656472	-0.495644	0.095806
H61	H	0.720833	-0.355409	0.239931
H62	H	0.898042	-0.305114	0.238464
H63	H	1.074579	-0.428329	-0.163202
H64	H	1.233899	-0.240681	-0.066949
C65	C	0.938004	-0.417777	-0.099167
C66	C	0.905595	-0.495671	-0.186075
C67	C	0.804151	-0.525670	-0.191887
C68	C	0.735115	-0.477776	-0.110790
C69	C	0.767522	-0.399878	-0.023875
C70	C	0.868966	-0.369878	-0.018063
H71	H	0.956701	-0.531129	-0.246113
H72	H	0.780162	-0.583336	-0.256227
H73	H	0.660020	-0.499984	-0.115092
H74	H	0.716416	-0.364419	0.036163
H75	H	0.892955	-0.312212	0.046277
C76	C	1.080202	-0.445329	0.188304
C77	C	1.161822	-0.550702	0.183619
C78	C	1.204693	-0.608475	0.279272
C79	C	1.165945	-0.560874	0.379609
C80	C	1.084321	-0.455495	0.384297
C81	C	1.041450	-0.397722	0.288645
H82	H	1.190509	-0.585944	0.109340
H83	H	1.265117	-0.686484	0.275800
H84	H	1.197682	-0.603641	0.450416
H85	H	1.055634	-0.420253	0.458576
H86	H	0.981026	-0.319713	0.292116
