data_functionalizedCrystal
_audit_creation_method	'MofGen! by Chris Wilmer'
_symmetry_space_group_name_H-M	'P1'
_symmetry_Int_Tables_number	1
_symmetry_cell_setting	triclinic
loop_
_symmetry_equiv_pos_as_xyz
  x,y,z
_cell_length_a	16.992694
_cell_length_b	17.038272
_cell_length_c	16.053802
_cell_angle_alpha	92.751609
_cell_angle_beta	87.249047
_cell_angle_gamma	90.889890
loop_
_atom_site_label
_atom_site_type_symbol
_atom_site_fract_x
_atom_site_fract_y
_atom_site_fract_z
O1	O	1.054593	0.163385	-0.069325
O2	O	1.554593	0.663385	0.430675
O3	O	0.826187	0.161558	-0.069350
O4	O	1.326187	0.661558	0.430650
O5	O	0.939032	0.048571	-0.069331
O6	O	1.439032	0.548571	0.430669
O7	O	0.941748	0.276372	-0.069344
O8	O	1.441748	0.776372	0.430656
O9	O	0.932819	0.054763	0.069527
O10	O	1.432819	0.554763	0.569527
O11	O	0.819974	0.167750	0.069508
O12	O	1.319974	0.667750	0.569508
O13	O	1.048380	0.169577	0.069533
O14	O	1.548380	0.669577	0.569533
Zn15	Zn	0.933190	0.169646	0.091567
Zn16	Zn	1.433190	0.669646	0.591567
Zn17	Zn	0.941376	0.161489	-0.091384
Zn18	Zn	1.441376	0.661489	0.408616
O19	O	0.935535	0.282564	0.069514
O20	O	1.435535	0.782564	0.569514
C21	C	0.793711	0.162304	0.000076
C22	C	1.293711	0.662304	0.500076
C23	C	0.706200	0.155293	0.000067
C24	C	1.206200	0.655293	0.500067
C25	C	0.660472	0.222933	0.000064
C26	C	1.160472	0.722933	0.500064
C27	C	0.578245	0.216342	0.000076
C28	C	1.078245	0.716342	0.500076
C29	C	0.541748	0.142110	0.000085
C30	C	1.041748	0.642110	0.500085
C31	C	0.587482	0.074465	0.000091
C32	C	1.087482	0.574465	0.500091
C33	C	0.669707	0.081057	0.000085
C34	C	1.169707	0.581057	0.500085
C35	C	0.296327	0.114789	0.000109
C36	C	0.796327	0.614789	0.500109
C37	C	0.214096	0.108201	0.000112
C38	C	0.714096	0.608201	0.500112
C39	C	0.204864	0.250079	0.000099
C40	C	0.704864	0.750079	0.500099
C41	C	0.287091	0.256665	0.000088
C42	C	0.787091	0.756665	0.500088
C43	C	0.332818	0.189020	0.000098
C44	C	0.832818	0.689020	0.500098
N45	N	0.457699	0.135371	0.000094
N46	N	0.957699	0.635371	0.500094
N47	N	0.416865	0.195760	0.000095
N48	N	0.916865	0.695760	0.500095
C49	C	0.933456	0.022384	0.000098
C50	C	1.433456	0.522384	0.500098
C51	C	0.926089	-0.064871	0.000097
C52	C	1.426089	0.435129	0.500097
C53	C	0.993729	-0.110741	0.000105
C54	C	1.493729	0.389259	0.500105
C55	C	0.986802	-0.192727	0.000096
C56	C	1.486802	0.307273	0.500096
C57	C	0.912235	-0.228840	0.000085
C58	C	1.412235	0.271160	0.500085
C59	C	0.844590	-0.182964	0.000075
C60	C	1.344590	0.317036	0.500075
C61	C	0.851518	-0.100981	0.000077
C62	C	1.351518	0.399019	0.500077
C63	C	0.887761	-0.476135	0.000071
C64	C	1.387761	0.023865	0.500071
C65	C	0.880838	-0.558124	0.000071
C66	C	1.380838	-0.058124	0.500071
C67	C	1.023051	-0.567881	0.000091
C68	C	1.523051	-0.067881	0.500091
C69	C	1.029972	-0.485895	0.000099
C70	C	1.529972	0.014105	0.500099
C71	C	0.962328	-0.440026	0.000084
C72	C	1.462328	0.059974	0.500084
C73	C	0.905153	-0.312643	0.000079
C74	C	1.405153	0.187357	0.500079
C75	C	0.969410	-0.356226	0.000084
C76	C	1.469410	0.143774	0.500084
C77	C	1.080856	0.168831	0.000105
C78	C	1.580856	0.668831	0.500105
C79	C	1.168367	0.175841	0.000109
C80	C	1.668367	0.675841	0.500109
C81	C	0.941111	0.308751	0.000084
C82	C	1.441111	0.808751	0.500084
C83	C	0.948478	0.396006	0.000079
C84	C	1.448478	0.896006	0.500079
N85	N	0.927609	0.175214	0.216427
N86	N	1.427609	0.675214	0.716427
N87	N	0.946963	0.155915	-0.216243
N88	N	1.446963	0.655915	0.283757
C89	C	0.975645	0.127157	0.260129
C90	C	1.475645	0.627157	0.760129
C91	C	0.971749	0.131060	0.347535
C92	C	1.471749	0.631060	0.847535
C93	C	0.919820	0.183023	0.391237
C94	C	1.419820	0.683023	0.891237
C95	C	0.871779	0.231082	0.347529
C96	C	1.371779	0.731082	0.847529
C97	C	0.875672	0.227175	0.260125
C98	C	1.375672	0.727175	0.760125
C99	C	0.902815	0.200067	0.652644
C100	C	1.402815	0.700067	1.152644
C101	C	0.898928	0.203972	0.740055
C102	C	1.398928	0.703972	1.240055
C103	C	0.998897	0.103948	0.740054
C104	C	1.498897	0.603948	1.240054
C105	C	1.002788	0.100050	0.652648
C106	C	1.502788	0.600050	1.152648
C107	C	0.954744	0.148105	0.608948
C108	C	1.454744	0.648105	1.108948
N109	N	0.915838	0.187015	0.480580
N110	N	1.415838	0.687015	0.980580
N111	N	0.958723	0.144109	0.519606
N112	N	1.458723	0.644109	1.019606
H113	H	0.690181	0.283381	0.000056
H114	H	1.190181	0.783381	0.500056
C115	C	0.777114	-0.050524	0.000071
C116	C	1.277114	0.449476	0.500071
H117	H	0.731712	-0.083772	0.000071
H118	H	1.231712	0.416228	0.500071
H119	H	0.779029	-0.020495	-0.048352
H120	H	1.279029	0.479505	0.451648
H121	H	0.774693	-0.016183	0.048500
H122	H	1.274693	0.483817	0.548500
H123	H	1.038011	0.064823	0.775643
H124	H	1.538011	0.564823	1.275643
C125	C	0.841759	0.261090	0.788126
C126	C	1.341759	0.761090	1.288126
H127	H	0.813685	0.289133	0.749583
H128	H	1.313685	0.789133	1.249583
H129	H	0.870703	0.297099	0.822235
H130	H	1.370703	0.797099	1.322235
H131	H	0.805599	0.232255	0.822211
H132	H	1.305599	0.732255	1.322211
C133	C	0.346616	0.040382	0.000114
C134	C	0.846616	0.540382	0.500114
H135	H	0.313102	-0.004770	0.000112
H136	H	0.813102	0.495230	0.500112
H137	H	0.376724	0.042161	0.048536
H138	H	0.876724	0.542161	0.548536
H139	H	0.381044	0.037842	-0.048316
H140	H	0.881044	0.537842	0.451684
H141	H	1.078123	-0.605236	0.000102
H142	H	1.578123	-0.105236	0.500102
H143	H	0.820113	-0.587524	0.000076
H144	H	1.320113	-0.087524	0.500076
C145	C	1.061206	-0.243180	0.000114
C146	C	1.561206	0.256820	0.500114
H147	H	1.106606	-0.209929	0.000133
H148	H	1.606606	0.290071	0.500133
H149	H	1.063634	-0.277522	-0.048309
H150	H	1.563634	0.222478	0.451691
H151	H	1.059286	-0.273207	0.048543
H152	H	1.559286	0.226793	0.548543
C153	C	0.813354	-0.425689	0.000069
C154	C	1.313354	0.074311	0.500069
H155	H	0.767954	-0.458941	0.000074
H156	H	1.267954	0.041059	0.500074
H157	H	0.815260	-0.395658	-0.048351
H158	H	1.315260	0.104342	0.451649
H159	H	0.810936	-0.391351	0.048501
H160	H	1.310936	0.108649	0.548501
H161	H	1.054449	-0.081343	0.000119
H162	H	1.554449	0.418657	0.500119
H163	H	0.836555	0.266306	0.224543
H164	H	1.336555	0.766306	0.724543
H165	H	0.557760	0.014024	0.000110
H166	H	1.057760	0.514024	0.500110
H167	H	0.783876	-0.212375	0.000061
H168	H	1.283876	0.287625	0.500061
C169	C	0.527947	0.290746	0.000070
C170	C	1.027947	0.790746	0.500070
H171	H	0.561460	0.335899	0.000053
H172	H	1.061460	0.835899	0.500053
H173	H	0.493521	0.293288	0.048495
H174	H	0.993521	0.793288	0.548495
H175	H	0.497838	0.288961	-0.048357
H176	H	0.997838	0.788961	0.451643
H177	H	1.090692	-0.456497	0.000108
H178	H	1.590692	0.043503	0.500108
C179	C	0.154563	0.324482	0.000099
C180	C	0.654563	0.824482	0.500099
H181	H	0.100365	0.309928	0.000111
H182	H	0.600365	0.809928	0.500111
H183	H	0.168299	0.352552	-0.048325
H184	H	0.668299	0.852552	0.451675
H185	H	0.163983	0.356864	0.048527
H186	H	0.663983	0.856864	0.548527
H187	H	0.184383	0.047750	0.000119
H188	H	0.684383	0.547750	0.500119
C189	C	0.849976	0.252933	0.604585
C190	C	1.349976	0.752933	1.104585
H191	H	0.818500	0.284445	0.643133
H192	H	1.318500	0.784445	1.143133
H193	H	0.816832	0.221103	0.570497
H194	H	1.316832	0.721103	1.070497
H195	H	0.882002	0.285881	0.570480
H196	H	1.382002	0.785881	1.070480
C197	C	1.024596	0.078205	0.395603
C198	C	1.524596	0.578205	0.895603
H199	H	1.056089	0.046708	0.357057
H200	H	1.556089	0.546708	0.857057
H201	H	0.992584	0.045255	0.429712
H202	H	1.492584	0.545255	0.929712
H203	H	1.057736	0.110051	0.429687
H204	H	1.557736	0.610051	0.929687
H205	H	0.706939	0.025977	0.000087
H206	H	1.206939	0.525977	0.500087
C207	C	1.032772	0.070005	0.212059
C208	C	1.532772	0.570005	0.712059
H209	H	1.028219	0.074566	0.153745
H210	H	1.528219	0.574566	0.653745
H211	H	1.020096	0.017704	0.226392
H212	H	1.520096	0.517704	0.726392
H213	H	1.085252	0.082496	0.226379
H214	H	1.585252	0.582496	0.726379
C215	C	0.327231	0.338320	0.000090
C216	C	0.827231	0.838320	0.500090
H217	H	0.288219	0.377662	0.000099
H218	H	0.788219	0.877662	0.500099
H219	H	0.361277	0.341686	-0.048332
H220	H	0.861277	0.841686	0.451668
H221	H	0.356952	0.345994	0.048519
H222	H	0.856952	0.845994	0.548519
C223	C	1.059945	0.042928	0.604577
C224	C	1.559945	0.542928	1.104577
H225	H	1.055401	0.047501	0.546263
H226	H	1.555401	0.547501	1.046263
H227	H	1.047304	-0.009385	0.618889
H228	H	1.547304	0.490615	1.118889
H229	H	1.112414	0.055453	0.618914
H230	H	1.612414	0.555453	1.118914
C231	C	0.814661	0.288242	0.395600
C232	C	1.314661	0.788242	0.895600
H233	H	0.819227	0.283693	0.453914
H234	H	1.319227	0.783693	0.953914
H235	H	0.762180	0.275763	0.381287
H236	H	1.262180	0.775763	0.881287
H237	H	0.827349	0.340542	0.381262
H238	H	1.327349	0.840542	0.881262
H239	H	1.030124	-0.326819	0.000074
H240	H	1.530124	0.173181	0.500074
H241	H	0.844440	-0.342056	0.000072
H242	H	1.344440	0.157944	0.500072
