data_functionalizedCrystal
_audit_creation_method	'MofGen! by Chris Wilmer'
_symmetry_space_group_name_H-M	'P1'
_symmetry_Int_Tables_number	1
_symmetry_cell_setting	triclinic
loop_
_symmetry_equiv_pos_as_xyz
  x,y,z
_cell_length_a	8.497374
_cell_length_b	8.497374
_cell_length_c	11.169417
_cell_angle_alpha	89.998029
_cell_angle_beta	90.000212
_cell_angle_gamma	90.005237
loop_
_atom_site_label
_atom_site_type_symbol
_atom_site_fract_x
_atom_site_fract_y
_atom_site_fract_z
Zn1	Zn	0.892043	0.628293	1.834807
Zn2	Zn	0.628308	0.892038	1.834798
Zn3	Zn	0.628277	0.628270	1.634162
Zn4	Zn	0.892047	0.892028	1.634133
O5	O	0.760169	0.760157	1.734475
O6	O	0.857069	0.663292	2.002756
O7	O	0.407542	0.857043	1.808191
O8	O	0.663251	0.407511	1.660794
O9	O	0.663305	0.857065	2.002749
O10	O	0.857039	0.407527	1.808207
O11	O	0.407519	0.663254	1.660785
O12	O	0.663255	0.663245	1.466208
O13	O	1.112808	0.857049	1.660745
O14	O	0.857046	0.857027	1.466187
O15	O	1.112805	0.663283	1.808179
O16	O	0.663309	1.112799	1.808163
O17	O	0.857076	1.112792	1.660735
C18	C	0.760148	0.760133	1.422650
C19	C	0.760177	0.760161	1.289250
C20	C	1.171649	0.760160	1.734466
C21	C	1.350293	0.760176	1.734469
C22	C	0.760191	1.170037	1.734460
C23	C	0.760166	1.348681	1.734492
C24	C	0.760190	0.760182	2.047517
C25	C	0.760199	0.760193	2.180917
