data_functionalizedCrystal
_audit_creation_method	'MofGen! by Chris Wilmer'
_symmetry_space_group_name_H-M	'P1'
_symmetry_Int_Tables_number	1
_symmetry_cell_setting	triclinic
loop_
_symmetry_equiv_pos_as_xyz
  x,y,z
_cell_length_a	19.121321
_cell_length_b	19.121063
_cell_length_c	18.215399
_cell_angle_alpha	92.409843
_cell_angle_beta	92.421570
_cell_angle_gamma	89.929715
loop_
_atom_site_label
_atom_site_type_symbol
_atom_site_fract_x
_atom_site_fract_y
_atom_site_fract_z
Zn1	Zn	1.059811	-0.324761	-0.383198
Zn2	Zn	1.393144	0.008573	-0.049864
Zn3	Zn	1.726477	0.341906	0.283469
Zn4	Zn	1.054716	-0.441999	-0.265592
Zn5	Zn	1.388050	-0.108665	0.067741
Zn6	Zn	1.721383	0.224668	0.401075
Zn7	Zn	0.942577	-0.319789	-0.265168
Zn8	Zn	1.275910	0.013544	0.068165
Zn9	Zn	1.609244	0.346877	0.401499
Zn10	Zn	0.937540	-0.436968	-0.393635
Zn11	Zn	1.270874	-0.103634	-0.060301
Zn12	Zn	1.604207	0.229699	0.273032
O13	O	0.998661	-0.380879	-0.326898
O14	O	1.331994	-0.047546	0.006435
O15	O	1.665328	0.285788	0.339769
O16	O	1.157236	-0.344498	-0.363407
O17	O	1.490569	-0.011165	-0.030073
O18	O	1.823903	0.322168	0.303260
O19	O	1.039817	-0.425812	-0.162554
O20	O	1.373150	-0.092479	0.170780
O21	O	1.706483	0.240854	0.504113
O22	O	0.962368	-0.222345	-0.276279
O23	O	1.295701	0.110989	0.057054
O24	O	1.629035	0.444322	0.390387
O25	O	1.153493	-0.430633	-0.277002
O26	O	1.486827	-0.097299	0.056331
O27	O	1.820160	0.236034	0.389664
O28	O	1.048499	-0.225997	-0.362995
O29	O	1.381832	0.107336	-0.029662
O30	O	1.715166	0.440670	0.303671
O31	O	0.957428	-0.336026	-0.162242
O32	O	1.290762	-0.002692	0.171091
O33	O	1.624095	0.330641	0.504425
O34	O	0.843808	-0.331148	-0.286400
O35	O	1.177141	0.002186	0.046934
O36	O	1.510474	0.335519	0.380267
O37	O	0.953784	-0.422058	-0.495232
O38	O	1.287117	-0.088725	-0.161899
O39	O	1.620450	0.244608	0.171434
O40	O	0.840107	-0.417238	-0.380784
O41	O	1.173440	-0.083905	-0.047450
O42	O	1.506774	0.249429	0.285883
O43	O	1.043615	-0.339620	-0.487564
O44	O	1.376948	-0.006287	-0.154231
O45	O	1.710282	0.327047	0.179102
O46	O	1.034933	-0.539435	-0.287123
O47	O	1.368266	-0.206102	0.046211
O48	O	1.701600	0.127231	0.379544
O49	O	0.948844	-0.535739	-0.381195
O50	O	1.282177	-0.202406	-0.047861
O51	O	1.615511	0.130927	0.285472
C52	C	0.816521	-0.373108	-0.334679
C53	C	1.149854	-0.039775	-0.001345
C54	C	1.483187	0.293559	0.331988
C55	C	0.738600	-0.369800	-0.338025
C56	C	1.071933	-0.036467	-0.004692
C57	C	1.405266	0.296866	0.328641
C58	C	0.297993	-0.348791	-0.359247
C59	C	0.631327	-0.015458	-0.025913
C60	C	0.964660	0.317875	0.307420
C61	C	0.371208	-0.351912	-0.356098
C62	C	0.704541	-0.018579	-0.022765
C63	C	1.037875	0.314754	0.310568
C64	C	0.405861	-0.398245	-0.309458
C65	C	0.739194	-0.064911	0.023875
C66	C	1.072528	0.268422	0.357208
C67	C	0.367295	-0.441464	-0.265969
C68	C	0.700628	-0.108130	0.067364
C69	C	1.033962	0.225203	0.400697
C70	C	0.294082	-0.438346	-0.269122
C71	C	0.627415	-0.105012	0.064211
C72	C	0.960748	0.228321	0.397545
C73	C	0.626820	-0.409902	-0.297689
C74	C	0.960154	-0.076568	0.035644
C75	C	1.293487	0.256765	0.368978
C76	C	0.700039	-0.413015	-0.294538
C77	C	1.033372	-0.079681	0.038795
C78	C	1.366706	0.253652	0.372129
C79	C	0.703947	-0.323464	-0.384668
C80	C	1.037280	0.009869	-0.051335
C81	C	1.370614	0.343203	0.281998
C82	C	0.630732	-0.320347	-0.387813
C83	C	0.964065	0.012986	-0.054480
C84	C	1.297399	0.346319	0.278853
C85	C	0.592173	-0.363569	-0.344327
C86	C	0.925506	-0.030236	-0.010994
C87	C	1.258839	0.303098	0.322339
C88	C	0.480698	-0.401434	-0.306238
C89	C	0.814031	-0.068101	0.027096
C90	C	1.147365	0.265232	0.360429
C91	C	0.517337	-0.360382	-0.347553
C92	C	0.850670	-0.027049	-0.014219
C93	C	1.184003	0.306284	0.319114
C94	C	0.990808	-0.563025	-0.335352
C95	C	1.324141	-0.229692	-0.002019
C96	C	1.657475	0.103641	0.331314
C97	C	0.987513	-0.640951	-0.338991
C98	C	1.320846	-0.307618	-0.005658
C99	C	1.654179	0.025716	0.327675
C100	C	1.030821	-0.679463	-0.291760
C101	C	1.364155	-0.346130	0.041574
C102	C	1.697488	-0.012797	0.374907
C103	C	1.027726	-0.752683	-0.295186
C104	C	1.361059	-0.419349	0.038147
C105	C	1.694393	-0.086016	0.371481
C106	C	0.981319	-0.787388	-0.345841
C107	C	1.314652	-0.454055	-0.012507
C108	C	1.647985	-0.120722	0.320826
C109	C	0.938008	-0.748871	-0.393077
C110	C	1.271342	-0.415538	-0.059744
C111	C	1.604675	-0.082204	0.273589
C112	C	0.941107	-0.675653	-0.389654
C113	C	1.274441	-0.342320	-0.056321
C114	C	1.607774	-0.008986	0.277013
C115	C	0.969720	-1.008364	-0.358629
C116	C	1.303054	-0.675031	-0.025295
C117	C	1.636387	-0.341698	0.308038
C118	C	0.966623	-1.081588	-0.362047
C119	C	1.299956	-0.748254	-0.028714
C120	C	1.633289	-0.414921	0.304620
C121	C	1.056342	-1.085394	-0.264156
C122	C	1.389675	-0.752061	0.069177
C123	C	1.723009	-0.418728	0.402510
C124	C	1.059434	-1.012174	-0.260734
C125	C	1.392767	-0.678841	0.072599
C126	C	1.726101	-0.345508	0.405932
C127	C	1.016126	-0.973664	-0.307974
C128	C	1.349460	-0.640330	0.025360
C129	C	1.682793	-0.306997	0.358693
C130	C	0.978152	-0.862230	-0.349343
C131	C	1.311485	-0.528897	-0.016009
C132	C	1.644819	-0.195564	0.317324
C133	C	1.019297	-0.898823	-0.304475
C134	C	1.352630	-0.565490	0.028859
C135	C	1.685964	-0.232156	0.362192
C136	C	1.181512	-0.388681	-0.319088
C137	C	1.514846	-0.055348	0.014246
C138	C	1.848179	0.277986	0.347579
C139	C	1.259433	-0.392006	-0.315759
C140	C	1.592766	-0.058672	0.017574
C141	C	1.926100	0.274661	0.350907
C142	C	0.998706	-0.380833	-0.518847
C143	C	1.332039	-0.047499	-0.185514
C144	C	1.665372	0.285834	0.147820
C145	C	0.998725	-0.380813	-0.600644
C146	C	1.332058	-0.047479	-0.267311
C147	C	1.665392	0.285854	0.066023
C148	C	1.006564	-0.198022	-0.318426
C149	C	1.339897	0.135311	0.014907
C150	C	1.673230	0.468644	0.348241
C151	C	1.009931	-0.120100	-0.314816
C152	C	1.343265	0.213234	0.018518
C153	C	1.676598	0.546567	0.351851
C154	C	1.045518	-0.337846	-0.784844
C155	C	1.378851	-0.004513	-0.451511
C156	C	1.712185	0.328821	-0.118177
C157	C	1.045527	-0.337826	-0.861702
C158	C	1.378861	-0.004493	-0.528368
C159	C	1.712194	0.328841	-0.195035
C160	C	0.951986	-0.423673	-0.869675
C161	C	1.285319	-0.090340	-0.536342
C162	C	1.618653	0.242993	-0.203008
C163	C	0.951974	-0.423689	-0.792819
C164	C	1.285307	-0.090356	-0.459486
C165	C	1.618641	0.242978	-0.126152
C166	C	0.998744	-0.380777	-0.750405
C167	C	1.332077	-0.047443	-0.417072
C168	C	1.665411	0.285890	-0.083739
C169	C	0.998765	-0.380741	-0.904119
C170	C	1.332098	-0.047407	-0.570786
C171	C	1.665432	0.285926	-0.237452
C172	C	0.998775	-0.380719	-0.987451
C173	C	1.332108	-0.047386	-0.654118
C174	C	1.665441	0.285947	-0.320785
C175	C	0.998733	-0.380797	-0.667068
C176	C	1.332067	-0.047464	-0.333734
C177	C	1.665400	0.285870	-0.000401
C178	C	0.998659	-0.380877	-0.135692
C179	C	1.331992	-0.047543	0.197642
C180	C	1.665326	0.285790	0.530975
C181	C	0.998784	-0.380705	-0.053880
C182	C	1.332117	-0.047371	0.279453
C183	C	1.665451	0.285962	0.612787
H184	H	0.508921	-0.439155	-0.268261
H185	H	0.842254	-0.105822	0.065073
H186	H	1.175587	0.227511	0.398406
H187	H	1.083614	-0.302866	-0.889738
H188	H	1.416948	0.030467	-0.556404
H189	H	1.750281	0.363800	-0.223071
H190	H	0.735350	-0.288276	-0.420073
H191	H	1.068683	0.045057	-0.086740
H192	H	1.402017	0.378391	0.246594
Br193	Br	0.583708	-0.257467	-0.451114
Br194	Br	0.917042	0.075867	-0.117781
Br195	Br	1.250375	0.409200	0.215553
H196	H	0.928840	-1.109843	-0.403309
H197	H	1.262174	-0.776510	-0.069975
H198	H	1.595507	-0.443177	0.263358
Br199	Br	1.082281	-0.851722	-0.235736
Br200	Br	1.415615	-0.518388	0.097598
Br201	Br	1.748948	-0.185055	0.430931
Br202	Br	0.888518	-0.481911	-0.927241
Br203	Br	1.221851	-0.148578	-0.593907
Br204	Br	1.555185	0.184755	-0.260574
Br205	Br	1.115117	-1.137662	-0.200053
Br206	Br	1.448450	-0.804329	0.133280
Br207	Br	1.781783	-0.470996	0.466613
Br208	Br	0.423538	-0.293267	-0.415126
Br209	Br	0.756871	0.040066	-0.081793
Br210	Br	1.090204	0.373399	0.251541
H211	H	0.905842	-0.644297	-0.428116
H212	H	1.239175	-0.310964	-0.094782
H213	H	1.572509	0.022370	0.238551
H214	H	0.940365	-0.890496	-0.390585
H215	H	1.273699	-0.557163	-0.057251
H216	H	1.607032	-0.223829	0.276082
H217	H	0.395515	-0.479191	-0.227997
H218	H	0.728848	-0.145858	0.105336
H219	H	1.062182	0.187476	0.438669
H220	H	1.068608	-0.651211	-0.250508
H221	H	1.401942	-0.317877	0.082825
H222	H	1.735275	0.015456	0.416158
H223	H	1.083599	-0.302902	-0.750313
H224	H	1.416933	0.030431	-0.416980
H225	H	1.750266	0.363765	-0.083646
H226	H	0.913880	-0.458648	-0.764779
H227	H	1.247213	-0.125314	-0.431445
H228	H	1.580546	0.208019	-0.098112
Br229	Br	0.574499	-0.468539	-0.238648
Br230	Br	0.907833	-0.135205	0.094685
Br231	Br	1.241166	0.198128	0.428018
H232	H	0.728251	-0.450746	-0.256557
H233	H	1.061584	-0.117413	0.076776
H234	H	1.394918	0.215920	0.410110
Br235	Br	0.241748	-0.497005	-0.210110
Br236	Br	0.575081	-0.163671	0.123223
Br237	Br	0.908415	0.169662	0.456556
Br238	Br	1.122427	-0.965079	-0.191995
Br239	Br	1.455761	-0.631746	0.141338
Br240	Br	1.789094	-0.298412	0.474671
Br241	Br	0.910945	-0.956109	-0.422740
Br242	Br	1.244279	-0.622775	-0.089406
Br243	Br	1.577612	-0.289442	0.243927
H244	H	0.489119	-0.322661	-0.385529
H245	H	0.822452	0.010672	-0.052196
H246	H	1.155786	0.344005	0.281138
Br247	Br	0.250972	-0.285903	-0.422541
Br248	Br	0.584305	0.047430	-0.089207
Br249	Br	0.917639	0.380763	0.244126
H250	H	1.062992	-0.784036	-0.256725
H251	H	1.396325	-0.450703	0.076609
H252	H	1.729659	-0.117370	0.409942
Br253	Br	0.875031	-0.795971	-0.461830
Br254	Br	1.208365	-0.462638	-0.128497
Br255	Br	1.541698	-0.129305	0.204837
