data_functionalizedCrystal
_audit_creation_method	'MofGen! by Chris Wilmer'
_symmetry_space_group_name_H-M	'P1'
_symmetry_Int_Tables_number	1
_symmetry_cell_setting	triclinic
loop_
_symmetry_equiv_pos_as_xyz
  x,y,z
_cell_length_a	10.686220
_cell_length_b	12.759394
_cell_length_c	10.686551
_cell_angle_alpha	94.406554
_cell_angle_beta	89.692081
_cell_angle_gamma	94.396711
loop_
_atom_site_label
_atom_site_type_symbol
_atom_site_fract_x
_atom_site_fract_y
_atom_site_fract_z
Zn1	Zn	1.972288	-0.256133	0.562387
Zn2	Zn	1.956059	-0.446293	0.352625
Zn3	Zn	1.746407	-0.283010	0.368704
Zn4	Zn	1.762489	-0.444165	0.578402
O5	O	1.859311	-0.357400	0.465530
O6	O	2.145677	-0.271001	0.521131
O7	O	1.914726	-0.436772	0.179212
O8	O	1.776432	-0.132418	0.394423
O9	O	2.133754	-0.410711	0.367020
O10	O	1.942386	-0.112672	0.536721
O11	O	1.760695	-0.316808	0.191025
O12	O	1.572998	-0.314744	0.409952
O13	O	1.803842	-0.407083	0.751824
O14	O	1.584814	-0.433144	0.564017
O15	O	1.957981	-0.268937	0.740058
O16	O	1.930321	-0.593038	0.382549
O17	O	1.788106	-0.591474	0.548426
C18	C	1.533390	-0.376631	0.490468
C19	C	1.393962	-0.384881	0.501166
C20	C	1.859233	-0.630374	0.465505
C21	C	1.859318	-0.747144	0.465528
C22	C	2.007536	-0.748704	0.292911
C23	C	2.081679	-0.804341	0.206614
C24	C	2.081755	-0.914056	0.206643
C25	C	2.007683	-0.968136	0.292979
C26	C	1.933541	-0.912498	0.379276
C27	C	1.933470	-0.802781	0.379235
C28	C	1.785331	-0.910937	0.551897
C29	C	1.785246	-0.801223	0.551864
C30	C	1.711259	-0.965017	0.638233
C31	C	1.637108	-0.909380	0.724526
C32	C	1.637034	-0.799658	0.724493
C33	C	1.711103	-0.745586	0.638161
C34	C	2.186504	-0.338095	0.440495
C35	C	2.325935	-0.329869	0.429827
C36	C	1.884516	-0.334775	0.792730
C37	C	1.895256	-0.325133	0.932164
C38	C	1.859425	-0.083356	0.465579
C39	C	1.859474	0.033425	0.465600
C40	C	1.834276	-0.379858	0.139596
C41	C	1.823779	-0.389189	0.000145
H42	H	1.345537	-0.438292	0.570425
H43	H	1.374366	-0.276462	0.360555
C44	C	1.730001	-0.473243	0.934676
C45	C	1.624674	-0.439685	0.852110
C46	C	1.530895	-0.523741	0.786632
C47	C	1.542443	-0.641355	0.803721
C48	C	1.647775	-0.674919	0.886292
C49	C	1.741554	-0.590863	0.951769
H50	H	1.616121	-0.352615	0.839456
H51	H	1.452921	-0.498894	0.725508
H52	H	1.473022	-0.703578	0.755250
H53	H	1.656328	-0.761989	0.898945
H54	H	1.819528	-0.615710	1.012893
H55	H	1.964678	-0.262916	0.980639
H56	H	2.007464	-0.659370	0.292864
H57	H	1.711332	-1.054352	0.638255
C58	C	1.555641	-0.968866	0.819490
C59	C	1.555735	-1.089547	0.819534
C60	C	1.474266	-1.149037	0.914500
C61	C	1.392704	-1.087846	1.009423
C62	C	1.392607	-0.967158	1.009383
C63	C	1.474076	-0.907668	0.914417
H64	H	1.616115	-1.134850	0.749263
H65	H	1.474339	-1.238378	0.914529
H66	H	1.332397	-1.131884	1.079723
H67	H	1.332228	-0.921855	1.079654
H68	H	1.474004	-0.818326	0.914387
C69	C	2.163156	-0.744851	0.111650
C70	C	2.101231	-0.679518	0.017254
C71	C	2.182711	-0.620030	-0.077705
C72	C	2.326117	-0.625875	-0.078268
C73	C	2.388049	-0.691210	0.016131
C74	C	2.306569	-0.750698	0.111091
H75	H	1.995067	-0.675189	0.017668
H76	H	2.136864	-0.571665	-0.147586
H77	H	2.386433	-0.581838	-0.148563
H78	H	2.494213	-0.695539	0.015718
H79	H	2.352416	-0.799063	0.180971
C80	C	2.163311	-0.975264	0.111719
C81	C	2.163388	-1.095947	0.111759
C82	C	2.244944	-1.157155	0.016836
C83	C	2.326423	-1.097681	-0.078127
C84	C	2.326349	-0.976992	-0.078171
C85	C	2.244793	-0.915783	0.016752
H86	H	2.103070	-1.139979	0.182060
H87	H	2.244998	-1.246497	0.016870
H88	H	2.386795	-1.142991	-0.148394
H89	H	2.386667	-0.932959	-0.148471
H90	H	2.244739	-0.826441	0.016719
H91	H	2.007764	-1.057470	0.293005
H92	H	1.576663	-0.754363	0.794770
H93	H	1.711041	-0.656251	0.638118
