data_functionalizedCrystal
_audit_creation_method	'MofGen! by Chris Wilmer'
_symmetry_space_group_name_H-M	'P1'
_symmetry_Int_Tables_number	1
_symmetry_cell_setting	triclinic
loop_
_symmetry_equiv_pos_as_xyz
  x,y,z
_cell_length_a	19.188930
_cell_length_b	18.266242
_cell_length_c	11.792254
_cell_angle_alpha	90.005270
_cell_angle_beta	83.671689
_cell_angle_gamma	90.022820
loop_
_atom_site_label
_atom_site_type_symbol
_atom_site_fract_x
_atom_site_fract_y
_atom_site_fract_z
O1	O	0.926956	0.061117	0.141692
O2	O	1.426956	0.561117	0.641692
O3	O	0.723753	0.061067	0.160767
O4	O	1.223753	0.561067	0.660767
O5	O	0.830281	0.061088	-0.014014
O6	O	1.330281	0.561088	0.485986
O7	O	0.820428	0.061096	0.316473
O8	O	1.320428	0.561096	0.816473
O9	O	0.830263	-0.060674	-0.014019
O10	O	1.330263	0.439326	0.485981
O11	O	0.723735	-0.060695	0.160762
O12	O	1.223735	0.439305	0.660762
O13	O	0.926938	-0.060645	0.141688
O14	O	1.426938	0.439355	0.641688
Zn15	Zn	0.825333	-0.080003	0.151224
Zn16	Zn	1.325333	0.419997	0.651224
Zn17	Zn	0.825357	0.080424	0.151230
Zn18	Zn	1.325357	0.580424	0.651230
O19	O	0.820410	-0.060666	0.316468
O20	O	1.320410	0.439334	0.816468
C21	C	0.697729	0.000179	0.160147
C22	C	1.197729	0.500179	0.660147
C23	C	0.620214	0.000160	0.158292
C24	C	1.120214	0.500160	0.658292
N25	N	0.825322	-0.189490	0.151219
N26	N	1.325322	0.310510	0.651219
C27	C	0.575874	0.000174	0.260848
C28	C	1.075874	0.500174	0.760848
C29	C	0.503041	0.000182	0.259106
C30	C	1.003041	0.500182	0.759106
C31	C	0.474550	0.000191	0.154803
C32	C	0.974550	0.500191	0.654803
C33	C	0.518900	0.000173	0.052234
C34	C	1.018900	0.500173	0.552234
C35	C	0.591732	0.000157	0.053979
C36	C	1.091732	0.500157	0.553979
N37	N	0.366122	0.041659	0.075077
N38	N	0.866122	0.541659	0.575077
N39	N	0.296934	0.041675	0.073427
N40	N	0.796934	0.541675	0.573427
C41	C	0.255112	0.000235	0.149539
C42	C	0.755112	0.500235	0.649539
N43	N	0.285089	-0.041212	0.227381
N44	N	0.785089	0.458788	0.727381
N45	N	0.354283	-0.041225	0.229035
N46	N	0.854283	0.458775	0.729035
C47	C	0.395577	0.000207	0.152899
C48	C	0.895577	0.500207	0.652899
C49	C	0.131796	0.000257	0.250213
C50	C	0.631796	0.500257	0.750213
C51	C	0.058962	0.000260	0.248466
C52	C	0.558962	0.500260	0.748466
C53	C	0.074823	0.000258	0.041591
C54	C	0.574823	0.500258	0.541591
C55	C	0.147656	0.000248	0.043340
C56	C	0.647656	0.500248	0.543340
C57	C	0.176138	0.000250	0.147654
C58	C	0.676138	0.500250	0.647654
C59	C	0.867922	-0.227779	0.219890
C60	C	1.367922	0.272221	0.719890
C61	C	0.867934	-0.304424	0.219887
C62	C	1.367934	0.195576	0.719887
C63	C	0.825332	-0.342776	0.151226
C64	C	1.325332	0.157224	0.651226
C65	C	0.782729	-0.304477	0.082541
C66	C	1.282729	0.195523	0.582541
C67	C	0.782724	-0.227834	0.082537
C68	C	1.282724	0.272166	0.582537
N69	N	0.764168	-0.463144	0.148430
N70	N	1.264168	0.036856	0.648430
N71	N	0.764175	-0.535952	0.148439
N72	N	1.264175	-0.035952	0.648439
C73	C	0.825346	-0.573699	0.151230
C74	C	1.325346	-0.073699	0.651230
N75	N	0.886511	-0.535887	0.154032
N76	N	1.386511	-0.035887	0.654032
N77	N	0.886503	-0.463072	0.154029
N78	N	1.386503	0.036928	0.654029
C79	C	0.825333	-0.425883	0.151221
C80	C	1.325333	0.074117	0.651221
C81	C	0.867962	-0.695096	0.219901
C82	C	1.367962	-0.195096	0.719901
C83	C	0.867975	-0.771742	0.219890
C84	C	1.367975	-0.271742	0.719890
C85	C	0.782765	-0.771794	0.082550
C86	C	1.282765	-0.271794	0.582550
C87	C	0.782758	-0.695149	0.082555
C88	C	1.282758	-0.195149	0.582555
C89	C	0.825356	-0.656804	0.151237
C90	C	1.325356	-0.156804	0.651237
C91	C	0.952961	0.000244	0.142308
C92	C	1.452961	0.500244	0.642308
C93	C	1.030476	0.000268	0.144162
C94	C	1.530476	0.500268	0.644162
C95	C	0.829651	0.000207	-0.056298
C96	C	1.329651	0.500207	0.443702
C97	C	0.827793	0.000207	-0.182283
C98	C	1.327793	0.500207	0.317717
N99	N	0.825374	0.189911	0.151226
N100	N	1.325374	0.689911	0.651226
C101	C	0.826284	0.000209	-0.284597
C102	C	1.326284	0.500209	0.215403
C103	C	0.824397	0.000216	-0.412955
C104	C	1.324397	0.500216	0.087045
C105	C	0.821039	0.000216	0.358752
C106	C	1.321039	0.500216	0.858752
C107	C	0.822897	0.000221	0.484737
C108	C	1.322897	0.500221	0.984737
H109	H	0.599059	0.000178	0.345788
H110	H	1.099059	0.500178	0.845788
N111	N	0.911491	-0.655915	0.290013
N112	N	1.411491	-0.155915	0.790013
N113	N	0.957472	-0.613128	0.245485
N114	N	1.457472	-0.113128	0.745485
H115	H	0.988216	-0.585454	0.294996
H116	H	1.488216	-0.085454	0.794996
N117	N	0.739224	-0.656030	0.012440
N118	N	1.239224	-0.156030	0.512440
N119	N	0.693231	-0.613285	0.056954
N120	N	1.193231	-0.113285	0.556954
H121	H	0.662483	-0.585657	0.007433
H122	H	1.162483	-0.085657	0.507433
N123	N	0.457747	0.000192	0.363879
N124	N	0.957747	0.500192	0.863879
N125	N	0.483187	0.000191	0.457004
N126	N	0.983187	0.500191	0.957004
H127	H	0.451201	0.000198	0.531002
H128	H	0.951201	0.500198	1.031002
N129	N	0.045728	0.000281	-0.064952
N130	N	0.545728	0.500281	0.435048
N131	N	0.059196	0.051606	-0.134010
N132	N	0.559196	0.551606	0.365990
H133	H	0.038645	0.051621	-0.209259
H134	H	0.538645	0.551621	0.290741
H135	H	0.902670	-0.802917	0.275806
H136	H	1.402670	-0.302917	0.775806
H137	H	0.748044	-0.335708	0.026635
H138	H	1.248044	0.164292	0.526635
N139	N	0.911456	-0.343536	0.290039
N140	N	1.411456	0.156464	0.790039
N141	N	0.949487	-0.309292	0.351350
N142	N	1.449487	0.190708	0.851350
H143	H	0.980226	-0.336912	0.400897
H144	H	1.480226	0.163088	0.900897
H145	H	0.748079	-0.803019	0.026644
H146	H	1.248079	-0.303019	0.526644
H147	H	0.495699	0.000190	-0.032691
H148	H	0.995699	0.500190	0.467309
N149	N	0.637019	0.000139	-0.050795
N150	N	1.137019	0.500139	0.449205
N151	N	0.611577	0.000140	-0.143919
N152	N	1.111577	0.500140	0.356081
H153	H	0.643561	0.000128	-0.217918
H154	H	1.143561	0.500128	0.282082
N155	N	0.192943	0.000236	-0.061430
N156	N	0.692943	0.500236	0.438570
N157	N	0.167499	0.000240	-0.154552
N158	N	0.667499	0.500240	0.345448
H159	H	0.199483	0.000229	-0.228552
H160	H	0.699483	0.500229	0.271448
H161	H	0.154988	0.000248	0.335151
H162	H	0.654988	0.500248	0.835151
H163	H	0.022860	0.000268	0.331983
H164	H	0.522860	0.500268	0.831983
N165	N	0.911426	-0.188625	0.290068
N166	N	1.411426	0.311375	0.790068
N167	N	0.949453	-0.222828	0.351389
N168	N	1.449453	0.277172	0.851389
H169	H	0.980176	-0.195174	0.400960
H170	H	1.480176	0.304826	0.900960
N171	N	0.739207	-0.188729	0.012374
N172	N	1.239207	0.311271	0.512374
N173	N	0.701179	-0.222976	-0.048938
N174	N	1.201179	0.277024	0.451062
H175	H	0.670444	-0.195358	-0.098493
H176	H	1.170444	0.304642	0.401507
