data_functionalizedCrystal
_audit_creation_method	'MofGen! by Chris Wilmer'
_symmetry_space_group_name_H-M	'P1'
_symmetry_Int_Tables_number	1
_symmetry_cell_setting	triclinic
loop_
_symmetry_equiv_pos_as_xyz
  x,y,z
_cell_length_a	16.974800
_cell_length_b	8.597304
_cell_length_c	15.455313
_cell_angle_alpha	85.021039
_cell_angle_beta	90.973911
_cell_angle_gamma	84.857181
loop_
_atom_site_label
_atom_site_type_symbol
_atom_site_fract_x
_atom_site_fract_y
_atom_site_fract_z
O1	O	1.051316	0.198664	-0.013147
O2	O	0.822152	0.222464	-0.031020
O3	O	0.940446	-0.016274	-0.004869
O4	O	0.933023	0.437401	-0.039298
O5	O	0.933681	-0.002678	0.137902
O6	O	0.815387	0.236059	0.111751
O7	O	1.044551	0.212260	0.129624
Cu8	Cu	0.929351	0.225401	0.133724
Cu9	Cu	0.937352	0.209322	-0.035119
O10	O	0.926258	0.450997	0.103473
C11	C	0.789397	0.228107	0.038389
C12	C	0.701877	0.224649	0.032501
C13	C	0.657076	0.230432	0.107561
C14	C	0.574843	0.227158	0.102033
C15	C	0.537410	0.218112	0.021443
C16	C	0.582217	0.212325	-0.053623
C17	C	0.664450	0.215587	-0.048093
C18	C	0.291867	0.207549	-0.003440
C19	C	0.209628	0.204291	-0.008965
C20	C	0.202259	0.219121	0.146692
C21	C	0.284493	0.222393	0.152214
C22	C	0.329293	0.216597	0.077149
N23	N	0.453354	0.214771	0.015790
N24	N	0.413348	0.219927	0.082804
C25	C	0.935890	-0.067540	0.070772
C26	C	0.932383	-0.240552	0.083451
C27	C	1.077306	0.206616	0.060213
C28	C	1.164827	0.210074	0.066096
C29	C	0.930814	0.502263	0.027830
C30	C	0.934321	0.675275	0.015145
N31	N	0.923730	0.236709	0.252479
N32	N	0.942980	0.198002	-0.153874
C33	C	0.974004	0.135322	0.308982
C34	C	0.969760	0.143888	0.398851
C35	C	0.915246	0.253849	0.432216
C36	C	0.864967	0.355240	0.375707
C37	C	0.869207	0.346666	0.285839
C38	C	0.896941	0.290819	0.699749
C39	C	0.892706	0.299389	0.789624
C40	C	0.997499	0.088034	0.812762
C41	C	1.001738	0.079475	0.722892
C42	C	0.951456	0.180861	0.666390
N43	N	0.910908	0.262611	0.524077
N44	N	0.955790	0.172090	0.574532
H45	H	0.687547	0.237810	0.173186
H46	H	0.820576	0.444768	0.402878
H47	H	0.179153	0.196929	-0.074595
O48	O	0.335256	0.201978	-0.076446
C49	C	0.284583	0.193258	-0.148756
H50	H	0.222178	0.242411	-0.133754
H51	H	0.306768	0.264597	-0.207536
H52	H	0.283826	0.065719	-0.163451
O53	O	0.939360	-0.252864	-0.066237
C54	C	0.872795	-0.279697	-0.116771
H55	H	0.822200	-0.308010	-0.072214
H56	H	0.853800	-0.170260	-0.161893
H57	H	0.888559	-0.382516	-0.157068
H58	H	0.700925	0.210881	-0.109215
H59	H	0.828268	0.429223	0.239835
H60	H	1.010696	0.061330	0.444856
H61	H	1.018398	0.045787	0.281823
H62	H	0.928030	-0.300852	0.151640
H63	H	1.046127	-0.010064	0.695728
H64	H	0.551734	0.204948	-0.119240
O65	O	1.046299	-0.010682	0.867569
C66	C	1.032765	-0.167115	0.856148
H67	H	1.005473	-0.173306	0.788769
H68	H	1.091278	-0.243843	0.862878
H69	H	0.990604	-0.210693	0.907561
H70	H	0.848312	0.388939	0.816784
H71	H	0.856001	0.373374	0.653752
H72	H	0.538371	0.231841	0.163158
H73	H	0.314965	0.229751	0.217840
O74	O	0.158722	0.224456	0.219604
C75	C	0.118329	0.088181	0.231648
H76	H	0.150379	-0.009288	0.196555
H77	H	0.116625	0.049431	0.303977
H78	H	0.055321	0.114204	0.204156
