data_functionalizedCrystal
_audit_creation_method	'MofGen! by Chris Wilmer'
_symmetry_space_group_name_H-M	'P1'
_symmetry_Int_Tables_number	1
_symmetry_cell_setting	triclinic
loop_
_symmetry_equiv_pos_as_xyz
  x,y,z
_cell_length_a	11.792254
_cell_length_b	10.489741
_cell_length_c	10.868271
_cell_angle_alpha	90.001126
_cell_angle_beta	90.004308
_cell_angle_gamma	84.368886
loop_
_atom_site_label
_atom_site_type_symbol
_atom_site_fract_x
_atom_site_fract_y
_atom_site_fract_z
O1	O	1.507372	0.174902	0.102321
O2	O	1.177082	0.192904	0.102323
O3	O	1.349743	-0.001720	0.102314
O4	O	1.334711	0.369526	0.102329
O5	O	1.349727	-0.001714	-0.102330
O6	O	1.177066	0.192910	-0.102322
O7	O	1.507357	0.174909	-0.102324
Zn8	Zn	1.342209	0.183910	-0.134815
Zn9	Zn	1.342230	0.183902	0.134814
O10	O	1.334696	0.369532	-0.102315
C11	C	1.134780	0.191773	0.000001
C12	C	1.008758	0.188379	0.000002
C13	C	0.906414	0.185621	0.000007
C14	C	0.778018	0.182173	0.000008
C15	C	1.348600	-0.049245	-0.000007
C16	C	1.345203	-0.190863	-0.000005
C17	C	1.235344	-0.258634	0.000005
C18	C	1.287233	-0.350928	-0.100896
C19	C	1.287274	-0.350909	0.100868
C20	C	1.397137	-0.281291	-0.100989
C21	C	1.397163	-0.281262	0.100865
C22	C	1.449132	-0.373529	-0.000060
C23	C	1.549658	0.176040	0.000001
C24	C	1.675680	0.179434	0.000008
C25	C	1.335839	0.417057	0.000009
C26	C	1.339235	0.558675	0.000015
N27	N	1.342203	0.183915	-0.318829
C28	C	1.342212	0.183916	-0.430166
C29	C	1.342227	0.183904	-0.569844
N30	N	1.342244	0.183887	0.318828
H31	H	1.145019	-0.208680	-0.000096
N32	N	1.458687	-0.240329	0.213861
H33	H	1.527728	-0.197003	0.188155
H34	H	1.483608	-0.318061	0.265570
N35	N	1.225652	-0.391816	-0.213881
H36	H	1.278900	-0.452276	-0.264420
H37	H	1.199336	-0.313867	-0.264692
H38	H	1.240783	-0.381719	0.186180
H39	H	1.443574	-0.250612	-0.186389
H40	H	1.539538	-0.423256	-0.000117
