data_functionalizedCrystal
_audit_creation_method	'MofGen! by Chris Wilmer'
_symmetry_space_group_name_H-M	'P1'
_symmetry_Int_Tables_number	1
_symmetry_cell_setting	triclinic
loop_
_symmetry_equiv_pos_as_xyz
  x,y,z
_cell_length_a	16.625546
_cell_length_b	16.625548
_cell_length_c	19.805399
_cell_angle_alpha	89.981391
_cell_angle_beta	89.972133
_cell_angle_gamma	90.023536
loop_
_atom_site_label
_atom_site_type_symbol
_atom_site_fract_x
_atom_site_fract_y
_atom_site_fract_z
Zn1	Zn	-0.320997	1.232665	-0.382701
Zn2	Zn	-0.070997	1.482665	-0.132701
Zn3	Zn	0.179003	1.732665	0.117299
Zn4	Zn	0.429003	1.982665	0.367299
Zn5	Zn	-0.455835	1.232573	-0.269512
Zn6	Zn	-0.205835	1.482573	-0.019512
Zn7	Zn	0.044165	1.732573	0.230488
Zn8	Zn	0.294165	1.982573	0.480488
Zn9	Zn	-0.321022	1.097831	-0.269527
Zn10	Zn	-0.071022	1.347831	-0.019527
Zn11	Zn	0.178978	1.597831	0.230473
Zn12	Zn	0.428978	1.847831	0.480473
Zn13	Zn	-0.455794	1.097797	-0.382661
Zn14	Zn	-0.205794	1.347797	-0.132661
Zn15	Zn	0.044206	1.597797	0.117339
Zn16	Zn	0.294206	1.847797	0.367339
O17	O	-0.388412	1.165216	-0.326100
O18	O	-0.138412	1.415216	-0.076100
O19	O	0.111588	1.665216	0.173900
O20	O	0.361588	1.915216	0.423900
O21	O	-0.338890	1.345485	-0.367697
O22	O	-0.088890	1.595485	-0.117697
O23	O	0.161110	1.845485	0.132303
O24	O	0.411110	2.095485	0.382303
O25	O	-0.437979	1.214675	-0.174798
O26	O	-0.187979	1.464675	0.075202
O27	O	0.062021	1.714675	0.325202
O28	O	0.312021	1.964675	0.575202
O29	O	-0.208186	1.115770	-0.284563
O30	O	0.041814	1.365770	-0.034563
O31	O	0.291814	1.615770	0.215437
O32	O	0.541814	1.865770	0.465437
O33	O	-0.437955	1.345417	-0.284537
O34	O	-0.187955	1.595417	-0.034537
O35	O	0.062045	1.845417	0.215463
O36	O	0.312045	2.095417	0.465463
O37	O	-0.208168	1.214832	-0.367711
O38	O	0.041832	1.464832	-0.117711
O39	O	0.291832	1.714832	0.132289
O40	O	0.541832	1.964832	0.382289
O41	O	-0.338932	1.115681	-0.174809
O42	O	-0.088932	1.365681	0.075191
O43	O	0.161068	1.615681	0.325191
O44	O	0.411068	1.865681	0.575191
O45	O	-0.338893	0.984994	-0.284524
O46	O	-0.088893	1.234994	-0.034524
O47	O	0.161107	1.484994	0.215476
O48	O	0.411107	1.734994	0.465476
O49	O	-0.437886	1.115712	-0.477383
O50	O	-0.187886	1.365712	-0.227383
O51	O	0.062114	1.615712	0.022617
O52	O	0.312114	1.865712	0.272617
O53	O	-0.437910	0.984969	-0.367643
O54	O	-0.187910	1.234969	-0.117643
O55	O	0.062090	1.484969	0.132357
O56	O	0.312090	1.734969	0.382357
O57	O	-0.338851	1.214799	-0.477412
O58	O	-0.088851	1.464799	-0.227412
O59	O	0.161149	1.714799	0.022588
O60	O	0.411149	1.964799	0.272588
O61	O	-0.568662	1.214642	-0.284498
O62	O	-0.318662	1.464642	-0.034498
O63	O	-0.068662	1.714642	0.215502
O64	O	0.181338	1.964642	0.465502
O65	O	-0.568632	1.115622	-0.367628
O66	O	-0.318632	1.365622	-0.117628
O67	O	-0.068632	1.615622	0.132372
O68	O	0.181368	1.865622	0.382372
C69	C	-0.388401	0.955726	-0.326081
C70	C	-0.138401	1.205726	-0.076081
C71	C	0.111599	1.455726	0.173919
C72	C	0.361599	1.705726	0.423919
C73	C	-0.388415	0.866105	-0.326089
C74	C	-0.138415	1.116105	-0.076089
C75	C	0.111585	1.366105	0.173911
C76	C	0.361585	1.616105	0.423911
C77	C	-0.388420	0.537929	-0.326118
C78	C	-0.138420	0.787929	-0.076118
C79	C	0.111580	1.037929	0.173882
C80	C	0.361580	1.287929	0.423882
C81	C	-0.388417	0.629237	-0.326108
C82	C	-0.138417	0.879237	-0.076108
C83	C	0.111583	1.129237	0.173892
C84	C	0.361583	1.379237	0.423892
C85	C	-0.388418	0.702014	-0.326103
C86	C	-0.138418	0.952014	-0.076103
C87	C	0.111582	1.202014	0.173897
C88	C	0.361582	1.452014	0.423897
C89	C	-0.388414	0.793328	-0.326094
C90	C	-0.138414	1.043328	-0.076094
C91	C	0.111586	1.293328	0.173906
C92	C	0.361586	1.543328	0.423906
C93	C	-0.597903	1.165140	-0.326072
C94	C	-0.347903	1.415140	-0.076072
C95	C	-0.097903	1.665140	0.173928
C96	C	0.152097	1.915140	0.423928
C97	C	-0.687524	1.165181	-0.326082
C98	C	-0.437524	1.415181	-0.076082
C99	C	-0.187524	1.665181	0.173918
C100	C	0.062476	1.915181	0.423918
C101	C	-1.015700	1.165322	-0.326153
C102	C	-0.765700	1.415322	-0.076153
C103	C	-0.515700	1.665322	0.173847
C104	C	-0.265700	1.915322	0.423847
C105	C	-0.924391	1.165280	-0.326135
C106	C	-0.674391	1.415280	-0.076135
C107	C	-0.424391	1.665280	0.173865
C108	C	-0.174391	1.915280	0.423865
C109	C	-0.851615	1.165251	-0.326117
C110	C	-0.601615	1.415251	-0.076117
C111	C	-0.351615	1.665251	0.173883
C112	C	-0.101615	1.915251	0.423883
C113	C	-0.760300	1.165211	-0.326100
C114	C	-0.510300	1.415211	-0.076100
C115	C	-0.260300	1.665211	0.173900
C116	C	-0.010300	1.915211	0.423900
C117	C	-0.178103	1.165315	-0.326144
C118	C	0.071897	1.415315	-0.076144
C119	C	0.321897	1.665315	0.173856
C120	C	0.571897	1.915315	0.423856
C121	C	-0.088482	1.165357	-0.326162
C122	C	0.161518	1.415357	-0.076162
C123	C	0.411518	1.665357	0.173838
C124	C	0.661518	1.915357	0.423838
C125	C	-0.388361	1.165262	-0.502643
C126	C	-0.138361	1.415262	-0.252643
C127	C	0.111639	1.665262	-0.002643
C128	C	0.361639	1.915262	0.247357
C129	C	-0.388340	1.165281	-0.577875
C130	C	-0.138340	1.415281	-0.327875
C131	C	0.111660	1.665281	-0.077875
C132	C	0.361660	1.915281	0.172125
C133	C	-0.388424	1.375525	-0.326120
C134	C	-0.138424	1.625525	-0.076120
C135	C	0.111576	1.875525	0.173880
C136	C	0.361576	2.125525	0.423880
C137	C	-0.388429	1.465146	-0.326128
C138	C	-0.138429	1.715146	-0.076128
C139	C	0.111571	1.965146	0.173872
C140	C	0.361571	2.215146	0.423872
C141	C	-0.336770	1.216877	-0.613236
C142	C	-0.086770	1.466877	-0.363236
C143	C	0.163230	1.716877	-0.113236
C144	C	0.413230	1.966877	0.136764
C145	C	-0.336746	1.216885	-0.683924
C146	C	-0.086746	1.466885	-0.433924
C147	C	0.163254	1.716885	-0.183924
C148	C	0.413254	1.966885	0.066076
C149	C	-0.388297	1.165301	-0.719251
C150	C	-0.138297	1.415301	-0.469251
C151	C	0.111703	1.665301	-0.219251
C152	C	0.361703	1.915301	0.030749
C153	C	-0.439870	1.113700	-0.683885
C154	C	-0.189870	1.363700	-0.433885
C155	C	0.060130	1.613700	-0.183885
C156	C	0.310130	1.863700	0.066115
C157	C	-0.439888	1.113688	-0.613198
C158	C	-0.189888	1.363688	-0.363198
C159	C	0.060112	1.613688	-0.113198
C160	C	0.310112	1.863688	0.136802
C161	C	-0.439795	1.113745	-0.968959
C162	C	-0.189795	1.363745	-0.718959
C163	C	0.060205	1.613745	-0.468959
C164	C	0.310205	1.863745	-0.218959
C165	C	-0.439774	1.113763	-1.039651
C166	C	-0.189774	1.363763	-0.789651
C167	C	0.060226	1.613763	-0.539651
C168	C	0.310226	1.863763	-0.289651
C169	C	-0.336652	1.216942	-1.039685
C170	C	-0.086652	1.466942	-0.789685
C171	C	0.163348	1.716942	-0.539685
C172	C	0.413348	1.966942	-0.289685
C173	C	-0.336671	1.216930	-0.968998
C174	C	-0.086671	1.466930	-0.718998
C175	C	0.163329	1.716930	-0.468998
C176	C	0.413329	1.966930	-0.218998
C177	C	-0.388240	1.165326	-0.933638
C178	C	-0.138240	1.415326	-0.683638
C179	C	0.111760	1.665326	-0.433638
C180	C	0.361760	1.915326	-0.183638
C181	C	-0.388264	1.165317	-0.856990
C182	C	-0.138264	1.415317	-0.606990
C183	C	0.111736	1.665317	-0.356990
C184	C	0.361736	1.915317	-0.106990
C185	C	-0.388278	1.165314	-0.795898
C186	C	-0.138278	1.415314	-0.545898
C187	C	0.111722	1.665314	-0.295898
C188	C	0.361722	1.915314	-0.045898
C189	C	-0.388404	1.165218	-0.150244
C190	C	-0.138404	1.415218	0.099756
C191	C	0.111596	1.665218	0.349756
C192	C	0.361596	1.915218	0.599756
C193	C	-0.388199	1.165355	-0.075013
C194	C	-0.138199	1.415355	0.174987
C195	C	0.111801	1.665355	0.424987
C196	C	0.361801	1.915355	0.674987
H197	H	-0.294793	1.258885	-0.584478
H198	H	-0.044793	1.508885	-0.334478
H199	H	0.205207	1.758885	-0.084478
H200	H	0.455207	2.008885	0.165522
H201	H	-0.481797	1.071738	-0.940178
H202	H	-0.231797	1.321738	-0.690178
H203	H	0.018203	1.571738	-0.440178
H204	H	0.268203	1.821738	-0.190178
H205	H	-0.481754	1.071753	-1.068412
H206	H	-0.231754	1.321753	-0.818412
H207	H	0.018246	1.571753	-0.568412
H208	H	0.268246	1.821753	-0.318412
Cl209	Cl	-0.504675	1.048848	-0.728296
Cl210	Cl	-0.254675	1.298848	-0.478296
Cl211	Cl	-0.004675	1.548848	-0.228296
Cl212	Cl	0.245325	1.798848	0.021704
H213	H	-0.294755	1.258901	-0.712712
H214	H	-0.044755	1.508901	-0.462712
H215	H	0.205245	1.758901	-0.212712
H216	H	0.455245	2.008901	0.037288
Cl217	Cl	-0.504719	1.048820	-0.568744
Cl218	Cl	-0.254719	1.298820	-0.318744
Cl219	Cl	-0.004719	1.548820	-0.068744
Cl220	Cl	0.245281	1.798820	0.181256
Cl221	Cl	-0.271864	1.281784	-0.924591
Cl222	Cl	-0.021864	1.531784	-0.674591
Cl223	Cl	0.228136	1.781784	-0.424591
Cl224	Cl	0.478136	2.031784	-0.174591
H225	H	-0.294660	1.258958	-1.068483
H226	H	-0.044660	1.508958	-0.818483
H227	H	0.205340	1.758958	-0.568483
H228	H	0.455340	2.008958	-0.318483
