data_functionalizedCrystal
_audit_creation_method	'MofGen! by Chris Wilmer'
_symmetry_space_group_name_H-M	'P1'
_symmetry_Int_Tables_number	1
_symmetry_cell_setting	triclinic
loop_
_symmetry_equiv_pos_as_xyz
  x,y,z
_cell_length_a	10.967926
_cell_length_b	9.482900
_cell_length_c	9.065215
_cell_angle_alpha	80.525759
_cell_angle_beta	84.859195
_cell_angle_gamma	87.450100
loop_
_atom_site_label
_atom_site_type_symbol
_atom_site_fract_x
_atom_site_fract_y
_atom_site_fract_z
O1	O	1.613036	-0.283227	0.260586
O2	O	2.113036	0.216773	0.760586
O3	O	1.263858	-0.195743	0.263823
O4	O	1.763858	0.304257	0.763823
O5	O	1.445665	-0.241300	0.047863
O6	O	1.945665	0.258700	0.547863
O7	O	1.431228	-0.237670	0.476546
O8	O	1.931228	0.262330	0.976546
O9	O	1.408738	-0.473839	0.091914
O10	O	1.908738	0.026161	0.591914
O11	O	1.226930	-0.428283	0.307874
O12	O	1.726930	0.071717	0.807874
O13	O	1.576109	-0.515766	0.304637
O14	O	2.076109	-0.015766	0.804637
Cu15	Cu	1.398148	-0.493257	0.310278
Cu16	Cu	1.898148	0.006743	0.810278
Cu17	Cu	1.441819	-0.218252	0.258182
Cu18	Cu	1.941819	0.281748	0.758182
O19	O	1.394301	-0.470210	0.520597
O20	O	1.894301	0.029790	1.020597
C21	C	1.200668	-0.300808	0.282284
C22	C	1.700668	0.199192	0.782284
C23	C	1.067399	-0.267418	0.271647
C24	C	1.567399	0.232582	0.771647
N25	N	1.367441	-0.686683	0.346919
N26	N	1.867441	-0.186683	0.846919
C27	C	0.988854	-0.372995	0.289724
C28	C	1.488854	0.127005	0.789724
C29	C	0.851113	-0.338488	0.278730
C30	C	1.351113	0.161512	0.778730
C31	C	1.432753	-0.775248	0.268981
C32	C	1.932753	-0.275248	0.768981
C33	C	1.407213	-0.936266	0.299479
C34	C	1.907213	-0.436266	0.799479
C35	C	1.639299	-0.410699	0.286175
C36	C	2.139299	0.089301	0.786175
C37	C	1.772569	-0.444079	0.296811
C38	C	2.272569	0.055921	0.796811
C39	C	1.425815	-0.357221	0.014844
C40	C	1.925815	0.142779	0.514844
C41	C	1.421669	-0.356177	-0.149172
C42	C	1.921669	0.143823	0.350828
N43	N	1.472535	-0.024829	0.221530
N44	N	1.972535	0.475171	0.721530
C45	C	1.414152	-0.354286	0.553616
C46	C	1.914152	0.145714	1.053616
C47	C	1.418299	-0.355320	0.717630
C48	C	1.918299	0.144680	1.217630
H49	H	1.023583	-0.488929	0.313332
H50	H	1.523583	0.011071	0.813332
O51	O	0.805137	-0.184904	0.247453
O52	O	1.305137	0.315096	0.747453
H53	H	0.704165	-0.181901	0.243738
H54	H	1.204165	0.318099	0.743738
O55	O	1.268343	-0.744152	0.465231
O56	O	1.768343	-0.244152	0.965231
H57	H	1.289585	-0.720324	0.575846
H58	H	1.789585	-0.220324	1.075846
O59	O	1.021417	-0.113842	0.240370
O60	O	1.521417	0.386158	0.740370
H61	H	0.920444	-0.110839	0.236656
H62	H	1.420444	0.389161	0.736656
O63	O	0.818541	-0.597664	0.328103
O64	O	1.318541	-0.097664	0.828103
H65	H	0.919511	-0.600670	0.331842
H66	H	1.419511	-0.100670	0.831842
O67	O	1.531835	-0.717797	0.150639
O68	O	2.031835	-0.217797	0.650639
H69	H	1.536333	-0.600339	0.145240
H70	H	2.036333	-0.100339	0.645240
H71	H	1.332380	-0.979639	0.388783
H72	H	1.832380	-0.479639	0.888783
H73	H	1.547359	-0.981454	0.132216
H74	H	2.047359	-0.481454	0.632216
