data_functionalizedCrystal
_audit_creation_method	'MofGen! by Chris Wilmer'
_symmetry_space_group_name_H-M	'P1'
_symmetry_Int_Tables_number	1
_symmetry_cell_setting	triclinic
loop_
_symmetry_equiv_pos_as_xyz
  x,y,z
_cell_length_a	14.971506
_cell_length_b	15.625429
_cell_length_c	13.448316
_cell_angle_alpha	71.916250
_cell_angle_beta	89.992937
_cell_angle_gamma	83.942511
loop_
_atom_site_label
_atom_site_type_symbol
_atom_site_fract_x
_atom_site_fract_y
_atom_site_fract_z
O1	O	1.186958	0.117574	-0.125088
O2	O	1.686958	0.617574	0.374912
O3	O	0.926563	0.131625	-0.130154
O4	O	1.426563	0.631625	0.369846
O5	O	1.063715	-0.006631	-0.080302
O6	O	1.563715	0.493369	0.419698
O7	O	1.049805	0.255830	-0.174940
O8	O	1.549805	0.755830	0.325060
O9	O	1.063698	-0.006639	0.085085
O10	O	1.563698	0.493361	0.585085
O11	O	0.926545	0.131616	0.035233
O12	O	1.426545	0.631616	0.535233
O13	O	1.186941	0.117566	0.040299
O14	O	1.686941	0.617566	0.540299
Cu15	Cu	1.056741	0.124590	0.052867
Cu16	Cu	1.556741	0.624590	0.552867
Cu17	Cu	1.056762	0.124600	-0.142722
Cu18	Cu	1.556762	0.624600	0.357278
O19	O	1.049788	0.255821	-0.009553
O20	O	1.549788	0.755821	0.490447
C21	C	0.893230	0.130989	-0.047233
C22	C	1.393230	0.630989	0.452767
C23	C	0.793933	0.129096	-0.046550
C24	C	1.293933	0.629096	0.453450
C25	C	0.355664	0.203095	-0.073243
C26	C	0.855664	0.703095	0.426757
C27	C	0.448965	0.204867	-0.073886
C28	C	0.948965	0.704867	0.426114
C29	C	0.506170	0.123636	-0.044592
C30	C	1.006170	0.623636	0.455408
C31	C	0.470070	0.040629	-0.014663
C32	C	0.970070	0.540629	0.485337
C33	C	0.376771	0.038859	-0.014027
C34	C	0.876771	0.538859	0.485973
C35	C	0.664534	0.044325	-0.015987
C36	C	1.164534	0.544325	0.484013
C37	C	0.757839	0.046095	-0.016620
C38	C	1.257839	0.546095	0.483380
C39	C	0.736727	0.210333	-0.075846
C40	C	1.236727	0.710333	0.424154
C41	C	0.643428	0.208563	-0.075211
C42	C	1.143428	0.708563	0.424789
C43	C	0.607335	0.125555	-0.045279
C44	C	1.107335	0.625555	0.454721
C45	C	1.063076	-0.040224	0.014501
C46	C	1.563076	0.459776	0.514501
C47	C	1.061187	-0.140307	0.050583
C48	C	1.561187	0.359693	0.550583
C49	C	1.054996	-0.469446	-0.281474
C50	C	1.554996	0.030554	0.218526
C51	C	1.053217	-0.563489	-0.247539
C52	C	1.553217	-0.063489	0.252461
C53	C	1.053198	-0.563485	-0.067246
C54	C	1.553198	-0.063485	0.432754
C55	C	1.054982	-0.469440	-0.101166
C56	C	1.554982	0.030560	0.398834
C57	C	1.055880	-0.422428	-0.208281
C58	C	1.555880	0.077572	0.291719
C59	C	1.055866	-0.422423	-0.027973
C60	C	1.555866	0.077577	0.472027
C61	C	1.057644	-0.328386	-0.061890
C62	C	1.557644	0.171614	0.438110
C63	C	1.058539	-0.281367	-0.169001
C64	C	1.558539	0.218633	0.330999
C65	C	1.057658	-0.328392	-0.242199
C66	C	1.557658	0.171608	0.257801
C67	C	1.054961	-0.469436	0.079142
C68	C	1.554961	0.030564	0.579142
C69	C	1.055845	-0.422418	0.152335
C70	C	1.555845	0.077582	0.652335
C71	C	1.057630	-0.328380	0.118418
C72	C	1.557630	0.171620	0.618418
C73	C	1.058525	-0.281361	0.011307
C74	C	1.558525	0.218639	0.511307
C75	C	1.058511	-0.281356	0.191616
C76	C	1.558511	0.218644	0.691616
C77	C	1.060290	-0.187319	0.157698
C78	C	1.560290	0.312681	0.657698
C79	C	1.060304	-0.187325	-0.022611
C80	C	1.560304	0.312675	0.477389
C81	C	1.220274	0.118202	-0.042624
C82	C	1.720274	0.618202	0.457376
C83	C	1.319570	0.120094	-0.043313
C84	C	1.819570	0.620094	0.456687
C85	C	1.050427	0.289414	-0.104358
C86	C	1.550427	0.789414	0.395642
C87	C	1.052316	0.389497	-0.140446
C88	C	1.552316	0.889497	0.359554
N89	N	1.056734	0.124582	0.190434
N90	N	1.556734	0.624582	0.690434
N91	N	1.056777	0.124601	-0.280287
N92	N	1.556777	0.624601	0.219713
C93	C	1.117484	0.063388	0.264540
C94	C	1.617484	0.563388	0.764540
C95	C	1.117489	0.063387	0.368643
C96	C	1.617489	0.563387	0.868643
C97	C	1.056748	0.124586	0.398637
C98	C	1.556748	0.624586	0.898637
C99	C	0.995992	0.185783	0.324523
C100	C	1.495992	0.685783	0.824523
C101	C	0.995983	0.185779	0.220423
C102	C	1.495983	0.685779	0.720423
C103	C	0.996017	0.185789	0.541501
C104	C	1.496017	0.685789	1.041501
C105	C	0.996027	0.185795	0.645608
C106	C	1.496027	0.685795	1.145608
C107	C	1.117523	0.063398	0.689721
C108	C	1.617523	0.563398	1.189721
C109	C	1.117514	0.063394	0.585621
C110	C	1.617514	0.563394	1.085621
C111	C	1.056758	0.124592	0.511514
C112	C	1.556758	0.624592	1.011514
H113	H	0.766118	0.277921	-0.100217
H114	H	1.266118	0.777921	0.399783
H115	H	1.052464	-0.601774	0.019968
H116	H	1.552464	-0.101774	0.519968
F117	F	0.338358	-0.049482	0.017829
F118	F	0.838358	0.450518	0.517829
H119	H	1.057771	-0.319646	0.278829
H120	H	1.557771	0.180354	0.778829
H121	H	1.058397	-0.290113	-0.329422
H122	H	1.558397	0.209887	0.170578
F123	F	1.053066	-0.569519	0.115238
F124	F	1.553066	-0.069519	0.615238
F125	F	1.052272	-0.613525	-0.325451
F126	F	1.552272	-0.113525	0.174549
H127	H	1.055111	-0.460707	0.239549
H128	H	1.555111	0.039293	0.739549
F129	F	1.061234	-0.137277	0.235598
F130	F	1.561234	0.362723	0.735598
H131	H	0.946531	0.235609	0.348951
H132	H	1.446531	0.735609	0.848951
H133	H	1.166950	0.013557	0.240127
H134	H	1.666950	0.513557	0.740127
H135	H	1.166992	0.013568	0.750066
H136	H	1.666992	0.513568	1.250066
H137	H	1.166956	0.013558	0.428982
H138	H	1.666956	0.513558	0.928982
F139	F	1.182166	-0.001735	0.553697
F140	F	1.682166	0.498265	1.053697
H141	H	0.946564	0.235628	0.670022
H142	H	1.446564	0.735628	1.170022
F143	F	0.931321	0.250908	0.141555
F144	F	1.431321	0.750908	0.641555
F145	F	0.294790	0.289553	-0.104416
F146	F	0.794790	0.789553	0.395584
F147	F	0.487374	0.293207	-0.105747
F148	F	0.987374	0.793207	0.394253
H149	H	0.596854	0.274708	-0.099058
H150	H	1.096854	0.774708	0.400942
H151	H	0.635151	-0.023268	0.008381
H152	H	1.135151	0.476732	0.508381
H153	H	0.946540	0.235621	0.481165
H154	H	1.446540	0.735621	0.981165
H155	H	0.804414	-0.020050	0.007226
H156	H	1.304414	0.479950	0.507226
H157	H	0.516654	-0.025510	0.009184
H158	H	1.016654	0.474490	0.509184
H159	H	1.061043	-0.149046	-0.109834
H160	H	1.561043	0.350954	0.390166
H161	H	1.059978	-0.204795	-0.196616
H162	H	1.559978	0.295205	0.303384
H163	H	1.055735	-0.431167	-0.368698
H164	H	1.555735	0.068833	0.131302
