data_functionalizedCrystal
_audit_creation_method	'MofGen! by Chris Wilmer'
_symmetry_space_group_name_H-M	'P1'
_symmetry_Int_Tables_number	1
_symmetry_cell_setting	triclinic
loop_
_symmetry_equiv_pos_as_xyz
  x,y,z
_cell_length_a	19.805407
_cell_length_b	29.839131
_cell_length_c	29.839126
_cell_angle_alpha	90.021998
_cell_angle_beta	90.026958
_cell_angle_gamma	90.041420
loop_
_atom_site_label
_atom_site_type_symbol
_atom_site_fract_x
_atom_site_fract_y
_atom_site_fract_z
Zn1	Zn	1.034714	-0.178897	0.254020
Zn2	Zn	1.534714	0.321103	0.754020
Zn3	Zn	1.034585	-0.254015	0.178890
Zn4	Zn	1.534585	0.245985	0.678890
Zn5	Zn	0.921514	-0.178900	0.178901
Zn6	Zn	1.421514	0.321100	0.678901
Zn7	Zn	0.921463	-0.254001	0.253990
Zn8	Zn	1.421463	0.245999	0.753990
O9	O	0.978069	-0.216453	0.216450
O10	O	1.478069	0.283547	0.716450
O11	O	1.129414	-0.188867	0.244062
O12	O	1.629414	0.311133	0.744062
O13	O	1.019553	-0.244058	0.116024
O14	O	1.519553	0.255942	0.616024
O15	O	0.936606	-0.116032	0.188883
O16	O	1.436606	0.383968	0.688883
O17	O	1.129319	-0.244055	0.188864
O18	O	1.629319	0.255945	0.688864
O19	O	1.019774	-0.116030	0.244072
O20	O	1.519774	0.383970	0.744072
O21	O	0.936481	-0.188871	0.116032
O22	O	1.436481	0.311129	0.616032
O23	O	0.826791	-0.188857	0.188854
O24	O	1.326791	0.311143	0.688854
O25	O	0.936519	-0.244031	0.316861
O26	O	1.436519	0.255969	0.816861
O27	O	0.826753	-0.244034	0.244021
O28	O	1.326753	0.255966	0.744021
O29	O	1.019724	-0.188853	0.316883
O30	O	1.519724	0.311147	0.816883
O31	O	1.019503	-0.316880	0.188835
O32	O	1.519503	0.183120	0.688835
O33	O	0.936393	-0.316870	0.244010
O34	O	1.436393	0.183130	0.744010
C35	C	0.802213	-0.216445	0.216436
C36	C	1.302213	0.283555	0.716436
C37	C	0.726981	-0.216452	0.216440
C38	C	1.226981	0.283548	0.716440
C39	C	0.691635	-0.245225	0.245119
C40	C	1.191635	0.254775	0.745119
C41	C	0.620947	-0.245226	0.245125
C42	C	1.120947	0.254774	0.745125
C43	C	0.585606	-0.216455	0.216450
C44	C	1.085606	0.283545	0.716450
C45	C	0.620957	-0.187678	0.187770
C46	C	1.120957	0.312322	0.687770
C47	C	0.691644	-0.187676	0.187766
C48	C	1.191644	0.312324	0.687766
C49	C	0.335883	-0.187688	0.187784
C50	C	0.835883	0.312312	0.687784
C51	C	0.265191	-0.187694	0.187789
C52	C	0.765191	0.312306	0.687789
C53	C	0.265186	-0.245239	0.245144
C54	C	0.765186	0.254761	0.745144
C55	C	0.335873	-0.245236	0.245140
C56	C	0.835873	0.254764	0.745140
C57	C	0.371218	-0.216458	0.216462
C58	C	0.871218	0.283542	0.716462
C59	C	0.447867	-0.216457	0.216456
C60	C	0.947867	0.283543	0.716456
C61	C	0.508958	-0.216458	0.216453
C62	C	1.008958	0.283542	0.716453
C63	C	0.977947	-0.333176	0.216428
C64	C	1.477947	0.166824	0.716428
C65	C	0.977957	-0.383110	0.216433
C66	C	1.477957	0.116890	0.716433
C67	C	1.021423	-0.692746	0.187762
C68	C	1.521423	-0.192746	0.687762
C69	C	1.021507	-0.880419	0.187780
C70	C	1.521507	-0.380419	0.687780
O71	O	1.058367	-0.904678	0.163385
O72	O	1.558367	-0.404678	0.663385
N73	N	0.978210	-0.903895	0.216484
N74	N	1.478210	-0.403895	0.716484
C75	C	0.934891	-0.880450	0.245188
C76	C	1.434891	-0.380450	0.745188
O77	O	0.898071	-0.904724	0.269607
O78	O	1.398071	-0.404724	0.769607
C79	C	0.934812	-0.692778	0.245173
C80	C	1.434812	-0.192778	0.745173
C81	C	0.978107	-0.669304	0.216463
C82	C	1.478107	-0.169304	0.716463
C83	C	1.064716	-0.669273	0.159055
C84	C	1.564716	-0.169273	0.659055
C85	C	1.064692	-0.622357	0.159049
C86	C	1.564692	-0.122357	0.659049
C87	C	1.021376	-0.598915	0.187750
C88	C	1.521376	-0.098915	0.687750
C89	C	0.978083	-0.622389	0.216457
C90	C	1.478083	-0.122389	0.716457
C91	C	0.891497	-0.669334	0.273879
C92	C	1.391497	-0.169334	0.773879
C93	C	0.891482	-0.622413	0.273873
C94	C	1.391482	-0.122413	0.773873
C95	C	0.934778	-0.598939	0.245164
C96	C	1.434778	-0.098939	0.745164
C97	C	0.934743	-0.552032	0.245152
C98	C	1.434743	-0.052032	0.745152
N99	N	0.978040	-0.528556	0.216448
N100	N	1.478040	-0.028556	0.716448
C101	C	1.021357	-0.551998	0.187747
C102	C	1.521357	-0.051998	0.687747
C103	C	0.934935	-0.978981	0.245194
C104	C	1.434935	-0.478981	0.745194
C105	C	0.934954	-1.025898	0.245197
C106	C	1.434954	-0.525898	0.745197
C107	C	1.021571	-1.025865	0.187789
C108	C	1.521571	-0.525865	0.687789
C109	C	1.021548	-0.978946	0.187784
C110	C	1.521548	-0.478946	0.687784
C111	C	0.978233	-0.955505	0.216489
C112	C	1.478233	-0.455505	0.716489
C113	C	1.021303	-0.453472	0.187737
C114	C	1.521303	0.046528	0.687737
C115	C	1.021273	-0.406552	0.187732
C116	C	1.521273	0.093448	0.687732
C117	C	0.934659	-0.406590	0.245142
C118	C	1.434659	0.093410	0.745142
C119	C	0.934686	-0.453506	0.245145
C120	C	1.434686	0.046494	0.745145
C121	C	0.978013	-0.476945	0.216441
C122	C	1.478013	0.023055	0.716441
O123	O	0.897907	-0.527744	0.269538
O124	O	1.397907	-0.027744	0.769538
O125	O	1.058182	-0.527716	0.163339
O126	O	1.558182	-0.027716	0.663339
C127	C	1.021447	-0.739662	0.187768
C128	C	1.521447	-0.239662	0.687768
C129	C	0.978155	-0.763135	0.216475
C130	C	1.478155	-0.263135	0.716475
C131	C	0.934839	-0.739693	0.245176
C132	C	1.434839	-0.239693	0.745176
C133	C	0.978174	-0.810053	0.216478
C134	C	1.478174	-0.310053	0.716478
C135	C	1.021490	-0.833495	0.187777
C136	C	1.521490	-0.333495	0.687777
C137	C	1.064788	-0.810019	0.159073
C138	C	1.564788	-0.310019	0.659073
C139	C	1.064764	-0.763104	0.159067
C140	C	1.564764	-0.263104	0.659067
C141	C	0.891541	-0.763169	0.273880
C142	C	1.391541	-0.263169	0.773880
C143	C	0.891568	-0.810085	0.273883
C144	C	1.391568	-0.310085	0.773883
C145	C	0.934884	-0.833527	0.245182
C146	C	1.434884	-0.333527	0.745182
C147	C	1.154612	-0.216462	0.216465
C148	C	1.654612	0.283538	0.716465
C149	C	1.229844	-0.216466	0.216471
C150	C	1.729844	0.283534	0.716471
C151	C	0.978130	-0.216440	0.333628
C152	C	1.478130	0.283560	0.833628
C153	C	0.978156	-0.216435	0.383563
C154	C	1.478156	0.283565	0.883563
C155	C	0.978210	-0.099275	0.216482
C156	C	1.478210	0.400725	0.716482
C157	C	0.978270	-0.049340	0.216496
C158	C	1.478270	0.450660	0.716496
C159	C	0.978048	-0.216434	0.099728
C160	C	1.478048	0.283566	0.599728
C161	C	0.978153	-0.216313	0.049793
C162	C	1.478153	0.283687	0.549793
C163	C	1.021402	-0.245111	0.740149
C164	C	1.521402	0.254889	1.240149
C165	C	1.021404	-0.245142	0.552476
C166	C	1.521404	0.254858	1.052476
O167	O	1.058167	-0.269594	0.528210
O168	O	1.558167	0.230406	1.028210
N169	N	0.978153	-0.216413	0.529008
N170	N	1.478153	0.283587	1.029008
C171	C	0.934895	-0.187677	0.552461
C172	C	1.434895	0.312323	1.052461
O173	O	0.898103	-0.163245	0.528194
O174	O	1.398103	0.336755	1.028194
C175	C	0.934891	-0.187648	0.740134
C176	C	1.434891	0.312352	1.240134
C177	C	0.978150	-0.216375	0.763599
C178	C	1.478150	0.283625	1.263599
C179	C	1.064657	-0.273836	0.763614
C180	C	1.564657	0.226164	1.263614
C181	C	1.064659	-0.273826	0.810530
C182	C	1.564659	0.226174	1.310530
C183	C	1.021406	-0.245091	0.833980
C184	C	1.521406	0.254909	1.333980
C185	C	0.978152	-0.216366	0.810515
C186	C	1.478152	0.283634	1.310515
C187	C	0.891631	-0.158914	0.763586
C188	C	1.391631	0.341086	1.263586
C189	C	0.891633	-0.158910	0.810507
C190	C	1.391633	0.341090	1.310507
C191	C	0.934891	-0.187638	0.833973
C192	C	1.434891	0.312362	1.333973
C193	C	0.934901	-0.187620	0.880880
C194	C	1.434901	0.312380	1.380880
N195	N	0.978152	-0.216349	0.904348
N196	N	1.478152	0.283651	1.404348
C197	C	1.021404	-0.245085	0.880898
C198	C	1.521404	0.254915	1.380898
C199	C	0.934901	-0.187693	0.453931
C200	C	1.434901	0.312307	0.953931
C201	C	0.934903	-0.187700	0.407013
C202	C	1.434903	0.312300	0.907013
C203	C	1.021411	-0.245166	0.407031
C204	C	1.521411	0.254834	0.907031
C205	C	1.021412	-0.245157	0.453949
C206	C	1.521412	0.254843	0.953949
C207	C	0.978152	-0.216422	0.477399
C208	C	1.478152	0.283578	0.977399
C209	C	1.021406	-0.245062	0.979424
C210	C	1.521406	0.254938	1.479424
C211	C	1.021406	-0.245048	1.026343
C212	C	1.521406	0.254952	1.526343
C213	C	0.934896	-0.187584	1.026322
C214	C	1.434896	0.312416	1.526322
C215	C	0.934898	-0.187595	0.979406
C216	C	1.434898	0.312405	1.479406
C217	C	0.978155	-0.216338	0.955958
C218	C	1.478155	0.283662	1.455958
O219	O	0.898152	-0.163185	0.905175
O220	O	1.398152	0.336815	1.405175
O221	O	1.058181	-0.269520	0.905173
O222	O	1.558181	0.230480	1.405173
C223	C	1.021401	-0.245121	0.693233
C224	C	1.521401	0.254879	1.193233
C225	C	0.978146	-0.216395	0.669768
C226	C	1.478146	0.283605	1.169768
C227	C	0.934893	-0.187660	0.693218
C228	C	1.434893	0.312340	1.193218
C229	C	0.978148	-0.216402	0.622850
C230	C	1.478148	0.283598	1.122850
C231	C	1.021400	-0.245137	0.599400
C232	C	1.521400	0.254863	1.099400
C233	C	1.064651	-0.273866	0.622868
C234	C	1.564651	0.226134	1.122868
C235	C	1.064653	-0.273856	0.669783
C236	C	1.564653	0.226144	1.169783
C237	C	0.891643	-0.158931	0.669751
C238	C	1.391643	0.341069	1.169751
C239	C	0.891645	-0.158943	0.622835
C240	C	1.391645	0.341057	1.122835
C241	C	0.934897	-0.187678	0.599385
C242	C	1.434897	0.312322	1.099385
H243	H	0.236400	-0.268670	0.268497
H244	H	0.736400	0.231330	0.768497
O245	O	0.586701	-0.159752	0.159853
O246	O	1.086701	0.340248	0.659853
C247	C	0.603914	-0.169511	0.115057
C248	C	1.103914	0.330489	0.615057
H249	H	0.655221	-0.186776	0.114091
H250	H	1.155221	0.313224	0.614091
H251	H	0.606346	-0.137058	0.094973
H252	H	1.106346	0.362942	0.594973
H253	H	0.564096	-0.192588	0.099886
H254	H	1.064096	0.307412	0.599886
H255	H	0.236419	-0.164263	0.164438
H256	H	0.736419	0.335737	0.664438
H257	H	1.099872	-0.297261	0.603767
H258	H	1.599872	0.202739	1.103767
O259	O	0.370107	-0.159720	0.159885
O260	O	0.870107	0.340280	0.659885
C261	C	0.323754	-0.134320	0.134586
C262	C	0.823754	0.365680	0.634586
H263	H	0.273349	-0.152725	0.132997
H264	H	0.773349	0.347275	0.632997
H265	H	0.344153	-0.129470	0.099198
H266	H	0.844153	0.370530	0.599198
H267	H	0.316277	-0.100227	0.151103
H268	H	0.816277	0.399773	0.651103
O269	O	0.586507	-0.273136	0.272969
O270	O	1.086507	0.226864	0.772969
C271	C	0.516539	-0.266977	0.266819
C272	C	1.016539	0.233023	0.766819
H273	H	0.506906	-0.232284	0.252172
H274	H	1.006906	0.267716	0.752172
H275	H	0.489701	-0.270075	0.300466
H276	H	0.989701	0.229925	0.800466
H277	H	0.496430	-0.293589	0.242846
H278	H	0.996430	0.206411	0.742846
H279	H	0.720422	-0.164243	0.164415
H280	H	1.220422	0.335757	0.664415
H281	H	0.899661	-0.959898	0.268570
H282	H	1.399661	-0.459898	0.768570
H283	H	1.056529	-0.387441	0.164352
H284	H	1.556529	0.112559	0.664352
H285	H	1.056585	-0.472551	0.164364
H286	H	1.556585	0.027449	0.664364
O287	O	1.106820	-0.599628	0.131151
O288	O	1.606820	-0.099628	0.631151
C289	C	1.145043	-0.630387	0.105818
C290	C	1.645043	-0.130387	0.605818
H291	H	1.147375	-0.663820	0.124226
H292	H	1.647375	-0.163820	0.624226
H293	H	1.198373	-0.616804	0.101061
H294	H	1.698373	-0.116804	0.601061
H295	H	1.120288	-0.635410	0.071681
H296	H	1.620288	-0.135410	0.571681
O297	O	0.849370	-0.599594	0.301696
O298	O	1.349370	-0.099594	0.801696
C299	C	0.805641	-0.572507	0.276092
C300	C	1.305641	-0.072507	0.776092
H301	H	0.829529	-0.565474	0.242060
H302	H	1.329529	-0.065474	0.742060
H303	H	0.796539	-0.539513	0.294385
H304	H	1.296539	-0.039513	0.794385
H305	H	0.755496	-0.590628	0.271128
H306	H	1.255496	-0.090628	0.771128
H307	H	0.720404	-0.268656	0.268469
H308	H	1.220404	0.231344	0.768469
H309	H	1.099993	-0.688354	0.135683
H310	H	1.599993	-0.188354	0.635683
O311	O	1.063671	-0.956215	0.159883
O312	O	1.563671	-0.456215	0.659883
C313	C	1.101889	-0.986972	0.134544
C314	C	1.601889	-0.486972	0.634544
H315	H	1.104229	-1.020406	0.152951
H316	H	1.604229	-0.520406	0.652951
H317	H	1.155217	-0.973387	0.129781
H318	H	1.655217	-0.473387	0.629781
H319	H	1.077126	-0.991995	0.100410
H320	H	1.577126	-0.491995	0.600410
H321	H	0.899389	-0.387497	0.268509
H322	H	1.399389	0.112503	0.768509
H323	H	0.856404	-0.135522	0.744489
H324	H	1.356404	0.364478	1.244489
H325	H	1.056841	-1.044959	0.164419
H326	H	1.556841	-0.544959	0.664419
H327	H	1.099879	-0.297238	0.744526
H328	H	1.599879	0.202762	1.244526
O329	O	0.849586	-0.131097	0.599994
O330	O	1.349586	0.368903	1.099994
C331	C	0.805827	-0.156682	0.572850
C332	C	1.305827	0.343318	1.072850
H333	H	0.829664	-0.190727	0.565818
H334	H	1.329664	0.309273	1.065818
H335	H	0.796765	-0.138389	0.539859
H336	H	1.296765	0.361611	1.039859
H337	H	0.755668	-0.161618	0.590921
H338	H	1.255668	0.338382	1.090921
O339	O	0.370098	-0.273198	0.273038
O340	O	0.870098	0.226802	0.773038
C341	C	0.323742	-0.298603	0.298346
C342	C	0.823742	0.201397	0.798346
H343	H	0.273372	-0.280207	0.299938
H344	H	0.773372	0.219793	0.799938
H345	H	0.344191	-0.303444	0.333732
H346	H	0.844191	0.196556	0.833732
H347	H	0.316178	-0.332700	0.281834
H348	H	0.816178	0.167300	0.781834
H349	H	0.899692	-1.045007	0.268571
H350	H	1.399692	-0.545007	0.768571
O351	O	0.849420	-0.692059	0.301812
O352	O	1.349420	-0.192059	0.801812
C353	C	0.811182	-0.661298	0.327133
C354	C	1.311182	-0.161298	0.827133
H355	H	0.838896	-0.627836	0.328694
H356	H	1.338896	-0.127836	0.828694
H357	H	0.803947	-0.674835	0.362529
H358	H	1.303947	-0.174835	0.862529
H359	H	0.759783	-0.656350	0.310652
H360	H	1.259783	-0.156350	0.810652
H361	H	1.100019	-0.743995	0.135689
H362	H	1.600019	-0.243995	0.635689
O363	O	1.063336	-0.272976	1.049188
O364	O	1.563336	0.227024	1.549188
C365	C	1.024772	-0.301994	1.076304
C366	C	1.524772	0.198006	1.576304
H367	H	0.973496	-0.286149	1.083321
H368	H	1.473496	0.213851	1.583321
H369	H	1.052340	-0.308006	1.109303
H370	H	1.552340	0.191994	1.609303
H371	H	1.017299	-0.335291	1.058215
H372	H	1.517299	0.164709	1.558215
H373	H	0.899433	-0.472619	0.268524
H374	H	1.399433	0.027381	0.768524
H375	H	1.100055	-0.829114	0.135702
H376	H	1.600055	-0.329114	0.635702
O377	O	0.849485	-0.832815	0.301816
O378	O	1.349485	-0.332815	0.801816
C379	C	0.811240	-0.802057	0.327137
C380	C	1.311240	-0.302057	0.827137
H381	H	0.838948	-0.768593	0.328699
H382	H	1.338948	-0.268593	0.828699
H383	H	0.804007	-0.815596	0.362533
H384	H	1.304007	-0.315596	0.862533
H385	H	0.759842	-0.797113	0.310656
H386	H	1.259842	-0.297113	0.810656
H387	H	1.056634	-0.268464	0.960338
H388	H	1.556634	0.231536	1.460338
H389	H	1.056637	-0.268549	0.473052
H390	H	1.556637	0.231451	0.973052
O391	O	0.849555	-0.740382	0.301808
O392	O	1.349555	-0.240382	0.801808
C393	C	0.888044	-0.713191	0.330843
C394	C	1.388044	-0.213191	0.830843
H395	H	0.941361	-0.727286	0.333655
H396	H	1.441361	-0.227286	0.833655
H397	H	0.863534	-0.712665	0.365400
H398	H	1.363534	-0.212665	0.865400
H399	H	0.890361	-0.677637	0.316953
H400	H	1.390361	-0.177637	0.816953
H401	H	1.099882	-0.297221	0.829631
H402	H	1.599882	0.202779	1.329631
O403	O	1.063360	-0.273067	0.384177
O404	O	1.563360	0.226933	0.884177
C405	C	1.054092	-0.266901	0.337736
C406	C	1.554092	0.233099	0.837736
H407	H	1.001877	-0.252181	0.331320
H408	H	1.501877	0.247819	0.831320
H409	H	1.058632	-0.300554	0.319895
H410	H	1.558632	0.199446	0.819895
H411	H	1.094271	-0.242984	0.324438
H412	H	1.594271	0.257016	0.824438
O413	O	0.892823	-0.159776	0.384291
O414	O	1.392823	0.340224	0.884291
C415	C	0.854661	-0.134407	0.415056
C416	C	1.354661	0.365593	0.915056
H417	H	0.852301	-0.152806	0.448494
H418	H	1.352301	0.347194	0.948494
H419	H	0.801336	-0.129615	0.401487
H420	H	1.301336	0.370385	0.901487
H421	H	0.879486	-0.100287	0.420062
H422	H	1.379486	0.399713	0.920062
H423	H	0.899672	-0.164293	0.473019
H424	H	1.399672	0.335707	0.973019
H425	H	0.856405	-0.135510	0.829597
H426	H	1.356405	0.364490	1.329597
O427	O	0.892815	-0.159676	0.956679
O428	O	1.392815	0.340324	1.456679
C429	C	0.854653	-0.134302	0.987440
C430	C	1.354653	0.365698	1.487440
H431	H	0.852300	-0.152694	1.020882
H432	H	1.352300	0.347306	1.520882
H433	H	0.801326	-0.129517	0.973873
H434	H	1.301326	0.370483	1.473873
H435	H	0.879474	-0.100180	0.992438
H436	H	1.379474	0.399820	1.492438
O437	O	0.892810	-0.159736	1.049127
O438	O	1.392810	0.340264	1.549127
C439	C	0.849084	-0.185313	1.076255
C440	C	1.349084	0.314687	1.576255
H441	H	0.844864	-0.220697	1.062103
H442	H	1.344864	0.279303	1.562103
H443	H	0.797012	-0.169066	1.076781
H444	H	1.297012	0.330934	1.576781
H445	H	0.870016	-0.186858	1.111818
H446	H	1.370016	0.313142	1.611818
H447	H	1.099879	-0.297249	0.688885
H448	H	1.599879	0.202751	1.188885
H449	H	0.856419	-0.135532	0.688839
H450	H	1.356419	0.364468	1.188839
