data_functionalizedCrystal
_audit_creation_method	'MofGen! by Chris Wilmer'
_symmetry_space_group_name_H-M	'P1'
_symmetry_Int_Tables_number	1
_symmetry_cell_setting	triclinic
loop_
_symmetry_equiv_pos_as_xyz
  x,y,z
_cell_length_a	27.732048
_cell_length_b	27.732048
_cell_length_c	11.804365
_cell_angle_alpha	101.725897
_cell_angle_beta	78.257132
_cell_angle_gamma	82.642655
loop_
_atom_site_label
_atom_site_type_symbol
_atom_site_fract_x
_atom_site_fract_y
_atom_site_fract_z
O1	O	0.650751	0.047698	-0.098882
O2	O	1.150751	0.547698	0.401118
O3	O	0.509962	0.056440	-0.098919
O4	O	1.009962	0.556440	0.401081
O5	O	0.584727	-0.018325	-0.098877
O6	O	1.084727	0.481675	0.401123
O7	O	0.575986	0.122463	-0.098924
O8	O	1.075986	0.622463	0.401076
O9	O	0.565044	0.001338	0.099168
O10	O	1.065044	0.501338	0.599168
O11	O	0.490279	0.076103	0.099125
O12	O	0.990279	0.576103	0.599125
O13	O	0.631069	0.067361	0.099163
O14	O	1.131069	0.567361	0.599163
Cu15	Cu	0.558877	0.073528	0.117227
Cu16	Cu	1.058877	0.573528	0.617227
Cu17	Cu	0.582154	0.050274	-0.116983
Cu18	Cu	1.082154	0.550274	0.383017
O19	O	0.556303	0.142127	0.099120
O20	O	1.056303	0.642127	0.599120
C21	C	0.482114	0.066088	0.000098
C22	C	0.982114	0.566088	0.500098
C23	C	0.428460	0.065533	0.000085
C24	C	0.928460	0.565533	0.500085
C25	C	0.089641	0.106241	0.000123
C26	C	0.589641	0.606241	0.500123
C27	C	-0.112019	0.104191	0.000134
C28	C	0.387981	0.604191	0.500134
O29	O	-0.143279	0.141416	0.000173
O30	O	0.356721	0.641416	0.500173
N31	N	-0.131144	0.059857	0.000147
N32	N	0.368856	0.559857	0.500147
C33	C	-0.099851	0.016033	0.000165
C34	C	0.400149	0.516033	0.500165
O35	O	-0.120747	-0.021721	0.000188
O36	O	0.379253	0.478279	0.500188
C37	C	0.101807	0.018085	0.000162
C38	C	0.601807	0.518085	0.500162
C39	C	0.120931	0.062420	0.000137
C40	C	0.620931	0.562420	0.500137
C41	C	0.108765	0.150573	0.000099
C42	C	0.608765	0.650573	0.500099
C43	C	0.159178	0.151084	0.000090
C44	C	0.659178	0.651084	0.500090
C45	C	0.190467	0.107264	0.000104
C46	C	0.690467	0.607264	0.500104
C47	C	0.171344	0.062932	0.000128
C48	C	0.671344	0.562932	0.500128
C49	C	0.133098	-0.025738	0.000189
C50	C	0.633098	0.474262	0.500189
C51	C	0.183516	-0.025221	0.000191
C52	C	0.683516	0.474779	0.500191
C53	C	0.202639	0.019115	0.000166
C54	C	0.702639	0.519115	0.500166
C55	C	0.253046	0.019622	0.000133
C56	C	0.753046	0.519622	0.500133
N57	N	0.272171	0.063956	0.000120
N58	N	0.772171	0.563956	0.500120
C59	C	0.240881	0.107777	0.000106
C60	C	0.740881	0.607777	0.500106
C61	C	-0.205726	0.014959	0.000164
C62	C	0.294274	0.514959	0.500164
C63	C	-0.256140	0.014446	0.000163
C64	C	0.243860	0.514446	0.500163
C65	C	-0.268304	0.102604	0.000134
C66	C	0.231696	0.602604	0.500134
C67	C	-0.217888	0.103116	0.000127
C68	C	0.282112	0.603116	0.500127
C69	C	-0.186600	0.059293	0.000151
C70	C	0.313400	0.559293	0.500151
C71	C	0.346753	0.108847	0.000085
C72	C	0.846753	0.608847	0.500085
C73	C	0.397171	0.109354	0.000071
C74	C	0.897171	0.609354	0.500071
C75	C	0.409331	0.021197	0.000106
C76	C	0.909331	0.521197	0.500106
C77	C	0.358917	0.020689	0.000114
C78	C	0.858917	0.520689	0.500114
C79	C	0.327629	0.064519	0.000107
C80	C	0.827629	0.564519	0.500107
O81	O	0.284332	-0.017581	0.000107
O82	O	0.784332	0.482419	0.500107
O83	O	0.261784	0.145528	0.000109
O84	O	0.761784	0.645528	0.500109
C85	C	0.039229	0.105730	0.000132
C86	C	0.539229	0.605730	0.500132
C87	C	0.020105	0.061397	0.000156
C88	C	0.520105	0.561397	0.500156
C89	C	0.051394	0.017577	0.000170
C90	C	0.551394	0.517577	0.500170
C91	C	-0.030309	0.060884	0.000154
C92	C	0.469691	0.560884	0.500154
C93	C	-0.061599	0.104705	0.000140
C94	C	0.438401	0.604705	0.500140
C95	C	-0.042474	0.149039	0.000127
C96	C	0.457526	0.649039	0.500127
C97	C	0.007939	0.149550	0.000118
C98	C	0.507939	0.649550	0.500118
C99	C	0.032269	-0.026757	0.000183
C100	C	0.532269	0.473243	0.500183
C101	C	-0.018144	-0.027265	0.000191
C102	C	0.481856	0.472735	0.500191
C103	C	-0.049433	0.016556	0.000177
C104	C	0.450567	0.516556	0.500177
C105	C	0.574702	-0.026500	0.000149
C106	C	1.074702	0.473500	0.500149
C107	C	0.574148	-0.080154	0.000159
C108	C	1.074148	0.419846	0.500159
C109	C	0.614857	-0.418974	0.000108
C110	C	1.114857	0.081026	0.500108
C111	C	0.612807	-0.620636	0.000091
C112	C	1.112807	-0.120636	0.500091
O113	O	0.650032	-0.651895	0.000049
O114	O	1.150032	-0.151895	0.500049
N115	N	0.568473	-0.639760	0.000081
N116	N	1.068473	-0.139760	0.500081
C117	C	0.524649	-0.608467	0.000066
C118	C	1.024649	-0.108467	0.500066
O119	O	0.486894	-0.629362	0.000044
O120	O	0.986894	-0.129362	0.500044
C121	C	0.526700	-0.406808	0.000075
C122	C	1.026700	0.093192	0.500075
C123	C	0.571035	-0.387685	0.000098
C124	C	1.071035	0.112315	0.500098
C125	C	0.659189	-0.399851	0.000130
C126	C	1.159189	0.100149	0.500130
C127	C	0.659700	-0.349438	0.000141
C128	C	1.159700	0.150562	0.500141
C129	C	0.615879	-0.318148	0.000130
C130	C	1.115879	0.181852	0.500130
C131	C	0.571547	-0.337272	0.000108
C132	C	1.071547	0.162728	0.500108
C133	C	0.482877	-0.375516	0.000052
C134	C	0.982877	0.124484	0.500052
C135	C	0.483394	-0.325099	0.000051
C136	C	0.983394	0.174901	0.500051
C137	C	0.527730	-0.305976	0.000074
C138	C	1.027730	0.194024	0.500074
C139	C	0.528237	-0.255569	0.000108
C140	C	1.028237	0.244431	0.500108
N141	N	0.572571	-0.236444	0.000119
N142	N	1.072571	0.263556	0.500119
C143	C	0.616392	-0.267734	0.000130
C144	C	1.116392	0.232266	0.500130
C145	C	0.523575	-0.714341	0.000064
C146	C	1.023575	-0.214341	0.500064
C147	C	0.523062	-0.764756	0.000064
C148	C	1.023062	-0.264756	0.500064
C149	C	0.611221	-0.776921	0.000087
C150	C	1.111221	-0.276921	0.500087
C151	C	0.611733	-0.726505	0.000095
C152	C	1.111733	-0.226505	0.500095
C153	C	0.567909	-0.695217	0.000075
C154	C	1.067909	-0.195217	0.500075
C155	C	0.617462	-0.161862	0.000154
C156	C	1.117462	0.338138	0.500154
C157	C	0.617969	-0.111444	0.000169
C158	C	1.117969	0.388556	0.500169
C159	C	0.529811	-0.099284	0.000140
C160	C	1.029811	0.400716	0.500140
C161	C	0.529303	-0.149697	0.000131
C162	C	1.029303	0.350303	0.500131
C163	C	0.573133	-0.180986	0.000133
C164	C	1.073133	0.319014	0.500133
O165	O	0.491033	-0.224282	0.000137
O166	O	0.991033	0.275718	0.500137
O167	O	0.654144	-0.246832	0.000125
O168	O	1.154144	0.253168	0.500125
C169	C	0.614345	-0.469387	0.000098
C170	C	1.114345	0.030613	0.500098
C171	C	0.570013	-0.488511	0.000076
C172	C	1.070013	0.011489	0.500076
C173	C	0.526192	-0.457221	0.000065
C174	C	1.026192	0.042779	0.500065
C175	C	0.569500	-0.538925	0.000076
C176	C	1.069500	-0.038925	0.500076
C177	C	0.613321	-0.570215	0.000087
C178	C	1.113321	-0.070215	0.500087
C179	C	0.657655	-0.551090	0.000098
C180	C	1.157655	-0.051090	0.500098
C181	C	0.658167	-0.500677	0.000108
C182	C	1.158167	-0.000677	0.500108
C183	C	0.481858	-0.476346	0.000055
C184	C	0.981858	0.023654	0.500055
C185	C	0.481350	-0.526759	0.000045
C186	C	0.981350	-0.026759	0.500045
C187	C	0.525171	-0.558049	0.000056
C188	C	1.025171	-0.058049	0.500056
C189	C	0.658917	0.057714	0.000143
C190	C	1.158917	0.557714	0.500143
C191	C	0.712571	0.058267	0.000148
C192	C	1.212571	0.558267	0.500148
C193	C	0.566329	0.150301	0.000092
C194	C	1.066329	0.650301	0.500092
C195	C	0.566883	0.203955	0.000075
C196	C	1.066883	0.703955	0.500075
N197	N	0.542508	0.089883	0.281959
N198	N	1.042508	0.589883	0.781959
N199	N	0.598526	0.033915	-0.281715
N200	N	1.098526	0.533915	0.218285
C201	C	0.637832	-0.005370	0.655962
C202	C	1.137832	0.494630	1.155962
C203	C	0.650214	-0.017744	0.531307
C204	C	1.150214	0.482256	1.031307
C205	C	0.623289	0.009161	0.468964
C206	C	1.123289	0.509161	0.968964
C207	C	0.583979	0.048444	0.531287
C208	C	1.083979	0.548444	1.031287
C209	C	0.571598	0.060823	0.655954
C210	C	1.071598	0.560823	1.155954
C211	C	0.557055	0.075354	0.468956
C212	C	1.057055	0.575354	0.968956
C213	C	0.517745	0.114636	0.531280
C214	C	1.017745	0.614636	1.031280
C215	C	0.505367	0.127013	0.655935
C216	C	1.005367	0.627013	1.155935
C217	C	0.532292	0.100107	0.718278
C218	C	1.032292	0.600107	1.218278
C219	C	0.569436	0.062975	0.344290
C220	C	1.069436	0.562975	0.844290
C221	C	0.503202	0.129167	0.344282
C222	C	1.003202	0.629167	0.844282
C223	C	0.490820	0.141542	0.468937
C224	C	0.990820	0.641542	0.968937
H225	H	-0.033708	-0.063372	0.000202
H226	H	0.466292	0.436628	0.500202
C227	C	0.190472	-0.112414	0.000221
C228	C	0.690472	0.387586	0.500221
C229	C	0.217908	-0.073395	0.000205
C230	C	0.717908	0.426605	0.500205
H231	H	0.211705	-0.142154	0.000219
H232	H	0.711705	0.357846	0.500219
H233	H	0.163698	-0.103922	0.069284
H234	H	0.663698	0.396078	0.569284
H235	H	0.177412	-0.117632	-0.068842
H236	H	0.677412	0.382368	0.431158
H237	H	0.230965	-0.068175	0.069273
H238	H	0.730965	0.431825	0.569273
H239	H	0.244690	-0.081888	-0.068865
H240	H	0.744690	0.418112	0.431135
H241	H	0.487887	-0.688870	0.000047
H242	H	0.987887	-0.188870	0.500047
H243	H	0.646902	-0.802406	0.000096
H244	H	1.146902	-0.302406	0.500096
C245	C	0.319386	-0.041141	-0.101666
C246	C	0.819386	0.458859	0.398334
C247	C	0.337894	-0.028045	0.000130
C248	C	0.837894	0.471955	0.500130
H249	H	0.306411	-0.071228	-0.101648
H250	H	0.806411	0.428772	0.398352
H251	H	0.293536	-0.015117	-0.101658
H252	H	0.793536	0.484883	0.398342
H253	H	0.345662	-0.045966	-0.170728
H254	H	0.845662	0.454034	0.329272
H255	H	0.311617	-0.023216	0.069193
H256	H	0.811617	0.476784	0.569193
H257	H	0.363746	-0.054074	0.000134
H258	H	0.863746	0.445926	0.500134
H259	H	0.458813	0.173527	0.519696
H260	H	0.958813	0.673527	1.019696
H261	H	0.321282	0.144538	0.000084
H262	H	0.821282	0.644538	0.500084
H263	H	0.446775	-0.391078	0.000026
H264	H	0.946775	0.108922	0.500026
H265	H	0.654074	-0.095877	0.000191
H266	H	1.154074	0.404123	0.500191
H267	H	0.659754	-0.027270	0.706730
H268	H	1.159754	0.472730	1.206730
H269	H	0.481278	0.151077	0.293523
H270	H	0.981278	0.651077	0.793523
C271	C	0.677081	-0.044607	0.290403
C272	C	1.177081	0.455393	0.790403
C273	C	0.636894	-0.004444	0.331941
C274	C	1.136894	0.495556	0.831941
H275	H	0.685478	-0.053010	0.205807
H276	H	1.185478	0.446990	0.705807
H277	H	0.705121	-0.035399	0.318585
H278	H	1.205121	0.464601	0.818585
H279	H	0.667894	-0.072653	0.318631
H280	H	1.167894	0.427347	0.818631
H281	H	0.646082	0.023603	0.303720
H282	H	1.146082	0.523603	0.803720
H283	H	0.608849	-0.013650	0.303746
H284	H	1.108849	0.486350	0.803746
C285	C	0.441395	-0.422697	-0.101756
C286	C	0.941395	0.077303	0.398244
C287	C	0.433684	-0.441958	0.000046
C288	C	0.933684	0.058042	0.500046
H289	H	0.411651	-0.401471	-0.101759
H290	H	0.911651	0.098529	0.398241
H291	H	0.467863	-0.404087	-0.101737
H292	H	0.967863	0.095913	0.398263
H293	H	0.449894	-0.449473	-0.170815
H294	H	0.949894	0.050527	0.329185
H295	H	0.425189	-0.415182	0.069105
H296	H	0.925189	0.084818	0.569105
H297	H	0.407208	-0.460568	0.000037
H298	H	0.907208	0.039432	0.500037
C299	C	0.380074	0.196446	0.000050
C300	C	0.880074	0.696446	0.500050
C301	C	0.418189	0.158092	0.000052
C302	C	0.918189	0.658092	0.500052
H303	H	0.393049	0.226534	0.000048
H304	H	0.893049	0.726534	0.500048
H305	H	0.367524	0.187556	-0.069005
H306	H	0.867524	0.687556	0.430995
H307	H	0.353803	0.201264	0.069121
H308	H	0.853803	0.701264	0.569121
H309	H	0.444458	0.153271	-0.069024
H310	H	0.944458	0.653271	0.430976
H311	H	0.430747	0.166984	0.069114
H312	H	0.930747	0.666984	0.569114
H313	H	0.682220	-0.049727	0.480568
H314	H	1.182220	0.450273	0.980568
C315	C	0.142072	0.238172	0.000082
C316	C	0.642072	0.738172	0.500082
C317	C	0.180191	0.199822	0.000084
C318	C	0.680191	0.699822	0.500084
H319	H	0.155043	0.268263	0.000090
H320	H	0.655043	0.768263	0.500090
H321	H	0.129526	0.229282	-0.068978
H322	H	0.629526	0.729282	0.431022
H323	H	0.115800	0.242985	0.069148
H324	H	0.615800	0.742985	0.569148
H325	H	0.206462	0.195007	-0.068987
H326	H	0.706462	0.695007	0.431013
H327	H	0.192746	0.208714	0.069151
H328	H	0.692746	0.708714	0.569151
H329	H	0.083293	0.186260	0.000092
H330	H	0.583293	0.686260	0.500092
C331	C	0.719890	-0.473700	-0.101663
C332	C	1.219890	0.026300	0.398337
C333	C	0.707364	-0.434238	0.000142
C334	C	1.207364	0.065762	0.500142
H335	H	0.749635	-0.494924	-0.101651
H336	H	1.249635	0.005076	0.398349
H337	H	0.693421	-0.492310	-0.101664
H338	H	1.193421	0.007690	0.398336
H339	H	0.725117	-0.460628	-0.170719
H340	H	1.225117	0.039372	0.329281
H341	H	0.702133	-0.447310	0.069199
H342	H	1.202133	0.052690	0.569199
H343	H	0.733838	-0.415626	0.000154
H344	H	1.233838	0.084374	0.500154
H345	H	0.522209	0.110181	0.819782
H346	H	1.022209	0.610181	1.319782
H347	H	0.473362	0.159002	0.706679
H348	H	0.973362	0.659002	1.206679
H349	H	0.486958	-0.780319	0.000066
H350	H	0.986958	-0.280319	0.500066
H351	H	0.023504	0.185653	0.000099
H352	H	0.523504	0.685653	0.500099
C353	C	-0.234988	0.190203	0.000100
C354	C	0.265012	0.690203	0.500100
C355	C	-0.196872	0.151852	0.000113
C356	C	0.303128	0.651852	0.500113
H357	H	-0.222015	0.220292	0.000101
H358	H	0.277985	0.720292	0.500101
H359	H	-0.247534	0.181311	-0.068961
H360	H	0.252466	0.681311	0.431039
H361	H	-0.261261	0.195020	0.069165
H362	H	0.238739	0.695020	0.569165
H363	H	-0.170600	0.147032	-0.068956
H364	H	0.329400	0.647032	0.431044
H365	H	-0.184319	0.160746	0.069181
H366	H	0.315681	0.660746	0.569181
H367	H	-0.293789	0.138285	0.000123
H368	H	0.206211	0.638285	0.500123
C369	C	0.492016	-0.017150	0.000131
C370	C	0.992016	0.482850	0.500131
C371	C	0.443729	-0.026968	0.000131
C372	C	0.943729	0.473032	0.500131
H373	H	0.513251	-0.046885	0.000161
H374	H	1.013251	0.453115	0.500161
H375	H	0.504636	-0.005819	-0.068941
H376	H	1.004636	0.494181	0.431059
H377	H	0.490909	0.007908	0.069185
H378	H	0.990909	0.507908	0.569185
H379	H	0.444836	-0.052024	-0.068928
H380	H	0.944836	0.447976	0.431072
H381	H	0.431107	-0.038306	0.069210
H382	H	0.931107	0.461694	0.569210
H383	H	0.695803	-0.333873	0.000155
H384	H	1.195803	0.166127	0.500155
C385	C	-0.125162	0.187390	0.000131
C386	C	0.374838	0.687390	0.500131
C387	C	-0.076874	0.197208	0.000116
C388	C	0.423126	0.697208	0.500116
H389	H	-0.146401	0.217128	0.000136
H390	H	0.353599	0.717128	0.500136
H391	H	-0.124060	0.162342	-0.068922
H392	H	0.375940	0.662342	0.431078
H393	H	-0.137775	0.176049	0.069204
H394	H	0.362225	0.676049	0.569204
H395	H	-0.064260	0.208546	-0.068961
H396	H	0.435740	0.708546	0.431039
H397	H	-0.077974	0.222264	0.069176
H398	H	0.422026	0.722264	0.569176
H399	H	0.493198	-0.165264	0.000145
H400	H	0.993198	0.334736	0.500145
H401	H	0.447707	-0.299626	0.000033
H402	H	0.947707	0.200374	0.500033
H403	H	0.445243	-0.542323	0.000037
H404	H	0.945243	-0.042323	0.500037
H405	H	0.694269	-0.485112	0.000127
H406	H	1.194269	0.014888	0.500127
H407	H	-0.271703	-0.021658	0.000164
H408	H	0.228297	0.478342	0.500164
C409	C	0.039220	-0.113947	0.000199
C410	C	0.539220	0.386053	0.500199
C411	C	0.066659	-0.074930	0.000188
C412	C	0.566659	0.425070	0.500188
H413	H	0.060452	-0.143690	0.000189
H414	H	0.560452	0.356310	0.500189
H415	H	0.012447	-0.105456	0.069262
H416	H	0.512447	0.394544	0.569262
H417	H	0.026159	-0.119161	-0.068863
H418	H	0.526159	0.380839	0.431137
H419	H	0.079717	-0.069714	0.069255
H420	H	0.579717	0.430286	0.569255
H421	H	0.093441	-0.083423	-0.068882
H422	H	0.593441	0.416577	0.431118
H423	H	0.117538	-0.061841	0.000210
H424	H	0.617538	0.438159	0.500210
C425	C	-0.198775	-0.072234	0.000180
C426	C	0.301225	0.427766	0.500180
C427	C	-0.171336	-0.033217	0.000177
C428	C	0.328664	0.466783	0.500177
H429	H	-0.177544	-0.101976	0.000177
H430	H	0.322456	0.398024	0.500177
H431	H	-0.225550	-0.063742	0.069239
H432	H	0.274450	0.436258	0.569239
H433	H	-0.211833	-0.077448	-0.068887
H434	H	0.288167	0.422552	0.431113
H435	H	-0.158282	-0.028000	0.069249
H436	H	0.341718	0.472000	0.569249
H437	H	-0.144552	-0.041710	-0.068889
H438	H	0.355448	0.458290	0.431111
H439	H	0.653153	-0.187333	0.000151
H440	H	1.153153	0.312667	0.500151
H441	H	0.693335	-0.576574	0.000112
H442	H	1.193335	-0.076574	0.500112
H443	H	0.601442	0.030991	0.293557
H444	H	1.101442	0.530991	0.793557
C445	C	0.698821	-0.743606	0.000110
C446	C	1.198821	-0.243606	0.500110
C447	C	0.660469	-0.705489	0.000102
C448	C	1.160469	-0.205489	0.500102
H449	H	0.728910	-0.730634	0.000103
H450	H	1.228910	-0.230634	0.500103
H451	H	0.689923	-0.756159	0.069172
H452	H	1.189923	-0.256159	0.569172
H453	H	0.703643	-0.769871	-0.068954
H454	H	1.203643	-0.269871	0.431046
H455	H	0.655644	-0.679225	0.069171
H456	H	1.155644	-0.179225	0.569171
H457	H	0.669369	-0.692929	-0.068967
H458	H	1.169369	-0.192929	0.431033
C459	C	0.442619	-0.092312	0.000099
C460	C	0.942619	0.407688	0.500099
C461	C	0.481645	-0.064885	0.000120
C462	C	0.981645	0.435115	0.500120
H463	H	0.412884	-0.071074	0.000086
H464	H	0.912884	0.428926	0.500086
H465	H	0.451118	-0.119081	-0.068958
H466	H	0.951118	0.380919	0.431042
H467	H	0.437385	-0.105375	0.069168
H468	H	0.937385	0.394625	0.569168
H469	H	0.486882	-0.051825	-0.068953
H470	H	0.986882	0.448175	0.431047
H471	H	0.473145	-0.038107	0.069184
H472	H	0.973145	0.461893	0.569184
