data_functionalizedCrystal
_audit_creation_method	'MofGen! by Chris Wilmer'
_symmetry_space_group_name_H-M	'P1'
_symmetry_Int_Tables_number	1
_symmetry_cell_setting	triclinic
loop_
_symmetry_equiv_pos_as_xyz
  x,y,z
_cell_length_a	19.805407
_cell_length_b	16.959453
_cell_length_c	19.805399
_cell_angle_alpha	89.973285
_cell_angle_beta	89.975799
_cell_angle_gamma	90.019234
loop_
_atom_site_label
_atom_site_type_symbol
_atom_site_fract_x
_atom_site_fract_y
_atom_site_fract_z
Zn1	Zn	1.034766	-0.314716	-0.382807
Zn2	Zn	1.534766	0.185284	0.117193
Zn3	Zn	1.034693	-0.446898	-0.269621
Zn4	Zn	1.534693	0.053102	0.230379
Zn5	Zn	0.921581	-0.314736	-0.269623
Zn6	Zn	1.421581	0.185264	0.230377
Zn7	Zn	0.921557	-0.446854	-0.382758
Zn8	Zn	1.421557	0.053146	0.117242
O9	O	0.978149	-0.380801	-0.326202
O10	O	1.478149	0.119199	0.173798
O11	O	1.129473	-0.332260	-0.367812
O12	O	1.629473	0.167740	0.132188
O13	O	1.019668	-0.429393	-0.174904
O14	O	1.519668	0.070607	0.325096
O15	O	0.936635	-0.204122	-0.284658
O16	O	1.436635	0.295878	0.215342
O17	O	1.129420	-0.429374	-0.284655
O18	O	1.629420	0.070626	0.215345
O19	O	1.019792	-0.204107	-0.367814
O20	O	1.519792	0.295893	0.132186
O21	O	0.936565	-0.332294	-0.174906
O22	O	1.436565	0.167706	0.325094
O23	O	0.826861	-0.332252	-0.284611
O24	O	1.326861	0.167748	0.215389
O25	O	0.936595	-0.429299	-0.477481
O26	O	1.436595	0.070701	0.022519
O27	O	0.826843	-0.429319	-0.367731
O28	O	1.326843	0.070681	0.132269
O29	O	1.019769	-0.332217	-0.477517
O30	O	1.519769	0.167783	0.022483
O31	O	1.019645	-0.557503	-0.284607
O32	O	1.519645	-0.057503	0.215393
O33	O	0.936524	-0.557471	-0.367729
O34	O	1.436524	-0.057471	0.132271
C35	C	0.802293	-0.380783	-0.326166
C36	C	1.302293	0.119217	0.173834
C37	C	0.727061	-0.380795	-0.326167
C38	C	1.227061	0.119205	0.173833
C39	C	0.265279	-0.431439	-0.369458
C40	C	0.765279	0.068561	0.130542
C41	C	0.335967	-0.431437	-0.369444
C42	C	0.835967	0.068563	0.130556
C43	C	0.371299	-0.380820	-0.326229
C44	C	0.871299	0.119180	0.173771
C45	C	0.335940	-0.330206	-0.283020
C46	C	0.835940	0.169794	0.216980
C47	C	0.265252	-0.330212	-0.283032
C48	C	0.765252	0.169788	0.216968
C49	C	0.621013	-0.330182	-0.282972
C50	C	1.121013	0.169818	0.217028
C51	C	0.691705	-0.330179	-0.282966
C52	C	1.191705	0.169821	0.217034
C53	C	0.691728	-0.431407	-0.369385
C54	C	1.191728	0.068593	0.130615
C55	C	0.621041	-0.431413	-0.369396
C56	C	1.121041	0.068587	0.130604
C57	C	0.585687	-0.380803	-0.326186
C58	C	1.085687	0.119197	0.173814
C59	C	0.509038	-0.380806	-0.326201
C60	C	1.009038	0.119194	0.173799
C61	C	0.447947	-0.380812	-0.326217
C62	C	0.947947	0.119188	0.173783
C63	C	0.978093	-0.586167	-0.326177
C64	C	1.478093	-0.086167	0.173823
C65	C	0.978131	-0.674024	-0.326190
C66	C	1.478131	-0.174024	0.173810
C67	C	1.021504	-1.045433	-0.369583
C68	C	1.521504	-0.545433	0.130417
C69	C	0.934983	-1.045566	-0.282922
C70	C	1.434983	-0.545566	0.217078
C71	C	0.934958	-0.963020	-0.282906
C72	C	1.434958	-0.463020	0.217094
C73	C	0.978206	-0.921677	-0.326231
C74	C	1.478206	-0.421677	0.173769
C75	C	1.021479	-0.962880	-0.369571
C76	C	1.521479	-0.462880	0.130429
C77	C	0.891681	-0.921811	-0.239572
C78	C	1.391681	-0.421811	0.260428
C79	C	0.891653	-0.839260	-0.239555
C80	C	1.391653	-0.339260	0.260445
C81	C	0.934905	-0.797915	-0.282877
C82	C	1.434905	-0.297915	0.217123
C83	C	0.978181	-0.839123	-0.326218
C84	C	1.478181	-0.339123	0.173782
C85	C	1.021429	-0.797780	-0.369542
C86	C	1.521429	-0.297780	0.130458
C87	C	1.064708	-0.838987	-0.412881
C88	C	1.564708	-0.338987	0.087119
C89	C	1.064731	-0.921535	-0.412892
C90	C	1.564731	-0.421535	0.087108
C91	C	0.934882	-0.715367	-0.282865
C92	C	1.434882	-0.215367	0.217135
C93	C	1.021404	-0.715227	-0.369530
C94	C	1.521404	-0.215227	0.130470
C95	C	1.154692	-0.380819	-0.326239
C96	C	1.654692	0.119181	0.173761
C97	C	1.229924	-0.380827	-0.326255
C98	C	1.729924	0.119173	0.173745
C99	C	0.978187	-0.380751	-0.502745
C100	C	1.478187	0.119249	-0.002745
C101	C	0.978203	-0.380730	-0.577977
C102	C	1.478203	0.119270	-0.077977
C103	C	0.978224	-0.174633	-0.326242
C104	C	1.478224	0.325367	0.173758
C105	C	0.978256	-0.086776	-0.326259
C106	C	1.478256	0.413224	0.173741
C107	C	1.021513	-0.330177	-0.613341
C108	C	1.521513	0.169823	-0.113341
C109	C	1.021520	-0.330154	-0.684030
C110	C	1.521520	0.169846	-0.184030
C111	C	0.978220	-0.380689	-0.719353
C112	C	1.478220	0.119311	-0.219353
C113	C	0.934906	-0.431244	-0.683984
C114	C	1.434906	0.068756	-0.183984
C115	C	0.934896	-0.431262	-0.613297
C116	C	1.434896	0.068738	-0.113297
C117	C	0.934944	-0.431170	-0.969057
C118	C	1.434944	0.068830	-0.469057
C119	C	0.934958	-0.431150	-1.039749
C120	C	1.434958	0.068850	-0.539749
C121	C	1.021568	-0.330062	-1.039790
C122	C	1.521568	0.169938	-0.539790
C123	C	1.021558	-0.330080	-0.969103
C124	C	1.521558	0.169920	-0.469103
C125	C	0.978241	-0.380632	-0.933740
C126	C	1.478241	0.119368	-0.433740
C127	C	0.978234	-0.380656	-0.857092
C128	C	1.478234	0.119344	-0.357092
C129	C	0.978231	-0.380670	-0.796000
C130	C	1.478231	0.119330	-0.296000
C131	C	0.978150	-0.380794	-0.150346
C132	C	1.478150	0.119206	0.349654
C133	C	0.978265	-0.380592	-0.075115
C134	C	1.478265	0.119408	0.424885
H135	H	0.364713	-0.288996	-0.247830
H136	H	0.864713	0.211004	0.252170
H137	H	0.899642	-0.681820	-0.247583
H138	H	1.399642	-0.181820	0.252417
C139	C	1.112269	-0.793508	-0.460546
C140	C	1.612269	-0.293508	0.039454
H141	H	1.138043	-0.829867	-0.486364
H142	H	1.638043	-0.329867	0.013636
H143	H	1.141764	-0.761290	-0.434687
H144	H	1.641764	-0.261290	0.065313
H145	H	1.086334	-0.761315	-0.490005
H146	H	1.586334	-0.261315	0.009995
H147	H	0.592236	-0.288975	-0.247785
H148	H	1.092236	0.211025	0.252215
C149	C	0.887416	-1.091040	-0.235267
C150	C	1.387416	-0.591040	0.264733
H151	H	0.893632	-1.146105	-0.241479
H152	H	1.393632	-0.646105	0.258521
H153	H	0.841928	-1.077541	-0.245118
H154	H	1.341928	-0.577541	0.254882
H155	H	0.897354	-1.077540	-0.189796
H156	H	1.397354	-0.577540	0.310204
C157	C	0.226362	-0.274537	-0.235510
C158	C	0.726362	0.225463	0.264490
H159	H	0.257527	-0.244384	-0.209775
H160	H	0.757527	0.255616	0.290225
H161	H	0.198762	-0.304729	-0.205978
H162	H	0.698762	0.195271	0.294022
H163	H	0.198811	-0.240135	-0.261463
H164	H	0.698811	0.259865	0.238537
H165	H	0.720521	-0.472619	-0.404568
H166	H	1.220521	0.027381	0.095432
C167	C	0.730573	-0.274501	-0.235425
C168	C	1.230573	0.225499	0.264575
H169	H	0.777734	-0.281742	-0.241615
H170	H	1.277734	0.218258	0.258385
H171	H	0.718963	-0.286003	-0.189932
H172	H	1.218963	0.213997	0.310068
H173	H	0.719006	-0.221405	-0.245414
H174	H	1.219006	0.278595	0.254586
C175	C	0.374858	-0.487133	-0.416946
C176	C	0.874858	0.012867	0.083054
H177	H	0.422017	-0.479896	-0.410739
H178	H	0.922017	0.020104	0.089261
H179	H	0.363316	-0.475658	-0.462450
H180	H	0.863316	0.024342	0.037550
H181	H	0.363241	-0.540221	-0.406938
H182	H	0.863241	-0.040221	0.093062
C183	C	0.887257	-0.486869	-0.574393
C184	C	1.387257	0.013131	-0.074393
H185	H	0.893447	-0.479637	-0.527236
H186	H	1.393447	0.020363	-0.027236
H187	H	0.897141	-0.539977	-0.585967
H188	H	1.397141	-0.039977	-0.085967
H189	H	0.841784	-0.475285	-0.585969
H190	H	1.341784	0.024715	-0.085969
C191	C	1.068971	-0.669756	-0.417194
C192	C	1.568971	-0.169756	0.082806
H193	H	1.094743	-0.706121	-0.443008
H194	H	1.594743	-0.206121	0.056992
H195	H	1.098468	-0.637542	-0.391334
H196	H	1.598468	-0.137542	0.108666
H197	H	1.043042	-0.637560	-0.446656
H198	H	1.543042	-0.137560	0.053344
H199	H	1.056836	-0.288897	-1.068591
H200	H	1.556836	0.211103	-0.568591
H201	H	1.099966	-0.955093	-0.448177
H202	H	1.599966	-0.455093	0.051823
C203	C	1.069141	-0.274584	-0.574492
C204	C	1.569141	0.225416	-0.074492
H205	H	1.094930	-0.244468	-0.605680
H206	H	1.594930	0.255532	-0.105680
H207	H	1.098619	-0.304825	-0.546916
H208	H	1.598619	0.195175	-0.046916
H209	H	1.043250	-0.240147	-0.546919
H210	H	1.543250	0.259853	-0.046919
H211	H	1.056789	-0.288991	-0.712820
H212	H	1.556789	0.211009	-0.212820
H213	H	0.592276	-0.472628	-0.404589
H214	H	1.092276	0.027372	0.095411
H215	H	1.056743	-1.078987	-0.404867
H216	H	1.556743	-0.578987	0.095133
H217	H	0.856469	-0.955478	-0.204301
H218	H	1.356469	-0.455478	0.295699
C219	C	0.844056	-0.793940	-0.191879
C220	C	1.344056	-0.293940	0.308121
H221	H	0.818307	-0.830386	-0.166076
H222	H	1.318307	-0.330386	0.333924
H223	H	0.814539	-0.761736	-0.217730
H224	H	1.314539	-0.261736	0.282270
H225	H	0.869964	-0.761745	-0.162406
H226	H	1.369964	-0.261745	0.337594
C227	C	1.069186	-0.274490	-0.930251
C228	C	1.569186	0.225510	-0.430251
H229	H	1.094976	-0.244373	-0.961437
H230	H	1.594976	0.255627	-0.461437
H231	H	1.098662	-0.304733	-0.902676
H232	H	1.598662	0.195267	-0.402676
H233	H	1.043295	-0.240053	-0.902679
H234	H	1.543295	0.259947	-0.402679
C235	C	0.887321	-0.486734	-1.078604
C236	C	1.387321	0.013266	-0.578604
H237	H	0.861517	-0.516839	-1.047420
H238	H	1.361517	-0.016839	-0.547420
H239	H	0.913202	-0.521172	-1.106179
H240	H	1.413202	-0.021172	-0.606179
H241	H	0.857848	-0.456476	-1.106177
H242	H	1.357848	0.043524	-0.606177
H243	H	0.899682	-0.472344	-0.940273
H244	H	1.399682	0.027656	-0.440273
H245	H	0.236516	-0.472653	-0.404653
H246	H	0.736516	0.027347	0.095347
C247	C	0.887277	-0.486832	-0.722837
C248	C	1.387277	0.013168	-0.222837
H249	H	0.893490	-0.479587	-0.770001
H250	H	1.393490	0.020413	-0.270001
H251	H	0.841802	-0.475264	-0.711244
H252	H	1.341802	0.024736	-0.211244
H253	H	0.897167	-0.539947	-0.711243
H254	H	1.397167	-0.039947	-0.211243
