data_functionalizedCrystal
_audit_creation_method	'MofGen! by Chris Wilmer'
_symmetry_space_group_name_H-M	'P1'
_symmetry_Int_Tables_number	1
_symmetry_cell_setting	triclinic
loop_
_symmetry_equiv_pos_as_xyz
  x,y,z
_cell_length_a	19.377372
_cell_length_b	12.970454
_cell_length_c	12.970454
_cell_angle_alpha	59.999776
_cell_angle_beta	89.999359
_cell_angle_gamma	72.113047
loop_
_atom_site_label
_atom_site_type_symbol
_atom_site_fract_x
_atom_site_fract_y
_atom_site_fract_z
Zr1	Zr	0.580563	1.435477	-0.288790
O2	O	0.484337	1.599690	-0.427975
O3	O	0.610062	1.235983	-0.246121
O4	O	0.610063	1.451073	-0.461212
O5	O	0.484335	1.384600	-0.043217
O6	O	0.709238	1.503509	-0.487431
O7	O	0.484336	1.384600	-0.212884
O8	O	0.709236	1.118752	-0.102673
O9	O	0.484337	1.769357	-0.427976
O10	O	0.696656	1.370237	-0.247492
O11	O	0.622642	1.331105	-0.101304
O12	O	0.622643	1.584346	-0.354546
O13	O	0.548630	1.545214	-0.208359
Zr14	Zr	0.738735	1.519107	-0.060007
Zr15	Zr	0.738736	1.519106	-0.330606
Zr16	Zr	0.580562	1.435478	-0.018191
Zr17	Zr	0.580563	1.706077	-0.288791
Zr18	Zr	0.738735	1.248507	-0.060006
O19	O	0.709236	1.718601	-0.102676
O20	O	0.709238	1.718600	-0.487433
O21	O	0.484335	1.599691	-0.043218
O22	O	0.834961	1.354894	0.079178
O23	O	0.834963	1.354893	-0.305579
O24	O	0.610060	1.235984	0.138635
O25	O	0.834963	1.569984	-0.305580
O26	O	0.709235	1.503511	0.112415
O27	O	0.610060	1.451075	0.138634
O28	O	0.834962	1.569984	-0.135913
O29	O	0.610063	1.835831	-0.461214
O30	O	0.709235	1.118753	0.112417
O31	O	0.834961	1.185227	0.079179
O32	O	0.834962	1.185226	-0.135911
O33	O	0.484336	1.769358	-0.212886
O34	O	0.610062	1.835832	-0.246124
O35	O	0.696655	1.370238	0.005749
O36	O	0.770669	1.409370	-0.140438
O37	O	0.696656	1.623479	-0.247493
O38	O	0.622642	1.584347	-0.101306
C39	C	0.659649	1.138813	-0.174397
C40	C	0.659649	1.023936	-0.174396
C41	C	0.461799	1.372684	-0.122093
C42	C	0.394651	1.337182	-0.104340
C43	C	-0.019356	1.779218	-0.325365
C44	C	-0.082442	1.745828	-0.308668
C45	C	-0.005169	1.522315	-0.196911
C46	C	0.057925	1.555686	-0.213593
C47	C	0.050825	1.684139	-0.277823
C48	C	0.128106	1.460607	-0.166051
C49	C	0.191194	1.493976	-0.182738
C50	C	0.184101	1.622423	-0.246967
C51	C	0.113913	1.717508	-0.294509
C52	C	0.135204	1.332154	-0.101830
C53	C	0.205385	1.237076	-0.054288
C54	C	0.268475	1.270444	-0.070967
C55	C	0.261382	1.398891	-0.135196
C56	C	0.338663	1.175359	-0.023425
C57	C	0.401751	1.208728	-0.040111
C58	C	0.324470	1.432260	-0.151883
C59	C	0.857499	1.581899	-0.226704
C60	C	0.924647	1.617402	-0.244457
C61	C	0.659651	1.477291	-0.512876
C62	C	0.659651	1.477290	-0.627753
C63	C	0.659649	1.815771	-0.174400
C64	C	0.659649	1.930648	-0.174401
C65	C	0.659648	1.477293	0.164079
C66	C	0.659647	1.477293	0.278956
C67	C	0.857499	1.243420	-0.226703
C68	C	0.924647	1.164046	-0.244454
C69	C	0.659648	1.138814	0.164081
C70	C	0.659647	1.023937	0.278958
C71	C	0.857497	1.243421	0.111775
C72	C	0.924645	1.164048	0.208900
C73	C	0.461801	1.711163	-0.460572
C74	C	0.394653	1.790536	-0.557697
C75	C	0.461800	1.711164	-0.122094
C76	C	0.394651	1.790538	-0.104343
C77	C	0.659651	1.815770	-0.512878
C78	C	0.659651	1.930646	-0.627755
C79	C	0.917547	1.106344	-0.308683
C80	C	0.980634	1.031776	-0.325386
C81	C	1.050820	1.014903	-0.277852
C82	C	1.057919	1.072615	-0.213622
C83	C	0.994833	1.147189	-0.196927
C84	C	0.994820	1.147203	0.178201
C85	C	1.057918	1.072641	0.269448
C86	C	1.050841	1.014918	0.391393
C87	C	0.980659	1.031769	0.422092
C88	C	0.917562	1.106337	0.330846
C89	C	0.324479	1.807394	-0.526998
C90	C	0.261380	1.881989	-0.618245
C91	C	0.268457	1.939718	-0.740190
C92	C	0.338639	1.922860	-0.770889
C93	C	0.401736	1.848273	-0.679643
C94	C	0.401751	1.848251	-0.040126
C95	C	0.338664	1.922849	-0.023452
C96	C	0.268478	1.939725	-0.070990
C97	C	0.261379	1.882009	-0.135215
C98	C	0.324465	1.807419	-0.151895
H99	H	0.318687	1.536860	-0.204148
H100	H	1.000596	1.194193	0.078912
H101	H	0.108130	1.822108	-0.346774
H102	H	1.115073	1.058866	-0.174925
H103	H	0.860425	1.120038	0.355859
H104	H	0.974839	0.984792	-0.377686
H105	H	0.217074	2.000448	-0.814477
H106	H	1.115058	1.058930	0.244431
H107	H	1.000624	1.194162	-0.144619
H108	H	0.458874	1.834549	-0.704654
H109	H	0.204241	1.895699	-0.593226
H110	H	0.860403	1.120082	-0.347409
H111	H	0.211156	1.132489	-0.001996
H112	H	0.217115	2.000464	-0.057399
H113	H	1.102183	0.954176	-0.291454
H114	H	0.458895	1.834517	-0.001404
H115	H	1.102225	0.954203	0.465680
H116	H	0.318674	1.760427	-0.204182
H117	H	0.344459	1.969831	0.028849
H118	H	0.204225	1.895761	-0.173916
H119	H	0.974908	0.984761	0.521391
H120	H	0.344432	1.070773	0.028860
H121	H	0.318702	1.760389	-0.427710
H122	H	0.235473	1.649589	-0.260555
H123	H	-0.025139	1.883818	-0.377630
H124	H	0.458896	1.131306	-0.001377
H125	H	-0.139587	1.823262	-0.347390
H126	H	0.000602	1.417728	-0.144619
H127	H	0.083832	1.304990	-0.088255
H128	H	0.344393	1.969872	-0.870188
