data_functionalizedCrystal
_audit_creation_method	'MofGen! by Chris Wilmer'
_symmetry_space_group_name_H-M	'P1'
_symmetry_Int_Tables_number	1
_symmetry_cell_setting	triclinic
loop_
_symmetry_equiv_pos_as_xyz
  x,y,z
_cell_length_a	15.298068
_cell_length_b	13.897447
_cell_length_c	15.296720
_cell_angle_alpha	99.647031
_cell_angle_beta	88.354818
_cell_angle_gamma	99.679582
loop_
_atom_site_label
_atom_site_type_symbol
_atom_site_fract_x
_atom_site_fract_y
_atom_site_fract_z
Zn1	Zn	1.253390	-0.286949	-0.727372
Zn2	Zn	1.278657	-0.416495	-0.580907
Zn3	Zn	1.132270	-0.277576	-0.555539
Zn4	Zn	1.106889	-0.470571	-0.701932
O5	O	1.192802	-0.362898	-0.641438
O6	O	1.379317	-0.285425	-0.729207
O7	O	1.280435	-0.371514	-0.454980
O8	O	1.148384	-0.143834	-0.578363
O9	O	1.397881	-0.380603	-0.621600
O10	O	1.237371	-0.150720	-0.704608
O11	O	1.172885	-0.269451	-0.436342
O12	O	1.006328	-0.321885	-0.553695
O13	O	1.105126	-0.472766	-0.827869
O14	O	0.987681	-0.463678	-0.661249
O15	O	1.212760	-0.337860	-0.846560
O16	O	1.255824	-0.558653	-0.596931
O17	O	1.129627	-0.598382	-0.685848
C18	C	0.965222	-0.397633	-0.601959
C19	C	0.867859	-0.412521	-0.585091
C20	C	0.554688	-0.256735	-0.762000
C21	C	0.646165	-0.242751	-0.777854
C22	C	0.701593	-0.285192	-0.729664
C23	C	0.665535	-0.341620	-0.665619
C24	C	0.574048	-0.355612	-0.649768
C25	C	0.720953	-0.384069	-0.617432
C26	C	0.684895	-0.440497	-0.553387
C27	C	0.593418	-0.454485	-0.537539
C28	C	0.537990	-0.412044	-0.585729
C29	C	0.812440	-0.370077	-0.633283
C30	C	0.831800	-0.468954	-0.521051
C31	C	0.740323	-0.482937	-0.505198
C32	C	1.192734	-0.613518	-0.641405
C33	C	1.192780	-0.720729	-0.641434
C34	C	1.192819	-0.807797	-0.641462
C35	C	1.192876	-0.917025	-0.641495
C36	C	1.421270	-0.328027	-0.681071
C37	C	1.518629	-0.313168	-0.697960
C38	C	1.153293	-0.412390	-0.869882
C39	C	1.136457	-0.433481	-0.967232
C40	C	1.192890	-0.111299	-0.641494
C41	C	1.192928	-0.004082	-0.641518
C42	C	1.313164	-0.211984	-1.280571
C43	C	1.328987	-0.192169	-1.189107
C44	C	1.280856	-0.252495	-1.133634
C45	C	1.216899	-0.332640	-1.169633
C46	C	1.201078	-0.352462	-1.261107
C47	C	1.168771	-0.392973	-1.114170
C48	C	1.104813	-0.473118	-1.150169
C49	C	1.088995	-0.492935	-1.241634
C50	C	1.137126	-0.432609	-1.297107
C51	C	1.184591	-0.373151	-1.022696
C52	C	1.072506	-0.513629	-1.003232
C53	C	1.056682	-0.533444	-1.094696
C54	C	1.232206	-0.313520	-0.413891
C55	C	1.249212	-0.292132	-0.316571
H56	H	0.509551	-0.222192	-0.801234
O57	O	1.391186	-0.114422	-1.154099
C58	C	1.456884	-0.149214	-1.110955
H59	H	1.457536	-0.230325	-1.139446
H60	H	1.441766	-0.141668	-1.036939
C61	C	1.547391	0.011777	-1.090330
C62	C	1.548196	-0.087843	-1.125329
H63	H	1.603717	0.049635	-1.099192
H64	H	1.503128	0.035218	-1.119394
H65	H	1.534789	0.018051	-1.028652
H66	H	1.560788	-0.094117	-1.187006
H67	H	1.592464	-0.111284	-1.096275
H68	H	0.564062	-0.500441	-0.485396
O69	O	0.790481	-0.271568	-0.744897
C70	C	0.835538	-0.223774	-0.666295
H71	H	0.791535	-0.237291	-0.606685
H72	H	0.852081	-0.140877	-0.667386
C73	C	0.975898	-0.248683	-0.732702
C74	C	0.921855	-0.265292	-0.659486
H75	H	1.029144	-0.274289	-0.728503
H76	H	0.945543	-0.280880	-0.785659
H77	H	0.989674	-0.179602	-0.733602
H78	H	0.908071	-0.334373	-0.658593
H79	H	0.952209	-0.233108	-0.606529
O80	O	0.705230	-0.537892	-0.443109
C81	C	0.643689	-0.619136	-0.483705
H82	H	0.659347	-0.635940	-0.557455
H83	H	0.573834	-0.600578	-0.474763
C84	C	0.630444	-0.689614	-0.349928
C85	C	0.649681	-0.710258	-0.440507
H86	H	0.634137	-0.745821	-0.323280
H87	H	0.671903	-0.634877	-0.322576
H88	H	0.572233	-0.674147	-0.342488
H89	H	0.707895	-0.725711	-0.447946
H90	H	0.608232	-0.765000	-0.467860
H91	H	0.876929	-0.503518	-0.481815
H92	H	1.236665	-0.307896	-0.993395
O93	O	1.296069	-0.233302	-1.044759
C94	C	1.217429	-0.214701	-0.999621
H95	H	1.157845	-0.250267	-1.043576
H96	H	1.218423	-0.131430	-0.983051
C97	C	1.283855	-0.215138	-0.859337
C98	C	1.210672	-0.258829	-0.913321
H99	H	1.279688	-0.242354	-0.806101
H100	H	1.336838	-0.227667	-0.889747
H101	H	1.284675	-0.145748	-0.845538
H102	H	1.209859	-0.328216	-0.927128
H103	H	1.157689	-0.246313	-0.882912
H104	H	0.675516	-0.196811	-0.830002
H105	H	0.841789	-0.324131	-0.685428
H106	H	1.004607	-0.598698	-1.124020
O107	O	1.359811	-0.153469	-1.334577
C108	C	1.332151	-0.188171	-1.423030
H109	H	1.262378	-0.232779	-1.423785
H110	H	1.379595	-0.237244	-1.457981
C111	C	1.417795	-0.044742	-1.470494
C112	C	1.332096	-0.099524	-1.471421
H113	H	1.417765	0.009938	-1.500346
H114	H	1.436433	-0.021364	-1.410902
H115	H	1.457323	-0.085647	-1.499618
H116	H	1.292573	-0.058623	-1.442287
H117	H	1.313451	-0.122894	-1.531009
O118	O	1.121762	-0.452034	-1.385959
C119	C	1.138961	-0.547659	-1.420409
H120	H	1.133092	-0.594090	-1.365093
H121	H	1.208833	-0.542124	-1.449245
C122	C	1.078500	-0.539843	-1.561751
C123	C	1.071284	-0.596873	-1.493812
H124	H	1.036757	-0.570201	-1.607032
H125	H	1.066915	-0.475418	-1.538543
H126	H	1.136730	-0.535235	-1.585770
H127	H	1.013059	-0.601470	-1.469787
H128	H	1.082857	-0.661301	-1.517018
O129	O	1.026933	-0.570901	-1.276511
C130	C	1.049923	-0.659273	-1.257469
H131	H	1.095083	-0.641736	-1.196900
H132	H	1.086040	-0.696049	-1.316752
C133	C	0.909777	-0.751359	-1.312798
C134	C	0.965238	-0.729820	-1.238401
H135	H	0.857540	-0.794878	-1.301040
H136	H	0.894289	-0.691822	-1.325630
H137	H	0.939885	-0.782001	-1.362193
H138	H	0.935134	-0.699168	-1.189010
H139	H	0.980719	-0.789353	-1.225560
O140	O	1.025833	-0.572367	-0.949410
C141	C	1.041060	-0.670432	-0.975069
H142	H	1.106684	-0.670072	-1.012353
H143	H	0.984905	-0.714321	-1.020006
C144	C	0.964299	-0.719196	-0.846234
C145	C	1.044904	-0.718753	-0.892022
H146	H	0.966667	-0.749005	-0.795008
H147	H	0.954037	-0.653128	-0.828949
H148	H	0.917512	-0.755768	-0.883692
H149	H	1.091687	-0.682171	-0.854568
H150	H	1.055174	-0.784816	-0.909299
H151	H	0.463500	-0.423435	-0.572830
