data_functionalizedCrystal
_audit_creation_method	'MofGen! by Chris Wilmer'
_symmetry_space_group_name_H-M	'P1'
_symmetry_Int_Tables_number	1
_symmetry_cell_setting	triclinic
loop_
_symmetry_equiv_pos_as_xyz
  x,y,z
_cell_length_a	14.560432
_cell_length_b	23.196402
_cell_length_c	23.196401
_cell_angle_alpha	90.011299
_cell_angle_beta	60.002413
_cell_angle_gamma	59.998916
loop_
_atom_site_label
_atom_site_type_symbol
_atom_site_fract_x
_atom_site_fract_y
_atom_site_fract_z
Zr1	Zr	1.005323	0.555345	-0.075730
O2	O	1.196943	0.463269	-0.167792
O3	O	0.813707	0.583573	-0.047500
O4	O	1.005324	0.583542	-0.167782
O5	O	1.005324	0.463323	0.047362
O6	O	1.005320	0.678414	-0.167784
O7	O	1.005326	0.463300	-0.047509
O8	O	0.662553	0.678469	0.047379
O9	O	1.348091	0.463268	-0.167801
O10	O	0.892517	0.666412	-0.035471
O11	O	0.892518	0.595627	0.035332
O12	O	1.118123	0.595591	-0.106286
O13	O	1.118124	0.524806	-0.035483
Zr14	Zr	1.005313	0.706691	0.075576
Zr15	Zr	1.005317	0.706655	-0.075733
Zr16	Zr	1.005319	0.555382	0.075579
Zr17	Zr	1.246387	0.555343	-0.075745
Zr18	Zr	0.764249	0.706694	0.075591
O19	O	1.196929	0.678464	0.047346
O20	O	1.196934	0.678412	-0.167796
O21	O	1.196938	0.463321	0.047350
O22	O	0.813693	0.798767	0.167638
O23	O	0.813699	0.798716	-0.047504
O24	O	0.813702	0.583624	0.167642
O25	O	1.005312	0.798714	-0.047516
O26	O	1.005312	0.678494	0.167628
O27	O	1.005316	0.583623	0.167630
O28	O	1.005310	0.798737	0.047355
O29	O	1.348086	0.583539	-0.167804
O30	O	0.662550	0.678498	0.167650
O31	O	0.662545	0.798769	0.167647
O32	O	0.662548	0.798740	0.047377
O33	O	1.348088	0.463297	-0.047531
O34	O	1.348083	0.583568	-0.047533
O35	O	0.892514	0.666446	0.106132
O36	O	0.892513	0.737231	0.035329
O37	O	1.118118	0.666410	-0.035486
O38	O	1.118119	0.595625	0.035317
C39	C	0.703784	0.631021	-0.000058
C40	C	0.601446	0.631022	-0.000051
C41	C	0.575794	0.526447	-0.104641
C42	C	0.707159	0.474168	-0.156900
C43	C	0.803289	0.474171	-0.156879
C44	C	0.768047	0.526459	-0.104592
C45	C	0.636681	0.578739	-0.052332
C46	C	0.540558	0.578731	-0.052360
C47	C	0.470080	0.683302	0.052208
C48	C	0.373948	0.683302	0.052185
C49	C	0.434838	0.735590	0.104495
C50	C	0.303470	0.787874	0.156753
C51	C	0.207338	0.787868	0.156729
C52	C	0.242583	0.735582	0.104444
C53	C	1.005326	0.441753	-0.000073
C54	C	1.005328	0.377518	-0.000072
C55	C	1.005339	0.347333	-0.052340
C56	C	1.005328	0.286982	-0.052340
C57	C	1.005331	0.256810	-0.000077
C58	C	1.005313	0.287004	0.052201
C59	C	1.005312	0.347358	0.052204
C60	C	1.081020	0.137438	0.016205
C61	C	1.081029	0.077083	0.016197
C62	C	1.005330	0.070660	-0.000080
C63	C	0.929638	0.124594	-0.016366
C64	C	0.929636	0.184948	-0.016363
C65	C	1.005332	0.191366	-0.000073
C66	C	1.005326	-0.024964	-0.052352
C67	C	1.005306	-0.085314	-0.052347
C68	C	1.005305	-0.085295	0.052192
C69	C	1.005311	-0.024942	0.052190
C70	C	1.005328	0.005218	-0.000086
C71	C	1.306853	0.631015	-0.000096
C72	C	1.409191	0.631014	-0.000102
C73	C	1.005323	0.630973	-0.189341
C74	C	1.005324	0.630958	-0.253576
C75	C	1.005310	0.820284	-0.000081
C76	C	1.005308	0.884519	-0.000082
C77	C	1.123084	0.593993	-0.320713
C78	C	1.123086	0.594011	-0.381069
C79	C	1.005321	0.630984	-0.374282
C80	C	0.887546	0.667956	-0.307133
C81	C	0.887547	0.667943	-0.246780
C82	C	0.915098	0.625735	-0.441594
C83	C	0.915102	0.625743	-0.501947
C84	C	1.005311	0.631029	-0.560430
C85	C	1.095540	0.636292	-0.558559
C86	C	1.095541	0.636279	-0.498205
C87	C	1.005306	0.631003	-0.439721
C88	C	1.123081	0.594082	-0.693014
C89	C	1.123078	0.594105	-0.753369
C90	C	0.887534	0.668045	-0.679431
C91	C	0.887541	0.668027	-0.619078
C92	C	1.005318	0.631042	-0.625874
C93	C	1.005313	0.631064	0.189187
C94	C	1.005312	0.631079	0.253422
C95	C	0.703776	0.820287	-0.000062
C96	C	0.601435	0.884523	-0.000057
C97	C	0.703779	0.631067	0.189206
C98	C	0.601439	0.631083	0.253448
C99	C	0.703771	0.820332	0.189202
C100	C	0.601429	0.884583	0.253442
C101	C	1.306865	0.441705	-0.189356
C102	C	1.409207	0.377454	-0.253596
C103	C	1.306860	0.441750	-0.000092
C104	C	1.409201	0.377514	-0.000097
C105	C	1.306857	0.630970	-0.189360
C106	C	1.409197	0.630954	-0.253601
C107	C	0.553377	0.877722	-0.037018
C108	C	0.457231	0.938072	-0.037027
C109	C	0.409137	1.005223	-0.000071
C110	C	0.457204	1.012023	0.036891
C111	C	0.553356	0.951673	0.036896
C112	C	0.553377	0.668057	0.320579
C113	C	0.457232	0.668070	0.380946
C114	C	0.409143	0.631112	0.374180
C115	C	0.457215	0.594133	0.307042
C116	C	0.553365	0.594117	0.246676
C117	C	0.553367	0.951712	0.246651
C118	C	0.457219	1.012088	0.307006
C119	C	0.409128	1.005335	0.374150
C120	C	0.457199	0.938200	0.380939
C121	C	0.553352	0.877824	0.320586
C122	C	1.457281	0.310325	-0.246805
C123	C	1.553459	0.249948	-0.307159
C124	C	1.601555	0.256702	-0.374304
C125	C	1.553478	0.323837	-0.381093
C126	C	1.457308	0.384212	-0.320740
C127	C	1.457269	0.384315	0.036857
C128	C	1.553442	0.323964	0.036850
C129	C	1.601539	0.256813	-0.000108
C130	C	1.553467	0.250014	-0.037067
C131	C	1.457302	0.310364	-0.037063
C132	C	1.457255	0.667919	-0.246813
C133	C	1.553401	0.667917	-0.307168
C134	C	1.601494	0.630946	-0.374312
C135	C	1.553427	0.593980	-0.381099
C136	C	1.457276	0.593986	-0.320744
H137	H	0.497528	0.526450	-0.104675
H138	H	1.592643	0.195332	-0.067157
H139	H	1.005303	0.371935	0.094768
H140	H	0.330843	1.054358	-0.000080
C141	C	0.404282	1.085890	0.077545
H142	H	0.340125	1.120853	0.072252
H143	H	0.473293	1.091194	0.059301
H144	H	0.366746	1.091199	0.126175
H145	H	1.418167	0.438870	-0.326277
H146	H	0.868001	0.119366	-0.029625
C147	C	1.404393	0.302886	-0.172953
H148	H	1.340223	0.348454	-0.137974
H149	H	1.473425	0.277814	-0.167663
H150	H	1.366884	0.277806	-0.167658
H151	H	0.592472	0.957220	0.066998
H152	H	0.418106	0.932522	-0.067126
C153	C	1.606291	0.331456	0.077514
H154	H	1.563851	0.380093	0.099534
H155	H	1.697072	0.309451	0.045617
H156	H	1.590526	0.309456	0.112492
H157	H	1.679862	0.207535	-0.423442
H158	H	0.592520	0.698153	0.326101
H159	H	1.418168	0.304817	-0.067154
C160	C	0.606254	0.959154	0.172800
H161	H	0.563859	1.007784	0.177410
H162	H	0.590493	0.937145	0.147718
H163	H	0.697044	0.937137	0.147717
C164	C	1.252624	0.553408	-0.700481
H165	H	1.235760	0.558686	-0.654921
H166	H	1.301013	0.571657	-0.725545
H167	H	1.301011	0.504780	-0.725577
C168	C	0.404360	0.708751	0.454791
H169	H	0.340219	0.703465	0.489778
H170	H	0.366843	0.757375	0.460081
H171	H	0.473407	0.690499	0.460071
C172	C	0.404316	1.085929	0.299528
H173	H	0.340165	1.120924	0.345086
H174	H	0.366804	1.091197	0.274458
H175	H	0.473342	1.091224	0.274436
H176	H	1.592587	0.195290	-0.301618
H177	H	1.005348	0.371889	-0.094905
H178	H	0.735841	0.431594	-0.199470
C179	C	0.947790	0.416665	-0.214362
H180	H	0.955015	0.385526	-0.245507
H181	H	0.988735	0.390860	-0.192879
H182	H	0.988762	0.438136	-0.240172
H183	H	0.330852	0.631131	0.423339
H184	H	1.005334	-0.000405	-0.094916
C185	C	0.303352	1.071752	0.440532
H186	H	0.281613	1.112696	0.426865
H187	H	0.334853	1.071772	0.467840
H188	H	0.228315	1.071768	0.467838
C189	C	1.606350	0.553308	-0.454958
H190	H	1.670507	0.558596	-0.489926
H191	H	1.537338	0.571548	-0.460264
H192	H	1.643886	0.504679	-0.460257
C193	C	0.404278	0.930780	0.454800
H194	H	0.340119	0.976355	0.489766
H195	H	0.473290	0.905704	0.460106
H196	H	0.366745	0.905713	0.460099
C197	C	0.264710	0.845381	0.214265
H198	H	0.172707	0.876517	0.245387
H199	H	0.298770	0.871191	0.192804
H200	H	0.298726	0.823912	0.240095
C201	C	1.005320	-0.118518	-0.109847
H202	H	1.005343	-0.091914	-0.140981
H203	H	0.929982	-0.118412	-0.088378
H204	H	1.080668	-0.165716	-0.135666
H205	H	0.592471	0.823168	0.326125
C206	C	1.404365	0.708593	-0.172963
H207	H	1.446757	0.730611	-0.177574
H208	H	1.420127	0.676703	-0.147879
H209	H	1.313575	0.743575	-0.147880
C210	C	0.404308	0.553486	0.299604
H211	H	0.446702	0.531456	0.250978
H212	H	0.313523	0.585399	0.321626
H213	H	0.420079	0.518516	0.321614
H214	H	1.592650	0.329327	-0.435769
C215	C	1.005323	0.253815	0.109688
H216	H	1.005340	0.213543	0.102196
H217	H	0.929985	0.287358	0.154813
H218	H	1.080671	0.240059	0.107512
C219	C	1.252634	0.553318	-0.328190
H220	H	1.322768	0.531310	-0.376823
H221	H	1.257533	0.518339	-0.306196
H222	H	1.257531	0.585217	-0.306172
C223	C	0.606215	0.553448	0.172835
H224	H	0.563790	0.531447	0.177458
H225	H	0.696999	0.518464	0.147739
H226	H	0.590433	0.585347	0.147758
C227	C	0.873787	0.526460	-0.104566
H228	H	0.957070	0.487837	-0.143179
H229	H	0.864748	0.522136	-0.061610
H230	H	0.864789	0.569408	-0.108907
H231	H	0.513118	0.735587	0.104511
H232	H	1.418116	0.438987	0.066958
C233	C	1.707314	0.190435	-0.000104
H234	H	1.729038	0.204109	0.027205
H235	H	1.782348	0.163115	-0.047192
H236	H	1.675795	0.163136	0.019694
H237	H	1.169001	0.640593	-0.606178
C238	C	1.606272	0.708572	-0.299690
H239	H	1.563871	0.730579	-0.251057
H240	H	1.590508	0.743550	-0.321686
H241	H	1.697061	0.676661	-0.321704
C242	C	1.707268	0.630939	-0.440696
H243	H	1.729004	0.658245	-0.427030
H244	H	1.675766	0.650719	-0.468004
H245	H	1.782307	0.583842	-0.468001
C246	C	1.404440	0.553310	-0.328216
H247	H	1.340285	0.558604	-0.282659
H248	H	1.473495	0.504684	-0.353302
H249	H	1.366923	0.571555	-0.353293
H250	H	1.169006	0.640566	-0.496684
C251	C	0.062840	0.845374	0.214216
H252	H	0.010631	0.837883	0.206719
H253	H	0.044381	0.890495	0.212056
H254	H	0.044358	0.843211	0.259342
C255	C	0.136846	0.735576	0.104419
H256	H	0.053561	0.774201	0.143028
H257	H	0.145855	0.692627	0.108751
H258	H	0.145880	0.739907	0.061462
H259	H	1.005336	0.262401	-0.094905
H260	H	0.868002	0.228861	-0.029621
C261	C	1.005312	-0.118478	0.109680
H262	H	1.005322	-0.158749	0.102191
H263	H	0.929976	-0.084934	0.154805
H264	H	1.080662	-0.132237	0.107502
H265	H	1.218984	0.563909	-0.435742
H266	H	1.005310	-0.000366	0.094749
H267	H	1.142668	0.033171	0.029454
H268	H	0.592534	0.823050	-0.067120
C269	C	1.164318	0.144489	0.034095
H270	H	1.209417	0.103719	0.043778
H271	H	1.109774	0.185165	0.074378
H272	H	1.225179	0.148918	-0.004849
H273	H	0.791647	0.698150	-0.673904
C274	C	1.252618	0.553441	-0.827224
H275	H	1.235752	0.558751	-0.862196
H276	H	1.300998	0.504812	-0.832534
H277	H	1.301014	0.571684	-0.832510
C278	C	0.758003	0.708679	-0.545225
H279	H	0.687864	0.730697	-0.549825
H280	H	0.753102	0.743647	-0.520127
H281	H	0.753115	0.676766	-0.520163
H282	H	0.841639	0.621426	-0.393979
C283	C	0.758006	0.708600	-0.172926
H284	H	0.687866	0.730620	-0.177525
H285	H	0.753108	0.743566	-0.147827
H286	H	0.753117	0.676686	-0.147865
C287	C	0.758008	0.708623	-0.299666
H288	H	0.774872	0.703330	-0.345226
H289	H	0.709615	0.757248	-0.274574
H290	H	0.709624	0.690368	-0.274600
H291	H	0.841637	0.621454	-0.503466
