data_functionalizedCrystal
_audit_creation_method	'MofGen! by Chris Wilmer'
_symmetry_space_group_name_H-M	'P1'
_symmetry_Int_Tables_number	1
_symmetry_cell_setting	triclinic
loop_
_symmetry_equiv_pos_as_xyz
  x,y,z
_cell_length_a	15.944551
_cell_length_b	15.995350
_cell_length_c	15.072220
_cell_angle_alpha	90.008851
_cell_angle_beta	89.997918
_cell_angle_gamma	96.504443
loop_
_atom_site_label
_atom_site_type_symbol
_atom_site_fract_x
_atom_site_fract_y
_atom_site_fract_z
O1	O	0.108264	-1.111002	-0.073709
O2	O	0.608264	-0.611002	0.426291
O3	O	0.121634	-0.867227	-0.073728
O4	O	0.621634	-0.367227	0.426272
O5	O	-0.007326	-0.995772	-0.073710
O6	O	0.492674	-0.495772	0.426290
O7	O	0.237224	-0.982458	-0.073727
O8	O	0.737224	-0.482458	0.426273
O9	O	-0.007319	-0.995740	0.073855
O10	O	0.492681	-0.495740	0.573855
O11	O	0.121641	-0.867196	0.073837
O12	O	0.621641	-0.367196	0.573837
O13	O	0.108271	-1.110970	0.073856
O14	O	0.608271	-0.610970	0.573856
Zn15	Zn	0.114957	-0.989078	0.097276
Zn16	Zn	0.614957	-0.489078	0.597276
Zn17	Zn	0.114948	-0.989120	-0.097148
Zn18	Zn	0.614948	-0.489120	0.402852
O19	O	0.237232	-0.982426	0.073838
O20	O	0.737232	-0.482426	0.573838
C21	C	-0.038616	-0.995203	0.000073
C22	C	0.461384	-0.495203	0.500073
C23	C	-0.131862	-0.993546	0.000073
C24	C	0.368138	-0.493546	0.500073
C25	C	0.121085	-0.836017	0.000053
C26	C	0.621085	-0.336017	0.500053
C27	C	0.119428	-0.743066	0.000046
C28	C	0.619428	-0.243066	0.500046
C29	C	0.108821	-1.142181	0.000074
C30	C	0.608821	-0.642181	0.500074
C31	C	0.110478	-1.235131	0.000075
C32	C	0.610478	-0.735131	0.500075
C33	C	-0.346714	-0.909908	0.000054
C34	C	0.153286	-0.409908	0.500054
C35	C	-0.407730	-0.948731	0.072816
C36	C	0.092270	-0.448731	0.572816
C37	C	-0.302588	-0.990548	0.000066
C38	C	0.197412	-0.490548	0.500066
C39	C	-0.407721	-0.948781	-0.072672
C40	C	0.092279	-0.448781	0.427328
C41	C	-0.467501	-0.987647	0.000055
C42	C	0.032499	-0.487647	0.500055
C43	C	-0.362376	-1.029394	0.072888
C44	C	0.137624	-0.529394	0.572888
C45	C	-0.362360	-1.029433	-0.072665
C46	C	0.137640	-0.529433	0.427335
C47	C	-0.423358	-1.068315	0.000114
C48	C	0.076642	-0.568315	0.500114
C49	C	-0.207586	-0.992217	0.000073
C50	C	0.292414	-0.492217	0.500073
C51	C	-0.562502	-0.985984	0.000055
C52	C	-0.062502	-0.485984	0.500055
C53	C	0.268522	-0.982995	0.000053
C54	C	0.768522	-0.482995	0.500053
C55	C	0.361768	-0.984652	0.000047
C56	C	0.861768	-0.484652	0.500047
N57	N	0.114963	-0.989055	0.229965
N58	N	0.614963	-0.489055	0.729965
C59	C	0.113477	-0.405318	0.000065
C60	C	0.613477	0.094682	0.500065
C61	C	0.021634	-0.452747	0.000400
C62	C	0.521634	0.047253	0.500400
C63	C	0.023291	-0.549438	0.000061
C64	C	0.523291	-0.049438	0.500061
C65	C	0.116429	-0.572879	0.000056
C66	C	0.616429	-0.072879	0.500056
C67	C	0.161725	-0.531813	-0.084211
C68	C	0.661725	-0.031813	0.415789
C69	C	0.159417	-0.435177	-0.084275
C70	C	0.659417	0.064823	0.415725
C71	C	0.161323	-0.434802	0.083534
C72	C	0.661323	0.065198	0.583534
C73	C	0.161301	-0.531747	0.084642
C74	C	0.661301	-0.031747	0.584642
C75	C	0.118102	-0.667577	0.000048
C76	C	0.618102	-0.167577	0.500048
C77	C	0.111806	-0.310620	0.000067
C78	C	0.611806	0.189380	0.500067
N79	N	0.114935	-0.989149	-0.229836
N80	N	0.614935	-0.489149	0.270164
C81	C	0.114945	-0.989118	0.589166
C82	C	0.614945	-0.489118	1.089166
C83	C	0.183717	-0.920105	0.551550
C84	C	0.683717	-0.420105	1.051550
C85	C	0.183968	-0.920264	0.448724
C86	C	0.683968	-0.420264	0.948724
C87	C	0.114954	-0.989086	0.410962
C88	C	0.614954	-0.489086	0.910962
C89	C	0.134096	-1.076452	0.448258
C90	C	0.634096	-0.576452	0.948258
C91	C	0.134585	-1.076065	0.551116
C92	C	0.634585	-0.576065	1.051116
C93	C	0.026826	-0.971544	0.551271
C94	C	0.526826	-0.471544	1.051271
C95	C	0.027414	-0.969539	0.448407
C96	C	0.527414	-0.469539	0.948407
C97	C	0.114958	-0.989074	0.310249
C98	C	0.614958	-0.489074	0.810249
C99	C	0.114943	-0.989136	0.689879
C100	C	0.614943	-0.489136	1.189879
H101	H	-0.313403	-0.842972	0.000122
H102	H	0.186597	-0.342972	0.500122
Br103	Br	0.292970	-0.938930	0.407685
Br104	Br	0.792970	-0.438930	0.907685
Br105	Br	-0.039553	-0.421848	0.101125
Br106	Br	0.460447	0.078152	0.601125
Br107	Br	0.274509	-0.557353	0.093119
Br108	Br	0.774509	-0.057353	0.593119
Br109	Br	-0.058475	-1.055425	0.591812
Br110	Br	0.441525	-0.555425	1.091812
Br111	Br	0.054181	-1.164144	0.592594
Br112	Br	0.554181	-0.664144	1.092594
Br113	Br	-0.003838	-0.867649	0.594552
Br114	Br	0.496162	-0.367649	1.094552
Br115	Br	0.111282	-0.400554	0.189993
Br116	Br	0.611282	0.099446	0.689993
Br117	Br	-0.478634	-1.179974	0.000184
Br118	Br	0.021366	-0.679974	0.500184
H119	H	0.172500	-0.854955	0.576307
H120	H	0.672500	-0.354955	1.076307
H121	H	0.085338	-1.129033	0.423796
H122	H	0.585338	-0.629033	0.923796
H123	H	0.198850	-1.091551	0.575095
H124	H	0.698850	-0.591551	1.075095
Br125	Br	-0.441237	-0.891864	0.175337
Br126	Br	0.058763	-0.391864	0.675337
H127	H	-0.014912	-0.433164	-0.059693
H128	H	0.485088	0.066836	0.440307
H129	H	-0.427799	-0.914676	-0.134190
H130	H	0.072201	-0.414676	0.365810
H131	H	-0.012314	-0.577852	0.060467
H132	H	0.487686	-0.077852	0.560467
Br133	Br	-0.328814	-1.086257	-0.175190
Br134	Br	0.171186	-0.586257	0.324810
H135	H	-0.012561	-0.577307	-0.060445
H136	H	0.487439	-0.077307	0.439555
H137	H	0.128236	-0.559048	0.146982
H138	H	0.628236	-0.059048	0.646982
H139	H	0.012886	-0.905272	0.424031
H140	H	0.512886	-0.405272	0.924031
H141	H	-0.026161	-1.016539	0.422706
H142	H	0.473839	-0.516539	0.922706
H143	H	-0.342384	-1.063459	0.134469
H144	H	0.157616	-0.563459	0.634469
H145	H	0.197628	-1.092308	0.422486
H146	H	0.697628	-0.592308	0.922486
H147	H	0.126380	-0.416880	-0.147262
H148	H	0.626380	0.083120	0.352738
H149	H	0.226847	-0.402933	-0.088103
H150	H	0.726847	0.097067	0.411897
H151	H	0.230150	-0.545942	-0.087348
H152	H	0.730150	-0.045942	0.412652
H153	H	0.130258	-0.560199	-0.146920
H154	H	0.630258	-0.060199	0.353080
Br155	Br	0.274186	-0.381874	0.084478
Br156	Br	0.774186	0.118126	0.584478
Br157	Br	0.165018	-0.812009	0.406692
Br158	Br	0.665018	-0.312009	0.906692
H159	H	0.248741	-0.931174	0.577385
H160	H	0.748741	-0.431174	1.077385
