data_functionalizedCrystal
_audit_creation_method	'MofGen! by Chris Wilmer'
_symmetry_space_group_name_H-M	'P1'
_symmetry_Int_Tables_number	1
_symmetry_cell_setting	triclinic
loop_
_symmetry_equiv_pos_as_xyz
  x,y,z
_cell_length_a	18.050582
_cell_length_b	14.908571
_cell_length_c	14.908178
_cell_angle_alpha	90.179240
_cell_angle_beta	86.678937
_cell_angle_gamma	93.308132
loop_
_atom_site_label
_atom_site_type_symbol
_atom_site_fract_x
_atom_site_fract_y
_atom_site_fract_z
Zn1	Zn	-0.463318	-1.353955	-0.437499
Zn2	Zn	0.036682	-0.853955	0.062501
Zn3	Zn	-0.331566	-1.345195	-0.587860
Zn4	Zn	0.168434	-0.845195	-0.087860
Zn5	Zn	-0.332425	-1.203601	-0.428824
Zn6	Zn	0.167575	-0.703601	0.071176
Zn7	Zn	-0.449003	-1.194895	-0.579133
Zn8	Zn	0.050997	-0.694895	-0.079133
O9	O	-0.394078	-1.274411	-0.508329
O10	O	0.105922	-0.774411	-0.008329
O11	O	-0.451472	-1.478618	-0.464728
O12	O	0.048528	-0.978618	0.035272
O13	O	-0.227754	-1.326390	-0.566786
O14	O	0.272246	-0.826390	-0.066786
O15	O	-0.356138	-1.230855	-0.304144
O16	O	0.143862	-0.730855	0.195856
O17	O	-0.354675	-1.472182	-0.575197
O18	O	0.145325	-0.972182	-0.075197
O19	O	-0.452304	-1.341320	-0.310517
O20	O	0.047696	-0.841320	0.189483
O21	O	-0.228384	-1.222362	-0.449943
O22	O	0.271616	-0.722362	0.050057
O23	O	-0.342258	-1.076621	-0.441480
O24	O	0.157742	-0.576621	0.058520
O25	O	-0.554829	-1.216016	-0.560323
O26	O	-0.054829	-0.716016	-0.060323
O27	O	-0.427908	-1.070225	-0.551912
O28	O	0.072092	-0.570225	-0.051912
O29	O	-0.565346	-1.332877	-0.456266
O30	O	-0.065346	-0.832877	0.043734
O31	O	-0.340795	-1.317948	-0.712534
O32	O	0.159205	-0.817948	-0.212534
O33	O	-0.427075	-1.207523	-0.706122
O34	O	0.072925	-0.707523	-0.206122
C35	C	-0.383623	-1.040798	-0.494808
C36	C	0.116377	-0.540798	0.005192
C37	C	-0.379167	-0.940856	-0.489046
C38	C	0.120833	-0.440856	0.010954
C39	C	-0.382306	-1.260864	-0.741956
C40	C	0.117694	-0.760864	-0.241956
C41	C	-0.377298	-1.255151	-0.841908
C42	C	0.122702	-0.755151	-0.341908
C43	C	-0.587788	-1.274453	-0.508289
C44	C	-0.087788	-0.774453	-0.008289
C45	C	-0.670335	-1.274470	-0.508272
C46	C	-0.170335	-0.774470	-0.008272
C47	C	-0.913449	-1.210983	-0.564764
C48	C	-0.413449	-0.710983	-0.064764
C49	C	-0.867202	-1.193738	-0.481475
C50	C	-0.367202	-0.693738	0.018525
C51	C	-0.967466	-1.274554	-0.508144
C52	C	-0.467466	-0.774554	-0.008144
C53	C	-0.866625	-1.291716	-0.591488
C54	C	-0.366625	-0.791716	-0.091488
C55	C	-0.821475	-1.274510	-0.508211
C56	C	-0.321475	-0.774510	-0.008211
C57	C	-0.922306	-1.257269	-0.424809
C58	C	-0.422306	-0.757269	0.075191
C59	C	-0.921732	-1.355282	-0.534879
C60	C	-0.421732	-0.855282	-0.034879
C61	C	-0.875511	-1.338071	-0.451536
C62	C	-0.375511	-0.838071	0.048464
C63	C	-1.051567	-1.274577	-0.508106
C64	C	-0.551567	-0.774577	-0.008106
C65	C	-0.737376	-1.274488	-0.508239
C66	C	-0.237376	-0.774488	-0.008239
C67	C	-0.201128	-1.274426	-0.508308
C68	C	0.298872	-0.774426	-0.008308
C69	C	-0.118601	-1.274597	-0.508082
C70	C	0.381399	-0.774597	-0.008082
C71	C	-0.404574	-1.508937	-0.521904
C72	C	0.095426	-1.008937	-0.021904
C73	C	-0.409047	-1.608878	-0.527688
C74	C	0.090953	-1.108878	-0.027688
C75	C	-0.459844	-0.746431	-0.593388
C76	C	0.040156	-0.246431	-0.093388
C77	C	-0.455659	-0.652527	-0.587976
C78	C	0.044341	-0.152527	-0.087976
C79	C	-0.366618	-0.659140	-0.472807
C80	C	0.133382	-0.159140	0.027193
C81	C	-0.370803	-0.753045	-0.478218
C82	C	0.129197	-0.253045	0.021782
C83	C	-0.417416	-0.796687	-0.538512
C84	C	0.082584	-0.296687	-0.038512
C85	C	-0.421596	-0.890593	-0.543927
C86	C	0.078404	-0.390593	-0.043927
C87	C	-0.332559	-0.897205	-0.428754
C88	C	0.167441	-0.397205	0.071246
C89	C	-0.328375	-0.803301	-0.423342
C90	C	0.171625	-0.303301	0.076658
C91	C	-0.468124	-1.359355	-1.036208
C92	C	0.031876	-0.859355	-0.536208
C93	C	-0.463421	-1.353990	-1.130122
C94	C	0.036579	-0.853990	-0.630122
C95	C	-0.363194	-1.239052	-1.123649
C96	C	0.136806	-0.739052	-0.623649
C97	C	-0.367897	-1.244417	-1.029736
C98	C	0.132103	-0.744417	-0.529736
C99	C	-0.420363	-1.304571	-0.986019
C100	C	0.079637	-0.804571	-0.486019
C101	C	-0.425061	-1.309940	-0.892104
C102	C	0.074939	-0.809940	-0.392104
C103	C	-0.324838	-1.194999	-0.885633
C104	C	0.175162	-0.694999	-0.385633
C105	C	-0.320136	-1.189634	-0.979546
C106	C	0.179864	-0.689634	-0.479546
C107	C	-0.405914	-1.288036	-0.273792
C108	C	0.094086	-0.788036	0.226208
C109	C	-0.410957	-1.293842	-0.173846
C110	C	0.089043	-0.793842	0.326154
H111	H	-0.843335	-1.125450	-0.458885
H112	H	-0.343335	-0.625450	0.041115
N113	N	-0.954435	-1.237910	-0.331449
N114	N	-0.454435	-0.737910	0.168551
H115	H	-1.010365	-1.238019	-0.332004
H116	H	-0.510365	-0.738019	0.167996
H117	H	-0.934051	-1.177135	-0.311213
H118	H	-0.434051	-0.677135	0.188787
N119	N	-0.316345	-0.612058	-0.407783
N120	N	0.183655	-0.112058	0.092217
H121	H	-0.290100	-0.658143	-0.373838
H122	H	0.209900	-0.158143	0.126162
H123	H	-0.346993	-0.575520	-0.363975
H124	H	0.153007	-0.075520	0.136025
H125	H	-0.290426	-0.767755	-0.374251
H126	H	0.209574	-0.267755	0.125749
H127	H	-0.298010	-0.938134	-0.384072
H128	H	0.201990	-0.438134	0.115928
N129	N	-0.834361	-1.310968	-0.684812
N130	N	-0.334361	-0.810968	-0.184812
H131	H	-0.875843	-1.319147	-0.727270
H132	H	-0.375843	-0.819147	-0.227270
H133	H	-0.806299	-1.367598	-0.683729
H134	H	-0.306299	-0.867598	-0.183729
N135	N	-0.471866	-0.937668	-0.608959
N136	N	0.028134	-0.437668	-0.108959
H137	H	-0.498109	-0.891578	-0.642899
H138	H	0.001891	-0.391578	-0.142899
H139	H	-0.509859	-0.978763	-0.574657
H140	H	-0.009859	-0.478763	-0.074657
N141	N	-0.501418	-0.598320	-0.647164
N142	N	-0.001418	-0.098320	-0.147164
H143	H	-0.531580	-0.640220	-0.686179
H144	H	-0.031580	-0.140220	-0.186179
H145	H	-0.467301	-0.556941	-0.686483
H146	H	0.032699	-0.056941	-0.186483
H147	H	-0.285946	-1.150393	-0.844758
H148	H	0.214054	-0.650393	-0.344758
H149	H	-0.510839	-1.408341	-1.000614
H150	H	-0.010839	-0.908341	-0.500614
H151	H	-0.502317	-1.398595	-1.170983
H152	H	-0.002317	-0.898595	-0.670983
N153	N	-0.853384	-1.409269	-0.388083
N154	N	-0.353384	-0.909269	0.111917
H155	H	-0.873819	-1.396173	-0.325201
H156	H	-0.373819	-0.896173	0.174799
H157	H	-0.797393	-1.409188	-0.388915
H158	H	-0.297393	-0.909188	0.111085
N159	N	-0.306607	-1.174181	-1.170809
N160	N	0.193393	-0.674181	-0.670809
H161	H	-0.310877	-1.179100	-1.237918
H162	H	0.189123	-0.679100	-0.737918
H163	H	-0.255029	-1.189169	-1.155232
H164	H	0.244971	-0.689169	-0.655232
N165	N	-0.953370	-1.445710	-0.564825
N166	N	-0.453370	-0.945710	-0.064825
H167	H	-0.933055	-1.458636	-0.627798
H168	H	-0.433055	-0.958636	-0.127798
H169	H	-1.009331	-1.445165	-0.563948
H170	H	-0.509331	-0.945165	-0.063948
N171	N	-0.263547	-1.124761	-1.026700
N172	N	0.236453	-0.624761	-0.526700
H173	H	-0.267813	-1.129675	-1.093810
H174	H	0.232187	-0.629675	-0.593810
H175	H	-0.211970	-1.139749	-1.011120
H176	H	0.288030	-0.639749	-0.511120
H177	H	-0.930296	-1.157207	-0.612550
H178	H	-0.430296	-0.657207	-0.112550
H179	H	-0.497794	-0.781965	-0.642486
H180	H	0.002206	-0.281965	-0.142486
N181	N	-0.481644	-1.374820	-0.844948
N182	N	0.018356	-0.874820	-0.344948
H183	H	-0.511188	-1.408708	-0.890997
H184	H	-0.011188	-0.908708	-0.390997
H185	H	-0.516296	-1.340414	-0.803872
H186	H	-0.016296	-0.840414	-0.303872
