data_functionalizedCrystal
_audit_creation_method	'MofGen! by Chris Wilmer'
_symmetry_space_group_name_H-M	'P1'
_symmetry_Int_Tables_number	1
_symmetry_cell_setting	triclinic
loop_
_symmetry_equiv_pos_as_xyz
  x,y,z
_cell_length_a	24.447405
_cell_length_b	24.446649
_cell_length_c	24.443239
_cell_angle_alpha	60.006064
_cell_angle_beta	60.011844
_cell_angle_gamma	59.992812
loop_
_atom_site_label
_atom_site_type_symbol
_atom_site_fract_x
_atom_site_fract_y
_atom_site_fract_z
O1	O	0.075907	-0.799232	0.668277
O2	O	0.028634	-0.622262	0.538455
O3	O	0.140702	-0.734230	0.538349
O4	O	-0.036160	-0.687265	0.668384
O5	O	0.177886	-0.697056	0.575424
O6	O	0.065818	-0.585088	0.575530
O7	O	0.113091	-0.762059	0.705353
Cu8	Cu	0.092850	-0.670179	0.643827
Cu9	Cu	0.048876	-0.714142	0.599981
O10	O	0.001024	-0.650091	0.705459
N11	N	0.123780	-0.639263	0.674669
N12	N	0.017951	-0.745064	0.569139
C13	C	0.170236	-0.489965	0.721065
C14	C	0.170249	-0.592837	0.721058
C15	C	0.195989	-0.567121	0.746758
C16	C	0.308182	-0.547773	0.687664
C17	C	0.378316	-0.571143	0.664253
C18	C	0.378353	-0.684626	0.707525
C19	C	0.308220	-0.661254	0.730938
C20	C	0.187125	-0.454882	0.652117
C21	C	0.163710	-0.384741	0.628763
C22	C	0.106523	-0.384772	0.743308
C23	C	0.129938	-0.454913	0.766662
C24	C	0.101291	-0.575906	0.738041
C25	C	0.077897	-0.599283	0.714670
C26	C	0.192412	-0.656523	0.657348
C27	C	0.215809	-0.633146	0.680711
C28	C	0.101393	-0.575928	0.859014
C29	C	0.078071	-0.599328	0.929152
C30	C	0.192636	-0.656582	0.929078
C31	C	0.215955	-0.633184	0.858938
C32	C	0.170332	-0.592855	0.823908
C33	C	0.273137	-0.592827	0.721004
C34	C	-0.131205	-0.791294	0.522327
C35	C	-0.028388	-0.791420	0.522551
C36	C	-0.054056	-0.817099	0.496741
C37	C	-0.073479	-0.929255	0.555734
C38	C	-0.050156	-0.999396	0.579142
C39	C	0.063326	-0.999525	0.536064
C40	C	0.040001	-0.929386	0.512654
C41	C	-0.166365	-0.808188	0.591256
C42	C	-0.236499	-0.784726	0.614512
C43	C	-0.236309	-0.727482	0.499907
C44	C	-0.166175	-0.750944	0.476651
C45	C	-0.045285	-0.722468	0.505590
C46	C	-0.021951	-0.699130	0.529061
C47	C	0.035176	-0.813691	0.586439
C48	C	0.011842	-0.837031	0.562976
C49	C	-0.045097	-0.722476	0.384488
C50	C	-0.021613	-0.699140	0.314350
C51	C	0.035607	-0.813706	0.314419
C52	C	0.012124	-0.837041	0.384558
C53	C	-0.028229	-0.791425	0.419591
C54	C	-0.028402	-0.894253	0.522492
N55	N	0.412405	-0.639229	0.674505
O56	O	0.626552	-0.645384	0.514503
O57	O	0.626802	-0.775625	0.691288
O58	O	0.626698	-0.775326	0.579168
O59	O	0.626656	-0.645683	0.626623
O60	O	0.515277	-0.738265	0.616407
O61	O	0.515382	-0.738564	0.728527
O62	O	0.515131	-0.608323	0.551742
Cu63	Cu	0.505083	-0.670059	0.643535
Cu64	Cu	0.636850	-0.713889	0.599495
O65	O	0.515236	-0.608622	0.663862
N66	N	0.729529	-0.744719	0.568518
N67	N	0.123755	-0.350686	0.674680
O68	O	-0.036153	-0.136410	0.668391
O69	O	0.140633	-0.136380	0.538141
O70	O	0.028472	-0.136412	0.538488
O71	O	0.076007	-0.136377	0.668044
O72	O	0.065663	-0.247842	0.575621
O73	O	0.177823	-0.247810	0.575274
O74	O	0.001037	-0.247840	0.705524
Cu75	Cu	0.092826	-0.258000	0.643789
Cu76	Cu	0.048844	-0.126220	0.599875
O77	O	0.113198	-0.247808	0.705177
N78	N	0.017907	-0.033534	0.568986
N79	N	0.124013	-0.639306	0.963182
O80	O	0.117754	-0.799195	1.177439
O81	O	-0.012458	-0.622342	1.177485
O82	O	-0.012155	-0.734480	1.177444
O83	O	0.117450	-0.687057	1.177480
O84	O	0.024954	-0.697317	1.066020
O85	O	0.024650	-0.585179	1.066061
O86	O	0.154862	-0.762032	1.066014
Cu87	Cu	0.093145	-0.670212	1.055863
Cu88	Cu	0.049259	-0.714162	1.187636
O89	O	0.154559	-0.649894	1.066055
N90	N	0.018389	-0.745075	1.280318
C91	C	0.042795	-0.581375	0.539107
C92	C	0.181576	-0.720034	0.538975
C93	C	0.098930	-0.802946	0.704700
C94	C	-0.039851	-0.664287	0.704832
C95	C	0.571122	-0.775030	0.732180
C96	C	0.570995	-0.774660	0.593332
C97	C	0.570808	-0.608917	0.510851
C98	C	0.570939	-0.609288	0.649698
C99	C	0.181453	-0.191954	0.538725
C100	C	0.042602	-0.192131	0.539201
C101	C	-0.039829	-0.192128	0.704893
C102	C	0.099069	-0.192090	0.704464
C103	C	-0.011836	-0.581480	1.121779
C104	C	-0.011453	-0.720342	1.121706
C105	C	0.154240	-0.802894	1.121720
C106	C	0.153865	-0.664024	1.121769
H107	H	0.021932	-0.585534	0.957726
H108	H	-0.090599	-0.192138	0.745784
H109	H	0.032420	-0.192135	0.498498
F110	F	0.571207	-0.828473	0.798546
F111	F	0.247969	-0.733117	0.485599
F112	F	0.112130	-0.869392	0.757998
H113	H	0.570930	-0.568565	0.659852
H114	H	0.195123	-0.853684	1.121698
F115	F	0.112371	-0.192077	0.757665
F116	F	0.571021	-0.827895	0.580059
F117	F	0.247677	-0.191539	0.485143
F118	F	0.570703	-0.555467	0.444492
H119	H	-0.052716	-0.530687	1.121793
H120	H	-0.052152	-0.730472	1.121651
H121	H	0.032695	-0.530537	0.498334
H122	H	0.194582	-0.653876	1.121771
F123	F	-0.106249	-0.651209	0.758204
H124	H	0.064236	-0.543084	0.830495
H125	H	0.272095	-0.646975	0.830359
F126	F	0.052799	-0.533006	0.780979
F127	F	0.241197	-0.699484	0.966352
H128	H	0.229515	-0.689349	0.624505
F129	F	0.289201	-0.651172	0.662648
F130	F	0.270924	-0.709211	0.766424
F131	F	0.004506	-0.581348	0.732825
H132	H	0.406848	-0.534453	0.637104
F133	F	0.415695	-0.757454	0.718088
H134	H	0.279622	-0.492055	0.679573
H135	H	0.177459	-0.356175	0.572617
F136	F	0.230015	-0.492186	0.603588
H137	H	-0.137894	-0.841050	0.628449
F138	F	0.111961	-0.492253	0.840049
F139	F	-0.039577	-0.625753	0.277000
F140	F	0.063650	-0.347464	0.791837
F141	F	0.078533	-0.862260	0.277143
F142	F	0.030087	-0.910428	0.421913
F143	F	-0.088152	-0.673921	0.462620
F144	F	-0.039934	-0.625744	0.511014
H145	H	-0.077958	-0.685325	0.413008
H146	H	0.067938	-0.850836	0.619346
H147	H	0.025599	-0.893178	0.576787
H148	H	0.119026	-1.028132	0.528057
F149	F	0.087982	-0.892135	0.477276
H150	H	-0.086862	-1.027893	0.606199
H151	H	-0.265127	-0.798479	0.670643
F152	F	-0.146281	-0.891870	0.566210
H153	H	-0.137547	-0.737181	0.420520
F154	F	-0.273529	-0.684544	0.451295
