data_functionalizedCrystal
_audit_creation_method	'MofGen! by Chris Wilmer'
_symmetry_space_group_name_H-M	'P1'
_symmetry_Int_Tables_number	1
_symmetry_cell_setting	triclinic
loop_
_symmetry_equiv_pos_as_xyz
  x,y,z
_cell_length_a	14.908993
_cell_length_b	17.637651
_cell_length_c	14.909227
_cell_angle_alpha	76.203306
_cell_angle_beta	90.167019
_cell_angle_gamma	105.097198
loop_
_atom_site_label
_atom_site_type_symbol
_atom_site_fract_x
_atom_site_fract_y
_atom_site_fract_z
Zn1	Zn	1.348706	-0.227271	-0.379884
Zn2	Zn	1.305006	-0.370891	-0.198367
Zn3	Zn	1.185870	-0.242882	-0.234815
Zn4	Zn	1.163625	-0.369945	-0.357547
O5	O	1.250802	-0.302747	-0.292653
O6	O	1.470225	-0.240186	-0.349899
O7	O	1.280224	-0.360839	-0.075873
O8	O	1.235068	-0.127530	-0.278661
O9	O	1.438119	-0.345702	-0.216539
O10	O	1.354703	-0.116061	-0.385242
O11	O	1.192695	-0.266791	-0.102651
O12	O	1.055603	-0.265874	-0.257002
O13	O	1.197155	-0.344090	-0.487839
O14	O	1.039260	-0.359226	-0.347173
O15	O	1.333133	-0.239268	-0.504250
O16	O	1.258654	-0.484046	-0.194880
O17	O	1.154781	-0.483351	-0.311830
C18	C	1.014419	-0.314142	-0.303619
C19	C	0.913291	-0.319035	-0.308328
C20	C	0.740275	-0.230858	-0.223478
C21	C	0.645256	-0.235453	-0.227899
C22	C	0.628231	-0.332824	-0.321587
C23	C	0.723250	-0.328229	-0.317165
C24	C	0.779269	-0.277243	-0.268110
C25	C	0.874291	-0.272644	-0.263694
C26	C	0.857263	-0.370020	-0.357376
C27	C	0.762245	-0.374615	-0.361798
C28	C	1.199588	-0.513069	-0.246995
C29	C	1.177764	-0.603040	-0.227488
C30	C	1.417208	-0.868788	-0.441100
C31	C	1.396671	-0.953332	-0.422756
C32	C	1.272165	-0.965384	-0.311657
C33	C	1.292694	-0.880840	-0.329988
C34	C	1.365216	-0.832548	-0.394711
C35	C	1.240702	-0.844600	-0.283600
C36	C	1.261227	-0.760063	-0.301933
C37	C	1.333744	-0.711766	-0.366655
C38	C	1.385741	-0.748011	-0.413044
C39	C	1.168176	-0.892893	-0.218882
C40	C	1.116185	-0.856653	-0.172494
C41	C	1.136714	-0.772114	-0.190822
C42	C	1.209231	-0.723817	-0.255544
C43	C	1.084717	-0.735869	-0.144432
C44	C	1.105242	-0.651332	-0.162766
C45	C	1.229756	-0.639280	-0.273877
C46	C	1.488107	-0.291308	-0.281645
C47	C	1.589232	-0.286433	-0.276954
C48	C	1.267537	-0.289832	-0.529983
C49	C	1.274669	-0.284329	-0.631118
C50	C	1.302241	-0.091601	-0.338509
C51	C	1.324162	-0.001624	-0.358050
C52	C	1.355509	-0.222003	-0.782209
C53	C	1.348814	-0.227170	-0.687183
C54	C	1.207216	-0.336324	-0.670084
C55	C	1.213911	-0.331157	-0.765110
C56	C	1.288060	-0.273993	-0.821169
C57	C	1.294751	-0.268822	-0.916197
C58	C	1.153157	-0.377979	-0.899096
C59	C	1.146462	-0.383147	-0.804070
C60	C	1.234198	-0.315551	-0.056257
C61	C	1.227298	-0.320818	0.044836
H62	H	0.919903	-0.231124	-0.223758
H63	H	0.716620	-0.416129	-0.401734
H64	H	1.213115	-1.004714	-0.258962
H65	H	1.057135	-0.895983	-0.119798
H66	H	1.403738	-0.184835	-0.655466
H67	H	1.439002	-0.982834	-0.460549
H68	H	0.785890	-0.189333	-0.183548
H69	H	1.415876	-0.175450	-0.827855
H70	H	1.151460	-0.961728	-0.203966
H71	H	0.582602	-0.374342	-0.361515
H72	H	1.146853	-0.382870	-0.624423
H73	H	1.098227	-0.420306	-0.930829
H74	H	0.889023	-0.407786	-0.393725
H75	H	0.613512	-0.197680	-0.191556
H76	H	1.086095	-0.429690	-0.758414
H77	H	1.025664	-0.775200	-0.091742
H78	H	1.288817	-0.599959	-0.326574
H79	H	1.350455	-0.642930	-0.381580
H80	H	1.476269	-0.829467	-0.493797
H81	H	1.444802	-0.708690	-0.465741
H82	H	1.062904	-0.621825	-0.124992
H83	H	1.355123	-0.222273	-0.961841
