data_functionalizedCrystal
_audit_creation_method	'MofGen! by Chris Wilmer'
_symmetry_space_group_name_H-M	'P1'
_symmetry_Int_Tables_number	1
_symmetry_cell_setting	triclinic
loop_
_symmetry_equiv_pos_as_xyz
  x,y,z
_cell_length_a	17.699077
_cell_length_b	19.188930
_cell_length_c	18.266242
_cell_angle_alpha	90.010255
_cell_angle_beta	90.008383
_cell_angle_gamma	83.212679
loop_
_atom_site_label
_atom_site_type_symbol
_atom_site_fract_x
_atom_site_fract_y
_atom_site_fract_z
O1	O	1.003967	0.088273	0.060879
O2	O	1.503967	0.588273	0.560879
O3	O	0.783573	0.099764	0.060884
O4	O	1.283573	0.599764	0.560884
O5	O	0.900130	-0.007630	0.060867
O6	O	1.400130	0.492370	0.560867
O7	O	0.887410	0.195667	0.060896
O8	O	1.387410	0.695667	0.560896
O9	O	0.900111	-0.007633	-0.060895
O10	O	1.400111	0.492367	0.439105
O11	O	0.783553	0.099761	-0.060878
O12	O	1.283553	0.599761	0.439122
O13	O	1.003948	0.088270	-0.060882
O14	O	1.503948	0.588270	0.439118
Zn15	Zn	0.893747	0.094015	-0.080212
Zn16	Zn	1.393747	0.594015	0.419788
Zn17	Zn	0.893773	0.094019	0.080214
Zn18	Zn	1.393773	0.594019	0.580214
O19	O	0.887390	0.195664	-0.060866
O20	O	1.387390	0.695664	0.439134
C21	C	0.755367	0.099352	0.000004
C22	C	1.255367	0.599352	0.500004
C23	C	0.671350	0.098119	0.000005
C24	C	1.171350	0.598119	0.500005
C25	C	0.631873	0.097536	-0.066369
C26	C	1.131873	0.597536	0.433631
C27	C	0.552932	0.096366	-0.066370
C28	C	1.052932	0.596366	0.433630
C29	C	0.513469	0.095784	0.000004
C30	C	1.013469	0.595784	0.500004
C31	C	0.552952	0.096365	0.066382
C32	C	1.052952	0.596365	0.566382
C33	C	0.631892	0.097529	0.066382
C34	C	1.131892	0.597529	0.566382
C35	C	0.234595	0.091666	0.066383
C36	C	0.734595	0.591666	0.566383
C37	C	0.155649	0.090503	0.066377
C38	C	0.655649	0.590503	0.566377
C39	C	0.155634	0.090503	-0.066369
C40	C	0.655634	0.590503	0.433631
C41	C	0.234574	0.091667	-0.066369
C42	C	0.734574	0.591667	0.433631
C43	C	0.274051	0.092244	0.000009
C44	C	0.774051	0.592244	0.500009
C45	C	0.359648	0.093512	0.000009
C46	C	0.859648	0.593512	0.500009
C47	C	0.427872	0.094522	0.000004
C48	C	0.927872	0.594522	0.500004
C49	C	0.899708	-0.033643	-0.000016
C50	C	1.399708	0.466357	0.499984
C51	C	0.898472	-0.111149	-0.000022
C52	C	1.398472	0.388851	0.499978
C53	C	0.966864	-0.155998	-0.000027
C54	C	1.466864	0.344002	0.499973
C55	C	0.965702	-0.228823	-0.000015
C56	C	1.465702	0.271177	0.499985
C57	C	0.896145	-0.256796	-0.000013
C58	C	1.396145	0.243204	0.499987
C59	C	0.827744	-0.211937	-0.000004
C60	C	1.327744	0.288063	0.499996
C61	C	0.828907	-0.139114	-0.000008
C62	C	1.328907	0.360886	0.499992
N63	N	0.842969	-0.364860	-0.041450
N64	N	1.342969	0.135140	0.458550
N65	N	0.841869	-0.434040	-0.041447
N66	N	1.341869	0.065960	0.458553
C67	C	0.892634	-0.476208	0.000002
C68	C	1.392634	0.023792	0.500002
N69	N	0.944554	-0.446585	0.041439
N70	N	1.444554	0.053415	0.541439
N71	N	0.945657	-0.377399	0.041433
N72	N	1.445657	0.122601	0.541433
C73	C	0.894875	-0.335760	-0.000008
C74	C	1.394875	0.164240	0.499992
C75	C	0.959771	-0.600023	0.000011
C76	C	1.459771	-0.100023	0.500011
C77	C	0.958607	-0.672849	0.000027
C78	C	1.458607	-0.172849	0.500027
C79	C	0.820646	-0.655962	0.000031
C80	C	1.320646	-0.155962	0.500031
C81	C	0.821813	-0.583137	0.000022
C82	C	1.321813	-0.083137	0.500022
C83	C	0.891378	-0.555173	0.000008
C84	C	1.391378	-0.055173	0.500008
C85	C	1.032154	0.088682	-0.000000
C86	C	1.532154	0.588682	0.500000
C87	C	1.116171	0.089915	0.000003
C88	C	1.616171	0.589915	0.500003
C89	C	0.887812	0.221677	0.000019
C90	C	1.387812	0.721677	0.500019
C91	C	0.889049	0.299183	0.000030
C92	C	1.389049	0.799183	0.500030
N93	N	0.893735	0.094012	-0.189699
N94	N	1.393735	0.594012	0.310301
C95	C	0.939491	0.136308	-0.227997
C96	C	1.439491	0.636308	0.272003
C97	C	0.939503	0.136306	-0.304642
C98	C	1.439503	0.636306	0.195358
C99	C	0.893746	0.094016	-0.342986
C100	C	1.393746	0.594016	0.157014
C101	C	0.847987	0.051712	-0.304680
C102	C	1.347987	0.551712	0.195320
C103	C	0.847982	0.051710	-0.228036
C104	C	1.347982	0.551710	0.271964
N105	N	0.827460	0.092223	-0.463338
N106	N	1.327460	0.592223	0.036662
N107	N	0.827468	0.092229	-0.536146
N108	N	1.327468	0.592229	-0.036146
C109	C	0.893761	0.094019	-0.573909
C110	C	1.393761	0.594019	-0.073909
N111	N	0.960048	0.095816	-0.536113
N112	N	1.460048	0.595816	-0.036113
N113	N	0.960039	0.095813	-0.463298
N114	N	1.460039	0.595813	0.036702
C115	C	0.893747	0.094013	-0.426093
C116	C	1.393747	0.594013	0.073907
C117	C	0.939534	0.136315	-0.695313
C118	C	1.439534	0.636315	-0.195313
C119	C	0.939548	0.136308	-0.771960
C120	C	1.439548	0.636308	-0.271960
C121	C	0.848026	0.051718	-0.771996
C122	C	1.348026	0.551718	-0.271996
C123	C	0.848018	0.051720	-0.695351
C124	C	1.348018	0.551720	-0.195351
C125	C	0.893772	0.094023	-0.657014
C126	C	1.393772	0.594023	-0.157014
N127	N	0.893792	0.094017	0.189701
N128	N	1.393792	0.594017	0.689701
H129	H	0.123520	0.090029	0.120430
H130	H	0.623520	0.590029	0.620430
Cl131	Cl	0.790478	-0.001441	-0.647203
Cl132	Cl	1.290478	0.498559	-0.147203
H133	H	0.976763	0.170750	-0.335830
H134	H	1.476763	0.670750	0.164170
H135	H	0.810770	0.017284	-0.803215
H136	H	1.310770	0.517284	-0.303215
H137	H	0.771109	-0.234718	-0.000001
H138	H	1.271109	0.265282	0.499999
H139	H	0.266728	0.092134	0.120432
H140	H	0.766728	0.592134	0.620432
H141	H	0.976790	0.170759	-0.664098
H142	H	1.476790	0.670759	-0.164098
Cl143	Cl	0.790466	-0.001455	-0.352883
Cl144	Cl	1.290466	0.498545	0.147117
H145	H	0.520816	0.095886	0.120424
H146	H	1.020816	0.595886	0.620424
H147	H	0.773213	-0.102597	-0.000005
H148	H	1.273213	0.397403	0.499995
H149	H	0.766121	-0.546620	0.000022
H150	H	1.266121	-0.046620	0.500022
Cl151	Cl	0.790451	-0.001462	-0.179888
Cl152	Cl	1.290451	0.498538	0.320112
H153	H	0.520794	0.095880	-0.120417
H154	H	1.020794	0.595880	0.379583
Cl155	Cl	0.996994	0.189501	-0.179806
Cl156	Cl	1.496994	0.689501	0.320194
Cl157	Cl	0.997079	0.189481	-0.820106
Cl158	Cl	1.497079	0.689481	-0.320106
H159	H	0.664034	0.098005	0.120430
H160	H	1.164034	0.598005	0.620430
Cl161	Cl	1.047222	-0.564863	-0.000011
Cl162	Cl	1.547222	-0.064863	0.499989
Cl163	Cl	1.044594	-0.729232	0.000026
Cl164	Cl	1.544594	-0.229232	0.500026
H165	H	0.123483	0.090030	-0.120417
H166	H	0.623483	0.590030	0.379583
H167	H	0.764011	-0.678737	0.000036
H168	H	1.264011	-0.178737	0.500036
Cl169	Cl	1.051687	-0.285214	-0.000021
Cl170	Cl	1.551687	0.214786	0.499979
Cl171	Cl	1.054316	-0.120845	-0.000023
Cl172	Cl	1.554316	0.379155	0.499977
Cl173	Cl	0.681475	0.098272	-0.149814
Cl174	Cl	1.181475	0.598272	0.350186
H175	H	0.266701	0.092145	-0.120417
H176	H	0.766701	0.592145	0.379583
