data_functionalizedCrystal
_audit_creation_method	'MofGen! by Chris Wilmer'
_symmetry_space_group_name_H-M	'P1'
_symmetry_Int_Tables_number	1
_symmetry_cell_setting	triclinic
loop_
_symmetry_equiv_pos_as_xyz
  x,y,z
_cell_length_a	17.699077
_cell_length_b	11.792253
_cell_length_c	10.868271
_cell_angle_alpha	90.010695
_cell_angle_beta	89.996241
_cell_angle_gamma	96.260413
loop_
_atom_site_label
_atom_site_type_symbol
_atom_site_fract_x
_atom_site_fract_y
_atom_site_fract_z
O1	O	1.004848	-0.143492	-0.102321
O2	O	1.504848	0.356508	0.397679
O3	O	0.784569	-0.162172	-0.102329
O4	O	1.284569	0.337828	0.397671
O5	O	0.900049	0.012402	-0.102299
O6	O	1.400049	0.512402	0.397701
O7	O	0.889368	-0.318065	-0.102351
O8	O	1.389368	0.181935	0.397649
O9	O	0.900039	0.012409	0.102345
O10	O	1.400039	0.512409	0.602345
O11	O	0.784559	-0.162165	0.102316
O12	O	1.284559	0.337835	0.602316
O13	O	1.004838	-0.143485	0.102324
O14	O	1.504838	0.356515	0.602324
Zn15	Zn	0.894697	-0.152824	0.134811
Zn16	Zn	1.394697	0.347176	0.634811
Zn17	Zn	0.894710	-0.152833	-0.134817
Zn18	Zn	1.394710	0.347167	0.365183
O19	O	0.889358	-0.318059	0.102294
O20	O	1.389358	0.181941	0.602294
C21	C	0.756363	-0.161500	-0.000007
C22	C	1.256363	0.338500	0.499993
C23	C	0.672334	-0.159496	-0.000009
C24	C	1.172334	0.340504	0.499991
C25	C	0.632856	-0.158547	0.111544
C26	C	1.132856	0.341453	0.611544
C27	C	0.553904	-0.156646	0.111546
C28	C	1.053904	0.343354	0.611546
C29	C	0.514429	-0.155700	-0.000007
C30	C	1.014429	0.344300	0.499993
C31	C	0.553913	-0.156645	-0.111569
C32	C	1.053913	0.343355	0.388431
C33	C	0.632865	-0.158539	-0.111570
C34	C	1.132865	0.341461	0.388430
C35	C	0.235509	-0.149008	-0.111570
C36	C	0.735509	0.350992	0.388430
C37	C	0.156551	-0.147117	-0.111562
C38	C	0.656551	0.352883	0.388438
C39	C	0.156548	-0.147114	0.111545
C40	C	0.656548	0.352886	0.611545
C41	C	0.235500	-0.149008	0.111544
C42	C	0.735500	0.350992	0.611544
C43	C	0.274977	-0.149947	-0.000017
C44	C	0.774977	0.350053	0.499983
C45	C	0.360586	-0.152007	-0.000017
C46	C	0.860586	0.347993	0.499983
C47	C	0.428821	-0.153649	-0.000008
C48	C	0.928821	0.346351	0.499992
C49	C	0.899371	0.054688	0.000027
C50	C	1.399371	0.554688	0.500027
C51	C	0.897357	0.180677	0.000039
C52	C	1.397357	0.680677	0.500039
C53	C	0.895721	0.282994	0.000045
C54	C	1.395721	0.782994	0.500045
C55	C	0.893675	0.411356	0.000046
C56	C	1.393675	0.911356	0.500046
C57	C	1.033043	-0.144156	-0.000001
C58	C	1.533043	0.355844	0.499999
C59	C	1.117072	-0.146161	-0.000007
C60	C	1.617072	0.353839	0.499993
N61	N	0.894694	-0.152817	0.318825
N62	N	1.394694	0.347183	0.818825
C63	C	0.890036	0.639655	-0.000009
C64	C	1.390036	1.139655	0.499991
C65	C	0.892050	0.513667	0.000047
C66	C	1.392050	1.013667	0.500047
N67	N	0.894719	-0.152830	-0.318831
N68	N	1.394719	0.347170	0.181169
C69	C	0.894706	-0.152830	0.569831
C70	C	1.394706	0.347170	1.069831
C71	C	0.894697	-0.152826	0.430154
C72	C	1.394697	0.347174	0.930154
H73	H	0.124396	-0.146345	0.202383
H74	H	0.624396	0.353655	0.702383
H75	H	0.521767	-0.155868	-0.202398
H76	H	1.021767	0.344132	0.297602
H77	H	0.664990	-0.159326	0.202384
H78	H	1.164990	0.340674	0.702384
Cl79	Cl	0.106927	-0.145927	-0.251811
Cl80	Cl	0.606927	0.354073	0.248189
Cl81	Cl	0.504276	-0.155474	0.251791
Cl82	Cl	1.004276	0.344526	0.751791
H83	H	0.665006	-0.159313	-0.202408
H84	H	1.165006	0.340687	0.297592
Cl85	Cl	0.285120	-0.150203	0.251788
Cl86	Cl	0.785120	0.349797	0.751788
Cl87	Cl	0.285127	-0.150190	-0.251819
Cl88	Cl	0.785127	0.349810	0.248181
