data_functionalizedCrystal
_audit_creation_method	'MofGen! by Chris Wilmer'
_symmetry_space_group_name_H-M	'P1'
_symmetry_Int_Tables_number	1
_symmetry_cell_setting	triclinic
loop_
_symmetry_equiv_pos_as_xyz
  x,y,z
_cell_length_a	12.759401
_cell_length_b	19.077600
_cell_length_c	12.759393
_cell_angle_alpha	87.736498
_cell_angle_beta	89.980324
_cell_angle_gamma	92.259727
loop_
_atom_site_label
_atom_site_type_symbol
_atom_site_fract_x
_atom_site_fract_y
_atom_site_fract_z
Zn1	Zn	1.622898	0.280138	-0.610756
Zn2	Zn	1.629777	0.397843	-0.442123
Zn3	Zn	1.447199	0.280173	-0.435097
Zn4	Zn	1.454173	0.397791	-0.617761
O5	O	1.538512	0.338986	-0.526434
O6	O	1.770832	0.295758	-0.588395
O7	O	1.605517	0.382270	-0.294172
O8	O	1.464708	0.181685	-0.452527
O9	O	1.775886	0.382236	-0.464501
O10	O	1.593793	0.181659	-0.581583
O11	O	1.471378	0.295818	-0.289010
O12	O	1.301102	0.295769	-0.459319
O13	O	1.476595	0.382148	-0.763850
O14	O	1.306227	0.382182	-0.593521
O15	O	1.600556	0.295709	-0.758704
O16	O	1.612281	0.496319	-0.471293
O17	O	1.483265	0.496282	-0.600334
C18	C	1.265544	0.338974	-0.526419
C19	C	1.148768	0.338986	-0.526438
C20	C	1.549305	0.521836	-0.537359
C21	C	1.554018	0.600060	-0.542068
C22	C	1.587843	1.040370	-0.575814
C23	C	1.583403	0.966870	-0.571380
C24	C	1.514028	0.930200	-0.501926
C25	C	1.449097	0.967034	-0.436894
C26	C	1.453543	1.040532	-0.441323
C27	C	1.493534	0.710392	-0.481465
C28	C	1.489090	0.636888	-0.477043
C29	C	1.623398	0.636730	-0.611528
C30	C	1.627833	0.710230	-0.615956
C31	C	1.562907	0.747057	-0.550920
N32	N	1.509485	0.855072	-0.497395
N33	N	1.567455	0.822184	-0.555446
C34	C	1.091280	0.294038	-0.591058
C35	C	0.981556	0.294046	-0.591065
C36	C	0.986819	0.383954	-0.461830
C37	C	1.096540	0.383942	-0.461818
C38	C	1.812546	0.338999	-0.526450
C39	C	1.929323	0.339004	-0.526457
C40	C	1.527658	1.155422	-0.515480
C41	C	1.522915	1.077198	-0.510789
C42	C	1.538586	0.338919	-0.800464
C43	C	1.538618	0.338890	-0.917239
C44	C	1.603169	0.293874	-0.969422
C45	C	1.603185	0.293843	-1.079144
C46	C	1.474096	0.383851	-1.084490
C47	C	1.474076	0.383878	-0.974770
C48	C	1.538495	0.339003	-0.253468
C49	C	1.538655	0.338833	-0.136681
H50	H	1.644325	1.070221	-0.632382
O51	O	0.930482	0.432444	-0.392144
H52	H	0.950778	0.420299	-0.308989
H53	H	1.133800	0.257430	-0.643672
H54	H	1.684338	0.740082	-0.672501
O55	O	1.158558	0.432421	-0.392114
H56	H	1.103810	0.463690	-0.347191
H57	H	1.392614	0.937173	-0.380337
O58	O	1.672770	0.245348	-0.907365
H59	H	1.717652	0.214036	-0.962089
O60	O	1.672814	0.245295	-1.135433
H61	H	1.717693	0.214022	-1.076991
O62	O	1.404493	0.432376	-1.146546
H63	H	1.321322	0.420299	-1.124761
O64	O	1.404418	0.432412	-0.918472
H65	H	1.359541	0.463691	-0.976909
O66	O	1.693437	0.597012	-0.681660
H67	H	1.678701	0.539743	-0.666908
O68	O	0.919546	0.245566	-0.660760
H69	H	0.941349	0.257705	-0.743911
H70	H	1.636273	0.936885	-0.624328
H71	H	1.432593	0.607035	-0.420481
H72	H	1.400672	1.070517	-0.388372
H73	H	1.440665	0.740368	-0.428508
