data_functionalizedCrystal
_audit_creation_method	'MofGen! by Chris Wilmer'
_symmetry_space_group_name_H-M	'P1'
_symmetry_Int_Tables_number	1
_symmetry_cell_setting	triclinic
loop_
_symmetry_equiv_pos_as_xyz
  x,y,z
_cell_length_a	12.759401
_cell_length_b	25.639240
_cell_length_c	12.759393
_cell_angle_alpha	90.038165
_cell_angle_beta	89.981565
_cell_angle_gamma	89.957793
loop_
_atom_site_label
_atom_site_type_symbol
_atom_site_fract_x
_atom_site_fract_y
_atom_site_fract_z
Zn1	Zn	1.606046	0.208138	-0.593928
Zn2	Zn	1.605854	0.295584	-0.418225
Zn3	Zn	1.430349	0.208162	-0.418267
Zn4	Zn	1.430250	0.295543	-0.593866
O5	O	1.518125	0.251857	-0.506072
O6	O	1.753042	0.219745	-0.570629
O7	O	1.582533	0.284014	-0.271210
O8	O	1.453777	0.134994	-0.441613
O9	O	1.752900	0.283991	-0.441541
O10	O	1.582862	0.134976	-0.570670
O11	O	1.453591	0.219786	-0.271241
O12	O	1.283314	0.219747	-0.441553
O13	O	1.453609	0.283922	-0.740896
O14	O	1.283242	0.283945	-0.570565
O15	O	1.582766	0.219706	-0.740941
O16	O	1.582437	0.368743	-0.441481
O17	O	1.453422	0.368714	-0.570524
C18	C	1.245157	0.251845	-0.506057
C19	C	1.128381	0.251852	-0.506076
C20	C	1.073585	0.218462	-0.573396
C21	C	0.963861	0.218472	-0.573403
C22	C	0.963737	0.285266	-0.438766
C23	C	1.073459	0.285253	-0.438755
C24	C	1.073656	0.179901	-0.651131
C25	C	0.963932	0.179911	-0.651138
C26	C	1.517926	0.387699	-0.506014
C27	C	1.517938	0.445813	-0.506024
C28	C	1.585391	0.806179	-0.438953
C29	C	1.585423	0.860784	-0.438963
O30	O	1.642635	0.889023	-0.381905
N31	N	1.518209	0.888096	-0.506095
C32	C	1.450966	0.860801	-0.573229
O33	O	1.393799	0.889046	-0.630331
C34	C	1.450940	0.806198	-0.573223
C35	C	1.518151	0.778888	-0.506079
C36	C	1.652597	0.778870	-0.371816
C37	C	1.652564	0.724269	-0.371805
C38	C	1.585324	0.696978	-0.438931
C39	C	1.518117	0.724288	-0.506068
C40	C	1.383703	0.778904	-0.640361
C41	C	1.383683	0.724297	-0.640350
C42	C	1.450894	0.696987	-0.573207
C43	C	1.450843	0.642396	-0.573183
N44	N	1.518057	0.615084	-0.506051
C45	C	1.585298	0.642375	-0.438925
C46	C	1.451027	0.975472	-0.573237
C47	C	1.451047	1.030074	-0.573238
C48	C	1.585506	1.030053	-0.438973
C49	C	1.585480	0.975450	-0.438968
C50	C	1.518241	0.948159	-0.506105
C51	C	1.585221	0.527710	-0.438906
C52	C	1.585178	0.473105	-0.438898
C53	C	1.450724	0.473130	-0.573165
C54	C	1.450762	0.527731	-0.573170
C55	C	1.518019	0.555019	-0.506037
O56	O	1.393664	0.614122	-0.630216
O57	O	1.642465	0.614123	-0.381842
C58	C	1.792158	0.251870	-0.506087
C59	C	1.908934	0.251875	-0.506093
C60	C	1.518197	0.251806	-0.780105
C61	C	1.518229	0.251785	-0.896882
C62	C	1.518312	1.115484	-0.506135
C63	C	1.518292	1.057370	-0.506115
C64	C	1.585513	0.218319	-1.061494
C65	C	1.585488	0.218341	-0.951770
C66	C	1.450998	0.285213	-0.951724
C67	C	1.451029	0.285193	-1.061446
C68	C	1.663157	0.179710	-1.061520
C69	C	1.663132	0.179732	-0.951796
C70	C	1.518112	0.251869	-0.233104
C71	C	1.518285	0.251744	-0.116328
H72	H	1.639909	0.450871	-0.384218
H73	H	1.118070	0.312437	-0.383926
C74	C	1.436270	0.355561	-0.828281
C75	C	1.377074	0.321977	-0.891384
H76	H	1.390630	0.378255	-0.791026
H77	H	1.482010	0.375553	-0.871080
H78	H	1.476304	0.335650	-0.779929
H79	H	1.337045	0.341887	-0.939742
H80	H	1.331315	0.301983	-0.848582
H81	H	1.641396	0.139242	-0.922041
H82	H	1.396295	0.312415	-1.106087
C83	C	1.667233	0.662917	-0.230467
C84	C	1.726455	0.694258	-0.298004
H85	H	1.712857	0.644395	-0.184901
H86	H	1.627200	0.638843	-0.270435
H87	H	1.621490	0.684260	-0.190249
H88	H	1.772192	0.672914	-0.338228
H89	H	1.766505	0.718334	-0.258032
H90	H	1.396037	0.549967	-0.627847
C91	C	0.795485	0.314944	-0.379000
C92	C	0.903364	0.321983	-0.364776
H93	H	0.758217	0.337615	-0.333325
H94	H	0.777540	0.279812	-0.363754
H95	H	0.777535	0.322640	-0.449567
H96	H	0.921316	0.314283	-0.294211
H97	H	0.921316	0.357123	-0.380015
C98	C	1.077304	0.111843	-0.522012
C99	C	1.113912	0.125219	-0.621902
H100	H	1.102165	0.078087	-0.503964
H101	H	1.002863	0.111849	-0.522026
H102	H	1.102075	0.136518	-0.472297
H103	H	1.089134	0.100546	-0.671618
H104	H	1.188368	0.125208	-0.621895
C105	C	1.718113	0.522190	-0.306178
C106	C	1.659143	0.557700	-0.365105
H107	H	1.763739	0.540705	-0.260610
H108	H	1.758261	0.500857	-0.351986
H109	H	1.672327	0.500929	-0.265960
H110	H	1.704928	0.578958	-0.405329
H111	H	1.618991	0.579041	-0.319291
H112	H	0.929928	0.141429	-0.622148
H113	H	1.395974	0.450901	-0.627816
H114	H	0.934175	0.190808	-0.732471
C115	C	1.785482	0.773350	-0.239094
C116	C	1.726510	0.808862	-0.298015
H117	H	1.831106	0.791864	-0.193521
H118	H	1.825633	0.752021	-0.284905
H119	H	1.739698	0.752087	-0.198881
H120	H	1.772295	0.830123	-0.338234
H121	H	1.686356	0.830200	-0.252198
H122	H	1.107706	0.194449	-0.728365
H123	H	1.640260	1.052283	-0.384319
C124	C	1.600133	0.914091	-0.297641
C125	C	1.659364	0.945434	-0.365167
H126	H	1.645750	0.895566	-0.252075
H127	H	1.560101	0.890021	-0.337618
H128	H	1.554388	0.935434	-0.257423
H129	H	1.705103	0.924091	-0.405390
H130	H	1.699414	0.969507	-0.325186
H131	H	1.396308	1.052305	-0.627903
H132	H	1.396265	0.953254	-0.627904
C133	C	1.839565	0.203254	-1.016360
C134	C	1.772984	0.194351	-1.101722
H135	H	1.907362	0.212296	-1.041182
H136	H	1.844030	0.172536	-0.975027
H137	H	1.812463	0.230975	-0.974989
H138	H	1.800082	0.166628	-1.143090
H139	H	1.768522	0.225072	-1.143073
H140	H	1.328968	0.801130	-0.695032
H141	H	1.634079	0.141239	-1.095576
H142	H	1.740395	0.194247	-0.917761
C143	C	1.250791	0.729806	-0.773081
C144	C	1.309771	0.694300	-0.714152
H145	H	1.205158	0.711287	-0.818637
H146	H	1.296562	0.751064	-0.813302
H147	H	1.210640	0.751141	-0.727264
H148	H	1.349928	0.672967	-0.759968
H149	H	1.263994	0.673033	-0.673928
