data_functionalizedCrystal
_audit_creation_method	'MofGen! by Chris Wilmer'
_symmetry_space_group_name_H-M	'P1'
_symmetry_Int_Tables_number	1
_symmetry_cell_setting	triclinic
loop_
_symmetry_equiv_pos_as_xyz
  x,y,z
_cell_length_a	23.096457
_cell_length_b	17.052862
_cell_length_c	17.052862
_cell_angle_alpha	61.493325
_cell_angle_beta	89.997784
_cell_angle_gamma	70.263778
loop_
_atom_site_label
_atom_site_type_symbol
_atom_site_fract_x
_atom_site_fract_y
_atom_site_fract_z
Zr1	Zr	0.671028	0.816691	-0.200494
O2	O	0.607088	0.944585	-0.328619
O3	O	0.676551	0.665970	-0.146304
O4	O	0.707577	0.783773	-0.307118
O5	O	0.567604	0.860708	-0.057917
O6	O	0.802858	0.783774	-0.307122
O7	O	0.576063	0.826781	-0.167805
O8	O	0.747359	0.573045	-0.019455
O9	O	0.623102	1.071437	-0.345584
O10	O	0.767022	0.736419	-0.141213
O11	O	0.689602	0.761737	-0.059202
O12	O	0.726130	0.900436	-0.248540
O13	O	0.648710	0.925754	-0.166528
Zr14	Zr	0.809499	0.870802	-0.025242
Zr15	Zr	0.822990	0.816693	-0.200501
Zr16	Zr	0.657536	0.870800	-0.025235
Zr17	Zr	0.696568	1.019006	-0.227551
Zr18	Zr	0.783958	0.668487	0.001815
O19	O	0.803975	1.021523	-0.079433
O20	O	0.823159	0.944587	-0.328629
O21	O	0.587905	1.021521	-0.079423
O22	O	0.873439	0.742908	0.102882
O23	O	0.892622	0.665972	-0.146313
O24	O	0.657368	0.742906	0.102892
O25	O	0.912923	0.826785	-0.167820
O26	O	0.772950	0.903720	0.081381
O27	O	0.677669	0.903719	0.081385
O28	O	0.904464	0.860711	-0.057932
O29	O	0.743892	1.071438	-0.345589
O30	O	0.736635	0.616055	0.119853
O31	O	0.857425	0.616056	0.119847
O32	O	0.868149	0.573046	-0.019460
O33	O	0.612378	1.114447	-0.206276
O34	O	0.733167	1.114448	-0.206282
O35	O	0.754396	0.787057	0.022803
O36	O	0.831816	0.761739	-0.059208
O37	O	0.790924	0.925755	-0.166535
O38	O	0.713504	0.951074	-0.084523
C39	C	0.708316	0.590682	-0.079024
C40	C	0.697474	0.504794	-0.067538
C41	C	0.828560	0.209831	-0.206409
C42	C	0.838746	0.290530	-0.217207
C43	C	0.803429	0.344100	-0.179790
C44	C	0.757924	0.316963	-0.131574
C45	C	0.747734	0.236261	-0.120781
C46	C	0.722603	0.370530	-0.094163
C47	C	0.677097	0.343393	-0.045947
C48	C	0.666909	0.262698	-0.035155
C49	C	0.702226	0.209129	-0.072571
C50	C	0.732793	0.451232	-0.104956
C51	C	0.651966	0.477662	-0.019328
C52	C	0.641780	0.396963	-0.008530
C53	C	0.550182	0.843745	-0.112860
C54	C	0.485670	0.843744	-0.112857
C55	C	0.476710	0.758130	-0.056842
C56	C	0.416094	0.758129	-0.056838
C57	C	0.364440	0.843744	-0.112866
C58	C	0.373404	0.929371	-0.168885
C59	C	0.434019	0.929371	-0.168880
N60	N	0.256295	0.895799	-0.192377
N61	N	0.198715	0.895793	-0.192379
C62	C	0.181810	0.843749	-0.112882
N63	N	0.224664	0.791695	-0.033382
N64	N	0.282250	0.791698	-0.033381
C65	C	0.298711	0.843753	-0.112877
C66	C	0.107125	0.758129	-0.056858
C67	C	0.046507	0.758133	-0.056852
C68	C	0.003818	0.929375	-0.168908
C69	C	0.064435	0.929370	-0.168905
C70	C	0.116086	0.843743	-0.112881
C71	C	0.930345	0.843748	-0.112877
C72	C	0.994857	0.843749	-0.112880
C73	C	0.757139	0.776064	-0.332091
C74	C	0.762867	0.753093	-0.406493
C75	C	0.772210	1.096811	-0.146713
C76	C	0.783053	1.182699	-0.158199
C77	C	0.693621	1.030811	-0.840318
C78	C	0.688236	1.052396	-0.770416
C79	C	0.706894	0.977572	-0.679432
C80	C	0.730937	0.881159	-0.658357
C81	C	0.736318	0.859572	-0.728266
C82	C	0.749590	0.806334	-0.567380
C83	C	0.773633	0.709920	-0.546304
C84	C	0.779013	0.688337	-0.616208
C85	C	0.760356	0.763161	-0.707192
C86	C	0.744209	0.827921	-0.497471
C87	C	0.786905	0.656682	-0.385418
C88	C	0.792290	0.635097	-0.455321
C89	C	0.723387	0.911429	0.106354
C90	C	0.717660	0.934400	0.180756
C91	C	0.898398	0.590684	-0.079033
C92	C	0.952067	0.504797	-0.067549
C93	C	0.691440	0.658364	0.140198
C94	C	0.674870	0.595447	0.226087
C95	C	0.881522	0.658366	0.140189
C96	C	0.929464	0.595450	0.226075
C97	C	0.599005	1.029127	-0.365926
C98	C	0.551063	1.092043	-0.451812
C99	C	0.582129	1.096809	-0.146704
C100	C	0.528459	1.182696	-0.158187
C101	C	0.789086	1.029129	-0.365935
C102	C	0.805656	1.092045	-0.451823
C103	C	0.943450	0.451244	-0.104970
C104	C	0.993875	0.370550	-0.094198
C105	C	1.052915	0.343406	-0.045999
C106	C	1.061533	0.396967	-0.008579
C107	C	1.011109	0.477663	-0.019357
C108	C	0.700910	0.579120	0.309234
C109	C	0.685339	0.520016	0.389940
C110	C	0.643731	0.477235	0.387498
C111	C	0.617689	0.493568	0.304342
C112	C	0.633256	0.552677	0.223636
C113	C	0.992396	0.552688	0.223599
C114	C	1.037451	0.493580	0.304289
C115	C	1.019570	0.477231	0.387456
C116	C	0.956631	0.520000	0.389929
C117	C	0.911579	0.579112	0.309239
C118	C	0.488131	1.134815	-0.449337
C119	C	0.443080	1.193948	-0.530030
C120	C	0.460962	1.210301	-0.613197
C121	C	0.523900	1.167527	-0.615671
C122	C	0.568950	1.108401	-0.534979
C123	C	0.537079	1.236255	-0.120776
C124	C	0.486658	1.316965	-0.131570
C125	C	0.427618	1.344111	-0.179771
C126	C	0.419000	1.290548	-0.217188
C127	C	0.469421	1.209843	-0.206399
C128	C	0.847266	1.134809	-0.449352
C129	C	0.862847	1.193917	-0.530045
C130	C	0.836815	1.210267	-0.613209
C131	C	0.795203	1.167496	-0.615678
C132	C	0.779626	1.108383	-0.534985
H133	H	0.811725	0.409807	-0.188585
H134	H	0.391836	1.228766	-0.527999
H135	H	0.623207	0.521281	0.011137
H136	H	0.612051	0.565960	0.155938
H137	H	0.724632	0.906422	-0.514640
C138	C	0.807415	0.574372	-0.285343
H139	H	0.800768	0.601036	-0.246728
H140	H	0.783479	0.535668	-0.273791
H141	H	0.850651	0.535644	-0.273765
H142	H	0.424272	1.258447	-0.678895
C143	C	0.713992	0.502053	0.481403
H144	H	0.698759	0.460734	0.529123
H145	H	0.758377	0.472461	0.491738
H146	H	0.702504	0.561891	0.479775
H147	H	0.734789	0.613948	0.311239
H148	H	0.764740	0.745592	-0.764117
H149	H	1.018134	0.521259	0.011122
C150	C	0.543560	1.185514	-0.707156
H151	H	0.507711	1.226843	-0.754851
H152	H	0.573194	1.215101	-0.717516
H153	H	0.561894	1.125683	-0.705546
H154	H	0.895382	0.473339	-0.144228
H155	H	0.875795	0.312622	-0.256465
H156	H	0.849504	1.258403	-0.678908
H157	H	0.473559	1.121503	-0.381625
C158	C	0.406230	0.663951	0.004775
H159	H	0.362731	0.676218	-0.003250
H160	H	0.427917	0.616819	-0.010939
H161	H	0.421948	0.640724	0.066531
C162	C	0.875908	1.116830	-0.357879
H163	H	0.860672	1.075506	-0.310167
H164	H	0.920293	1.087237	-0.347540
H165	H	0.864420	1.176662	-0.359495
H166	H	0.604729	0.374857	0.030727
C167	C	0.842353	0.626133	0.311976
H168	H	0.838161	0.607916	0.373067
H169	H	0.828731	0.694453	0.276300
H170	H	0.817460	0.605017	0.288267
H171	H	0.896728	1.228738	-0.528017
C172	C	0.733847	1.061362	-0.537717
H173	H	0.720572	1.079579	-0.598807
H174	H	0.754291	0.993041	-0.502042
H175	H	0.698424	1.082477	-0.514005
H176	H	0.986846	0.326949	-0.124672
H177	H	1.056261	0.429096	0.453152
H178	H	0.702507	0.995153	-0.622518
C179	C	1.108374	0.254633	-0.034141
H180	H	1.094778	0.226625	-0.063324
H181	H	1.140904	0.273995	-0.060596
H182	H	1.123644	0.208498	0.028823
C183	C	1.012074	0.570667	0.132124
H184	H	0.976233	0.611990	0.084415
H185	H	1.041703	0.600261	0.121781
H186	H	1.030421	0.510835	0.133740
C187	C	0.459930	1.150926	-0.247542
H188	H	0.417544	1.178652	-0.277783
H189	H	0.486816	1.151632	-0.289824
H190	H	0.469561	1.086146	-0.200395
H191	H	0.620191	1.073573	-0.537004
C192	C	0.661794	1.158441	-0.793599
H193	H	0.651458	1.199911	-0.857795
H194	H	0.625226	1.170418	-0.768654
H195	H	0.692392	1.170422	-0.768661
C196	C	0.766567	1.185496	-0.707164
H197	H	0.781801	1.226837	-0.754862
H198	H	0.778047	1.125680	-0.705569
H199	H	0.722178	1.215102	-0.717510
H200	H	0.769844	0.473319	-0.144214
H201	H	1.109610	0.374854	0.030664
C202	C	0.867402	0.150912	-0.247565
H203	H	0.895962	0.178630	-0.277829
H204	H	0.890062	0.086130	-0.200431
H205	H	0.840144	0.151645	-0.289846
H206	H	0.583810	0.458728	0.302367
H207	H	0.631060	0.429107	0.453220
H208	H	0.386567	1.409828	-0.188550
C209	C	0.818730	0.529049	-0.432147
H210	H	0.819257	0.526914	-0.486813
H211	H	0.860200	0.497405	-0.397673
H212	H	0.793033	0.497409	-0.397671
C213	C	0.691021	0.120361	-0.060698
H214	H	0.718571	0.092349	-0.089890
H215	H	0.698744	0.074236	0.002261
H216	H	0.648832	0.139743	-0.087161
H217	H	0.942081	0.506679	0.457654
C218	C	0.616845	0.232863	0.017862
H219	H	0.597272	0.276320	0.038604
H220	H	0.586237	0.234689	-0.020862
H221	H	0.636144	0.169177	0.068565
C222	C	0.074293	1.023544	-0.230533
H223	H	0.034849	1.074533	-0.263908
H224	H	0.094068	1.039063	-0.194135
H225	H	0.100034	1.015140	-0.271593
H226	H	1.088695	0.458761	0.302259
H227	H	0.585147	1.214162	-0.081520
H228	H	0.493686	1.360566	-0.101095
C229	C	0.805453	0.582288	-0.593030
H230	H	0.805980	0.580149	-0.647693
H231	H	0.846923	0.550645	-0.558556
H232	H	0.779755	0.550649	-0.558551
C233	C	0.354054	1.320407	-0.270199
H234	H	0.356136	1.276958	-0.290944
H235	H	0.324358	1.318592	-0.231470
H236	H	0.341605	1.384094	-0.320899
C237	C	0.533524	0.663950	0.004790
H238	H	0.570909	0.676208	-0.003231
H239	H	0.529373	0.640728	0.066537
H240	H	0.535345	0.616813	-0.010927
C241	C	0.316588	1.023544	-0.230516
H242	H	0.279205	1.011280	-0.222504
H243	H	0.314765	1.070681	-0.214807
H244	H	0.320738	1.046762	-0.292268
H245	H	0.441310	0.999092	-0.214493
H246	H	0.039216	0.688414	-0.011232
C247	C	0.163941	0.663950	0.004779
H248	H	0.149920	0.612963	0.038154
H249	H	0.191461	0.648425	-0.031613
H250	H	0.185486	0.672359	0.045839
H251	H	0.678429	1.091722	-0.914398
H252	H	-0.038239	0.999084	-0.214527
