data_functionalizedCrystal
_audit_creation_method	'MofGen! by Chris Wilmer'
_symmetry_space_group_name_H-M	'P1'
_symmetry_Int_Tables_number	1
_symmetry_cell_setting	triclinic
loop_
_symmetry_equiv_pos_as_xyz
  x,y,z
_cell_length_a	15.298206
_cell_length_b	21.295417
_cell_length_c	15.296720
_cell_angle_alpha	99.639335
_cell_angle_beta	110.778255
_cell_angle_gamma	80.368721
loop_
_atom_site_label
_atom_site_type_symbol
_atom_site_fract_x
_atom_site_fract_y
_atom_site_fract_z
Zn1	Zn	1.330553	-0.444824	-0.279328
Zn2	Zn	1.357357	-0.534555	-0.123821
Zn3	Zn	1.201973	-0.413818	-0.150789
Zn4	Zn	1.174999	-0.534546	-0.306241
O5	O	1.266221	-0.481936	-0.215045
O6	O	1.464237	-0.469707	-0.236150
O7	O	1.359251	-0.505567	0.002738
O8	O	1.219101	-0.329853	-0.167863
O9	O	1.483930	-0.535633	-0.121900
O10	O	1.313568	-0.352633	-0.262300
O11	O	1.245091	-0.416862	-0.017075
O12	O	1.068267	-0.416852	-0.193960
O13	O	1.173128	-0.535616	-0.432808
O14	O	1.048449	-0.505551	-0.308170
O15	O	1.287412	-0.469698	-0.413035
O16	O	1.333096	-0.622632	-0.147997
O17	O	1.199118	-0.622625	-0.282020
C18	C	1.024617	-0.457836	-0.256912
C19	C	0.921254	-0.447544	-0.274845
C20	C	0.862431	-0.408456	-0.342851
C21	C	0.765316	-0.398780	-0.359702
C22	C	0.727014	-0.428194	-0.308555
C23	C	0.785836	-0.467286	-0.240552
C24	C	0.882962	-0.476959	-0.223694
C25	C	0.747544	-0.496697	-0.189397
C26	C	0.806367	-0.535789	-0.121395
C27	C	0.903483	-0.545461	-0.104540
C28	C	0.941785	-0.516047	-0.155688
C29	C	0.650419	-0.487024	-0.206255
C30	C	0.670950	-0.555527	-0.087098
C31	C	0.768065	-0.565203	-0.070247
C32	C	1.266110	-0.645471	-0.215018
C33	C	1.266143	-0.715443	-0.215023
C34	C	1.315290	-0.760115	-0.264245
C35	C	1.315319	-0.825863	-0.264262
C36	C	1.266213	-0.846936	-0.215040
C37	C	1.217055	-0.802255	-0.165816
C38	C	1.217019	-0.736508	-0.165808
N39	N	1.273283	-0.941373	-0.134867
N40	N	1.273322	-1.003830	-0.134876
C41	C	1.266314	-1.045026	-0.215063
N42	N	1.259285	-1.021407	-0.295238
N43	N	1.259252	-0.958944	-0.295227
C44	C	1.266245	-0.918226	-0.215043
C45	C	1.315496	-1.160990	-0.264307
C46	C	1.315518	-1.226739	-0.264327
C47	C	1.217259	-1.203129	-0.165872
C48	C	1.217231	-1.137382	-0.165861
C49	C	1.266354	-1.116317	-0.215077
C50	C	1.508768	-0.506130	-0.173015
C51	C	1.612127	-0.516440	-0.155104
C52	C	1.224271	-0.506115	-0.457608
C53	C	1.206395	-0.516418	-0.560974
C54	C	1.266353	-0.317767	-0.215087
C55	C	1.266410	-0.247807	-0.215106
C56	C	1.394020	-0.408187	-0.811165
C57	C	1.410822	-0.398508	-0.714047
C58	C	1.359716	-0.427985	-0.675774
C59	C	1.291807	-0.467142	-0.734629
C60	C	1.275009	-0.476826	-0.831756
C61	C	1.240705	-0.496624	-0.696365
C62	C	1.172795	-0.535781	-0.755220
C63	C	1.156000	-0.545463	-0.852337
C64	C	1.207105	-0.515987	-0.890610
C65	C	1.257503	-0.486940	-0.599237
C66	C	1.138492	-0.555579	-0.619828
C67	C	1.121690	-0.565258	-0.716947
C68	C	1.308060	-0.457811	0.026584
C69	C	1.326117	-0.447348	0.129981
H70	H	0.717429	-0.366953	-0.415071
O71	O	0.629652	-0.587252	-0.031919
H72	H	0.645538	-0.640104	-0.044490
O73	O	1.368473	-1.138265	-0.317390
H74	H	1.318627	-1.108874	-0.371878
H75	H	0.815972	-0.597032	-0.014878
H76	H	1.355331	-0.862242	-0.304356
H77	H	1.177215	-1.101007	-0.125776
H78	H	0.647938	-0.420312	-0.322276
O79	O	1.082754	-0.587696	-0.915816
H80	H	1.101876	-0.636826	-0.894394
O81	O	0.903748	-0.376731	-0.398003
H82	H	0.846533	-0.347920	-0.448118
O83	O	1.046538	-0.526472	-0.137491
H84	H	1.063285	-0.499445	-0.184477
O85	O	1.048445	-0.607489	-0.780434
H86	H	1.067565	-0.656621	-0.759019
H87	H	1.355287	-0.742967	-0.304322
O88	O	0.586986	-0.444865	-0.279601
H89	H	0.549937	-0.404244	-0.245743
O90	O	0.966934	-0.587613	-0.031184
H91	H	0.923988	-0.606445	0.001548
H92	H	1.177070	-0.819417	-0.125741
H93	H	1.176997	-0.700134	-0.125725
H94	H	1.355538	-1.263112	-0.304414
H95	H	1.177269	-1.220286	-0.125801
O96	O	1.083354	-0.587354	-0.578548
H97	H	1.007160	-0.571128	-0.609847
H98	H	1.435628	-0.384196	-0.842336
O99	O	1.377824	-0.417542	-0.571026
H100	H	1.433624	-0.385356	-0.536532
H101	H	1.193429	-0.523866	-0.969691
O102	O	1.330742	-0.444708	-0.535761
H103	H	1.311609	-0.395576	-0.557175
H104	H	1.466116	-0.366628	-0.666133
