data_functionalizedCrystal
_audit_creation_method	'MofGen! by Chris Wilmer'
_symmetry_space_group_name_H-M	'P1'
_symmetry_Int_Tables_number	1
_symmetry_cell_setting	triclinic
loop_
_symmetry_equiv_pos_as_xyz
  x,y,z
_cell_length_a	14.519709
_cell_length_b	19.288859
_cell_length_c	12.996460
_cell_angle_alpha	90.005885
_cell_angle_beta	89.999966
_cell_angle_gamma	83.406935
loop_
_atom_site_label
_atom_site_type_symbol
_atom_site_fract_x
_atom_site_fract_y
_atom_site_fract_z
O1	O	1.223288	0.091051	0.085432
O2	O	0.954743	0.101774	0.085464
O3	O	1.096778	-0.004690	0.085441
O4	O	1.081253	0.197515	0.085455
O5	O	1.096764	-0.004696	-0.085693
O6	O	0.954728	0.101768	-0.085670
O7	O	1.223274	0.091045	-0.085702
Cu8	Cu	1.089000	0.096406	-0.101312
Cu9	Cu	1.089017	0.096413	0.101074
O10	O	1.081238	0.197509	-0.085679
C11	C	1.096273	-0.030571	-0.000125
C12	C	1.094776	-0.107681	-0.000123
C13	C	0.920379	0.101271	-0.000099
C14	C	0.818008	0.099774	-0.000087
C15	C	1.167990	-0.671458	-0.000105
C16	C	1.169405	-0.599006	-0.000114
C17	C	1.086065	-0.554599	-0.000104
C18	C	1.001305	-0.582649	-0.000111
C19	C	0.999893	-0.655100	-0.000112
C20	C	1.023916	-0.433547	0.059857
C21	C	1.025331	-0.361098	0.059865
C22	C	1.090417	-0.331138	-0.000105
C23	C	1.154102	-0.373636	-0.060070
C24	C	1.152690	-0.446087	-0.060070
C25	C	1.087587	-0.476038	-0.000103
C26	C	1.176706	-0.224536	-0.000116
C27	C	1.178117	-0.152083	-0.000132
C28	C	1.010014	-0.135727	-0.000118
C29	C	1.008605	-0.208179	-0.000113
C30	C	1.091954	-0.252579	-0.000107
C31	C	0.443147	0.094261	-0.000135
C32	C	0.547445	0.095792	-0.000121
C33	C	0.630574	0.097017	-0.000110
C34	C	0.734879	0.098548	-0.000099
C35	C	1.257638	0.091548	-0.000136
C36	C	1.360009	0.093046	-0.000141
C37	C	1.081744	0.223391	-0.000110
C38	C	1.083241	0.300500	-0.000106
N39	N	1.088994	0.096401	-0.243659
C40	C	1.089016	0.096414	-0.663473
C41	C	1.089007	0.096413	-0.546668
C42	C	1.089006	0.096408	-0.453570
C43	C	1.088996	0.096405	-0.336757
N44	N	1.089030	0.096413	0.243421
H45	H	1.235860	-0.707605	-0.000105
C46	C	0.952318	-0.466496	0.125841
N47	N	0.898394	-0.491313	0.175540
C48	C	1.222733	-0.492831	-0.126042
N49	N	1.275486	-0.528039	-0.175738
C50	C	1.271353	-0.121237	-0.000135
N51	N	1.341580	-0.098004	-0.000136
C52	C	0.909630	-0.533800	-0.000096
N53	N	0.840579	-0.497007	-0.000086
H54	H	0.930877	-0.677930	-0.000115
H55	H	0.942157	-0.099571	-0.000119
H56	H	0.973479	-0.326502	0.108696
C57	C	1.262640	-0.568153	-0.000103
N58	N	1.332864	-0.544916	-0.000092
H59	H	0.939593	-0.231011	-0.000106
H60	H	1.244573	-0.260689	-0.000112
C61	C	1.225702	-0.340686	-0.126042
N62	N	1.279630	-0.315864	-0.175730
