data_functionalizedCrystal
_audit_creation_method	'MofGen! by Chris Wilmer'
_symmetry_space_group_name_H-M	'P1'
_symmetry_Int_Tables_number	1
_symmetry_cell_setting	triclinic
loop_
_symmetry_equiv_pos_as_xyz
  x,y,z
_cell_length_a	9.616153
_cell_length_b	17.699083
_cell_length_c	17.699083
_cell_angle_alpha	96.716985
_cell_angle_beta	90.003155
_cell_angle_gamma	89.999170
loop_
_atom_site_label
_atom_site_type_symbol
_atom_site_fract_x
_atom_site_fract_y
_atom_site_fract_z
O1	O	0.115453	-1.004079	0.095708
O2	O	0.615453	-0.504079	0.595708
O3	O	0.115499	-0.783700	0.108161
O4	O	0.615499	-0.283700	0.608161
O5	O	0.115463	-0.900116	-0.008255
O6	O	0.615463	-0.400116	0.491745
O7	O	0.115490	-0.887663	0.212124
O8	O	0.615490	-0.387663	0.712124
O9	O	-0.115829	-0.900100	-0.008252
O10	O	0.384171	-0.400100	0.491748
O11	O	-0.115792	-0.783684	0.108163
O12	O	0.384208	-0.283684	0.608163
O13	O	-0.115838	-1.004063	0.095711
O14	O	0.384162	-0.504063	0.595711
Zn15	Zn	-0.152538	-0.893871	0.101937
Zn16	Zn	0.347462	-0.393871	0.601937
Zn17	Zn	0.152199	-0.893892	0.101934
Zn18	Zn	0.652199	-0.393892	0.601934
O19	O	-0.115801	-0.887647	0.212126
O20	O	0.384199	-0.387647	0.712126
C21	C	-0.000141	-0.755495	0.107716
C22	C	0.499859	-0.255495	0.607716
C23	C	-0.000123	-0.671477	0.106377
C24	C	0.499877	-0.171477	0.606377
N25	N	-0.360512	-0.893862	0.101939
N26	N	0.139488	-0.393862	0.601939
C27	C	-0.000183	-0.899662	-0.036451
C28	C	0.499817	-0.399662	0.463549
C29	C	-0.000183	-0.898323	-0.120469
C30	C	0.499817	-0.398323	0.379531
C31	C	-0.580862	-0.831402	0.164009
C32	C	-0.080862	-0.331402	0.664009
C33	C	-0.419695	-0.831535	0.164238
C34	C	0.080305	-0.331535	0.664238
C35	C	-0.418976	-0.972805	0.119044
C36	C	0.081024	-0.472805	0.619044
C37	C	-0.580193	-0.972464	0.119482
C38	C	-0.080193	-0.472464	0.619482
C39	C	-0.580429	-0.878170	0.022555
C40	C	-0.080429	-0.378170	0.522555
C41	C	-0.419202	-0.876348	0.023090
C42	C	0.080798	-0.376348	0.523090
N43	N	0.360173	-0.893907	0.101926
N44	N	0.860173	-0.393907	0.601926
C45	C	-0.000195	-1.032268	0.096156
C46	C	0.499805	-0.532268	0.596156
C47	C	-0.000203	-1.116286	0.097494
C48	C	0.499797	-0.616286	0.597494
C49	C	-0.000115	-0.622856	0.174710
C50	C	0.499885	-0.122856	0.674710
C51	C	-0.000134	-0.543913	0.173448
C52	C	0.499866	-0.043913	0.673448
C53	C	-0.000150	-0.513592	0.103852
C54	C	0.499850	-0.013592	0.603852
C55	C	-0.000162	-0.562219	0.035513
C56	C	0.499838	-0.062219	0.535513
C57	C	-0.000154	-0.641161	0.036776
C58	C	0.499846	-0.141161	0.536776
C59	C	-0.000197	-0.243856	0.030418
C60	C	0.499803	0.256144	0.530418
C61	C	-0.000201	-0.164908	0.029160
C62	C	0.499799	0.335092	0.529160
C63	C	-0.000177	-0.146608	0.167090
C64	C	0.499823	0.353392	0.667090
C65	C	-0.000169	-0.225550	0.168353
C66	C	0.499831	0.274450	0.668353
C67	C	-0.000188	-0.274170	0.100015
C68	C	0.499812	0.225830	0.600015
C69	C	-0.000171	-0.359769	0.101384
C70	C	0.499829	0.140231	0.601384
C71	C	-0.000157	-0.427995	0.102481
C72	C	0.499843	0.072005	0.602481
C73	C	-0.000199	-0.966656	-0.169090
C74	C	0.499801	-0.466656	0.330910
C75	C	-0.000187	-0.965394	-0.248033
C76	C	0.499813	-0.465394	0.251967
C77	C	-0.000168	-0.895798	-0.278354
C78	C	0.499832	-0.395798	0.221646
C79	C	-0.000148	-0.827459	-0.229727
C80	C	0.499852	-0.327459	0.270273
C81	C	-0.000150	-0.828722	-0.150785
C82	C	0.499850	-0.328722	0.349215
C83	C	-0.000135	-0.822364	-0.548090
C84	C	0.499865	-0.322364	-0.048090
C85	C	-0.000137	-0.821106	-0.627038
C86	C	0.499863	-0.321106	-0.127038
C87	C	-0.000172	-0.959036	-0.645338
C88	C	0.499828	-0.459036	-0.145338
C89	C	-0.000175	-0.960299	-0.566396
C90	C	0.499825	-0.460299	-0.066396
C91	C	-0.000147	-0.891961	-0.517776
C92	C	0.499853	-0.391961	-0.017776
C93	C	-0.000158	-0.893330	-0.432177
C94	C	0.499842	-0.393330	0.067823
C95	C	-0.000167	-0.894427	-0.363951
C96	C	0.499833	-0.394427	0.136049
C97	C	-0.000153	-0.888102	0.240322
C98	C	0.499847	-0.388102	0.740322
C99	C	-0.000143	-0.889440	0.324340
C100	C	0.499857	-0.389440	0.824340
H101	H	-0.380169	-0.772851	0.154068
H102	H	0.119831	-0.272851	0.654068
H103	H	-0.621157	-0.821868	0.006070
H104	H	-0.121157	-0.321868	0.506070
H105	H	-0.000197	-1.016971	-0.541714
H106	H	0.499803	-0.516971	-0.041714
H107	H	-0.000101	-0.647537	0.231384
H108	H	0.499899	-0.147537	0.731384
H109	H	-0.619663	-0.772532	0.154007
H110	H	-0.119663	-0.272532	0.654007
Cl111	Cl	-0.000211	-1.051303	-0.309154
Cl112	Cl	0.499789	-0.551303	0.190846
H113	H	-0.000195	-0.537526	-0.021154
H114	H	0.499805	-0.037526	0.478846
H115	H	-0.000124	-0.764429	-0.651721
H116	H	0.499876	-0.264429	-0.151721
Cl117	Cl	-0.360210	-0.786692	0.003040
Cl118	Cl	0.139790	-0.286692	0.503040
Cl119	Cl	-0.357034	-0.942088	-0.051562
Cl120	Cl	0.142966	-0.442088	0.448438
H121	H	-0.000223	-1.023330	-0.144409
H122	H	0.499777	-0.523330	0.355591
Cl123	Cl	-0.639300	-0.948545	-0.048772
Cl124	Cl	-0.139300	-0.448545	0.451228
H125	H	-0.000187	-1.014680	-0.684934
H126	H	0.499813	-0.514680	-0.184934
H127	H	-0.000113	-0.766718	-0.508512
H128	H	0.499887	-0.266718	-0.008512
H129	H	-0.000124	-0.770792	-0.254420
H130	H	0.499876	-0.270792	0.245580
H131	H	-0.000149	-0.250232	0.225025
H132	H	0.499851	0.249768	0.725025
H133	H	-0.621356	-0.841296	0.222581
H134	H	-0.121356	-0.341296	0.722581
Cl135	Cl	-0.360113	-0.846989	0.255191
Cl136	Cl	0.139887	-0.346989	0.755191
H137	H	-0.000168	-0.107012	0.222734
H138	H	0.499832	0.392988	0.722734
Cl139	Cl	-0.000222	-0.126793	-0.058340
Cl140	Cl	0.499778	0.373207	0.441660
H141	H	-0.000137	-0.773078	-0.111198
H142	H	0.499863	-0.273078	0.388802
H143	H	-0.000214	-0.283434	-0.025228
H144	H	0.499786	0.216566	0.474772
H145	H	-0.619196	-1.020420	0.076039
H146	H	-0.119196	-0.520420	0.576039
Cl147	Cl	-0.359794	-1.046318	0.051081
Cl148	Cl	0.140206	-0.546318	0.551081
Cl149	Cl	-0.638227	-0.993905	0.208846
Cl150	Cl	-0.138227	-0.493905	0.708846
H151	H	-0.000159	-0.680748	-0.018868
H152	H	0.499841	-0.180748	0.481132
H153	H	-0.000126	-0.504328	0.229092
H154	H	0.499874	-0.004328	0.729092
H155	H	-0.378582	-0.987025	0.176265
H156	H	0.121418	-0.487025	0.676265
