data_functionalizedCrystal
_audit_creation_method	'MofGen! by Chris Wilmer'
_symmetry_space_group_name_H-M	'P1'
_symmetry_Int_Tables_number	1
_symmetry_cell_setting	triclinic
loop_
_symmetry_equiv_pos_as_xyz
  x,y,z
_cell_length_a	12.759401
_cell_length_b	12.759400
_cell_length_c	12.759393
_cell_angle_alpha	90.031564
_cell_angle_beta	90.018496
_cell_angle_gamma	90.014845
loop_
_atom_site_label
_atom_site_type_symbol
_atom_site_fract_x
_atom_site_fract_y
_atom_site_fract_z
Zn1	Zn	1.606255	-0.418200	0.593981
Zn2	Zn	2.106255	0.081800	1.093981
Zn3	Zn	1.606150	-0.593919	0.418301
Zn4	Zn	2.106150	-0.093919	0.918301
Zn5	Zn	1.430557	-0.418255	0.418321
Zn6	Zn	1.930557	0.081745	0.918321
Zn7	Zn	1.430546	-0.593838	0.593943
Zn8	Zn	1.930546	-0.093838	1.093943
O9	O	1.518377	-0.506053	0.506137
O10	O	2.018377	-0.006053	1.006137
O11	O	1.753262	-0.441520	0.570685
O12	O	2.253262	0.058480	1.070685
O13	O	1.582818	-0.570673	0.271283
O14	O	2.082818	-0.070673	0.771283
O15	O	1.453913	-0.271226	0.441647
O16	O	1.953913	0.228774	0.941647
O17	O	1.753185	-0.570620	0.441614
O18	O	2.253185	-0.070620	0.941614
O19	O	1.582998	-0.271186	0.570704
O20	O	2.082998	0.228814	1.070704
O21	O	1.453811	-0.441614	0.271297
O22	O	1.953811	0.058386	0.771297
O23	O	1.283535	-0.441535	0.441609
O24	O	1.783535	0.058465	0.941609
O25	O	1.453894	-0.570482	0.740969
O26	O	1.953894	-0.070482	1.240969
O27	O	1.283527	-0.570536	0.570638
O28	O	1.783527	-0.070536	1.070638
O29	O	1.582987	-0.441442	0.740997
O30	O	2.082987	0.058558	1.240997
O31	O	1.582807	-0.740929	0.441577
O32	O	2.082807	-0.240929	0.941577
O33	O	1.453791	-0.740870	0.570620
O34	O	1.953791	-0.240870	1.070620
C35	C	1.245410	-0.506033	0.506122
C36	C	1.745410	-0.006033	1.006122
C37	C	1.128633	-0.506050	0.506141
C38	C	1.628633	-0.006050	1.006141
C39	C	1.518315	-0.779020	0.506115
C40	C	2.018315	-0.279020	1.006115
C41	C	1.518384	-0.895797	0.506140
C42	C	2.018384	-0.395797	1.006140
C43	C	1.073794	-0.573328	0.573215
C44	C	1.573794	-0.073328	1.073215
C45	C	0.964070	-0.573342	0.573227
C46	C	1.464070	-0.073342	1.073227
C47	C	0.964034	-0.438796	0.439081
C48	C	1.464034	0.061204	0.939081
C49	C	1.073756	-0.438778	0.439075
C50	C	1.573756	0.061222	0.939075
C51	C	1.128672	-0.640600	0.640281
C52	C	1.628672	-0.140600	1.140281
C53	C	1.073833	-0.707885	0.707360
C54	C	1.573833	-0.207885	1.207360
C55	C	0.964109	-0.707898	0.707371
C56	C	1.464109	-0.207898	1.207371
C57	C	0.909224	-0.640627	0.640304
C58	C	1.409224	-0.140627	1.140304
C59	C	1.585637	-0.950655	0.439022
C60	C	2.085637	-0.450655	0.939022
C61	C	1.585702	-1.060379	0.439054
C62	C	2.085702	-0.560379	0.939054
C63	C	1.451252	-1.060377	0.573327
C64	C	1.951252	-0.560377	1.073327
C65	C	1.451193	-0.950655	0.573299
C66	C	1.951193	-0.450655	1.073299
C67	C	1.652828	-0.895797	0.371864
C68	C	2.152828	-0.395797	0.871864
C69	C	1.720086	-0.950655	0.304739
C70	C	2.220086	-0.450655	0.804739
C71	C	1.720150	-1.060379	0.304771
C72	C	2.220150	-0.560379	0.804771
C73	C	1.652957	-1.115245	0.371929
C74	C	2.152957	-0.615245	0.871929
C75	C	1.792410	-0.506073	0.506152
C76	C	2.292410	-0.006073	1.006152
C77	C	1.909187	-0.506082	0.506158
C78	C	2.409187	-0.006082	1.006158
C79	C	1.518451	-0.505947	0.780170
C80	C	2.018451	-0.005947	1.280170
C81	C	1.518482	-0.505902	0.896947
C82	C	2.018482	-0.005902	1.396947
C83	C	1.518468	-0.232019	0.506182
C84	C	2.018468	0.267981	1.006182
C85	C	1.518507	-0.115243	0.506201
C86	C	2.018507	0.384757	1.006201
C87	C	1.518364	-0.506083	0.233169
C88	C	2.018364	-0.006083	0.733169
C89	C	1.518537	-0.505832	0.116393
C90	C	2.018537	-0.005832	0.616393
C91	C	1.585710	-0.438704	0.951825
C92	C	2.085710	0.061296	1.451825
C93	C	1.585735	-0.438666	1.061549
C94	C	2.085735	0.061334	1.561549
C95	C	1.451301	-0.573033	1.061507
C96	C	1.951301	-0.073033	1.561507
C97	C	1.451272	-0.573064	0.951785
C98	C	1.951272	-0.073064	1.451785
C99	C	1.652920	-0.371541	0.896987
C100	C	2.152920	0.128459	1.396987
C101	C	1.720155	-0.304339	0.951866
C102	C	2.220155	0.195661	1.451866
C103	C	1.720180	-0.304301	1.061590
C104	C	2.220180	0.195699	1.561590
C105	C	1.652970	-0.371465	1.116436
C106	C	2.152970	0.128535	1.616436
H107	H	1.218015	-0.640599	0.640277
H108	H	1.718015	-0.140599	1.140277
H109	H	1.774798	-0.905977	0.250068
H110	H	2.274798	-0.405977	0.750068
H111	H	1.652910	-0.371567	0.807644
H112	H	2.152910	0.128433	1.307644
C113	C	0.788530	-0.640619	0.640341
C114	C	1.288530	-0.140619	1.140341
H115	H	0.763728	-0.690318	0.689898
H116	H	1.263728	-0.190318	1.189898
H117	H	0.763745	-0.572839	0.658632
H118	H	1.263745	-0.072839	1.158632
H119	H	0.763658	-0.658712	0.572516
H120	H	1.263658	-0.158712	1.072516
H121	H	0.919462	-0.762676	0.761998
H122	H	1.419462	-0.262676	1.261998
H123	H	1.774922	-1.105041	0.250123
H124	H	2.274922	-0.605041	0.750123
C125	C	1.794072	-0.230454	0.891546
C126	C	2.294072	0.269546	1.391546
H127	H	1.834105	-0.190419	0.939947
H128	H	2.334105	0.309581	1.439947
H129	H	1.839826	-0.270656	0.848735
H130	H	2.339826	0.229344	1.348735
H131	H	1.753878	-0.184685	0.848754
H132	H	2.253878	0.315315	1.348754
C133	C	1.377384	-0.646915	1.121830
C134	C	1.877384	-0.146915	1.621830
H135	H	1.337334	-0.686936	1.073430
H136	H	1.837334	-0.186936	1.573430
H137	H	1.417570	-0.692681	1.164623
H138	H	1.917570	-0.192681	1.664623
H139	H	1.331629	-0.606702	1.164640
H140	H	1.831629	-0.106702	1.664640
C141	C	0.903663	-0.364812	0.365308
C142	C	1.403663	0.135188	0.865308
H143	H	0.830462	-0.374466	0.374911
H144	H	1.330462	0.125534	0.874911
H145	H	0.921655	-0.294236	0.380802
H146	H	1.421655	0.205764	0.880802
H147	H	0.921617	-0.380110	0.294686
H148	H	1.421617	0.119890	0.794686
H149	H	1.653024	-1.204589	0.371958
H150	H	2.153024	-0.704589	0.871958
H151	H	1.774917	-0.249574	1.106269
H152	H	2.274917	0.250426	1.606269
C153	C	1.134083	-0.364770	0.365300
C154	C	1.634083	0.135230	0.865300
H155	H	1.085687	-0.324716	0.325351
H156	H	1.585687	0.175284	0.825351
H157	H	1.176901	-0.319039	0.405576
H158	H	1.676901	0.180961	0.905576
H159	H	1.176867	-0.404899	0.319447
H160	H	1.676867	0.095101	0.819447
H161	H	1.652984	-0.371417	1.205780
H162	H	2.152984	0.128583	1.705780
H163	H	1.396513	-0.627767	0.907102
H164	H	1.896513	-0.127767	1.407102
H165	H	1.118528	-0.762647	0.761970
H166	H	1.618528	-0.262647	1.261970
C167	C	1.652764	-0.775105	0.371829
C168	C	2.152764	-0.275105	0.871829
H169	H	1.702416	-0.750288	0.322226
H170	H	2.202416	-0.250288	0.822226
H171	H	1.584960	-0.750353	0.353604
H172	H	2.084960	-0.250353	0.853604
H173	H	1.670895	-0.750215	0.439639
H174	H	2.170895	-0.250215	0.939639
C175	C	1.377339	-1.120727	0.647183
C176	C	1.877339	-0.620727	1.147183
H177	H	1.386999	-1.193930	0.637579
H178	H	1.886999	-0.693930	1.137579
H179	H	1.392663	-1.102680	0.717784
H180	H	1.892663	-0.602680	1.217784
H181	H	1.306743	-1.102812	0.631733
H182	H	1.806743	-0.602812	1.131733
H183	H	1.396431	-0.905989	0.627954
H184	H	1.896431	-0.405989	1.127954
