data_functionalizedCrystal
_audit_creation_method	'MofGen! by Chris Wilmer'
_symmetry_space_group_name_H-M	'P1'
_symmetry_Int_Tables_number	1
_symmetry_cell_setting	triclinic
loop_
_symmetry_equiv_pos_as_xyz
  x,y,z
_cell_length_a	17.077404
_cell_length_b	18.050590
_cell_length_c	17.077396
_cell_angle_alpha	89.970225
_cell_angle_beta	89.980499
_cell_angle_gamma	90.018777
loop_
_atom_site_label
_atom_site_type_symbol
_atom_site_fract_x
_atom_site_fract_y
_atom_site_fract_z
Zn1	Zn	1.200078	-0.295655	-0.443836
Zn2	Zn	1.700078	0.204345	0.056164
Zn3	Zn	1.199995	-0.419852	-0.312567
Zn4	Zn	1.699995	0.080148	0.187433
Zn5	Zn	1.068810	-0.295681	-0.312584
Zn6	Zn	1.568810	0.204319	0.187416
Zn7	Zn	1.068788	-0.419808	-0.443790
Zn8	Zn	1.568788	0.080192	0.056210
O9	O	1.134418	-0.357749	-0.378194
O10	O	1.634418	0.142251	0.121806
O11	O	1.309914	-0.312138	-0.426434
O12	O	1.809914	0.187862	0.073566
O13	O	1.182568	-0.403410	-0.202722
O14	O	1.682568	0.096590	0.297278
O15	O	1.086267	-0.191753	-0.330021
O16	O	1.586267	0.308247	0.169979
O17	O	1.309853	-0.403385	-0.329992
O18	O	1.809853	0.096615	0.170008
O19	O	1.182709	-0.191734	-0.426451
O20	O	1.682709	0.308266	0.073549
O21	O	1.086187	-0.312182	-0.202734
O22	O	1.586187	0.187818	0.297266
O23	O	0.958960	-0.312139	-0.329977
O24	O	1.458960	0.187861	0.170023
O25	O	1.086229	-0.403310	-0.553643
O26	O	1.586229	0.096690	-0.053643
O27	O	0.958944	-0.403335	-0.426374
O28	O	1.458944	0.096665	0.073626
O29	O	1.182688	-0.312095	-0.553677
O30	O	1.682688	0.187905	-0.053677
O31	O	1.182546	-0.523771	-0.329948
O32	O	1.682546	-0.023771	0.170052
O33	O	1.086149	-0.523739	-0.426357
O34	O	1.586149	-0.023739	0.073643
C35	C	0.930470	-0.357736	-0.378172
C36	C	1.430470	0.142264	0.121828
C37	C	0.843220	-0.357748	-0.378182
C38	C	1.343220	0.142252	0.121818
C39	C	0.802242	-0.405305	-0.428295
C40	C	1.302242	0.094695	0.071705
C41	C	0.720262	-0.405307	-0.428308
C42	C	1.220262	0.094693	0.071692
C43	C	0.679261	-0.357754	-0.378202
C44	C	1.179261	0.142246	0.121798
C45	C	0.720245	-0.310192	-0.328087
C46	C	1.220245	0.189808	0.171913
C47	C	0.802224	-0.310187	-0.328079
C48	C	1.302224	0.189813	0.171921
C49	C	0.549375	-0.310206	-0.328106
C50	C	1.049375	0.189794	0.171894
C51	C	0.467390	-0.310212	-0.328112
C52	C	0.967390	0.189788	0.171888
C53	C	0.467413	-0.405326	-0.428335
C54	C	0.967413	0.094674	0.071665
C55	C	0.549392	-0.405321	-0.428327
C56	C	1.049392	0.094679	0.071673
C57	C	0.590370	-0.357760	-0.378210
C58	C	1.090370	0.142240	0.121790
C59	C	1.134358	-0.550701	-0.378163
C60	C	1.634358	-0.050701	0.121837
C61	C	1.134404	-0.633247	-0.378176
C62	C	1.634404	-0.133247	0.121824
C63	C	1.186934	-0.832688	-0.325821
C64	C	1.686934	-0.332688	0.174179
C65	C	1.206108	-0.882019	-0.397464
C66	C	1.706108	-0.382019	0.102536
C67	C	1.134448	-0.784377	-0.378207
C68	C	1.634448	-0.284377	0.121793
C69	C	1.115353	-0.882128	-0.306596
C70	C	1.615353	-0.382128	0.193404
C71	C	1.134493	-0.930362	-0.378231
C72	C	1.634493	-0.430362	0.121769
C73	C	1.153660	-0.832621	-0.449887
C74	C	1.653660	-0.332621	0.050113
C75	C	1.062871	-0.832726	-0.358971
C76	C	1.562871	-0.332726	0.141029
C77	C	1.082019	-0.882034	-0.430663
C78	C	1.582019	-0.382034	0.069337
C79	C	1.134424	-0.700279	-0.378192
C80	C	1.634424	-0.200279	0.121808
C81	C	1.134516	-1.014459	-0.378254
C82	C	1.634516	-0.514459	0.121746
C83	C	1.339162	-0.357763	-0.378216
C84	C	1.839162	0.142237	0.121784
C85	C	1.426412	-0.357769	-0.378226
C86	C	1.926412	0.142231	0.121774
C87	C	1.134465	-0.357694	-0.582938
C88	C	1.634465	0.142306	-0.082938
C89	C	1.134486	-0.357671	-0.670188
C90	C	1.634486	0.142329	-0.170188
C91	C	1.134500	-0.164043	-0.378243
C92	C	1.634500	0.335957	0.121757
C93	C	1.134535	-0.081498	-0.378263
C94	C	1.634535	0.418502	0.121737
C95	C	1.184713	-0.310172	-0.711197
C96	C	1.684713	0.189828	-0.211197
C97	C	1.184723	-0.310147	-0.793178
C98	C	1.684723	0.189853	-0.293178
C99	C	1.134508	-0.357626	-0.834148
C100	C	1.634508	0.142374	-0.334148
C101	C	1.084275	-0.405127	-0.793133
C102	C	1.584275	0.094873	-0.293133
C103	C	1.084262	-0.405148	-0.711154
C104	C	1.584262	0.094852	-0.211154
C105	C	1.084306	-0.405083	-0.964003
C106	C	1.584306	0.094917	-0.464003
C107	C	1.084320	-0.405064	-1.045988
C108	C	1.584320	0.094936	-0.545988
C109	C	1.184767	-0.310082	-1.046027
C110	C	1.684767	0.189918	-0.546027
C111	C	1.184754	-0.310102	-0.964048
C112	C	1.684754	0.189898	-0.464048
C113	C	1.134522	-0.357605	-0.923039
C114	C	1.634522	0.142395	-0.423039
C115	C	1.134416	-0.357750	-0.174246
C116	C	1.634416	0.142250	0.325754
C117	C	1.134548	-0.357564	-0.086997
C118	C	1.634548	0.142436	0.413003
H119	H	0.835619	-0.444030	-0.469094
H120	H	1.335619	0.055970	0.030906
Br121	Br	1.252911	-0.245672	-0.908445
Br122	Br	1.752911	0.254328	-0.408445
H123	H	0.434009	-0.271482	-0.287321
H124	H	0.934009	0.228518	0.212679
Br125	Br	1.180737	-0.796536	-0.550869
Br126	Br	1.680737	-0.296536	-0.050869
Br127	Br	1.252943	-0.245617	-1.101680
Br128	Br	1.752943	0.254383	-0.601680
Br129	Br	1.008070	-0.917924	-0.504599
Br130	Br	1.508070	-0.417924	-0.004599
Br131	Br	1.016120	-0.469560	-0.848735
Br132	Br	1.516120	0.030440	-0.348735
H133	H	0.582736	-0.271470	-0.287302
H134	H	1.082736	0.228530	0.212698
H135	H	1.043353	-0.443819	-0.677766
H136	H	1.543353	0.056181	-0.177766
Br137	Br	0.961973	-0.796611	-0.331798
Br138	Br	1.461973	-0.296611	0.168202
Br139	Br	1.088404	-0.918376	-0.205645
Br140	Br	1.588404	-0.418376	0.294355
Br141	Br	1.252872	-0.245738	-0.655603
Br142	Br	1.752872	0.254262	-0.155603
Br143	Br	0.664602	-0.245648	-0.260093
Br144	Br	1.164602	0.254352	0.239907
H145	H	1.266659	-0.903674	-0.413749
H146	H	1.766659	-0.403674	0.086251
H147	H	0.582772	-0.444047	-0.469122
H148	H	1.082772	0.055953	0.030878
H149	H	1.225625	-0.271470	-0.826563
H150	H	1.725625	0.228530	-0.326563
H151	H	1.043429	-0.443724	-1.079344
H152	H	1.543429	0.056276	-0.579344
Br153	Br	1.260931	-0.796572	-0.252057
Br154	Br	1.760931	-0.296572	0.247943
H155	H	1.043389	-0.443753	-0.930617
H156	H	1.543389	0.056247	-0.430617
H157	H	0.835587	-0.271457	-0.287275
H158	H	1.335587	0.228543	0.212725
Br159	Br	0.411801	-0.469865	-0.496361
Br160	Br	0.911801	0.030135	0.003639
Br161	Br	0.664651	-0.469850	-0.496324
Br162	Br	1.164651	0.030150	0.003676
