data_functionalizedCrystal
_audit_creation_method	'MofGen! by Chris Wilmer'
_symmetry_space_group_name_H-M	'P1'
_symmetry_Int_Tables_number	1
_symmetry_cell_setting	triclinic
loop_
_symmetry_equiv_pos_as_xyz
  x,y,z
_cell_length_a	19.288864
_cell_length_b	10.868271
_cell_length_c	19.288857
_cell_angle_alpha	90.007284
_cell_angle_beta	83.134677
_cell_angle_gamma	90.018163
loop_
_atom_site_label
_atom_site_type_symbol
_atom_site_fract_x
_atom_site_fract_y
_atom_site_fract_z
O1	O	0.921346	0.102723	0.086648
O2	O	0.719085	0.102639	0.098337
O3	O	0.826062	0.102669	-0.008638
O4	O	0.814368	0.102693	0.193623
O5	O	0.826054	-0.101976	-0.008642
O6	O	0.719076	-0.102005	0.098333
O7	O	0.921337	-0.101922	0.086644
Zn8	Zn	0.820205	-0.134456	0.092488
Zn9	Zn	0.820217	0.135173	0.092493
O10	O	0.814359	-0.101951	0.193619
C11	C	0.693204	0.000306	0.097959
C12	C	0.616100	0.000274	0.096830
C13	C	0.571402	0.000301	0.159598
C14	C	0.498955	0.000314	0.158537
C15	C	0.471209	0.000325	0.094705
C16	C	0.515917	0.000291	0.031929
C17	C	0.588363	0.000266	0.032991
C18	C	0.362952	0.072057	0.044527
C19	C	0.290507	0.072090	0.043467
C20	C	0.247764	0.000399	0.091425
C21	C	0.277472	-0.071309	0.140455
C22	C	0.349918	-0.071335	0.141518
C23	C	0.392656	0.000353	0.093546
C24	C	0.124510	0.000439	0.153048
C25	C	0.052062	0.000445	0.151984
C26	C	0.069026	0.000435	0.025374
C27	C	0.141472	0.000416	0.026439
C28	C	0.169210	0.000425	0.090278
N29	N	0.820202	-0.318470	0.092484
C30	C	0.820213	-0.569476	0.092492
C31	C	0.820205	-0.429798	0.092490
C32	C	0.947218	0.000414	0.087022
C33	C	1.024321	0.000454	0.088151
N34	N	0.820225	0.319187	0.092492
C35	C	0.825683	0.000345	-0.034516
C36	C	0.824556	0.000341	-0.111620
C37	C	0.824035	0.111893	-0.147829
C38	C	0.822966	0.111901	-0.220275
C39	C	0.822432	0.000352	-0.256511
C40	C	0.822950	-0.111215	-0.220294
C41	C	0.824011	-0.111220	-0.147848
C42	C	0.861430	-0.085085	-0.376745
C43	C	0.860373	-0.085075	-0.449189
C44	C	0.819155	0.000365	-0.479957
C45	C	0.779003	0.085815	-0.438273
C46	C	0.780064	0.085809	-0.365827
C47	C	0.821281	0.000346	-0.335066
C48	C	0.817474	0.111933	-0.594720
C49	C	0.816401	0.111938	-0.667167
C50	C	0.816391	-0.111182	-0.667185
C51	C	0.817457	-0.111182	-0.594739
C52	C	0.818002	0.000378	-0.558511
C53	C	0.814739	0.000375	0.219498
C54	C	0.815866	0.000387	0.296602
H55	H	0.374103	-0.129726	0.181437
H56	H	0.242672	-0.129687	0.179507
O57	O	0.817881	-0.219625	-0.559629
C58	C	0.757468	-0.287506	-0.569265
H59	H	0.736644	-0.255791	-0.619175
H60	H	0.770958	-0.389552	-0.573568
H61	H	0.715953	-0.272068	-0.522847
H62	H	0.824433	-0.202062	-0.118367
H63	H	0.593981	0.000310	0.211581
H64	H	0.824476	0.202734	-0.118336
O65	O	0.261768	0.141771	-0.004224
C66	C	0.315027	0.205049	-0.046322
H67	H	0.366641	0.154328	-0.045477
H68	H	0.301543	0.209673	-0.102216
H69	H	0.319962	0.302311	-0.025315
O70	O	0.741021	0.168637	-0.325251
C71	C	0.693115	0.105597	-0.276865
H72	H	0.713238	0.008692	-0.268702
H73	H	0.687010	0.157072	-0.224995
H74	H	0.640361	0.100052	-0.297769
O75	O	0.489084	0.000254	-0.030139
C76	C	0.544075	0.000259	-0.085315
H77	H	0.593219	-0.038507	-0.066001
H78	H	0.529056	-0.059149	-0.129897
H79	H	0.554419	0.098432	-0.104663
O80	O	0.822549	0.220200	-0.255535
C81	C	0.882086	0.226932	-0.305486
H82	H	0.901973	0.130088	-0.319045
H83	H	0.867814	0.274162	-0.354607
H84	H	0.924613	0.281987	-0.283197
O85	O	0.404536	0.141778	-0.001966
C86	C	0.441661	0.227265	0.034412
H87	H	0.445133	0.192072	0.089562
H88	H	0.496524	0.239331	0.005945
H89	H	0.413349	0.319516	0.037145
H90	H	0.624757	0.000244	-0.018124
O91	O	0.455553	0.000568	0.219531
C92	C	0.468140	0.106546	0.258303
H93	H	0.493046	0.180602	0.221553
H94	H	0.416660	0.142156	0.286312
H95	H	0.504891	0.082580	0.298397
O96	O	0.151344	0.000380	0.215118
C97	C	0.096353	0.000425	0.270294
H98	H	0.047187	-0.038307	0.250977
H99	H	0.111339	-0.058992	0.314872
H100	H	0.086065	0.098606	0.289649
H101	H	0.015669	0.000460	0.203100
H102	H	0.745439	0.155388	-0.463322
O103	O	0.817962	0.220407	-0.559625
C104	C	0.817283	0.318872	-0.607124
H105	H	0.794537	0.286162	-0.655822
H106	H	0.783878	0.396876	-0.581667
H107	H	0.872882	0.353199	-0.622291
H108	H	0.046436	0.000520	-0.026600
H109	H	0.815973	0.202780	-0.696646
H110	H	0.177867	0.000401	-0.024674
H111	H	0.815952	-0.202007	-0.696688
H112	H	0.822513	-0.202039	-0.249802
O113	O	0.899393	-0.168195	-0.489573
C114	C	0.936006	-0.243601	-0.446885
H115	H	0.907990	-0.243462	-0.391390
H116	H	0.938319	-0.341556	-0.468179
H117	H	0.991312	-0.206761	-0.446568
O118	O	0.901520	-0.167901	-0.346777
C119	C	0.950642	-0.104830	-0.311382
H120	H	0.930825	-0.007930	-0.297865
H121	H	0.958245	-0.156288	-0.261351
H122	H	1.002579	-0.099272	-0.346307
