data_functionalizedCrystal
_audit_creation_method	'MofGen! by Chris Wilmer'
_symmetry_space_group_name_H-M	'P1'
_symmetry_Int_Tables_number	1
_symmetry_cell_setting	triclinic
loop_
_symmetry_equiv_pos_as_xyz
  x,y,z
_cell_length_a	16.109301
_cell_length_b	14.519709
_cell_length_c	15.186229
_cell_angle_alpha	89.995307
_cell_angle_beta	89.999006
_cell_angle_gamma	83.570864
loop_
_atom_site_label
_atom_site_type_symbol
_atom_site_fract_x
_atom_site_fract_y
_atom_site_fract_z
O1	O	1.103336	0.118541	-0.073182
O2	O	1.436669	0.451874	0.260151
O3	O	1.770002	0.785208	0.593485
O4	O	0.861299	0.133293	-0.073195
O5	O	1.194633	0.466626	0.260139
O6	O	1.527966	0.799959	0.593472
O7	O	0.988735	-0.008335	-0.073180
O8	O	1.322068	0.324998	0.260153
O9	O	1.655401	0.658331	0.593487
O10	O	0.975900	0.260169	-0.073197
O11	O	1.309234	0.593502	0.260137
O12	O	1.642567	0.926836	0.593470
O13	O	0.988726	-0.008337	0.073277
O14	O	1.322060	0.324996	0.406610
O15	O	1.655393	0.658329	0.739944
O16	O	0.861291	0.133291	0.073263
O17	O	1.194624	0.466624	0.406596
O18	O	1.527957	0.799957	0.739929
O19	O	1.103327	0.118539	0.073275
O20	O	1.436661	0.451872	0.406609
O21	O	1.769994	0.785206	0.739942
Zn22	Zn	0.982308	0.125915	0.096522
Zn23	Zn	1.315641	0.459248	0.429855
Zn24	Zn	1.648974	0.792581	0.763189
Zn25	Zn	0.982319	0.125917	-0.096442
Zn26	Zn	1.315652	0.459251	0.236892
Zn27	Zn	1.648986	0.792584	0.570225
O28	O	0.975892	0.260167	0.073261
O29	O	1.309225	0.593500	0.406594
O30	O	1.642558	0.926834	0.739927
C31	C	0.830319	0.132694	0.000032
C32	C	1.163652	0.466028	0.333366
C33	C	1.496986	0.799361	0.666699
C34	C	0.738021	0.130903	0.000028
C35	C	1.071354	0.464236	0.333361
C36	C	1.404687	0.797569	0.666695
C37	C	0.429158	0.209085	0.000038
C38	C	0.762491	0.542418	0.333372
C39	C	1.095824	0.875752	0.666705
C40	C	0.515881	0.210777	0.000033
C41	C	0.849214	0.544110	0.333367
C42	C	1.182548	0.877444	0.666700
C43	C	0.535463	0.042740	0.000032
C44	C	0.868797	0.376073	0.333365
C45	C	1.202130	0.709407	0.666698
C46	C	0.448742	0.041049	0.000031
C47	C	0.782075	0.374382	0.333364
C48	C	1.115408	0.707716	0.666697
C49	C	0.395591	0.124224	0.000038
C50	C	0.728924	0.457558	0.333372
C51	C	1.062257	0.790891	0.666705
C52	C	0.569036	0.127607	0.000034
C53	C	0.902369	0.460941	0.333368
C54	C	1.235702	0.794274	0.666701
C55	C	0.663065	0.129441	0.000029
C56	C	0.996398	0.462775	0.333362
C57	C	1.329731	0.796108	0.666695
C58	C	0.301556	0.122391	0.000042
C59	C	0.634889	0.455724	0.333376
C60	C	0.968222	0.789057	0.666709
C61	C	0.988132	-0.042695	0.000049
C62	C	1.321466	0.290639	0.333382
C63	C	1.654799	0.623972	0.666715
C64	C	0.986340	-0.145072	0.000049
C65	C	1.319673	0.188261	0.333382
C66	C	1.653007	0.521595	0.666716
C67	C	0.979741	-0.519954	0.000026
C68	C	1.313075	-0.186621	0.333359
C69	C	1.646408	0.146713	0.666692
C70	C	0.981574	-0.415650	0.000033
C71	C	1.314907	-0.082317	0.333366
C72	C	1.648240	0.251017	0.666699
C73	C	0.983040	-0.332516	0.000038
C74	C	1.316374	0.000817	0.333372
C75	C	1.649707	0.334150	0.666705
C76	C	0.984873	-0.228206	0.000043
C77	C	1.318207	0.105128	0.333377
C78	C	1.651540	0.438461	0.666710
C79	C	1.134307	0.119138	0.000046
C80	C	1.467641	0.452471	0.333380
C81	C	1.800974	0.785804	0.666713
C82	C	1.226606	0.120929	0.000045
C83	C	1.559939	0.454263	0.333378
C84	C	1.893272	0.787596	0.666712
C85	C	0.976494	0.294526	0.000030
C86	C	1.309827	0.627860	0.333363
C87	C	1.643161	0.961193	0.666697
C88	C	0.978287	0.396904	0.000024
C89	C	1.311620	0.730237	0.333357
C90	C	1.644953	1.063571	0.666690
N91	N	0.982306	0.125912	0.228215
N92	N	1.315639	0.459246	0.561548
N93	N	1.648973	0.792579	0.894881
N94	N	0.982327	0.125912	-0.228134
N95	N	1.315660	0.459246	0.105199
N96	N	1.648994	0.792579	0.438532
C97	C	1.038754	0.063220	0.453944
C98	C	1.372087	0.396554	0.787277
C99	C	1.705420	0.729887	1.120611
C100	C	1.038756	0.063218	0.546134
C101	C	1.372090	0.396552	0.879467
C102	C	1.705423	0.729885	1.212800
C103	C	0.925873	0.188607	0.546130
C104	C	1.259207	0.521940	0.879463
C105	C	1.592540	0.855274	1.212797
C106	C	0.925867	0.188604	0.453942
C107	C	1.259201	0.521937	0.787275
C108	C	1.592534	0.855271	1.120609
C109	C	0.982312	0.125912	0.407851
C110	C	1.315646	0.459245	0.741185
C111	C	1.648979	0.792579	1.074518
C112	C	0.982321	0.125913	0.592229
C113	C	1.315654	0.459246	0.925562
C114	C	1.648987	0.792579	1.258896
C115	C	0.982323	0.125911	0.692185
C116	C	1.315657	0.459244	1.025519
C117	C	1.648990	0.792577	1.358852
C118	C	0.982309	0.125912	0.307889
C119	C	1.315642	0.459246	0.641222
C120	C	1.648976	0.792579	0.974556
H121	H	0.385884	0.276812	0.000044
H122	H	0.719218	0.610145	0.333377
H123	H	1.052551	0.943479	0.666711
Cl124	Cl	1.109712	-0.015599	0.604076
Cl125	Cl	1.443046	0.317734	0.937410
Cl126	Cl	1.776379	0.651068	1.270743
Cl127	Cl	1.109710	-0.015596	0.396006
Cl128	Cl	1.443043	0.317737	0.729339
Cl129	Cl	1.776376	0.651070	1.062672
Cl130	Cl	0.406540	-0.065642	0.000019
Cl131	Cl	0.739873	0.267691	0.333352
Cl132	Cl	1.073207	0.601025	0.666686
Cl133	Cl	0.558075	0.317464	0.000030
Cl134	Cl	0.891409	0.650797	0.333363
Cl135	Cl	1.224742	0.984131	0.666696
Cl136	Cl	0.602287	-0.061817	0.000031
Cl137	Cl	0.935620	0.271516	0.333365
Cl138	Cl	1.268953	0.604850	0.666698
Cl139	Cl	0.854920	0.267420	0.604076
Cl140	Cl	1.188254	0.600754	0.937410
Cl141	Cl	1.521587	0.934087	1.270743
H142	H	0.879902	0.239655	0.416411
H143	H	1.213235	0.572989	0.749744
H144	H	1.546569	0.906322	1.083077
