data_functionalizedCrystal
_audit_creation_method	'MofGen! by Chris Wilmer'
_symmetry_space_group_name_H-M	'P1'
_symmetry_Int_Tables_number	1
_symmetry_cell_setting	triclinic
loop_
_symmetry_equiv_pos_as_xyz
  x,y,z
_cell_length_a	12.837943
_cell_length_b	13.262508
_cell_length_c	11.295483
_cell_angle_alpha	109.979812
_cell_angle_beta	85.461227
_cell_angle_gamma	89.431992
loop_
_atom_site_label
_atom_site_type_symbol
_atom_site_fract_x
_atom_site_fract_y
_atom_site_fract_z
O1	O	1.377386	0.272273	-0.010815
O2	O	1.075837	0.258501	-0.015282
O3	O	1.237740	0.110123	-0.063331
O4	O	1.215483	0.420651	0.037234
O5	O	1.223520	0.123133	0.138933
O6	O	1.061617	0.271511	0.186981
O7	O	1.363166	0.285283	0.191449
Cu8	Cu	1.211093	0.279585	0.207684
Cu9	Cu	1.227910	0.264199	-0.031517
O10	O	1.201263	0.433661	0.239497
C11	C	1.030192	0.260354	0.084342
C12	C	0.915373	0.246479	0.079845
C13	C	0.671321	0.413281	0.133881
C14	C	0.563437	0.400249	0.129659
C15	C	0.591718	0.207385	0.067187
C16	C	0.699602	0.220417	0.071409
C17	C	0.739399	0.323368	0.104756
C18	C	0.847286	0.336398	0.108969
C19	C	0.875564	0.143535	0.046506
C20	C	0.767680	0.130503	0.042284
C21	C	1.230690	0.076606	0.024837
C22	C	1.230856	-0.042650	-0.013791
C23	C	1.200314	-0.350456	0.318351
C24	C	1.200149	-0.238409	0.354646
C25	C	1.207826	-0.189464	0.262540
C26	C	1.215667	-0.252576	0.134133
C27	C	1.215824	-0.364633	0.097835
C28	C	1.223336	-0.203641	0.042023
C29	C	1.231177	-0.266753	-0.086384
C30	C	1.231334	-0.378799	-0.122676
C31	C	1.223657	-0.427745	-0.030570
C32	C	1.223180	-0.091584	0.078321
C33	C	1.238690	-0.105761	-0.142195
C34	C	1.238854	-0.217808	-0.178490
C35	C	1.408811	0.283430	0.091822
C36	C	1.523631	0.297304	0.096311
C37	C	1.208313	0.467178	0.151327
C38	C	1.208147	0.586433	0.189947
N39	N	1.199273	0.290407	0.375924
N40	N	1.239739	0.253369	-0.199760
C41	C	1.324829	0.175409	0.587975
C42	C	1.315904	0.183595	0.715289
C43	C	1.172492	0.314960	0.757868
C44	C	1.181417	0.306773	0.630554
C45	C	1.257590	0.236997	0.545611
C46	C	1.266519	0.228816	0.418296
C47	C	1.123103	0.360175	0.460875
C48	C	1.114178	0.368361	0.588190
H49	H	0.508010	0.473466	0.153379
H50	H	1.068355	0.410327	0.426371
H51	H	1.110467	0.371762	0.827042
C52	C	0.768938	0.546507	0.278835
C53	C	0.715077	0.526439	0.170527
H54	H	0.795954	0.616365	0.301452
H55	H	0.722479	0.541958	0.346412
H56	H	0.824921	0.494816	0.262084
H57	H	0.659088	0.578126	0.187281
H58	H	0.761539	0.530998	0.102935
C59	C	1.216046	0.086470	0.231878
C60	C	1.214566	-0.022218	0.219459
H61	H	1.210723	0.129291	0.319017
H62	H	1.279652	0.099915	0.191888
H63	H	1.158754	0.103916	0.193165
H64	H	1.271863	-0.039667	0.258164
H65	H	1.150953	-0.035669	0.259465
C66	C	1.276247	-0.375829	0.494177
C67	C	1.191874	-0.404249	0.419591
H68	H	1.271030	-0.409033	0.556689
H69	H	1.339897	-0.399115	0.442282
H70	H	1.275025	-0.300061	0.534161
H71	H	1.193101	-0.480016	0.379599
H72	H	1.128208	-0.380969	0.471494
H73	H	0.559288	0.123573	0.040138
C74	C	0.614858	0.024889	0.008067
C75	C	0.723928	0.017343	0.005625
H76	H	0.587853	-0.044974	-0.014576
H77	H	0.586419	0.066897	0.090738
H78	H	0.596335	0.057849	-0.050322
H79	H	0.742452	-0.015609	0.064021
H80	H	0.752378	-0.024681	-0.077058
H81	H	1.370656	0.133442	0.749776
H82	H	0.931007	0.070321	0.022782
C83	C	0.931152	0.415417	0.641863
C84	C	1.030451	0.445052	0.681568
H85	H	0.879464	0.462762	0.699517
H86	H	0.926851	0.419367	0.559991
H87	H	0.919794	0.344029	0.639176
H88	H	1.041812	0.516438	0.684247
H89	H	1.034755	0.441113	0.763463
C90	C	1.162718	-0.080451	-0.318033
C91	C	1.247110	-0.052003	-0.243480
H92	H	1.167907	-0.047261	-0.380559
H93	H	1.163943	-0.156211	-0.357989
H94	H	1.099071	-0.057157	-0.266111
H95	H	1.310758	-0.075304	-0.295401
H96	H	1.245895	0.023773	-0.203522
C97	C	1.329620	-0.515999	-0.292351
C98	C	1.239949	-0.448186	-0.263817
H99	H	1.334935	-0.558841	-0.379483
H100	H	1.389674	-0.473993	-0.274262
H101	H	1.325056	-0.561167	-0.242671
H102	H	1.244517	-0.403012	-0.313490
H103	H	1.179881	-0.490196	-0.281919
H104	H	1.386859	0.118601	0.518815
H105	H	0.879686	0.420226	0.136123
C106	C	1.158900	-0.349098	-0.346251
C107	C	1.247453	-0.287199	-0.319629
H108	H	1.164205	-0.391934	-0.433384
H109	H	1.154363	-0.394261	-0.296578
H110	H	1.098078	-0.303072	-0.326863
H111	H	1.308275	-0.333224	-0.339009
H112	H	1.252001	-0.242031	-0.369318
H113	H	1.223796	-0.518982	-0.060115
C114	C	1.280087	-0.107121	0.522416
C115	C	1.191541	-0.169030	0.495779
H116	H	1.274769	-0.064281	0.609549
H117	H	1.340907	-0.153132	0.503037
H118	H	1.284623	-0.061950	0.472739
H119	H	1.187009	-0.214206	0.545450
H120	H	1.130705	-0.123014	0.515171
H121	H	1.207690	-0.098230	0.292099
H122	H	1.328545	0.172004	0.349137
