data_functionalizedCrystal
_audit_creation_method	'MofGen! by Chris Wilmer'
_symmetry_space_group_name_H-M	'P1'
_symmetry_Int_Tables_number	1
_symmetry_cell_setting	triclinic
loop_
_symmetry_equiv_pos_as_xyz
  x,y,z
_cell_length_a	6.817900
_cell_length_b	11.102188
_cell_length_c	10.943624
_cell_angle_alpha	91.862487
_cell_angle_beta	108.838799
_cell_angle_gamma	108.603875
loop_
_atom_site_label
_atom_site_type_symbol
_atom_site_fract_x
_atom_site_fract_y
_atom_site_fract_z
V1	V	-4.114273	-0.175806	-0.402551
O2	O	-4.073263	0.008482	-0.394888
O3	O	-4.091022	-0.348626	-0.399798
O4	O	-4.092254	-0.173086	-0.578118
O5	O	-4.072022	-0.168272	-0.215334
V6	V	-4.591224	-0.153764	-0.380159
O7	O	-4.389948	-0.224155	-0.451671
O8	O	-4.765746	-0.105415	-0.331038
O9	O	-4.391268	0.019056	-0.382912
O10	O	-4.749630	-0.338052	-0.387822
O11	O	-4.750872	-0.161298	-0.567376
O12	O	-4.390036	-0.156484	-0.204592
C13	C	-3.941287	-0.390756	-0.393448
C14	C	-4.003739	-0.532039	-0.392367
C15	C	-3.942858	-0.166836	-0.620910
C16	C	-4.006305	-0.165757	-0.764437
C17	C	-3.972102	-0.580274	-0.273626
C18	C	-4.030807	-0.713026	-0.272616
C19	C	-4.152777	-0.749296	-0.509098
C20	C	-4.094087	-0.616547	-0.510107
C21	C	-4.156049	-0.876815	-0.133325
C22	C	-4.124376	-0.925052	-0.014577
C23	C	-3.933169	-0.861800	0.093629
C24	C	-3.773584	-0.750309	0.083094
C25	C	-3.805243	-0.702078	-0.035656
C26	C	-3.996494	-0.765329	-0.143859
C27	C	-3.968823	-0.452754	-0.649389
C28	C	-4.000467	-0.404520	-0.768140
C29	C	-4.191666	-0.467771	-0.876357
C30	C	-4.351229	-0.579267	-0.865833
C31	C	-4.319585	-0.627501	-0.747082
C32	C	-4.128385	-0.564241	-0.638865
C33	C	-3.851186	-0.158485	-0.841584
C34	C	-4.039794	-0.266416	-0.947575
C35	C	-3.930776	-0.055914	-0.914188
C36	C	-4.194123	-0.273789	-0.868550
C37	C	-4.085026	-0.063191	-0.835140
C38	C	-4.273770	-0.171153	-0.941100
C39	C	-4.204346	0.061180	-0.389258
C40	C	-4.121133	0.202461	-0.390348
C41	C	-4.202774	-0.162738	-0.161793
C42	C	-4.118564	-0.163811	-0.018265
H43	H	-3.898537	-0.511470	-0.177755
H44	H	-4.304865	-0.365970	-0.848006
F45	F	-3.570063	-0.683007	0.198260
F46	F	-4.015671	-0.378714	-1.011557
F47	F	-3.899464	-0.913144	0.220009
F48	F	-3.765433	-0.385345	-0.534172
H49	H	-3.672021	-0.153273	-0.798136
F50	F	-4.225325	-0.416438	-1.002746
H51	H	-4.453047	-0.176534	-0.984345
H52	H	-3.675307	-0.611308	-0.044236
F53	F	-4.294223	-1.043704	-0.003368
F54	F	-4.109041	0.049113	-0.771109
F55	F	-3.786063	0.064445	-0.941268
H56	H	-4.311769	-0.928316	-0.221423
F57	F	-4.248925	-0.839245	-0.634398
H58	H	-4.506913	-0.630774	-0.953953
F59	F	-4.489409	-0.746170	-0.735885
H60	H	-3.870516	-0.313741	-0.776706
