data_functionalizedCrystal
_audit_creation_method	'MofGen! by Chris Wilmer'
_symmetry_space_group_name_H-M	'P1'
_symmetry_Int_Tables_number	1
_symmetry_cell_setting	triclinic
loop_
_symmetry_equiv_pos_as_xyz
  x,y,z
_cell_length_a	13.185407
_cell_length_b	17.019294
_cell_length_c	11.804365
_cell_angle_alpha	98.044273
_cell_angle_beta	82.231191
_cell_angle_gamma	67.722624
loop_
_atom_site_label
_atom_site_type_symbol
_atom_site_fract_x
_atom_site_fract_y
_atom_site_fract_z
O1	O	1.464284	-0.221451	-0.076285
O2	O	1.148453	-0.143139	-0.084324
O3	O	1.312617	-0.296569	-0.068581
O4	O	1.300120	-0.068022	-0.092029
O5	O	1.269398	-0.256208	0.125334
O6	O	1.105235	-0.102778	0.109590
O7	O	1.421065	-0.181091	0.117630
Cu8	Cu	1.259204	-0.138249	0.131316
Cu9	Cu	1.310315	-0.185980	-0.098011
O10	O	1.256901	-0.027661	0.101886
C11	C	1.086384	-0.115019	0.011818
C12	C	0.965827	-0.091372	0.009389
C13	C	0.671771	-0.317055	0.032548
C14	C	0.785039	-0.339274	0.034837
C15	C	0.830242	-0.277301	0.028475
C16	C	0.762165	-0.193105	0.019824
C17	C	0.648884	-0.170882	0.017544
C18	C	0.807355	-0.131127	0.013471
C19	C	0.739279	-0.046931	0.004820
C20	C	0.626009	-0.024713	0.002539
C21	C	0.580806	-0.086686	0.008901
C22	C	0.920636	-0.153350	0.015751
C23	C	0.897749	-0.007176	0.000747
C24	C	0.784482	0.015042	-0.001542
C25	C	1.289681	-0.305024	0.031312
C26	C	1.285717	-0.390346	0.040058
C27	C	1.307415	-0.452427	-0.061536
C28	C	1.303683	-0.532594	-0.053315
C29	C	1.278259	-0.550679	0.056501
C30	C	1.256556	-0.488590	0.158102
C31	C	1.260281	-0.408423	0.149879
C32	C	1.265826	-0.791629	0.086616
C33	C	1.262105	-0.871805	0.094831
C34	C	1.309230	-0.915802	-0.116587
C35	C	1.312960	-0.835633	-0.124799
C36	C	1.291251	-0.773549	-0.023199
C37	C	1.274446	-0.632623	0.064907
C38	C	1.295056	-0.691605	-0.031606
C39	C	1.483135	-0.209211	0.021485
C40	C	1.603693	-0.232859	0.023906
C41	C	1.279837	-0.019206	0.001991
C42	C	1.283804	0.066114	-0.006763
N43	N	1.223263	-0.104680	0.292612
N44	N	1.346264	-0.219558	-0.259306
C45	C	1.432571	-0.300185	0.686621
C46	C	1.459759	-0.325584	0.564566
C47	C	1.400637	-0.270360	0.496571
C48	C	1.314323	-0.189733	0.550644
C49	C	1.287138	-0.164330	0.672712
C50	C	1.255204	-0.134504	0.482662
C51	C	1.168890	-0.053878	0.536734
C52	C	1.141709	-0.028478	0.658790
C53	C	1.200831	-0.083702	0.726784
C54	C	1.282389	-0.159908	0.360594
C55	C	1.136956	-0.024052	0.346685
C56	C	1.109768	0.001346	0.468740
H57	H	0.729038	0.083596	-0.008585
C58	C	1.554692	-0.414268	0.505084
C59	C	1.619729	-0.475020	0.579860
C60	C	1.714666	-0.563711	0.520374
C61	C	1.744567	-0.591649	0.386112
C62	C	1.679530	-0.530895	0.311328
C63	C	1.584592	-0.442205	0.370814
H64	H	1.597595	-0.454340	0.679256
H65	H	1.762811	-0.608684	0.575735
H66	H	1.814846	-0.657302	0.342077
H67	H	1.701663	-0.551575	0.211932
H68	H	1.536448	-0.397231	0.315453
H69	H	1.039489	0.066994	0.512782
C70	C	1.327561	-0.600882	-0.165074
C71	C	1.441547	-0.636454	-0.250477
C72	C	1.465428	-0.704740	-0.362245
C73	C	1.375323	-0.737455	-0.388609
C74	C	1.261329	-0.701883	-0.303204
C75	C	1.237448	-0.633596	-0.191436
H76	H	1.508255	-0.612236	-0.230962
H77	H	1.549814	-0.731073	-0.425467
H78	H	1.393001	-0.788005	-0.471346
H79	H	1.194621	-0.726100	-0.322719
H80	H	1.153062	-0.607264	-0.128214
C81	C	1.335382	-0.432537	-0.182336
C82	C	1.438454	-0.411926	-0.214146
C83	C	1.466417	-0.392038	-0.334950
C84	C	1.391308	-0.392759	-0.423943
C85	C	1.288229	-0.413370	-0.392135
C86	C	1.260266	-0.433259	-0.271332
H87	H	1.494061	-0.411392	-0.148266
H88	H	1.542723	-0.376780	-0.358496
H89	H	1.412007	-0.378036	-0.513370
H90	H	1.232622	-0.413904	-0.458015
H91	H	1.183959	-0.448516	-0.247786
C92	C	1.377323	-0.248595	0.301123
C93	C	1.352341	-0.316307	0.222377
C94	C	1.447280	-0.405001	0.162907
C95	C	1.567200	-0.425982	0.182183
C96	C	1.592187	-0.358268	0.260933
C97	C	1.497248	-0.269574	0.320403
H98	H	1.263564	-0.300777	0.208104
H99	H	1.428782	-0.455127	0.104611
H100	H	1.637479	-0.491638	0.138160
H101	H	1.680964	-0.373798	0.275206
H102	H	1.515746	-0.219448	0.378699
H103	H	1.422777	-0.291043	0.397189
C104	C	1.333096	-0.984091	-0.228341
C105	C	1.447073	-1.019669	-0.313761
C106	C	1.470935	-1.087958	-0.425521
C107	C	1.380819	-1.120669	-0.451860
C108	C	1.266835	-1.085090	-0.366438
C109	C	1.242973	-1.016802	-0.254678
H110	H	1.513788	-0.995455	-0.294266
H111	H	1.555314	-1.114295	-0.488756
H112	H	1.398483	-1.171220	-0.534592
H113	H	1.200120	-1.109305	-0.385934
H114	H	1.158594	-0.990465	-0.191443
C115	C	1.071913	0.036700	0.271903
C116	C	1.101810	0.008757	0.137641
C117	C	1.036776	0.069505	0.062851
C118	C	0.941845	0.158195	0.122322
C119	C	0.911943	0.186142	0.256590
C120	C	0.976977	0.125395	0.331381
H121	H	1.172088	-0.056900	0.093611
H122	H	1.058912	0.048816	-0.036544
H123	H	0.893703	0.203163	0.066957
H124	H	0.841665	0.251800	0.300621
H125	H	0.954840	0.146084	0.430776
H126	H	0.634948	-0.367498	0.037760
C127	C	1.234089	-0.891703	0.215621
C128	C	1.121104	-0.834090	0.298729
C129	C	1.093072	-0.853994	0.419506
C130	C	1.178026	-0.931512	0.457175
C131	C	1.291019	-0.989130	0.374065
C132	C	1.319051	-0.969226	0.253289
H133	H	1.058210	-0.776702	0.270846
H134	H	1.009427	-0.811341	0.481029
H135	H	1.157276	-0.946246	0.546581
H136	H	1.353913	-1.046518	0.401949
H137	H	1.402696	-1.011879	0.191766
C138	C	1.241968	-0.723355	0.198379
C139	C	1.127998	-0.687788	0.283810
C140	C	1.104146	-0.619513	0.395582
C141	C	1.194263	-0.586805	0.421922
C142	C	1.308240	-0.622372	0.336489
C143	C	1.332092	-0.690647	0.224717
H144	H	1.061282	-0.712000	0.264314
H145	H	1.019772	-0.593184	0.458825
H146	H	1.176606	-0.536263	0.504662
H147	H	1.374957	-0.598159	0.355986
H148	H	1.416466	-0.716976	0.161474
H149	H	1.333664	-0.820916	-0.214223
C150	C	0.859919	-0.431883	0.044352
C151	C	0.984515	-0.456327	0.046870
C152	C	1.059398	-0.548942	0.056386
C153	C	1.009684	-0.617113	0.063384
C154	C	0.885082	-0.592671	0.060865
C155	C	0.810199	-0.500056	0.051349
H156	H	1.021322	-0.405862	0.041690
H157	H	1.151637	-0.567036	0.058251
H158	H	1.065117	-0.685672	0.070428
H159	H	0.848275	-0.643136	0.066046
H160	H	0.717960	-0.481962	0.049485
C161	C	0.995514	-0.245962	0.025258
C162	C	0.966931	-0.282241	0.131826
C163	C	1.041810	-0.374860	0.141330
C164	C	1.145272	-0.431200	0.044267
C165	C	1.173859	-0.394921	-0.062308
C166	C	1.098980	-0.302302	-0.071813
H167	H	0.890339	-0.240535	0.203684
H168	H	1.020648	-0.401716	0.220225
H169	H	1.200701	-0.499762	0.051303
H170	H	1.250452	-0.436628	-0.134167
H171	H	1.120143	-0.275447	-0.150707
H172	H	1.242597	-0.357871	0.232607
C173	C	1.046771	0.060212	0.718276
C174	C	0.926846	0.081194	0.699015
C175	C	0.831909	0.169885	0.758501
C176	C	0.856896	0.237593	0.837248
C177	C	0.976826	0.216613	0.856513
C178	C	1.071764	0.127923	0.797027
H179	H	0.908345	0.031071	0.640718
H180	H	0.743129	0.185415	0.744239
H181	H	0.786618	0.303247	0.881283
H182	H	0.995328	0.266736	0.914810
H183	H	1.160544	0.112392	0.811289
H184	H	0.488576	-0.068601	0.007032
H185	H	1.235849	-0.503320	0.247516
H186	H	0.922471	-0.295396	0.030339
H187	H	0.570581	0.043848	-0.004493
H188	H	0.934552	0.043288	-0.004430
H189	H	1.253750	-0.647358	0.154320
H190	H	1.315748	-0.676874	-0.121018
H191	H	1.480706	-0.345139	0.741990
H192	H	1.178692	-0.063025	0.826173
