data_functionalizedCrystal
_audit_creation_method	'MofGen! by Chris Wilmer'
_symmetry_space_group_name_H-M	'P1'
_symmetry_Int_Tables_number	1
_symmetry_cell_setting	triclinic
loop_
_symmetry_equiv_pos_as_xyz
  x,y,z
_cell_length_a	15.944551
_cell_length_b	23.532407
_cell_length_c	14.421503
_cell_angle_alpha	89.999621
_cell_angle_beta	89.996859
_cell_angle_gamma	83.173708
loop_
_atom_site_label
_atom_site_type_symbol
_atom_site_fract_x
_atom_site_fract_y
_atom_site_fract_z
O1	O	1.113910	0.073442	-0.077025
O2	O	1.363910	0.323442	0.172975
O3	O	1.613910	0.573442	0.422975
O4	O	1.863910	0.823442	0.672975
O5	O	0.869284	0.082498	-0.077049
O6	O	1.119284	0.332498	0.172951
O7	O	1.369284	0.582498	0.422951
O8	O	1.619284	0.832498	0.672951
O9	O	0.998974	-0.004933	-0.077019
O10	O	1.248974	0.245067	0.172981
O11	O	1.498974	0.495067	0.422981
O12	O	1.748974	0.745067	0.672981
O13	O	0.984221	0.160873	-0.077055
O14	O	1.234221	0.410873	0.172945
O15	O	1.484221	0.660873	0.422945
O16	O	1.734221	0.910873	0.672945
O17	O	0.998953	-0.004920	0.077204
O18	O	1.248953	0.245080	0.327204
O19	O	1.498953	0.495080	0.577204
O20	O	1.748953	0.745080	0.827204
O21	O	0.869263	0.082511	0.077174
O22	O	1.119263	0.332511	0.327174
O23	O	1.369263	0.582511	0.577174
O24	O	1.619263	0.832511	0.827174
O25	O	1.113889	0.073455	0.077199
O26	O	1.363889	0.323455	0.327199
O27	O	1.613889	0.573455	0.577199
O28	O	1.863889	0.823455	0.827199
Cu29	Cu	0.991574	0.077984	0.091268
Cu30	Cu	1.241574	0.327984	0.341268
Cu31	Cu	1.491574	0.577984	0.591268
Cu32	Cu	1.741574	0.827984	0.841268
Cu33	Cu	0.991599	0.077969	-0.091119
Cu34	Cu	1.241599	0.327969	0.158881
Cu35	Cu	1.491599	0.577969	0.408881
Cu36	Cu	1.741599	0.827969	0.658881
O37	O	0.984199	0.160886	0.077169
O38	O	1.234199	0.410886	0.327169
O39	O	1.484199	0.660886	0.577169
O40	O	1.734199	0.910886	0.827169
C41	C	0.837983	0.082128	0.000060
C42	C	1.087983	0.332128	0.250060
C43	C	1.337983	0.582128	0.500060
C44	C	1.587983	0.832128	0.750060
C45	C	0.744746	0.081001	0.000051
C46	C	0.994746	0.331001	0.250051
C47	C	1.244746	0.581001	0.500051
C48	C	1.494746	0.831001	0.750051
C49	C	0.530369	0.024113	0.000081
C50	C	0.780369	0.274113	0.250081
C51	C	1.030369	0.524113	0.500081
C52	C	1.280369	0.774113	0.750081
C53	C	0.469137	0.050524	-0.075964
C54	C	0.719137	0.300524	0.174036
C55	C	0.969137	0.550524	0.424036
C56	C	1.219137	0.800524	0.674036
C57	C	0.574038	0.078962	0.000063
C58	C	0.824038	0.328962	0.250063
C59	C	1.074038	0.578962	0.500063
C60	C	1.324038	0.828962	0.750063
C61	C	0.469138	0.050550	0.076088
C62	C	0.719138	0.300550	0.326088
C63	C	0.969138	0.550550	0.576088
C64	C	1.219138	0.800550	0.826088
C65	C	0.409142	0.076989	0.000078
C66	C	0.659142	0.326989	0.250078
C67	C	0.909142	0.576989	0.500078
C68	C	1.159142	0.826989	0.750078
C69	C	0.514034	0.105388	-0.076046
C70	C	0.764034	0.355388	0.173954
C71	C	1.014034	0.605388	0.423954
C72	C	1.264034	0.855388	0.673954
C73	C	0.514041	0.105406	0.076075
C74	C	0.764041	0.355406	0.326075
C75	C	1.014041	0.605406	0.576075
C76	C	1.264041	0.855406	0.826075
C77	C	0.452826	0.131856	0.000010
C78	C	0.702826	0.381856	0.250010
C79	C	0.952826	0.631856	0.500010
C80	C	1.202826	0.881856	0.750010
C81	C	0.669030	0.080097	0.000053
C82	C	0.919030	0.330097	0.250053
C83	C	1.169030	0.580097	0.500053
C84	C	1.419030	0.830097	0.750053
C85	C	0.314150	0.075858	0.000081
C86	C	0.564150	0.325858	0.250081
C87	C	0.814150	0.575858	0.500081
C88	C	1.064150	0.825858	0.750081
C89	C	0.998588	-0.026144	0.000095
C90	C	1.248588	0.223856	0.250095
C91	C	1.498588	0.473856	0.500095
C92	C	1.748588	0.723856	0.750095
C93	C	0.997458	-0.089366	0.000102
C94	C	1.247458	0.160634	0.250102
C95	C	1.497458	0.410634	0.500102
C96	C	1.747458	0.660634	0.750102
C97	C	1.067121	-0.488199	0.000058
C98	C	1.317121	-0.238199	0.250058
C99	C	1.567121	0.011801	0.500058
C100	C	1.817121	0.261801	0.750058
C101	C	1.066072	-0.547603	0.000051
C102	C	1.316072	-0.297603	0.250051
C103	C	1.566072	-0.047603	0.500051
C104	C	1.816072	0.202397	0.750051
O105	O	1.130650	-0.584098	0.000023
O106	O	1.380650	-0.334098	0.250023
O107	O	1.630650	-0.084098	0.500023
O108	O	1.880650	0.165902	0.750023
N109	N	0.988971	-0.570528	0.000044
N110	N	1.238971	-0.320528	0.250044
N111	N	1.488971	-0.070528	0.500044
N112	N	1.738971	0.179472	0.750044
C113	C	0.912915	-0.534045	0.000035
C114	C	1.162915	-0.284045	0.250035
C115	C	1.412915	-0.034045	0.500035
C116	C	1.662915	0.215955	0.750035
O117	O	0.847239	-0.558999	0.000027
O118	O	1.097239	-0.308999	0.250027
O119	O	1.347239	-0.058999	0.500027
O120	O	1.597239	0.191001	0.750027
C121	C	0.913965	-0.474642	0.000035
C122	C	1.163965	-0.224642	0.250035
C123	C	1.413965	0.025358	0.500035
C124	C	1.663965	0.275358	0.750035
C125	C	0.991071	-0.451721	0.000052
C126	C	1.241071	-0.201721	0.250052
C127	C	1.491071	0.048279	0.500052
C128	C	1.741071	0.298279	0.750052
C129	C	1.144220	-0.465277	0.000073
C130	C	1.394220	-0.215277	0.250073
C131	C	1.644220	0.034723	0.500073
C132	C	1.894220	0.284723	0.750073
C133	C	1.145269	-0.405877	0.000082
C134	C	1.395269	-0.155877	0.250082
C135	C	1.645269	0.094123	0.500082
C136	C	1.895269	0.344123	0.750082
C137	C	1.069219	-0.369399	0.000076
C138	C	1.319219	-0.119399	0.250076
C139	C	1.569219	0.130601	0.500076
C140	C	1.819219	0.380601	0.750076
C141	C	0.992120	-0.392320	0.000060
C142	C	1.242120	-0.142320	0.250060
C143	C	1.492120	0.107680	0.500060
C144	C	1.742120	0.357680	0.750060
C145	C	0.837910	-0.438160	0.000019
C146	C	1.087910	-0.188160	0.250019
C147	C	1.337910	0.061840	0.500019
C148	C	1.587910	0.311840	0.750019
C149	C	0.838967	-0.378754	0.000019
C150	C	1.088967	-0.128754	0.250019
C151	C	1.338967	0.121246	0.500019
C152	C	1.588967	0.371246	0.750019
C153	C	0.916072	-0.355832	0.000035
C154	C	1.166072	-0.105832	0.250035
C155	C	1.416072	0.144168	0.500035
C156	C	1.666072	0.394168	0.750035
C157	C	0.917118	-0.296442	0.000063
C158	C	1.167118	-0.046442	0.250063
C159	C	1.417118	0.203558	0.500063
C160	C	1.667118	0.453558	0.750063
N161	N	0.994219	-0.273517	0.000070
N162	N	1.244219	-0.023517	0.250070
N163	N	1.494219	0.226483	0.500070
N164	N	1.744219	0.476483	0.750070
C165	C	1.070269	-0.309995	0.000076
C166	C	1.320269	-0.059995	0.250076
C167	C	1.570269	0.190005	0.500076
C168	C	1.820269	0.440005	0.750076
C169	C	0.910716	-0.658796	0.000032
C170	C	1.160716	-0.408796	0.250032
C171	C	1.410716	-0.158796	0.500032
C172	C	1.660716	0.091204	0.750032
C173	C	0.909664	-0.718198	0.000038
C174	C	1.159664	-0.468198	0.250038
C175	C	1.409664	-0.218198	0.500038
C176	C	1.659664	0.031802	0.750038
C177	C	1.062821	-0.731752	0.000053
C178	C	1.312821	-0.481752	0.250053
C179	C	1.562821	-0.231752	0.500053
C180	C	1.812821	0.018248	0.750053
C181	C	1.063872	-0.672349	0.000053
C182	C	1.313872	-0.422349	0.250053
C183	C	1.563872	-0.172349	0.500053
C184	C	1.813872	0.077651	0.750053
C185	C	0.987816	-0.635871	0.000039
C186	C	1.237816	-0.385871	0.250039
C187	C	1.487816	-0.135871	0.500039
C188	C	1.737816	0.114129	0.750039
C189	C	1.072466	-0.185250	0.000096
C190	C	1.322466	0.064750	0.250096
C191	C	1.572466	0.314750	0.500096
C192	C	1.822466	0.564750	0.750096
C193	C	1.073508	-0.125844	0.000108
C194	C	1.323508	0.124156	0.250108
C195	C	1.573508	0.374156	0.500108
C196	C	1.823508	0.624156	0.750108
C197	C	0.920352	-0.112295	0.000089
C198	C	1.170352	0.137705	0.250089
C199	C	1.420352	0.387705	0.500089
C200	C	1.670352	0.637705	0.750089
C201	C	0.919309	-0.171696	0.000081
C202	C	1.169309	0.078304	0.250081
C203	C	1.419309	0.328304	0.500081
C204	C	1.669309	0.578304	0.750081
C205	C	0.995373	-0.208173	0.000081
C206	C	1.245373	0.041827	0.250081
C207	C	1.495373	0.291827	0.500081
C208	C	1.745373	0.541827	0.750081
O209	O	0.852574	-0.259913	0.000087
O210	O	1.102574	-0.009913	0.250087
O211	O	1.352574	0.240087	0.500087
O212	O	1.602574	0.490087	0.750087
O213	O	1.135935	-0.285033	0.000072
O214	O	1.385935	-0.035033	0.250072
O215	O	1.635935	0.214967	0.500072
O216	O	1.885935	0.464967	0.750072
C217	C	1.145190	0.073824	0.000088
C218	C	1.395190	0.323824	0.250088
C219	C	1.645190	0.573824	0.500088
C220	C	1.895190	0.823824	0.750088
C221	C	1.238427	0.074951	0.000090
C222	C	1.488427	0.324951	0.250090
C223	C	1.738427	0.574951	0.500090
C224	C	1.988427	0.824951	0.750090
C225	C	0.984586	0.182097	0.000053
C226	C	1.234586	0.432097	0.250053
C227	C	1.484586	0.682097	0.500053
C228	C	1.734586	0.932097	0.750053
C229	C	0.985715	0.245318	0.000040
C230	C	1.235715	0.495318	0.250040
C231	C	1.485715	0.745318	0.500040
C232	C	1.735715	0.995318	0.750040
N233	N	0.991562	0.077994	0.219550
N234	N	1.241562	0.327994	0.469550
N235	N	1.491562	0.577994	0.719550
N236	N	1.741562	0.827994	0.969550
N237	N	0.991618	0.077954	-0.219400
N238	N	1.241618	0.327954	0.030600
N239	N	1.491618	0.577954	0.280600
N240	N	1.741618	0.827954	0.530600
C241	C	0.931583	0.118404	0.469190
C242	C	1.181583	0.368404	0.719190
C243	C	1.431583	0.618404	0.969190
C244	C	1.681583	0.868404	1.219190
C245	C	1.007390	0.129461	0.530997
C246	C	1.257390	0.379461	0.780997
C247	C	1.507390	0.629461	1.030997
C248	C	1.757390	0.879461	1.280997
C249	C	0.991583	0.077981	0.408711
C250	C	1.241583	0.327981	0.658711
C251	C	1.491583	0.577981	0.908711
C252	C	1.741583	0.827981	1.158711
C253	C	0.915795	0.066938	0.530998
C254	C	1.165795	0.316938	0.780998
C255	C	1.415795	0.566938	1.030998
C256	C	1.665795	0.816938	1.280998
C257	C	0.991596	0.077969	0.591433
C258	C	1.241596	0.327969	0.841433
C259	C	1.491596	0.577969	1.091433
C260	C	1.741596	0.827969	1.341433
C261	C	1.067428	0.089063	0.469158
C262	C	1.317428	0.339063	0.719158
C263	C	1.567428	0.589063	0.969158
C264	C	1.817428	0.839063	1.219158
C265	C	0.975783	0.026517	0.469153
C266	C	1.225783	0.276517	0.719153
C267	C	1.475783	0.526517	0.969153
C268	C	1.725783	0.776517	1.219153
C269	C	1.051645	0.037552	0.530932
C270	C	1.301645	0.287552	0.780932
C271	C	1.551645	0.537552	1.030932
C272	C	1.801645	0.787552	1.280932
C273	C	0.991574	0.077989	0.303450
C274	C	1.241574	0.327989	0.553450
C275	C	1.491574	0.577989	0.803450
C276	C	1.741574	0.827989	1.053450
C277	C	0.991613	0.077960	0.696691
C278	C	1.241613	0.327960	0.946691
C279	C	1.491613	0.577960	1.196691
C280	C	1.741613	0.827960	1.446691
H281	H	1.136300	-0.107185	0.000124
H282	H	1.386300	0.142815	0.250124
H283	H	1.636300	0.392815	0.500124
H284	H	1.886300	0.642815	0.750124
H285	H	1.131539	0.098450	0.442108
H286	H	1.381539	0.348450	0.692108
H287	H	1.631539	0.598450	0.942108
H288	H	1.881539	0.848450	1.192108
H289	H	1.020766	0.172977	0.558161
H290	H	1.270766	0.422977	0.808161
H291	H	1.520766	0.672977	1.058161
H292	H	1.770766	0.922977	1.308161
O293	O	1.154504	-0.224589	0.000110
O294	O	1.404504	0.025411	0.250110
O295	O	1.654504	0.275411	0.500110
O296	O	1.904504	0.525411	0.750110
H297	H	1.208285	-0.198662	0.000133
H298	H	1.458285	0.051338	0.250133
H299	H	1.708285	0.301338	0.500133
H300	H	1.958285	0.551338	0.750133
H301	H	0.880895	0.152617	0.442080
H302	H	1.130895	0.402617	0.692080
H303	H	1.380895	0.652617	0.942080
H304	H	1.630895	0.902617	1.192080
O305	O	1.228433	-0.381157	0.000073
O306	O	1.478433	-0.131157	0.250073
O307	O	1.728433	0.118843	0.500073
O308	O	1.978433	0.368843	0.750073
H309	H	1.281131	-0.416510	0.000061
H310	H	1.531131	-0.166510	0.250061
H311	H	1.781131	0.083490	0.500061
H312	H	2.031131	0.333490	0.750061
H313	H	1.102445	0.003360	0.557872
H314	H	1.352445	0.253360	0.807872
H315	H	1.602445	0.503360	1.057872
H316	H	1.852445	0.753360	1.307872
H317	H	0.962384	-0.016985	0.441967
H318	H	1.212384	0.233015	0.691967
H319	H	1.462384	0.483015	0.941967
H320	H	1.712384	0.733015	1.191967
O321	O	0.574960	-0.036202	0.000005
O322	O	0.824960	0.213798	0.250005
O323	O	1.074960	0.463798	0.500005
O324	O	1.324960	0.713798	0.750005
H325	H	0.615534	-0.042750	-0.062536
H326	H	0.865534	0.207250	0.187464
H327	H	1.115534	0.457250	0.437464
H328	H	1.365534	0.707250	0.687464
O329	O	1.226252	-0.504618	0.000094
O330	O	1.476252	-0.254618	0.250094
O331	O	1.726252	-0.004618	0.500094
O332	O	1.976252	0.245382	0.750094
H333	H	1.280032	-0.478689	0.000114
H334	H	1.530032	-0.228689	0.250114
H335	H	1.780032	0.021311	0.500114
H336	H	2.030032	0.271311	0.750114
H337	H	0.846878	-0.736855	0.000041
H338	H	1.096878	-0.486855	0.250041
H339	H	1.346878	-0.236855	0.500041
H340	H	1.596878	0.013145	0.750041
H341	H	1.124746	-0.761464	0.000054
H342	H	1.374746	-0.511464	0.250054
H343	H	1.624746	-0.261464	0.500054
H344	H	1.874746	-0.011464	0.750054
H345	H	0.449231	0.027320	-0.140246
H346	H	0.699231	0.277320	0.109754
H347	H	0.949231	0.527320	0.359754
H348	H	1.199231	0.777320	0.609754
H349	H	0.851698	0.057603	0.558164
H350	H	1.101698	0.307603	0.808164
H351	H	1.351698	0.557603	1.058164
H352	H	1.601698	0.807603	1.308164
H353	H	0.533835	0.128563	-0.140407
H354	H	0.783835	0.378563	0.109593
H355	H	1.033835	0.628563	0.359593
H356	H	1.283835	0.878563	0.609593
H357	H	0.775123	-0.456812	0.000000
H358	H	1.025123	-0.206812	0.250000
H359	H	1.275123	0.043188	0.500000
H360	H	1.525123	0.293188	0.750000
O361	O	0.408403	0.192216	-0.000049
O362	O	0.658403	0.442216	0.249951
O363	O	0.908403	0.692216	0.499951
O364	O	1.158403	0.942216	0.749951
H365	H	0.367874	0.198829	-0.062609
H366	H	0.617874	0.448829	0.187391
H367	H	0.867874	0.698829	0.437391
H368	H	1.117874	0.948829	0.687391
O369	O	0.540459	0.136114	0.161221
O370	O	0.790459	0.386114	0.411221
O371	O	1.040459	0.636114	0.661221
O372	O	1.290459	0.886114	0.911221
H373	H	0.522702	0.113262	0.224258
H374	H	0.772702	0.363262	0.474258
H375	H	1.022702	0.613262	0.724258
H376	H	1.272702	0.863262	0.974258
O377	O	0.442782	0.019823	0.161255
O378	O	0.692782	0.269823	0.411255
O379	O	0.942782	0.519823	0.661255
O380	O	1.192782	0.769823	0.911255
H381	H	0.474163	-0.024883	0.161098
H382	H	0.724163	0.225117	0.411098
H383	H	0.974163	0.475117	0.661098
H384	H	1.224163	0.725117	0.911098
H385	H	1.126658	-0.653691	0.000066
H386	H	1.376658	-0.403691	0.250066
H387	H	1.626658	-0.153691	0.500066
H388	H	1.876658	0.096309	0.750066
H389	H	0.848778	-0.629098	0.000028
H390	H	1.098778	-0.379098	0.250028
H391	H	1.348778	-0.129098	0.500028
H392	H	1.598778	0.120902	0.750028
H393	H	0.777032	-0.349056	0.000006
H394	H	1.027032	-0.099056	0.250006
H395	H	1.277032	0.150944	0.500006
H396	H	1.527032	0.400944	0.750006
H397	H	0.856524	-0.190359	0.000094
H398	H	1.106524	0.059641	0.250094
H399	H	1.356524	0.309641	0.500094
H400	H	1.606524	0.559641	0.750094
O401	O	0.838327	-0.072946	0.000081
O402	O	1.088327	0.177054	0.250081
O403	O	1.338327	0.427054	0.500081
O404	O	1.588327	0.677054	0.750081
H405	H	0.852018	-0.027790	0.000079
H406	H	1.102018	0.222210	0.250079
H407	H	1.352018	0.472210	0.500079
H408	H	1.602018	0.722210	0.750079
