data_functionalizedCrystal
_audit_creation_method	'MofGen! by Chris Wilmer'
_symmetry_space_group_name_H-M	'P1'
_symmetry_Int_Tables_number	1
_symmetry_cell_setting	triclinic
loop_
_symmetry_equiv_pos_as_xyz
  x,y,z
_cell_length_a	14.908783
_cell_length_b	19.805405
_cell_length_c	19.805399
_cell_angle_alpha	90.028893
_cell_angle_beta	86.683876
_cell_angle_gamma	86.681500
loop_
_atom_site_label
_atom_site_type_symbol
_atom_site_fract_x
_atom_site_fract_y
_atom_site_fract_z
Zn1	Zn	1.379179	0.209843	-0.442500
Zn2	Zn	1.379069	0.323039	-0.329307
Zn3	Zn	1.228320	0.216386	-0.322785
Zn4	Zn	1.228261	0.329520	-0.435917
O5	O	1.303707	0.269697	-0.382627
O6	O	1.505413	0.219407	-0.432969
O7	O	1.359051	0.308917	-0.233724
O8	O	1.248403	0.120799	-0.338691
O9	O	1.505332	0.302572	-0.349806
O10	O	1.359238	0.115991	-0.426645
O11	O	1.248296	0.230560	-0.228933
O12	O	1.102063	0.236845	-0.332308
O13	O	1.248302	0.313618	-0.531508
O14	O	1.102020	0.319963	-0.415426
O15	O	1.359181	0.225692	-0.536344
O16	O	1.358993	0.418618	-0.343423
O17	O	1.248195	0.423380	-0.421749
C18	C	1.069307	0.279818	-0.372445
C19	C	0.969029	0.284164	-0.368106
C20	C	0.780679	0.205850	-0.446680
C21	C	0.686459	0.209931	-0.442605
C22	C	0.686368	0.296404	-0.355877
C23	C	0.780588	0.292322	-0.359952
C24	C	0.827740	0.247045	-0.405356
C25	C	0.921962	0.242968	-0.409434
C26	C	0.921869	0.329436	-0.322703
C27	C	0.827649	0.333517	-0.318628
C28	C	1.303600	0.445558	-0.382595
C29	C	1.303637	0.520788	-0.382608
C30	C	1.303747	0.269648	-0.559172
C31	C	1.303764	0.269627	-0.634404
C32	C	1.539023	0.259537	-0.392849
C33	C	1.639301	0.255207	-0.397205
C34	C	1.361385	0.553628	-0.341872
C35	C	1.361421	0.624315	-0.341891
C36	C	1.303704	0.662161	-0.382642
C37	C	1.245954	0.629316	-0.423383
C38	C	1.245923	0.558630	-0.423367
C39	C	1.246078	0.914384	-0.423447
C40	C	1.246112	0.985074	-0.423458
C41	C	1.361576	0.980068	-0.341971
C42	C	1.361545	0.909382	-0.341956
C43	C	1.303799	0.876544	-0.382698
C44	C	1.303762	0.799897	-0.382678
C45	C	1.303736	0.738806	-0.382659
C46	C	1.303831	1.093149	-0.382683
C47	C	1.303865	1.017915	-0.382726
C48	C	1.246110	0.228822	-0.667254
C49	C	1.246123	0.228808	-0.737943
C50	C	1.303794	0.269597	-0.775781
C51	C	1.361450	0.310407	-0.742927
C52	C	1.361432	0.310424	-0.672239
C53	C	1.361521	0.310340	-1.028004
C54	C	1.361536	0.310319	-1.098696
C55	C	1.246212	0.228725	-1.093707
C56	C	1.246194	0.228742	-1.023020
C57	C	1.303846	0.269554	-0.990171
C58	C	1.303831	0.269570	-0.913522
C59	C	1.303814	0.269578	-0.852429
C60	C	1.303720	0.269694	-0.206772
C61	C	1.303878	0.269517	-0.131547
H62	H	1.408380	0.522818	-0.308685
C63	C	1.424972	0.355190	-1.140321
H64	H	1.416731	0.349327	-1.187124
H65	H	1.411729	0.401242	-1.128153
H66	H	1.485599	0.342669	-1.131372
H67	H	0.647961	0.333259	-0.318903
C68	C	1.182786	0.183836	-1.129839
H69	H	1.148446	0.159541	-1.097179
H70	H	1.143460	0.211415	-1.155699
H71	H	1.217333	0.152845	-1.158922
H72	H	0.819071	0.168986	-0.483652
H73	H	0.789245	0.370379	-0.281659
H74	H	0.648146	0.176384	-0.476253
C75	C	1.182628	1.026704	-0.468292
H76	H	1.148239	0.997023	-0.492561
H77	H	1.143351	1.056020	-0.440680
H78	H	1.217140	1.052744	-0.499306
H79	H	1.199235	0.195525	-0.992215
C80	C	0.973637	0.374753	-0.277245
H81	H	1.036505	0.365837	-0.286172
H82	H	0.958175	0.420911	-0.286403
H83	H	0.958179	0.365457	-0.231113
C84	C	1.424939	0.660436	-0.297079
H85	H	1.459299	0.627773	-0.272800
H86	H	1.464242	0.686269	-0.324703
H87	H	1.390456	0.689543	-0.266074
H88	H	1.198900	0.531893	-0.456539
H89	H	1.408456	0.343580	-1.001267
H90	H	1.408402	0.343621	-0.773741
C91	C	1.425105	1.016189	-0.297158
H92	H	1.459465	0.983525	-0.272881
H93	H	1.464408	1.042023	-0.324783
H94	H	1.390624	1.045296	-0.266152
H95	H	1.199058	0.887652	-0.456620
H96	H	1.198964	0.660136	-0.456566
C97	C	1.424851	0.355310	-0.636105
H98	H	1.459205	0.379596	-0.668763
H99	H	1.390308	0.386297	-0.607022
H100	H	1.464177	0.327724	-0.610244
H101	H	1.199153	0.195603	-0.636451
H102	H	1.199172	0.195583	-0.764686
C103	C	1.425036	0.867755	-0.297132
H104	H	1.459441	0.897438	-0.272879
H105	H	1.390542	0.841711	-0.266116
H106	H	1.464312	0.838443	-0.324756
H107	H	0.960351	0.206101	-0.446405
