data_functionalizedCrystal
_audit_creation_method	'MofGen! by Chris Wilmer'
_symmetry_space_group_name_H-M	'P1'
_symmetry_Int_Tables_number	1
_symmetry_cell_setting	triclinic
loop_
_symmetry_equiv_pos_as_xyz
  x,y,z
_cell_length_a	18.215407
_cell_length_b	18.050590
_cell_length_c	18.215399
_cell_angle_alpha	89.968856
_cell_angle_beta	89.983176
_cell_angle_gamma	90.019000
loop_
_atom_site_label
_atom_site_type_symbol
_atom_site_fract_x
_atom_site_fract_y
_atom_site_fract_z
Zn1	Zn	1.125082	-0.295641	-0.416112
Zn2	Zn	1.458416	0.037693	-0.082779
Zn3	Zn	1.791749	0.371026	0.250555
Zn4	Zn	1.125011	-0.419841	-0.293044
Zn5	Zn	1.458344	-0.086507	0.040289
Zn6	Zn	1.791678	0.246826	0.373623
Zn7	Zn	1.002022	-0.295670	-0.293059
Zn8	Zn	1.335355	0.037663	0.040274
Zn9	Zn	1.668688	0.370997	0.373607
Zn10	Zn	1.001995	-0.419794	-0.416069
Zn11	Zn	1.335328	-0.086461	-0.082735
Zn12	Zn	1.668661	0.246872	0.250598
O13	O	1.063527	-0.357736	-0.354571
O14	O	1.396861	-0.024403	-0.021238
O15	O	1.730194	0.308930	0.312096
O16	O	1.228057	-0.312123	-0.399798
O17	O	1.561391	0.021210	-0.066465
O18	O	1.894724	0.354544	0.266868
O19	O	1.108677	-0.403401	-0.190062
O20	O	1.442011	-0.070068	0.143272
O21	O	1.775344	0.263266	0.476605
O22	O	1.018387	-0.191742	-0.309407
O23	O	1.351720	0.141592	0.023926
O24	O	1.685054	0.474925	0.357260
O25	O	1.228005	-0.403372	-0.309381
O26	O	1.561338	-0.070039	0.023953
O27	O	1.894671	0.263294	0.357286
O28	O	1.108799	-0.191720	-0.399813
O29	O	1.442133	0.141613	-0.066480
O30	O	1.775466	0.474947	0.266854
O31	O	1.018318	-0.312173	-0.190073
O32	O	1.351651	0.021160	0.143260
O33	O	1.684984	0.354493	0.476594
O34	O	0.899034	-0.312128	-0.309365
O35	O	1.232367	0.021205	0.023968
O36	O	1.565700	0.354538	0.357302
O37	O	1.018341	-0.403293	-0.519059
O38	O	1.351674	-0.069960	-0.185725
O39	O	1.685008	0.263374	0.147608
O40	O	0.899014	-0.403322	-0.399740
O41	O	1.232347	-0.069988	-0.066406
O42	O	1.565681	0.263345	0.266927
O43	O	1.108773	-0.312078	-0.519090
O44	O	1.442107	0.021255	-0.185757
O45	O	1.775440	0.354589	0.147576
O46	O	1.108651	-0.523759	-0.309339
O47	O	1.441985	-0.190426	0.023994
O48	O	1.775318	0.142908	0.357328
O49	O	1.018272	-0.523725	-0.399725
O50	O	1.351605	-0.190392	-0.066392
O51	O	1.684938	0.142942	0.266942
C52	C	0.872321	-0.357724	-0.354550
C53	C	1.205654	-0.024390	-0.021216
C54	C	1.538988	0.308943	0.312117
C55	C	0.790522	-0.357736	-0.354558
C56	C	1.123856	-0.024403	-0.021225
C57	C	1.457189	0.308931	0.312108
C58	C	0.602337	-0.405295	-0.401557
C59	C	0.935671	-0.071962	-0.068224
C60	C	1.269004	0.261371	0.265109
C61	C	0.525478	-0.405298	-0.401566
C62	C	0.858812	-0.071964	-0.068233
C63	C	1.192145	0.261369	0.265100
C64	C	0.525470	-0.310191	-0.307601
C65	C	0.858803	0.023142	0.025733
C66	C	1.192136	0.356476	0.359066
C67	C	0.602327	-0.310185	-0.307596
C68	C	0.935660	0.023148	0.025738
C69	C	1.268994	0.356481	0.359071
C70	C	0.640759	-0.357742	-0.354573
C71	C	0.974092	-0.024408	-0.021240
C72	C	1.307425	0.308925	0.312094
C73	C	0.487043	-0.357750	-0.354587
C74	C	0.820376	-0.024416	-0.021254
C75	C	1.153709	0.308917	0.312080
C76	C	0.403709	-0.357752	-0.354597
C77	C	0.737042	-0.024418	-0.021263
C78	C	1.070376	0.308915	0.312070
C79	C	0.724098	-0.357739	-0.354565
C80	C	1.057431	-0.024406	-0.021231
C81	C	1.390764	0.308928	0.312102
C82	C	1.063471	-0.550689	-0.354542
C83	C	1.396804	-0.217355	-0.021208
C84	C	1.730137	0.115978	0.312125
C85	C	1.063514	-0.633234	-0.354554
C86	C	1.396847	-0.299901	-0.021220
C87	C	1.730181	0.033432	0.312113
C88	C	1.112765	-0.832676	-0.305470
C89	C	1.446098	-0.499343	0.027863
C90	C	1.779431	-0.166010	0.361196
C91	C	1.130738	-0.882006	-0.372637
C92	C	1.464071	-0.548672	-0.039304
C93	C	1.797405	-0.215339	0.294029
C94	C	1.063556	-0.784365	-0.354583
C95	C	1.396889	-0.451031	-0.021250
C96	C	1.730222	-0.117698	0.312084
C97	C	1.045657	-0.882117	-0.287446
C98	C	1.378990	-0.548784	0.045887
C99	C	1.712324	-0.215450	0.379220
C100	C	1.063597	-0.930350	-0.354605
C101	C	1.396931	-0.597016	-0.021272
C102	C	1.730264	-0.263683	0.312061
C103	C	1.081564	-0.832607	-0.421785
C104	C	1.414897	-0.499273	-0.088452
C105	C	1.748230	-0.165940	0.244881
C106	C	0.996451	-0.832714	-0.336549
C107	C	1.329785	-0.499380	-0.003216
C108	C	1.663118	-0.166047	0.330118
C109	C	1.014399	-0.882020	-0.403762
C110	C	1.347733	-0.548687	-0.070429
C111	C	1.681066	-0.215354	0.262905
C112	C	1.063534	-0.700266	-0.354569
C113	C	1.396867	-0.366933	-0.021236
C114	C	1.730200	-0.033600	0.312098
C115	C	1.063619	-1.014446	-0.354627
C116	C	1.396953	-0.681113	-0.021294
C117	C	1.730286	-0.347780	0.312040
C118	C	1.255480	-0.357750	-0.354593
C119	C	1.588814	-0.024416	-0.021259
C120	C	1.922147	0.308917	0.312074
C121	C	1.337279	-0.357755	-0.354602
C122	C	1.670612	-0.024422	-0.021268
C123	C	2.003946	0.308911	0.312065
C124	C	1.063562	-0.357677	-0.546524
C125	C	1.396895	-0.024344	-0.213191
C126	C	1.730229	0.308990	0.120143
C127	C	1.063577	-0.357652	-0.628323
C128	C	1.396910	-0.024318	-0.294990
C129	C	1.730244	0.309015	0.038344
C130	C	1.063604	-0.164031	-0.354616
C131	C	1.396938	0.169303	-0.021283
C132	C	1.730271	0.502636	0.312050
C133	C	1.063637	-0.081485	-0.354636
C134	C	1.396970	0.251848	-0.021303
C135	C	1.730304	0.585182	0.312031
C136	C	1.016566	-0.310117	-0.816524
C137	C	1.349900	0.023216	-0.483190
C138	C	1.683233	0.356549	-0.149857
C139	C	1.016579	-0.310102	-0.893382
C140	C	1.349912	0.023231	-0.560049
C141	C	1.683246	0.356564	-0.226716
C142	C	1.110676	-0.405097	-0.893360
C143	C	1.444009	-0.071764	-0.560027
C144	C	1.777342	0.261569	-0.226693
C145	C	1.110658	-0.405116	-0.816503
C146	C	1.443992	-0.071782	-0.483169
C147	C	1.777325	0.261551	-0.149836
C148	C	1.063605	-0.357621	-0.778086
C149	C	1.396938	-0.024288	-0.444753
C150	C	1.730272	0.309045	-0.111420
C151	C	1.063635	-0.357588	-0.931803
C152	C	1.396968	-0.024255	-0.598469
C153	C	1.730301	0.309078	-0.265136
C154	C	1.063649	-0.357572	-1.015136
C155	C	1.396982	-0.024239	-0.681803
C156	C	1.730316	0.309094	-0.348470
C157	C	1.063590	-0.357638	-0.694747
C158	C	1.396923	-0.024305	-0.361414
C159	C	1.730256	0.309029	-0.028081
C160	C	1.063535	-0.357742	-0.163365
C161	C	1.396868	-0.024409	0.169969
C162	C	1.730202	0.308925	0.503302
C163	C	1.063663	-0.357558	-0.081566
C164	C	1.396996	-0.024225	0.251767
C165	C	1.730330	0.309109	0.585100
H166	H	1.154393	-0.811010	-0.263980
H167	H	1.487726	-0.477676	0.069353
H168	H	1.821060	-0.144343	0.402686
H169	H	0.978252	-0.271445	-0.785247
H170	H	1.311586	0.061889	-0.451914
H171	H	1.644919	0.395222	-0.118581
H172	H	1.187505	-0.903660	-0.387905
H173	H	1.520838	-0.570326	-0.054572
H174	H	1.854171	-0.236993	0.278762
Cl175	Cl	0.477180	-0.465080	-0.460637
Cl176	Cl	0.810514	-0.131747	-0.127303
Cl177	Cl	1.143847	0.201586	0.206030
Cl178	Cl	0.650632	-0.250394	-0.248530
Cl179	Cl	0.983965	0.082939	0.084804
Cl180	Cl	1.317299	0.416272	0.418137
H181	H	1.096663	-0.810952	-0.478620
H182	H	1.429996	-0.477618	-0.145287
H183	H	1.763330	-0.144285	0.188047
H184	H	0.978275	-0.271421	-0.924675
H185	H	1.311608	0.061913	-0.591341
H186	H	1.644942	0.395246	-0.258008
H187	H	1.148985	-0.443765	-0.924648
H188	H	1.482319	-0.110432	-0.591315
H189	H	1.815652	0.222902	-0.257981
H190	H	1.148965	-0.443802	-0.785206
H191	H	1.482298	-0.110469	-0.451873
H192	H	1.815631	0.222865	-0.118540
Cl193	Cl	0.950178	-0.915265	-0.467971
Cl194	Cl	1.283511	-0.581932	-0.134638
Cl195	Cl	1.616844	-0.248599	0.198695
H196	H	0.633626	-0.444017	-0.439811
H197	H	0.966960	-0.110683	-0.106478
H198	H	1.300293	0.222650	0.226856
H199	H	0.494169	-0.271473	-0.269352
H200	H	0.827502	0.061860	0.063981
H201	H	1.160836	0.395193	0.397314
H202	H	1.030501	-0.903864	-0.230660
H203	H	1.363835	-0.570531	0.102673
H204	H	1.697168	-0.237197	0.436006
H205	H	0.939701	-0.811044	-0.321261
H206	H	1.273035	-0.477710	0.012072
H207	H	1.606368	-0.144377	0.345406
