data_functionalizedCrystal
_audit_creation_method	'MofGen! by Chris Wilmer'
_symmetry_space_group_name_H-M	'P1'
_symmetry_Int_Tables_number	1
_symmetry_cell_setting	triclinic
loop_
_symmetry_equiv_pos_as_xyz
  x,y,z
_cell_length_a	16.992694
_cell_length_b	12.837942
_cell_length_c	16.053802
_cell_angle_alpha	92.838962
_cell_angle_beta	87.249047
_cell_angle_gamma	92.748582
loop_
_atom_site_label
_atom_site_type_symbol
_atom_site_fract_x
_atom_site_fract_y
_atom_site_fract_z
O1	O	1.059913	0.217066	-0.069322
O2	O	1.559913	0.717066	0.430678
O3	O	0.831447	0.214638	-0.069347
O4	O	1.331447	0.714638	0.430653
O5	O	0.940614	0.064530	-0.069330
O6	O	1.440614	0.564530	0.430670
O7	O	0.950746	0.367174	-0.069339
O8	O	1.450746	0.867174	0.430661
O9	O	0.934602	0.072756	0.069528
O10	O	1.434602	0.572756	0.569528
O11	O	0.825435	0.222864	0.069511
O12	O	1.325435	0.722864	0.569511
O13	O	1.053901	0.225292	0.069536
O14	O	1.553901	0.725292	0.569536
Zn15	Zn	0.938714	0.225384	0.091570
Zn16	Zn	1.438714	0.725384	0.591570
Zn17	Zn	0.946634	0.214546	-0.091381
Zn18	Zn	1.446634	0.714546	0.408619
O19	O	0.944734	0.375400	0.069519
O20	O	1.444734	0.875400	0.569519
C21	C	0.798996	0.215629	0.000079
C22	C	1.298996	0.715629	0.500079
C23	C	0.711256	0.206315	0.000070
C24	C	1.211256	0.706315	0.500070
C25	C	0.667730	0.296178	0.000068
C26	C	1.167730	0.796178	0.500068
C27	C	0.585288	0.287422	0.000079
C28	C	1.085288	0.787422	0.500079
C29	C	0.546375	0.188801	0.000087
C30	C	1.046375	0.688801	0.500087
C31	C	0.589907	0.098931	0.000092
C32	C	1.089907	0.598931	0.500092
C33	C	0.672346	0.107689	0.000086
C34	C	1.172346	0.607689	0.500086
C35	C	0.300064	0.152502	0.000111
C36	C	0.800064	0.652502	0.500111
C37	C	0.217618	0.143751	0.000114
C38	C	0.717618	0.643751	0.500114
C39	C	0.213006	0.332243	0.000103
C40	C	0.713006	0.832243	0.500103
C41	C	0.295447	0.340992	0.000092
C42	C	0.795447	0.840992	0.500092
C43	C	0.338972	0.251122	0.000101
C44	C	0.838972	0.751122	0.500101
N45	N	0.462107	0.179847	0.000097
N46	N	0.962107	0.679847	0.500097
N47	N	0.423238	0.260077	0.000098
N48	N	0.923238	0.760077	0.500098
C49	C	0.934185	0.029738	0.000098
C50	C	1.434185	0.529738	0.500098
C51	C	0.923977	-0.086184	0.000096
C52	C	1.423977	0.413816	0.500096
C53	C	1.046699	-0.316977	0.000092
C54	C	1.546699	0.183023	0.500092
C55	C	1.037111	-0.425897	0.000089
C56	C	1.537111	0.074103	0.500089
C57	C	0.895215	-0.412948	0.000082
C58	C	1.395215	0.087052	0.500082
C59	C	0.904802	-0.304027	0.000085
C60	C	1.404802	0.195973	0.500085
C61	C	0.980547	-0.256046	0.000091
C62	C	1.480547	0.243954	0.500091
C63	C	0.990134	-0.147123	0.000099
C64	C	1.490134	0.352877	0.500099
C65	C	0.848238	-0.134176	0.000086
C66	C	1.348238	0.365824	0.500086
C67	C	0.838650	-0.243097	0.000084
C68	C	1.338650	0.256903	0.500084
C69	C	1.086353	0.224300	0.000108
C70	C	1.586353	0.724300	0.500108
C71	C	1.174092	0.233614	0.000112
C72	C	1.674092	0.733614	0.500112
C73	C	0.951163	0.410191	0.000089
C74	C	1.451163	0.910191	0.500089
C75	C	0.961371	0.526114	0.000086
C76	C	1.461371	1.026114	0.500086
N77	N	0.933314	0.232780	0.216430
N78	N	1.433314	0.732780	0.716430
N79	N	0.952040	0.207141	-0.216241
N80	N	1.452040	0.707141	0.283759
C81	C	0.979785	0.168935	0.260131
C82	C	1.479785	0.668935	0.760131
C83	C	0.976016	0.174120	0.347537
C84	C	1.476016	0.674120	0.847537
C85	C	0.925779	0.243156	0.391240
C86	C	1.425779	0.743156	0.891240
C87	C	0.879303	0.307004	0.347533
C88	C	1.379303	0.807004	0.847533
C89	C	0.883068	0.301813	0.260129
C90	C	1.383068	0.801813	0.760129
C91	C	0.909329	0.265799	0.652647
C92	C	1.409329	0.765799	1.152647
C93	C	0.905569	0.270987	0.740058
C94	C	1.405569	0.770987	1.240058
C95	C	1.002281	0.138101	0.740056
C96	C	1.502281	0.638101	1.240056
C97	C	1.006046	0.132921	0.652650
C98	C	1.506046	0.632921	1.152650
C99	C	0.959566	0.196765	0.608950
C100	C	1.459566	0.696765	1.108950
N101	N	0.921927	0.248459	0.480584
N102	N	1.421927	0.748459	0.980584
N103	N	0.963414	0.191455	0.519608
N104	N	1.463414	0.691455	1.019608
H105	H	0.177559	0.405409	0.000097
H106	H	0.677559	0.905409	0.500097
O107	O	0.859208	0.334666	0.605518
O108	O	1.359208	0.834666	1.105518
H109	H	0.823652	0.383550	0.650595
H110	H	1.323652	0.883550	1.150595
H111	H	0.845226	0.353801	0.224548
H112	H	1.345226	0.853801	0.724548
O113	O	0.719300	0.010768	0.000091
O114	O	1.219300	0.510768	0.500091
H115	H	0.707035	-0.039459	-0.056505
H116	H	1.207035	0.460541	0.443495
O117	O	0.175649	0.037373	0.000133
O118	O	0.675649	0.537373	0.500133
H119	H	0.111011	0.046386	0.000128
H120	H	0.611011	0.546386	0.500128
H121	H	0.335492	0.079324	0.000119
H122	H	0.835492	0.579324	0.500119
O123	O	0.776880	-0.068461	0.000082
O124	O	1.276880	0.431539	0.500082
H125	H	0.796269	0.015340	0.000081
H126	H	1.296269	0.515340	0.500081
O127	O	0.825120	0.381471	0.394664
O128	O	1.325120	0.881471	0.894664
H129	H	0.830316	0.374366	0.462784
H130	H	1.330316	0.874366	0.962784
H131	H	1.040121	0.086121	0.775644
H132	H	1.540121	0.586121	1.275644
H133	H	0.699407	0.376486	0.000061
H134	H	1.199407	0.876486	0.500061
O135	O	0.851372	0.345437	0.787201
O136	O	1.351372	0.845437	1.287201
H137	H	0.819676	0.388951	0.742131
H138	H	1.319676	0.888951	1.242131
O139	O	1.071826	-0.095366	0.000105
O140	O	1.571826	0.404634	0.500105
H141	H	1.082029	-0.049394	-0.056488
H142	H	1.582029	0.450606	0.443512
H143	H	0.776981	-0.282179	0.000076
H144	H	1.276981	0.217821	0.500076
H145	H	0.558216	0.018632	0.000110
H146	H	1.058216	0.518632	0.500110
O147	O	0.337409	0.447369	0.000103
O148	O	0.837409	0.947369	0.500103
H149	H	0.322915	0.487537	-0.056487
H150	H	0.822915	0.987537	0.443513
O151	O	1.026153	0.105279	0.394675
O152	O	1.526153	0.605279	0.894675
H153	H	1.061731	0.056418	0.349601
H154	H	1.561731	0.556418	0.849601
O155	O	1.128389	-0.265213	0.000097
O156	O	1.628389	0.234787	0.500097
H157	H	1.172779	-0.325883	0.000093
H158	H	1.672779	0.174117	0.500093
H159	H	1.090979	-0.475503	0.000087
H160	H	1.590979	0.024497	0.500087
O161	O	0.538344	0.384347	0.000073
O162	O	1.038344	0.884347	0.500073
H163	H	0.498240	0.388229	0.056677
H164	H	0.998240	0.888229	0.556677
O165	O	0.813527	-0.464717	0.000081
O166	O	1.313527	0.035283	0.500081
H167	H	0.808218	-0.517385	-0.056514
H168	H	1.308218	-0.017385	0.443486
O169	O	1.033966	0.094470	0.212994
O170	O	1.533966	0.594470	0.712994
H171	H	1.065640	0.050938	0.258070
H172	H	1.565640	0.550938	0.758070
H173	H	1.046952	0.076706	0.617068
H174	H	1.546952	0.576706	1.117068
