data_functionalizedCrystal
_audit_creation_method	'MofGen! by Chris Wilmer'
_symmetry_space_group_name_H-M	'P1'
_symmetry_Int_Tables_number	1
_symmetry_cell_setting	triclinic
loop_
_symmetry_equiv_pos_as_xyz
  x,y,z
_cell_length_a	23.532407
_cell_length_b	14.044220
_cell_length_c	13.101039
_cell_angle_alpha	93.659868
_cell_angle_beta	93.332685
_cell_angle_gamma	91.981187
loop_
_atom_site_label
_atom_site_type_symbol
_atom_site_fract_x
_atom_site_fract_y
_atom_site_fract_z
O1	O	0.134360	-1.261652	-0.085141
O2	O	0.129407	-0.985731	-0.085166
O3	O	0.049403	-1.132010	-0.085124
O4	O	0.214363	-1.115373	-0.085183
O5	O	0.055154	-1.121514	0.085303
O6	O	0.135157	-0.975235	0.085261
O7	O	0.140110	-1.251156	0.085286
Zn8	Zn	0.138547	-1.111529	0.112332
Zn9	Zn	0.130970	-1.125358	-0.112213
O10	O	0.220113	-1.104877	0.085244
C11	C	0.130114	-0.945189	0.000045
C12	C	0.123648	-0.840025	0.000037
C13	C	0.031040	-1.126338	0.000094
C14	C	-0.032246	-1.125063	0.000110
C15	C	0.139403	-1.291698	0.000073
C16	C	0.145869	-1.396863	0.000074
C17	C	-0.303392	-1.033247	0.000038
C18	C	-0.243928	-1.034430	0.000046
O19	O	-0.211133	-0.961592	0.000007
N20	N	-0.216587	-1.121393	0.000065
C21	C	-0.248715	-1.207179	0.000066
O22	O	-0.220000	-1.281257	0.000083
C23	C	-0.308179	-1.205996	0.000051
C24	C	-0.335516	-1.119026	0.000042
C25	C	-0.330730	-0.946284	0.000028
C26	C	-0.390190	-0.945102	0.000021
C27	C	-0.422313	-1.030881	0.000026
C28	C	-0.394976	-1.117844	0.000036
C29	C	-0.340306	-1.291782	0.000045
C30	C	-0.399773	-1.290591	0.000029
C31	C	-0.427110	-1.203621	0.000020
C32	C	-0.486560	-1.202441	0.000034
N33	N	-0.513901	-1.115477	0.000015
C34	C	-0.481777	-1.029698	0.000010
C35	C	-0.123837	-1.209659	0.000097
C36	C	-0.064374	-1.210843	0.000119
C37	C	-0.059591	-1.038093	0.000097
C38	C	-0.119055	-1.036909	0.000082
C39	C	-0.151177	-1.122695	0.000077
C40	C	-0.606649	-1.027220	-0.000002
C41	C	-0.666114	-1.026045	-0.000003
C42	C	-0.670893	-1.198795	0.000014
C43	C	-0.611432	-1.199970	0.000021
C44	C	-0.579311	-1.114176	0.000010
O45	O	-0.519392	-1.275240	0.000069
O46	O	-0.510501	-0.955633	-0.000020
C47	C	0.238477	-1.110549	0.000023
C48	C	0.301762	-1.111825	0.000001
N49	N	0.143717	-1.102099	0.265578
C50	C	0.111828	-0.647473	0.000061
C51	C	0.157686	-0.589409	0.000049
C52	C	0.151109	-0.482266	0.000063
C53	C	0.118404	-0.754625	0.000048
N54	N	0.125795	-1.134796	-0.265458
C55	C	0.150758	-1.089268	0.474617
C56	C	0.118757	-1.147623	0.525509
C57	C	0.122674	-1.140484	0.641826
C58	C	0.146841	-1.096406	0.358290
H59	H	-0.688369	-0.955221	-0.000006
H60	H	0.181095	-1.033952	0.518398
O61	O	0.053281	-0.606745	0.000087
H62	H	0.045759	-0.566545	-0.069375
O63	O	-0.434417	-1.383122	0.000037
H64	H	-0.463955	-1.391004	-0.069431
O65	O	-0.572007	-0.934687	0.000002
H66	H	-0.601014	-0.874025	0.000007
O67	O	-0.419671	-0.851298	0.000007
H68	H	-0.409442	-0.814396	-0.069465
O69	O	-0.296086	-0.853756	0.000039
H70	H	-0.325094	-0.793097	0.000040
H71	H	0.201887	-0.620165	0.000029
H72	H	-0.318059	-1.362602	0.000052
O73	O	0.078568	-1.220907	0.467522
H74	H	0.081760	-1.215092	0.383938
O75	O	-0.148539	-0.943109	0.000062
H76	H	-0.116206	-0.883666	0.000057
H77	H	-0.033425	-0.968246	0.000094
H78	H	-0.697058	-1.268634	0.000022
H79	H	-0.042121	-1.281661	0.000143
H80	H	-0.149988	-1.279520	0.000100
H81	H	-0.589173	-1.270787	0.000043
