data_functionalizedCrystal
_audit_creation_method	'MofGen! by Chris Wilmer'
_symmetry_space_group_name_H-M	'P1'
_symmetry_Int_Tables_number	1
_symmetry_cell_setting	triclinic
loop_
_symmetry_equiv_pos_as_xyz
  x,y,z
_cell_length_a	33.428889
_cell_length_b	33.428139
_cell_length_c	33.424847
_cell_angle_alpha	60.004234
_cell_angle_beta	60.008465
_cell_angle_gamma	59.994972
loop_
_atom_site_label
_atom_site_type_symbol
_atom_site_fract_x
_atom_site_fract_y
_atom_site_fract_z
O1	O	0.055565	-0.584504	0.488714
O2	O	0.555565	-0.084504	0.988714
O3	O	0.020982	-0.455083	0.393778
O4	O	0.520982	0.044917	0.893778
O5	O	0.102943	-0.536959	0.393689
O6	O	0.602943	-0.036959	0.893689
O7	O	-0.026396	-0.502628	0.488803
O8	O	0.473604	-0.002628	0.988803
O9	O	0.130140	-0.509767	0.420792
O10	O	0.630140	-0.009767	0.920792
O11	O	0.048179	-0.427891	0.420881
O12	O	0.548179	0.072109	0.920881
O13	O	0.082762	-0.557312	0.515817
O14	O	0.582762	-0.057312	1.015817
Cu15	Cu	0.067954	-0.490119	0.470823
Cu16	Cu	0.567954	0.009881	0.970823
Cu17	Cu	0.035790	-0.522276	0.438771
Cu18	Cu	0.535790	-0.022276	0.938771
O19	O	0.000801	-0.475436	0.515906
O20	O	0.500801	0.024564	1.015906
N21	N	0.090577	-0.467504	0.493370
N22	N	0.590577	0.032496	0.993370
N23	N	0.013171	-0.544895	0.416225
N24	N	0.513171	-0.044895	0.916225
C25	C	0.143377	-0.280390	0.546067
C26	C	0.643377	0.219610	1.046067
C27	C	0.143515	-0.414755	0.680369
C28	C	0.643515	0.085245	1.180369
C29	C	0.143392	-0.414735	0.546069
C30	C	0.643392	0.085265	1.046069
C31	C	0.277766	-0.414702	0.545966
C32	C	0.777766	0.085298	1.045966
C33	C	0.158177	-0.324719	0.560828
C34	C	0.658177	0.175281	1.060828
C35	C	0.158255	-0.399967	0.636038
C36	C	0.658255	0.100033	1.136038
C37	C	0.233434	-0.399936	0.560773
C38	C	0.733434	0.100064	1.060773
C39	C	0.158186	-0.399955	0.560829
C40	C	0.658186	0.100045	1.060829
C41	C	0.124540	-0.223964	0.527278
C42	C	0.624540	0.276036	1.027278
C43	C	0.124565	-0.433545	0.527281
C44	C	0.624565	0.066455	1.027281
C45	C	0.177014	-0.381145	0.579617
C46	C	0.677014	0.118855	1.079617
C47	C	0.359814	-0.400540	0.502735
C48	C	0.859814	0.099460	1.002735
C49	C	0.411105	-0.417624	0.485606
C50	C	0.911105	0.082376	0.985606
C51	C	0.411136	-0.500620	0.517255
C52	C	0.911136	-0.000620	1.017255
C53	C	0.359845	-0.483534	0.534385
C54	C	0.859845	0.016466	1.034385
C55	C	0.136887	-0.198305	0.476855
C56	C	0.636887	0.301695	0.976855
C57	C	0.119761	-0.147011	0.459777
C58	C	0.619761	0.352989	0.959777
C59	C	0.077945	-0.147038	0.543547
C60	C	0.577945	0.352962	1.043547
C61	C	0.095072	-0.198332	0.560625
C62	C	0.595072	0.301668	1.060625
C63	C	0.074134	-0.421169	0.539710
C64	C	0.574134	0.078831	1.039710
C65	C	0.057023	-0.438269	0.522625
C66	C	0.557023	0.061731	1.022625
C67	C	0.140770	-0.480120	0.480694
C68	C	0.640770	0.019880	0.980694
C69	C	0.157883	-0.463020	0.497773
C70	C	0.657883	0.036980	0.997773
C71	C	0.074339	-0.421208	0.762475
C72	C	0.574339	0.078792	1.262475
C73	C	0.057288	-0.438323	0.813768
C74	C	0.557288	0.061677	1.313768
C75	C	0.141075	-0.480183	0.813699
C76	C	0.641075	0.019817	1.313699
C77	C	0.158125	-0.463069	0.762404
C78	C	0.658125	0.036931	1.262404
C79	C	0.124756	-0.433580	0.736794
C80	C	0.624756	0.066420	1.236794
C81	C	0.334186	-0.433494	0.527123
C82	C	0.834186	0.066506	1.027123
C83	C	-0.173769	-0.597444	0.363037
C84	C	0.326231	-0.097444	0.863037
C85	C	-0.039302	-0.597595	0.228856
C86	C	0.460698	-0.097595	0.728856
C87	C	-0.039496	-0.597587	0.363300
C88	C	0.460504	-0.097587	0.863300
C89	C	-0.039512	-0.731889	0.363237
C90	C	0.460488	-0.231889	0.863237
C91	C	-0.129442	-0.612265	0.348329
C92	C	0.370558	-0.112265	0.848329
C93	C	-0.054138	-0.612351	0.273187
C94	C	0.445862	-0.112351	0.773187
C95	C	-0.054257	-0.687554	0.348440
C96	C	0.445743	-0.187554	0.848440
C97	C	-0.054247	-0.612346	0.348477
C98	C	0.445753	-0.112346	0.848477
C99	C	-0.230191	-0.578579	0.381758
C100	C	0.269809	-0.078579	0.881758
C101	C	-0.020722	-0.578803	0.382168
C102	C	0.479278	-0.078803	0.882168
C103	C	-0.073020	-0.631130	0.329609
C104	C	0.426980	-0.131130	0.829609
C105	C	-0.053713	-0.813916	0.406386
C106	C	0.446287	-0.313916	0.906386
C107	C	-0.036654	-0.865210	0.423504
C108	C	0.463346	-0.365210	0.923504
C109	C	0.046338	-0.865293	0.391984
C110	C	0.546338	-0.365293	0.891984
C111	C	0.029278	-0.813999	0.374865
C112	C	0.529278	-0.313999	0.874865
C113	C	-0.255900	-0.590938	0.432169
C114	C	0.244100	-0.090938	0.932169
C115	C	-0.307191	-0.573786	0.449185
C116	C	0.192809	-0.073786	0.949185
C117	C	-0.307060	-0.531922	0.365377
C118	C	0.192940	-0.031922	0.865377
C119	C	-0.255769	-0.549074	0.348360
C120	C	0.244231	-0.049074	0.848360
C121	C	-0.033081	-0.528377	0.369764
C122	C	0.466919	-0.028377	0.869764
C123	C	-0.016014	-0.511306	0.386922
C124	C	0.483986	-0.011306	0.886922
C125	C	0.025770	-0.595083	0.428877
C126	C	0.525770	-0.095083	0.928877
C127	C	0.008703	-0.612156	0.411725
C128	C	0.508703	-0.112156	0.911725
C129	C	-0.032755	-0.528393	0.146761
C130	C	0.467245	-0.028393	0.646761
C131	C	-0.015585	-0.511324	0.095468
C132	C	0.484415	-0.011324	0.595468
C133	C	0.026262	-0.595106	0.095516
C134	C	0.526262	-0.095106	0.595516
C135	C	0.009094	-0.612174	0.146811
C136	C	0.509094	-0.112174	0.646811
C137	C	-0.020417	-0.578816	0.172432
C138	C	0.479583	-0.078816	0.672432
C139	C	-0.020748	-0.788312	0.382068
C140	C	0.479252	-0.288312	0.882068
N141	N	0.436037	-0.467415	0.493101
N142	N	0.936037	0.032585	0.993101
O143	O	0.592642	-0.471896	0.376066
O144	O	1.092642	0.028104	0.876066
O145	O	0.592838	-0.567146	0.505347
O146	O	1.092838	-0.067146	1.005347
O147	O	0.592754	-0.566928	0.423360
O148	O	1.092754	-0.066928	0.923360
O149	O	0.592727	-0.472113	0.458053
O150	O	1.092727	0.027887	0.958053
O151	O	0.511269	-0.539835	0.450606
O152	O	1.011269	-0.039835	0.950606
O153	O	0.511353	-0.540052	0.532594
O154	O	1.011353	-0.040052	1.032594
O155	O	0.511157	-0.444802	0.403312
O156	O	1.011157	0.055198	0.903312
Cu157	Cu	0.503815	-0.489954	0.470441
Cu158	Cu	1.003815	0.010046	0.970441
Cu159	Cu	0.600180	-0.521995	0.438219
Cu160	Cu	1.100180	-0.021995	0.938219
O161	O	0.511242	-0.445020	0.485300
O162	O	1.011242	0.054980	0.985300
N163	N	0.667959	-0.544533	0.415554
N164	N	1.167959	-0.044533	0.915554
N165	N	0.090544	-0.122107	0.493359
N166	N	0.590544	0.377893	0.993359
O167	O	-0.026406	0.034587	0.488773
O168	O	0.473594	0.534587	0.988773
O169	O	0.102877	0.034627	0.393499
O170	O	0.602877	0.534627	0.893499
O171	O	0.020848	0.034591	0.393771
O172	O	0.520848	0.534591	0.893771
O173	O	0.055623	0.034623	0.488500
O174	O	0.555623	0.534623	0.988500
O175	O	0.048051	-0.046899	0.420925
O176	O	0.548051	0.453101	0.920925
O177	O	0.130080	-0.046864	0.420653
O178	O	0.630080	0.453136	0.920653
O179	O	0.000796	-0.046903	0.515927
O180	O	0.500796	0.453097	1.015927
Cu181	Cu	0.067922	-0.054324	0.470769
Cu182	Cu	0.567922	0.445676	0.970769
Cu183	Cu	0.035752	0.042048	0.438656
Cu184	Cu	0.535752	0.542048	0.938656
O185	O	0.082825	-0.046867	0.515655
O186	O	0.582825	0.453133	1.015655
N187	N	0.013123	0.109830	0.416068
N188	N	0.513123	0.609830	0.916068
N189	N	0.090892	-0.467554	0.838649
N190	N	0.590892	0.032446	1.338649
O191	O	0.086330	-0.584488	0.995334
O192	O	0.586330	-0.084488	1.495334
O193	O	-0.008902	-0.455160	0.995379
O194	O	0.491098	0.044840	1.495379
O195	O	-0.008679	-0.537172	0.995355
O196	O	0.491321	-0.037172	1.495355
O197	O	0.086107	-0.502475	0.995358
O198	O	0.586107	-0.002475	1.495358
O199	O	0.018452	-0.509990	0.913868
O200	O	0.518452	-0.009990	1.413868
O201	O	0.018230	-0.427978	0.913891
O202	O	0.518230	0.072022	1.413891
O203	O	0.113461	-0.557306	0.913847
O204	O	0.613461	-0.057306	1.413847
Cu205	Cu	0.068323	-0.490160	0.906429
Cu206	Cu	0.568323	0.009840	1.406429
Cu207	Cu	0.036237	-0.522306	1.002797
Cu208	Cu	0.536237	-0.022306	1.502797
O209	O	0.113239	-0.475293	0.913870
O210	O	0.613239	0.024707	1.413870
N211	N	0.013667	-0.544916	1.070577
N212	N	0.513667	-0.044916	1.570577
C213	C	0.031339	-0.425179	0.394250
C214	C	0.531339	0.074821	0.894250
C215	C	0.132837	-0.526572	0.394139
C216	C	0.632837	-0.026572	0.894139
C217	C	0.072405	-0.587216	0.515344
C218	C	0.572405	-0.087216	1.015344
C219	C	-0.029093	-0.485823	0.515455
C220	C	0.470907	0.014177	1.015455
C221	C	0.552119	-0.566716	0.535258
C222	C	1.052119	-0.066716	1.035258
C223	C	0.552016	-0.566447	0.433726
C224	C	1.052016	-0.066447	0.933726
C225	C	0.551873	-0.445232	0.373402
C226	C	1.051873	0.054768	0.873402
C227	C	0.551980	-0.445502	0.474933
C228	C	1.051980	0.054498	0.974933
C229	C	0.132731	-0.006013	0.393923
C230	C	0.632731	0.493987	0.893923
C231	C	0.031182	-0.006158	0.394293
C232	C	0.531182	0.493842	0.894293
C233	C	-0.029092	-0.006163	0.515469
C234	C	0.470908	0.493837	1.015469
C235	C	0.072491	-0.006119	0.515133
C236	C	0.572491	0.493881	1.015133
C237	C	-0.008451	-0.425276	0.954641
C238	C	0.491549	0.074724	1.454641
C239	C	-0.008170	-0.526833	0.954596
C240	C	0.491830	-0.026833	1.454596
C241	C	0.113010	-0.587190	0.954585
C242	C	0.613010	-0.087190	1.454585
C243	C	0.112735	-0.485627	0.954611
C244	C	0.612735	0.014373	1.454611
H245	H	0.016234	-0.428240	0.834672
H246	H	0.516234	0.071760	1.334672
C247	C	-0.078601	-0.476177	0.555336
C248	C	0.421399	0.023823	1.055336
C249	C	-0.078586	-0.518052	0.597229
C250	C	0.421414	-0.018052	1.097229
C251	C	-0.124187	-0.509187	0.633975
C252	C	0.375813	-0.009187	1.133975
H253	H	-0.084606	-0.449489	0.563062
H254	H	0.415394	0.050511	1.063062
H255	H	-0.103540	-0.468454	0.544121
H256	H	0.396460	0.031546	1.044121
H257	H	-0.053655	-0.525769	0.608443
H258	H	0.446345	-0.025769	1.108443
H259	H	-0.072590	-0.544746	0.589519
H260	H	0.427410	-0.044746	1.089519
H261	H	-0.149125	-0.501463	0.622759
H262	H	0.350875	-0.001463	1.122759
H263	H	-0.130188	-0.482497	0.641696
H264	H	0.369812	0.017503	1.141696
H265	H	-0.124184	-0.537599	0.662402
H266	H	0.375816	-0.037599	1.162402
H267	H	0.551811	-0.415327	0.336274
H268	H	1.051811	0.084673	0.836274
C269	C	0.331891	-0.346231	0.494952
C270	C	0.831891	0.153769	0.994952
C271	C	0.302465	-0.339364	0.540446
C272	C	0.802465	0.160636	1.040446
C273	C	0.276734	-0.289343	0.533294
C274	C	0.776734	0.210657	1.033294
H275	H	0.354447	-0.329000	0.478001
H276	H	0.854447	0.171000	0.978001
H277	H	0.311833	-0.334191	0.476198
H278	H	0.811833	0.165809	0.976198
H279	H	0.322522	-0.351398	0.559193
H280	H	0.822522	0.148602	1.059193
H281	H	0.279901	-0.356584	0.557404
H282	H	0.779901	0.143416	1.057404
H283	H	0.256676	-0.277302	0.514539
H284	H	0.756676	0.222698	1.014539
H285	H	0.299293	-0.272116	0.516342
H286	H	0.799293	0.227884	1.016342
H287	H	0.256762	-0.284677	0.564159
H288	H	0.756762	0.215323	1.064159
H289	H	0.023733	-0.006162	0.364531
H290	H	0.523733	0.493838	0.864531
C291	C	0.152861	-0.636710	0.954489
C292	C	0.652861	-0.136710	1.454489
C293	C	0.164107	-0.645396	0.912564
C294	C	0.664107	-0.145396	1.412564
C295	C	0.200811	-0.691011	0.912462
C296	C	0.700811	-0.191011	1.412462
H297	H	0.181341	-0.636811	0.954461
H298	H	0.681341	-0.136811	1.454461
H299	H	0.141645	-0.661662	0.982886
H300	H	0.641645	-0.161662	1.482886
H301	H	0.175325	-0.620451	0.884175
H302	H	0.675325	-0.120451	1.384175
H303	H	0.135638	-0.645305	0.912583
H304	H	0.635638	-0.145305	1.412583
H305	H	0.189595	-0.715964	0.940858
H306	H	0.689595	-0.215964	1.440858
H307	H	0.229288	-0.691109	0.912435
H308	H	0.729288	-0.191109	1.412435
H309	H	0.208443	-0.696913	0.884019
H310	H	0.708443	-0.196913	1.384019
C311	C	0.182184	-0.005772	0.354012
C312	C	0.682184	0.494228	0.854012
C313	C	0.219023	-0.047588	0.370486
C314	C	0.719023	0.452412	0.870486
C315	C	0.264587	-0.047381	0.333739
C316	C	0.764587	0.452619	0.833739
H317	H	0.182266	-0.005739	0.325536
H318	H	0.682266	0.494261	0.825536
H319	H	0.188025	0.022700	0.346391
H320	H	0.688025	0.522700	0.846391
H321	H	0.213184	-0.076053	0.378101
H322	H	0.713184	0.423947	0.878101
H323	H	0.218957	-0.047631	0.398957
H324	H	0.718957	0.452369	0.898957
H325	H	0.270428	-0.018909	0.326118
H326	H	0.770428	0.481091	0.826118
H327	H	0.264663	-0.047347	0.305265
H328	H	0.764663	0.452653	0.805265
H329	H	0.289588	-0.075750	0.344913
H330	H	0.789588	0.424250	0.844913
C331	C	0.082315	-0.006087	0.554875
C332	C	0.582315	0.493913	1.054875
C333	C	0.040529	-0.006087	0.596850
C334	C	0.540529	0.493913	1.096850
C335	C	0.049559	-0.006050	0.633468
C336	C	0.549559	0.493950	1.133468
H337	H	0.109033	-0.034489	0.562546
H338	H	0.609033	0.465511	1.062546
H339	H	0.090061	0.022349	0.543571
H340	H	0.590061	0.522349	1.043571
H341	H	0.032790	-0.034520	0.608152
H342	H	0.532790	0.465480	1.108152
H343	H	0.013807	0.022314	0.589195
H344	H	0.513807	0.522314	1.089195
H345	H	0.057304	0.022386	0.622164
H346	H	0.557304	0.522386	1.122164
H347	H	0.076277	-0.034453	0.641134
H348	H	0.576277	0.465547	1.141134
H349	H	0.021208	-0.006045	0.661950
H350	H	0.521208	0.493955	1.161950
C351	C	0.551942	-0.405839	0.484929
C352	C	1.051942	0.094161	0.984929
C353	C	0.551992	-0.423605	0.532753
C354	C	1.051992	0.076395	1.032753
C355	C	0.551951	-0.387080	0.541981
C356	C	1.051951	0.112920	1.041981
H357	H	0.580324	-0.396861	0.462349
H358	H	1.080324	0.103139	0.962349
H359	H	0.523489	-0.377987	0.481337
H360	H	1.023489	0.122013	0.981337
H361	H	0.580442	-0.451448	0.536341
H362	H	1.080442	0.048552	1.036341
H363	H	0.523612	-0.432579	0.555343
H364	H	1.023612	0.067421	1.055343
H365	H	0.523498	-0.359228	0.538389
H366	H	1.023498	0.140772	1.038389
H367	H	0.580333	-0.378105	0.519398
H368	H	1.080333	0.121895	1.019398
H369	H	0.551980	-0.399127	0.574431
H370	H	1.051980	0.100873	1.074431
H371	H	-0.066220	-0.006175	0.545378
H372	H	0.433780	0.493825	1.045378
C373	C	0.064997	-0.786115	0.348428
C374	C	0.564997	-0.286115	0.848428
C375	C	0.039355	-0.735694	0.334963
C376	C	0.539355	-0.235694	0.834963
C377	C	0.072246	-0.709992	0.310601
C378	C	0.572246	-0.209992	0.810601
H379	H	0.081191	-0.794475	0.369535
H380	H	0.581191	-0.294475	0.869535
H381	H	0.088506	-0.794517	0.319920
H382	H	0.588506	-0.294517	0.819920
H383	H	0.015855	-0.727296	0.363466
H384	H	0.515855	-0.227296	0.863466
H385	H	0.023163	-0.727320	0.313850
H386	H	0.523163	-0.227320	0.813850
H387	H	0.095755	-0.718394	0.282094
H388	H	0.595755	-0.218394	0.782094
H389	H	0.088438	-0.718356	0.331712
H390	H	0.588438	-0.218356	0.831712
H391	H	0.054854	-0.675779	0.301458
H392	H	0.554854	-0.175779	0.801458
H393	H	-0.038348	-0.388133	0.954654
H394	H	0.461652	0.111867	1.454654
H395	H	0.199181	-0.473148	0.741498
H396	H	0.699181	0.026852	1.241498
C397	C	0.152390	-0.475627	0.954579
C398	C	0.652390	0.024373	1.454579
C399	C	0.134627	-0.427786	0.954580
C400	C	0.634627	0.072214	1.454580
C401	C	0.171145	-0.418555	0.954543
C402	C	0.671145	0.081445	1.454543
H403	H	0.161354	-0.498188	0.982980
H404	H	0.661354	0.001812	1.482980
H405	H	0.180247	-0.479247	0.926144
H406	H	0.680247	0.020753	1.426144
H407	H	0.106778	-0.424170	0.983012
H408	H	0.606778	0.075830	1.483012
H409	H	0.125666	-0.405215	0.926181
H410	H	0.625666	0.094785	1.426181
H411	H	0.199002	-0.422175	0.926108
H412	H	0.699002	0.077825	1.426108
H413	H	0.180107	-0.441119	0.982945
H414	H	0.680107	0.058881	1.482945
H415	H	0.159099	-0.386093	0.954539
H416	H	0.659099	0.113907	1.454539
H417	H	0.047163	-0.397193	0.741627
H418	H	0.547163	0.102807	1.241627
C419	C	-0.047842	-0.536805	0.954625
C420	C	0.452158	-0.036805	1.454625
C421	C	-0.058978	-0.576224	0.996521
C422	C	0.441022	-0.076224	1.496521
C423	C	-0.095516	-0.585428	0.996561
C424	C	0.404484	-0.085428	1.496561
H425	H	-0.076395	-0.508524	0.954650
H426	H	0.423605	-0.008524	1.454650
H427	H	-0.036514	-0.544599	0.926209
H428	H	0.463486	-0.044599	1.426209
H429	H	-0.070307	-0.568427	1.024930
H430	H	0.429693	-0.068427	1.524930
H431	H	-0.030436	-0.604512	0.996505
H432	H	0.469564	-0.104512	1.496505
H433	H	-0.084189	-0.593222	0.968145
H434	H	0.415811	-0.093222	1.468145
H435	H	-0.124067	-0.557145	0.996585
H436	H	0.375933	-0.057145	1.496585
H437	H	-0.103074	-0.612177	1.024984
H438	H	0.396926	-0.112177	1.524984
C439	C	0.177383	-0.512212	0.841417
C440	C	0.677383	-0.012212	1.341417
C441	C	0.225186	-0.519395	0.807948
C442	C	0.725186	-0.019395	1.307948
C443	C	0.258644	-0.548908	0.833463
C444	C	0.758644	-0.048908	1.333463
H445	H	0.172537	-0.496600	0.861430
H446	H	0.672537	0.003400	1.361430
H447	H	0.172502	-0.542980	0.861410
H448	H	0.672502	-0.042980	1.361410
H449	H	0.230065	-0.488633	0.787963
H450	H	0.730065	0.011367	1.287963
H451	H	0.230047	-0.535013	0.787934
H452	H	0.730047	-0.035013	1.287934
H453	H	0.253764	-0.579676	0.853457
H454	H	0.753764	-0.079676	1.353457
H455	H	0.253794	-0.533293	0.853476
H456	H	0.753794	-0.033293	1.353476
H457	H	0.291082	-0.553789	0.810759
H458	H	0.791082	-0.053789	1.310759
C459	C	0.022025	-0.666899	0.425250
C460	C	0.522025	-0.166899	0.925250
C461	C	-0.020814	-0.679116	0.450825
C462	C	0.479186	-0.179116	0.950825
C463	C	-0.008558	-0.729541	0.463294
C464	C	0.491442	-0.229541	0.963294
H465	H	0.039443	-0.675379	0.396288
H466	H	0.539443	-0.175379	0.896288
H467	H	0.041976	-0.684339	0.445331
H468	H	0.541976	-0.184339	0.945331
H469	H	-0.040757	-0.661683	0.430745
H470	H	0.459243	-0.161683	0.930745
H471	H	-0.038237	-0.670648	0.479793
H472	H	0.461763	-0.170648	0.979793
H473	H	0.011393	-0.746980	0.483376
H474	H	0.511393	-0.246980	0.983376
H475	H	0.008860	-0.738016	0.434330
H476	H	0.508860	-0.238016	0.934330
H477	H	-0.037622	-0.737837	0.480652
H478	H	0.462378	-0.237837	0.980652
C479	C	0.021427	-0.375633	0.354472
C480	C	0.521427	0.124367	0.854472
C481	C	-0.017970	-0.367007	0.343316
C482	C	0.482030	0.132993	0.843316
C483	C	-0.027110	-0.321374	0.306671
C484	C	0.472890	0.178626	0.806671
H485	H	0.013638	-0.350681	0.365697
H486	H	0.513638	0.149319	0.865697
H487	H	0.049742	-0.375484	0.325951
H488	H	0.549742	0.124516	0.825951
H489	H	-0.046278	-0.367151	0.371831
H490	H	0.453722	0.132849	0.871831
H491	H	-0.010191	-0.391947	0.332083
H492	H	0.489809	0.108053	0.832083
H493	H	0.001205	-0.321225	0.278150
H494	H	0.501205	0.178775	0.778150
H495	H	-0.034897	-0.296426	0.317899
H496	H	0.465103	0.203574	0.817899
H497	H	-0.053838	-0.315517	0.299093
H498	H	0.446162	0.184483	0.799093
H499	H	-0.063498	-0.886058	0.443304
H500	H	0.436502	-0.386058	0.943304
H501	H	0.015959	-0.428182	0.532734
H502	H	0.515959	0.071818	1.032734
C503	C	0.037936	-0.389082	0.571657
C504	C	0.537936	0.110918	1.071657
C505	C	0.008489	-0.346373	0.545919
C506	C	0.508489	0.153627	1.045919
C507	C	-0.024859	-0.316800	0.575331
C508	C	0.475141	0.183200	1.075331
H509	H	0.017899	-0.406430	0.600675
H510	H	0.517899	0.093570	1.100675
H511	H	0.055330	-0.380637	0.580043
H512	H	0.555330	0.119363	1.080043
H513	H	-0.008904	-0.354819	0.537541
H514	H	0.491096	0.145181	1.037541
H515	H	0.028512	-0.329013	0.516904
H516	H	0.528512	0.170987	1.016904
H517	H	-0.007465	-0.308354	0.583717
H518	H	0.492535	0.191646	1.083717
H519	H	-0.044893	-0.334152	0.604348
H520	H	0.455107	0.165848	1.104348
H521	H	-0.044840	-0.287817	0.557871
H522	H	0.455160	0.212183	1.057871
C523	C	0.177025	-0.512101	0.448645
C524	C	0.677025	-0.012101	0.948645
C525	C	0.224852	-0.519269	0.441411
C526	C	0.724852	-0.019269	0.941411
C527	C	0.258260	-0.548719	0.411884
C528	C	0.758260	-0.048719	0.911884
H529	H	0.172177	-0.542876	0.464265
H530	H	0.672177	-0.042876	0.964265
H531	H	0.172096	-0.496433	0.417895
H532	H	0.672096	0.003567	0.917895
H533	H	0.229779	-0.534937	0.472155
H534	H	0.729779	-0.034937	0.972155
H535	H	0.229715	-0.488503	0.425784
H536	H	0.729715	0.011497	0.925784
H537	H	0.253331	-0.533052	0.381134
H538	H	0.753331	-0.033052	0.881134
H539	H	0.253408	-0.579492	0.427508
H540	H	0.753408	-0.079492	0.927508
H541	H	0.290714	-0.553583	0.406968
H542	H	0.790714	-0.053583	0.906968
C543	C	0.212618	-0.476382	0.484316
C544	C	0.712618	0.023618	0.984316
C545	C	0.220475	-0.455088	0.505581
C546	C	0.720475	0.044912	1.005581
C547	C	0.270890	-0.467382	0.493190
C548	C	0.770890	0.032618	0.993190
H549	H	0.227097	-0.510981	0.496093
H550	H	0.727097	-0.010981	0.996093
H551	H	0.227009	-0.464557	0.449704
H552	H	0.727009	0.035443	0.949704
H553	H	0.206091	-0.466916	0.540185
H554	H	0.706091	0.033084	1.040185
H555	H	0.206008	-0.420489	0.493807
H556	H	0.706008	0.079511	0.993807
H557	H	0.285281	-0.455558	0.458578
H558	H	0.785281	0.044442	0.958578
H559	H	0.285364	-0.501982	0.504968
H560	H	0.785364	-0.001982	1.004968
H561	H	0.276227	-0.452933	0.507613
H562	H	0.776227	0.047067	1.007613
C563	C	0.332111	-0.519390	0.560832
C564	C	0.832111	-0.019390	1.060832
C565	C	0.365566	-0.566866	0.563509
C566	C	0.865566	-0.066866	1.063509
C567	C	0.340035	-0.599910	0.587862
C568	C	0.840035	-0.099910	1.087862
H569	H	0.312124	-0.518153	0.592989
H570	H	0.812124	-0.018153	1.092989
H571	H	0.312092	-0.510840	0.543370
H572	H	0.812092	-0.010840	1.043370
H573	H	0.385576	-0.575414	0.580972
H574	H	0.885576	-0.075414	1.080972
H575	H	0.385554	-0.568119	0.531359
H576	H	0.885554	-0.068119	1.031359
H577	H	0.320016	-0.591360	0.570400
H578	H	0.820016	-0.091360	1.070400
H579	H	0.320048	-0.598669	0.620018
H580	H	0.820048	-0.098669	1.120018
H581	H	0.362730	-0.632126	0.589678
H582	H	0.862730	-0.132126	1.089678
H583	H	0.432025	-0.541365	0.523165
H584	H	0.932025	-0.041365	1.023165
C585	C	0.182407	-0.536409	0.354383
C586	C	0.682407	-0.036409	0.854383
C587	C	0.212618	-0.584219	0.372009
C588	C	0.712618	-0.084219	0.872009
C589	C	0.258288	-0.593295	0.335401
C590	C	0.758288	-0.093295	0.835401
H591	H	0.178187	-0.532764	0.326528
H592	H	0.678187	-0.032764	0.826528
H593	H	0.197119	-0.513782	0.345454
H594	H	0.697119	-0.013782	0.845454
H595	H	0.197910	-0.606839	0.380931
H596	H	0.697910	-0.106839	0.880931
H597	H	0.216852	-0.587875	0.399859
H598	H	0.716852	-0.087875	0.899859
H599	H	0.272999	-0.570669	0.326473
H600	H	0.772999	-0.070669	0.826473
H601	H	0.254063	-0.589648	0.307548
H602	H	0.754063	-0.089648	0.807548
H603	H	0.278793	-0.625733	0.347357
H604	H	0.778793	-0.125733	0.847357
H605	H	0.431972	-0.390789	0.465748
H606	H	0.931972	0.109211	0.965748
H607	H	0.129813	-0.126117	0.418717
H608	H	0.629813	0.373883	0.918717
C609	C	0.168854	-0.226044	0.440571
C610	C	0.668854	0.273956	0.940571
C611	C	0.175985	-0.192592	0.392756
C612	C	0.675985	0.307408	0.892756
C613	C	0.205425	-0.218130	0.359319
C614	C	0.705425	0.281870	0.859319
H615	H	0.199639	-0.246047	0.445407
H616	H	0.699639	0.253953	0.945407
H617	H	0.153195	-0.246051	0.445484
H618	H	0.653195	0.253949	0.945484
H619	H	0.191645	-0.172594	0.387844
H620	H	0.691645	0.327406	0.887844
H621	H	0.145210	-0.172588	0.387904
H622	H	0.645210	0.327412	0.887904
H623	H	0.189767	-0.238136	0.364233
H624	H	0.689767	0.261864	0.864233
H625	H	0.236208	-0.238132	0.364160
H626	H	0.736208	0.261868	0.864160
H627	H	0.210264	-0.195437	0.326873
H628	H	0.710264	0.304563	0.826873
C629	C	0.082247	-0.636831	0.555053
C630	C	0.582247	-0.136831	1.055053
C631	C	0.093654	-0.673438	0.538316
C632	C	0.593654	-0.173438	1.038316
C633	C	0.102717	-0.719149	0.574885
C634	C	0.602717	-0.219149	1.074885
H635	H	0.108983	-0.642842	0.562710
H636	H	0.608983	-0.142842	1.062710
H637	H	0.053914	-0.636998	0.583556
H638	H	0.553914	-0.136998	1.083556
H639	H	0.121984	-0.673273	0.509822
H640	H	0.621984	-0.173273	1.009822
H641	H	0.066925	-0.667443	0.530663
H642	H	0.566925	-0.167443	1.030663
H643	H	0.074384	-0.719315	0.603387
H644	H	0.574384	-0.219315	1.103387
H645	H	0.129452	-0.725155	0.582539
H646	H	0.629452	-0.225155	1.082539
H647	H	0.110453	-0.743991	0.563535
H648	H	0.610453	-0.243991	1.063535
C649	C	0.046023	-0.119271	0.579808
C650	C	0.546023	0.380729	1.079808
C651	C	0.071816	-0.131756	0.609208
C652	C	0.571816	0.368244	1.109208
C653	C	0.042422	-0.106195	0.642623
C654	C	0.542422	0.393805	1.142623
H655	H	0.037574	-0.085039	0.562481
H656	H	0.537574	0.414961	1.062481
H657	H	0.017036	-0.127703	0.599869
H658	H	0.517036	0.372297	1.099869
H659	H	0.100793	-0.123321	0.589150
H660	H	0.600793	0.376679	1.089150
H661	H	0.080264	-0.165984	0.626546
H662	H	0.580264	0.334016	1.126546
H663	H	0.013435	-0.114627	0.662683
H664	H	0.513435	0.385373	1.162683
H665	H	0.033975	-0.071964	0.625291
H666	H	0.533975	0.428036	1.125291
H667	H	0.059916	-0.114665	0.662577
H668	H	0.559916	0.385335	1.162577
C669	C	0.081735	-0.226278	0.615353
C670	C	0.581735	0.273722	1.115353
C671	C	0.103044	-0.276687	0.623175
C672	C	0.603044	0.223313	1.123175
C673	C	0.090778	-0.302446	0.673585
C674	C	0.590778	0.197554	1.173585
H675	H	0.093559	-0.217914	0.629770
H676	H	0.593559	0.282086	1.129770
H677	H	0.047133	-0.217929	0.629824
H678	H	0.547133	0.282071	1.129824
H679	H	0.137640	-0.285033	0.608710
H680	H	0.637640	0.214967	1.108710
H681	H	0.091224	-0.285066	0.608770
H682	H	0.591224	0.214934	1.108770
H683	H	0.056175	-0.294097	0.688057
H684	H	0.556175	0.205903	1.188057
H685	H	0.102602	-0.294078	0.687998
H686	H	0.602602	0.205922	1.187998
H687	H	0.105230	-0.336651	0.678900
H688	H	0.605230	0.163349	1.178900
C689	C	-0.029091	-0.456570	0.067628
C690	C	0.470909	0.043430	0.567628
C691	C	-0.080105	-0.435423	0.080015
C692	C	0.419895	0.064577	0.580015
C693	C	-0.092562	-0.384986	0.054374
C694	C	0.407438	0.115014	0.554374
H695	H	-0.017363	-0.442115	0.076050
H696	H	0.482637	0.057885	0.576050
H697	H	-0.014670	-0.451157	0.033405
H698	H	0.485330	0.048843	0.533405
H699	H	-0.094520	-0.440832	0.114230
H700	H	0.405480	0.059168	0.614230
H701	H	-0.091845	-0.449864	0.071592
H702	H	0.408155	0.050136	0.571592
H703	H	-0.078142	-0.379573	0.020151
H704	H	0.421858	0.120427	0.520151
H705	H	-0.080832	-0.370535	0.062798
H706	H	0.419168	0.129465	0.562798
H707	H	-0.127176	-0.370632	0.062772
H708	H	0.372824	0.129368	0.562772
C709	C	-0.064715	-0.492150	0.174549
C710	C	0.435285	0.007850	0.674549
C711	C	-0.038947	-0.462766	0.162133
C712	C	0.461053	0.037234	0.662133
C713	C	-0.068368	-0.429377	0.187726
C714	C	0.431632	0.070623	0.687726
H715	H	-0.093696	-0.472070	0.166105
H716	H	0.406304	0.027930	0.666105
H717	H	-0.073165	-0.509515	0.208778
H718	H	0.426835	-0.009515	0.708778
H719	H	-0.030503	-0.445401	0.127911
H720	H	0.469497	0.054599	0.627911
H721	H	-0.009968	-0.482831	0.170578
H722	H	0.490032	0.017169	0.670578
H723	H	-0.076818	-0.446743	0.221955
H724	H	0.423182	0.053257	0.721955
H725	H	-0.097347	-0.409302	0.179280
H726	H	0.402653	0.090698	0.679280
H727	H	-0.050887	-0.409440	0.179309
H728	H	0.449113	0.090560	0.679309
H729	H	0.050281	-0.622271	0.074658
H730	H	0.550281	-0.122271	0.574658
H731	H	0.019144	-0.653235	0.167709
H732	H	0.519144	-0.153235	0.667709
H733	H	-0.026079	-0.470245	0.376824
H734	H	0.473921	0.029755	0.876824
C735	C	-0.065047	-0.492087	0.337705
C736	C	0.434953	0.007913	0.837705
C737	C	-0.072231	-0.444273	0.330531
C738	C	0.427769	0.055727	0.830531
C739	C	-0.101682	-0.410830	0.301006
C740	C	0.398318	0.089170	0.801006
H741	H	-0.049390	-0.496964	0.306938
H742	H	0.450610	0.003036	0.806938
H743	H	-0.095816	-0.496954	0.353318
H744	H	0.404184	0.003046	0.853318
H745	H	-0.041468	-0.439408	0.314918
H746	H	0.458532	0.060592	0.814918
H747	H	-0.087894	-0.439380	0.361290
H748	H	0.412106	0.060620	0.861290
H749	H	-0.132451	-0.415697	0.316618
H750	H	0.367549	0.084303	0.816618
H751	H	-0.086021	-0.415711	0.270241
H752	H	0.413979	0.084289	0.770241
H753	H	-0.106563	-0.378384	0.296138
H754	H	0.393437	0.121616	0.796138
H755	H	0.087072	-0.886205	0.386121
H756	H	0.587072	-0.386205	0.886121
C757	C	0.057782	-0.631353	0.460897
C758	C	0.557782	-0.131353	0.960897
C759	C	0.100494	-0.660822	0.435192
C760	C	0.600494	-0.160822	0.935192
C761	C	0.129990	-0.694241	0.464676
C762	C	0.629990	-0.194241	0.964676
H763	H	0.066232	-0.614027	0.469353
H764	H	0.566232	-0.114027	0.969353
H765	H	0.040366	-0.651367	0.489878
H766	H	0.540366	-0.151367	0.989878
H767	H	0.117906	-0.640811	0.406221
H768	H	0.617906	-0.140811	0.906221
H769	H	0.092058	-0.678160	0.426737
H770	H	0.592058	-0.178160	0.926737
H771	H	0.112575	-0.714255	0.493656
H772	H	0.612575	-0.214255	0.993656
H773	H	0.138437	-0.676910	0.473130
H774	H	0.638437	-0.176910	0.973130
H775	H	0.158971	-0.714243	0.447241
H776	H	0.658971	-0.214243	0.947241
C777	C	-0.108041	-0.786114	0.414212
C778	C	0.391959	-0.286114	0.914212
C779	C	-0.133254	-0.819519	0.439153
C780	C	0.366746	-0.319519	0.939153
C781	C	-0.183299	-0.793928	0.446360
C782	C	0.316701	-0.293928	0.946360
H783	H	-0.120169	-0.766090	0.433023
H784	H	0.379831	-0.266090	0.933023
H785	H	-0.112759	-0.766124	0.383368
H786	H	0.387241	-0.266124	0.883368
H787	H	-0.128539	-0.839501	0.469992
H788	H	0.371461	-0.339501	0.969992
H789	H	-0.121141	-0.839544	0.420350
H790	H	0.378859	-0.339544	0.920350
H791	H	-0.188016	-0.773938	0.415515
H792	H	0.311984	-0.273938	0.915515
H793	H	-0.195422	-0.773905	0.465169
H794	H	0.304578	-0.273905	0.965169
H795	H	-0.200411	-0.816590	0.463279
H796	H	0.299589	-0.316590	0.963279
H797	H	-0.235077	-0.614964	0.459366
H798	H	0.264923	-0.114964	0.959366
H799	H	-0.328125	-0.583847	0.490235
H800	H	0.171875	-0.083847	0.990235
C801	C	0.551930	-0.606113	0.423839
C802	C	1.051930	-0.106113	0.923839
C803	C	0.509973	-0.589344	0.412451
C804	C	1.009973	-0.089344	0.912451
C805	C	0.509873	-0.625873	0.403346
C806	C	1.009873	-0.125873	0.903346
H807	H	0.580293	-0.613740	0.397082
H808	H	1.080293	-0.113740	0.897082
H809	H	0.551950	-0.634641	0.452151
H810	H	1.051950	-0.134641	0.952151
H811	H	0.509957	-0.560825	0.384142
H812	H	1.009957	-0.060825	0.884142
H813	H	0.481603	-0.581721	0.439201
H814	H	0.981603	-0.081721	0.939201
H815	H	0.509893	-0.654401	0.431659
H816	H	1.009893	-0.154401	0.931659
H817	H	0.538238	-0.633498	0.376590
H818	H	1.038238	-0.133498	0.876590
H819	H	0.481404	-0.614502	0.395623
H820	H	0.981404	-0.114502	0.895623
C821	C	-0.334745	-0.499878	0.329040
C822	C	0.165255	0.000122	0.829040
C823	C	-0.301251	-0.492723	0.281249
C824	C	0.198749	0.007277	0.781249
C825	C	-0.326734	-0.463200	0.247762
C826	C	0.173266	0.036800	0.747762
H827	H	-0.354759	-0.515473	0.333865
H828	H	0.145241	-0.015473	0.833865
H829	H	-0.354735	-0.469103	0.333915
H830	H	0.145265	0.030897	0.833915
H831	H	-0.281270	-0.523492	0.276376
H832	H	0.218730	-0.023492	0.776376
H833	H	-0.281236	-0.477122	0.276408
H834	H	0.218764	0.022878	0.776408
H835	H	-0.346724	-0.432425	0.252637
H836	H	0.153276	0.067575	0.752637
H837	H	-0.346747	-0.478798	0.252592
H838	H	0.153253	0.021202	0.752592
H839	H	-0.304012	-0.458338	0.215332
H840	H	0.195988	0.041662	0.715332
C841	C	0.552216	-0.606536	0.584790
C842	C	1.052216	-0.106536	1.084790
C843	C	0.552246	-0.588976	0.615022
C844	C	1.052246	-0.088976	1.115022
C845	C	0.552341	-0.625647	0.660652
C846	C	1.052341	-0.125647	1.160652
H847	H	0.523825	-0.615491	0.599533
H848	H	1.023825	-0.115491	1.099533
H849	H	0.580660	-0.634367	0.580491
H850	H	1.080660	-0.134367	1.080491
H851	H	0.523805	-0.561154	0.619322
H852	H	1.023805	-0.061154	1.119322
H853	H	0.580634	-0.580024	0.600295
H854	H	1.080634	-0.080024	1.100295
H855	H	0.580785	-0.653478	0.656353
H856	H	1.080785	-0.153478	1.156353
H857	H	0.523950	-0.634600	0.675390
H858	H	1.023950	-0.134600	1.175390
H859	H	0.552366	-0.613739	0.681168
H860	H	1.052366	-0.113739	1.181168
H861	H	-0.234840	-0.539009	0.307312
H862	H	0.265160	-0.039009	0.807312
