data_functionalizedCrystal
_audit_creation_method	'MofGen! by Chris Wilmer'
_symmetry_space_group_name_H-M	'P1'
_symmetry_Int_Tables_number	1
_symmetry_cell_setting	triclinic
loop_
_symmetry_equiv_pos_as_xyz
  x,y,z
_cell_length_a	23.096457
_cell_length_b	14.628931
_cell_length_c	14.628931
_cell_angle_alpha	60.000028
_cell_angle_beta	89.998385
_cell_angle_gamma	59.999556
loop_
_atom_site_label
_atom_site_type_symbol
_atom_site_fract_x
_atom_site_fract_y
_atom_site_fract_z
Zr1	Zr	0.557763	1.000595	-0.119995
O2	O	0.465315	1.191298	-0.265951
O3	O	0.586104	0.809890	-0.075251
O4	O	0.586104	1.000595	-0.265957
O5	O	0.465315	1.000593	0.075187
O6	O	0.681384	1.000598	-0.265963
O7	O	0.465315	1.000593	-0.075245
O8	O	0.681385	0.659461	0.075175
O9	O	0.465315	1.341730	-0.265951
O10	O	0.669297	0.888332	-0.056173
O11	O	0.598191	0.888331	0.056096
O12	O	0.598191	1.112862	-0.168435
O13	O	0.527084	1.112860	-0.056165
Zr14	Zr	0.709724	1.000600	0.119917
Zr15	Zr	0.709725	1.000599	-0.120004
Zr16	Zr	0.557763	1.000596	0.119926
Zr17	Zr	0.557763	1.240517	-0.119995
Zr18	Zr	0.709725	0.760678	0.119918
O19	O	0.681384	1.191305	0.075174
O20	O	0.681384	1.191304	-0.265963
O21	O	0.465315	1.191299	0.075186
O22	O	0.802173	0.809897	0.265873
O23	O	0.802173	0.809896	-0.075264
O24	O	0.586104	0.809891	0.265886
O25	O	0.802173	1.000602	-0.075264
O26	O	0.681384	1.000599	0.265880
O27	O	0.586104	1.000597	0.265885
O28	O	0.802173	1.000602	0.075167
O29	O	0.586104	1.341734	-0.265958
O30	O	0.681384	0.659461	0.265880
O31	O	0.802173	0.659464	0.265873
O32	O	0.802173	0.659464	0.075168
O33	O	0.465314	1.341731	-0.075245
O34	O	0.586103	1.341734	-0.075252
O35	O	0.669297	0.888333	0.168358
O36	O	0.740404	0.888335	0.056088
O37	O	0.669297	1.112864	-0.056174
O38	O	0.598190	1.112862	0.056096
C39	C	0.633744	0.700492	-0.000038
C40	C	0.633744	0.598638	-0.000038
C41	C	0.583860	0.631987	-0.078794
C42	C	0.583859	0.526718	-0.078796
C43	C	0.443664	1.000592	-0.000028
C44	C	0.379152	1.000591	-0.000024
C45	C	0.385963	0.883392	0.058565
C46	C	0.325348	0.883390	0.058570
C47	C	0.257922	1.000594	-0.000036
C48	C	0.251113	1.117808	-0.058628
C49	C	0.311728	1.117806	-0.058621
N50	N	0.135126	1.087834	-0.095414
N51	N	0.077546	1.087828	-0.095418
C52	C	0.075289	1.000605	-0.000056
N53	N	0.132792	0.913370	0.095308
N54	N	0.190378	0.913373	0.095309
C55	C	0.192190	1.000608	-0.000049
C56	C	0.016376	0.883397	0.058543
C57	C	-0.044242	0.883400	0.058551
C58	C	-0.118477	1.117820	-0.058657
C59	C	-0.057859	1.117814	-0.058654
C60	C	0.009565	1.000598	-0.000056
C61	C	0.823824	1.000602	-0.000050
C62	C	0.888336	1.000604	-0.000053
C63	C	0.633744	1.000597	-0.300143
C64	C	0.633744	1.000596	-0.401996
C65	C	0.633744	1.300703	-0.000039
C66	C	0.633743	1.402556	-0.000040
C67	C	0.598471	1.111978	-0.503095
C68	C	0.598470	1.111980	-0.608366
C69	C	0.633744	1.000598	0.300066
C70	C	0.633744	1.000599	0.401919
C71	C	0.823825	0.700497	-0.000049
C72	C	0.888336	0.598645	-0.000053
C73	C	0.633744	0.700492	0.300067
C74	C	0.633744	0.598640	0.401920
C75	C	0.823824	0.700497	0.300056
C76	C	0.888336	0.598646	0.401905
C77	C	0.443664	1.300697	-0.300133
C78	C	0.379152	1.402548	-0.401982
C79	C	0.443663	1.300698	-0.000028
C80	C	0.379152	1.402550	-0.000025
C81	C	0.633744	1.300702	-0.300144
C82	C	0.633744	1.402555	-0.401997
C83	C	0.881515	0.550813	-0.058664
C84	C	0.942124	0.455126	-0.058689
C85	C	1.009555	0.407266	-0.000097
C86	C	1.016375	0.455107	0.058516
C87	C	0.955766	0.550799	0.058534
C88	C	0.955755	0.550817	0.391131
C89	C	1.016376	0.455130	0.486820
C90	C	1.009577	0.407268	0.593282
C91	C	0.942151	0.455107	0.604054
C92	C	0.881531	0.550799	0.508366
C93	C	0.311733	1.450390	-0.391208
C94	C	0.251112	1.546106	-0.486897
C95	C	0.257911	1.593973	-0.593359
C96	C	0.325337	1.546128	-0.604131
C97	C	0.385957	1.450420	-0.508443
C98	C	0.385973	1.450391	0.058576
C99	C	0.325363	1.546105	0.058575
C100	C	0.257933	1.593968	-0.000020
C101	C	0.251113	1.546123	-0.058629
C102	C	0.311722	1.450417	-0.058634
C103	C	0.669018	0.553231	0.503018
C104	C	0.669019	0.447961	0.608290
H105	H	0.676453	0.492154	0.067386
H106	H	0.208587	1.671898	-0.000007
C107	C	0.592945	0.545878	0.390270
N108	N	0.562215	0.506137	0.381492
C109	C	0.674583	0.871764	-0.480918
N110	N	0.705359	0.774726	-0.392664
C111	C	0.709818	0.605992	0.514668
N112	N	0.740551	0.645727	0.523446
C113	C	0.963251	0.603454	0.274031
N114	N	0.968903	0.643101	0.185834
H115	H	0.208545	1.671904	-0.671266
H116	H	0.196217	1.585045	-0.478105
C117	C	0.176942	1.246732	-0.123099
N118	N	0.121076	1.343842	-0.171659
H119	H	0.071277	0.787953	0.106281
C120	C	0.460141	1.397766	0.123035
N121	N	0.516003	1.358140	0.171582
H122	H	0.663945	0.905240	-0.393378
H123	H	0.440850	1.411468	-0.517229
C124	C	0.332882	1.598707	0.123062
N125	N	0.338546	1.638321	0.171636
H126	H	0.196203	1.585108	-0.106336
H127	H	0.306158	1.411467	-0.106351
H128	H	0.676451	0.374170	0.067394
C129	C	0.709819	0.395208	0.725456
N130	N	0.740550	0.355472	0.813710
H131	H	-0.173376	1.213250	-0.106376
C132	C	1.076220	0.301993	-0.000120
N133	N	1.126430	0.222697	-0.000136
H134	H	0.603548	0.441594	0.511280
H135	H	0.541155	0.738472	-0.146223
H136	H	0.568275	1.207334	-0.511714
H137	H	0.936558	0.416186	-0.106419
C138	C	0.526160	0.565061	-0.169890
N139	N	0.482700	0.593940	-0.238505
H140	H	0.440859	0.787946	0.106272
C141	C	0.934684	0.402435	0.721173
N142	N	0.929062	0.362751	0.809390
C143	C	0.304232	1.246740	-0.123087
N144	N	0.298586	1.343854	-0.171648
C145	C	0.807346	0.603449	-0.123132
N146	N	0.751484	0.643094	-0.171699
C147	C	1.090556	0.402438	0.122973
N148	N	1.146431	0.362756	0.171528
H149	H	0.330864	1.585114	-0.690824
C150	C	1.090537	0.402513	0.474946
N151	N	1.146394	0.362881	0.465999
H152	H	0.330894	0.787950	0.106281
H153	H	1.058943	0.329350	0.671188
H154	H	-0.038689	0.787958	0.106269
H155	H	0.961330	0.589732	0.106269
H156	H	-0.063408	1.213250	-0.106371
H157	H	0.826638	0.589729	0.517154
H158	H	0.568266	1.207338	-0.695095
H159	H	0.306184	1.411422	-0.304530
