data_functionalizedCrystal
_audit_creation_method	'MofGen! by Chris Wilmer'
_symmetry_space_group_name_H-M	'P1'
_symmetry_Int_Tables_number	1
_symmetry_cell_setting	triclinic
loop_
_symmetry_equiv_pos_as_xyz
  x,y,z
_cell_length_a	19.805407
_cell_length_b	16.959454
_cell_length_c	19.805399
_cell_angle_alpha	89.977613
_cell_angle_beta	89.980427
_cell_angle_gamma	90.020075
loop_
_atom_site_label
_atom_site_type_symbol
_atom_site_fract_x
_atom_site_fract_y
_atom_site_fract_z
Zn1	Zn	1.034765	-0.314700	-0.382744
Zn2	Zn	1.534765	0.185300	0.117256
Zn3	Zn	1.034693	-0.446882	-0.269566
Zn4	Zn	1.534693	0.053118	0.230434
Zn5	Zn	0.921580	-0.314722	-0.269569
Zn6	Zn	1.421580	0.185278	0.230431
Zn7	Zn	0.921556	-0.446840	-0.382713
Zn8	Zn	1.421556	0.053160	0.117287
O9	O	0.978149	-0.380786	-0.326148
O10	O	1.478149	0.119214	0.173852
O11	O	1.129472	-0.332243	-0.367743
O12	O	1.629472	0.167757	0.132257
O13	O	1.019668	-0.429378	-0.174850
O14	O	1.519668	0.070622	0.325150
O15	O	0.936635	-0.204108	-0.284596
O16	O	1.436635	0.295892	0.215404
O17	O	1.129419	-0.429356	-0.284591
O18	O	1.629419	0.070644	0.215409
O19	O	1.019792	-0.204092	-0.367745
O20	O	1.519792	0.295908	0.132255
O21	O	0.936564	-0.332280	-0.174852
O22	O	1.436564	0.167720	0.325148
O23	O	0.826860	-0.332239	-0.284565
O24	O	1.326860	0.167761	0.215435
O25	O	0.936594	-0.429285	-0.477434
O26	O	1.436594	0.070715	0.022566
O27	O	0.826843	-0.429306	-0.367692
O28	O	1.326843	0.070694	0.132308
O29	O	1.019768	-0.332202	-0.477457
O30	O	1.519768	0.167798	0.022543
O31	O	1.019645	-0.557488	-0.284561
O32	O	1.519645	-0.057488	0.215439
O33	O	0.936524	-0.557457	-0.367690
O34	O	1.436524	-0.057457	0.132310
C35	C	0.802293	-0.380771	-0.326126
C36	C	1.302293	0.119229	0.173874
C37	C	0.727061	-0.380783	-0.326133
C38	C	1.227061	0.119217	0.173867
C39	C	0.691725	-0.431402	-0.369347
C40	C	1.191725	0.068598	0.130653
C41	C	0.621037	-0.431404	-0.369356
C42	C	1.121037	0.068596	0.130644
C43	C	0.585685	-0.380790	-0.326148
C44	C	1.085685	0.119210	0.173852
C45	C	0.621026	-0.330165	-0.282932
C46	C	1.121026	0.169835	0.217068
C47	C	0.691713	-0.330160	-0.282926
C48	C	1.191713	0.169840	0.217074
C49	C	0.335952	-0.330183	-0.282954
C50	C	0.835952	0.169817	0.217046
C51	C	0.265260	-0.330193	-0.282962
C52	C	0.765260	0.169807	0.217038
C53	C	0.265276	-0.431426	-0.369384
C54	C	0.765276	0.068574	0.130616
C55	C	0.335963	-0.431421	-0.369379
C56	C	0.835963	0.068579	0.130621
C57	C	0.371298	-0.380794	-0.326166
C58	C	0.871298	0.119206	0.173834
C59	C	0.447946	-0.380792	-0.326157
C60	C	0.947946	0.119208	0.173843
C61	C	0.509038	-0.380795	-0.326153
C62	C	1.009038	0.119205	0.173847
C63	C	0.978092	-0.586152	-0.326136
C64	C	1.478092	-0.086152	0.173864
C65	C	0.978130	-0.674009	-0.326154
C66	C	1.478130	-0.174009	0.173846
C67	C	0.934930	-1.045498	-0.369428
C68	C	1.434930	-0.545498	0.130572
C69	C	1.021555	-1.045470	-0.282937
C70	C	1.521555	-0.545470	0.217063
C71	C	1.021532	-0.962925	-0.282930
C72	C	1.521532	-0.462925	0.217070
C73	C	0.978206	-0.921662	-0.326173
C74	C	1.478206	-0.421662	0.173827
C75	C	0.934904	-0.962945	-0.369422
C76	C	1.434904	-0.462945	0.130578
C77	C	1.064828	-0.921635	-0.239677
C78	C	1.564828	-0.421635	0.260323
C79	C	1.064806	-0.839085	-0.239669
C80	C	1.564806	-0.339085	0.260331
C81	C	1.021483	-0.797820	-0.282915
C82	C	1.521483	-0.297820	0.217085
C83	C	0.978180	-0.839108	-0.326167
C84	C	1.478180	-0.339108	0.173833
C85	C	0.934854	-0.797845	-0.369409
C86	C	1.434854	-0.297845	0.130591
C87	C	0.891553	-0.839132	-0.412665
C88	C	1.391553	-0.339132	0.087335
C89	C	0.891581	-0.921680	-0.412669
C90	C	1.391581	-0.421680	0.087331
C91	C	1.021455	-0.715272	-0.282911
C92	C	1.521455	-0.215272	0.217089
C93	C	0.934827	-0.715292	-0.369403
C94	C	1.434827	-0.215292	0.130597
C95	C	1.154691	-0.380802	-0.326170
C96	C	1.654691	0.119198	0.173830
C97	C	1.229923	-0.380808	-0.326180
C98	C	1.729923	0.119192	0.173820
C99	C	0.978187	-0.380736	-0.502691
C100	C	1.478187	0.119264	-0.002691
C101	C	0.978203	-0.380715	-0.577923
C102	C	1.478203	0.119285	-0.077923
C103	C	0.978224	-0.174618	-0.326174
C104	C	1.478224	0.325382	0.173826
C105	C	0.978256	-0.086761	-0.326186
C106	C	1.478256	0.413239	0.173814
C107	C	1.021513	-0.330161	-0.613280
C108	C	1.521513	0.169839	-0.113280
C109	C	1.021520	-0.330138	-0.683968
C110	C	1.521520	0.169862	-0.183968
C111	C	0.978220	-0.380674	-0.719298
C112	C	1.478220	0.119326	-0.219298
C113	C	0.934905	-0.431230	-0.683936
C114	C	1.434905	0.068770	-0.183936
C115	C	0.934895	-0.431248	-0.613249
C116	C	1.434895	0.068752	-0.113249
C117	C	0.934943	-0.431156	-0.969010
C118	C	1.434943	0.068844	-0.469010
C119	C	0.934958	-0.431135	-1.039702
C120	C	1.434958	0.068865	-0.539702
C121	C	1.021568	-0.330046	-1.039729
C122	C	1.521568	0.169954	-0.539729
C123	C	1.021558	-0.330065	-0.969042
C124	C	1.521558	0.169935	-0.469042
C125	C	0.978241	-0.380617	-0.933686
C126	C	1.478241	0.119383	-0.433686
C127	C	0.978233	-0.380641	-0.857037
C128	C	1.478233	0.119359	-0.357037
C129	C	0.978230	-0.380655	-0.795946
C130	C	1.478230	0.119345	-0.295946
C131	C	0.978150	-0.380779	-0.150292
C132	C	1.478150	0.119221	0.349708
C133	C	0.978265	-0.380577	-0.075060
C134	C	1.478265	0.119423	0.424940
H135	H	0.720482	-0.288937	-0.247741
H136	H	1.220482	0.211063	0.252259
C137	C	1.059957	-0.285299	-0.504936
C138	C	1.559957	0.214701	-0.004936
C139	C	1.069108	-0.274609	-0.574448
C140	C	1.569108	0.225391	-0.074448
H141	H	1.089343	-0.251002	-0.480965
H142	H	1.589343	0.248998	0.019035
H143	H	1.014487	-0.273731	-0.493348
H144	H	1.514487	0.226269	0.006652
H145	H	1.069846	-0.338413	-0.493351
H146	H	1.569846	0.161587	0.006649
H147	H	1.059214	-0.221496	-0.586033
H148	H	1.559214	0.278504	-0.086033
H149	H	1.114588	-0.286171	-0.586040
H150	H	1.614588	0.213829	-0.086040
H151	H	0.592237	-0.288951	-0.247754
H152	H	1.092237	0.211049	0.252246
H153	H	0.899647	-0.472373	-0.712708
H154	H	1.399647	0.027627	-0.212708
C155	C	0.901891	-0.565100	-0.591450
C156	C	1.401891	-0.065100	-0.091450
C157	C	0.887299	-0.486826	-0.574375
C158	C	1.387299	0.013174	-0.074375
H159	H	0.872510	-0.599411	-0.567446
H160	H	1.372510	-0.099411	-0.067446
H161	H	0.895692	-0.572319	-0.638598
H162	H	1.395692	-0.072319	-0.138598
H163	H	0.947367	-0.576657	-0.579875
H164	H	1.447367	-0.076657	-0.079875
H165	H	0.841825	-0.475267	-0.585955
H166	H	1.341825	0.024733	-0.085955
H167	H	0.893493	-0.479603	-0.527217
H168	H	1.393493	0.020397	-0.027217
H169	H	0.856274	-0.805526	-0.447870
H170	H	1.356274	-0.305526	0.052130
H171	H	0.899549	-0.681701	-0.404619
H172	H	1.399549	-0.181701	0.095381
C173	C	0.415458	-0.223835	-0.273699
C174	C	0.915458	0.276165	0.226301
C175	C	0.374789	-0.274541	-0.235452
C176	C	0.874789	0.225459	0.264548
H177	H	0.439433	-0.189481	-0.244371
H178	H	0.939433	0.310519	0.255629
H179	H	0.446624	-0.253976	-0.299427
H180	H	0.946624	0.246024	0.200573
H181	H	0.387893	-0.193650	-0.303232
H182	H	0.887893	0.306350	0.196768
H183	H	0.402354	-0.304730	-0.205923
H184	H	0.902354	0.195270	0.294077
H185	H	0.343619	-0.244396	-0.209714
H186	H	0.843619	0.255604	0.290286
H187	H	0.720503	-0.472621	-0.404530
H188	H	1.220503	0.027379	0.095470
H189	H	0.592269	-0.472623	-0.404545
H190	H	1.092269	0.027377	0.095455
C191	C	1.054551	-0.196293	-0.705737
C192	C	1.554551	0.303707	-0.205737
C193	C	1.069131	-0.274566	-0.722826
C194	C	1.569131	0.225434	-0.222826
H195	H	1.083949	-0.161983	-0.729722
H196	H	1.583949	0.338017	-0.229722
H197	H	1.009087	-0.184719	-0.717320
H198	H	1.509087	0.315281	-0.217320
H199	H	1.060740	-0.189091	-0.658580
H200	H	1.560740	0.310909	-0.158580
H201	H	1.062937	-0.281769	-0.769983
H202	H	1.562937	0.218231	-0.269983
H203	H	1.114606	-0.286144	-0.711248
H204	H	1.614606	0.213856	-0.211248
C205	C	0.849327	-0.531054	-1.032579
C206	C	1.349327	-0.031054	-0.532579
C207	C	0.887353	-0.486682	-1.078538
C208	C	1.387353	0.013318	-0.578538
H209	H	0.819938	-0.565340	-1.056556
H210	H	1.319938	-0.065340	-0.556556
H211	H	0.878796	-0.561303	-1.005010
H212	H	1.378796	-0.061303	-0.505010
H213	H	0.823448	-0.496609	-1.005007
H214	H	1.323448	0.003391	-0.505007
H215	H	0.913236	-0.521127	-1.106107
H216	H	1.413236	-0.021127	-0.606107
H217	H	0.857880	-0.456430	-1.106118
H218	H	1.357880	0.043570	-0.606118
H219	H	1.056819	-0.288916	-0.940280
H220	H	1.556819	0.211084	-0.440280
C221	C	0.272341	-0.230105	-0.197541
C222	C	0.772341	0.269895	0.302459
C223	C	0.226400	-0.274547	-0.235469
C224	C	0.726400	0.225453	0.264531
H225	H	0.248349	-0.195751	-0.168226
H226	H	0.748349	0.304249	0.331774
H227	H	0.299891	-0.264495	-0.171595
H228	H	0.799891	0.235505	0.328405
H229	H	0.299932	-0.199917	-0.227083
H230	H	0.799932	0.300083	0.272917
H231	H	0.198812	-0.304740	-0.205928
H232	H	0.698812	0.195260	0.294072
H233	H	0.198838	-0.240153	-0.261418
H234	H	0.698838	0.259847	0.238582
C235	C	0.901905	-1.070871	-0.484015
C236	C	1.401905	-0.570871	0.015985
C237	C	0.887338	-1.090878	-0.416974
C238	C	1.387338	-0.590878	0.083026
H239	H	0.872525	-1.098892	-0.513366
H240	H	1.372525	-0.598892	-0.013366
H241	H	0.895684	-1.015809	-0.490192
H242	H	1.395684	-0.515809	0.009808
H243	H	0.947382	-1.084357	-0.493954
H244	H	1.447382	-0.584357	0.006046
H245	H	0.841861	-1.077386	-0.407032
H246	H	1.341861	-0.577386	0.092968
H247	H	0.893552	-1.145952	-0.410793
H248	H	1.393552	-0.645952	0.089207
C249	C	1.060012	-1.171999	-0.244501
C250	C	1.560012	-0.671999	0.255499
C251	C	1.069148	-1.090825	-0.235376
C252	C	1.569148	-0.590825	0.264624
H253	H	1.089391	-1.199999	-0.215132
H254	H	1.589391	-0.699999	0.284868
H255	H	1.014541	-1.185545	-0.234578
H256	H	1.514541	-0.685545	0.265422
H257	H	1.069922	-1.185505	-0.289981
H258	H	1.569922	-0.685505	0.210019
H259	H	1.059233	-1.077318	-0.189898
H260	H	1.559233	-0.577318	0.310102
H261	H	1.114630	-1.077273	-0.245294
H262	H	1.614630	-0.577273	0.254706
H263	H	1.100097	-0.955238	-0.204466
H264	H	1.600097	-0.455238	0.295534
H265	H	0.856327	-0.955303	-0.447884
H266	H	1.356327	-0.455303	0.052116
C267	C	1.060040	-0.285113	-1.148100
C268	C	1.560040	0.214887	-0.648100
C269	C	1.069176	-0.274467	-1.078595
C270	C	1.569176	0.225533	-0.578595
H271	H	1.089428	-0.250798	-1.172091
H272	H	1.589428	0.249202	-0.672091
H273	H	1.069929	-0.338211	-1.159679
H274	H	1.569929	0.161789	-0.659679
H275	H	1.014566	-0.273535	-1.159669
H276	H	1.514566	0.226465	-0.659669
H277	H	1.114648	-0.286050	-1.067025
H278	H	1.614648	0.213950	-0.567025
H279	H	1.059291	-0.221355	-1.067011
H280	H	1.559291	0.278645	-0.567011
H281	H	1.100064	-0.805474	-0.204449
H282	H	1.600064	-0.305474	0.295551
C283	C	0.357769	-0.470091	-0.483932
C284	C	0.857769	0.029909	0.016068
C285	C	0.374821	-0.487054	-0.416877
C286	C	0.874821	0.012946	0.083123
H287	H	0.381761	-0.504433	-0.513257
H288	H	0.881761	-0.004433	-0.013257
H289	H	0.310619	-0.477342	-0.490116
H290	H	0.810619	0.022658	0.009884
H291	H	0.369373	-0.416993	-0.493903
H292	H	0.869373	0.083007	0.006097
H293	H	0.363212	-0.540150	-0.406904
H294	H	0.863212	-0.040150	0.093096
H295	H	0.421982	-0.479809	-0.410690
H296	H	0.921982	0.020191	0.089310
C297	C	0.156924	-0.476385	-0.407782
C298	C	0.656924	0.023615	0.092218
C299	C	0.226434	-0.487069	-0.416894
C300	C	0.726434	0.012931	0.083106
H301	H	0.132948	-0.510734	-0.437114
H302	H	0.632948	-0.010734	0.062886
H303	H	0.145319	-0.487885	-0.362295
H304	H	0.645319	0.012115	0.137705
H305	H	0.145365	-0.423290	-0.417769
H306	H	0.645365	0.076710	0.082231
H307	H	0.237995	-0.540163	-0.406901
H308	H	0.737995	-0.040163	0.093099
H309	H	0.238045	-0.475575	-0.462391
H310	H	0.738045	0.024425	0.037609
C311	C	1.107074	-0.723540	-0.197411
C312	C	1.607074	-0.223540	0.302589
C313	C	1.069044	-0.669890	-0.235368
C314	C	1.569044	-0.169890	0.264632
H315	H	1.136457	-0.695522	-0.168061
H316	H	1.636457	-0.195522	0.331939
H317	H	1.077607	-0.755774	-0.171500
H318	H	1.577607	-0.255774	0.328500
H319	H	1.132959	-0.755701	-0.226932
H320	H	1.632959	-0.255701	0.273068
H321	H	1.043155	-0.637732	-0.205848
H322	H	1.543155	-0.137732	0.294152
H323	H	1.098515	-0.637642	-0.261281
H324	H	1.598515	-0.137642	0.238719
C325	C	0.925470	-0.537505	-0.889511
C326	C	1.425470	-0.037505	-0.389511
C327	C	0.887329	-0.486728	-0.930159
C328	C	1.387329	0.013272	-0.430159
H329	H	0.896071	-0.571811	-0.865524
H330	H	1.396071	-0.071811	-0.365524
H331	H	0.954951	-0.567732	-0.917085
H332	H	1.454951	-0.067732	-0.417085
H333	H	0.951248	-0.507408	-0.858348
H334	H	1.451248	-0.007408	-0.358348
H335	H	0.861555	-0.516825	-0.961325
H336	H	1.361555	-0.016825	-0.461325
H337	H	0.857837	-0.456499	-0.902582
H338	H	1.357837	0.043501	-0.402582
