data_functionalizedCrystal
_audit_creation_method	'MofGen! by Chris Wilmer'
_symmetry_space_group_name_H-M	'P1'
_symmetry_Int_Tables_number	1
_symmetry_cell_setting	triclinic
loop_
_symmetry_equiv_pos_as_xyz
  x,y,z
_cell_length_a	14.853558
_cell_length_b	14.853569
_cell_length_c	13.930277
_cell_angle_alpha	89.994278
_cell_angle_beta	89.993309
_cell_angle_gamma	83.633349
loop_
_atom_site_label
_atom_site_type_symbol
_atom_site_fract_x
_atom_site_fract_y
_atom_site_fract_z
O1	O	1.196374	0.117664	-0.079822
O2	O	0.933914	0.131694	-0.079827
O3	O	1.072154	-0.006551	-0.079815
O4	O	1.058134	0.255909	-0.079833
O5	O	1.072135	-0.006554	0.079847
O6	O	0.933894	0.131691	0.079835
O7	O	1.196355	0.117661	0.079840
Zn8	Zn	1.065122	0.124675	0.105187
Zn9	Zn	1.065147	0.124679	-0.105174
O10	O	1.058115	0.255906	0.079828
C11	C	0.900315	0.131058	0.000004
C12	C	0.800231	0.129158	0.000002
C13	C	0.753221	0.128268	-0.087033
C14	C	0.753199	0.128254	0.087037
C15	C	0.659165	0.126463	0.087038
C16	C	0.612155	0.125574	0.000003
C17	C	0.659179	0.126475	-0.087034
C18	C	0.612135	0.125553	0.174074
C19	C	0.518096	0.123762	0.174079
C20	C	0.471084	0.122879	0.087043
C21	C	0.518113	0.123780	0.000002
C22	C	0.471104	0.122891	-0.087033
C23	C	0.518131	0.123799	-0.174075
C24	C	0.612167	0.125591	-0.174070
C25	C	0.377047	0.121086	0.087038
C26	C	0.377062	0.121097	-0.087034
C27	C	1.071509	-0.040141	0.000016
C28	C	1.069604	-0.140225	0.000017
C29	C	0.986593	-0.176599	0.000018
C30	C	1.150826	-0.197894	0.000010
C31	C	1.149040	-0.291928	0.000006
C32	C	1.066029	-0.328302	0.000006
C33	C	0.984804	-0.270641	0.000010
C34	C	1.230263	-0.349595	-0.000008
C35	C	1.228480	-0.443635	-0.000013
C36	C	1.145468	-0.480011	-0.000006
C37	C	1.064240	-0.422344	-0.000001
C38	C	0.981229	-0.458718	-0.000001
C39	C	0.900000	-0.401053	0.000012
C40	C	0.901792	-0.307017	0.000017
C41	C	1.143675	-0.574047	-0.000012
C42	C	0.979439	-0.552760	-0.000008
C43	C	1.229953	0.118296	0.000008
C44	C	1.330038	0.120197	0.000003
C45	C	1.058760	0.289496	-0.000005
C46	C	1.060664	0.389579	-0.000012
N47	N	1.065111	0.124672	0.248754
N48	N	1.065165	0.124675	-0.248740
C49	C	1.003932	0.185870	0.701018
C50	C	1.126387	0.063481	0.700997
C51	C	1.126376	0.063478	0.600502
C52	C	1.065143	0.124673	0.550259
C53	C	1.003921	0.185871	0.600513
C54	C	1.187604	0.002288	0.550241
C55	C	1.187596	0.002283	0.449739
C56	C	1.126358	0.063475	0.399495
C57	C	1.065132	0.124674	0.449754
C58	C	1.003899	0.185869	0.399512
C59	C	0.942669	0.247065	0.449770
C60	C	0.942683	0.247062	0.550268
C61	C	1.126344	0.063477	0.298996
C62	C	1.003889	0.185870	0.299007
H63	H	0.650465	0.126329	-0.244935
H64	H	1.176246	0.013663	0.741908
H65	H	1.237462	-0.047531	0.591151
H66	H	0.338792	0.120378	-0.157910
C67	C	1.254943	-0.065040	0.394465
N68	N	1.305666	-0.115751	0.352831
H69	H	0.832412	-0.430681	0.000006
H70	H	0.892816	0.296894	0.408851
H71	H	0.338761	0.120355	0.157906
C72	C	0.804906	0.129280	0.182770
N73	N	0.843854	0.130073	0.254880
C74	C	0.888119	-0.592763	-0.000007
N75	N	0.819335	-0.622892	-0.000008
H76	H	1.297847	-0.319972	0.000051
H77	H	1.176201	0.013657	0.258081
C78	C	0.897246	-0.113168	0.000027
N79	N	0.829948	-0.065390	0.000032
C80	C	0.936575	0.253176	0.756301
N81	N	0.885840	0.303870	0.797942
H82	H	1.218411	-0.168272	0.000029
H83	H	0.479815	0.123021	0.244953
C84	C	0.812448	-0.243579	0.000018
N85	N	0.745155	-0.195795	0.000013
H86	H	0.954022	0.235699	0.258106
C87	C	0.466408	0.122817	-0.269810
N88	N	0.427447	0.122078	-0.341916
H89	H	0.892832	0.296886	0.591194
H90	H	0.650419	0.126270	0.244933
C91	C	0.804951	0.129264	-0.182774
N92	N	0.843916	0.130011	-0.254887
H93	H	1.294622	-0.490579	-0.000022
H94	H	1.209811	-0.620993	-0.000032
