data_functionalizedCrystal
_audit_creation_method	'MofGen! by Chris Wilmer'
_symmetry_space_group_name_H-M	'P1'
_symmetry_Int_Tables_number	1
_symmetry_cell_setting	triclinic
loop_
_symmetry_equiv_pos_as_xyz
  x,y,z
_cell_length_a	17.019311
_cell_length_b	17.038272
_cell_length_c	15.021413
_cell_angle_alpha	90.004029
_cell_angle_beta	86.112972
_cell_angle_gamma	87.245400
loop_
_atom_site_label
_atom_site_type_symbol
_atom_site_fract_x
_atom_site_fract_y
_atom_site_fract_z
O1	O	1.053372	0.099610	-0.154786
O2	O	0.824559	0.112306	-0.137247
O3	O	0.937606	-0.007856	-0.145905
O4	O	0.940325	0.219772	-0.146128
O5	O	0.937587	-0.007839	0.002161
O6	O	0.824540	0.112324	0.010819
O7	O	1.053354	0.099627	-0.006720
Zn8	Zn	0.938944	0.105978	0.025558
Zn9	Zn	0.938968	0.105955	-0.169525
O10	O	0.940307	0.219789	0.001938
C11	C	0.795128	0.111833	-0.060959
C12	C	0.707460	0.110387	-0.054238
C13	C	0.211627	0.102235	-0.012183
C14	C	0.294001	0.103594	-0.018499
C15	C	0.335197	0.104258	-0.102369
C16	C	0.294017	0.103571	-0.179928
C17	C	0.211645	0.102218	-0.173611
C18	C	0.583908	0.108347	-0.125480
C19	C	0.666285	0.109698	-0.131792
C20	C	0.666264	0.109722	0.029638
C21	C	0.583890	0.108364	0.035948
C22	C	0.542716	0.107682	-0.041611
C23	C	0.419396	0.105644	-0.108827
C24	C	0.458519	0.106301	-0.035152
C25	C	0.935123	-0.036974	-0.071683
C26	C	0.927742	-0.123761	-0.071117
C27	C	0.995503	-0.173932	-0.076310
C28	C	0.988564	-0.255476	-0.075787
C29	C	0.913863	-0.286848	-0.070064
C30	C	0.846098	-0.236671	-0.064873
C31	C	0.853038	-0.155128	-0.065403
C32	C	0.889345	-0.532586	-0.068197
C33	C	0.882410	-0.614135	-0.067664
C34	C	1.024877	-0.632935	-0.078580
C35	C	1.031810	-0.551390	-0.079104
C36	C	0.964045	-0.501219	-0.073918
C37	C	0.906768	-0.370200	-0.069526
C38	C	0.971140	-0.417869	-0.074462
C39	C	1.082785	0.100100	-0.083010
C40	C	1.170453	0.101546	-0.089736
C41	C	0.942790	0.248907	-0.072286
C42	C	0.950170	0.335694	-0.072858
N43	N	0.938934	0.105993	0.158696
N44	N	0.938985	0.105934	-0.302664
C45	C	0.886651	0.161530	0.402384
C46	C	0.958944	0.176625	0.456176
C47	C	0.938953	0.105973	0.340302
C48	C	0.866680	0.090895	0.463250
C49	C	0.938965	0.105956	0.515725
C50	C	1.011284	0.121104	0.392784
C51	C	0.918972	0.035343	0.399857
C52	C	0.991314	0.050408	0.453618
C53	C	0.938945	0.105985	0.239245
C54	C	0.938981	0.105944	0.616779
H55	H	0.699825	0.110245	-0.200092
C56	C	1.053309	-0.383357	-0.080753
N57	N	1.115198	-0.357356	-0.085485
C58	C	0.339289	0.104347	0.066816
N59	N	0.373401	0.104914	0.131079
C60	C	0.981784	0.257306	0.489673
N61	N	0.998981	0.318076	0.514903
C62	C	0.711559	0.110505	0.114947
N63	N	0.745676	0.111107	0.179206
H64	H	1.043742	-0.296323	-0.080014
C65	C	1.051144	-0.013070	0.483977
N66	N	1.096211	-0.060876	0.506849
C67	C	1.093885	0.138423	0.351366
N68	N	1.156097	0.151472	0.320168
C69	C	0.800230	-0.648642	-0.061375
N70	N	0.738335	-0.674632	-0.056639
H71	H	0.550354	0.107807	0.104244
C72	C	0.538628	0.107580	-0.210799
N73	N	0.504521	0.106997	-0.275064
H74	H	0.327565	0.104117	-0.248217
H75	H	0.902040	-0.024360	0.375051
H76	H	0.178121	0.101659	-0.236764
H77	H	0.424973	0.105765	0.033134
H78	H	0.452948	0.106182	-0.177115
H79	H	0.834165	-0.491746	-0.063973
H80	H	0.785275	-0.262220	-0.060219
H81	H	1.056332	-0.148395	-0.080965
C82	C	1.113986	-0.516887	-0.085399
N83	N	1.175883	-0.490900	-0.090137
H84	H	0.797860	-0.114278	-0.061174
C85	C	1.099414	-0.688128	-0.084293
N86	N	1.155558	-0.729701	-0.088600
C87	C	0.824599	-0.404718	-0.063212
N88	N	0.762709	-0.430719	-0.058453
C89	C	0.784103	0.073672	0.504814
N90	N	0.721904	0.060705	0.536116
C91	C	0.166318	0.101507	0.080081
N92	N	0.132193	0.100963	0.149578
C93	C	0.826970	0.225051	0.371798
N94	N	0.782024	0.272897	0.348757
