data_functionalizedCrystal
_audit_creation_method	'MofGen! by Chris Wilmer'
_symmetry_space_group_name_H-M	'P1'
_symmetry_Int_Tables_number	1
_symmetry_cell_setting	triclinic
loop_
_symmetry_equiv_pos_as_xyz
  x,y,z
_cell_length_a	34.408637
_cell_length_b	34.407814
_cell_length_c	34.404193
_cell_angle_alpha	60.004510
_cell_angle_beta	60.009006
_cell_angle_gamma	59.994604
loop_
_atom_site_label
_atom_site_type_symbol
_atom_site_fract_x
_atom_site_fract_y
_atom_site_fract_z
O1	O	0.053973	-0.567860	0.474801
O2	O	0.020377	-0.442124	0.382567
O3	O	0.100004	-0.521670	0.382483
O4	O	-0.025653	-0.488314	0.474886
O5	O	0.126426	-0.495253	0.408816
O6	O	0.046800	-0.415707	0.408900
O7	O	0.080396	-0.541443	0.501134
Zn8	Zn	0.067793	-0.474381	0.459198
Zn9	Zn	0.032980	-0.509186	0.424503
O10	O	0.000769	-0.461897	0.501219
N11	N	0.091552	-0.450631	0.482879
N12	N	0.009225	-0.532940	0.400823
C13	C	0.142848	-0.268847	0.534081
C14	C	0.142979	-0.399386	0.664559
C15	C	0.142862	-0.399365	0.534081
C16	C	0.273409	-0.399338	0.533986
C17	C	0.157225	-0.311914	0.548422
C18	C	0.157300	-0.385019	0.621491
C19	C	0.230339	-0.384991	0.548370
C20	C	0.157235	-0.385007	0.548422
C21	C	0.124548	-0.214028	0.515827
C22	C	0.124571	-0.417639	0.515827
C23	C	0.175526	-0.366733	0.566676
C24	C	0.353121	-0.385580	0.491988
C25	C	0.402952	-0.402180	0.475348
C26	C	0.402981	-0.482812	0.506096
C27	C	0.353151	-0.466211	0.522737
C28	C	0.136544	-0.189099	0.466839
C29	C	0.119905	-0.139265	0.450247
C30	C	0.079280	-0.139291	0.531632
C31	C	0.095918	-0.189125	0.548224
C32	C	0.075577	-0.405615	0.527900
C33	C	0.058953	-0.422228	0.511301
C34	C	0.140315	-0.462889	0.470566
C35	C	0.156941	-0.446276	0.487159
C36	C	0.075772	-0.405653	0.744326
C37	C	0.059206	-0.422280	0.794159
C38	C	0.140607	-0.462951	0.794094
C39	C	0.157172	-0.446325	0.744260
C40	C	0.124753	-0.417674	0.719377
C41	C	0.328223	-0.417595	0.515681
C42	C	-0.172390	-0.583988	0.349141
C43	C	-0.041751	-0.584138	0.218783
C44	C	-0.041941	-0.584130	0.349402
C45	C	-0.041957	-0.714607	0.349338
C46	C	-0.129326	-0.598388	0.334853
C47	C	-0.056165	-0.598473	0.261852
C48	C	-0.056282	-0.671535	0.334962
C49	C	-0.056272	-0.598469	0.334999
C50	C	-0.227205	-0.565659	0.367327
C51	C	-0.023703	-0.565882	0.367734
C52	C	-0.074511	-0.616717	0.316667
C53	C	-0.055754	-0.794298	0.391257
C54	C	-0.039181	-0.844132	0.407888
C55	C	0.041447	-0.844215	0.377269
C56	C	0.024873	-0.794381	0.360637
C57	C	-0.252183	-0.577666	0.416302
C58	C	-0.302014	-0.561001	0.432833
C59	C	-0.301886	-0.520329	0.351410
C60	C	-0.252055	-0.536994	0.334880
C61	C	-0.035709	-0.516892	0.355682
C62	C	-0.019129	-0.500308	0.372353
C63	C	0.021465	-0.581700	0.413115
C64	C	0.004884	-0.598286	0.396450
C65	C	-0.035389	-0.516907	0.139026
C66	C	-0.018707	-0.500324	0.089193
C67	C	0.021949	-0.581721	0.089240
C68	C	0.005268	-0.598303	0.139074
C69	C	-0.023402	-0.565894	0.163965
C70	C	-0.023728	-0.769425	0.367633
N71	N	0.427173	-0.450553	0.482630
O72	O	0.589997	-0.458460	0.365361
O73	O	0.590185	-0.550997	0.490963
O74	O	0.590104	-0.550786	0.411309
O75	O	0.590077	-0.458671	0.445016
O76	O	0.510940	-0.524462	0.437777
O77	O	0.511020	-0.524674	0.517432
O78	O	0.510832	-0.432136	0.391830
Zn79	Zn	0.498357	-0.474225	0.458833
Zn80	Zn	0.602660	-0.508908	0.423960
O81	O	0.510913	-0.432348	0.471484
N82	N	0.673844	-0.532580	0.400158
N83	N	0.091520	-0.115070	0.482873
O84	O	-0.025663	0.047841	0.474857
O85	O	0.099940	0.047877	0.382299
O86	O	0.020247	0.047844	0.382560
O87	O	0.054030	0.047874	0.474596
O88	O	0.046674	-0.031326	0.408942
O89	O	0.126367	-0.031293	0.408680
O90	O	0.000764	-0.031329	0.501238
Zn91	Zn	0.067761	-0.043881	0.459148
Zn92	Zn	0.032943	0.060429	0.424389
O93	O	0.080457	-0.031296	0.500977
N94	N	0.009178	0.131618	0.400665
N95	N	0.091852	-0.450680	0.818332
O96	O	0.083862	-0.567845	0.981235
O97	O	-0.008657	-0.442198	0.981276
O98	O	-0.008441	-0.521875	0.981252
O99	O	0.083646	-0.488168	0.981258
O100	O	0.017919	-0.495468	0.902085
O101	O	0.017703	-0.415791	0.902109
O102	O	0.110222	-0.541438	0.902067
Zn103	Zn	0.068148	-0.474422	0.889518
Zn104	Zn	0.033417	-0.509214	0.993825
O105	O	0.110006	-0.461761	0.902091
N106	N	0.009712	-0.532961	1.065011
C107	C	0.030439	-0.413071	0.383027
C108	C	0.129046	-0.511580	0.382922
C109	C	0.070334	-0.570496	0.500675
C110	C	-0.028274	-0.471987	0.500780
C111	C	0.550625	-0.550579	0.520021
C112	C	0.550527	-0.550317	0.421379
C113	C	0.550389	-0.432554	0.362773
C114	C	0.550491	-0.432816	0.461414
C115	C	0.128944	0.008394	0.382712
C116	C	0.030287	0.008256	0.383068
C117	C	-0.028273	0.008252	0.500793
C118	C	0.070417	0.008292	0.500470
C119	C	-0.008218	-0.413165	0.941698
C120	C	-0.007945	-0.511830	0.941653
C121	C	0.109783	-0.570471	0.941646
C122	C	0.109516	-0.471800	0.941673
H123	H	0.019320	-0.412483	0.814467
O124	O	0.021674	0.008152	0.348613
C125	C	0.000696	-0.032893	0.325952
C126	C	0.010442	-0.032833	0.365008
H127	H	-0.008397	-0.066021	0.339196
H128	H	0.033698	-0.032921	0.292696
H129	H	-0.030465	0.000243	0.317059
H130	H	0.041588	-0.065963	0.373941
H131	H	-0.022584	-0.032781	0.398239
O132	O	0.550476	-0.584857	0.412855
C133	C	0.509498	-0.636813	0.435760
C134	C	0.509502	-0.597706	0.445471
H135	H	0.476370	-0.647206	0.462117
H136	H	0.542635	-0.669309	0.440007
H137	H	0.509474	-0.622849	0.397938
H138	H	0.509510	-0.611625	0.483291
H139	H	0.476369	-0.565217	0.441192
H140	H	0.164941	0.008624	0.353583
H141	H	0.138447	-0.464586	0.941669
O142	O	0.021929	-0.369963	0.348477
C143	C	0.044913	-0.299988	0.296448
C144	C	0.054595	-0.348793	0.335582
H145	H	0.071324	-0.282863	0.286004
H146	H	0.007112	-0.276036	0.310344
H147	H	0.049153	-0.304951	0.263999
H148	H	0.050381	-0.343876	0.368045
H149	H	0.092392	-0.372728	0.321648
O150	O	0.078960	0.008319	0.535014
C151	C	0.047881	0.008286	0.615223
C152	C	0.038140	0.008266	0.576142
H153	H	0.014888	0.008233	0.648488
H154	H	0.056912	0.041434	0.602053
H155	H	0.079073	-0.024832	0.624071
H156	H	0.006942	0.041361	0.567277
H157	H	0.029137	-0.024904	0.589332
O158	O	-0.071309	-0.463598	0.535442
C159	C	-0.120119	-0.494937	0.615708
C160	C	-0.071365	-0.504505	0.576491
H161	H	-0.120177	-0.528001	0.648908
H162	H	-0.149198	-0.485932	0.602639
H163	H	-0.127065	-0.463778	0.624618
H164	H	-0.064373	-0.535670	0.567563
H165	H	-0.042313	-0.513483	0.589581
H166	H	0.049370	-0.382321	0.724071
O167	O	0.144497	-0.613485	0.941610
C168	C	0.224744	-0.662269	0.941622
C169	C	0.185477	-0.613530	0.941651
H170	H	0.257882	-0.662325	0.941665
H171	H	0.233763	-0.669246	0.908477
H172	H	0.211640	-0.691332	0.974740
H173	H	0.198548	-0.584436	0.908555
H174	H	0.176463	-0.606594	0.974818
H175	H	-0.036863	-0.519031	0.941619
O176	O	-0.071341	0.008332	0.535416
C177	C	-0.156026	0.049325	0.558425
C178	C	-0.107280	0.049296	0.519178
H179	H	-0.185097	0.082435	0.545307
H180	H	-0.156092	0.049364	0.591575
H181	H	-0.162976	0.016171	0.567438
H182	H	-0.100299	0.082443	0.510124
H183	H	-0.107238	0.049231	0.486053
O184	O	0.172133	-0.520128	0.348362
C185	C	0.250511	-0.576530	0.326325
C186	C	0.201741	-0.566909	0.365508
H187	H	0.274458	-0.614354	0.340169
H188	H	0.267668	-0.550155	0.315911
H189	H	0.245497	-0.572209	0.293868
H190	H	0.206713	-0.571236	0.397990
H191	H	0.184600	-0.593281	0.375881
H192	H	-0.037264	-0.377079	0.941710
H193	H	0.077514	-0.606615	0.529644
O194	O	0.550339	-0.397950	0.319708
C195	C	0.550207	-0.375802	0.241328
C196	C	0.550276	-0.415036	0.290072
H197	H	0.550146	-0.389598	0.217357
H198	H	0.583324	-0.365389	0.224171
H199	H	0.517063	-0.343356	0.246383
H200	H	0.583398	-0.447508	0.285058
H201	H	0.517138	-0.425409	0.307212
H202	H	-0.231721	-0.527215	0.295000
H203	H	0.167007	-0.486271	0.814352
H204	H	0.197059	-0.456117	0.723950
O205	O	0.044068	-0.377782	0.555722
C206	C	-0.038389	-0.339223	0.594393
C207	C	-0.002758	-0.370738	0.562872
H208	H	-0.076255	-0.333526	0.600192
H209	H	-0.032699	-0.303354	0.576141
H210	H	-0.032586	-0.357488	0.630213
H211	H	-0.008539	-0.352515	0.527047
H212	H	-0.008456	-0.406605	0.581161
O213	O	0.550753	-0.585297	0.563015
C214	C	0.591880	-0.664663	0.605470
C215	C	0.591787	-0.625390	0.556749
H216	H	0.625057	-0.697084	0.600422
H217	H	0.558792	-0.675116	0.622597
H218	H	0.591871	-0.650846	0.629467
H219	H	0.591813	-0.639173	0.532716
H220	H	0.624872	-0.614943	0.539660
H221	H	0.019058	-0.412426	0.521121
H222	H	0.550485	-0.403881	0.468626
H223	H	0.196836	-0.456064	0.477324
O224	O	0.171827	-0.490688	0.442708
C225	C	0.254284	-0.529293	0.404081
C226	C	0.218653	-0.497799	0.435624
H227	H	0.292150	-0.535060	0.398352
H228	H	0.248544	-0.511034	0.368230
H229	H	0.248531	-0.565130	0.422339
H230	H	0.224384	-0.461956	0.417408
H231	H	0.224401	-0.516095	0.471474
H232	H	0.423275	-0.522397	0.511838
O233	O	0.329040	-0.497374	0.545725
C234	C	0.334336	-0.579108	0.574488
C235	C	0.361700	-0.543864	0.548438
H236	H	0.360729	-0.616704	0.576699
H237	H	0.310995	-0.569145	0.554136
H238	H	0.311019	-0.577565	0.611950
H239	H	0.385042	-0.545388	0.510976
H240	H	0.385010	-0.553838	0.568827
H241	H	0.423225	-0.376108	0.456057
H242	H	0.332825	-0.345993	0.486242
H243	H	0.129672	-0.118967	0.410356
O244	O	0.164282	-0.213267	0.435349
C245	C	0.170604	-0.228480	0.370874
C246	C	0.139136	-0.201088	0.406517
H247	H	0.150289	-0.218636	0.347547
H248	H	0.180427	-0.268386	0.391123
H249	H	0.204411	-0.218672	0.347542
H250	H	0.105309	-0.210856	0.429857
H251	H	0.129351	-0.161189	0.386238
O252	O	0.051529	-0.115153	0.563149
C253	C	0.045236	-0.099899	0.627585
C254	C	0.076710	-0.127270	0.591923
H255	H	0.065585	-0.109678	0.650851
H256	H	0.011440	-0.109723	0.650974
H257	H	0.035389	-0.060001	0.607303
H258	H	0.086592	-0.167174	0.612166
H259	H	0.110482	-0.117406	0.568535
O260	O	0.084322	-0.213413	0.595795
C261	C	0.092033	-0.290195	0.657429
C262	C	0.105176	-0.262748	0.603541
H263	H	0.108896	-0.330087	0.663709
H264	H	0.051694	-0.280465	0.674306
H265	H	0.105807	-0.280348	0.674168
H266	H	0.091434	-0.272581	0.586761
H267	H	0.145517	-0.272481	0.586698
O268	O	-0.030422	-0.452720	0.065044
C269	C	-0.072496	-0.373738	0.070262
C270	C	-0.059276	-0.427637	0.097670
H271	H	-0.095817	-0.353442	0.096629
H272	H	-0.092766	-0.363887	0.046890
H273	H	-0.038657	-0.363984	0.046973
H274	H	-0.093090	-0.437430	0.120985
H275	H	-0.038987	-0.437459	0.121012
H276	H	-0.058738	-0.490513	0.159288
H277	H	0.045284	-0.608113	0.068976
H278	H	0.015032	-0.638195	0.159378
H279	H	-0.058984	-0.490504	0.332300
H280	H	-0.028907	-0.460416	0.362542
H281	H	0.044746	-0.608091	0.436494
H282	H	0.014660	-0.638178	0.406265
H283	H	0.050956	-0.774133	0.341399
H284	H	0.081021	-0.864532	0.371574
H285	H	-0.095331	-0.773979	0.396956
O286	O	-0.070328	-0.868246	0.430776
C287	C	-0.128853	-0.883461	0.426213
C288	C	-0.093607	-0.856113	0.400238
H289	H	-0.147676	-0.873669	0.401531
H290	H	-0.156299	-0.873629	0.459418
H291	H	-0.108648	-0.923363	0.436913
H292	H	-0.113771	-0.816205	0.389506
H293	H	-0.066162	-0.865985	0.367054
O294	O	-0.228100	-0.605559	0.447869
C295	C	-0.212952	-0.678905	0.512373
C296	C	-0.240266	-0.647357	0.476658
H297	H	-0.222771	-0.712711	0.535652
H298	H	-0.222785	-0.658643	0.535744
H299	H	-0.173048	-0.688731	0.492137
H300	H	-0.280176	-0.637523	0.496856
H301	H	-0.230394	-0.667638	0.453288
O302	O	-0.326300	-0.572583	0.480405
C303	C	-0.382645	-0.543903	0.546341
C304	C	-0.355167	-0.530719	0.492461
H305	H	-0.405999	-0.510064	0.556104
H306	H	-0.356343	-0.567233	0.566713
H307	H	-0.405962	-0.564178	0.556090
H308	H	-0.331850	-0.510427	0.482668
H309	H	-0.381496	-0.507412	0.472119
O310	O	-0.325953	-0.492475	0.319827
C311	C	-0.320566	-0.453928	0.237320
C312	C	-0.293253	-0.485468	0.273036
H313	H	-0.294140	-0.448261	0.199482
H314	H	-0.343872	-0.418047	0.242997
H315	H	-0.343912	-0.472155	0.243046
H316	H	-0.269881	-0.467282	0.267332
H317	H	-0.269977	-0.521347	0.267351
