data_functionalizedCrystal
_audit_creation_method	'MofGen! by Chris Wilmer'
_symmetry_space_group_name_H-M	'P1'
_symmetry_Int_Tables_number	1
_symmetry_cell_setting	triclinic
loop_
_symmetry_equiv_pos_as_xyz
  x,y,z
_cell_length_a	13.635800
_cell_length_b	23.753023
_cell_length_c	10.992421
_cell_angle_alpha	84.935070
_cell_angle_beta	108.764763
_cell_angle_gamma	79.932472
loop_
_atom_site_label
_atom_site_type_symbol
_atom_site_fract_x
_atom_site_fract_y
_atom_site_fract_z
V1	V	2.007986	-0.178380	0.179383
O2	O	1.987983	-0.174993	-0.006951
O3	O	1.997113	-0.177152	0.354081
O4	O	1.975350	-0.256181	0.177356
O5	O	2.009897	-0.095416	0.170997
V6	V	2.249166	-0.168458	0.157009
O7	O	2.139890	-0.200145	0.228463
O8	O	2.342360	-0.146693	0.107929
O9	O	2.148435	-0.169686	-0.017689
O10	O	2.327867	-0.171845	0.343342
O11	O	2.305953	-0.251422	0.165394
O12	O	2.170198	-0.090657	0.159036
V13	V	2.507986	-0.178380	0.179383
O14	O	2.487983	-0.174993	-0.006951
O15	O	2.497113	-0.177152	0.354081
O16	O	2.475350	-0.256181	0.177356
O17	O	2.509897	-0.095416	0.170997
V18	V	2.749166	-0.168458	0.157009
O19	O	2.639890	-0.200145	0.228463
O20	O	2.842360	-0.146693	0.107929
O21	O	2.648435	-0.169686	-0.017689
O22	O	2.827867	-0.171845	0.343342
O23	O	2.805953	-0.251422	0.165394
O24	O	2.670198	-0.090657	0.159036
C25	C	1.895367	-0.275145	0.171214
C26	C	1.909413	-0.338748	0.170713
C27	C	2.024805	-0.741333	0.285491
C28	C	2.038022	-0.801097	0.285040
O29	O	2.068834	-0.838953	0.384932
N30	N	2.016473	-0.822820	0.167080
C31	C	1.981715	-0.784777	0.049564
O32	O	1.964600	-0.808742	-0.050811
C33	C	1.968505	-0.725014	0.050017
C34	C	1.990047	-0.703294	0.167984
C35	C	2.046345	-0.719613	0.403448
C36	C	2.033127	-0.659853	0.403899
C37	C	1.998368	-0.621814	0.286391
C38	C	1.976828	-0.643535	0.168434
C39	C	1.933755	-0.686972	-0.067497
C40	C	1.920548	-0.627207	-0.067034
C41	C	1.942089	-0.605487	0.050933
C42	C	1.928852	-0.545737	0.051377
N43	N	1.950401	-0.524013	0.169337
C44	C	1.985159	-0.562052	0.286844
C45	C	2.009459	-0.910282	0.048623
C46	C	2.022661	-0.970042	0.048168
C47	C	2.078969	-0.986359	0.283645
C48	C	2.065759	-0.926596	0.284097
C49	C	2.031008	-0.888558	0.166583
C50	C	1.957397	-0.436552	0.287781
C51	C	1.944171	-0.376787	0.288220
C52	C	1.887870	-0.360476	0.052745
C53	C	1.901089	-0.420236	0.052304
C54	C	1.935858	-0.458274	0.169833
O55	O	1.898048	-0.507847	-0.048463
O56	O	2.002281	-0.538079	0.387204
C57	C	1.923129	-0.174336	0.396645
C58	C	1.954826	-0.173851	0.539468
C59	C	2.054091	-0.172500	-0.060247
C60	C	2.012012	-0.172989	-0.203068
C61	C	2.081853	-0.071690	0.165182
C62	C	2.057425	-0.008087	0.165676
C63	C	2.423129	-0.174336	0.396645
C64	C	2.454826	-0.173851	0.539468
C65	C	2.395367	-0.275145	0.171214
C66	C	2.409413	-0.338748	0.170713
C67	C	1.889736	-0.169938	0.734719
C68	C	1.856619	-0.170216	0.586077
C69	C	2.004829	-0.120496	0.577618
C70	C	2.037102	-0.119931	0.726156
C71	C	2.072725	-0.229306	0.765732
C72	C	2.037880	-0.230463	0.617229
C73	C	2.554091	-0.172500	-0.060247
C74	C	2.512012	-0.172989	-0.203068
C75	C	2.581853	-0.071690	0.165182
C76	C	2.557425	-0.008087	0.165676
C77	C	2.507250	-0.371533	0.176910
C78	C	2.520459	-0.431294	0.176422
C79	C	2.435830	-0.458269	0.169746
C80	C	2.337984	-0.425480	0.163545
C81	C	2.324775	-0.365720	0.164024
C82	C	2.459821	0.018875	0.172337
C83	C	2.436850	0.078637	0.172787
C84	C	2.511488	0.111438	0.166585
C85	C	2.609099	0.084473	0.159919
C86	C	2.632066	0.024712	0.159461
C87	C	2.389736	-0.169938	0.734719
C88	C	2.356619	-0.170216	0.586077
C89	C	2.504829	-0.120496	0.577618
C90	C	2.537102	-0.119931	0.726156
C91	C	2.572725	-0.229306	0.765732
C92	C	2.537880	-0.230463	0.617229
H93	H	1.961712	-0.359106	0.384287
F94	F	2.554053	-0.282076	0.830940
H95	H	2.611129	-0.236422	0.587076
F96	F	2.099783	-0.121297	0.538105
F97	F	1.805550	-0.220045	0.552850
H98	H	2.125231	-0.119846	0.767038
F99	F	2.220642	-0.330835	0.157442
F100	F	1.979946	-0.064559	0.748549
F101	F	2.380369	-0.016023	0.178939
H102	H	1.946080	-0.078584	0.522999
H103	H	2.446600	-0.506931	0.169358
F104	F	1.859212	-0.219458	0.795849
F105	F	2.332962	0.107324	0.179890
H106	H	2.669862	0.111188	0.154866
F107	F	2.054053	-0.282076	0.830940
H108	H	1.985707	-0.467516	0.383484
F109	F	1.991642	-0.282061	0.586477
H110	H	2.050675	-0.642175	0.499960
H111	H	2.576172	-0.349577	0.182349
H112	H	2.111129	-0.236422	0.587076
F113	F	2.189255	-0.232958	0.819493
H114	H	2.493372	-0.077568	0.743285
H115	H	2.083301	-0.908917	0.380157
F116	F	2.487030	0.175041	0.167078
H117	H	2.005104	-0.987720	-0.047893
H118	H	1.883554	-0.437921	-0.043754
F119	F	2.115945	-1.026852	0.408706
F120	F	2.247928	-0.454199	0.156454
H121	H	2.711549	0.002764	0.154044
H122	H	2.600138	-0.457983	0.181477
F123	F	2.305550	-0.220045	0.552850
F124	F	2.083341	-0.760089	0.528527
H125	H	2.366388	-0.207826	0.781484
H126	H	2.343028	-0.129325	0.754910
F127	F	2.274084	-0.117088	0.517042
H128	H	2.625231	-0.119846	0.767038
H129	H	2.661879	-0.232102	0.806875
F130	F	2.599783	-0.121297	0.538105
F131	F	2.428042	-0.065713	0.506229
F132	F	2.491642	-0.282061	0.586477
F133	F	1.883575	-0.586727	-0.192113
H134	H	1.916204	-0.704645	-0.163559
F135	F	1.972454	-0.869802	-0.076463
H136	H	1.859565	-0.329494	-0.042927
H137	H	1.843028	-0.129325	0.754910
F138	F	1.774084	-0.117088	0.517042
