data_functionalizedCrystal
_audit_creation_method	'MofGen! by Chris Wilmer'
_symmetry_space_group_name_H-M	'P1'
_symmetry_Int_Tables_number	1
_symmetry_cell_setting	triclinic
loop_
_symmetry_equiv_pos_as_xyz
  x,y,z
_cell_length_a	10.654541
_cell_length_b	16.109301
_cell_length_c	14.586319
_cell_angle_alpha	89.986216
_cell_angle_beta	90.006836
_cell_angle_gamma	96.027295
loop_
_atom_site_label
_atom_site_type_symbol
_atom_site_fract_x
_atom_site_fract_y
_atom_site_fract_z
O1	O	1.666265	-0.116773	0.076216
O2	O	1.300635	-0.127901	0.076224
O3	O	1.493494	-0.001366	0.076210
O4	O	1.473406	-0.243308	0.076229
O5	O	1.493467	-0.001344	-0.076271
O6	O	1.300608	-0.127879	-0.076257
O7	O	1.666238	-0.116752	-0.076265
Cu8	Cu	1.483420	-0.122313	-0.090184
Cu9	Cu	1.483453	-0.122339	0.090142
O10	O	1.473379	-0.243287	-0.076252
C11	C	1.253835	-0.127073	-0.000016
C12	C	1.114424	-0.124630	-0.000013
N13	N	1.483407	-0.122295	-0.217016
C14	C	1.492667	0.029625	-0.000031
C15	C	1.490227	0.121935	-0.000032
C16	C	1.084401	-0.275937	0.000011
C17	C	1.003896	-0.350439	0.000026
C18	C	0.872909	-0.348139	0.000027
C19	C	0.822426	-0.271327	0.000009
C20	C	0.902931	-0.196825	-0.000006
C21	C	1.033919	-0.199134	-0.000004
C22	C	0.932954	-0.045520	-0.000036
C23	C	1.063941	-0.047819	-0.000030
C24	C	0.882471	0.031291	-0.000053
C25	C	0.962976	0.105795	-0.000062
C26	C	1.093970	0.103491	-0.000062
C27	C	1.144446	0.026683	-0.000045
C28	C	1.713038	-0.117579	-0.000024
C29	C	1.852449	-0.120022	-0.000021
C30	C	1.474206	-0.274277	-0.000009
C31	C	1.476646	-0.366587	-0.000001
C32	C	1.598994	0.343561	-0.000020
C33	C	1.596692	0.430295	-0.000012
C34	C	1.367871	0.411780	-0.000011
C35	C	1.370174	0.325047	-0.000012
C36	C	1.485739	0.290941	-0.000021
C37	C	1.481134	0.464407	-0.000012
C38	C	1.478637	0.558448	-0.000004
C39	C	1.488237	0.196894	-0.000028
C40	C	1.407305	-0.071438	-0.548047
C41	C	1.407295	-0.071427	-0.452066
C42	C	1.559587	-0.173210	-0.452001
C43	C	1.559602	-0.173216	-0.547981
C44	C	1.483454	-0.122332	-0.596001
C45	C	1.483429	-0.122314	-0.404040
C46	C	1.483418	-0.122302	-0.299973
C47	C	1.483466	-0.122343	-0.700075
N48	N	1.483476	-0.122351	0.216974
H49	H	1.191055	-0.277818	0.000030
H50	H	1.345288	-0.029983	-0.413026
N51	N	1.248007	0.268293	-0.000020
H52	H	1.243860	0.231908	-0.056545
H53	H	1.243939	0.231936	0.056542
N54	N	1.723635	0.306775	-0.000029
H55	H	1.773259	0.325901	0.056497
H56	H	1.707806	0.243852	-0.000068
N57	N	1.325188	-0.016552	-0.599843
H58	H	1.276951	0.015693	-0.554896
H59	H	1.379970	0.023752	-0.639668
H60	H	1.273781	0.439561	-0.000005
N61	N	1.058337	-0.433285	0.000047
H62	H	1.112007	-0.437614	-0.056476
H63	H	1.111958	-0.437566	0.056611
N64	N	1.641772	-0.228101	-0.599695
H65	H	1.616993	-0.288444	-0.582980
H66	H	1.630216	-0.220314	-0.667769
N67	N	0.681146	-0.268854	-0.000012
H68	H	0.643697	-0.298009	0.056513
H69	H	0.661477	-0.208875	-0.000061
N70	N	0.786070	-0.428491	0.000021
H71	H	0.837920	-0.477500	0.000025
H72	H	0.731069	-0.430841	0.056544
N73	N	1.718840	0.487054	-0.000016
H74	H	1.769272	0.475993	0.056505
H75	H	1.769146	0.475995	-0.056582
N76	N	0.741194	0.033778	-0.000071
H77	H	0.697852	-0.025073	-0.000060
H78	H	0.715643	0.064073	0.056446
N79	N	1.641708	-0.228089	-0.400200
H80	H	1.587010	-0.268447	-0.360374
H81	H	1.689944	-0.260275	-0.445200
N82	N	0.908529	0.188633	-0.000095
H83	H	0.813335	0.178786	-0.000102
H84	H	0.937976	0.221269	0.056425
N85	N	1.285723	0.024199	-0.000041
H86	H	1.305483	-0.035763	-0.000029
H87	H	1.323065	0.053387	-0.056576
H88	H	1.159511	0.164161	-0.000078
