data_functionalizedCrystal
_audit_creation_method	'MofGen! by Chris Wilmer'
_symmetry_space_group_name_H-M	'P1'
_symmetry_Int_Tables_number	1
_symmetry_cell_setting	triclinic
loop_
_symmetry_equiv_pos_as_xyz
  x,y,z
_cell_length_a	14.971486
_cell_length_b	9.130313
_cell_length_c	10.654550
_cell_angle_alpha	90.000355
_cell_angle_beta	95.950471
_cell_angle_gamma	89.997824
loop_
_atom_site_label
_atom_site_type_symbol
_atom_site_fract_x
_atom_site_fract_y
_atom_site_fract_z
O1	O	1.187833	0.121617	-0.163655
O2	O	1.687833	0.621617	0.336345
O3	O	0.927540	0.121655	-0.183253
O4	O	1.427540	0.621655	0.316747
O5	O	1.063671	0.121641	0.009349
O6	O	1.563671	0.621641	0.509349
O7	O	1.051702	0.121631	-0.356258
O8	O	1.551702	0.621631	0.143742
O9	O	1.063663	-0.121958	0.009353
O10	O	1.563663	0.378042	0.509353
O11	O	0.927532	-0.121944	-0.183250
O12	O	1.427532	0.378056	0.316750
O13	O	1.187825	-0.121982	-0.163652
O14	O	1.687825	0.378018	0.336348
Cu15	Cu	1.057678	-0.144206	-0.173450
Cu16	Cu	1.557678	0.355794	0.326550
Cu17	Cu	1.057687	0.143878	-0.173455
Cu18	Cu	1.557687	0.643878	0.326545
O19	O	1.051694	-0.121968	-0.356254
O20	O	1.551694	0.378032	0.143746
C21	C	0.894206	-0.000139	-0.182375
C22	C	1.394206	0.499861	0.317625
C23	C	0.794895	-0.000124	-0.179749
C24	C	1.294895	0.499876	0.320251
C25	C	0.738285	-0.000129	-0.292898
C26	C	1.238285	0.499871	0.207102
C27	C	0.644972	-0.000151	-0.290422
C28	C	1.144972	0.499849	0.209578
C29	C	0.608271	-0.000157	-0.174797
C30	C	1.108271	0.499843	0.325203
C31	C	0.664888	-0.000156	-0.061639
C32	C	1.164888	0.499844	0.438361
C33	C	0.758199	-0.000145	-0.064116
C34	C	1.258199	0.499855	0.435884
C35	C	0.470397	-0.000176	-0.056485
C36	C	0.970397	0.499824	0.443515
C37	C	0.377080	-0.000185	-0.054007
C38	C	0.877080	0.499815	0.445993
C39	C	0.357171	-0.000183	-0.282791
C40	C	0.857171	0.499817	0.217209
C41	C	0.450482	-0.000171	-0.285268
C42	C	0.950482	0.499829	0.214732
C43	C	0.507092	-0.000168	-0.172110
C44	C	1.007092	0.499832	0.327890
N45	N	1.057678	-0.346828	-0.173447
N46	N	1.557678	0.153172	0.326553
C47	C	1.117982	-0.576833	-0.088194
C48	C	1.617982	-0.076833	0.411806
C49	C	1.117976	-0.423496	-0.088195
C50	C	1.617976	0.076504	0.411805
C51	C	0.997388	-0.423505	-0.258710
C52	C	1.497388	0.076495	0.241290
C53	C	0.997398	-0.576839	-0.258714
C54	C	1.497398	-0.076839	0.241286
C55	C	1.221159	-0.000185	-0.164530
C56	C	1.721159	0.499815	0.335470
C57	C	1.320470	-0.000190	-0.167156
C58	C	1.820470	0.499810	0.332844
C59	C	1.052577	-0.000170	-0.403044
C60	C	1.552577	0.499830	0.096956
C61	C	1.055206	-0.000175	-0.542460
C62	C	1.555206	0.499825	-0.042460
N63	N	1.057694	0.346501	-0.173448
N64	N	1.557694	0.846501	0.326552
C65	C	0.975054	-0.000160	-0.622805
C66	C	1.475054	0.499840	-0.122805
C67	C	0.977530	-0.000137	-0.753799
C68	C	1.477530	0.499863	-0.253799
C69	C	1.140317	-0.000150	-0.724090
C70	C	1.640317	0.499850	-0.224090
C71	C	1.137840	-0.000163	-0.593098
C72	C	1.637840	0.499837	-0.093098
C73	C	1.062788	-0.000154	0.056139
C74	C	1.562788	0.499846	0.556139
C75	C	1.060159	-0.000139	0.195555
C76	C	1.560159	0.499861	0.695555
H77	H	0.768160	-0.000123	-0.387053
H78	H	1.268160	0.499877	0.112947
H79	H	0.948294	-0.361073	-0.328130
H80	H	1.448294	0.138927	0.171870
Cl81	Cl	0.618749	-0.000173	0.083720
Cl82	Cl	1.118749	0.499827	0.583720
H83	H	0.804290	-0.000140	0.028022
H84	H	1.304290	0.499860	0.528022
Cl85	Cl	1.193786	-0.673199	0.018992
Cl86	Cl	1.693786	-0.173199	0.518992
Cl87	Cl	1.193772	-0.327120	0.018983
Cl88	Cl	1.693772	0.172880	0.518983
H89	H	0.948304	-0.639265	-0.328144
H90	H	1.448304	-0.139265	0.171856
H91	H	0.907768	-0.000175	-0.581580
H92	H	1.407768	0.499825	-0.081580
Cl93	Cl	0.876763	-0.000110	-0.854800
Cl94	Cl	1.376763	0.499890	-0.354800
Cl95	Cl	1.238611	-0.000173	-0.492084
Cl96	Cl	1.738611	0.499827	0.007916
Cl97	Cl	0.573809	-0.000149	-0.432673
Cl98	Cl	1.073809	0.499851	0.067327
Cl99	Cl	0.496620	-0.000148	-0.430628
Cl100	Cl	0.996620	0.499852	0.069372
H101	H	1.207595	-0.000155	-0.765336
H102	H	1.707595	0.499845	-0.265336
H103	H	0.347201	-0.000192	0.040145
H104	H	0.847201	0.499808	0.540145
H105	H	0.311074	-0.000192	-0.374929
H106	H	0.811074	0.499808	0.125071
Cl107	Cl	0.541564	-0.000175	0.085774
Cl108	Cl	1.041564	0.499825	0.585774
