data_functionalizedCrystal
_audit_creation_method	'MofGen! by Chris Wilmer'
_symmetry_space_group_name_H-M	'P1'
_symmetry_Int_Tables_number	1
_symmetry_cell_setting	triclinic
loop_
_symmetry_equiv_pos_as_xyz
  x,y,z
_cell_length_a	15.625950
_cell_length_b	15.538117
_cell_length_c	16.776229
_cell_angle_alpha	90.000555
_cell_angle_beta	108.067647
_cell_angle_gamma	113.257794
loop_
_atom_site_label
_atom_site_type_symbol
_atom_site_fract_x
_atom_site_fract_y
_atom_site_fract_z
O1	O	1.155810	-0.123019	0.267707
O2	O	0.888583	-0.137643	0.190488
O3	O	1.074212	0.006726	0.244124
O4	O	0.970181	-0.267388	0.214072
O5	O	1.074196	0.006726	0.376696
O6	O	0.888568	-0.137643	0.323060
O7	O	1.155794	-0.123018	0.400279
Zn8	Zn	1.022178	-0.130331	0.382718
Zn9	Zn	1.022199	-0.130331	0.208049
O10	O	0.970165	-0.267388	0.346644
C11	C	0.855210	-0.136977	0.247133
C12	C	0.755795	-0.134981	0.218405
C13	C	0.428680	-0.128468	0.485144
C14	C	0.335256	-0.126611	0.458111
C15	C	0.335319	-0.126612	0.313600
C16	C	0.428743	-0.128474	0.340620
C17	C	0.475416	-0.129400	0.426394
C18	C	0.475479	-0.129406	0.281870
C19	C	0.568897	-0.131262	0.308889
C20	C	0.615578	-0.132186	0.394660
C21	C	0.568834	-0.131256	0.453413
C22	C	0.428807	-0.128473	0.196098
C23	C	0.475543	-0.129405	0.137347
C24	C	0.568960	-0.131268	0.164366
C25	C	0.615641	-0.132192	0.250136
C26	C	0.615704	-0.132198	0.105612
C27	C	0.709122	-0.134055	0.132631
C28	C	0.709059	-0.134049	0.277155
C29	C	1.085088	0.041807	0.313552
C30	C	1.117509	0.146335	0.322912
C31	C	0.795395	0.434571	0.229848
C32	C	0.825882	0.532794	0.238659
C33	C	0.997372	0.555000	0.288213
C34	C	0.966900	0.456776	0.279402
C35	C	0.865910	0.396569	0.250220
C36	C	1.037415	0.418775	0.299775
C37	C	1.006945	0.320560	0.290969
C38	C	0.905959	0.260346	0.261791
C39	C	0.835440	0.298354	0.241414
C40	C	1.138405	0.478984	0.328963
C41	C	1.208920	0.440982	0.349335
C42	C	1.178450	0.342765	0.340524
C43	C	1.077464	0.282552	0.311345
C44	C	1.248969	0.304757	0.360900
C45	C	1.218499	0.206543	0.352094
C46	C	1.046994	0.184337	0.302540
C47	C	1.189167	-0.123685	0.343633
C48	C	1.288582	-0.125681	0.372356
N49	N	1.022171	-0.130330	0.501928
C50	C	0.959284	0.697531	0.277211
C51	C	0.926850	0.593001	0.267838
N52	N	1.022216	-0.130325	0.088843
C53	C	1.058116	-0.187548	0.554030
C54	C	1.058128	-0.187545	0.637486
C55	C	1.022187	-0.130327	0.668835
C56	C	0.986241	-0.073102	0.616727
C57	C	0.986237	-0.073101	0.533275
C58	C	0.986259	-0.073103	0.953279
C59	C	0.986263	-0.073110	1.036737
C60	C	1.058150	-0.187547	1.057490
C61	C	1.058145	-0.187546	0.974038
C62	C	1.022205	-0.130318	0.921938
C63	C	1.022195	-0.130321	0.831447
C64	C	1.022190	-0.130328	0.759323
H65	H	0.352738	-0.126966	0.174101
Br66	Br	1.106892	-0.265209	0.511492
H67	H	1.087400	-0.234136	0.679906
H68	H	1.079599	0.604033	0.311976
H69	H	0.691645	-0.133697	0.416658
H70	H	1.291146	0.490015	0.373099
H71	H	0.964758	0.135312	0.278771
Br72	Br	1.179758	0.612277	0.340923
H73	H	0.881152	0.180374	0.254626
H74	H	0.577693	-0.131434	0.035776
H75	H	0.956966	-0.026508	0.490853
H76	H	0.768452	0.563730	0.222078
Br77	Br	1.314198	0.154963	0.379763
H78	H	1.087417	-0.234143	1.099921
Br79	Br	0.632178	-0.132530	0.569820
Br80	Br	1.106904	-0.265217	0.931491
Br81	Br	0.937468	0.004556	0.659272
Br82	Br	0.698380	0.216635	0.201798
H83	H	0.713159	0.385546	0.206079
Br84	Br	0.492024	-0.129741	0.601551
Br85	Br	0.772403	-0.135322	0.393562
Br86	Br	1.386022	0.386477	0.400523
Br87	Br	0.937481	0.004547	1.079281
Br88	Br	0.937433	0.004525	0.882568
H89	H	0.297197	-0.125873	0.505957
H90	H	0.297307	-0.125853	0.243763
Br91	Br	0.412210	-0.128111	0.020949
H92	H	0.747173	-0.134819	0.084790
