data_functionalizedCrystal
_audit_creation_method	'MofGen! by Chris Wilmer'
_symmetry_space_group_name_H-M	'P1'
_symmetry_Int_Tables_number	1
_symmetry_cell_setting	triclinic
loop_
_symmetry_equiv_pos_as_xyz
  x,y,z
_cell_length_a	19.805407
_cell_length_b	19.076808
_cell_length_c	19.805399
_cell_angle_alpha	87.672943
_cell_angle_beta	89.980427
_cell_angle_gamma	92.323385
loop_
_atom_site_label
_atom_site_type_symbol
_atom_site_fract_x
_atom_site_fract_y
_atom_site_fract_z
Zn1	Zn	1.023914	-0.280233	-0.371886
Zn2	Zn	1.523914	0.219767	0.128114
Zn3	Zn	1.019283	-0.397938	-0.254147
Zn4	Zn	1.519283	0.102062	0.245853
Zn5	Zn	0.910727	-0.280252	-0.258710
Zn6	Zn	1.410727	0.219748	0.241290
Zn7	Zn	0.906148	-0.397901	-0.367295
Zn8	Zn	1.406148	0.102099	0.132705
O9	O	0.965018	-0.339081	-0.313009
O10	O	1.465018	0.160919	0.186991
O11	O	1.118016	-0.295854	-0.356279
O12	O	1.618016	0.204146	0.143721
O13	O	1.004861	-0.382351	-0.160035
O14	O	1.504861	0.117649	0.339965
O15	O	0.929597	-0.181753	-0.277553
O16	O	1.429597	0.318247	0.222447
O17	O	1.114613	-0.382332	-0.269777
O18	O	1.614613	0.117668	0.230223
O19	O	1.012754	-0.181739	-0.360703
O20	O	1.512754	0.318261	0.139297
O21	O	0.925106	-0.295887	-0.163387
O22	O	1.425106	0.204113	0.336613
O23	O	0.815404	-0.295851	-0.273102
O24	O	1.315404	0.204149	0.226898
O25	O	0.921791	-0.382268	-0.462622
O26	O	1.421791	0.117732	0.037378
O27	O	0.812039	-0.382287	-0.352879
O28	O	1.312039	0.117713	0.147121
O29	O	1.008313	-0.295818	-0.465994
O30	O	1.508313	0.204182	0.034006
O31	O	1.000421	-0.496429	-0.265326
O32	O	1.500421	0.003571	0.234674
O33	O	0.917301	-0.496402	-0.348455
O34	O	1.417301	0.003598	0.151545
C35	C	0.789162	-0.339067	-0.312988
C36	C	1.289162	0.160933	0.187012
C37	C	0.713930	-0.339079	-0.312994
C38	C	1.213930	0.160921	0.187006
C39	C	0.957879	-0.521955	-0.305912
C40	C	1.457879	-0.021955	0.194088
C41	C	0.954888	-0.600189	-0.302898
C42	C	1.454888	-0.100189	0.197102
C43	C	0.676849	-0.384154	-0.354462
C44	C	1.176849	0.115846	0.145538
C45	C	0.606160	-0.384155	-0.354471
C46	C	1.106160	0.115845	0.145529
C47	C	0.572554	-0.339084	-0.313009
C48	C	1.072554	0.160916	0.186991
C49	C	0.609640	-0.294004	-0.271540
C50	C	1.109640	0.205996	0.228460
C51	C	0.680328	-0.294000	-0.271535
C52	C	1.180328	0.206000	0.228465
C53	C	0.324567	-0.294020	-0.271562
C54	C	0.824567	0.205980	0.228438
C55	C	0.253874	-0.294029	-0.271569
C56	C	0.753874	0.205971	0.228431
C57	C	0.250399	-0.384175	-0.354498
C58	C	0.750399	0.115825	0.145502
C59	C	0.321086	-0.384170	-0.354493
C60	C	0.821086	0.115830	0.145507
C61	C	0.358167	-0.339088	-0.313027
C62	C	0.858167	0.160912	0.186973
C63	C	0.434815	-0.339086	-0.313018
C64	C	0.934815	0.160914	0.186982
C65	C	0.495907	-0.339089	-0.313014
C66	C	0.995907	0.160911	0.186986
C67	C	0.996745	-0.636876	-0.344809
C68	C	1.496745	-0.136876	0.155191
C69	C	0.993931	-0.710385	-0.341979
C70	C	1.493931	-0.210385	0.158021
C71	C	0.949263	-0.747206	-0.297233
C72	C	1.449263	-0.247206	0.202767
C73	C	0.907400	-0.710515	-0.255321
C74	C	1.407400	-0.210515	0.244679
C75	C	0.910211	-0.637007	-0.258155
C76	C	1.410211	-0.137007	0.241845
C77	C	0.936213	-0.967059	-0.284114
C78	C	1.436213	-0.467059	0.215886
C79	C	0.933407	-1.040572	-0.281281
C80	C	1.433407	-0.540572	0.218719
C81	C	1.019937	-1.040437	-0.367940
C82	C	1.519937	-0.540437	0.132060
C83	C	1.022747	-0.966928	-0.370768
C84	C	1.522747	-0.466928	0.129232
C85	C	0.980882	-0.930243	-0.328858
C86	C	1.480882	-0.430243	0.171142
N87	N	0.946387	-0.822345	-0.294338
N88	N	1.446387	-0.322345	0.205662
N89	N	0.983755	-0.855106	-0.331757
N90	N	1.483755	-0.355106	0.168243
C91	C	1.141560	-0.339095	-0.313031
C92	C	1.641560	0.160905	0.186969
C93	C	1.216792	-0.339101	-0.313041
C94	C	1.716792	0.160899	0.186959
C95	C	0.965058	-0.339037	-0.489554
C96	C	1.465058	0.160963	0.010446
C97	C	0.965074	-0.339018	-0.564787
C98	C	1.465074	0.160982	-0.064787
C99	C	0.972203	-0.155493	-0.320149
C100	C	1.472203	0.344507	0.179851
C101	C	0.975264	-0.077259	-0.323192
C102	C	1.475264	0.422741	0.176808
C103	C	1.010128	-0.294001	-0.601888
C104	C	1.510128	0.205999	-0.101888
C105	C	1.010135	-0.293980	-0.672577
C106	C	1.510135	0.206020	-0.172577
C107	C	0.965093	-0.338981	-0.706164
C108	C	1.465093	0.161019	-0.206164
C109	C	0.920035	-0.384000	-0.669057
C110	C	1.420035	0.116000	-0.169057
C111	C	0.920024	-0.384016	-0.598369
C112	C	1.420024	0.115984	-0.098369
C113	C	0.920075	-0.383934	-0.954133
C114	C	1.420075	0.116066	-0.454133
C115	C	0.920091	-0.383916	-1.024826
C116	C	1.420091	0.116084	-0.524826
C117	C	1.010187	-0.293899	-1.028341
C118	C	1.510187	0.206101	-0.528341
C119	C	1.010176	-0.293915	-0.957653
C120	C	1.510176	0.206085	-0.457653
C121	C	0.965116	-0.338931	-0.920553
C122	C	1.465116	0.161069	-0.420553
C123	C	0.965107	-0.338951	-0.843904
C124	C	1.465107	0.161049	-0.343904
C125	C	0.965104	-0.338964	-0.782812
C126	C	1.465104	0.161036	-0.282812
C127	C	0.965019	-0.339074	-0.137154
C128	C	1.465019	0.160926	0.362846
C129	C	0.965141	-0.338895	-0.061929
C130	C	1.465141	0.161105	0.438071
H131	H	0.704206	-0.420858	-0.388223
H132	H	1.204206	0.079142	0.111777
H133	H	1.046857	-0.257273	-0.930311
H134	H	1.546857	0.242727	-0.430311
C135	C	0.870469	-0.433542	-0.557557
C136	C	1.370469	0.066458	-0.057557
C137	C	0.897629	-0.488816	-0.506818
C138	C	1.397629	0.011184	-0.006818
C139	C	0.848071	-0.538343	-0.466008
C140	C	1.348071	-0.038343	0.033992
C141	C	0.771352	-0.532596	-0.475937
C142	C	1.271352	-0.032596	0.024063
C143	C	0.744187	-0.477320	-0.526679
C144	C	1.244187	0.022680	-0.026679
C145	C	0.793746	-0.427793	-0.567489
C146	C	1.293746	0.072207	-0.067489
H147	H	0.954425	-0.493072	-0.499465
H148	H	1.454425	0.006928	0.000535
H149	H	0.868181	-0.579262	-0.428446
H150	H	1.368181	-0.079262	0.071554
H151	H	0.734666	-0.569259	-0.445727
H152	H	1.234666	-0.069259	0.054273
H153	H	0.687392	-0.473064	-0.534032
H154	H	1.187392	0.026936	-0.034032
H155	H	0.773636	-0.386874	-0.605051
H156	H	1.273636	0.113126	-0.105051
H157	H	0.348445	-0.420874	-0.388253
H158	H	0.848445	0.079126	0.111747
C159	C	1.065981	-1.080791	-0.414045
C160	C	1.565981	-0.580791	0.085955
C161	C	1.060797	-1.070637	-0.491376
C162	C	1.560797	-0.570637	0.008624
C163	C	1.106841	-1.110990	-0.537485
C164	C	1.606841	-0.610990	-0.037485
C165	C	1.158069	-1.161497	-0.506264
C166	C	1.658069	-0.661497	-0.006264
C167	C	1.163254	-1.171653	-0.428929
C168	C	1.663254	-0.671653	0.071071
C169	C	1.117210	-1.131300	-0.382820
C170	C	1.617210	-0.631300	0.117180
H171	H	1.022874	-1.033247	-0.514491
H172	H	1.522874	-0.533247	-0.014491
H173	H	1.103002	-1.103471	-0.594734
H174	H	1.603002	-0.603471	-0.094734
H175	H	1.192153	-1.191368	-0.540397
H176	H	1.692153	-0.691368	-0.040397
H177	H	1.201178	-1.209043	-0.405814
H178	H	1.701178	-0.709043	0.094186
H179	H	1.121049	-1.138819	-0.325571
H180	H	1.621049	-0.638819	0.174429
H181	H	0.582273	-0.257304	-0.237784
H182	H	1.082273	0.242696	0.262216
H183	H	0.226514	-0.257323	-0.237806
H184	H	0.726514	0.242677	0.262194
H185	H	0.354749	-0.257317	-0.237792
H186	H	0.854749	0.242683	0.262208
C187	C	0.721121	-0.244417	-0.225921
C188	C	1.221121	0.255583	0.274079
C189	C	0.714523	-0.164410	-0.234680
C190	C	1.214523	0.335590	0.265320
C191	C	0.755317	-0.114822	-0.189069
C192	C	1.255317	0.385178	0.310931
C193	C	0.802709	-0.145241	-0.134699
C194	C	1.302709	0.354759	0.365301
C195	C	0.809309	-0.225252	-0.125938
C196	C	1.309309	0.274748	0.374062
C197	C	0.768515	-0.274840	-0.171549
C198	C	1.268515	0.225160	0.328451
H199	H	0.679439	-0.141888	-0.274930
H200	H	1.179439	0.358112	0.225070
H201	H	0.750431	-0.055592	-0.195555
H202	H	1.250431	0.444408	0.304445
H203	H	0.832906	-0.108533	-0.100935
H204	H	1.332906	0.391467	0.399065
H205	H	0.844393	-0.247774	-0.085688
H206	H	1.344393	0.252226	0.414312
H207	H	0.773401	-0.334070	-0.165063
H208	H	1.273401	0.165930	0.334937
H209	H	0.220200	-0.420880	-0.388265
H210	H	0.720200	0.079120	0.111735
C211	C	0.870503	-0.433429	-0.913315
C212	C	1.370503	0.066571	-0.413315
C213	C	0.897637	-0.488696	-0.862552
C214	C	1.397637	0.011304	-0.362552
C215	C	0.848056	-0.538180	-0.821724
C216	C	1.348056	-0.038180	-0.321724
C217	C	0.771341	-0.532398	-0.831659
C218	C	1.271341	-0.032398	-0.331659
C219	C	0.744203	-0.477129	-0.882424
C220	C	1.244203	0.022871	-0.382424
C221	C	0.793784	-0.427644	-0.923252
C222	C	1.293784	0.072356	-0.423252
H223	H	0.954429	-0.492978	-0.855196
H224	H	1.454429	0.007022	-0.355196
H225	H	0.868145	-0.579094	-0.784145
H226	H	1.368145	-0.079094	-0.284145
H227	H	0.734638	-0.569030	-0.801435
H228	H	1.234638	-0.069030	-0.301435
H229	H	0.687411	-0.472847	-0.889780
H230	H	1.187411	0.027153	-0.389780
H231	H	0.773694	-0.386730	-0.960831
H232	H	1.273694	0.113270	-0.460831
C233	C	0.864168	-0.596647	-0.212052
C234	C	1.364168	-0.096647	0.287948
C235	C	0.895458	-0.546115	-0.160891
C236	C	1.395458	-0.046115	0.339109
C237	C	0.849410	-0.505756	-0.114790
C238	C	1.349410	-0.005756	0.385210
C239	C	0.772073	-0.515930	-0.119850
C240	C	1.272073	-0.015930	0.380150
C241	C	0.740779	-0.566465	-0.171014
C242	C	1.240779	-0.066465	0.328986
C243	C	0.786827	-0.606824	-0.217115
C244	C	1.286827	-0.106824	0.282885
H245	H	0.952711	-0.538581	-0.157142
H246	H	1.452711	-0.038581	0.342858
H247	H	0.872576	-0.468347	-0.076915
H248	H	1.372576	0.031653	0.423085
H249	H	0.737986	-0.486054	-0.085724
H250	H	1.237986	0.013946	0.414276
H251	H	0.683526	-0.573999	-0.174763
H252	H	1.183526	-0.073999	0.325237
H253	H	0.763661	-0.644233	-0.254990
H254	H	1.263661	-0.144233	0.245010
H255	H	1.059120	-0.936950	-0.407203
H256	H	1.559120	-0.436950	0.092797
H257	H	0.897029	-1.070550	-0.244843
H258	H	1.397029	-0.570550	0.255157
H259	H	0.575972	-0.420860	-0.388237
H260	H	1.075972	0.079140	0.111763
C261	C	0.858265	-0.751014	-0.206097
C262	C	1.358265	-0.251014	0.293903
C263	C	0.781700	-0.740975	-0.211933
C264	C	1.281700	-0.240975	0.288067
C265	C	0.732566	-0.781472	-0.162705
C266	C	1.232566	-0.281472	0.337295
C267	C	0.759998	-0.832007	-0.107641
C268	C	1.259998	-0.332007	0.392359
C269	C	0.836567	-0.842048	-0.101803
C270	C	1.336567	-0.342048	0.398197
C271	C	0.885701	-0.801552	-0.151031
C272	C	1.385701	-0.301552	0.348969
H273	H	0.761390	-0.703563	-0.252697
H274	H	1.261390	-0.203563	0.247303
H275	H	0.675885	-0.774038	-0.167027
H276	H	1.175885	-0.274038	0.332973
H277	H	0.723626	-0.861985	-0.071200
H278	H	1.223626	-0.361985	0.428800
H279	H	0.856876	-0.879460	-0.061039
H280	H	1.356876	-0.379460	0.438961
H281	H	0.942382	-0.808985	-0.146709
H282	H	1.442382	-0.308985	0.353291
C283	C	1.045883	-0.596375	-0.394030
C284	C	1.545883	-0.096375	0.105970
C285	C	1.091923	-0.636734	-0.440134
C286	C	1.591923	-0.136734	0.059866
C287	C	1.141060	-0.596236	-0.489357
C288	C	1.641060	-0.096236	0.010643
C289	C	1.144158	-0.515380	-0.492477
C290	C	1.644158	-0.015380	0.007523
C291	C	1.098117	-0.475017	-0.446372
C292	C	1.598117	0.024983	0.053628
C293	C	1.048979	-0.515515	-0.397148
C294	C	1.548979	-0.015515	0.102852
H295	H	1.089631	-0.696592	-0.437825
H296	H	1.589631	-0.196592	0.062175
H297	H	1.175143	-0.626115	-0.523487
H298	H	1.675143	-0.126115	-0.023487
H299	H	1.180533	-0.485401	-0.528915
H300	H	1.680533	0.014599	-0.028915
H301	H	1.100408	-0.415159	-0.448680
H302	H	1.600408	0.084841	0.051320
H303	H	1.014896	-0.485635	-0.363018
H304	H	1.514896	0.014365	0.136982
H305	H	1.028021	-0.740252	-0.376102
H306	H	1.528021	-0.240252	0.123898
H307	H	0.902127	-0.937196	-0.249987
H308	H	1.402127	-0.437196	0.250013
C309	C	1.059699	-0.244463	-0.713386
C310	C	1.559699	0.255537	-0.213386
C311	C	1.111651	-0.274955	-0.760807
C312	C	1.611651	0.225045	-0.260807
C313	C	1.161217	-0.225434	-0.801614
C314	C	1.661217	0.274566	-0.301614
C315	C	1.158832	-0.145421	-0.794999
C316	C	1.658832	0.354579	-0.294999
C317	C	1.106878	-0.114924	-0.747576
C318	C	1.606878	0.385076	-0.247576
C319	C	1.057312	-0.164445	-0.706769
C320	C	1.557312	0.335555	-0.206769
H321	H	1.113418	-0.334190	-0.765706
H322	H	1.613418	0.165810	-0.265706
H323	H	1.199676	-0.248010	-0.836720
H324	H	1.699676	0.251990	-0.336720
H325	H	1.195523	-0.108762	-0.825207
H326	H	1.695523	0.391238	-0.325207
H327	H	1.105110	-0.055689	-0.742677
H328	H	1.605110	0.444311	-0.242677
H329	H	1.018852	-0.141869	-0.671663
H330	H	1.518852	0.358131	-0.171663
H331	H	1.046809	-0.257358	-0.574547
H332	H	1.546809	0.242642	-0.074547
H333	H	1.046874	-0.257242	-1.058557
H334	H	1.546874	0.242758	-0.558557
H335	H	0.883409	-0.420562	-1.052170
H336	H	1.383409	0.079438	-0.552170
H337	H	0.883358	-0.420637	-0.696409
H338	H	1.383358	0.079363	-0.196409
