data_functionalizedCrystal
_audit_creation_method	'MofGen! by Chris Wilmer'
_symmetry_space_group_name_H-M	'P1'
_symmetry_Int_Tables_number	1
_symmetry_cell_setting	triclinic
loop_
_symmetry_equiv_pos_as_xyz
  x,y,z
_cell_length_a	12.759401
_cell_length_b	16.120484
_cell_length_c	12.759393
_cell_angle_alpha	92.862829
_cell_angle_beta	89.981425
_cell_angle_gamma	92.925831
loop_
_atom_site_label
_atom_site_type_symbol
_atom_site_fract_x
_atom_site_fract_y
_atom_site_fract_z
Zn1	Zn	1.584972	-0.331847	-0.615149
Zn2	Zn	1.575923	-0.471285	-0.448362
Zn3	Zn	1.409271	-0.331891	-0.439491
Zn4	Zn	1.400323	-0.471221	-0.623999
O5	O	1.492622	-0.401561	-0.531750
O6	O	1.730792	-0.350352	-0.593033
O7	O	1.553774	-0.452839	-0.300167
O8	O	1.440109	-0.215220	-0.455376
O9	O	1.724144	-0.452796	-0.470495
O10	O	1.569196	-0.215187	-0.584431
O11	O	1.431336	-0.350427	-0.293649
O12	O	1.261064	-0.350365	-0.463957
O13	O	1.424860	-0.452687	-0.769843
O14	O	1.254490	-0.452730	-0.599514
O15	O	1.560520	-0.350290	-0.763341
O16	O	1.545098	-0.587941	-0.479077
O17	O	1.416086	-0.587895	-0.608116
C18	C	1.219656	-0.401547	-0.531734
C19	C	1.102878	-0.401560	-0.531754
C20	C	1.051472	-0.348314	-0.595669
C21	C	0.941748	-0.348323	-0.595676
C22	C	0.934844	-0.454831	-0.467851
C23	C	1.044567	-0.454818	-0.467839
C24	C	0.798130	-0.250054	-0.627177
C25	C	0.746720	-0.196814	-0.691109
C26	C	0.783192	-0.184106	-0.792837
C27	C	0.871071	-0.224650	-0.830655
C28	C	0.922475	-0.277895	-0.766729
C29	C	0.886006	-0.290587	-0.664985
C30	C	1.188187	-0.553088	-0.436348
C31	C	1.239593	-0.606338	-0.372427
C32	C	1.203123	-0.619055	-0.270698
C33	C	1.115239	-0.578526	-0.232885
C34	C	1.063833	-0.525276	-0.296806
C35	C	1.100311	-0.512558	-0.398534
C36	C	1.478668	-0.618168	-0.545542
C37	C	1.472794	-0.710833	-0.551478
C38	C	1.462076	-0.880494	-0.562336
C39	C	1.523357	-0.921787	-0.501181
C40	C	1.517393	-1.016192	-0.507222
C41	C	1.468038	-0.786081	-0.556296
C42	C	1.766655	-0.401576	-0.531766
C43	C	1.883431	-0.401582	-0.531773
C44	C	1.492701	-0.401477	-0.805778
C45	C	1.492735	-0.401441	-0.922552
C46	C	1.506660	-0.184108	-0.517927
C47	C	1.512642	-0.091442	-0.512036
C48	C	1.429006	-0.348105	-0.974020
C49	C	1.429032	-0.348079	-1.083742
C50	C	1.556525	-0.454727	-1.090521
C51	C	1.556492	-0.454756	-0.980800
C52	C	1.307095	-0.318243	-1.231792
C53	C	1.243376	-0.264895	-1.283262
C54	C	1.232488	-0.183555	-1.242485
C55	C	1.285336	-0.155548	-1.150239
C56	C	1.349063	-0.208892	-1.098774
C57	C	1.359930	-0.290243	-1.139550
C58	C	1.678431	-0.484584	-0.832748
C59	C	1.742165	-0.537924	-0.781281
C60	C	1.753063	-0.619265	-0.822056
C61	C	1.700234	-0.647270	-0.914306
C62	C	1.636500	-0.593929	-0.965773
C63	C	1.625600	-0.512589	-0.924990
C64	C	1.492608	-0.401585	-0.258784
C65	C	1.492793	-0.401386	-0.141995
H66	H	1.217896	-0.542731	-0.519182
H67	H	1.785193	-0.515112	-0.706174
H68	H	1.593486	-0.616737	-1.040889
H69	H	1.580299	-0.886238	-0.444286
H70	H	1.405137	-0.916041	-0.619225
C71	C	1.626670	-0.513359	-1.154591
H72	H	1.664615	-0.545132	-1.108222
H73	H	1.674517	-0.481455	-1.195365
H74	H	1.584148	-0.549675	-1.199701
H75	H	0.887354	-0.498192	-0.415815
H76	H	1.377090	-0.304692	-0.926597
C77	C	1.407177	-0.178098	-0.997303
H78	H	1.391563	-0.122014	-0.980383
H79	H	1.480641	-0.181470	-1.007324
H80	H	1.385154	-0.211807	-0.941588
C81	C	0.726642	-0.125550	-0.863166
H82	H	0.760940	-0.123795	-0.929176
H83	H	0.728259	-0.071251	-0.830469
H84	H	0.655832	-0.145493	-0.873255
C85	C	1.115612	-0.289727	-0.665963
H86	H	1.069277	-0.258012	-0.704022
H87	H	1.156383	-0.321653	-0.713704
H88	H	1.160733	-0.253356	-0.623521
C89	C	1.273411	-0.066055	-1.105424
H90	H	1.227896	-0.038295	-1.149291
H91	H	1.340221	-0.037191	-1.102567
H92	H	1.244747	-0.067468	-1.036773
H93	H	1.180606	-0.140118	-1.284400
H94	H	1.709112	-0.713503	-0.947509
C95	C	1.185239	-0.295704	-1.384721
H96	H	1.200831	-0.351795	-1.401627
H97	H	1.207238	-0.262004	-1.440447
H98	H	1.111773	-0.292329	-1.374672
H99	H	1.315941	-0.384480	-1.264994
C100	C	1.823176	-0.677940	-0.765451
H101	H	1.822100	-0.730393	-0.802955
H102	H	1.797619	-0.684988	-0.696363
H103	H	1.893073	-0.654639	-0.762136
C104	C	1.019138	-0.322484	-0.808313
H105	H	1.033502	-0.307289	-0.878056
H106	H	1.005568	-0.380946	-0.807666
H107	H	1.077993	-0.306705	-0.764875
C108	C	0.911181	-0.210674	-0.942561
H109	H	0.867986	-0.173152	-0.975214
H110	H	0.908933	-0.262229	-0.982153
H111	H	0.981373	-0.188000	-0.939352
C112	C	0.967167	-0.480689	-0.255211
H113	H	0.952810	-0.495883	-0.185466
H114	H	0.908313	-0.496448	-0.298649
H115	H	0.980754	-0.422223	-0.255840
C116	C	1.666281	-0.395158	-0.787786
H117	H	1.620700	-0.367420	-0.831609
H118	H	1.733007	-0.366164	-0.784813
H119	H	1.637574	-0.396737	-0.719164
H120	H	0.675168	-0.163804	-0.660309
C121	C	1.075112	-0.592510	-0.120985
H122	H	1.015404	-0.560751	-0.107624
H123	H	1.128793	-0.575592	-0.071743
H124	H	1.056363	-0.649821	-0.114561
H125	H	0.768435	-0.260387	-0.544338
C126	C	1.259665	-0.677634	-0.200388
H127	H	1.317229	-0.699953	-0.237474
H128	H	1.212110	-0.721651	-0.181560
H129	H	1.284555	-0.647426	-0.138758
H130	H	1.311163	-0.639327	-0.403217
