data_functionalizedCrystal
_audit_creation_method	'MofGen! by Chris Wilmer'
_symmetry_space_group_name_H-M	'P1'
_symmetry_Int_Tables_number	1
_symmetry_cell_setting	triclinic
loop_
_symmetry_equiv_pos_as_xyz
  x,y,z
_cell_length_a	21.295417
_cell_length_b	11.169417
_cell_length_c	11.169409
_cell_angle_alpha	90.021649
_cell_angle_beta	89.958601
_cell_angle_gamma	89.971271
loop_
_atom_site_label
_atom_site_type_symbol
_atom_site_fract_x
_atom_site_fract_y
_atom_site_fract_z
Zn1	Zn	-0.250588	-1.834794	-0.678525
Zn2	Zn	0.082745	-1.501461	-0.345192
Zn3	Zn	0.416079	-1.168127	-0.011859
Zn4	Zn	-0.355876	-1.834613	-0.477811
Zn5	Zn	-0.022543	-1.501280	-0.144477
Zn6	Zn	0.310790	-1.167946	0.188856
Zn7	Zn	-0.250622	-1.634080	-0.477853
Zn8	Zn	0.082712	-1.300747	-0.144520
Zn9	Zn	0.416045	-0.967413	0.188813
Zn10	Zn	-0.355820	-1.634017	-0.678449
Zn11	Zn	-0.022487	-1.300684	-0.345116
Zn12	Zn	0.310847	-0.967350	-0.011782
O13	O	-0.303227	-1.734376	-0.578160
O14	O	0.030107	-1.401043	-0.244826
O15	O	0.363440	-1.067709	0.088507
O16	O	-0.264564	-2.002720	-0.651914
O17	O	0.068769	-1.669386	-0.318581
O18	O	0.402102	-1.336053	0.014752
O19	O	-0.341951	-1.807962	-0.309866
O20	O	-0.008618	-1.474629	0.023467
O21	O	0.324715	-1.141296	0.356800
O22	O	-0.162528	-1.660807	-0.504523
O23	O	0.170806	-1.327474	-0.171190
O24	O	0.504139	-0.994141	0.162144
O25	O	-0.341919	-2.002587	-0.504450
O26	O	-0.008586	-1.669253	-0.171117
O27	O	0.324748	-1.335920	0.162217
O28	O	-0.162503	-1.808271	-0.651956
O29	O	0.170830	-1.474938	-0.318622
O30	O	0.504164	-1.141605	0.014711
O31	O	-0.264621	-1.660632	-0.309898
O32	O	0.068712	-1.327298	0.023435
O33	O	0.402045	-0.993965	0.356769
O34	O	-0.264567	-1.466122	-0.504449
O35	O	0.068766	-1.132789	-0.171116
O36	O	0.402100	-0.799455	0.162218
O37	O	-0.341823	-1.660700	-0.846409
O38	O	-0.008490	-1.327367	-0.513076
O39	O	0.324843	-0.994033	-0.179742
O40	O	-0.341856	-1.466076	-0.651826
O41	O	-0.008523	-1.132742	-0.318492
O42	O	0.324811	-0.799409	0.014841
O43	O	-0.264510	-1.808210	-0.846465
O44	O	0.068823	-1.474877	-0.513132
O45	O	0.402157	-1.141543	-0.179799
O46	O	-0.443958	-1.807901	-0.504376
O47	O	-0.110625	-1.474568	-0.171043
O48	O	0.222708	-1.141234	0.162291
O49	O	-0.443917	-1.660524	-0.651784
O50	O	-0.110584	-1.327191	-0.318451
O51	O	0.222750	-0.993857	0.014883
C52	C	-0.303209	-1.422551	-0.578134
C53	C	0.030124	-1.089218	-0.244801
C54	C	0.363457	-0.755885	0.088532
C55	C	-0.303217	-1.289151	-0.578152
C56	C	0.030116	-0.955818	-0.244819
C57	C	0.363449	-0.622485	0.088515
C58	C	-0.466778	-1.734219	-0.578093
C59	C	-0.133445	-1.400885	-0.244760
C60	C	0.199889	-1.067552	0.088573
C61	C	-0.536746	-1.734261	-0.578105
C62	C	-0.203413	-1.400928	-0.244772
C63	C	0.129920	-1.067594	0.088562
C64	C	-0.569613	-1.811069	-0.501428
C65	C	-0.236280	-1.477735	-0.168095
C66	C	0.097053	-1.144402	0.165239
C67	C	-0.635356	-1.811125	-0.501455
C68	C	-0.302023	-1.477791	-0.168122
C69	C	0.031311	-1.144458	0.165212
C70	C	-0.668229	-1.734352	-0.578146
C71	C	-0.334895	-1.401019	-0.244813
C72	C	-0.001562	-1.067686	0.088520
C73	C	-0.635354	-1.657539	-0.654838
C74	C	-0.302020	-1.324206	-0.321505
C75	C	0.031313	-0.990873	0.011829
C76	C	-0.569612	-1.657494	-0.654817
C77	C	-0.236279	-1.324161	-0.321484
C78	C	0.097054	-0.990827	0.011849
N79	N	-0.771492	-1.629362	-0.587287
N80	N	-0.438159	-1.296029	-0.253954
N81	N	-0.104825	-0.962695	0.079379
N82	N	-0.833943	-1.629409	-0.587300
N83	N	-0.500610	-1.296075	-0.253967
N84	N	-0.167277	-0.962742	0.079367
C85	C	-0.866303	-1.734487	-0.578215
C86	C	-0.532970	-1.401153	-0.244882
C87	C	-0.199637	-1.067820	0.088452
N88	N	-0.833853	-1.839518	-0.569094
N89	N	-0.500519	-1.506185	-0.235760
N90	N	-0.167186	-1.172852	0.097573
N91	N	-0.771396	-1.839470	-0.569075
N92	N	-0.438062	-1.506137	-0.235741
N93	N	-0.104729	-1.172804	0.097592
C94	C	-0.739514	-1.734394	-0.578178
C95	C	-0.406181	-1.401060	-0.244844
C96	C	-0.072847	-1.067727	0.088489
C97	C	-0.970456	-1.811362	-0.501563
C98	C	-0.637123	-1.478028	-0.168230
C99	C	-0.303789	-1.144695	0.165103
C100	C	-1.036200	-1.811420	-0.501599
C101	C	-0.702866	-1.478086	-0.168266
C102	C	-0.369533	-1.144753	0.165068
C103	C	-1.036196	-1.657824	-0.654976
C104	C	-0.702863	-1.324490	-0.321642
C105	C	-0.369530	-0.991157	0.011691
C106	C	-0.970454	-1.657776	-0.654946
C107	C	-0.637120	-1.324443	-0.321613
C108	C	-0.303787	-0.991109	0.011720
C109	C	-0.937588	-1.734543	-0.578234
C110	C	-0.604254	-1.401210	-0.244901
C111	C	-0.270921	-1.067877	0.088433
C112	C	-0.139036	-1.734567	-0.578253
C113	C	0.194297	-1.401233	-0.244919
C114	C	0.527630	-1.067900	0.088414
C115	C	-0.069068	-1.734648	-0.578292
C116	C	0.264265	-1.401315	-0.244959
C117	C	0.597599	-1.067981	0.088374
C118	C	-0.303157	-1.734468	-0.891202
C119	C	0.030177	-1.401135	-0.557869
C120	C	0.363510	-1.067801	-0.224536
C121	C	-0.303127	-1.734507	-1.024602
C122	C	0.030207	-1.401174	-0.691269
C123	C	0.363540	-1.067841	-0.357936
C124	C	-0.303238	-1.047418	-0.578178
C125	C	0.030095	-0.714085	-0.244845
C126	C	0.363429	-0.380752	0.088489
C127	C	-0.303227	-1.180818	-0.578165
C128	C	0.030106	-0.847485	-0.244832
C129	C	0.363439	-0.514152	0.088501
C130	C	-0.303251	-1.734353	-0.266335
C131	C	0.030083	-1.401020	0.066998
C132	C	0.363416	-1.067687	0.400332
C133	C	-0.303103	-1.734547	-0.132936
C134	C	0.030230	-1.401213	0.200398
C135	C	0.363563	-1.067880	0.533731
H136	H	-0.662122	-1.873675	-0.439016
H137	H	-0.328788	-1.540341	-0.105683
H138	H	0.004545	-1.207008	0.227651
H139	H	-0.542856	-1.873580	-0.438967
H140	H	-0.209522	-1.540246	-0.105634
H141	H	0.123811	-1.206913	0.227699
H142	H	-0.662123	-1.595033	-0.717283
H143	H	-0.328789	-1.261699	-0.383949
H144	H	0.004544	-0.928366	-0.050616
C145	C	-1.110054	-1.641121	-0.816422
C146	C	-0.776721	-1.307788	-0.483088
C147	C	-0.443388	-0.974454	-0.149755
C148	C	-1.072322	-1.573436	-0.739282
C149	C	-0.738989	-1.240103	-0.405948
C150	C	-0.405656	-0.906769	-0.072615
H151	H	-1.132361	-1.589022	-0.868468
H152	H	-0.799028	-1.255689	-0.535134
H153	H	-0.465694	-0.922356	-0.201801
H154	H	-1.084360	-1.693359	-0.862361
H155	H	-0.751027	-1.360026	-0.529028
H156	H	-0.417694	-1.026692	-0.195695
H157	H	-1.139038	-1.686871	-0.770748
H158	H	-0.805705	-1.353537	-0.437414
H159	H	-0.472372	-1.020204	-0.104081
H160	H	-1.043335	-1.527693	-0.784955
H161	H	-0.710002	-1.194360	-0.451622
H162	H	-0.376668	-0.861026	-0.118289
H163	H	-1.098018	-1.521177	-0.693337
H164	H	-0.764685	-1.187844	-0.360004
H165	H	-0.431352	-0.854511	-0.026671
C166	C	-1.110278	-1.828374	-0.340320
C167	C	-0.776945	-1.495040	-0.006987
C168	C	-0.443611	-1.161707	0.326346
C169	C	-1.072366	-1.895919	-0.417430
C170	C	-0.739033	-1.562586	-0.084097
C171	C	-0.405699	-1.229252	0.249237
H172	H	-1.132618	-1.880563	-0.288399
H173	H	-0.799285	-1.547229	0.044935
H174	H	-0.465952	-1.213896	0.378268
H175	H	-1.084702	-1.776155	-0.294247
H176	H	-0.751369	-1.442821	0.039087
H177	H	-0.418035	-1.109488	0.372420
H178	H	-1.139232	-1.782610	-0.386024
H179	H	-0.805899	-1.449277	-0.052691
H180	H	-0.472566	-1.115944	0.280642
H181	H	-1.043409	-1.941676	-0.371726
H182	H	-0.710075	-1.608342	-0.038393
H183	H	-0.376742	-1.275009	0.294941
H184	H	-1.097944	-1.948159	-0.463508
H185	H	-0.764611	-1.614826	-0.130175
H186	H	-0.431278	-1.281492	0.203159
H187	H	-0.542851	-1.594947	-0.717258
H188	H	-0.209518	-1.261614	-0.383925
H189	H	0.123815	-0.928280	-0.050592
H190	H	-0.943691	-1.595227	-0.717379
H191	H	-0.610358	-1.261894	-0.384046
H192	H	-0.277025	-0.928561	-0.050712
H193	H	-0.943695	-1.873874	-0.439103
H194	H	-0.610362	-1.540541	-0.105770
H195	H	-0.277029	-1.207207	0.227564
