data_functionalizedCrystal
_audit_creation_method	'MofGen! by Chris Wilmer'
_symmetry_space_group_name_H-M	'P1'
_symmetry_Int_Tables_number	1
_symmetry_cell_setting	triclinic
loop_
_symmetry_equiv_pos_as_xyz
  x,y,z
_cell_length_a	27.731993
_cell_length_b	27.732048
_cell_length_c	22.610064
_cell_angle_alpha	89.999096
_cell_angle_beta	90.003380
_cell_angle_gamma	82.631525
loop_
_atom_site_label
_atom_site_type_symbol
_atom_site_fract_x
_atom_site_fract_y
_atom_site_fract_z
O1	O	0.640948	0.057385	-0.049032
O2	O	0.500151	0.066158	-0.049069
O3	O	0.574922	-0.008626	-0.049038
O4	O	0.566176	0.132169	-0.049063
O5	O	0.574909	-0.008615	0.049331
O6	O	0.500137	0.066169	0.049300
O7	O	0.640935	0.057396	0.049337
Zn8	Zn	0.570534	0.061784	0.064937
Zn9	Zn	0.570551	0.061770	-0.064668
O10	O	0.566163	0.132180	0.049307
C11	C	0.482137	0.065983	0.000111
C12	C	0.428480	0.065441	0.000098
C13	C	0.045327	0.061504	-0.053494
C14	C	0.246985	0.063571	-0.053510
O15	O	0.273064	0.063814	-0.099114
N16	N	0.272198	0.063836	0.000109
C17	C	0.246994	0.063581	0.053737
O18	O	0.273067	0.063848	0.099344
C19	C	0.045338	0.061510	0.053753
C20	C	0.020127	0.061251	0.000130
C21	C	0.020116	0.061244	-0.107113
C22	C	-0.030295	0.060730	-0.107108
C23	C	-0.055496	0.060476	-0.053485
C24	C	-0.030285	0.060736	0.000134
C25	C	0.020135	0.061251	0.107380
C26	C	-0.030282	0.060732	0.107379
C27	C	-0.055493	0.060473	0.053756
C28	C	-0.105897	0.059968	0.053762
N29	N	-0.131110	0.059704	0.000143
C30	C	-0.105910	0.059958	-0.053481
C31	C	0.352866	0.064669	0.053725
C32	C	0.403280	0.065187	0.053721
C33	C	0.403267	0.065177	-0.053526
C34	C	0.352852	0.064662	-0.053522
C35	C	0.327653	0.064404	0.000105
C36	C	-0.211778	0.058879	-0.053467
C37	C	-0.262194	0.058367	-0.053458
C38	C	-0.262177	0.058374	0.053790
C39	C	-0.211765	0.058889	0.053781
C40	C	-0.186567	0.059139	0.000147
O41	O	-0.132007	0.059720	0.099342
O42	O	-0.131990	0.059679	-0.099081
C43	C	0.095739	0.062019	-0.053499
C44	C	0.120950	0.062279	0.000120
C45	C	0.095750	0.062025	0.053744
C46	C	0.171364	0.062797	0.000117
C47	C	0.196564	0.063051	-0.053507
C48	C	0.171351	0.062786	-0.107127
C49	C	0.120940	0.062272	-0.107122
C50	C	0.120963	0.062289	0.107364
C51	C	0.171374	0.062804	0.107355
C52	C	0.196575	0.063058	0.053731
C53	C	0.574732	-0.026628	0.000148
C54	C	0.574179	-0.080282	0.000153
C55	C	0.614884	-0.419105	0.000133
C56	C	0.612833	-0.620765	0.000125
O57	O	0.650055	-0.652028	0.000109
N58	N	0.568497	-0.639880	0.000114
C59	C	0.524670	-0.608576	0.000101
O60	O	0.486912	-0.629462	0.000085
C61	C	0.526721	-0.406918	0.000105
C62	C	0.571061	-0.387806	0.000122
C63	C	0.659220	-0.399993	0.000150
C64	C	0.659732	-0.349581	0.000155
C65	C	0.615909	-0.318282	0.000144
C66	C	0.571573	-0.337394	0.000128
C67	C	0.482895	-0.375616	0.000088
C68	C	0.483412	-0.325199	0.000088
C69	C	0.527751	-0.306087	0.000105
C70	C	0.528262	-0.255683	0.000122
N71	N	0.572598	-0.236568	0.000133
C72	C	0.616422	-0.267867	0.000144
C73	C	0.523596	-0.714450	0.000100
C74	C	0.523083	-0.764865	0.000099
C75	C	0.611246	-0.777049	0.000122
C76	C	0.611759	-0.726634	0.000127
C77	C	0.567932	-0.695335	0.000111
C78	C	0.617494	-0.161998	0.000156
C79	C	0.618003	-0.111582	0.000164
C80	C	0.529839	-0.099401	0.000138
C81	C	0.529331	-0.149814	0.000133
C82	C	0.573162	-0.181112	0.000140
O83	O	0.491060	-0.224392	0.000132
O84	O	0.654174	-0.246972	0.000147
C85	C	0.614372	-0.469517	0.000128
C86	C	0.570036	-0.488630	0.000112
C87	C	0.526213	-0.457331	0.000101
C88	C	0.569523	-0.539044	0.000111
C89	C	0.613346	-0.570343	0.000122
C90	C	0.657683	-0.551228	0.000134
C91	C	0.658195	-0.500817	0.000139
C92	C	0.481876	-0.476446	0.000089
C93	C	0.481368	-0.526858	0.000085
C94	C	0.525191	-0.558157	0.000096
C95	C	0.658949	0.057570	0.000156
C96	C	0.712605	0.058113	0.000166
C97	C	0.566353	0.150181	0.000119
C98	C	0.566906	0.203836	0.000110
N99	N	0.570526	0.061794	0.153390
N100	N	0.570564	0.061756	-0.153121
C101	C	0.603662	0.028660	0.562045
C102	C	0.603664	0.028657	0.623965
O103	O	0.631817	0.000493	0.655995
N104	N	0.570551	0.061760	0.654927
C105	C	0.537430	0.094865	0.623966
O106	O	0.509265	0.123021	0.655987
C107	C	0.537426	0.094866	0.562047
C108	C	0.570544	0.061764	0.531088
C109	C	0.636777	-0.004439	0.531086
C110	C	0.636775	-0.004435	0.469170
C111	C	0.603658	0.028669	0.438213
C112	C	0.570542	0.061768	0.469172
C113	C	0.504303	0.127968	0.531087
C114	C	0.504301	0.127966	0.469164
C115	C	0.537419	0.094864	0.438205
C116	C	0.537423	0.094876	0.376300
N117	N	0.570536	0.061773	0.345338
C118	C	0.603653	0.028670	0.376295
C119	C	0.537441	0.094860	0.753999
C120	C	0.537448	0.094862	0.815917
C121	C	0.603681	0.028653	0.815912
C122	C	0.603677	0.028654	0.753993
C123	C	0.570554	0.061757	0.723037
C124	C	0.603647	0.028681	0.246267
C125	C	0.603643	0.028690	0.184346
C126	C	0.537408	0.094897	0.184357
C127	C	0.537413	0.094890	0.246273
C128	C	0.570534	0.061778	0.277226
O129	O	0.509283	0.123024	0.344230
O130	O	0.631810	0.000514	0.344266
H131	H	0.332329	0.064451	-0.097187
H132	H	0.630647	0.001697	0.841128
H133	H	0.510445	0.121851	0.159143
O134	O	0.701762	-0.430442	0.000240
C135	C	0.704105	-0.459959	0.051196
H136	H	0.665754	-0.462228	0.068168
H137	H	0.722410	-0.497987	0.039745
H138	H	0.726045	-0.443530	0.086877
H139	H	0.477327	0.154922	0.443963
H140	H	0.510450	0.121849	0.271480
O141	O	0.505233	0.127039	0.845895
C142	C	0.476013	0.156264	0.805287
H143	H	0.475619	0.136448	0.761149
H144	H	0.437354	0.163912	0.823171
H145	H	0.491439	0.192063	0.798703
H146	H	0.445259	-0.542414	0.000076
O147	O	0.439260	-0.446114	0.000108
C148	C	0.400022	-0.473802	0.000082
H149	H	0.412585	-0.511527	0.018702
H150	H	0.369337	-0.454982	0.028639
H151	H	0.386417	-0.477287	-0.047113
H152	H	0.694301	-0.485261	0.000153
O153	O	0.505335	0.127045	0.723867
C154	C	0.530996	0.156695	0.688064
H155	H	0.568962	0.137172	0.678780
H156	H	0.510757	0.164493	0.644527
H157	H	0.534018	0.192394	0.711934
H158	H	0.647864	-0.711077	0.000140
H159	H	0.663742	-0.031391	0.443967
H160	H	0.332354	0.064457	0.097397
O161	O	-0.286606	0.058093	-0.105603
C162	C	-0.253550	0.058438	-0.152931
H163	H	-0.215496	0.043496	-0.137209
H164	H	-0.264872	0.034809	-0.190431
H165	H	-0.253553	0.097286	-0.169425
H166	H	0.040654	0.061461	0.151046
O167	O	0.427776	0.065530	0.105795
C168	C	0.451155	0.107703	0.108996
H169	H	0.431914	0.136819	0.078564
H170	H	0.449783	0.121768	0.156422
H171	H	0.490673	0.098625	0.094593
H172	H	0.100417	0.062061	-0.150788
H173	H	0.654110	-0.096024	0.000180
O174	O	-0.187260	0.059191	-0.105527
C175	C	-0.163903	0.101376	-0.108752
H176	H	-0.158271	0.115416	-0.062198
H177	H	-0.127154	0.092320	-0.131457
H178	H	-0.187394	0.130503	-0.135210
O179	O	0.635833	-0.003515	0.154365
C180	C	0.665070	-0.032726	0.194971
H181	H	0.645255	-0.033132	0.239107
H182	H	0.672734	-0.071382	0.177081
H183	H	0.700860	-0.017284	0.201560
H184	H	0.663745	-0.031398	0.556285
O185	O	0.195881	0.063098	-0.159180
C186	C	0.219242	0.105282	-0.162400
H187	H	0.224860	0.119327	-0.115845
H188	H	0.255997	0.096222	-0.185088
H189	H	0.195759	0.134407	-0.188871
H190	H	0.423794	0.065385	-0.097189
H191	H	0.477335	0.154922	0.556285
O192	O	0.635864	-0.003550	0.724013
C193	C	0.665102	-0.032756	0.764622
H194	H	0.645289	-0.033159	0.808760
H195	H	0.672767	-0.071415	0.746738
H196	H	0.700892	-0.017313	0.771206
H197	H	-0.050818	0.060517	-0.150774
H198	H	0.447722	-0.299717	0.000074
H199	H	0.487905	-0.688970	0.000087
O200	O	0.479999	-0.783404	-0.000016
C201	C	0.453313	-0.767363	-0.050963
H202	H	0.479253	-0.757073	-0.086563
H203	H	0.432979	-0.797750	-0.068071
H204	H	0.426127	-0.734297	-0.039452
H205	H	0.040629	0.061449	-0.150782
O206	O	0.635841	-0.003416	0.276394
C207	C	0.665480	0.022256	0.312200
H208	H	0.645943	0.060216	0.321488
H209	H	0.673288	0.002017	0.355735
H210	H	0.701176	0.025294	0.288331
H211	H	-0.191239	0.059110	0.097445
O212	O	-0.054697	0.060419	0.159512
C213	C	-0.036590	0.018659	0.192129
H214	H	0.001942	0.005070	0.176876
H215	H	-0.036160	0.028098	0.241183
H216	H	-0.060910	-0.010957	0.184703
O217	O	-0.286601	0.058062	0.105914
C218	C	-0.268497	0.016301	0.138531
H219	H	-0.229961	0.002715	0.123288
H220	H	-0.268077	0.025737	0.187587
H221	H	-0.292813	-0.013317	0.131094
O222	O	0.195790	0.063035	0.159502
C223	C	0.162728	0.062711	0.206828
H224	H	0.128907	0.047038	0.191105
H225	H	0.180540	0.039381	0.244333
H226	H	0.152005	0.101452	0.223314
H227	H	0.653186	-0.187476	0.000160
H228	H	0.695838	-0.334025	0.000167
O229	O	0.096423	0.062106	0.159417
C230	C	0.061479	0.103695	0.162633
H231	H	0.051987	0.117577	0.116075
H232	H	0.027334	0.093915	0.185336
H233	H	0.076857	0.133222	0.189087
H234	H	0.646929	-0.802542	0.000131
H235	H	0.446789	-0.391168	0.000071
O236	O	0.486249	-0.168361	0.000015
C237	C	0.459562	-0.152317	-0.050930
H238	H	0.485501	-0.142018	-0.086526
H239	H	0.439233	-0.182705	-0.068046
H240	H	0.432371	-0.119256	-0.039414
O241	O	0.487285	-0.068972	0.000021
C242	C	0.484966	-0.039438	-0.050918
H243	H	0.509832	-0.058093	-0.086517
H244	H	0.445989	-0.033470	-0.068036
H245	H	0.497201	-0.002870	-0.039394
O246	O	0.700241	-0.581657	0.000038
C247	C	0.702576	-0.611188	-0.050904
H248	H	0.677721	-0.592530	-0.086515
H249	H	0.741558	-0.617154	-0.067997
H250	H	0.690337	-0.647757	-0.039392
