data_functionalizedCrystal
_audit_creation_method	'MofGen! by Chris Wilmer'
_symmetry_space_group_name_H-M	'P1'
_symmetry_Int_Tables_number	1
_symmetry_cell_setting	triclinic
loop_
_symmetry_equiv_pos_as_xyz
  x,y,z
_cell_length_a	10.967819
_cell_length_b	11.026607
_cell_length_c	16.776229
_cell_angle_alpha	89.996140
_cell_angle_beta	77.863565
_cell_angle_gamma	96.381100
loop_
_atom_site_label
_atom_site_type_symbol
_atom_site_fract_x
_atom_site_fract_y
_atom_site_fract_z
O1	O	1.694057	0.170567	-0.298998
O2	O	1.334416	0.186880	-0.249596
O3	O	1.484430	0.001822	-0.270200
O4	O	1.544043	0.355625	-0.278394
O5	O	1.484402	0.001810	-0.137619
O6	O	1.334388	0.186868	-0.117015
O7	O	1.694029	0.170555	-0.166418
Zn8	Zn	1.514204	0.178710	-0.120667
Zn9	Zn	1.514241	0.178725	-0.295347
O10	O	1.544015	0.355614	-0.145814
C11	C	1.287644	0.185685	-0.176883
C12	C	1.148318	0.182128	-0.157744
C13	C	0.942224	0.176884	-0.198127
C14	C	1.086224	0.180552	-0.217903
C15	C	1.473418	-0.043487	-0.202400
C16	C	1.440634	-0.178475	-0.197899
C17	C	1.531157	-0.251525	-0.210335
C18	C	1.497275	-0.391042	-0.205684
C19	C	1.740801	0.171750	-0.239133
C20	C	1.880127	0.175308	-0.258277
C21	C	1.555027	0.400922	-0.213616
C22	C	1.587811	0.535910	-0.218122
N23	N	1.514188	0.178699	-0.001453
N24	N	1.514265	0.178727	-0.414562
C25	C	1.580648	0.096789	0.031136
C26	C	1.580654	0.096788	0.114587
C27	C	1.514208	0.178704	0.165447
C28	C	1.447740	0.260617	0.132853
C29	C	1.447726	0.260611	0.049404
C30	C	1.447790	0.260642	0.469393
C31	C	1.447812	0.260644	0.552847
C32	C	1.580718	0.096818	0.534576
C33	C	1.580705	0.096812	0.451127
C34	C	1.514232	0.178721	0.418542
C35	C	1.514224	0.178720	0.328054
C36	C	1.514223	0.178712	0.255932
H37	H	1.094881	0.180769	-0.091602
H38	H	0.933572	0.176681	-0.324414
H39	H	1.633741	-0.210777	-0.224422
H40	H	1.394684	-0.431784	-0.191597
H41	H	1.139664	0.181925	-0.284044
H42	H	0.888781	0.175524	-0.131990
H43	H	1.393606	0.327309	0.022872
F44	F	1.651431	0.009632	0.397001
H45	H	1.690402	-0.423349	-0.232274
H46	H	1.338050	-0.219223	-0.183813
H47	H	1.393630	0.327310	0.174269
H48	H	1.634762	0.030089	-0.010271
F49	F	1.651386	0.009610	0.149271
F50	F	1.377050	0.347817	0.434719
F51	F	1.651461	0.009639	0.569263
H52	H	1.393699	0.327351	0.594257
