data_functionalizedCrystal
_audit_creation_method	'MofGen! by Chris Wilmer'
_symmetry_space_group_name_H-M	'P1'
_symmetry_Int_Tables_number	1
_symmetry_cell_setting	triclinic
loop_
_symmetry_equiv_pos_as_xyz
  x,y,z
_cell_length_a	6.817900
_cell_length_b	23.752963
_cell_length_c	23.753023
_cell_angle_alpha	97.113271
_cell_angle_beta	100.067528
_cell_angle_gamma	100.066732
loop_
_atom_site_label
_atom_site_type_symbol
_atom_site_fract_x
_atom_site_fract_y
_atom_site_fract_z
V1	V	-3.971794	-0.079886	-0.178727
V2	V	-3.471794	0.420114	0.321273
O3	O	-3.977677	0.003095	-0.174979
O4	O	-3.477677	0.503095	0.325021
O5	O	-3.907026	-0.157686	-0.177837
O6	O	-3.407026	0.342314	0.322163
O7	O	-3.907021	-0.078983	-0.256524
O8	O	-3.407021	0.421017	0.243476
O9	O	-3.977682	-0.076152	-0.095747
O10	O	-3.477682	0.423848	0.404253
V11	V	-4.459665	-0.069922	-0.168762
V12	V	-3.959665	0.430078	0.331238
O13	O	-4.223516	-0.101743	-0.200587
O14	O	-3.723516	0.398257	0.299413
O15	O	-4.658140	-0.048065	-0.146902
O16	O	-4.158140	0.451935	0.353098
O17	O	-4.301226	0.007878	-0.169652
O18	O	-3.801226	0.507878	0.330348
O19	O	-4.571179	-0.152903	-0.172509
O20	O	-4.071179	0.347097	0.327491
O21	O	-4.571174	-0.073656	-0.251741
O22	O	-4.071174	0.426344	0.248259
O23	O	-4.301231	-0.070825	-0.090964
O24	O	-3.801231	0.429175	0.409036
C25	C	-3.748575	-0.176641	-0.175103
C26	C	-3.248575	0.323359	0.324897
C27	C	-3.776798	-0.240246	-0.174894
C28	C	-3.276798	0.259754	0.325106
C29	C	-3.924670	-0.626269	-0.121105
C30	C	-3.424670	-0.126269	0.378895
C31	C	-3.951214	-0.686031	-0.120900
C32	C	-3.451214	-0.186031	0.379100
O33	O	-3.941785	-0.709812	-0.076207
O34	O	-3.441785	-0.209812	0.423793
N35	N	-3.991787	-0.724303	-0.173229
N36	N	-3.491787	-0.224303	0.326771
C37	C	-4.005838	-0.702811	-0.225766
C38	C	-3.505838	-0.202811	0.274234
O39	O	-4.042788	-0.740852	-0.270258
O40	O	-3.542788	-0.240852	0.229742
C41	C	-3.979309	-0.643050	-0.225971
C42	C	-3.479309	-0.143050	0.274029
C43	C	-3.938715	-0.604780	-0.173638
C44	C	-3.438715	-0.104780	0.326362
C45	C	-3.884081	-0.588000	-0.068776
C46	C	-3.384081	-0.088000	0.431224
C47	C	-3.857536	-0.528242	-0.068981
C48	C	-3.357536	-0.028242	0.431019
C49	C	-3.871581	-0.506753	-0.121514
C50	C	-3.371581	-0.006753	0.378486
C51	C	-3.912170	-0.545022	-0.173842
C52	C	-3.412170	-0.045022	0.326158
C53	C	-3.993374	-0.621559	-0.278507
C54	C	-3.493374	-0.121559	0.221493
C55	C	-3.966843	-0.561794	-0.278707
C56	C	-3.466843	-0.061794	0.221293
C57	C	-3.926249	-0.523524	-0.226374
C58	C	-3.426249	-0.023524	0.273626
C59	C	-3.899670	-0.463776	-0.226580
C60	C	-3.399670	0.036224	0.273420
N61	N	-3.859097	-0.425504	-0.174251
N62	N	-3.359097	0.074496	0.325749
C63	C	-3.845052	-0.446992	-0.121718
C64	C	-3.345052	0.053008	0.378282
C65	C	-4.061551	-0.828312	-0.225334
C66	C	-3.561551	-0.328312	0.274666
C67	C	-4.088066	-0.888072	-0.225130
C68	C	-3.588066	-0.388072	0.274870
C69	C	-4.033443	-0.871288	-0.120264
C70	C	-3.533443	-0.371288	0.379736
C71	C	-4.006914	-0.811527	-0.120468
C72	C	-3.506914	-0.311527	0.379532
C73	C	-4.020978	-0.790040	-0.173005
C74	C	-3.520978	-0.290040	0.326995
C75	C	-3.789306	-0.321497	-0.122152
C76	C	-3.289306	0.178503	0.377848
C77	C	-3.762753	-0.261734	-0.122361
C78	C	-3.262753	0.238266	0.377639
C79	C	-3.817388	-0.278524	-0.227227
C80	C	-3.317388	0.221476	0.272773
C81	C	-3.843929	-0.338281	-0.227018
C82	C	-3.343929	0.161719	0.272982
C83	C	-3.829891	-0.359765	-0.174476
C84	C	-3.329891	0.140235	0.325524
O85	O	-3.909078	-0.439953	-0.271251
O86	O	-3.409078	0.060047	0.228749
O87	O	-3.808129	-0.408946	-0.077235
O88	O	-3.308129	0.091054	0.422765
C89	C	-3.748568	-0.076248	-0.275476
C90	C	-3.248568	0.423752	0.224524
C91	C	-3.776784	-0.076025	-0.339078
C92	C	-3.276784	0.423975	0.160922
C93	C	-3.979301	-0.127140	-0.741885
C94	C	-3.479301	0.372860	-0.241885
C95	C	-4.005846	-0.126939	-0.801648
C96	C	-3.505846	0.373061	-0.301648
O97	O	-4.042870	-0.171425	-0.839697
O98	O	-3.542870	0.328575	-0.339697
N99	N	-3.991799	-0.074407	-0.823143
N100	N	-3.491799	0.425593	-0.323143
C101	C	-3.951223	-0.022073	-0.784872
C102	C	-3.451223	0.477927	-0.284872
O103	O	-3.941714	0.022628	-0.808643
O104	O	-3.441714	0.522628	-0.308643
C105	C	-3.924693	-0.022274	-0.725111
C106	C	-3.424693	0.477726	-0.225111
C107	C	-3.938724	-0.074810	-0.703619
C108	C	-3.438724	0.425190	-0.203619
C109	C	-3.993332	-0.179671	-0.720393
C110	C	-3.493332	0.320329	-0.220393
C111	C	-3.966785	-0.179871	-0.660634
C112	C	-3.466785	0.320129	-0.160634
C113	C	-3.926207	-0.127541	-0.622368
C114	C	-3.426207	0.372459	-0.122368
C115	C	-3.912177	-0.075010	-0.643861
C116	C	-3.412177	0.424990	-0.143861
C117	C	-3.884133	0.030059	-0.686842
C118	C	-3.384133	0.530059	-0.186842
C119	C	-3.857605	0.029853	-0.627077
C120	C	-3.357605	0.529853	-0.127077
C121	C	-3.871635	-0.022682	-0.605585
C122	C	-3.371635	0.477318	-0.105585
C123	C	-3.845052	-0.022880	-0.545836
C124	C	-3.345052	0.477120	-0.045836
N125	N	-3.859099	-0.075412	-0.524341
N126	N	-3.359099	0.424588	-0.024341
C127	C	-3.899677	-0.127743	-0.562607
C128	C	-3.399677	0.372257	-0.062607
C129	C	-4.006944	-0.021654	-0.910376
C130	C	-3.506944	0.478346	-0.410376
C131	C	-4.033459	-0.021451	-0.970135
C132	C	-3.533459	0.478549	-0.470135
C133	C	-4.088084	-0.126318	-0.986907
C134	C	-3.588084	0.373682	-0.486907
C135	C	-4.061554	-0.126519	-0.927146
C136	C	-3.561554	0.373481	-0.427146
C137	C	-4.020991	-0.074186	-0.888880
C138	C	-3.520991	0.425814	-0.388880
C139	C	-3.843922	-0.128160	-0.437109
C140	C	-3.343922	0.371840	0.062891
C141	C	-3.817362	-0.128355	-0.377344
C142	C	-3.317362	0.371645	0.122656
C143	C	-3.762750	-0.023489	-0.360578
C144	C	-3.262750	0.476511	0.139422
C145	C	-3.789297	-0.023293	-0.420337
C146	C	-3.289297	0.476707	0.079663
C147	C	-3.829892	-0.075633	-0.458602
C148	C	-3.329892	0.424367	0.041398
O149	O	-3.808031	0.021583	-0.507753
O150	O	-3.308031	0.521583	-0.007753
O151	O	-3.909205	-0.172437	-0.538828
O152	O	-3.409205	0.327563	-0.038828
C153	C	-4.123019	0.026830	-0.172384
C154	C	-3.623019	0.526830	0.327616
C155	C	-4.074034	0.090434	-0.172597
C156	C	-3.574034	0.590434	0.327403
C157	C	-4.123026	-0.073562	-0.072009
C158	C	-3.623026	0.426438	0.427991
C159	C	-4.074049	-0.073782	-0.008407
C160	C	-3.574049	0.426218	0.491593
H161	H	-3.973859	-0.780371	-0.077854
H162	H	-3.473859	-0.280371	0.422146
H163	H	-3.824497	-0.497088	-0.026366
H164	H	-3.324497	0.002912	0.473634
O165	O	-4.018303	-0.894475	-0.063602
O166	O	-3.518303	-0.394475	0.436398
H167	H	-3.985610	-0.857827	-0.027244
H168	H	-3.485610	-0.357827	0.472756
H169	H	-4.026428	-0.652709	-0.321123
H170	H	-3.526428	-0.152709	0.178877
H171	H	-3.876973	-0.170780	-0.468258
H172	H	-3.376973	0.329220	0.031742
H173	H	-4.022004	0.021329	-0.987628
H174	H	-3.522004	0.521329	-0.487628
H175	H	-3.729702	0.019117	-0.329411
H176	H	-3.229702	0.519117	0.170589
H177	H	-4.072980	-0.169298	-0.909652
H178	H	-3.572980	0.330702	-0.409652
O179	O	-3.868902	-0.611172	-0.012110
O180	O	-3.368902	-0.111172	0.487890
H181	H	-3.836201	-0.574513	0.024237
H182	H	-3.336201	-0.074513	0.524237
O183	O	-3.963145	0.034796	-0.869103
O184	O	-3.463145	0.534796	-0.369103
H185	H	-3.957816	0.071355	-0.894094
H186	H	-3.457816	0.571355	-0.394094
O187	O	-3.981945	-0.236536	-0.637460
O188	O	-3.481945	0.263464	-0.137460
H189	H	-3.835912	-0.237001	-0.608455
H190	H	-3.335912	0.262999	-0.108455
H191	H	-4.121086	-0.919226	-0.267744
H192	H	-3.621086	-0.419226	0.232256
O193	O	-3.718951	-0.220456	-0.065914
O194	O	-3.218951	0.279544	0.434086
H195	H	-3.713660	-0.245443	-0.029352
H196	H	-3.213660	0.254557	0.470648
O197	O	-4.037044	-0.236117	-0.761661
O198	O	-3.537044	0.263883	-0.261661
H199	H	-4.042307	-0.272672	-0.736665
H200	H	-3.542307	0.227328	-0.236665
O201	O	-3.982057	-0.538582	-0.335355
O202	O	-3.482057	-0.038582	0.164645
H203	H	-3.865021	-0.551865	-0.358340
H204	H	-3.365021	-0.051865	0.141660
H205	H	-3.777872	-0.338982	-0.079367
H206	H	-3.277872	0.161018	0.420633
H207	H	-4.121129	-0.168928	-1.018074
H208	H	-3.621129	0.331072	-0.518074
H209	H	-4.072999	-0.810823	-0.268118
H210	H	-3.572999	-0.310823	0.231882
H211	H	-3.876950	-0.369442	-0.269631
H212	H	-3.376950	0.130558	0.230369
O213	O	-3.832956	-0.255348	-0.283894
O214	O	-3.332956	0.244652	0.216106
H215	H	-3.807851	-0.207366	-0.275241
H216	H	-3.307851	0.292634	0.224759
H217	H	-3.828785	-0.171138	-0.359849
H218	H	-3.328785	0.328862	0.140151
H219	H	-3.872687	0.072839	-0.704329
H220	H	-3.372687	0.572839	-0.204329
H221	H	-3.824580	0.072471	-0.595924
H222	H	-3.324580	0.572471	-0.095924
O223	O	-3.774162	0.033368	-0.443524
O224	O	-3.274162	0.533368	0.056476
H225	H	-3.741494	0.069722	-0.406873
H226	H	-3.241494	0.569722	0.093127
