data_functionalizedCrystal
_audit_creation_method	'MofGen! by Chris Wilmer'
_symmetry_space_group_name_H-M	'P1'
_symmetry_Int_Tables_number	1
_symmetry_cell_setting	triclinic
loop_
_symmetry_equiv_pos_as_xyz
  x,y,z
_cell_length_a	19.121215
_cell_length_b	21.295417
_cell_length_c	19.120904
_cell_angle_alpha	92.408338
_cell_angle_beta	89.873207
_cell_angle_gamma	92.463915
loop_
_atom_site_label
_atom_site_type_symbol
_atom_site_fract_x
_atom_site_fract_y
_atom_site_fract_z
Zn1	Zn	1.054846	-0.227295	-0.442216
Zn2	Zn	1.059756	-0.327893	-0.324970
Zn3	Zn	0.942613	-0.226920	-0.319981
Zn4	Zn	0.937563	-0.336810	-0.437151
O5	O	0.998694	-0.279729	-0.381080
O6	O	1.153605	-0.237065	-0.430871
O7	O	1.048384	-0.310610	-0.226204
O8	O	0.957559	-0.138879	-0.336227
O9	O	1.157212	-0.310974	-0.344731
O10	O	1.040017	-0.139154	-0.426033
O11	O	0.962320	-0.236425	-0.222539
O12	O	0.843835	-0.245071	-0.331316
O13	O	0.948953	-0.326171	-0.535927
O14	O	0.840125	-0.325807	-0.417401
O15	O	1.035121	-0.245711	-0.539648
O16	O	1.043488	-0.417167	-0.339819
O17	O	0.953714	-0.423717	-0.422238
C18	C	0.816542	-0.286367	-0.373268
C19	C	0.738615	-0.289222	-0.369943
C20	C	0.998604	-0.443283	-0.381037
C21	C	0.998629	-0.513250	-0.381045
C22	C	0.297972	-0.307299	-0.348906
C23	C	0.371192	-0.304612	-0.352025
C24	C	0.405923	-0.264857	-0.398506
C25	C	0.367431	-0.227781	-0.441866
C26	C	0.294212	-0.230465	-0.438743
C27	C	0.626903	-0.254830	-0.410180
C28	C	0.700128	-0.252150	-0.413301
C29	C	0.703884	-0.328981	-0.323459
C30	C	0.630664	-0.331664	-0.320343
C31	C	0.592177	-0.294586	-0.363700
C32	C	0.480766	-0.262112	-0.401697
C33	C	0.517336	-0.297328	-0.360505
C34	C	1.045412	-0.542685	-0.338177
C35	C	1.045444	-0.608427	-0.338194
C36	C	0.998681	-0.644732	-0.381071
C37	C	0.951894	-0.615289	-0.423948
C38	C	0.951868	-0.549548	-0.423934
N39	N	0.937122	-0.750450	-0.383785
N40	N	0.937149	-0.812900	-0.383794
C41	C	0.998758	-0.842805	-0.381115
N42	N	1.060340	-0.807900	-0.378413
N43	N	1.060313	-0.745443	-0.378401
C44	C	0.998704	-0.716017	-0.381091
C45	C	1.045580	-0.943525	-0.338263
C46	C	1.045613	-1.009268	-0.338285
C47	C	0.952057	-1.016129	-0.424035
C48	C	0.952030	-0.950387	-0.424017
C49	C	0.998790	-0.914089	-0.381127
C50	C	1.181558	-0.273066	-0.388922
C51	C	1.259484	-0.270227	-0.392264
C52	C	0.990926	-0.286977	-0.563936
C53	C	0.987616	-0.290066	-0.641858
C54	C	0.998803	-0.115537	-0.381139
C55	C	0.998850	-0.045568	-0.381164
C56	C	1.030921	-0.249627	-0.680405
C57	C	1.027802	-0.252527	-0.753621
C58	C	0.981381	-0.295869	-0.788289
C59	C	0.938071	-0.336309	-0.749737
C60	C	0.941187	-0.333406	-0.676522
C61	C	0.969725	-0.306729	-1.009254
C62	C	0.966614	-0.309630	-1.082474
C63	C	1.056344	-0.225847	-1.086352
C64	C	1.059459	-0.222950	-1.013136
C65	C	1.016147	-0.263388	-0.974590
C66	C	0.978193	-0.298836	-0.863128
C67	C	1.019331	-0.260418	-0.899753
C68	C	1.006473	-0.272463	-0.198936
C69	C	1.009919	-0.269192	-0.121020
H70	H	0.269699	-0.339675	-0.311059
N71	N	0.402916	-0.187170	-0.489336
N72	N	0.468290	-0.184779	-0.492120
H73	H	0.493352	-0.156097	-0.525647
N74	N	0.904115	-0.652361	-0.467742
N75	N	0.862342	-0.626068	-0.506012
H76	H	0.828596	-0.652249	-0.536945
H77	H	0.913771	-0.525582	-0.458843
H78	H	1.068724	-0.214335	-0.652183
N79	N	1.066738	-0.216137	-0.864343
N80	N	1.043833	-0.175303	-0.822445
H81	H	1.077315	-0.144030	-0.797431
H82	H	0.489055	-0.329695	-0.322658
N83	N	0.410508	-0.342490	-0.307748
N84	N	0.450310	-0.382114	-0.334074
H85	H	0.478078	-0.408866	-0.302801
N86	N	0.919189	-0.353895	-1.117898
N87	N	0.916418	-0.356480	-1.183269
H88	H	0.882927	-0.387740	-1.208289
N89	N	1.072048	-0.211232	-0.792997
N90	N	1.114967	-0.233376	-0.835763
H91	H	1.146218	-0.204210	-0.863574
H92	H	0.940400	-0.334128	-0.891363
N93	N	1.093347	-0.906452	-0.294451
N94	N	1.135120	-0.932745	-0.256182
H95	H	1.168856	-0.906564	-0.225238
N96	N	0.925480	-0.348038	-0.969897
N97	N	0.884039	-0.386734	-1.000862
H98	H	0.852788	-0.415912	-0.973065
H99	H	0.509053	-0.229744	-0.439544
N100	N	0.595200	-0.372281	-0.272864
N101	N	0.629573	-0.405381	-0.234156
H102	H	0.604527	-0.434071	-0.200626
N103	N	0.890651	-0.380574	-0.785158
N104	N	0.887874	-0.383162	-0.850528
H105	H	0.854384	-0.414425	-0.875545
N106	N	1.100576	-0.184528	-1.125715
N107	N	1.142015	-0.145829	-1.094752
H108	H	1.173254	-0.116642	-1.122550
H109	H	1.083489	-0.513133	-0.303255
N110	N	1.093395	-1.039335	-0.294483
N111	N	1.070674	-1.075186	-0.248743
H112	H	1.104421	-1.096421	-0.217805
H113	H	0.905916	-0.366329	-0.645138
N114	N	1.106888	-0.178679	-0.977737
N115	N	1.145553	-0.142578	-1.012162
H116	H	1.179054	-0.111313	-0.987162
N117	N	1.093234	-0.638494	-0.294394
N118	N	1.134977	-0.606077	-0.256103
H119	H	1.168727	-0.627309	-0.225166
N120	N	0.904297	-1.053214	-0.467834
N121	N	0.904327	-1.111910	-0.467843
H122	H	0.870597	-1.138106	-0.498779
H123	H	0.728403	-0.219773	-0.451150
N124	N	0.743208	-0.366850	-0.279179
N125	N	0.808581	-0.364451	-0.281972
H126	H	0.836355	-0.391196	-0.250696
N127	N	0.904230	-0.920314	-0.467792
N128	N	0.860610	-0.884326	-0.441168
H129	H	0.826851	-0.863086	-0.472087
H130	H	0.595576	-0.224641	-0.445488
H131	H	0.262876	-0.200275	-0.474047
