data_functionalizedCrystal
_audit_creation_method	'MofGen! by Chris Wilmer'
_symmetry_space_group_name_H-M	'P1'
_symmetry_Int_Tables_number	1
_symmetry_cell_setting	triclinic
loop_
_symmetry_equiv_pos_as_xyz
  x,y,z
_cell_length_a	16.959455
_cell_length_b	18.215404
_cell_length_c	18.215399
_cell_angle_alpha	90.026844
_cell_angle_beta	89.975385
_cell_angle_gamma	89.979762
loop_
_atom_site_label
_atom_site_type_symbol
_atom_site_fract_x
_atom_site_fract_y
_atom_site_fract_z
Zn1	Zn	1.208400	0.293050	-0.416215
Zn2	Zn	1.541733	0.626384	-0.082882
Zn3	Zn	1.875066	0.959717	0.250451
Zn4	Zn	1.208305	0.416122	-0.293151
Zn5	Zn	1.541638	0.749455	0.040182
Zn6	Zn	1.874972	1.082788	0.373515
Zn7	Zn	1.076218	0.293067	-0.293152
Zn8	Zn	1.409552	0.626400	0.040181
Zn9	Zn	1.742885	0.959734	0.373514
Zn10	Zn	1.076185	0.416073	-0.416166
Zn11	Zn	1.409519	0.749407	-0.082833
Zn12	Zn	1.742852	1.082740	0.250501
O13	O	1.142277	0.354578	-0.354671
O14	O	1.475610	0.687911	-0.021338
O15	O	1.808944	1.021245	0.311995
O16	O	1.318998	0.309389	-0.399911
O17	O	1.652331	0.642723	-0.066578
O18	O	1.985665	0.976056	0.266756
O19	O	1.190758	0.399825	-0.190167
O20	O	1.524091	0.733159	0.143166
O21	O	1.857424	1.066492	0.476499
O22	O	1.093806	0.190081	-0.309498
O23	O	1.427139	0.523414	0.023835
O24	O	1.760472	0.856747	0.357169
O25	O	1.318929	0.399809	-0.309496
O26	O	1.652262	0.733142	0.023837
O27	O	1.985595	1.066476	0.357170
O28	O	1.190919	0.190068	-0.399912
O29	O	1.524252	0.523402	-0.066579
O30	O	1.857585	0.856735	0.266755
O31	O	1.093714	0.309418	-0.190168
O32	O	1.427047	0.642751	0.143165
O33	O	1.760381	0.976084	0.476499
O34	O	0.965603	0.309371	-0.309450
O35	O	1.298936	0.642704	0.023883
O36	O	1.632270	0.976037	0.357216
O37	O	1.093750	0.399727	-0.519157
O38	O	1.427083	0.733060	-0.185824
O39	O	1.760416	1.066393	0.147510
O40	O	0.965579	0.399743	-0.399828
O41	O	1.298912	0.733076	-0.066495
O42	O	1.632246	1.066410	0.266839
O43	O	1.190887	0.309342	-0.519193
O44	O	1.524220	0.642676	-0.185860
O45	O	1.857554	0.976009	0.147473
O46	O	1.190726	0.519099	-0.309449
O47	O	1.524059	0.852433	0.023885
O48	O	1.857393	1.185766	0.357218
O49	O	1.093658	0.519064	-0.399827
O50	O	1.426991	0.852397	-0.066494
O51	O	1.760325	1.185731	0.266840
C52	C	0.936911	0.354554	-0.354634
C53	C	1.270244	0.687887	-0.021301
C54	C	1.603578	1.021221	0.312032
C55	C	0.849054	0.354561	-0.354636
C56	C	1.182388	0.687895	-0.021303
C57	C	1.515721	1.021228	0.312031
C58	C	0.477532	0.401613	-0.307569
C59	C	0.810865	0.734946	0.025765
C60	C	1.144199	1.068280	0.359098
C61	C	0.477626	0.307604	-0.401864
C62	C	0.810959	0.640937	-0.068530
C63	C	1.144292	0.974271	0.264803
C64	C	0.560171	0.307592	-0.401846
C65	C	0.893505	0.640925	-0.068513
C66	C	1.226838	0.974259	0.264821
C67	C	0.601401	0.354592	-0.354689
C68	C	0.934735	0.687925	-0.021356
C69	C	1.268068	1.021259	0.311977
C70	C	0.560085	0.401604	-0.307551
C71	C	0.893419	0.734937	0.025783
C72	C	1.226752	1.068271	0.359116
C73	C	0.601494	0.260586	-0.448989
C74	C	0.934827	0.593919	-0.115656
C75	C	1.268160	0.927253	0.217678
C76	C	0.684044	0.260573	-0.448974
C77	C	1.017378	0.593906	-0.115640
C78	C	1.350711	0.927239	0.217693
C79	C	0.725276	0.307569	-0.401813
C80	C	1.058609	0.640903	-0.068479
C81	C	1.391943	0.974236	0.264854
C82	C	0.683955	0.354583	-0.354672
C83	C	1.017288	0.687916	-0.021338
C84	C	1.350622	1.021249	0.311995
C85	C	0.725185	0.401583	-0.307515
C86	C	1.058518	0.734916	0.025818
C87	C	1.391851	1.068249	0.359152
C88	C	0.683865	0.448593	-0.260370
C89	C	1.017199	0.781926	0.072964
C90	C	1.350532	1.115259	0.406297
C91	C	0.601317	0.448601	-0.260390
C92	C	0.934650	0.781934	0.072943
C93	C	1.267983	1.115267	0.406277
C94	C	0.807824	0.307562	-0.401792
C95	C	1.141158	0.640895	-0.068459
C96	C	1.474491	0.974228	0.264874
C97	C	0.807738	0.401573	-0.307497
C98	C	1.141072	0.734907	0.025836
C99	C	1.474405	1.068240	0.359169
C100	C	1.142200	0.545784	-0.354648
C101	C	1.475533	0.879118	-0.021315
C102	C	1.808866	1.212451	0.312018
C103	C	1.142239	0.627583	-0.354663
C104	C	1.475572	0.960917	-0.021330
C105	C	1.808905	1.294250	0.312004
C106	C	1.192933	0.892635	-0.307714
C107	C	1.526266	1.225968	0.025619
C108	C	1.859600	1.559301	0.358952
C109	C	1.192900	0.815776	-0.307694
C110	C	1.526233	1.149109	0.025639
C111	C	1.859566	1.482443	0.358973
C112	C	1.091730	0.815780	-0.401723
C113	C	1.425064	1.149113	-0.068390
C114	C	1.758397	1.482447	0.264944
C115	C	1.091760	0.892637	-0.401739
C116	C	1.425094	1.225971	-0.068406
C117	C	1.758427	1.559304	0.264928
C118	C	1.142366	0.931063	-0.354736
C119	C	1.475700	1.264396	-0.021403
C120	C	1.809033	1.597729	0.311931
C121	C	1.142303	0.777347	-0.354700
C122	C	1.475636	1.110680	-0.021366
C123	C	1.808969	1.444013	0.311967
C124	C	1.142266	0.694013	-0.354678
C125	C	1.475599	1.027346	-0.021345
C126	C	1.808933	1.360680	0.311989
C127	C	1.142402	1.014402	-0.354756
C128	C	1.475735	1.347735	-0.021423
C129	C	1.809069	1.681068	0.311910
C130	C	1.348445	0.354603	-0.354709
C131	C	1.681779	0.687936	-0.021376
C132	C	2.015112	1.021269	0.311958
C133	C	1.436302	0.354613	-0.354725
C134	C	1.769635	0.687947	-0.021392
C135	C	2.102969	1.021280	0.311942
C136	C	1.142325	0.354527	-0.546624
C137	C	1.475659	0.687861	-0.213291
C138	C	1.808992	1.021194	0.120042
C139	C	1.142346	0.354506	-0.628423
C140	C	1.475679	0.687839	-0.295090
C141	C	1.809012	1.021172	0.038243
C142	C	1.142379	1.162625	-0.354722
C143	C	1.475713	1.495958	-0.021389
C144	C	1.809046	1.829292	0.311945
C145	C	1.142430	1.080826	-0.354772
C146	C	1.475763	1.414160	-0.021439
C147	C	1.809097	1.747493	0.311894
C148	C	1.192943	0.307398	-0.816637
C149	C	1.526277	0.640732	-0.483304
C150	C	1.859610	0.974065	-0.149971
C151	C	1.192953	0.307377	-0.893496
C152	C	1.526286	0.640710	-0.560163
C153	C	1.859619	0.974044	-0.226830
C154	C	1.091804	0.401499	-0.893447
C155	C	1.425138	0.734832	-0.560114
C156	C	1.758471	1.068166	-0.226781
C157	C	1.091791	0.401516	-0.816590
C158	C	1.425125	0.734850	-0.483256
C159	C	1.758458	1.068183	-0.149923
C160	C	1.142365	0.354467	-0.778187
C161	C	1.475699	0.687800	-0.444854
C162	C	1.809032	1.021134	-0.111520
C163	C	1.142388	0.354428	-0.931903
C164	C	1.475721	0.687762	-0.598570
C165	C	1.809054	1.021095	-0.265236
C166	C	1.142398	0.354406	-1.015237
C167	C	1.475731	0.687739	-0.681903
C168	C	1.809064	1.021072	-0.348570
C169	C	1.142355	0.354489	-0.694848
C170	C	1.475688	0.687822	-0.361515
C171	C	1.809021	1.021155	-0.028181
C172	C	1.142275	0.354575	-0.163465
C173	C	1.475608	0.687909	0.169868
C174	C	1.808941	1.021242	0.503202
C175	C	1.142407	0.354390	-0.081667
C176	C	1.475741	0.687723	0.251667
C177	C	1.809074	1.021056	0.585000
H178	H	0.841302	0.439845	-0.269094
H179	H	1.174635	0.773178	0.064240
H180	H	1.507969	1.106511	0.397573
H181	H	0.717445	0.486864	-0.221979
H182	H	1.050779	0.820197	0.111355
H183	H	1.384112	1.153531	0.444688
Br184	Br	1.261603	0.243501	-0.945676
Br185	Br	1.594936	0.576834	-0.612343
Br186	Br	1.928270	0.910167	-0.279010
Br187	Br	1.023138	0.465393	-0.764402
Br188	Br	1.356471	0.798726	-0.431069
Br189	Br	1.689804	1.132060	-0.097735
H190	H	0.841463	0.269288	-0.440179
H191	H	1.174796	0.602621	-0.106846
H192	H	1.508130	0.935955	0.226488
H193	H	1.234139	0.923918	-0.269441
H194	H	1.567472	1.257252	0.063892
H195	H	1.900806	1.590585	0.397226
H196	H	0.567667	0.486873	-0.222006
H197	H	0.901000	0.820207	0.111327
H198	H	1.234334	1.153540	0.444660
H199	H	1.050579	0.923926	-0.440031
H200	H	1.383913	1.257260	-0.106698
H201	H	1.717246	1.590593	0.226636
Br202	Br	1.023060	0.763627	-0.465516
Br203	Br	1.356394	1.096960	-0.132182
Br204	Br	1.689727	1.430293	0.201151
Br205	Br	1.261528	0.763626	-0.243875
Br206	Br	1.594861	1.096960	0.089458
Br207	Br	1.928194	1.430293	0.422792
Br208	Br	0.421671	0.243832	-0.465869
Br209	Br	0.755004	0.577165	-0.132536
Br210	Br	1.088337	0.910499	0.200798
H211	H	0.443886	0.439886	-0.269182
H212	H	0.777219	0.773219	0.064151
H213	H	1.110553	1.106552	0.397485
H214	H	0.567918	0.222326	-0.487386
H215	H	0.901251	0.555659	-0.154053
H216	H	1.234585	0.888993	0.179281
H217	H	1.234122	0.269086	-0.785372
H218	H	1.567455	0.602419	-0.452039
H219	H	1.900788	0.935753	-0.118705
Br220	Br	1.023174	0.465351	-0.945570
Br221	Br	1.356508	0.798684	-0.612237
Br222	Br	1.689841	1.132018	-0.278903
Br223	Br	0.740114	0.196775	-0.512955
Br224	Br	1.073447	0.530109	-0.179622
Br225	Br	1.406781	0.863442	0.153712
