data_functionalizedCrystal
_audit_creation_method	'MofGen! by Chris Wilmer'
_symmetry_space_group_name_H-M	'P1'
_symmetry_Int_Tables_number	1
_symmetry_cell_setting	triclinic
loop_
_symmetry_equiv_pos_as_xyz
  x,y,z
_cell_length_a	19.121241
_cell_length_b	19.121111
_cell_length_c	19.120904
_cell_angle_alpha	85.256407
_cell_angle_beta	89.875472
_cell_angle_gamma	84.995459
loop_
_atom_site_label
_atom_site_type_symbol
_atom_site_fract_x
_atom_site_fract_y
_atom_site_fract_z
Zn1	Zn	1.043551	0.254511	-0.452560
Zn2	Zn	1.043461	0.367162	-0.339911
Zn3	Zn	0.931336	0.254093	-0.330312
Zn4	Zn	0.920826	0.377148	-0.452504
O5	O	0.984793	0.313228	-0.393822
O6	O	1.141824	0.265450	-0.441657
O7	O	1.032948	0.347809	-0.240356
O8	O	0.950657	0.155504	-0.342535
O9	O	1.141758	0.348214	-0.358894
O10	O	1.033101	0.155812	-0.432350
O11	O	0.950570	0.264737	-0.233304
O12	O	0.831656	0.274420	-0.342481
O13	O	0.932744	0.365235	-0.550793
O14	O	0.823934	0.364829	-0.432255
O15	O	1.022910	0.275134	-0.550834
O16	O	1.022757	0.467131	-0.358840
O17	O	0.932657	0.474467	-0.441562
C18	C	0.802311	0.320663	-0.386321
C19	C	0.724242	0.323862	-0.383129
C20	C	0.687594	0.282348	-0.424792
C21	C	0.614241	0.285350	-0.421787
C22	C	0.577537	0.329869	-0.377123
C23	C	0.614190	0.371385	-0.335456
C24	C	0.687542	0.368379	-0.338458
C25	C	0.356060	0.341094	-0.365896
C26	C	0.282703	0.344098	-0.362899
C27	C	0.282759	0.258062	-0.449230
C28	C	0.356112	0.255063	-0.452230
C29	C	0.392759	0.296576	-0.410561
C30	C	0.502558	0.332940	-0.374052
C31	C	0.467737	0.293501	-0.413629
C32	C	0.976575	0.496376	-0.401253
C33	C	0.973123	0.574726	-0.404458
C34	C	1.018444	0.607692	-0.362934
C35	C	1.015201	0.681310	-0.365953
C36	C	0.966633	0.721961	-0.410493
C37	C	0.921310	0.688990	-0.452022
C38	C	0.924557	0.615373	-0.449006
C39	C	0.954484	0.944429	-0.421754
C40	C	0.951239	1.018051	-0.424765
C41	C	1.045132	1.010365	-0.338696
C42	C	1.048371	0.936747	-0.335682
C43	C	1.003051	0.903783	-0.377213
C44	C	0.963315	0.797211	-0.413578
C45	C	1.006372	0.828534	-0.374131
C46	C	1.167988	0.305765	-0.401352
C47	C	1.246055	0.302584	-0.404561
C48	C	0.976665	0.321345	-0.577010
C49	C	0.973201	0.324803	-0.655073
C50	C	0.993055	1.129366	-0.386386
C51	C	0.996560	1.051017	-0.383240
C52	C	1.018516	0.279520	-0.691770
C53	C	1.015252	0.282767	-0.765119
C54	C	0.966678	0.331302	-0.801770
C55	C	0.921358	0.376588	-0.765068
C56	C	0.924618	0.373336	-0.691720
C57	C	0.954482	0.343463	-1.023231
C58	C	0.951227	0.346712	-1.096584
C59	C	1.045121	0.252890	-1.096630
C60	C	1.048379	0.249646	-1.023281
C61	C	1.003058	0.294929	-0.986585
C62	C	0.963343	0.334624	-0.876744
C63	C	1.006390	0.291603	-0.911612
C64	C	0.992933	0.305091	-0.211346
C65	C	0.996542	0.301428	-0.133280
H66	H	0.717380	0.402183	-0.304531
C67	C	1.094967	0.203077	-1.136996
C68	C	1.175002	0.205128	-1.130433
C69	C	1.224849	0.155311	-1.170799
C70	C	1.194662	0.103441	-1.217729
C71	C	1.114624	0.101388	-1.224295
C72	C	1.064776	0.151205	-1.183928
H73	H	1.197351	0.243527	-1.095691
H74	H	1.284098	0.156831	-1.165939
H75	H	1.231562	0.066563	-1.247611
H76	H	1.092274	0.062989	-1.259037
H77	H	1.005527	0.149685	-1.188789
C78	C	0.727966	0.233374	-0.473922
C79	C	0.808650	0.230063	-0.477227
C80	C	0.849019	0.181085	-0.526356
C81	C	0.808704	0.135416	-0.572179
C82	C	0.728015	0.138725	-0.568874
C83	C	0.687646	0.187703	-0.519746
H84	H	0.838498	0.263872	-0.443305
H85	H	0.908751	0.178636	-0.528802
H86	H	0.838588	0.099159	-0.608547
H87	H	0.698168	0.104917	-0.602797
H88	H	0.627915	0.190152	-0.517300
C89	C	0.897812	0.400125	-1.136903
C90	C	0.847975	0.449952	-1.096543
C91	C	0.794576	0.503374	-1.136864
C92	C	0.791014	0.506970	-1.217545
C93	C	0.840852	0.457141	-1.257910
C94	C	0.894251	0.403719	-1.217589
H95	H	0.850610	0.447292	-1.036814
H96	H	0.757682	0.540260	-1.106983
H97	H	0.751484	0.546516	-1.247393
H98	H	0.838217	0.459801	-1.317639
H99	H	0.931145	0.366833	-1.247470
C100	C	0.508110	0.244530	-0.462757
C101	C	0.554735	0.275542	-0.521148
C102	C	0.595116	0.226573	-0.570278
C103	C	0.588871	0.146593	-0.561018
C104	C	0.542244	0.115577	-0.502625
C105	C	0.501863	0.164545	-0.453495
H106	H	0.559360	0.334752	-0.528005
H107	H	0.629633	0.249534	-0.613504
H108	H	0.618764	0.110343	-0.597387
H109	H	0.537620	0.056367	-0.495768
H110	H	0.467347	0.141585	-0.410268
C111	C	0.396474	0.206098	-0.501375
C112	C	0.443082	0.237119	-0.559777
C113	C	0.483439	0.188160	-0.608932
C114	C	0.477189	0.108180	-0.599686
C115	C	0.430580	0.077155	-0.541282
C116	C	0.390223	0.126114	-0.492127
H117	H	0.447710	0.296329	-0.566624
H118	H	0.517942	0.211127	-0.652167
H119	H	0.507064	0.071938	-0.636074
H120	H	0.425951	0.017945	-0.534435
H121	H	0.355719	0.103146	-0.448892
C122	C	0.242446	0.212393	-0.495055
C123	C	0.188209	0.247524	-0.549325
C124	C	0.147895	0.201850	-0.595149
C125	C	0.161819	0.121045	-0.586703
C126	C	0.216058	0.085910	-0.532431
C127	C	0.256371	0.131584	-0.486607
H128	H	0.177900	0.307345	-0.555579
H129	H	0.107744	0.227860	-0.635324
H130	H	0.131976	0.087234	-0.620625
H131	H	0.226367	0.026089	-0.526177
H132	H	0.296523	0.105574	-0.446431
C133	C	0.242324	0.393067	-0.313762
C134	C	0.256190	0.383231	-0.234102
C135	C	0.215809	0.432197	-0.184969
C136	C	0.161562	0.490998	-0.215496
C137	C	0.147694	0.500836	-0.295160
C138	C	0.188075	0.451870	-0.344293
H139	H	0.296349	0.339701	-0.211501
H140	H	0.226076	0.424914	-0.125996
H141	H	0.131670	0.527245	-0.179125
H142	H	0.107535	0.544366	-0.317762
H143	H	0.177808	0.459153	-0.403266
C144	C	0.396362	0.386766	-0.320068
C145	C	0.390059	0.377774	-0.239585
C146	C	0.430362	0.423452	-0.193755
C147	C	0.476968	0.478122	-0.228409
C148	C	0.483273	0.487116	-0.308897
C149	C	0.442970	0.441438	-0.354726
H150	H	0.355557	0.337302	-0.213928
H151	H	0.425695	0.416794	-0.134173
H152	H	0.506803	0.511935	-0.194484
H153	H	0.517775	0.527588	-0.334554
H154	H	0.447637	0.448097	-0.414309
H155	H	1.058073	0.239999	-0.661934
H156	H	1.082030	1.037213	-0.304885
C157	C	0.904629	0.908179	-0.467439
C158	C	0.824597	0.921374	-0.458783
C159	C	0.774740	0.885123	-0.504473
C160	C	0.804916	0.835677	-0.558820
C161	C	0.884953	0.822481	-0.567479
C162	C	0.934810	0.858731	-0.521789
H163	H	0.802255	0.957978	-0.418550
H164	H	0.715491	0.894892	-0.498063
H165	H	0.768010	0.808842	-0.592643
H166	H	0.907295	0.785876	-0.607712
H167	H	0.994058	0.848962	-0.528199
C168	C	0.904621	0.393279	-0.982887
C169	C	0.824591	0.391218	-0.989479
C170	C	0.774721	0.441038	-0.949138
C171	C	0.804882	0.492920	-0.902205
C172	C	0.884917	0.494984	-0.895611
C173	C	0.934786	0.445163	-0.935952
H174	H	0.802260	0.352810	-1.024223
H175	H	0.715474	0.439510	-0.954020
H176	H	0.767966	0.529800	-0.872343
H177	H	0.907248	0.533392	-0.860867
H178	H	0.994033	0.446691	-0.931070
C179	C	1.065056	0.717568	-0.320271
C180	C	1.034882	0.767025	-0.265933
C181	C	1.084741	0.803280	-0.220249
C182	C	1.164774	0.790078	-0.228903
C183	C	1.194951	0.740619	-0.283244
C184	C	1.145092	0.704364	-0.328927
H185	H	0.975634	0.776800	-0.259525
H186	H	1.062401	0.839893	-0.180023
H187	H	1.201682	0.816917	-0.195085
H188	H	1.254200	0.730844	-0.289652
H189	H	1.167432	0.667750	-0.369154
H190	H	0.472666	0.369188	-0.337686
C191	C	0.874700	0.579107	-0.494681
C192	C	0.794668	0.592295	-0.486020
C193	C	0.744812	0.556030	-0.531698
C194	C	0.774990	0.506576	-0.586037
C195	C	0.855027	0.493385	-0.594701
C196	C	0.904882	0.529651	-0.549022
H197	H	0.772325	0.628906	-0.445793
H198	H	0.685564	0.565794	-0.525285
H199	H	0.738084	0.479730	-0.619851
H200	H	0.877370	0.456775	-0.634928
H201	H	0.964131	0.519886	-0.555436
C202	C	1.065101	0.232952	-0.805482
C203	C	1.145135	0.235009	-0.798919
C204	C	1.194985	0.185189	-0.839280
C205	C	1.164801	0.133312	-0.886204
C206	C	1.084763	0.131254	-0.892769
C207	C	1.034913	0.181074	-0.852408
H208	H	1.167482	0.273412	-0.764181
H209	H	1.254234	0.186713	-0.834420
H210	H	1.201703	0.096433	-0.916082
H211	H	1.062416	0.092850	-0.927507
H212	H	0.975664	0.179550	-0.857269
H213	H	0.881805	0.416104	-0.794914
H214	H	0.887712	0.410205	-0.661842
H215	H	0.584406	0.251547	-0.455714
H216	H	0.584300	0.407630	-0.299086
H217	H	1.057991	0.574598	-0.326661
H218	H	1.045919	0.795434	-0.337870
H219	H	1.087920	0.903650	-0.299414
H220	H	0.911697	1.051147	-0.461047
H221	H	0.881767	0.722094	-0.488290
H222	H	0.923770	0.830317	-0.449841
H223	H	1.087936	0.210125	-0.993445
H224	H	1.045936	0.252083	-0.881767
H225	H	0.923796	0.374145	-0.906593
