data_functionalizedCrystal
_audit_creation_method	'MofGen! by Chris Wilmer'
_symmetry_space_group_name_H-M	'P1'
_symmetry_Int_Tables_number	1
_symmetry_cell_setting	triclinic
loop_
_symmetry_equiv_pos_as_xyz
  x,y,z
_cell_length_a	16.176319
_cell_length_b	17.699083
_cell_length_c	17.699092
_cell_angle_alpha	96.715309
_cell_angle_beta	89.994879
_cell_angle_gamma	90.001389
loop_
_atom_site_label
_atom_site_type_symbol
_atom_site_fract_x
_atom_site_fract_y
_atom_site_fract_z
O1	O	-0.068628	-1.004082	0.095713
O2	O	0.431372	-0.504082	0.595713
O3	O	-0.068654	-0.783704	0.108165
O4	O	0.431346	-0.283704	0.608165
O5	O	-0.068638	-0.900116	-0.008250
O6	O	0.431362	-0.400116	0.491750
O7	O	-0.068644	-0.887670	0.212128
O8	O	0.431356	-0.387670	0.712128
O9	O	0.068855	-0.900100	-0.008257
O10	O	0.568855	-0.400100	0.491743
O11	O	0.068839	-0.783688	0.108158
O12	O	0.568839	-0.283688	0.608158
O13	O	0.068866	-1.004066	0.095705
O14	O	0.568866	-0.504066	0.595705
Cu15	Cu	0.081406	-0.893875	0.101931
Cu16	Cu	0.581406	-0.393875	0.601931
Cu17	Cu	-0.081195	-0.893894	0.101940
Cu18	Cu	0.418805	-0.393894	0.601940
O19	O	0.068850	-0.887654	0.212120
O20	O	0.568850	-0.387654	0.712120
C21	C	0.000089	-0.755499	0.107715
C22	C	0.500089	-0.255499	0.607715
C23	C	0.000079	-0.671480	0.106377
C24	C	0.500079	-0.171480	0.606377
N25	N	0.195772	-0.893867	0.101924
N26	N	0.695772	-0.393867	0.601924
C27	C	0.000107	-0.899661	-0.036450
C28	C	0.500107	-0.399661	0.463550
C29	C	0.000103	-0.898319	-0.120468
C30	C	0.500103	-0.398319	0.379532
N31	N	-0.195560	-0.893908	0.101940
N32	N	0.304440	-0.393908	0.601940
C33	C	0.239043	-0.945430	0.050397
C34	C	0.739043	-0.445430	0.550397
C35	C	0.325590	-0.945434	0.050396
C36	C	0.825590	-0.445434	0.550396
C37	C	0.368864	-0.893878	0.101927
C38	C	0.868864	-0.393878	0.601927
C39	C	0.325587	-0.842310	0.153457
C40	C	0.825587	-0.342310	0.653457
C41	C	0.239041	-0.842303	0.153453
C42	C	0.739041	-0.342303	0.653453
C43	C	0.674615	-0.842336	0.153471
C44	C	1.174615	-0.342336	0.653471
C45	C	0.761167	-0.842348	0.153472
C46	C	1.261167	-0.342348	0.653472
C47	C	0.761164	-0.945467	0.050414
C48	C	1.261164	-0.445467	0.550414
C49	C	0.674618	-0.945460	0.050410
C50	C	1.174618	-0.445460	0.550410
C51	C	0.631349	-0.893889	0.101937
C52	C	1.131349	-0.393889	0.601937
C53	C	0.537504	-0.893885	0.101936
C54	C	1.037504	-0.393885	0.601936
C55	C	0.462707	-0.893886	0.101932
C56	C	0.962707	-0.393886	0.601932
C57	C	0.000121	-1.032271	0.096155
C58	C	0.500121	-0.532271	0.596155
C59	C	0.000125	-1.116289	0.097494
C60	C	0.500125	-0.616289	0.597494
C61	C	0.000077	-0.622862	0.174710
C62	C	0.500077	-0.122862	0.674710
C63	C	0.000088	-0.543918	0.173448
C64	C	0.500088	-0.043918	0.673448
C65	C	0.000094	-0.513595	0.103851
C66	C	0.500094	-0.013595	0.603851
C67	C	0.000098	-0.562220	0.035513
C68	C	0.500098	-0.062220	0.535513
C69	C	0.000093	-0.641162	0.036776
C70	C	0.500093	-0.141162	0.536776
C71	C	0.000119	-0.243857	0.030418
C72	C	0.500119	0.256143	0.530418
C73	C	0.000121	-0.164909	0.029160
C74	C	0.500121	0.335091	0.529160
C75	C	0.000113	-0.146613	0.167089
C76	C	0.500113	0.353387	0.667089
C77	C	0.000109	-0.225555	0.168352
C78	C	0.500109	0.274445	0.668352
C79	C	0.000117	-0.274173	0.100014
C80	C	0.500117	0.225827	0.600014
C81	C	0.000107	-0.359772	0.101384
C82	C	0.500107	0.140228	0.601384
C83	C	0.000098	-0.427998	0.102481
C84	C	0.500098	0.072002	0.602481
C85	C	-0.074846	-0.897700	-0.159932
C86	C	0.425154	-0.397700	0.340068
C87	C	-0.074847	-0.896435	-0.238875
C88	C	0.425153	-0.396435	0.261125
C89	C	0.000102	-0.895795	-0.278353
C90	C	0.500102	-0.395795	0.221647
C91	C	0.075056	-0.896412	-0.238884
C92	C	0.575056	-0.396412	0.261116
C93	C	0.075056	-0.897672	-0.159942
C94	C	0.575056	-0.397672	0.340058
C95	C	0.075057	-0.891332	-0.557249
C96	C	0.575057	-0.391332	-0.057249
C97	C	0.075050	-0.890075	-0.636197
C98	C	0.575050	-0.390075	-0.136197
C99	C	-0.074846	-0.890095	-0.636182
C100	C	0.425154	-0.390095	-0.136182
C101	C	-0.074846	-0.891355	-0.557240
C102	C	0.425154	-0.391355	-0.057240
C103	C	0.000108	-0.891968	-0.517777
C104	C	0.500108	-0.391968	-0.017777
C105	C	0.000108	-0.893338	-0.432178
C106	C	0.500108	-0.393338	0.067822
C107	C	0.000102	-0.894430	-0.363952
C108	C	0.500102	-0.394430	0.136048
C109	C	0.000103	-0.888109	0.240321
C110	C	0.500103	-0.388109	0.740321
C111	C	0.000101	-0.889450	0.324339
C112	C	0.500101	-0.389450	0.824339
H113	H	0.360821	-0.987420	0.008438
H114	H	0.860821	-0.487420	0.508438
H115	H	-0.135877	-0.895934	-0.271003
H116	H	0.364123	-0.395934	0.228997
C117	C	-0.161797	-0.827667	-0.459872
C118	C	0.338203	-0.327667	0.040128
C119	C	-0.157247	-0.892003	-0.513862
C120	C	0.342753	-0.392003	-0.013862
H121	H	-0.212671	-0.828053	-0.433097
H122	H	0.287329	-0.328053	0.066903
H123	H	-0.158635	-0.783081	-0.484839
H124	H	0.341365	-0.283081	0.015161
H125	H	-0.117174	-0.828243	-0.425057
H126	H	0.382826	-0.328243	0.074943
H127	H	-0.201866	-0.891424	-0.548681
H128	H	0.298134	-0.391424	-0.048681
H129	H	-0.160416	-0.936600	-0.488894
H130	H	0.339584	-0.436600	0.011106
C131	C	0.202840	-0.826694	-0.524355
C132	C	0.702840	-0.326694	-0.024355
C133	C	0.157451	-0.892030	-0.513891
C134	C	0.657451	-0.392030	-0.013891
H135	H	0.253712	-0.827135	-0.497591
H136	H	0.753712	-0.327135	0.002409
H137	H	0.172056	-0.782788	-0.505547
H138	H	0.672056	-0.282788	-0.005547
H139	H	0.213545	-0.825858	-0.577024
H140	H	0.713545	-0.325858	-0.077024
H141	H	0.146740	-0.892864	-0.461222
H142	H	0.646740	-0.392864	0.038778
H143	H	0.188241	-0.935948	-0.532695
H144	H	0.688241	-0.435948	-0.032695
C145	C	-0.202618	-0.824667	-0.651843
C146	C	0.297382	-0.324667	-0.151843
C147	C	-0.157236	-0.889397	-0.679564
C148	C	0.342764	-0.389397	-0.179564
H149	H	-0.253481	-0.824238	-0.678624
H150	H	0.246519	-0.324238	-0.178624
H151	H	-0.171820	-0.780350	-0.658927
H152	H	0.328180	-0.280350	-0.158927
H153	H	-0.213342	-0.825524	-0.599180
H154	H	0.286658	-0.325524	-0.099180
H155	H	-0.146507	-0.888537	-0.732226
H156	H	0.353493	-0.388537	-0.232226
H157	H	-0.188041	-0.933726	-0.672487
H158	H	0.311959	-0.433726	-0.172487
H159	H	0.136086	-0.889552	-0.668338
H160	H	0.636086	-0.389552	-0.168338
H161	H	0.796403	-0.987456	0.008455
H162	H	1.296403	-0.487456	0.508455
C163	C	0.000094	-0.770301	-0.022533
C164	C	0.500094	-0.270301	0.477467
C165	C	0.000094	-0.694609	-0.038337
C166	C	0.500094	-0.194609	0.461663
H167	H	0.000103	-0.803295	-0.068907
H168	H	0.500103	-0.303295	0.431093
H169	H	-0.047852	-0.779475	0.006006
H170	H	0.452148	-0.279475	0.506006
H171	H	0.048042	-0.779470	0.006011
H172	H	0.548042	-0.279470	0.506011
H173	H	-0.047857	-0.685438	-0.066877
H174	H	0.452143	-0.185438	0.433123
H175	H	0.048046	-0.685431	-0.066888
H176	H	0.548046	-0.185431	0.433112
H177	H	0.000115	-0.537525	-0.021154
H178	H	0.500115	-0.037525	0.478846
H179	H	0.639387	-0.987444	0.008451
H180	H	1.139387	-0.487444	0.508451
H181	H	0.796399	-0.800362	0.195436
H182	H	1.296399	-0.300362	0.695436
C183	C	0.000121	-0.254002	-0.106049
C184	C	0.500121	0.245998	0.393951
C185	C	0.000121	-0.297292	-0.044699
C186	C	0.500121	0.202708	0.455301
H187	H	0.000118	-0.286994	-0.152424
H188	H	0.500118	0.213006	0.347576
H189	H	0.048066	-0.222832	-0.103672
H190	H	0.548066	0.277168	0.396328
H191	H	-0.047829	-0.222829	-0.103662
H192	H	0.452171	0.277171	0.396338
H193	H	0.048075	-0.328460	-0.047082
H194	H	0.548075	0.171540	0.452918
H195	H	-0.047828	-0.328474	-0.047076
H196	H	0.452172	0.171526	0.452924
H197	H	0.639392	-0.800347	0.195427
H198	H	1.139392	-0.300347	0.695427
C199	C	0.141616	-0.894487	-0.359904
C200	C	0.641616	-0.394487	0.140096
C201	C	0.157442	-0.895716	-0.282279
C202	C	0.657442	-0.395716	0.217721
H203	H	0.192480	-0.894065	-0.386692
H204	H	0.692480	-0.394065	0.113308
H205	H	0.110825	-0.850167	-0.366987
H206	H	0.610825	-0.350167	0.133013
H207	H	0.110821	-0.938405	-0.378680
H208	H	0.610821	-0.438405	0.121320
H209	H	0.188231	-0.851794	-0.263501
H210	H	0.688231	-0.351794	0.236499
H211	H	0.188246	-0.940040	-0.275191
H212	H	0.688246	-0.440040	0.224809
H213	H	0.136087	-0.898166	-0.127810
H214	H	0.636087	-0.398166	0.372190
C215	C	-0.223017	-0.897585	-0.167853
C216	C	0.276983	-0.397585	0.332147
C217	C	-0.157233	-0.898401	-0.116540
C218	C	0.342767	-0.398401	0.383460
H219	H	-0.273879	-0.898011	-0.141064
H220	H	0.226121	-0.398011	0.358936
H221	H	-0.219895	-0.941210	-0.204493
H222	H	0.280105	-0.441210	0.295507
H223	H	-0.219895	-0.852972	-0.192793
H224	H	0.280105	-0.352972	0.307207
H225	H	-0.160350	-0.943017	-0.091604
H226	H	0.339650	-0.443017	0.408396
H227	H	-0.160356	-0.854772	-0.079887
H228	H	0.339644	-0.354772	0.420113
C229	C	0.458255	-0.796537	0.199230
C230	C	0.958255	-0.296537	0.699230
C231	C	0.373152	-0.785640	0.210103
C232	C	0.873152	-0.285640	0.710103
H233	H	0.487616	-0.761554	0.234207
H234	H	0.987616	-0.261554	0.734207
H235	H	0.472444	-0.788410	0.148734
H236	H	0.972444	-0.288410	0.648734
H237	H	0.472419	-0.847036	0.207388
H238	H	0.972419	-0.347036	0.707388
H239	H	0.358986	-0.735142	0.201940
H240	H	0.858986	-0.235142	0.701940
H241	H	0.358957	-0.793760	0.260611
H242	H	0.858957	-0.293760	0.760611
H243	H	0.000072	-0.647544	0.231383
H244	H	0.500072	-0.147544	0.731383
H245	H	0.203811	-0.800315	0.195411
H246	H	0.703811	-0.300315	0.695411
H247	H	0.000086	-0.504335	0.229091
H248	H	0.500086	-0.004335	0.729091
C249	C	0.247742	-1.047357	-0.051480
C250	C	0.747742	-0.547357	0.448520
C251	C	0.191480	-1.002101	-0.006250
C252	C	0.691480	-0.502101	0.493750
H253	H	0.218379	-1.082339	-0.086456
H254	H	0.718379	-0.582339	0.413544
H255	H	0.281487	-1.074524	-0.020008
H256	H	0.781487	-0.574524	0.479992
H257	H	0.281508	-1.015897	-0.078661
H258	H	0.781508	-0.515897	0.421339
H259	H	0.157718	-1.033561	0.020935
H260	H	0.657718	-0.533561	0.520935
H261	H	0.157721	-0.974933	-0.037727
H262	H	0.657721	-0.474933	0.462273
H263	H	0.000127	-0.140224	-0.027517
H264	H	0.500127	0.359776	0.472483
H265	H	0.000100	-0.250239	0.225025
H266	H	0.500100	0.249761	0.725025
H267	H	0.000111	-0.107018	0.222733
H268	H	0.500111	0.392982	0.722733
