data_functionalizedCrystal
_audit_creation_method	'MofGen! by Chris Wilmer'
_symmetry_space_group_name_H-M	'P1'
_symmetry_Int_Tables_number	1
_symmetry_cell_setting	triclinic
loop_
_symmetry_equiv_pos_as_xyz
  x,y,z
_cell_length_a	17.038272
_cell_length_b	23.532407
_cell_length_c	15.500227
_cell_angle_alpha	92.805592
_cell_angle_beta	86.956295
_cell_angle_gamma	86.980117
loop_
_atom_site_label
_atom_site_type_symbol
_atom_site_fract_x
_atom_site_fract_y
_atom_site_fract_z
O1	O	1.040103	0.121159	-0.071851
O2	O	1.373436	0.454493	0.261483
O3	O	1.706769	0.787826	0.594816
O4	O	0.812488	0.119196	-0.071876
O5	O	1.145821	0.452529	0.261457
O6	O	1.479154	0.785862	0.594791
O7	O	0.933158	0.037607	-0.071847
O8	O	1.266491	0.370941	0.261487
O9	O	1.599825	0.704274	0.594820
O10	O	0.919432	0.202748	-0.071880
O11	O	1.252765	0.536081	0.261453
O12	O	1.586099	0.869414	0.594787
O13	O	0.925836	0.042537	0.072040
O14	O	1.259169	0.375871	0.405373
O15	O	1.592502	0.709204	0.738707
O16	O	0.805165	0.124126	0.072011
O17	O	1.138499	0.457459	0.405344
O18	O	1.471832	0.790792	0.738678
O19	O	1.032780	0.126090	0.072036
O20	O	1.366113	0.459423	0.405369
O21	O	1.699447	0.792756	0.738703
Cu22	Cu	0.918304	0.125558	0.085162
Cu23	Cu	1.251637	0.458891	0.418495
Cu24	Cu	1.584971	0.792225	0.751828
Cu25	Cu	0.926964	0.119727	-0.085001
Cu26	Cu	1.260297	0.453061	0.248332
Cu27	Cu	1.593630	0.786394	0.581665
O28	O	0.912110	0.207678	0.072007
O29	O	1.245443	0.541011	0.405340
O30	O	1.578776	0.874345	0.738674
C31	C	0.779712	0.119875	0.000065
C32	C	1.113045	0.453209	0.333398
C33	C	1.446378	0.786542	0.666731
C34	C	0.692959	0.114548	0.000056
C35	C	1.026292	0.447882	0.333389
C36	C	1.359625	0.781215	0.666722
C37	C	0.642483	0.163453	0.000046
C38	C	0.975816	0.496786	0.333380
C39	C	1.309149	0.830119	0.666713
C40	C	0.560969	0.158445	0.000059
C41	C	0.894302	0.491778	0.333393
C42	C	1.227635	0.825111	0.666726
C43	C	0.529932	0.104532	0.000075
C44	C	0.863266	0.437865	0.333409
C45	C	1.196599	0.771198	0.666742
C46	C	0.580414	0.055624	0.000087
C47	C	0.913748	0.388957	0.333420
C48	C	1.247081	0.722290	0.666754
C49	C	0.661927	0.060632	0.000080
C50	C	0.995260	0.393966	0.333414
C51	C	1.328593	0.727299	0.666747
C52	C	0.284304	0.086837	0.000102
C53	C	0.617637	0.420171	0.333435
C54	C	0.950971	0.753504	0.666769
C55	C	0.202786	0.081832	0.000106
C56	C	0.536119	0.415166	0.333439
C57	C	0.869452	0.748499	0.666773
C58	C	0.183345	0.184654	0.000080
C59	C	0.516678	0.517987	0.333413
C60	C	0.850012	0.851320	0.666747
C61	C	0.264860	0.189658	0.000068
C62	C	0.598193	0.522991	0.333401
C63	C	0.931527	0.856324	0.666735
C64	C	0.315335	0.140750	0.000084
C65	C	0.648668	0.474083	0.333418
C66	C	0.982001	0.807416	0.666751
C67	C	0.446612	0.099412	0.000086
C68	C	0.779945	0.432745	0.333419
C69	C	1.113279	0.766078	0.666752
C70	C	0.398653	0.145871	0.000080
C71	C	0.731986	0.479204	0.333413
C72	C	1.065320	0.812537	0.666747
C73	C	0.929147	0.018838	0.000099
C74	C	1.262480	0.352171	0.333432
C75	C	1.595814	0.685505	0.666766
C76	C	0.928096	-0.044434	0.000105
C77	C	1.261429	0.288899	0.333439
C78	C	1.594762	0.622233	0.666772
C79	C	0.992917	-0.440131	0.000065
C80	C	1.326250	-0.106798	0.333398
C81	C	1.659584	0.226536	0.666732
C82	C	0.991941	-0.499583	0.000058
C83	C	1.325274	-0.166249	0.333392
C84	C	1.658607	0.167084	0.666725
O85	O	1.052030	-0.533169	0.000033
O86	O	1.385363	-0.199836	0.333367
O87	O	1.718697	0.133497	0.666700
N88	N	0.920202	-0.525981	0.000051
N89	N	1.253535	-0.192647	0.333385
N90	N	1.586868	0.140686	0.666718
C91	C	0.849435	-0.492924	0.000042
C92	C	1.182768	-0.159590	0.333375
C93	C	1.516101	0.173743	0.666708
O94	O	0.788325	-0.520836	0.000034
O95	O	1.121659	-0.187503	0.333367
O96	O	1.454992	0.145830	0.666701
C97	C	0.850412	-0.433473	0.000042
C98	C	1.183745	-0.100140	0.333376
C99	C	1.517078	0.233193	0.666709
C100	C	0.922155	-0.407078	0.000058
C101	C	1.255488	-0.073745	0.333392
C102	C	1.588822	0.259588	0.666725
C103	C	1.064654	-0.413736	0.000080
C104	C	1.397988	-0.080402	0.333414
C105	C	1.731321	0.252931	0.666747
C106	C	1.065630	-0.354288	0.000089
C107	C	1.398963	-0.020955	0.333422
C108	C	1.732297	0.312379	0.666755
C109	C	0.994868	-0.321235	0.000082
C110	C	1.328201	0.012098	0.333415
C111	C	1.661535	0.345431	0.666748
C112	C	0.923131	-0.347631	0.000067
C113	C	1.256464	-0.014297	0.333400
C114	C	1.589797	0.319036	0.666733
C115	C	0.779646	-0.400418	0.000027
C116	C	1.112979	-0.067084	0.333360
C117	C	1.446312	0.266249	0.666693
C118	C	0.780629	-0.340963	0.000026
C119	C	1.113962	-0.007630	0.333360
C120	C	1.447296	0.325703	0.666693
C121	C	0.852372	-0.314569	0.000043
C122	C	1.185706	0.018765	0.333376
C123	C	1.519039	0.352098	0.666709
C124	C	0.853344	-0.255130	0.000068
C125	C	1.186678	0.078203	0.333401
C126	C	1.520011	0.411536	0.666735
N127	N	0.925083	-0.228732	0.000075
N128	N	1.258417	0.104601	0.333409
N129	N	1.591750	0.437934	0.666742
C130	C	0.995845	-0.261785	0.000082
C131	C	1.329178	0.071548	0.333416
C132	C	1.662512	0.404882	0.666749
C133	C	0.847388	-0.617774	0.000039
C134	C	1.180721	-0.284441	0.333373
C135	C	1.514055	0.048893	0.666706
C136	C	0.846410	-0.677223	0.000045
C137	C	1.179743	-0.343890	0.333378
C138	C	1.513076	-0.010556	0.666712
C139	C	0.988916	-0.683878	0.000060
C140	C	1.322250	-0.350545	0.333393
C141	C	1.655583	-0.017211	0.666727
C142	C	0.989894	-0.624428	0.000061
C143	C	1.323227	-0.291094	0.333394
C144	C	1.656560	0.042239	0.666727
C145	C	0.919127	-0.591376	0.000047
C146	C	1.252460	-0.258043	0.333380
C147	C	1.585794	0.075291	0.666713
C148	C	0.997889	-0.136940	0.000100
C149	C	1.331222	0.196393	0.333434
C150	C	1.664555	0.529727	0.666767
C151	C	0.998858	-0.077487	0.000112
C152	C	1.332191	0.255847	0.333446
C153	C	1.665524	0.589180	0.666779
C154	C	0.856352	-0.070837	0.000093
C155	C	1.189685	0.262496	0.333426
C156	C	1.523018	0.595830	0.666759
C157	C	0.855382	-0.130285	0.000085
C158	C	1.188715	0.203048	0.333419
C159	C	1.522049	0.536382	0.666752
C160	C	0.926157	-0.163336	0.000086
C161	C	1.259490	0.169998	0.333420
C162	C	1.592824	0.503331	0.666753
O163	O	0.793287	-0.221508	0.000090
O164	O	1.126620	0.111826	0.333423
O165	O	1.459953	0.445159	0.666756
O166	O	1.056945	-0.233865	0.000078
O167	O	1.390278	0.099468	0.333412
O168	O	1.723612	0.432802	0.666745
C169	C	1.065556	0.125410	0.000094
C170	C	1.398890	0.458743	0.333427
C171	C	1.732223	0.792077	0.666760
C172	C	1.152310	0.130737	0.000097
C173	C	1.485643	0.464070	0.333430
C174	C	1.818976	0.797403	0.666764
C175	C	0.916121	0.226447	0.000059
C176	C	1.249454	0.559780	0.333393
C177	C	1.582787	0.893114	0.666726
C178	C	0.917172	0.289719	0.000047
C179	C	1.250506	0.623052	0.333381
C180	C	1.583839	0.956386	0.666714
N181	N	0.912219	0.129659	0.204845
N182	N	1.245552	0.462992	0.538178
N183	N	1.578886	0.796325	0.871512
N184	N	0.933055	0.115622	-0.204685
N185	N	1.266388	0.448956	0.128648
N186	N	1.599722	0.782289	0.461982
C187	C	0.963369	0.095101	0.250134
C188	C	1.296702	0.428435	0.583467
C189	C	1.630036	0.761768	0.916801
C190	C	0.958774	0.098208	0.340706
C191	C	1.292107	0.431542	0.674039
C192	C	1.625441	0.764875	1.007372
C193	C	0.903033	0.135876	0.385987
C194	C	1.236366	0.469209	0.719320
C195	C	1.569699	0.802543	1.052653
C196	C	0.851877	0.170435	0.340691
C197	C	1.185211	0.503768	0.674025
C198	C	1.518544	0.837101	1.007358
C199	C	0.856469	0.167324	0.250121
C200	C	1.189802	0.500658	0.583455
C201	C	1.523136	0.833991	0.916788
C202	C	0.886491	0.147071	0.659450
C203	C	1.219825	0.480404	0.992783
C204	C	1.553158	0.813737	1.326116
C205	C	0.881905	0.150180	0.750026
C206	C	1.215238	0.483513	1.083359
C207	C	1.548572	0.816846	1.416693
C208	C	0.988801	0.077952	0.750034
C209	C	1.322135	0.411286	1.083367
C210	C	1.655468	0.744619	1.416701
C211	C	0.993391	0.074848	0.659462
C212	C	1.326725	0.408181	0.992796
C213	C	1.660058	0.741514	1.326129
C214	C	0.942233	0.109404	0.614175
C215	C	1.275567	0.442738	0.947508
C216	C	1.608900	0.776071	1.280842
C217	C	0.898336	0.139054	0.478566
C218	C	1.231669	0.472387	0.811899
C219	C	1.565003	0.805721	1.145232
C220	C	0.946927	0.106223	0.521598
C221	C	1.280260	0.439556	0.854931
C222	C	1.613593	0.772890	1.188264
H223	H	0.703024	0.020809	0.000087
H224	H	1.036357	0.354142	0.333421
H225	H	1.369691	0.687476	0.666754
H226	H	1.048313	-0.602941	0.000073
H227	H	1.381647	-0.269608	0.333406
H228	H	1.714980	0.063726	0.666740
H229	H	1.122281	-0.440642	0.000083
H230	H	1.455614	-0.107308	0.333416
H231	H	1.788947	0.226025	0.666749
H232	H	0.992309	0.075552	0.484727
H233	H	1.325642	0.408885	0.818061
H234	H	1.658975	0.742218	1.151394
Br235	Br	1.069044	0.023730	0.598008
Br236	Br	1.402377	0.357063	0.931341
Br237	Br	1.735710	0.690396	1.264675
H238	H	0.290124	0.233559	0.000045
H239	H	0.623457	0.566892	0.333378
H240	H	0.956790	0.900225	0.666712
H241	H	0.723001	-0.314056	0.000014
H242	H	1.056334	0.019278	0.333347
H243	H	1.389668	0.352611	0.666680
Br244	Br	0.160665	0.008660	0.000146
Br245	Br	0.493998	0.341994	0.333480
Br246	Br	0.827331	0.675327	0.666813
H247	H	1.030451	0.049817	0.786915
H248	H	1.363784	0.383151	1.120249
H249	H	1.697118	0.716484	1.453582
H250	H	1.124051	-0.332803	0.000098
H251	H	1.457384	0.000530	0.333431
H252	H	1.790717	0.333864	0.666765
H253	H	0.796962	-0.151776	0.000096
H254	H	1.130295	0.181557	0.333430
H255	H	1.463628	0.514891	0.666763
Br256	Br	0.806252	0.201307	0.811474
Br257	Br	1.139586	0.534641	1.144807
Br258	Br	1.472919	0.867974	1.478140
H259	H	0.325391	0.047013	0.000116
H260	H	0.658725	0.380346	0.333449
H261	H	0.992058	0.713679	0.666783
H262	H	0.844838	0.175209	0.622584
H263	H	1.178171	0.508543	0.955917
H264	H	1.511505	0.841876	1.289250
H265	H	0.555138	0.011727	0.000112
H266	H	0.888471	0.345060	0.333446
H267	H	1.221804	0.678394	0.666779
H268	H	0.142240	0.224472	0.000069
H269	H	0.475573	0.557805	0.333402
H270	H	0.808907	0.891138	0.666735
H271	H	0.519874	0.198268	0.000051
H272	H	0.853207	0.531601	0.333384
H273	H	1.186540	0.864935	0.666718
Br274	Br	0.776221	0.221552	0.402141
Br275	Br	1.109554	0.554885	0.735474
Br276	Br	1.442887	0.888218	1.068808
H277	H	0.814816	0.195464	0.213248
H278	H	1.148150	0.528797	0.546581
H279	H	1.481483	0.862131	0.879915
Br280	Br	0.760322	-0.025969	0.000084
Br281	Br	1.093656	0.307365	0.333417
Br282	Br	1.426989	0.640698	0.666750
H283	H	0.852952	0.169725	0.515441
H284	H	1.186285	0.503058	0.848774
H285	H	1.519618	0.836391	1.182108
H286	H	1.000424	0.070069	0.377580
H287	H	1.333757	0.403402	0.710913
H288	H	1.667090	0.736735	1.044246
Br289	Br	0.684595	0.236624	0.000016
Br290	Br	1.017928	0.569957	0.333349
Br291	Br	1.351262	0.903290	0.666683
H292	H	0.789757	-0.590866	0.000035
H293	H	1.123091	-0.257533	0.333369
H294	H	1.456424	0.075800	0.666702
H295	H	1.046535	-0.710801	0.000062
H296	H	1.379868	-0.377467	0.333396
H297	H	1.713201	-0.044134	0.666729
H298	H	1.008763	0.064431	0.213272
H299	H	1.342096	0.397764	0.546605
H300	H	1.675429	0.731098	0.879939
H301	H	0.787989	-0.698708	0.000047
H302	H	1.121322	-0.365375	0.333380
H303	H	1.454655	-0.032041	0.666713
H304	H	0.423926	0.189767	0.000072
H305	H	0.757259	0.523100	0.333405
H306	H	1.090593	0.856433	0.666739
Br307	Br	0.404485	0.026245	0.000106
Br308	Br	0.737818	0.359579	0.333440
Br309	Br	1.071151	0.692912	0.666773
H310	H	1.057282	-0.055999	0.000128
H311	H	1.390615	0.277334	0.333461
H312	H	1.723949	0.610668	0.666794
H313	H	1.055521	-0.163843	0.000098
H314	H	1.388854	0.169490	0.333431
H315	H	1.722187	0.502823	0.666764
H316	H	0.721225	-0.421898	0.000008
H317	H	1.054558	-0.088565	0.333342
H318	H	1.387892	0.244769	0.666675
