data_functionalizedCrystal
_audit_creation_method	'MofGen! by Chris Wilmer'
_symmetry_space_group_name_H-M	'P1'
_symmetry_Int_Tables_number	1
_symmetry_cell_setting	triclinic
loop_
_symmetry_equiv_pos_as_xyz
  x,y,z
_cell_length_a	14.809374
_cell_length_b	27.440280
_cell_length_c	14.809374
_cell_angle_alpha	90.004513
_cell_angle_beta	60.797835
_cell_angle_gamma	67.424940
loop_
_atom_site_label
_atom_site_type_symbol
_atom_site_fract_x
_atom_site_fract_y
_atom_site_fract_z
Zr1	Zr	0.955110	0.538312	-0.203550
O2	O	1.113041	0.478612	-0.350723
O3	O	0.777342	0.548161	-0.145471
O4	O	0.926486	0.568096	-0.332007
O5	O	0.993394	0.452566	-0.031791
O6	O	0.926473	0.648297	-0.331988
O7	O	0.963897	0.458677	-0.164188
O8	O	0.659681	0.612637	0.001689
O9	O	1.260185	0.488227	-0.365469
O10	O	0.857798	0.622426	-0.136349
O11	O	0.879821	0.558012	-0.037556
O12	O	1.055419	0.581484	-0.257178
O13	O	1.077442	0.517070	-0.158385
Zr14	Zr	1.002133	0.656477	0.007636
Zr15	Zr	0.955089	0.666223	-0.203521
Zr16	Zr	1.002154	0.528566	0.007607
Zr17	Zr	1.189788	0.553646	-0.227068
Zr18	Zr	0.767454	0.641143	0.031154
O19	O	1.179901	0.646627	-0.050443
O20	O	1.113010	0.660486	-0.350682
O21	O	1.179932	0.464754	-0.050485
O22	O	0.844202	0.716176	0.154809
O23	O	0.777311	0.730034	-0.145430
O24	O	0.844232	0.534303	0.154767
O25	O	0.963849	0.742223	-0.164123
O26	O	1.030757	0.626692	0.136092
O27	O	1.030770	0.546491	0.136074
O28	O	0.993346	0.736112	-0.031726
O29	O	1.260168	0.589899	-0.365446
O30	O	0.697074	0.604890	0.169531
O31	O	0.697057	0.706562	0.169555
O32	O	0.659664	0.714309	0.001713
O33	O	1.297579	0.480480	-0.197627
O34	O	1.297562	0.582152	-0.197604
O35	O	0.901824	0.613305	0.061263
O36	O	0.879801	0.677718	-0.037529
O37	O	1.077422	0.636776	-0.158358
O38	O	1.099445	0.572363	-0.059565
C39	C	0.685075	0.578214	-0.068540
C40	C	0.585448	0.571705	-0.058556
C41	C	0.530106	0.600756	-0.103113
C42	C	0.427136	0.594029	-0.092795
C43	C	0.978648	0.437397	-0.097994
C44	C	0.978658	0.383095	-0.098006
C45	C	0.875450	0.067761	-0.034856
C46	C	0.875445	0.016742	-0.034847
O47	O	0.787721	0.008528	0.018823
N48	N	0.978600	-0.030146	-0.097919
C49	C	1.081768	-0.026014	-0.160997
O50	O	1.169509	-0.070581	-0.214643
C51	C	1.081774	0.025004	-0.161000
C52	C	0.978610	0.071892	-0.097932
C53	C	0.772296	0.114647	0.028208
C54	C	0.772301	0.165663	0.028196
C55	C	0.875461	0.169793	-0.034879
C56	C	0.978615	0.122907	-0.097943
C57	C	1.184942	0.029135	-0.224071
C58	C	1.184938	0.080159	-0.224068
C59	C	1.081775	0.127046	-0.161000
C60	C	1.081780	0.178053	-0.161029
N61	N	0.978626	0.224941	-0.097957
C62	C	0.875466	0.220811	-0.034882
C63	C	1.081750	-0.133155	-0.160984
C64	C	1.081745	-0.184172	-0.160988
C65	C	0.875422	-0.141412	-0.034836
C66	C	0.875427	-0.090394	-0.034839
C67	C	0.978595	-0.086266	-0.097912
C68	C	0.875484	0.327947	-0.034911
C69	C	0.875498	0.378965	-0.034931
C70	C	1.081821	0.336201	-0.161078
C71	C	1.081807	0.285187	-0.161062
C72	C	0.978630	0.281063	-0.097970
O73	O	1.169460	0.186308	-0.214668
O74	O	0.787742	0.265381	0.018766
C75	C	1.272168	0.616574	-0.127374
C76	C	1.371795	0.623084	-0.137358
C77	C	0.919777	0.609585	-0.362083
C78	C	0.899805	0.613723	-0.451725
C79	C	0.978594	0.757392	-0.097921
C80	C	0.978585	0.811693	-0.097908
C81	C	0.988935	0.595258	-0.551629
C82	C	0.968296	0.599534	-0.644280
C83	C	1.037466	0.585203	0.166169
C84	C	1.057437	0.581065	0.255810
C85	C	0.685048	0.738211	-0.068504
C86	C	0.585411	0.786004	-0.058507
C87	C	0.743919	0.566023	0.195586
C88	C	0.664264	0.555376	0.295211
C89	C	0.743892	0.726020	0.195622
C90	C	0.664228	0.769675	0.295260
C91	C	1.213350	0.468768	-0.391536
C92	C	1.293015	0.425114	-0.491174
C93	C	1.272195	0.456577	-0.127411
C94	C	1.371831	0.408785	-0.137407
C95	C	1.213323	0.628766	-0.391500
C96	C	1.292979	0.639413	-0.491125
C97	C	0.527134	0.779586	-0.105405
C98	C	0.433524	0.824488	-0.096033
C99	C	0.398188	0.875808	-0.039757
C100	C	0.456475	0.882225	0.007141
C101	C	0.550088	0.837324	-0.002238
C102	C	0.638344	0.579237	0.393588
C103	C	0.563514	0.569232	0.487204
C104	C	0.514599	0.535367	0.482441
C105	C	0.540525	0.511502	0.384053
C106	C	0.615361	0.521505	0.290439
C107	C	0.615320	0.823804	0.290483
C108	C	0.540478	0.864828	0.384094
C109	C	0.514538	0.851722	0.482482
C110	C	0.563454	0.797587	0.487257
C111	C	0.638301	0.756564	0.393646
C112	C	1.341934	0.370985	-0.486398
C113	C	1.416805	0.329963	-0.580012
C114	C	1.442750	0.343070	-0.678401
C115	C	1.393828	0.397204	-0.683175
C116	C	1.318964	0.438226	-0.589563
C117	C	1.430117	0.415204	-0.090519
C118	C	1.523747	0.370304	-0.099917
C119	C	1.559086	0.318985	-0.156196
C120	C	1.500795	0.312567	-0.203089
C121	C	1.407171	0.357467	-0.193698
C122	C	1.341872	0.673280	-0.486328
C123	C	1.416706	0.683295	-0.579927
C124	C	1.442652	0.659438	-0.678324
C125	C	1.393751	0.625569	-0.683119
C126	C	1.318912	0.615558	-0.589520
H127	H	0.556594	0.541853	-0.012769
H128	H	0.500688	0.483929	0.380191
H129	H	1.320814	0.360303	-0.406293
C130	C	1.422311	0.599326	-0.791360
H131	H	1.473896	0.610137	-0.846410
H132	H	1.353475	0.610698	-0.792033
H133	H	1.457210	0.560947	-0.802423
C134	C	1.470499	0.720543	-0.574636
H135	H	1.444340	0.733306	-0.502629
H136	H	1.448309	0.750530	-0.603788
H137	H	1.552043	0.700764	-0.614213
C138	C	1.524977	0.670452	-0.781278
H139	H	1.533427	0.651397	-0.840571
H140	H	1.598010	0.658500	-0.788595
H141	H	1.494268	0.708256	-0.778184
C142	C	1.587855	0.377370	-0.048332
H143	H	1.648688	0.343284	-0.061993
H144	H	1.535765	0.391045	0.026262
H145	H	1.618681	0.402138	-0.077462
C146	C	0.417587	0.938676	0.069050
H147	H	0.353479	0.964493	0.067924
H148	H	0.479098	0.948729	0.036864
H149	H	0.396165	0.937635	0.140575
C150	C	0.614173	0.844388	0.049369
H151	H	0.579706	0.881383	0.084234
H152	H	0.692640	0.833615	-0.003992
H153	H	0.609685	0.822533	0.099724
C154	C	1.112666	0.569628	-0.574529
H155	H	1.165909	0.558602	-0.649223
H156	H	1.124228	0.538970	-0.544260
H157	H	1.124201	0.595509	-0.544248
H158	H	1.279133	0.482299	-0.593464
H159	H	0.678165	0.606812	0.397487
H160	H	0.558951	0.630611	-0.148894
C161	C	0.388175	0.553697	-0.030941
H162	H	0.324084	0.554463	-0.032127
H163	H	0.366733	0.563594	0.040594
H164	H	0.449674	0.518147	-0.063148
H165	H	0.791486	0.417142	0.016430
H166	H	1.456626	0.285888	-0.576104
C167	C	1.343052	0.350401	-0.245263
H168	H	1.282232	0.384489	-0.231620
H169	H	1.312228	0.325636	-0.216132
H170	H	1.395145	0.336724	-0.319862
H171	H	0.400637	0.652941	-0.183142
C172	C	1.391261	0.471649	-0.028608
H173	H	1.439400	0.469035	-0.002043
H174	H	1.313757	0.484824	0.029064
H175	H	1.396683	0.495910	-0.074664
H176	H	0.791468	0.324597	0.016466
C177	C	1.265154	0.578294	-0.594807
H178	H	1.216863	0.575745	-0.524975
H179	H	1.324586	0.543202	-0.636556
H180	H	1.220832	0.592951	-0.626142
C181	C	0.844558	0.625165	-0.621372
H182	H	0.791315	0.636198	-0.546678
H183	H	0.833019	0.599290	-0.651657
H184	H	0.832999	0.655828	-0.651638
C185	C	1.181176	0.555430	-0.767100
H186	H	1.234417	0.544404	-0.841794
H187	H	1.192734	0.524772	-0.736830
H188	H	1.192720	0.581309	-0.736821
C189	C	0.658823	0.217232	0.097583
H190	H	0.597394	0.207457	0.135153
H191	H	0.644125	0.240179	0.053553
H192	H	0.664933	0.235869	0.146874
H193	H	0.688286	0.111293	0.079577
H194	H	0.500656	0.908904	0.380188
C195	C	0.534997	0.595491	0.595417
H196	H	0.574834	0.617099	0.584840
H197	H	0.558150	0.567917	0.628882
H198	H	0.454408	0.617668	0.639283
C199	C	0.761951	-0.038823	0.034547
H200	H	0.700519	-0.048596	0.072114
H201	H	0.747259	-0.015875	-0.009484
H202	H	0.768063	-0.020188	0.083839
C203	C	0.432197	0.896850	0.585446
H204	H	0.406779	0.930963	0.568501
H205	H	0.471355	0.897106	0.620485
H206	H	0.367636	0.890326	0.630866
H207	H	1.320760	0.692709	-0.406218
C208	C	0.761949	-0.145963	0.034560
H209	H	0.776732	-0.183064	0.025534
H210	H	0.709154	-0.126669	0.013825
H211	H	0.729972	-0.130971	0.107140
H212	H	0.453665	0.527226	0.558676
H213	H	0.542323	0.786923	0.567377
C214	C	0.692086	0.697023	0.398910
H215	H	0.740385	0.674464	0.329072
H216	H	0.632670	0.686550	0.440650
H217	H	0.736406	0.693321	0.430246
C218	C	0.776074	0.639353	-0.428824
H219	H	0.722831	0.650386	-0.354131
H220	H	0.764535	0.613478	-0.459109
H221	H	0.764515	0.670017	-0.459090
H222	H	1.165748	-0.222345	-0.212357
C223	C	1.195239	-0.128619	-0.230385
H224	H	1.256664	-0.163853	-0.267951
H225	H	1.209940	-0.111759	-0.186358
H226	H	1.189131	-0.107456	-0.279679
H227	H	1.635322	0.282429	-0.163835
H228	H	1.268949	-0.009034	-0.275427
C229	C	1.525082	0.297941	-0.781364
H230	H	1.550484	0.263827	-0.764417
H231	H	1.589639	0.304459	-0.826800
H232	H	1.485898	0.297689	-0.816384
C233	C	1.298426	0.084696	-0.293455
H234	H	1.359856	0.049463	-0.331017
H235	H	1.313115	0.101560	-0.249422
H236	H	1.292322	0.105857	-0.342752
C237	C	1.195283	0.233610	-0.230435
H238	H	1.256722	0.243379	-0.267997
H239	H	1.189185	0.214962	-0.279716
H240	H	1.209961	0.210676	-0.186375
H241	H	1.529583	0.270777	-0.248912
C242	C	1.195292	0.340749	-0.230455
H243	H	1.256734	0.305520	-0.268023
H244	H	1.209966	0.357615	-0.186410
H245	H	1.189184	0.361914	-0.279747
C246	C	0.295205	0.925193	-0.029438
H247	H	0.265555	0.914015	-0.065422
H248	H	0.319715	0.951559	-0.060119
H249	H	0.236793	0.940466	0.043602
H250	H	0.386076	0.819252	-0.134225
H251	H	0.555899	0.737804	-0.151243
C252	C	0.643855	0.495259	0.182231
H253	H	0.603993	0.473663	0.192813
H254	H	0.724437	0.473082	0.138353
H255	H	0.620691	0.522842	0.148780
H256	H	0.636427	0.834486	0.210379
H257	H	1.414962	0.407870	-0.763294
