data_functionalizedCrystal
_audit_creation_method	'MofGen! by Chris Wilmer'
_symmetry_space_group_name_H-M	'P1'
_symmetry_Int_Tables_number	1
_symmetry_cell_setting	triclinic
loop_
_symmetry_equiv_pos_as_xyz
  x,y,z
_cell_length_a	19.288867
_cell_length_b	15.995292
_cell_length_c	17.766277
_cell_angle_alpha	89.996830
_cell_angle_beta	89.992126
_cell_angle_gamma	83.302842
loop_
_atom_site_label
_atom_site_type_symbol
_atom_site_fract_x
_atom_site_fract_y
_atom_site_fract_z
O1	O	0.921605	0.104462	-0.062563
O2	O	1.421605	0.604462	0.437437
O3	O	0.719379	0.118551	-0.062569
O4	O	1.219379	0.618551	0.437431
O5	O	0.826041	-0.010405	-0.062567
O6	O	1.326041	0.489595	0.437433
O7	O	0.814943	0.233419	-0.062565
O8	O	1.314943	0.733419	0.437435
O9	O	0.826022	-0.010411	0.062622
O10	O	1.326022	0.489589	0.562622
O11	O	0.719360	0.118545	0.062619
O12	O	1.219360	0.618545	0.562619
O13	O	0.921586	0.104456	0.062626
O14	O	1.421586	0.604456	0.562626
Cu15	Cu	0.820472	0.111500	0.074053
Cu16	Cu	1.320472	0.611500	0.574053
Cu17	Cu	0.820494	0.111508	-0.073997
Cu18	Cu	1.320494	0.611508	0.426003
O19	O	0.814924	0.233412	0.062624
O20	O	1.314924	0.733412	0.562624
C21	C	0.693492	0.118095	0.000024
C22	C	1.193492	0.618095	0.500024
C23	C	0.616385	0.116733	0.000021
C24	C	1.116385	0.616733	0.500021
C25	C	0.060806	0.106928	-0.068210
C26	C	0.560806	0.606928	0.431790
C27	C	0.133257	0.108203	-0.068213
C28	C	0.633257	0.608203	0.431787
C29	C	0.169477	0.108840	0.000027
C30	C	0.669477	0.608840	0.500027
C31	C	0.133242	0.108182	0.068275
C32	C	0.633242	0.608182	0.568275
C33	C	0.060794	0.106899	0.068276
C34	C	0.560794	0.606899	0.568276
C35	C	0.278920	0.159911	0.052308
C36	C	0.778920	0.659911	0.552308
C37	C	0.351366	0.161199	0.052305
C38	C	0.851366	0.661199	0.552305
C39	C	0.392932	0.112793	0.000027
C40	C	0.892932	0.612793	0.500027
C41	C	0.362041	0.063110	-0.052259
C42	C	0.862041	0.563110	0.447741
C43	C	0.289593	0.061827	-0.052258
C44	C	0.789593	0.561827	0.447742
C45	C	0.248035	0.110231	0.000034
C46	C	0.748035	0.610231	0.500034
C47	C	0.507718	0.114827	-0.068219
C48	C	1.007718	0.614827	0.431781
C49	C	0.580170	0.116097	-0.068219
C50	C	1.080170	0.616097	0.431781
C51	C	0.580153	0.116084	0.068271
C52	C	1.080153	0.616084	0.568271
C53	C	0.507703	0.114807	0.068269
C54	C	1.007703	0.614807	0.568269
C55	C	0.471489	0.114182	0.000021
C56	C	0.971489	0.614182	0.500021
C57	C	0.825580	-0.041602	0.000025
C58	C	1.325580	0.458398	0.500025
C59	C	0.824226	-0.134550	0.000020
C60	C	1.324226	0.365450	0.500020
C61	C	0.819248	-0.472270	0.000026
C62	C	1.319248	0.027730	0.500026
C63	C	0.896233	-0.449247	0.000309
C64	C	1.396233	0.050753	0.500309
C65	C	0.897697	-0.352577	0.000024
C66	C	1.397697	0.147423	0.500024
C67	C	0.821718	-0.304723	0.000024
C68	C	1.321718	0.195277	0.500024
C69	C	0.783239	-0.333675	-0.071464
C70	C	1.283239	0.166325	0.428536
C71	C	0.782312	-0.430462	-0.071521
C72	C	1.282312	0.069538	0.428479
C73	C	0.780719	-0.430321	0.070841
C74	C	1.280719	0.069679	0.570841
C75	C	0.783572	-0.333839	0.071784
C76	C	1.283572	0.166161	0.571784
C77	C	0.823110	-0.210032	0.000019
C78	C	1.323110	0.289968	0.500019
C79	C	0.817853	-0.566960	0.000026
C80	C	1.317853	-0.066960	0.500026
C81	C	0.947473	0.104913	0.000031
C82	C	1.447473	0.604913	0.500031
C83	C	1.024580	0.106274	0.000029
C84	C	1.524580	0.606274	0.500029
C85	C	0.815385	0.264609	0.000030
C86	C	1.315385	0.764609	0.500030
C87	C	0.816739	0.357557	0.000030
C88	C	1.316739	0.857557	0.500030
N89	N	0.820461	0.111494	0.178184
N90	N	1.320461	0.611494	0.678184
N91	N	0.820510	0.111507	-0.178127
N92	N	1.320510	0.611507	0.321873
C93	C	0.867706	0.054420	0.217572
C94	C	1.367706	0.554420	0.717572
C95	C	0.867710	0.054416	0.296373
C96	C	1.367710	0.554416	0.796373
C97	C	0.820476	0.111501	0.335784
C98	C	1.320476	0.611501	0.835784
C99	C	0.773221	0.168579	0.296387
C100	C	1.273221	0.668579	0.796387
C101	C	0.773214	0.168576	0.217586
C102	C	1.273214	0.668576	0.717586
C103	C	0.811362	0.187793	0.460623
C104	C	1.311362	0.687793	0.960623
C105	C	0.811374	0.187798	0.539421
C106	C	1.311374	0.687798	1.039421
C107	C	0.820494	0.111511	0.578831
C108	C	1.320494	0.611511	1.078831
C109	C	0.829617	0.035216	0.539431
C110	C	1.329617	0.535216	1.039431
C111	C	0.829610	0.035212	0.460631
C112	C	1.329610	0.535212	0.960631
C113	C	0.820478	0.111510	0.421230
C114	C	1.320478	0.611510	0.921230
C115	C	0.867747	0.054428	0.703664
C116	C	1.367747	0.554428	1.203664
C117	C	0.867746	0.054423	0.782468
C118	C	1.367746	0.554423	1.282468
C119	C	0.773260	0.168593	0.782480
C120	C	1.273260	0.668593	1.282480
C121	C	0.773258	0.168591	0.703678
C122	C	1.273258	0.668591	1.203678
C123	C	0.820505	0.111509	0.664275
C124	C	1.320505	0.611509	1.164275
H125	H	0.264445	0.021371	-0.094830
H126	H	0.764445	0.521371	0.405170
Br127	Br	0.011626	0.106013	0.160893
Br128	Br	0.511626	0.606013	0.660893
Br129	Br	0.931864	-0.023042	0.650187
Br130	Br	1.431864	0.476958	1.150187
Br131	Br	0.826758	-0.475326	-0.160585
Br132	Br	1.326758	0.024674	0.339415
H133	H	0.376510	0.201675	0.094863
H134	H	0.876510	0.701675	0.594863
Br135	Br	0.947905	-0.321052	0.085448
Br136	Br	1.447905	0.178948	0.585448
Br137	Br	0.931823	-0.023048	0.164096
Br138	Br	1.431823	0.476952	0.664096
H139	H	0.803923	0.249919	0.428542
H140	H	1.303923	0.749919	0.928542
H141	H	0.734761	0.215057	0.328479
H142	H	1.234761	0.715057	0.828479
H143	H	0.609665	0.116623	-0.123790
H144	H	1.109665	0.616623	0.376210
Br145	Br	0.458534	0.113931	0.160884
Br146	Br	0.958534	0.613931	0.660884
Br147	Br	0.799001	0.291339	0.592884
Br148	Br	1.299001	0.791339	1.092884
H149	H	0.245083	0.199326	0.094887
H150	H	0.745083	0.699326	0.594887
H151	H	0.734740	0.215053	0.185516
H152	H	1.234740	0.715053	0.685516
Br153	Br	0.688235	-0.454366	-0.076934
Br154	Br	1.188235	0.045634	0.423066
H155	H	0.162738	0.108699	0.123837
H156	H	0.662738	0.608699	0.623837
Br157	Br	0.686270	-0.453283	0.071646
Br158	Br	1.186270	0.046717	0.571646
H159	H	0.925750	-0.478373	-0.050669
H160	H	1.425750	0.021627	0.449331
Br161	Br	0.011662	0.106076	-0.160831
Br162	Br	0.511662	0.606076	0.339169
Br163	Br	0.629303	0.116931	0.160884
Br164	Br	1.129303	0.616931	0.660884
Br165	Br	0.458566	0.113976	-0.160838
Br166	Br	0.958566	0.613976	0.339162
H167	H	0.906184	0.007938	0.328449
H168	H	1.406184	0.507938	0.828449
Br169	Br	0.709138	0.246054	0.650216
Br170	Br	1.209138	0.746054	1.150216
Br171	Br	0.945684	-0.496098	0.085759
Br172	Br	1.445684	0.003902	0.585759
H173	H	0.837044	-0.026905	0.571516
H174	H	1.337044	0.473095	1.071516
H175	H	0.727329	-0.301597	-0.074122
H176	H	1.227329	0.198403	0.425878
Br177	Br	0.418442	-0.002583	-0.123217
Br178	Br	0.918442	0.497417	0.376783
Br179	Br	0.182432	0.109090	-0.160830
Br180	Br	0.682432	0.609090	0.339170
Br181	Br	0.931863	-0.023048	0.835927
Br182	Br	1.431863	0.476952	1.335927
H183	H	0.928026	-0.334284	-0.051309
H184	H	1.428026	0.165716	0.448691
H185	H	0.809975	-0.313713	-0.124664
H186	H	1.309975	0.186287	0.375336
Br187	Br	0.820846	-0.477645	0.161153
Br188	Br	1.320846	0.022355	0.661153
H189	H	0.734798	0.215069	0.814567
H190	H	1.234798	0.715069	1.314567
H191	H	0.811590	-0.315382	0.124670
H192	H	1.311590	0.184618	0.624670
H193	H	0.837036	-0.026909	0.428555
H194	H	1.337036	0.473091	0.928555
H195	H	0.728114	-0.300661	0.076101
H196	H	1.228114	0.199339	0.576101
