data_functionalizedCrystal
_audit_creation_method	'MofGen! by Chris Wilmer'
_symmetry_space_group_name_H-M	'P1'
_symmetry_Int_Tables_number	1
_symmetry_cell_setting	triclinic
loop_
_symmetry_equiv_pos_as_xyz
  x,y,z
_cell_length_a	6.394984
_cell_length_b	14.971486
_cell_length_c	13.448316
_cell_angle_alpha	90.001801
_cell_angle_beta	89.995007
_cell_angle_gamma	94.945259
loop_
_atom_site_label
_atom_site_type_symbol
_atom_site_fract_x
_atom_site_fract_y
_atom_site_fract_z
O1	O	0.272213	-1.189889	-0.082574
O2	O	0.304811	-0.929841	-0.082601
O3	O	-0.015544	-1.063559	-0.082584
O4	O	0.592568	-1.056171	-0.082591
O5	O	-0.015563	-1.063541	0.082800
O6	O	0.304792	-0.929823	0.082783
O7	O	0.272194	-1.189871	0.082810
Cu8	Cu	0.288491	-1.059846	0.097897
Cu9	Cu	0.288514	-1.059866	-0.097688
O10	O	0.592548	-1.056154	0.082793
C11	C	0.303344	-0.896492	0.000088
C12	C	0.298975	-0.797147	0.000078
C13	C	0.906624	-1.062081	0.000111
C14	C	0.670376	-1.057629	0.000108
C15	C	0.273661	-1.223221	0.000119
C16	C	0.278030	-1.322565	0.000123
N17	N	0.288473	-1.059838	0.235462
N18	N	0.288515	-1.059881	-0.235252
C19	C	0.487175	-0.741956	0.000077
C20	C	0.483057	-0.648612	0.000092
C21	C	0.290738	-0.610461	0.000100
C22	C	0.102524	-0.665660	0.000104
C23	C	0.106643	-0.759002	0.000096
C24	C	0.093951	-0.471105	0.000118
C25	C	0.089830	-0.377757	0.000124
C26	C	0.470365	-0.360715	0.000113
C27	C	0.474484	-0.454057	0.000106
C28	C	0.286269	-0.509249	0.000107
C29	C	0.146678	-1.119068	0.287509
C30	C	0.146677	-1.119073	0.391613
C31	C	0.288481	-1.059853	0.443666
C32	C	0.430283	-1.000617	0.391611
C33	C	0.430273	-1.000607	0.287510
C34	C	0.430297	-1.000642	0.608591
C35	C	0.430310	-1.000652	0.712700
C36	C	0.146701	-1.119107	0.712694
C37	C	0.146691	-1.119098	0.608593
C38	C	0.288495	-1.059863	0.556545
H39	H	0.643783	-0.773010	0.000069
O40	O	0.568220	-0.943042	0.237102
C41	C	0.693351	-0.890760	0.305365
H42	H	0.695865	-0.927465	0.379567
H43	H	0.860112	-0.878984	0.275276
H44	H	0.625266	-0.823554	0.316453
H45	H	-0.054066	-0.634591	0.000125
H46	H	0.031239	-1.167338	0.755077
O47	O	0.008448	-1.176529	0.558185
C48	C	-0.198225	-1.159566	0.583818
H49	H	-0.199236	-1.087912	0.612378
H50	H	-0.303308	-1.168689	0.515461
H51	H	-0.259252	-1.208380	0.644341
H52	H	0.545736	-0.952393	0.433999
H53	H	-0.059314	-0.516041	0.000121
H54	H	0.636309	-0.603678	0.000090
H55	H	0.545780	-0.952427	0.755077
O56	O	0.661481	-0.490971	0.000140
C57	C	0.826722	-0.422244	0.000116
H58	H	0.768019	-0.358204	0.031433
H59	H	0.960972	-0.443259	0.048127
H60	H	0.884795	-0.409695	-0.079227
O61	O	-0.076229	-0.812582	-0.000085
C62	C	-0.192999	-0.794941	-0.085722
H63	H	-0.082802	-0.764291	-0.145590
H64	H	-0.276587	-0.860193	-0.114476
H65	H	-0.314030	-0.746077	-0.066351
H66	H	0.623616	-0.315772	0.000116
H67	H	-0.066773	-0.346698	0.000132
O68	O	0.008726	-1.176627	0.237103
C69	C	-0.116392	-1.228920	0.305371
H70	H	-0.118883	-1.192227	0.379583
H71	H	-0.283161	-1.240687	0.275303
H72	H	-0.048309	-1.296128	0.316428
O73	O	0.009237	-1.176651	0.442286
C74	C	0.121344	-1.233101	0.502470
H75	H	0.284656	-1.199308	0.518055
H76	H	0.034226	-1.246277	0.575680
H77	H	0.135801	-1.299364	0.462344
H78	H	0.545763	-0.952403	0.566217
