data_functionalizedCrystal
_audit_creation_method	'MofGen! by Chris Wilmer'
_symmetry_space_group_name_H-M	'P1'
_symmetry_Int_Tables_number	1
_symmetry_cell_setting	triclinic
loop_
_symmetry_equiv_pos_as_xyz
  x,y,z
_cell_length_a	12.759401
_cell_length_b	29.839125
_cell_length_c	12.759399
_cell_angle_alpha	90.011795
_cell_angle_beta	89.984458
_cell_angle_gamma	89.990815
loop_
_atom_site_label
_atom_site_type_symbol
_atom_site_fract_x
_atom_site_fract_y
_atom_site_fract_z
Zn1	Zn	1.606154	-0.253990	0.418402
Zn2	Zn	1.606076	-0.178868	0.594059
Zn3	Zn	1.430485	-0.178876	0.418396
Zn4	Zn	1.430444	-0.253973	0.594040
O5	O	1.518290	-0.216427	0.506224
O6	O	1.753165	-0.244029	0.441713
O7	O	1.582769	-0.116002	0.570762
O8	O	1.453838	-0.188851	0.271375
O9	O	1.753108	-0.188837	0.570768
O10	O	1.582902	-0.244037	0.271380
O11	O	1.453763	-0.116008	0.441703
O12	O	1.283459	-0.188835	0.441685
O13	O	1.453767	-0.316842	0.570737
O14	O	1.283428	-0.244008	0.570731
O15	O	1.582861	-0.316855	0.441695
O16	O	1.582728	-0.188820	0.741077
O17	O	1.453692	-0.243999	0.741064
C18	C	1.245323	-0.216421	0.506206
C19	C	1.128546	-0.216428	0.506224
C20	C	1.073715	-0.245211	0.439146
C21	C	0.963990	-0.245214	0.439157
C22	C	0.963939	-0.187650	0.573331
C23	C	1.073661	-0.187645	0.573314
C24	C	1.518318	-0.333605	0.506215
C25	C	1.518331	-0.383540	0.506211
C26	C	1.585620	-0.693193	0.438843
C27	C	1.585673	-0.880866	0.438753
O28	O	1.642807	-0.905139	0.381575
N29	N	1.518470	-0.904325	0.505929
C30	C	1.451244	-0.880863	0.573127
O31	O	1.394078	-0.905123	0.630255
C32	C	1.451188	-0.693191	0.573211
C33	C	1.518402	-0.669734	0.506038
C34	C	1.652829	-0.669736	0.371675
C35	C	1.652819	-0.622821	0.371702
C36	C	1.585601	-0.599362	0.438897
C37	C	1.518393	-0.622819	0.506065
C38	C	1.383958	-0.669729	0.640403
C39	C	1.383948	-0.622808	0.640416
C40	C	1.451163	-0.599352	0.573243
C41	C	1.451165	-0.552444	0.573288
N42	N	1.518368	-0.528985	0.506112
C43	C	1.585586	-0.552444	0.438917
C44	C	1.451280	-0.979394	0.573080
C45	C	1.451296	-1.026311	0.573061
C46	C	1.585723	-1.026311	0.438685
C47	C	1.585712	-0.979392	0.438711
C48	C	1.518483	-0.955935	0.505904
C49	C	1.585561	-0.453918	0.438979
C50	C	1.585549	-0.406998	0.439015
C51	C	1.451118	-0.407003	0.573387
C52	C	1.451134	-0.453918	0.573355
C53	C	1.518359	-0.477375	0.506143
O54	O	1.394053	-0.528142	0.630428
O55	O	1.642727	-0.528176	0.381781
C56	C	1.585630	-0.740108	0.438816
C57	C	1.518422	-0.763565	0.505984
C58	C	1.451204	-0.740106	0.573179
C59	C	1.518437	-0.810483	0.505965
C60	C	1.585655	-0.833942	0.438769
C61	C	1.652858	-0.810482	0.371594
C62	C	1.652848	-0.763567	0.371621
C63	C	1.384001	-0.763565	0.640355
C64	C	1.384017	-0.810481	0.640323
C65	C	1.451235	-0.833940	0.573128
C66	C	1.792323	-0.216434	0.506243
C67	C	1.909100	-0.216436	0.506251
C68	C	1.518226	-0.216417	0.779191
C69	C	1.518294	-0.216427	0.895968
C70	C	1.518322	-0.099704	0.506158
C71	C	1.518514	-0.049770	0.505866
C72	C	1.518383	-0.216447	0.232191
C73	C	1.518423	-0.216456	0.115414
C74	C	1.585560	-0.187728	0.950802
C75	C	1.585628	-0.187743	1.060526
C76	C	1.451154	-0.245158	1.060572
C77	C	1.451093	-0.245145	0.950850
H78	H	0.919238	-0.164217	0.627955
H79	H	1.396440	-0.268538	1.105271
O80	O	1.127193	-0.273152	0.374069
C81	C	1.235796	-0.266970	0.388417
H82	H	1.250765	-0.252197	0.469442
H83	H	1.277516	-0.300625	0.381401
H84	H	1.266925	-0.243090	0.326010
H85	H	1.329285	-0.829575	0.695033
H86	H	1.118306	-0.164205	0.627938
H87	H	1.396535	-0.960298	0.627804
O88	O	1.650875	-0.384283	0.373659
C89	C	1.710219	-0.415053	0.314364
H90	H	1.667190	-0.448495	0.310709
H91	H	1.721452	-0.401498	0.231593
H92	H	1.790000	-0.420046	0.352840
O93	O	1.385647	-0.273039	0.897740
C94	C	1.326359	-0.298394	0.969706
H95	H	1.322788	-0.280002	1.047945
H96	H	1.243559	-0.303154	0.938062
H97	H	1.364786	-0.332529	0.981305
O98	O	0.910890	-0.273217	0.373968
C99	C	0.982866	-0.298610	0.314732
H100	H	1.061073	-0.300130	0.357763
H101	H	0.951187	-0.334016	0.303659
H102	H	0.994539	-0.282219	0.234878
H103	H	1.707566	-0.688831	0.316951
O104	O	1.718023	-0.740808	0.306207
C105	C	1.695105	-0.752289	0.201498
H106	H	1.611173	-0.765180	0.196195
H107	H	1.704173	-0.721441	0.149590
H108	H	1.751436	-0.779531	0.174037
O109	O	1.650790	-0.159773	0.897603
C110	C	1.627901	-0.114992	0.924467
H111	H	1.587560	-0.114056	1.004167
H112	H	1.703761	-0.094876	0.928181
H113	H	1.573876	-0.099833	0.862777
O114	O	1.650917	-0.476749	0.373840
C115	C	1.718782	-0.503881	0.433643
H116	H	1.681699	-0.510916	0.513252
H117	H	1.732896	-0.536871	0.390824
H118	H	1.796626	-0.485798	0.445211
H119	H	1.707550	-0.603726	0.317001
O120	O	1.385902	-0.476659	0.638754
C121	C	1.408840	-0.465210	0.743479
H122	H	1.449224	-0.431147	0.745688
H123	H	1.332997	-0.463604	0.790582
H124	H	1.462844	-0.491621	0.778850
O125	O	1.385688	-0.384264	0.638622
C126	C	1.280980	-0.395714	0.615642
H127	H	1.278815	-0.429778	0.575229
H128	H	1.233855	-0.397321	0.691468
H129	H	1.245602	-0.369304	0.561649
O130	O	1.651031	-0.956678	0.373355
C131	C	1.710379	-0.987450	0.314070
H132	H	1.667355	-1.020894	0.310425
H133	H	1.721612	-0.973900	0.231295
H134	H	1.790160	-0.992440	0.352549
O135	O	1.650911	-1.049173	0.373435
C136	C	1.636518	-1.095612	0.387846
H137	H	1.555435	-1.102013	0.422268
H138	H	1.643650	-1.113446	0.309143
H139	H	1.698830	-1.108930	0.443779
H140	H	1.396574	-1.045406	0.627771
O141	O	1.718002	-0.833295	0.306204
C142	C	1.658202	-0.860439	0.238356
H143	H	1.575458	-0.846293	0.231873
H144	H	1.696221	-0.860977	0.157501
H145	H	1.654572	-0.895996	0.270828
O146	O	1.318560	-0.692438	0.705683
C147	C	1.259250	-0.661663	0.764998
H148	H	1.255641	-0.628220	0.721972
H149	H	1.176465	-0.675210	0.776183
H150	H	1.297685	-0.656674	0.844801
O151	O	1.318793	-0.599970	0.705745
C152	C	1.378583	-0.572843	0.773639
H153	H	1.458214	-0.565818	0.736594
H154	H	1.335780	-0.539849	0.787734
H155	H	1.390102	-0.590927	0.851488
H156	H	1.329264	-0.744470	0.695076
H157	H	1.640404	-0.164374	1.105167
