data_functionalizedCrystal
_audit_creation_method	'MofGen! by Chris Wilmer'
_symmetry_space_group_name_H-M	'P1'
_symmetry_Int_Tables_number	1
_symmetry_cell_setting	triclinic
loop_
_symmetry_equiv_pos_as_xyz
  x,y,z
_cell_length_a	10.489741
_cell_length_b	10.489716
_cell_length_c	16.176319
_cell_angle_alpha	89.997268
_cell_angle_beta	89.995299
_cell_angle_gamma	84.534155
loop_
_atom_site_label
_atom_site_type_symbol
_atom_site_fract_x
_atom_site_fract_y
_atom_site_fract_z
O1	O	1.694043	0.179973	-0.068687
O2	O	1.322846	0.196866	-0.068699
O3	O	1.516907	0.002820	-0.068696
O4	O	1.499982	0.374019	-0.068691
O5	O	1.516880	0.002807	0.068797
O6	O	1.322819	0.196853	0.068794
O7	O	1.694016	0.179960	0.068806
Cu8	Cu	1.508415	0.188406	0.081354
Cu9	Cu	1.508447	0.188421	-0.081248
O10	O	1.499955	0.374007	0.068803
C11	C	1.275301	0.195584	0.000046
C12	C	1.133672	0.191767	0.000041
C13	C	1.515622	-0.044719	0.000048
C14	C	1.511817	-0.186350	0.000040
C15	C	1.065542	0.068301	0.000047
C16	C	0.973424	0.126631	-0.067742
C17	C	0.973431	0.126648	0.067815
C18	C	1.043418	0.250148	-0.067804
C19	C	1.043435	0.250148	0.067814
C20	C	0.951344	0.308568	0.000009
C21	C	1.630822	-0.284024	0.000052
C22	C	1.567950	-0.361378	-0.067739
C23	C	1.567896	-0.361355	0.067818
C24	C	1.448996	-0.261839	-0.067807
C25	C	1.448959	-0.261810	0.067812
C26	C	1.386000	-0.339115	0.000004
C27	C	1.741561	0.181243	0.000059
C28	C	1.883190	0.185060	0.000059
C29	C	1.501240	0.421545	0.000057
C30	C	1.505044	0.563176	0.000059
N31	N	1.508402	0.188394	0.195719
N32	N	1.508470	0.188422	-0.195613
C33	C	1.594358	0.102506	0.238985
C34	C	1.594365	0.102505	0.325532
C35	C	1.508420	0.188399	0.368812
C36	C	1.422454	0.274291	0.325540
C37	C	1.422442	0.274285	0.238995
C38	C	1.422498	0.274315	0.674568
C39	C	1.422518	0.274317	0.761120
C40	C	1.594420	0.102535	0.761106
C41	C	1.594409	0.102530	0.674560
C42	C	1.508439	0.188416	0.631296
C43	C	1.508431	0.188415	0.537452
C44	C	1.508432	0.188407	0.462654
H45	H	0.942425	0.074395	-0.125055
H46	H	1.074465	0.302341	0.125130
C47	C	1.764321	-0.067262	0.316825
C48	C	1.688872	0.008114	0.373090
H49	H	1.822675	-0.125528	0.346187
H50	H	1.710817	-0.113684	0.283084
H51	H	1.810656	-0.013690	0.283055
H52	H	1.642529	-0.045458	0.406855
H53	H	1.742382	0.054539	0.406845
C54	C	1.443711	-0.253517	0.216108
C55	C	1.381190	-0.203054	0.145180
H56	H	1.401884	-0.217234	0.263875
H57	H	1.441441	-0.343811	0.216942
H58	H	1.530208	-0.233707	0.215614
H59	H	1.294695	-0.222871	0.145671
H60	H	1.383447	-0.112739	0.144346
C61	C	1.737919	-0.507850	0.121159
C62	C	1.635722	-0.420038	0.145191
H63	H	1.779800	-0.544069	0.168924
H64	H	1.706379	-0.573830	0.089037
H65	H	1.796896	-0.465195	0.089228
H66	H	1.576739	-0.462696	0.177117
H67	H	1.667261	-0.354048	0.177327
H68	H	1.074253	0.302354	-0.125179
H69	H	1.282408	-0.363546	-0.000036
C70	C	0.989805	-0.069705	0.145040
C71	C	0.931602	0.056097	0.145185
H72	H	0.963988	-0.113261	0.192805
H73	H	0.964667	-0.112721	0.096906
H74	H	1.080234	-0.068445	0.145326
H75	H	0.841172	0.054837	0.144893
H76	H	0.956731	0.099124	0.193332
C77	C	1.832580	-0.301119	-0.071144
C78	C	1.770535	-0.250637	-0.000055
H79	H	1.918823	-0.280480	-0.071220
H80	H	1.831144	-0.391516	-0.071619
H81	H	1.789861	-0.265578	-0.118804
H82	H	1.813250	-0.286185	0.047605
H83	H	1.771979	-0.160222	0.000428
C84	C	1.764324	-0.067287	0.683242
C85	C	1.688878	0.008108	0.626988
H86	H	1.822637	-0.125586	0.653871
H87	H	1.810694	-0.013740	0.716985
H88	H	1.710804	-0.113682	0.717010
H89	H	1.742397	0.054511	0.593224
H90	H	1.642505	-0.045445	0.593230
C91	C	1.252559	0.444106	0.752446
C92	C	1.328028	0.368727	0.808695
H93	H	1.194224	0.502380	0.781819
H94	H	1.306052	0.490519	0.718682
H95	H	1.206201	0.390536	0.718697
H96	H	1.374393	0.422296	0.842440
H97	H	1.274528	0.322311	0.842473
H98	H	1.115241	-0.033196	-0.000040
H99	H	1.664350	0.032567	0.203752
C100	C	1.396382	0.447655	0.577250
C101	C	1.328018	0.368742	0.627023
H102	H	1.338052	0.505952	0.547894
H103	H	1.449896	0.494043	0.611006
H104	H	1.447548	0.396486	0.539086
H105	H	1.276859	0.419911	0.665192
H106	H	1.274482	0.322351	0.593264
C107	C	1.346149	0.350588	0.458213
C108	C	1.327983	0.368711	0.373112
H109	H	1.287831	0.408890	0.487578
H110	H	1.331524	0.265330	0.472401
H111	H	1.431410	0.365276	0.472375
H112	H	1.242724	0.354014	0.358949
H113	H	1.342598	0.453990	0.358918
H114	H	1.664418	0.032597	0.796341
C115	C	1.252531	0.444101	0.247696
C116	C	1.327961	0.368702	0.191434
H117	H	1.194205	0.502394	0.218333
H118	H	1.206175	0.390557	0.281459
H119	H	1.306059	0.490505	0.281444
H120	H	1.274433	0.322291	0.157689
H121	H	1.374320	0.422254	0.157657
H122	H	0.901911	0.410172	-0.000027
H123	H	1.398798	-0.218529	-0.125183
C124	C	1.574730	-0.367872	-0.216058
C125	C	1.635779	-0.420090	-0.145107
H126	H	1.616617	-0.404110	-0.263819
H127	H	1.487834	-0.386362	-0.216131
H128	H	1.578356	-0.277731	-0.216350
H129	H	1.632144	-0.510230	-0.144812
H130	H	1.722697	-0.401610	-0.145034
