data_functionalizedCrystal
_audit_creation_method	'MofGen! by Chris Wilmer'
_symmetry_space_group_name_H-M	'P1'
_symmetry_Int_Tables_number	1
_symmetry_cell_setting	triclinic
loop_
_symmetry_equiv_pos_as_xyz
  x,y,z
_cell_length_a	13.897449
_cell_length_b	12.827892
_cell_length_c	12.827885
_cell_angle_alpha	89.970214
_cell_angle_beta	90.020099
_cell_angle_gamma	89.983328
loop_
_atom_site_label
_atom_site_type_symbol
_atom_site_fract_x
_atom_site_fract_y
_atom_site_fract_z
Zn1	Zn	1.474712	0.415947	0.590872
Zn2	Zn	1.724712	0.665947	0.840872
Zn3	Zn	1.974712	0.915947	1.090872
Zn4	Zn	2.224712	1.165947	1.340872
Zn5	Zn	1.474614	0.590724	0.416132
Zn6	Zn	1.724614	0.840724	0.666132
Zn7	Zn	1.974614	1.090724	0.916132
Zn8	Zn	2.224614	1.340724	1.166132
Zn9	Zn	1.313403	0.416002	0.416143
Zn10	Zn	1.563403	0.666002	0.666143
Zn11	Zn	1.813403	0.916002	0.916143
Zn12	Zn	2.063403	1.166002	1.166143
Zn13	Zn	1.313389	0.590650	0.590830
Zn14	Zn	1.563389	0.840650	0.840830
Zn15	Zn	1.813389	1.090650	1.090830
Zn16	Zn	2.063389	1.340650	1.340830
O17	O	1.394030	0.503331	0.503494
O18	O	1.644030	0.753331	0.753494
O19	O	1.894030	1.003331	1.003494
O20	O	2.144030	1.253331	1.253494
O21	O	1.609681	0.439139	0.567705
O22	O	1.859681	0.689139	0.817705
O23	O	2.109681	0.939139	1.067705
O24	O	2.359681	1.189139	1.317705
O25	O	1.453194	0.567601	0.269897
O26	O	1.703194	0.817601	0.519897
O27	O	1.953194	1.067601	0.769897
O28	O	2.203194	1.317601	1.019897
O29	O	1.334848	0.269758	0.439343
O30	O	1.584848	0.519758	0.689343
O31	O	1.834848	0.769758	0.939343
O32	O	2.084848	1.019758	1.189343
O33	O	1.609609	0.567547	0.439325
O34	O	1.859609	0.817547	0.689325
O35	O	2.109609	1.067547	0.939325
O36	O	2.359609	1.317547	1.189325
O37	O	1.453361	0.269718	0.567716
O38	O	1.703361	0.519718	0.817716
O39	O	1.953361	0.769718	1.067716
O40	O	2.203361	1.019718	1.317716
O41	O	1.334753	0.439233	0.269905
O42	O	1.584753	0.689233	0.519905
O43	O	1.834753	0.939233	0.769905
O44	O	2.084753	1.189233	1.019905
O45	O	1.178420	0.439161	0.439302
O46	O	1.428420	0.689161	0.689302
O47	O	1.678420	0.939161	0.939302
O48	O	1.928420	1.189161	1.189302
O49	O	1.334824	0.567422	0.737071
O50	O	1.584824	0.817422	0.987071
O51	O	1.834824	1.067422	1.237071
O52	O	2.084824	1.317422	1.487071
O53	O	1.178410	0.567475	0.567644
O54	O	1.428410	0.817475	0.817644
O55	O	1.678410	1.067475	1.067644
O56	O	1.928410	1.317475	1.317644
O57	O	1.453347	0.439068	0.737102
O58	O	1.703347	0.689068	0.987102
O59	O	1.953347	0.939068	1.237102
O60	O	2.203347	1.189068	1.487102
O61	O	1.453181	0.736950	0.439284
O62	O	1.703181	0.986950	0.689284
O63	O	1.953181	1.236950	0.939284
O64	O	2.203181	1.486950	1.189284
O65	O	1.334730	0.736896	0.567633
O66	O	1.584730	0.986896	0.817633
O67	O	1.834730	1.236896	1.067633
O68	O	2.084730	1.486896	1.317633
C69	C	1.393969	0.774841	0.503476
C70	C	1.643969	1.024841	0.753476
C71	C	1.893969	1.274841	1.003476
C72	C	2.143969	1.524841	1.253476
C73	C	1.394032	0.890994	0.503503
C74	C	1.644032	1.140994	0.753503
C75	C	1.894032	1.390994	1.003503
C76	C	2.144032	1.640994	1.253503
C77	C	1.143415	0.503317	0.503470
C78	C	1.393415	0.753317	0.753470
C79	C	1.643415	1.003317	1.003470
C80	C	1.893415	1.253317	1.253470
C81	C	1.036201	0.503336	0.503485
C82	C	1.286201	0.753336	0.753485
C83	C	1.536201	1.003336	1.003485
C84	C	1.786201	1.253336	1.253485
C85	C	1.394095	0.503230	0.776064
C86	C	1.644095	0.753230	1.026064
C87	C	1.894095	1.003230	1.276064
C88	C	2.144095	1.253230	1.526064
C89	C	1.394123	0.503188	0.892218
C90	C	1.644123	0.753188	1.142218
C91	C	1.894123	1.003188	1.392218
C92	C	2.144123	1.253188	1.642218
C93	C	0.839906	0.503340	0.503512
C94	C	1.089906	0.753340	0.753512
C95	C	1.339906	1.003340	1.003512
C96	C	1.589906	1.253340	1.253512
C97	C	0.949139	0.503334	0.503494
C98	C	1.199139	0.753334	0.753494
C99	C	1.449139	1.003334	1.003494
C100	C	1.699139	1.253334	1.253494
C101	C	1.645623	0.503345	0.503519
C102	C	1.895623	0.753345	0.753519
C103	C	2.145623	1.003345	1.003519
C104	C	2.395623	1.253345	1.253519
C105	C	1.752836	0.503352	0.503529
C106	C	2.002836	0.753352	0.753529
C107	C	2.252836	1.003352	1.003529
C108	C	2.502836	1.253352	1.253529
C109	C	1.394116	0.230761	0.503535
C110	C	1.644116	0.480761	0.753535
C111	C	1.894116	0.730761	1.003535
C112	C	2.144116	0.980761	1.253535
C113	C	1.394153	0.114607	0.503553
C114	C	1.644153	0.364607	0.753553
C115	C	1.894153	0.614607	1.003553
C116	C	2.144153	0.864607	1.253553
C117	C	1.452715	0.942771	0.440062
C118	C	1.702715	1.192771	0.690062
C119	C	1.952715	1.442771	0.940062
C120	C	2.202715	1.692771	1.190062
C121	C	1.452781	1.062821	0.440088
C122	C	1.702781	1.312821	0.690088
C123	C	1.952781	1.562821	0.940088
C124	C	2.202781	1.812821	1.190088
C125	C	1.394020	0.503355	0.231984
C126	C	1.644020	0.753355	0.481984
C127	C	1.894020	1.003355	0.731984
C128	C	2.144020	1.253355	0.981984
C129	C	1.394179	0.503104	0.115832
C130	C	1.644179	0.753104	0.365832
C131	C	1.894179	1.003104	0.615832
C132	C	2.144179	1.253104	0.865832
C133	C	1.452779	0.439662	0.944018
C134	C	1.702779	0.689662	1.194018
C135	C	1.952779	0.939662	1.444018
C136	C	2.202779	1.189662	1.694018
C137	C	1.452809	0.439616	1.064068
C138	C	1.702809	0.689616	1.314068
C139	C	1.952809	0.939616	1.564068
C140	C	2.202809	1.189616	1.814068
H141	H	1.502911	0.898225	0.385731
H142	H	1.752911	1.148225	0.635731
H143	H	2.002911	1.398225	0.885731
H144	H	2.252911	1.648225	1.135731
F145	F	1.328475	1.056418	0.574546
F146	F	1.578475	1.306418	0.824546
F147	F	1.828475	1.556418	1.074546
F148	F	2.078475	1.806418	1.324546
F149	F	1.518447	1.121017	0.369088
F150	F	1.768447	1.371017	0.619088
F151	F	2.018447	1.621017	0.869088
F152	F	2.268447	1.871017	1.119088
H153	H	1.503029	0.385232	1.108615
H154	H	1.753029	0.635232	1.358615
H155	H	2.003029	0.885232	1.608615
H156	H	2.253029	1.135232	1.858615
H157	H	1.343844	0.935542	0.557840
H158	H	1.593844	1.185542	0.807840
H159	H	1.843844	1.435542	1.057840
H160	H	2.093844	1.685542	1.307840
F161	F	1.328508	0.574229	0.950414
F162	F	1.578508	0.824229	1.200414
F163	F	1.828508	1.074229	1.450414
F164	F	2.078508	1.324229	1.700414
H165	H	1.502970	0.385305	0.899489
H166	H	1.752970	0.635305	1.149489
H167	H	2.002970	0.885305	1.399489
H168	H	2.252970	1.135305	1.649489
H169	H	1.343963	0.557497	1.071291
H170	H	1.593963	0.807497	1.321291
H171	H	1.843963	1.057497	1.571291
H172	H	2.093963	1.307497	1.821291
