data_functionalizedCrystal
_audit_creation_method	'MofGen! by Chris Wilmer'
_symmetry_space_group_name_H-M	'P1'
_symmetry_Int_Tables_number	1
_symmetry_cell_setting	triclinic
loop_
_symmetry_equiv_pos_as_xyz
  x,y,z
_cell_length_a	16.109301
_cell_length_b	14.519709
_cell_length_c	14.586319
_cell_angle_alpha	89.995260
_cell_angle_beta	89.999213
_cell_angle_gamma	83.570813
loop_
_atom_site_label
_atom_site_type_symbol
_atom_site_fract_x
_atom_site_fract_y
_atom_site_fract_z
O1	O	1.103336	0.118540	-0.076184
O2	O	0.861300	0.133292	-0.076199
O3	O	0.988735	-0.008336	-0.076183
O4	O	0.975901	0.260168	-0.076200
O5	O	0.988726	-0.008338	0.076298
O6	O	0.861291	0.133290	0.076282
O7	O	1.103327	0.118538	0.076296
Cu8	Cu	0.982308	0.125914	0.090212
Cu9	Cu	0.982319	0.125916	-0.090114
O10	O	0.975892	0.260166	0.076280
C11	C	0.830319	0.132693	0.000039
C12	C	0.738021	0.130902	0.000034
C13	C	0.515887	0.210775	0.000040
C14	C	0.429163	0.209085	0.000046
C15	C	0.448747	0.041048	0.000053
C16	C	0.535468	0.042739	0.000053
C17	C	0.569036	0.127606	0.000042
C18	C	0.395591	0.124224	0.000047
C19	C	0.301562	0.122390	0.000054
C20	C	0.663071	0.129440	0.000037
C21	C	0.988132	-0.042696	0.000057
C22	C	0.986340	-0.145073	0.000058
C23	C	0.979741	-0.519955	0.000034
C24	C	0.981574	-0.415651	0.000041
C25	C	0.983041	-0.332517	0.000047
C26	C	0.984873	-0.228207	0.000052
C27	C	1.134307	0.119136	0.000056
C28	C	1.226606	0.120928	0.000055
C29	C	0.976494	0.294526	0.000038
C30	C	0.978287	0.396903	0.000031
N31	N	0.982307	0.125911	0.217044
N32	N	0.982326	0.125911	-0.216946
C33	C	1.038754	0.063219	0.452057
C34	C	1.038756	0.063217	0.548038
C35	C	0.925873	0.188606	0.548034
C36	C	0.925868	0.188603	0.452054
C37	C	0.982313	0.125911	0.404068
C38	C	0.982321	0.125912	0.596029
C39	C	0.982323	0.125910	0.700096
C40	C	0.982310	0.125911	0.299995
H41	H	0.385892	0.276810	0.000045
H42	H	0.543214	0.279879	0.000037
C43	C	0.593939	-0.048754	0.000055
C44	C	0.656248	-0.070699	0.079239
C45	C	0.714718	-0.162187	0.079246
C46	C	0.710880	-0.231731	0.000069
C47	C	0.648569	-0.209788	-0.079121
C48	C	0.590099	-0.118299	-0.079127
H49	H	0.659091	-0.019217	0.137856
H50	H	0.760844	-0.178430	0.137868
H51	H	0.754163	-0.299456	0.000074
H52	H	0.645726	-0.261270	-0.137737
H53	H	0.543972	-0.102056	-0.137749
H54	H	0.879918	0.239650	0.587113
C55	C	0.411820	-0.052302	0.000053
C56	C	0.316430	-0.054168	0.000046
C57	C	0.279506	-0.147520	0.000042
C58	C	0.337972	-0.239005	0.000046
C59	C	0.433367	-0.237143	0.000054
C60	C	0.470291	-0.143791	0.000057
H61	H	0.273146	0.013559	0.000043
H62	H	0.208888	-0.148898	0.000037
H63	H	0.310638	-0.308110	0.000044
H64	H	0.476652	-0.304869	0.000057
H65	H	0.540910	-0.142413	0.000063
H66	H	1.084714	0.012170	0.412989
H67	H	1.084715	0.012167	0.587108
H68	H	0.879902	0.239655	0.412979
