data_functionalizedCrystal
_audit_creation_method	'MofGen! by Chris Wilmer'
_symmetry_space_group_name_H-M	'P1'
_symmetry_Int_Tables_number	1
_symmetry_cell_setting	triclinic
loop_
_symmetry_equiv_pos_as_xyz
  x,y,z
_cell_length_a	19.121414
_cell_length_b	19.120785
_cell_length_c	19.805407
_cell_angle_alpha	92.456682
_cell_angle_beta	87.572606
_cell_angle_gamma	95.004960
loop_
_atom_site_label
_atom_site_type_symbol
_atom_site_fract_x
_atom_site_fract_y
_atom_site_fract_z
Zn1	Zn	1.063652	-0.234355	0.329424
Zn2	Zn	1.396985	0.098978	0.662757
Zn3	Zn	1.730318	0.432312	0.996091
Zn4	Zn	1.058572	-0.352000	0.211601
Zn5	Zn	1.391905	-0.018667	0.544935
Zn6	Zn	1.725239	0.314666	0.878268
Zn7	Zn	0.946011	-0.239365	0.220870
Zn8	Zn	1.279344	0.093968	0.554203
Zn9	Zn	1.612678	0.427302	0.887537
Zn10	Zn	0.940939	-0.357012	0.329369
Zn11	Zn	1.274273	-0.023678	0.662702
Zn12	Zn	1.607606	0.309655	0.996036
O13	O	1.002293	-0.295683	0.272816
O14	O	1.335627	0.037650	0.606149
O15	O	1.668960	0.370984	0.939483
O16	O	1.161441	-0.245767	0.309939
O17	O	1.494774	0.087566	0.643272
O18	O	1.828107	0.420900	0.976605
O19	O	1.043637	-0.337058	0.118114
O20	O	1.376970	-0.003725	0.451448
O21	O	1.710304	0.329608	0.784781
O22	O	0.965865	-0.140230	0.239172
O23	O	1.299198	0.193103	0.572505
O24	O	1.632531	0.526437	0.905838
O25	O	1.157709	-0.332200	0.223375
O26	O	1.491042	0.001133	0.556708
O27	O	1.824375	0.334466	0.890042
O28	O	1.052295	-0.136549	0.318926
O29	O	1.385628	0.196784	0.652259
O30	O	1.718962	0.530117	0.985593
O31	O	0.960939	-0.254306	0.124924
O32	O	1.294272	0.079028	0.458257
O33	O	1.627606	0.412361	0.791591
O34	O	0.846875	-0.259165	0.239118
O35	O	1.180209	0.074168	0.572452
O36	O	1.513542	0.407501	0.905785
O37	O	0.957221	-0.340742	0.424093
O38	O	1.290554	-0.007408	0.757426
O39	O	1.623887	0.325925	1.090759
O40	O	0.843149	-0.345600	0.318832
O41	O	1.176483	-0.012266	0.652166
O42	O	1.509816	0.321067	0.985499
O43	O	1.047377	-0.250626	0.424133
O44	O	1.380710	0.082707	0.757466
O45	O	1.714044	0.416040	1.090800
O46	O	1.038719	-0.451136	0.223322
O47	O	1.372053	-0.117802	0.556655
O48	O	1.705386	0.215531	0.889988
O49	O	0.952295	-0.454817	0.309845
O50	O	1.285628	-0.121484	0.643178
O51	O	1.618962	0.211849	0.976512
C52	C	0.819482	-0.303470	0.279976
C53	C	1.152815	0.029863	0.613309
C54	C	1.486149	0.363196	0.946642
C55	C	0.741274	-0.306819	0.283054
C56	C	1.074607	0.026515	0.616387
C57	C	1.407940	0.359848	0.949720
C58	C	0.706454	-0.263322	0.243071
C59	C	1.039787	0.070011	0.576404
C60	C	1.373120	0.403344	0.909738
C61	C	0.632968	-0.266475	0.245963
C62	C	0.966302	0.066859	0.579296
C63	C	1.299635	0.400192	0.912630
C64	C	0.594305	-0.313120	0.288842
C65	C	0.927638	0.020213	0.622175
C66	C	1.260971	0.353546	0.955508
C67	C	0.629130	-0.356622	0.328826
C68	C	0.962463	-0.023288	0.662159
C69	C	1.295797	0.310045	0.995492
C70	C	0.702614	-0.353472	0.325930
C71	C	1.035947	-0.020139	0.659263
C72	C	1.369280	0.313194	0.992597
C73	C	0.372335	-0.324887	0.299655
C74	C	0.705668	0.008447	0.632988
C75	C	1.039002	0.341780	0.966321
C76	C	0.298846	-0.328031	0.302549
C77	C	0.632180	0.005302	0.635882
C78	C	0.965513	0.338635	0.969216
C79	C	0.302690	-0.237885	0.219685
C80	C	0.636023	0.095449	0.553018
C81	C	0.969357	0.428782	0.886352
C82	C	0.376175	-0.234737	0.216796
C83	C	0.709508	0.098597	0.550129
C84	C	1.042842	0.431930	0.883463
C85	C	0.410994	-0.278241	0.256777
C86	C	0.744327	0.055093	0.590111
C87	C	1.077660	0.388426	0.923444
C88	C	0.519191	-0.316342	0.291800
C89	C	0.852524	0.016991	0.625133
C90	C	1.185858	0.350325	0.958467
C91	C	0.486106	-0.275022	0.253815
C92	C	0.819439	0.058311	0.587148
C93	C	1.152773	0.391645	0.920482
C94	C	0.994425	-0.478508	0.265586
C95	C	1.327758	-0.145175	0.598919
C96	C	1.661091	0.188159	0.932252
C97	C	0.991123	-0.556719	0.262512
C98	C	1.324456	-0.223385	0.595846
C99	C	1.657789	0.109948	0.929179
C100	C	0.970174	-0.999162	0.243070
C101	C	1.303507	-0.665828	0.576403
C102	C	1.636840	-0.332495	0.909736
C103	C	0.973278	-0.925675	0.245957
C104	C	1.306611	-0.592341	0.579291
C105	C	1.639944	-0.259008	0.912624
C106	C	1.019799	-0.886957	0.288960
C107	C	1.353132	-0.553623	0.622293
C108	C	1.686465	-0.220290	0.955627
C109	C	1.063213	-0.921730	0.329083
C110	C	1.396547	-0.588396	0.662416
C111	C	1.729880	-0.255063	0.995749
C112	C	1.060105	-0.995216	0.326198
C113	C	1.393439	-0.661882	0.659532
C114	C	1.726772	-0.328549	0.992865
C115	C	1.031429	-0.664978	0.299751
C116	C	1.364763	-0.331644	0.633084
C117	C	1.698096	0.001689	0.966418
C118	C	1.034536	-0.591487	0.302631
C119	C	1.367869	-0.258153	0.635964
C120	C	1.701202	0.075180	0.969297
C121	C	0.944599	-0.595437	0.219506
C122	C	1.277932	-0.262103	0.552839
C123	C	1.611265	0.071230	0.886172
C124	C	0.941498	-0.668924	0.216622
C125	C	1.274831	-0.335590	0.549956
C126	C	1.608164	-0.002257	0.883289
C127	C	0.984910	-0.703691	0.256748
C128	C	1.318243	-0.370357	0.590081
C129	C	1.651576	-0.037024	0.923414
C130	C	1.022974	-0.811841	0.291911
C131	C	1.356308	-0.478507	0.625244
C132	C	1.689641	-0.145174	0.958577
C133	C	0.981730	-0.778805	0.253800
C134	C	1.315064	-0.445472	0.587133
C135	C	1.648397	-0.112138	0.920467
C136	C	1.185819	-0.287866	0.265629
C137	C	1.519152	0.045467	0.598962
C138	C	1.852485	0.378801	0.932296
C139	C	1.264026	-0.284535	0.262566
C140	C	1.597360	0.048799	0.595900
C141	C	1.930693	0.382132	0.929233
C142	C	1.002300	-0.295684	0.449358
C143	C	1.335633	0.037649	0.782692
C144	C	1.668966	0.370982	1.116025
C145	C	1.002302	-0.295685	0.524590
C146	C	1.335636	0.037649	0.857924
C147	C	1.668969	0.370982	1.191257
C148	C	1.010212	-0.112143	0.280089
C149	C	1.343546	0.221190	0.613422
C150	C	1.676879	0.554523	0.946756
C151	C	1.013587	-0.033930	0.283188
C152	C	1.346920	0.299404	0.616522
C153	C	1.680253	0.632737	0.949855
C154	C	1.049241	-0.248769	0.559957
C155	C	1.382574	0.084565	0.893290
C156	C	1.715907	0.417898	1.226623
C157	C	1.049235	-0.248767	0.630645
C158	C	1.382568	0.084566	0.963979
C159	C	1.715902	0.417900	1.297312
C160	C	1.002293	-0.295685	0.665966
C161	C	1.335627	0.037648	0.999300
C162	C	1.668960	0.370982	1.332633
C163	C	0.955350	-0.342603	0.630595
C164	C	1.288683	-0.009270	0.963929
C165	C	1.622016	0.324064	1.297262
C166	C	0.955353	-0.342601	0.559908
C167	C	1.288686	-0.009268	0.893241
C168	C	1.622020	0.324066	1.226575
C169	C	0.955336	-0.342612	0.915669
C170	C	1.288669	-0.009278	1.249002
C171	C	1.622002	0.324055	1.582335
C172	C	0.955337	-0.342612	0.986361
C173	C	1.288671	-0.009278	1.319694
C174	C	1.622004	0.324055	1.653027
C175	C	1.049218	-0.248778	0.986406
C176	C	1.382551	0.084556	1.319739
C177	C	1.715884	0.417889	1.653073
C178	C	1.049221	-0.248776	0.915719
C179	C	1.382554	0.084558	1.249052
C180	C	1.715887	0.417891	1.582385
C181	C	1.002275	-0.295691	0.880354
C182	C	1.335608	0.037642	1.213687
C183	C	1.668942	0.370976	1.547021
C184	C	1.002281	-0.295692	0.803705
C185	C	1.335614	0.037642	1.137039
C186	C	1.668948	0.370975	1.470372
C187	C	1.002290	-0.295688	0.742613
C188	C	1.335623	0.037645	1.075947
C189	C	1.668957	0.370978	1.409280
C190	C	1.002280	-0.295697	1.096960
C191	C	1.335613	0.037637	1.430293
C192	C	1.668947	0.370970	1.763627
C193	C	1.002273	-0.295692	1.021729
C194	C	1.335606	0.037641	1.355062
C195	C	1.668940	0.370975	1.688395
H196	H	0.604621	-0.231059	0.213401
H197	H	0.937954	0.102274	0.546734
H198	H	1.271288	0.435608	0.880067
Cl199	Cl	0.424776	-0.176087	0.162896
Cl200	Cl	0.758109	0.157246	0.496229
Cl201	Cl	1.091443	0.490579	0.829562
H202	H	0.597644	-0.394605	0.363735
H203	H	0.930977	-0.061271	0.697069
H204	H	1.264311	0.272062	1.030402
Cl205	Cl	1.108234	-0.189795	1.030869
Cl206	Cl	1.441567	0.143538	1.364202
Cl207	Cl	1.774900	0.476872	1.697536
H208	H	1.060854	-0.780310	0.326923
H209	H	1.394187	-0.446977	0.660256
H210	H	1.727520	-0.113644	0.993590
H211	H	0.267368	-0.366015	0.337470
H212	H	0.600702	-0.032682	0.670804
H213	H	0.934035	0.300651	1.004137
H214	H	1.101089	-0.890201	0.364100
H215	H	1.434423	-0.556868	0.697433
H216	H	1.767756	-0.223535	1.030767
H217	H	0.487703	-0.354320	0.326713
H218	H	0.821036	-0.020987	0.660046
H219	H	1.154370	0.312346	0.993379
H220	H	1.087448	-0.210573	0.886964
H221	H	1.420781	0.122761	1.220297
H222	H	1.754114	0.456094	1.553630
Cl223	Cl	0.896320	-0.401598	1.030764
Cl224	Cl	1.229653	-0.068265	1.364097
Cl225	Cl	1.562986	0.265068	1.697430
Cl226	Cl	1.108260	-0.189786	0.515560
Cl227	Cl	1.441593	0.143547	0.848893
Cl228	Cl	1.774927	0.476881	1.182226
H229	H	0.737929	-0.225333	0.208160
H230	H	1.071262	0.108001	0.541493
H231	H	1.404595	0.441334	0.874827
H232	H	0.937927	-0.897367	0.213290
H233	H	1.271260	-0.564034	0.546624
H234	H	1.604594	-0.230700	0.879957
H235	H	0.274333	-0.202467	0.187134
H236	H	0.607666	0.130866	0.520467
H237	H	0.940999	0.464200	0.853800
H238	H	0.917124	-0.380798	0.531114
H239	H	1.250457	-0.047465	0.864448
H240	H	1.583791	0.285869	1.197781
Cl241	Cl	1.093026	-0.542813	0.356693
Cl242	Cl	1.426359	-0.209480	0.690026
Cl243	Cl	1.759693	0.123854	1.023360
Cl244	Cl	0.890024	-0.551726	0.169069
Cl245	Cl	1.223357	-0.218392	0.502402
Cl246	Cl	1.556691	0.114941	0.835735
H247	H	0.400675	-0.360311	0.332211
H248	H	0.734009	-0.026977	0.665544
H249	H	1.067342	0.306356	0.998877
Cl250	Cl	0.896318	-0.401592	0.871219
Cl251	Cl	1.229652	-0.068258	1.204553
Cl252	Cl	1.562985	0.265075	1.537886
Cl253	Cl	0.911691	-1.047829	0.189003
Cl254	Cl	1.245024	-0.714495	0.522336
Cl255	Cl	1.578357	-0.381162	0.855669
H256	H	0.730963	-0.388892	0.358488
H257	H	1.064296	-0.055559	0.691821
H258	H	1.397630	0.277775	1.025155
Cl259	Cl	1.085999	-0.708675	0.350201
Cl260	Cl	1.419332	-0.375342	0.683535
Cl261	Cl	1.752665	-0.042009	1.016868
Cl262	Cl	1.114683	-1.038924	0.376636
Cl263	Cl	1.448016	-0.705591	0.709970
Cl264	Cl	1.781350	-0.372258	1.043303
H265	H	0.903617	-0.700443	0.181604
H266	H	1.236950	-0.367110	0.514937
H267	H	1.570283	-0.033776	0.848270
Cl268	Cl	0.923245	-0.827480	0.199745
Cl269	Cl	1.256579	-0.494147	0.533079
Cl270	Cl	1.589912	-0.160814	0.866412
Cl271	Cl	0.534712	-0.216386	0.199910
Cl272	Cl	0.868046	0.116948	0.533244
Cl273	Cl	1.201379	0.450281	0.866577
H274	H	1.087458	-0.210565	0.659437
H275	H	1.420792	0.122768	0.992771
H276	H	1.754125	0.456102	1.326104
H277	H	0.917127	-0.380802	0.659359
H278	H	1.250460	-0.047469	0.992693
H279	H	1.583793	0.285865	1.326026
