data_functionalizedCrystal
_audit_creation_method	'MofGen! by Chris Wilmer'
_symmetry_space_group_name_H-M	'P1'
_symmetry_Int_Tables_number	1
_symmetry_cell_setting	triclinic
loop_
_symmetry_equiv_pos_as_xyz
  x,y,z
_cell_length_a	10.654550
_cell_length_b	14.044209
_cell_length_c	12.503552
_cell_angle_alpha	93.838203
_cell_angle_beta	93.554123
_cell_angle_gamma	91.163558
loop_
_atom_site_label
_atom_site_type_symbol
_atom_site_fract_x
_atom_site_fract_y
_atom_site_fract_z
O1	O	1.687864	-0.127801	0.089247
O2	O	1.323663	-0.140493	0.089268
O3	O	1.500297	0.003873	0.089243
O4	O	1.511230	-0.272167	0.089272
O5	O	1.486997	-0.006994	-0.089398
O6	O	1.310363	-0.151360	-0.089373
O7	O	1.674564	-0.138667	-0.089393
Cu8	Cu	1.491249	-0.146006	-0.105694
Cu9	Cu	1.506978	-0.133155	0.105569
O10	O	1.497930	-0.283033	-0.089368
C11	C	1.270121	-0.144994	-0.000050
C12	C	1.130398	-0.142205	-0.000043
C13	C	1.059454	-0.227206	-0.000037
C14	C	0.928168	-0.224582	-0.000056
C15	C	0.938783	-0.051947	-0.000083
C16	C	1.070066	-0.054574	-0.000071
C17	C	0.737728	-0.328500	-0.062644
C18	C	0.666780	-0.413504	-0.062620
C19	C	0.709351	-0.486756	-0.000007
C20	C	0.822870	-0.475004	0.062608
C21	C	0.893812	-0.389998	0.062593
C22	C	0.851240	-0.316752	-0.000045
C23	C	1.260509	0.049339	0.062526
C24	C	1.331454	0.134347	0.062519
C25	C	1.288886	0.207607	-0.000088
C26	C	1.175365	0.195866	-0.062686
C27	C	1.104420	0.110859	-0.062679
C28	C	1.146997	0.037598	-0.000074
C29	C	1.488862	0.033785	-0.000079
C30	C	1.474587	0.139105	-0.000083
C31	C	1.728106	-0.134166	-0.000073
C32	C	1.867829	-0.136955	-0.000073
N33	N	1.480196	-0.155044	-0.254286
C34	C	1.448491	0.331939	-0.000073
C35	C	1.549739	0.388906	-0.000077
C36	C	1.535219	0.496205	-0.000071
C37	C	1.463009	0.224629	-0.000079
C38	C	1.509368	0.687054	-0.000053
C39	C	1.523649	0.581734	-0.000067
C40	C	1.534293	-0.110810	-0.526726
C41	C	1.463947	-0.168340	-0.473392
C42	C	1.472990	-0.160940	-0.351470
C43	C	1.525251	-0.118209	-0.648660
N44	N	1.518040	-0.124109	0.254160
H45	H	0.857519	-0.534654	0.113597
H46	H	1.601307	-0.056005	-0.480826
N47	N	1.379902	-0.237119	-0.530974
N48	N	1.392444	-0.324057	-0.518510
H49	H	1.333095	-0.372635	-0.559182
N50	N	1.121061	-0.316726	-0.000032
N51	N	1.097246	-0.378804	-0.075331
H52	H	1.140752	-0.442031	-0.075332
H53	H	0.986228	-0.380426	0.113584
N54	N	1.672171	0.349020	-0.000108
N55	N	1.767371	0.402519	-0.000124
H56	H	1.853836	0.374346	-0.000151
N57	N	0.636897	-0.573589	0.000039
N58	N	0.596739	-0.599313	0.085676
H59	H	0.545566	-0.660640	0.085706
N60	N	0.877132	0.037553	-0.000112
N61	N	0.759916	0.039888	-0.000121
H62	H	0.716375	0.103100	-0.000139
N63	N	0.550818	-0.425495	-0.126563
N64	N	0.463153	-0.369458	-0.110816
H65	H	0.381252	-0.377924	-0.155969
N66	N	0.694230	-0.253689	-0.126624
N67	N	0.592873	-0.264194	-0.182509
H68	H	0.562145	-0.211358	-0.227695
H69	H	1.346654	0.276829	-0.000077
N70	N	0.988450	0.098864	-0.126609
N71	N	0.900773	0.154886	-0.110848
H72	H	0.818869	0.146414	-0.155996
N73	N	1.131899	0.270702	-0.126645
N74	N	1.197413	0.299058	-0.198295
H75	H	1.166718	0.351916	-0.243463
N76	N	1.447406	0.146331	0.126476
N77	N	1.485410	0.080912	0.182367
H78	H	1.567301	0.089374	0.227535
H79	H	1.295185	-0.010314	0.113503
H80	H	1.350912	0.363750	-0.000066
