data_functionalizedCrystal
_audit_creation_method	'MofGen! by Chris Wilmer'
_symmetry_space_group_name_H-M	'P1'
_symmetry_Int_Tables_number	1
_symmetry_cell_setting	triclinic
loop_
_symmetry_equiv_pos_as_xyz
  x,y,z
_cell_length_a	15.624803
_cell_length_b	15.538191
_cell_length_c	14.586319
_cell_angle_alpha	89.999456
_cell_angle_beta	71.910518
_cell_angle_gamma	66.736403
loop_
_atom_site_label
_atom_site_type_symbol
_atom_site_fract_x
_atom_site_fract_y
_atom_site_fract_z
O1	O	1.156108	0.122848	-0.460690
O2	O	1.656108	0.622848	0.039310
O3	O	0.888811	0.137512	-0.371802
O4	O	1.388811	0.637512	0.128198
O5	O	1.074491	-0.006885	-0.433553
O6	O	1.574491	0.493115	0.066447
O7	O	0.970428	0.267245	-0.398939
O8	O	1.470428	0.767245	0.101061
O9	O	1.074482	-0.006888	-0.281070
O10	O	1.574482	0.493112	0.218930
O11	O	0.888802	0.137510	-0.219319
O12	O	1.388802	0.637510	0.280681
O13	O	1.156099	0.122846	-0.308206
O14	O	1.656099	0.622846	0.191794
Cu15	Cu	1.022449	0.130177	-0.249839
Cu16	Cu	1.522449	0.630177	0.250161
Cu17	Cu	1.022460	0.130180	-0.430169
Cu18	Cu	1.522460	0.630180	0.069831
O19	O	0.970419	0.267243	-0.246455
O20	O	1.470419	0.767243	0.253545
C21	C	0.855432	0.136850	-0.284462
C22	C	1.355432	0.636850	0.215538
C23	C	0.755991	0.134869	-0.251394
C24	C	1.255991	0.634869	0.248606
C25	C	0.429077	0.128308	-0.558330
C26	C	0.929077	0.628308	-0.058330
C27	C	0.335646	0.126428	-0.527258
C28	C	0.835646	0.626428	-0.027258
C29	C	0.335614	0.126425	-0.361019
C30	C	0.835614	0.626425	0.138981
C31	C	0.429049	0.128300	-0.392077
C32	C	0.929049	0.628300	0.107923
C33	C	0.475773	0.129243	-0.490733
C34	C	0.975773	0.629243	0.009267
C35	C	0.475745	0.129235	-0.324481
C36	C	0.975745	0.629235	0.175519
C37	C	0.569170	0.131116	-0.355536
C38	C	1.069170	0.631116	0.144464
C39	C	0.615899	0.132061	-0.454188
C40	C	1.115899	0.632061	0.045812
C41	C	0.569198	0.131123	-0.521789
C42	C	1.069198	0.631123	-0.021789
C43	C	0.429016	0.128300	-0.225824
C44	C	0.929016	0.628300	0.274176
C45	C	0.475711	0.129235	-0.158228
C46	C	0.975711	0.629235	0.341772
C47	C	0.569141	0.131108	-0.189284
C48	C	1.069141	0.631108	0.310716
C49	C	0.615870	0.132054	-0.287935
C50	C	1.115870	0.632054	0.212065
C51	C	0.615842	0.132046	-0.121683
C52	C	1.115842	0.632046	0.378317
C53	C	0.709267	0.133926	-0.152738
C54	C	1.209267	0.633926	0.347262
C55	C	0.709296	0.133934	-0.318991
C56	C	1.209296	0.633934	0.181009
C57	C	1.085374	-0.041969	-0.360935
C58	C	1.585374	0.458031	0.139065
C59	C	1.117805	-0.146502	-0.371729
C60	C	1.617805	0.353498	0.128271
C61	C	0.795612	-0.434690	-0.264566
C62	C	1.295612	0.065310	0.235434
C63	C	0.826108	-0.532919	-0.274705
C64	C	1.326108	-0.032919	0.225295
C65	C	0.997644	-0.555150	-0.331749
C66	C	1.497644	-0.055150	0.168251
C67	C	0.967162	-0.456922	-0.321619
C68	C	1.467162	0.043078	0.178381
C69	C	0.866145	-0.396699	-0.288026
C70	C	1.366145	0.103301	0.211974
C71	C	1.037695	-0.418930	-0.345079
C72	C	1.537695	0.081070	0.154921
C73	C	1.007215	-0.320711	-0.334945
C74	C	1.507215	0.179289	0.165055
C75	C	0.906202	-0.260482	-0.301350
C76	C	1.406202	0.239518	0.198650
C77	C	0.835664	-0.298479	-0.277892
C78	C	1.335664	0.201521	0.222108
C79	C	1.138712	-0.479154	-0.378665
C80	C	1.638712	0.020846	0.121335
C81	C	1.209245	-0.441163	-0.402125
C82	C	1.709245	0.058837	0.097875
C83	C	1.178765	-0.342942	-0.391997
C84	C	1.678765	0.157058	0.108003
C85	C	1.077752	-0.282713	-0.358403
C86	C	1.577752	0.217287	0.141597
C87	C	1.249303	-0.304944	-0.415456
C88	C	1.749303	0.195056	0.084544
C89	C	1.218823	-0.206725	-0.405322
C90	C	1.718823	0.293275	0.094678
C91	C	1.047272	-0.184494	-0.348269
C92	C	1.547272	0.315506	0.151731
C93	C	1.189477	0.123508	-0.395548
C94	C	1.689477	0.623508	0.104452
C95	C	1.288918	0.125489	-0.428622
C96	C	1.788918	0.625489	0.071378
C97	C	0.959535	0.302326	-0.319076
C98	C	1.459535	0.802326	0.180924
C99	C	0.927104	0.406860	-0.308288
C100	C	1.427104	0.906860	0.191712
N101	N	1.022449	0.130175	-0.123008
N102	N	1.522449	0.630175	0.376992
N103	N	1.022470	0.130175	-0.557004
N104	N	1.522470	0.630175	-0.057004
C105	C	1.104681	0.066257	0.084651
C106	C	1.604681	0.566257	0.584651
C107	C	1.104684	0.066255	0.180631
C108	C	1.604684	0.566255	0.680631
C109	C	0.940230	0.194096	0.235333
C110	C	1.440230	0.694096	0.735333
C111	C	0.940225	0.194093	0.139355
C112	C	1.440225	0.694093	0.639355
C113	C	1.022455	0.130175	0.064015
C114	C	1.522455	0.630175	0.564015
C115	C	1.022464	0.130175	0.255973
C116	C	1.522464	0.630175	0.755973
C117	C	1.022467	0.130173	0.360039
C118	C	1.522467	0.630173	0.860039
C119	C	1.022452	0.130175	-0.040058
C120	C	1.522452	0.630175	0.459942
H121	H	0.577781	0.131288	-0.041356
H122	H	1.077781	0.631288	0.458644
H123	H	1.171637	0.014210	0.023310
H124	H	1.671637	0.514210	0.523310
H125	H	0.691969	0.133598	-0.479470
H126	H	1.191969	0.633598	0.020530
H127	H	1.171639	0.014207	0.197428
H128	H	1.671639	0.514207	0.697428
H129	H	1.291494	-0.490209	-0.429473
H130	H	1.791494	0.009791	0.070527
H131	H	0.873281	0.246138	0.296683
H132	H	1.373281	0.746138	0.796683
Br133	Br	0.864831	-0.127181	-0.287583
Br134	Br	1.364831	0.372819	0.212417
Br135	Br	1.386393	-0.386685	-0.461022
Br136	Br	1.886393	0.113315	0.038978
Br137	Br	0.698567	-0.216740	-0.232314
Br138	Br	1.198567	0.283260	0.267686
H139	H	1.276258	-0.175792	-0.424424
H140	H	1.776258	0.324208	0.075576
H141	H	0.747342	0.134698	-0.399327
H142	H	1.247342	0.634698	0.100673
Br143	Br	0.632626	0.132385	-0.655684
Br144	Br	1.132626	0.632385	-0.155684
Br145	Br	0.272271	0.125166	-0.619007
Br146	Br	0.772271	0.625166	-0.119007
Br147	Br	0.492505	0.129570	-0.692225
Br148	Br	0.992505	0.629570	-0.192225
Br149	Br	0.272191	0.125153	-0.227132
Br150	Br	0.772191	0.625153	0.272868
Br151	Br	0.772643	0.135201	-0.061000
Br152	Br	1.272643	0.635201	0.439000
H153	H	0.352940	0.126774	-0.200541
H154	H	0.852940	0.626774	0.299459
Br155	Br	0.658514	-0.352951	-0.218988
Br156	Br	1.158514	0.147049	0.281012
Br157	Br	0.412289	0.127963	-0.024341
Br158	Br	0.912289	0.627963	0.475659
Br159	Br	0.730373	-0.584475	-0.242853
Br160	Br	1.230373	-0.084475	0.257147
H161	H	0.873262	0.246142	0.122555
H162	H	1.373262	0.746142	0.622555
H163	H	0.965014	-0.135456	-0.320921
H164	H	1.465014	0.364544	0.179079
H165	H	1.079893	-0.604196	-0.359097
H166	H	1.579893	-0.104196	0.140903
H167	H	1.163526	-0.559131	-0.386924
H168	H	1.663526	-0.059131	0.113076
