data_functionalizedCrystal
_audit_creation_method	'MofGen! by Chris Wilmer'
_symmetry_space_group_name_H-M	'P1'
_symmetry_Int_Tables_number	1
_symmetry_cell_setting	triclinic
loop_
_symmetry_equiv_pos_as_xyz
  x,y,z
_cell_length_a	14.971475
_cell_length_b	17.000383
_cell_length_c	14.048226
_cell_angle_alpha	90.005781
_cell_angle_beta	89.994420
_cell_angle_gamma	100.395009
loop_
_atom_site_label
_atom_site_type_symbol
_atom_site_fract_x
_atom_site_fract_y
_atom_site_fract_z
O1	O	-1.178675	0.103677	0.079139
O2	O	-0.678675	0.603677	0.579139
O3	O	-0.917281	0.116106	0.079145
O4	O	-0.417281	0.616106	0.579145
O5	O	-1.064208	-0.005960	0.079138
O6	O	-0.564208	0.494040	0.579138
O7	O	-1.031749	0.225743	0.079146
O8	O	-0.531749	0.725743	0.579146
O9	O	-1.064192	-0.005967	-0.079183
O10	O	-0.564192	0.494033	0.420817
O11	O	-0.917265	0.116099	-0.079176
O12	O	-0.417265	0.616099	0.420824
O13	O	-1.178659	0.103670	-0.079182
O14	O	-0.678659	0.603670	0.420818
Zn15	Zn	-1.047960	0.109883	-0.104316
Zn16	Zn	-0.547960	0.609883	0.395684
Zn17	Zn	-1.047981	0.109893	0.104279
Zn18	Zn	-0.547981	0.609893	0.604279
O19	O	-1.031733	0.225736	-0.079175
O20	O	-0.531733	0.725736	0.420825
C21	C	-0.883993	0.115549	-0.000015
C22	C	-0.383993	0.615549	0.499985
C23	C	-0.784828	0.113887	-0.000013
C24	C	-0.284828	0.613887	0.499987
C25	C	-1.065943	-0.035615	-0.000022
C26	C	-0.565943	0.464385	0.499978
C27	C	-1.071126	-0.123969	-0.000019
C28	C	-0.571126	0.376031	0.499981
C29	C	-0.738237	0.113101	-0.086314
C30	C	-0.238237	0.613101	0.413686
C31	C	-0.645064	0.111528	-0.086315
C32	C	-0.145064	0.611528	0.413685
C33	C	-0.598482	0.110746	-0.000013
C34	C	-0.098482	0.610746	0.499987
C35	C	-0.645080	0.111530	0.086296
C36	C	-0.145080	0.611530	0.586296
C37	C	-0.738253	0.113098	0.086295
C38	C	-0.238253	0.613098	0.586295
C39	C	-0.450878	0.108264	0.086291
C40	C	0.049122	0.608264	0.586291
C41	C	-0.357699	0.106698	0.086291
C42	C	0.142301	0.606698	0.586291
C43	C	-0.357689	0.106694	-0.086320
C44	C	0.142311	0.606694	0.413680
C45	C	-0.450862	0.108262	-0.086320
C46	C	0.049138	0.608262	0.413680
C47	C	-0.497453	0.109047	-0.000011
C48	C	0.002547	0.609047	0.499989
C49	C	-1.104598	-0.624155	-0.000016
C50	C	-0.604598	-0.124155	0.499984
C51	C	-1.099720	-0.541137	-0.000021
C52	C	-0.599720	-0.041137	0.499979
C53	C	-1.015058	-0.490219	-0.000015
C54	C	-0.515058	0.009781	0.499985
C55	C	-0.935269	-0.522325	-0.000013
C56	C	-0.435269	-0.022325	0.499987
C57	C	-0.940147	-0.605342	-0.000014
C58	C	-0.440147	-0.105342	0.499986
C59	C	-0.996215	-0.239091	-0.000017
C60	C	-0.496215	0.260909	0.499983
C61	C	-0.991343	-0.156069	-0.000013
C62	C	-0.491343	0.343931	0.499987
C63	C	-1.155795	-0.174887	-0.000024
C64	C	-0.655795	0.325113	0.499976
C65	C	-1.160666	-0.257904	-0.000019
C66	C	-0.660666	0.242096	0.499981
C67	C	-1.080877	-0.290002	-0.000022
C68	C	-0.580877	0.209998	0.499978
C69	C	-1.010071	-0.405361	-0.000018
C70	C	-0.510071	0.094639	0.499982
C71	C	-1.085865	-0.374859	-0.000026
C72	C	-0.585865	0.125141	0.499974
C73	C	-0.211947	0.104233	-0.000019
C74	C	0.288053	0.604233	0.499981
C75	C	-0.311108	0.105912	-0.000010
C76	C	0.188892	0.605912	0.499990
C77	C	-1.029998	0.255391	-0.000014
C78	C	-0.529998	0.755391	0.499986
C79	C	-1.024814	0.343745	-0.000010
C80	C	-0.524814	0.843745	0.499990
N81	N	-1.047952	0.109876	-0.246677
N82	N	-0.547952	0.609876	0.253323
C83	C	-1.113028	0.055848	-0.296498
C84	C	-0.613028	0.555848	0.203502
C85	C	-1.113034	0.055847	-0.396156
C86	C	-0.613034	0.555847	0.103844
C87	C	-1.047967	0.109880	-0.445990
C88	C	-0.547967	0.609880	0.054010
C89	C	-0.982885	0.163911	-0.396162
C90	C	-0.482885	0.663911	0.103838
C91	C	-0.982875	0.163907	-0.296506
C92	C	-0.482875	0.663907	0.203494
C93	C	-0.982910	0.163917	-0.603877
C94	C	-0.482910	0.663917	-0.103877
C95	C	-0.982920	0.163922	-0.703539
C96	C	-0.482920	0.663922	-0.203539
C97	C	-1.113069	0.055857	-0.703526
C98	C	-0.613069	0.555857	-0.203526
C99	C	-1.113060	0.055853	-0.603870
C100	C	-0.613060	0.555853	-0.103870
C101	C	-1.047978	0.109886	-0.554049
C102	C	-0.547978	0.609886	-0.054049
N103	N	-1.047996	0.109894	0.246640
N104	N	-0.547996	0.609894	0.746640
H105	H	-0.776155	0.113744	-0.156592
H106	H	-0.276155	0.613744	0.343408
H107	H	-1.166024	0.011853	-0.436720
H108	H	-0.666024	0.511853	0.063280
O109	O	-0.910161	-0.273708	-0.000017
O110	O	-0.410161	0.226292	0.499983
H111	H	-0.850474	-0.224352	-0.000003
H112	H	-0.350474	0.275648	0.499997
H113	H	-1.220755	-0.148743	-0.000014
H114	H	-0.720755	0.351257	0.499986
O115	O	-0.594806	0.110688	-0.179397
O116	O	-0.094806	0.610688	0.320603
H117	H	-0.642848	0.111508	-0.239407
H118	H	-0.142848	0.611508	0.260593
H119	H	-1.166046	0.011860	-0.563295
H120	H	-0.666046	0.511860	-0.063295
H121	H	-0.941138	-0.363895	-0.000009
H122	H	-0.441138	0.136105	0.499991
O123	O	-1.195914	-0.679070	-0.000033
O124	O	-0.695914	-0.179070	0.499967
H125	H	-1.234425	-0.667640	0.064486
H126	H	-0.734425	-0.167640	0.564486
O127	O	-0.912708	0.222192	-0.449913
O128	O	-0.412708	0.722192	0.050087
H129	H	-0.919220	0.284249	-0.430761
H130	H	-0.419220	0.784249	0.069239
O131	O	-1.251980	-0.312823	-0.000043
O132	O	-0.751980	0.187177	0.499957
H133	H	-1.306641	-0.276554	-0.000060
H134	H	-0.806641	0.223446	0.499940
O135	O	-0.501092	0.109118	-0.179408
O136	O	-0.001092	0.609118	0.320592
H137	H	-0.555789	0.055635	-0.183549
H138	H	-0.055789	0.555635	0.316451
O139	O	-0.912706	0.222178	-0.550128
O140	O	-0.412706	0.722178	-0.050128
H141	H	-0.947297	0.260908	-0.504695
H142	H	-0.447297	0.760908	-0.004695
O143	O	-0.912691	0.222184	-0.242763
O144	O	-0.412691	0.722184	0.257237
H145	H	-0.867452	0.259763	-0.294156
H146	H	-0.367452	0.759763	0.205844
H147	H	-0.922397	-0.114613	-0.000011
H148	H	-0.422397	0.385387	0.499989
H149	H	-0.866335	-0.480861	-0.000013
H150	H	-0.366335	0.019139	0.499987
H151	H	-1.166061	0.011862	-0.744096
H152	H	-0.666061	0.511862	-0.244096
H153	H	-0.929935	0.207920	-0.744110
H154	H	-0.429935	0.707920	-0.244110
H155	H	-1.164689	-0.515005	-0.000027
H156	H	-0.664689	-0.015005	0.499973
O157	O	-0.854095	-0.639968	-0.000016
O158	O	-0.354095	-0.139968	0.499984
H159	H	-0.852393	-0.677346	0.064506
H160	H	-0.352393	-0.177346	0.564506
O161	O	-0.501142	0.109109	0.179375
O162	O	-0.001142	0.609109	0.679375
H163	H	-0.471032	0.163018	0.220759
H164	H	0.028968	0.663018	0.720759
H165	H	-1.154797	-0.416319	-0.000036
H166	H	-0.654797	0.083681	0.499964
H167	H	-1.166017	0.011852	-0.255929
H168	H	-0.666017	0.511852	0.244071
H169	H	-0.319750	0.106055	-0.156595
H170	H	0.180250	0.606055	0.343405
H171	H	-0.319774	0.106062	0.156566
H172	H	0.180226	0.606062	0.656566
H173	H	-0.607147	0.110888	0.156564
H174	H	-0.107147	0.610888	0.656564
H175	H	-0.776186	0.113740	0.156571
H176	H	-0.276186	0.613740	0.656571
