data_functionalizedCrystal
_audit_creation_method	'MofGen! by Chris Wilmer'
_symmetry_space_group_name_H-M	'P1'
_symmetry_Int_Tables_number	1
_symmetry_cell_setting	triclinic
loop_
_symmetry_equiv_pos_as_xyz
  x,y,z
_cell_length_a	10.868271
_cell_length_b	11.792241
_cell_length_c	11.792254
_cell_angle_alpha	84.196007
_cell_angle_beta	89.995741
_cell_angle_gamma	89.994719
loop_
_atom_site_label
_atom_site_type_symbol
_atom_site_fract_x
_atom_site_fract_y
_atom_site_fract_z
O1	O	-0.102322	0.155637	1.506900
O2	O	0.147678	0.405637	1.756900
O3	O	0.397678	0.655637	2.006900
O4	O	0.647678	0.905637	2.256900
O5	O	-0.102324	0.171655	1.176561
O6	O	0.147676	0.421655	1.426561
O7	O	0.397676	0.671655	1.676561
O8	O	0.647676	0.921655	1.926561
O9	O	-0.102314	-0.001524	1.349747
O10	O	0.147686	0.248476	1.599747
O11	O	0.397686	0.498476	1.849747
O12	O	0.647686	0.748476	2.099747
O13	O	-0.102332	0.328816	1.333714
O14	O	0.147668	0.578816	1.583714
O15	O	0.397668	0.828816	1.833714
O16	O	0.647668	1.078816	2.083714
O17	O	0.102330	-0.001531	1.349732
O18	O	0.352330	0.248469	1.599732
O19	O	0.602330	0.498469	1.849732
O20	O	0.852330	0.748469	2.099732
O21	O	0.102320	0.171648	1.176546
O22	O	0.352320	0.421648	1.426546
O23	O	0.602320	0.671648	1.676546
O24	O	0.852320	0.921648	1.926546
O25	O	0.102323	0.155630	1.506885
O26	O	0.352323	0.405630	1.756885
O27	O	0.602323	0.655630	2.006885
O28	O	0.852323	0.905630	2.256885
Zn29	Zn	0.134813	0.163638	1.341714
Zn30	Zn	0.384813	0.413638	1.591714
Zn31	Zn	0.634813	0.663638	1.841714
Zn32	Zn	0.884813	0.913638	2.091714
Zn33	Zn	-0.134815	0.163647	1.341733
Zn34	Zn	0.115185	0.413647	1.591733
Zn35	Zn	0.365185	0.663647	1.841733
Zn36	Zn	0.615185	0.913647	2.091733
O37	O	0.102313	0.328809	1.333699
O38	O	0.352313	0.578809	1.583699
O39	O	0.602313	0.828809	1.833699
O40	O	0.852313	1.078809	2.083699
C41	C	-0.000002	0.170642	1.134263
C42	C	0.249998	0.420642	1.384263
C43	C	0.499998	0.670642	1.634263
C44	C	0.749998	0.920642	1.884263
C45	C	-0.000003	0.167622	1.008250
C46	C	0.249997	0.417622	1.258250
C47	C	0.499997	0.667622	1.508250
C48	C	0.749997	0.917622	1.758250
N49	N	0.318827	0.163631	1.341709
N50	N	0.568827	0.413631	1.591709
N51	N	0.818827	0.663631	1.841709
N52	N	1.068827	0.913631	2.091709
N53	N	-0.318829	0.163645	1.341746
N54	N	-0.068829	0.413645	1.591746
N55	N	0.181171	0.663645	1.841746
N56	N	0.431171	0.913645	2.091746
C57	C	0.000008	-0.043819	1.348732
C58	C	0.250008	0.206181	1.598732
C59	C	0.500008	0.456181	1.848732
C60	C	0.750008	0.706181	2.098732
C61	C	0.000006	-0.169832	1.345718
C62	C	0.250006	0.080168	1.595718
C63	C	0.500006	0.330168	1.845718
C64	C	0.750006	0.580168	2.095718
C65	C	0.569833	0.163645	1.341727
C66	C	0.819833	0.413645	1.591727
C67	C	1.069833	0.663645	1.841727
C68	C	1.319833	0.913645	2.091727
C69	C	0.430156	0.163640	1.341713
C70	C	0.680156	0.413640	1.591713
C71	C	0.930156	0.663640	1.841713
C72	C	1.180156	0.913640	2.091713
C73	C	-0.000014	-0.400545	1.340175
C74	C	0.249986	-0.150545	1.590175
C75	C	0.499986	0.099455	1.840175
C76	C	0.749986	0.349455	2.090175
C77	C	-0.000003	-0.272160	1.343255
C78	C	0.249997	-0.022160	1.593255
C79	C	0.499997	0.227840	1.843255
C80	C	0.749997	0.477840	2.093255
C81	C	-0.000012	0.371104	1.334714
C82	C	0.249988	0.621104	1.584714
C83	C	0.499988	0.871104	1.834714
C84	C	0.749988	1.121104	2.084714
C85	C	-0.000019	0.497118	1.337728
C86	C	0.249981	0.747118	1.587728
C87	C	0.499981	0.997118	1.837728
C88	C	0.749981	1.247118	2.087728
C89	C	-0.000008	0.165168	0.905913
C90	C	0.249992	0.415168	1.155913
C91	C	0.499992	0.665168	1.405913
C92	C	0.749992	0.915168	1.655913
C93	C	-0.000009	0.162100	0.777527
C94	C	0.249991	0.412100	1.027527
C95	C	0.499991	0.662100	1.277527
C96	C	0.749991	0.912100	1.527527
C97	C	-0.000002	0.156643	1.549183
C98	C	0.249998	0.406643	1.799183
C99	C	0.499998	0.656643	2.049183
C100	C	0.749998	0.906643	2.299183
C101	C	-0.000009	0.159663	1.675196
C102	C	0.249991	0.409663	1.925196
C103	C	0.499991	0.659663	2.175196
C104	C	0.749991	0.909663	2.425196
