data_functionalizedCrystal
_audit_creation_method	'MofGen! by Chris Wilmer'
_symmetry_space_group_name_H-M	'P1'
_symmetry_Int_Tables_number	1
_symmetry_cell_setting	triclinic
loop_
_symmetry_equiv_pos_as_xyz
  x,y,z
_cell_length_a	18.050582
_cell_length_b	16.625548
_cell_length_c	16.625546
_cell_angle_alpha	90.023536
_cell_angle_beta	90.023778
_cell_angle_gamma	90.014893
loop_
_atom_site_label
_atom_site_type_symbol
_atom_site_fract_x
_atom_site_fract_y
_atom_site_fract_z
Zn1	Zn	-0.419906	-1.232635	0.321030
Zn2	Zn	-0.295713	-1.232552	0.455857
Zn3	Zn	-0.295730	-1.097810	0.321045
Zn4	Zn	-0.419862	-1.097768	0.455827
O5	O	-0.357803	-1.165191	0.388440
O6	O	-0.403443	-1.345457	0.338922
O7	O	-0.191791	-1.214661	0.437993
O8	O	-0.312228	-1.115748	0.208211
O9	O	-0.312199	-1.345395	0.437979
O10	O	-0.403459	-1.214803	0.208199
O11	O	-0.191803	-1.115667	0.338947
O12	O	-0.312185	-0.984972	0.338918
O13	O	-0.523792	-1.115675	0.437926
O14	O	-0.403384	-0.984941	0.437941
O15	O	-0.523825	-1.214762	0.338892
O16	O	-0.312156	-1.214620	0.568686
O17	O	-0.403368	-1.115594	0.568663
C18	C	-0.357782	-0.955700	0.388428
C19	C	-0.357791	-0.866079	0.388443
C20	C	-0.357772	-1.165115	0.597931
C21	C	-0.357783	-1.165156	0.687552
C22	C	-0.551508	-1.165223	0.388404
C23	C	-0.634054	-1.165236	0.388389
C24	C	-0.833487	-1.111394	0.442170
C25	C	-0.882878	-1.184959	0.461878
C26	C	-0.785185	-1.165276	0.388327
C27	C	-0.882875	-1.091752	0.368597
C28	C	-0.931170	-1.165308	0.388269
C29	C	-0.833488	-1.238879	0.408074
C30	C	-0.833481	-1.145623	0.314758
C31	C	-0.882850	-1.219238	0.334438
C32	C	-0.701086	-1.165257	0.388363
C33	C	-1.015266	-1.165336	0.388234
C34	C	-0.164851	-1.165206	0.388417
C35	C	-0.082305	-1.165349	0.388205
C36	C	-0.357824	-1.375500	0.388452
C37	C	-0.357833	-1.465121	0.388457
C38	C	-0.357822	-0.537904	0.388448
C39	C	-0.357811	-0.629212	0.388444
C40	C	-0.357806	-0.701989	0.388446
C41	C	-0.357796	-0.793303	0.388441
C42	C	-0.357850	-1.165290	0.178131
C43	C	-0.357870	-1.165332	0.088510
C44	C	-0.357860	-1.165297	1.015727
C45	C	-0.357841	-1.165255	0.924419
C46	C	-0.357821	-1.165226	0.851642
C47	C	-0.357803	-1.165185	0.760328
H48	H	-0.904576	-1.201601	0.524070
C49	C	-0.804795	-1.321837	0.430527
C50	C	-0.830448	-1.342365	0.507289
C51	C	-0.804037	-1.418780	0.527998
H52	H	-0.752172	-1.321407	0.430503
H53	H	-0.822114	-1.360184	0.392533
H54	H	-0.813125	-1.304028	0.545274
H55	H	-0.883067	-1.342812	0.507334
H56	H	-0.821357	-1.457127	0.490003
H57	H	-0.751416	-1.418343	0.527969
H58	H	-0.821445	-1.432721	0.580079
C59	C	-0.911535	-1.280207	0.273798
C60	C	-0.886390	-1.357044	0.294798
C61	C	-0.912809	-1.413232	0.238965
H62	H	-0.893890	-1.266788	0.221683
H63	H	-0.964165	-1.279628	0.273806
H64	H	-0.833770	-1.357621	0.294781
H65	H	-0.904033	-1.370489	0.346903
H66	H	-0.965440	-1.412653	0.238973
H67	H	-0.895162	-1.399805	0.186853
H68	H	-0.895758	-1.465373	0.253210
C69	C	-0.804558	-1.123240	0.231887
C70	C	-0.829521	-1.046149	0.211570
C71	C	-0.802881	-1.025489	0.135240
H72	H	-0.822176	-1.160914	0.193399
H73	H	-0.751930	-1.123831	0.232384
H74	H	-0.882138	-1.045565	0.211066
H75	H	-0.811905	-1.008458	0.250036
H76	H	-0.750253	-1.026080	0.135738
H77	H	-0.820501	-1.063169	0.096760
H78	H	-0.819809	-0.973179	0.121448
C79	C	-0.911847	-1.008803	0.346534
C80	C	-0.955562	-0.979193	0.409472
C81	C	-0.982252	-0.902779	0.389188
H82	H	-0.940849	-1.012372	0.298978
H83	H	-0.871291	-0.973476	0.337651
H84	H	-0.996112	-1.014511	0.418345
H85	H	-0.926576	-0.975604	0.457034
H86	H	-0.941697	-0.867452	0.380305
H87	H	-1.011251	-0.906356	0.341631
H88	H	-1.011910	-0.882676	0.431891
C89	C	-0.804622	-1.050799	0.503086
C90	C	-0.829638	-1.071774	0.579974
C91	C	-0.803054	-1.015983	0.636112
H92	H	-0.822241	-0.998659	0.489710
H93	H	-0.751993	-1.050878	0.502395
H94	H	-0.882256	-1.071687	0.580663
H95	H	-0.812021	-1.123905	0.593375
H96	H	-0.750425	-1.016062	0.635421
H97	H	-0.820675	-0.963846	0.622728
H98	H	-0.820018	-1.030211	0.688287
