data_functionalizedCrystal
_audit_creation_method	'MofGen! by Chris Wilmer'
_symmetry_space_group_name_H-M	'P1'
_symmetry_Int_Tables_number	1
_symmetry_cell_setting	triclinic
loop_
_symmetry_equiv_pos_as_xyz
  x,y,z
_cell_length_a	10.540510
_cell_length_b	19.188930
_cell_length_c	9.016244
_cell_angle_alpha	89.992636
_cell_angle_beta	89.992396
_cell_angle_gamma	83.829046
loop_
_atom_site_label
_atom_site_type_symbol
_atom_site_fract_x
_atom_site_fract_y
_atom_site_fract_z
O1	O	1.683749	0.098290	-0.123368
O2	O	1.314127	0.107582	-0.123371
O3	O	1.509604	0.001350	-0.123341
O4	O	1.488271	0.204521	-0.123399
O5	O	1.509576	0.001353	0.123340
O6	O	1.314098	0.107584	0.123310
O7	O	1.683721	0.098292	0.123312
Cu8	Cu	1.498907	0.102938	0.145835
Cu9	Cu	1.498940	0.102935	-0.145894
O10	O	1.488243	0.204523	0.123282
C11	C	1.266824	0.106890	-0.000031
C12	C	1.125920	0.104819	-0.000030
C13	C	0.906838	0.178617	-0.000618
C14	C	1.053385	0.180827	-0.000054
C15	C	1.082001	0.065911	0.140844
C16	C	0.935277	0.064240	0.140954
C17	C	0.935538	0.062654	-0.139568
C18	C	1.081800	0.066259	-0.141422
C19	C	1.508899	-0.024664	0.000004
C20	C	1.506826	-0.102182	0.000017
C21	C	1.621525	-0.146348	0.000025
C22	C	1.619577	-0.219185	0.000001
C23	C	1.502922	-0.247852	-0.000001
C24	C	1.388207	-0.203676	-0.000017
C25	C	1.390159	-0.130841	-0.000008
N26	N	1.413744	-0.356446	0.083949
N27	N	1.411898	-0.425636	0.083943
C28	C	1.497035	-0.467300	-0.000031
N29	N	1.584108	-0.437160	-0.083981
N30	N	1.585958	-0.367963	-0.083969
C31	C	1.500793	-0.326829	-0.000012
C32	C	1.609631	-0.590444	-0.000051
C33	C	1.607678	-0.663282	-0.000084
C34	C	1.376304	-0.647772	-0.000087
C35	C	1.378261	-0.574936	-0.000069
C36	C	1.494928	-0.546277	-0.000044
C37	C	1.731023	0.098983	-0.000031
C38	C	1.871928	0.101055	-0.000041
C39	C	1.488948	0.230538	-0.000066
C40	C	1.491022	0.308056	-0.000088
N41	N	1.498892	0.102940	0.351021
N42	N	1.498965	0.102928	-0.351080
C43	C	1.394012	0.159576	0.586038
C44	C	1.394236	0.159788	0.414146
C45	C	1.631252	0.119505	0.413355
C46	C	1.630678	0.119906	0.585300
C47	C	1.472735	0.029553	0.585586
C48	C	1.469680	0.030029	0.413631
H49	H	1.130623	0.009955	0.146099
F50	F	1.415555	0.230330	0.642448
H51	H	0.892474	0.086623	-0.246343
H52	H	1.296753	-0.094881	-0.000014
F53	F	1.342418	0.013615	0.360387
F54	F	1.416023	0.230949	0.360337
H55	H	1.541181	-0.014150	0.370668
H56	H	1.293226	-0.227022	-0.000022
F57	F	1.572779	-0.025557	0.638736
H58	H	1.378344	0.013786	0.629038
H59	H	1.704628	-0.567109	-0.000037
H60	H	1.653852	0.173438	0.625373
H61	H	1.711193	0.080308	0.626893
F62	F	1.118451	0.103243	-0.277647
F63	F	1.147526	-0.006275	-0.152518
H64	H	0.913534	0.007390	0.147369
H65	H	0.894462	0.090831	0.246244
H66	H	1.654984	0.172432	0.370262
F67	F	1.090884	0.220615	-0.132049
H68	H	0.914642	0.005587	-0.140504
F69	F	1.256180	-0.527929	-0.000072
H70	H	1.716524	-0.123019	0.000040
H71	H	1.712983	-0.255152	0.000001
F72	F	1.729764	-0.710288	-0.000085
H73	H	1.081102	0.211452	0.101084
H74	H	1.281322	-0.671112	-0.000096
F75	F	1.265605	0.146797	0.359060
F76	F	0.851165	0.217324	-0.132672
H77	H	0.862671	0.208060	0.099822
F78	F	1.121532	0.101230	0.277859
F79	F	1.264982	0.146742	0.640116
H80	H	1.711193	0.079372	0.372462
