data_functionalizedCrystal
_audit_creation_method	'MofGen! by Chris Wilmer'
_symmetry_space_group_name_H-M	'P1'
_symmetry_Int_Tables_number	1
_symmetry_cell_setting	triclinic
loop_
_symmetry_equiv_pos_as_xyz
  x,y,z
_cell_length_a	11.169417
_cell_length_b	18.050589
_cell_length_c	11.169409
_cell_angle_alpha	90.032850
_cell_angle_beta	90.019824
_cell_angle_gamma	90.029099
loop_
_atom_site_label
_atom_site_type_symbol
_atom_site_fract_x
_atom_site_fract_y
_atom_site_fract_z
Zn1	Zn	1.834813	-0.295582	0.678538
Zn2	Zn	2.168147	0.037751	1.011872
Zn3	Zn	2.501480	0.371085	1.345205
Zn4	Zn	1.834640	-0.419797	0.477854
Zn5	Zn	2.167973	-0.086464	0.811187
Zn6	Zn	2.501307	0.246870	1.144520
Zn7	Zn	1.634099	-0.295627	0.477873
Zn8	Zn	1.967432	0.037706	0.811206
Zn9	Zn	2.300766	0.371039	1.144539
Zn10	Zn	1.634044	-0.419737	0.678498
Zn11	Zn	1.967377	-0.086403	1.011832
Zn12	Zn	2.300711	0.246930	1.345165
O13	O	1.734399	-0.357686	0.578191
O14	O	2.067732	-0.024352	0.911524
O15	O	2.401066	0.308981	1.244857
O16	O	2.002740	-0.312066	0.651926
O17	O	2.336073	0.021268	0.985259
O18	O	2.669407	0.354601	1.318592
O19	O	1.807988	-0.403370	0.309906
O20	O	2.141322	-0.070036	0.643240
O21	O	2.474655	0.263297	0.976573
O22	O	1.660820	-0.191697	0.504516
O23	O	1.994153	0.141637	0.837850
O24	O	2.327487	0.474970	1.171183
O25	O	2.002613	-0.403326	0.504483
O26	O	2.335946	-0.069993	0.837817
O27	O	2.669279	0.263341	1.171150
O28	O	1.808284	-0.191663	0.651945
O29	O	2.141617	0.141670	0.985278
O30	O	2.474950	0.475003	1.318611
O31	O	1.660652	-0.312143	0.309920
O32	O	1.993985	0.021191	0.643254
O33	O	2.327318	0.354524	0.976587
O34	O	1.466142	-0.312084	0.504478
O35	O	1.799475	0.021249	0.837811
O36	O	2.132809	0.354582	1.171144
O37	O	1.660726	-0.403223	0.846454
O38	O	1.994059	-0.069890	1.179787
O39	O	2.327393	0.263444	1.513120
O40	O	1.466102	-0.403267	0.651876
O41	O	1.799435	-0.069933	0.985210
O42	O	2.132768	0.263400	1.318543
O43	O	1.808230	-0.312007	0.846483
O44	O	2.141564	0.021326	1.179816
O45	O	2.474897	0.354660	1.513150
O46	O	1.807935	-0.523714	0.504445
O47	O	2.141268	-0.190380	0.837778
O48	O	2.474602	0.142953	1.171111
O49	O	1.660558	-0.523669	0.651858
O50	O	1.993891	-0.190336	0.985191
O51	O	2.327225	0.142998	1.318524
C52	C	1.422574	-0.357674	0.578175
C53	C	1.755908	-0.024341	0.911509
C54	C	2.089241	0.308992	1.244842
C55	C	1.289174	-0.357687	0.578197
C56	C	1.622508	-0.024354	0.911531
C57	C	1.955841	0.308979	1.244864
C58	C	1.734254	-0.550638	0.578171
C59	C	2.067588	-0.217304	0.911504
C60	C	2.400921	0.116029	1.244838
C61	C	1.734302	-0.633184	0.578202
C62	C	2.067635	-0.299850	0.911536
C63	C	2.400969	0.033483	1.244869
C64	C	1.654237	-0.832637	0.658338
C65	C	1.987571	-0.499304	0.991671
C66	C	2.320904	-0.165970	1.325004
C67	C	1.624974	-0.882089	0.548822
C68	C	1.958307	-0.548755	0.882156
C69	C	2.291641	-0.215422	1.215489
C70	C	1.734420	-0.784314	0.578218
C71	C	2.067753	-0.450981	0.911551
C72	C	2.401087	-0.117647	1.244885
C73	C	1.763742	-0.881944	0.687746
C74	C	2.097075	-0.548611	1.021079
C75	C	2.430409	-0.215277	1.354413
C76	C	1.734532	-0.930299	0.578243
C77	C	2.067865	-0.596966	0.911576
C78	C	2.401198	-0.263632	1.244910
C79	C	1.705099	-0.832678	0.468645
C80	C	2.038432	-0.499345	0.801978
C81	C	2.371766	-0.166012	1.135312
C82	C	1.843918	-0.832529	0.607642
C83	C	2.177252	-0.499196	0.940976
C84	C	2.510585	-0.165863	1.274309
C85	C	1.814697	-0.881959	0.498052
C86	C	2.148030	-0.548625	0.831385
C87	C	2.481363	-0.215292	1.164718
C88	C	1.734353	-0.700216	0.578205
C89	C	2.067686	-0.366882	0.911539
C90	C	2.401019	-0.033549	1.244872
C91	C	1.734599	-1.014395	0.578243
C92	C	2.067932	-0.681062	0.911577
C93	C	2.401266	-0.347729	1.244910
C94	C	2.047441	-0.357697	0.578207
C95	C	2.380775	-0.024364	0.911540
C96	C	2.714108	0.308969	1.244874
C97	C	2.180841	-0.357703	0.578214
C98	C	2.514175	-0.024369	0.911547
C99	C	2.847508	0.308964	1.244881
C100	C	1.734491	-0.357603	0.891233
C101	C	2.067825	-0.024270	1.224567
C102	C	2.401158	0.309063	1.557900
C103	C	1.734531	-0.357568	1.024633
C104	C	2.067864	-0.024235	1.357967
C105	C	2.401197	0.309099	1.691300
C106	C	1.734577	-0.163980	0.578237
C107	C	2.067911	0.169353	0.911570
C108	C	2.401244	0.502687	1.244904
C109	C	1.734653	-0.081434	0.578257
C110	C	2.067986	0.251899	0.911590
C111	C	2.401320	0.585232	1.244923
C112	C	1.734376	-0.357714	0.266366
C113	C	2.067710	-0.024381	0.599699
C114	C	2.401043	0.308952	0.933033
C115	C	1.734570	-0.357540	0.132967
C116	C	2.067903	-0.024207	0.466300
C117	C	2.401236	0.309127	0.799633
H118	H	1.586330	-0.810980	0.725996
H119	H	1.919663	-0.477647	1.059329
H120	H	2.252996	-0.144313	1.392663
H121	H	1.680236	-0.811127	0.376003
H122	H	2.013569	-0.477793	0.709336
H123	H	2.346902	-0.144460	1.042670
H124	H	1.788498	-0.903585	0.780363
H125	H	2.121832	-0.570252	1.113696
H126	H	2.455165	-0.236918	1.447029
N127	N	1.502382	-0.910917	0.515842
N128	N	1.835715	-0.577584	0.849175
N129	N	2.169048	-0.244250	1.182509
H130	H	1.441824	-0.892979	0.576397
H131	H	1.775158	-0.559646	0.909730
H132	H	2.108491	-0.226312	1.243063
H133	H	1.503631	-0.966862	0.515308
H134	H	1.836964	-0.633529	0.848642
H135	H	2.170297	-0.300195	1.181975
H136	H	1.882552	-0.903478	0.430230
H137	H	2.215886	-0.570145	0.763563
H138	H	2.549219	-0.236812	1.096896
H139	H	1.936444	-0.810746	0.632559
H140	H	2.269777	-0.477413	0.965893
H141	H	2.603111	-0.144080	1.299226
