data_functionalizedCrystal
_audit_creation_method	'MofGen! by Chris Wilmer'
_symmetry_space_group_name_H-M	'P1'
_symmetry_Int_Tables_number	1
_symmetry_cell_setting	triclinic
loop_
_symmetry_equiv_pos_as_xyz
  x,y,z
_cell_length_a	17.077404
_cell_length_b	16.120484
_cell_length_c	16.120297
_cell_angle_alpha	84.385569
_cell_angle_beta	87.121653
_cell_angle_gamma	92.925780
loop_
_atom_site_label
_atom_site_type_symbol
_atom_site_fract_x
_atom_site_fract_y
_atom_site_fract_z
Zn1	Zn	1.159640	-0.356743	0.489453
Zn2	Zn	1.159541	-0.489433	0.356764
Zn3	Zn	1.035382	-0.349680	0.349700
Zn4	Zn	1.021327	-0.496475	0.496486
O5	O	1.093973	-0.423083	0.423101
O6	O	1.269473	-0.374354	0.471865
O7	O	1.148912	-0.464991	0.238865
O8	O	1.057788	-0.233651	0.362338
O9	O	1.269400	-0.471840	0.374379
O10	O	1.149080	-0.238841	0.465015
O11	O	1.057692	-0.362315	0.233675
O12	O	0.923671	-0.369143	0.369158
O13	O	1.033834	-0.483842	0.612515
O14	O	0.913346	-0.476993	0.477002
O15	O	1.135452	-0.381182	0.607348
O16	O	1.135284	-0.607332	0.381198
O17	O	1.033738	-0.612506	0.483852
C18	C	0.890027	-0.423066	0.423077
C19	C	0.802776	-0.423080	0.423088
C20	C	0.756430	-0.479314	0.479160
C21	C	0.674448	-0.479316	0.479174
C22	C	0.638815	-0.423089	0.423110
C23	C	0.685167	-0.366849	0.367035
C24	C	0.767147	-0.366843	0.367026
C25	C	0.514295	-0.366867	0.367056
C26	C	0.432310	-0.366873	0.367063
C27	C	0.421597	-0.479340	0.479203
C28	C	0.503577	-0.479334	0.479195
C29	C	0.549923	-0.423095	0.423118
C30	C	1.082995	-0.640248	0.434073
C31	C	1.078370	-0.733153	0.438795
C32	C	1.069928	-0.903253	0.447433
C33	C	1.118157	-0.942072	0.398782
C34	C	1.113460	-1.036721	0.403589
C35	C	1.074624	-0.808595	0.442628
C36	C	1.298715	-0.423100	0.423125
C37	C	1.385964	-0.423107	0.423136
C38	C	1.083086	-0.434085	0.641107
C39	C	1.078447	-0.438774	0.734008
C40	C	1.105013	-0.205070	0.412104
C41	C	1.109718	-0.112167	0.407418
C42	C	1.104865	-0.412062	0.205940
C43	C	1.109667	-0.407138	0.113028
C44	C	1.069950	-0.447316	0.904098
C45	C	1.118162	-0.398599	0.942943
C46	C	1.113434	-0.403352	1.037587
C47	C	1.074677	-0.442564	0.809445
H48	H	0.785436	-0.525104	0.524811
O49	O	1.177521	-0.891938	0.338827
H50	H	1.212130	-0.934978	0.303931
H51	H	1.025114	-0.941101	0.492689
O52	O	1.177554	-0.338633	0.892850
H53	H	1.146534	-0.294145	0.850907
O54	O	0.624458	-0.540119	0.539499
H55	H	0.663009	-0.579279	0.578419
O56	O	0.542016	-0.539975	0.539664
H57	H	0.496017	-0.579075	0.578666
H58	H	1.025127	-0.492591	0.941919
H59	H	0.403300	-0.321078	0.321421
O60	O	0.371616	-0.539994	0.539695
H61	H	0.308624	-0.530546	0.530293
O62	O	0.564288	-0.306218	0.306567
H63	H	0.525739	-0.267128	0.267575
H64	H	0.656148	-0.321064	0.321390
O65	O	0.817140	-0.306201	0.306539
H66	H	0.778591	-0.267111	0.267547
