data_functionalizedCrystal
_audit_creation_method	'MofGen! by Chris Wilmer'
_symmetry_space_group_name_H-M	'P1'
_symmetry_Int_Tables_number	1
_symmetry_cell_setting	triclinic
loop_
_symmetry_equiv_pos_as_xyz
  x,y,z
_cell_length_a	12.759401
_cell_length_b	19.120786
_cell_length_c	12.759393
_cell_angle_alpha	92.477119
_cell_angle_beta	90.018496
_cell_angle_gamma	92.465417
loop_
_atom_site_label
_atom_site_type_symbol
_atom_site_fract_x
_atom_site_fract_y
_atom_site_fract_z
Zn1	Zn	1.588335	-0.279587	0.576097
Zn2	Zn	2.088335	0.220413	1.076097
Zn3	Zn	1.580700	-0.397064	0.392903
Zn4	Zn	2.080700	0.102936	0.892903
Zn5	Zn	1.412635	-0.279624	0.400435
Zn6	Zn	1.912635	0.220376	0.900435
Zn7	Zn	1.405099	-0.397010	0.568548
Zn8	Zn	1.905099	0.102990	1.068548
O9	O	1.496692	-0.338321	0.484496
O10	O	1.996692	0.161679	0.984496
O11	O	1.734343	-0.295178	0.551804
O12	O	2.234343	0.204822	1.051804
O13	O	1.558364	-0.381523	0.246879
O14	O	2.058364	0.118477	0.746879
O15	O	1.442291	-0.181328	0.430048
O16	O	1.942291	0.318672	0.930048
O17	O	1.728733	-0.381488	0.417212
O18	O	2.228733	0.118512	0.917212
O19	O	1.571377	-0.181301	0.559107
O20	O	2.071377	0.318699	1.059107
O21	O	1.434887	-0.295241	0.252412
O22	O	1.934887	0.204759	0.752412
O23	O	1.264615	-0.295188	0.422728
O24	O	1.764615	0.204812	0.922728
O25	O	1.429448	-0.381396	0.716573
O26	O	1.929448	0.118604	1.216573
O27	O	1.259078	-0.381431	0.546240
O28	O	1.759078	0.118569	1.046240
O29	O	1.564070	-0.295126	0.722120
O30	O	2.064070	0.204874	1.222120
O31	O	1.551057	-0.495348	0.409892
O32	O	2.051057	0.004652	0.909892
O33	O	1.422044	-0.495308	0.538937
O34	O	1.922044	0.004692	1.038937
C35	C	1.223726	-0.338308	0.484482
C36	C	1.723726	0.161692	0.984482
C37	C	1.106948	-0.338320	0.484500
C38	C	1.606948	0.161680	0.984500
C39	C	1.484933	-0.520814	0.472801
C40	C	1.984933	-0.020814	0.972801
C41	C	1.479998	-0.598885	0.467833
C42	C	1.979998	-0.098885	0.967833
C43	C	1.049227	-0.383298	0.548698
C44	C	1.549227	0.116702	1.048698
C45	C	0.939502	-0.383307	0.548708
C46	C	1.439502	0.116693	1.048708
C47	C	0.945231	-0.293357	0.420316
C48	C	1.445231	0.206643	0.920316
C49	C	1.054953	-0.293345	0.420312
C50	C	1.554953	0.206655	0.920312
C51	C	1.101221	-0.428273	0.612887
C52	C	1.601221	0.071727	1.112887
C53	C	1.043499	-0.473256	0.677088
C54	C	1.543499	0.026744	1.177088
C55	C	0.933775	-0.473265	0.677099
C56	C	1.433775	0.026735	1.177099
C57	C	0.881772	-0.428291	0.612908
C58	C	1.381772	0.071709	1.112908
C59	C	1.544838	-0.635488	0.532747
C60	C	2.044838	-0.135488	1.032747
C61	C	1.540197	-0.708844	0.528081
C62	C	2.040197	-0.208844	1.028081
C63	C	1.470721	-0.745595	0.458494
C64	C	1.970721	-0.245595	0.958494
C65	C	1.405874	-0.708987	0.393577
C66	C	1.905874	-0.208987	0.893577
C67	C	1.410510	-0.635632	0.398249
C68	C	1.910510	-0.135632	0.898249
C69	C	1.453358	-0.967082	0.441028
C70	C	1.953358	-0.467082	0.941028
C71	C	1.448729	-1.040442	0.436358
C72	C	1.948729	-0.540442	0.936358
C73	C	1.583052	-1.040294	0.570864
C74	C	2.083052	-0.540294	1.070864
C75	C	1.587686	-0.966938	0.575526
C76	C	2.087686	-0.466938	1.075526
C77	C	1.522835	-0.930336	0.510612
C78	C	2.022835	-0.430336	1.010612
C79	C	1.465978	-0.820577	0.453721
C80	C	1.965978	-0.320577	0.953721
C81	C	1.527574	-0.855356	0.515392
C82	C	2.027574	-0.355356	1.015392
C83	C	1.770725	-0.338335	0.484510
C84	C	2.270725	0.161665	0.984510
C85	C	1.887501	-0.338341	0.484516
C86	C	2.387501	0.161659	0.984516
C87	C	1.496770	-0.338251	0.758534
C88	C	1.996770	0.161749	1.258534
C89	C	1.496804	-0.338220	0.875312
C90	C	1.996804	0.161780	1.375312
C91	C	1.508526	-0.155117	0.496260
C92	C	2.008526	0.344883	0.996260
C93	C	1.513569	-0.077046	0.501273
C94	C	2.013569	0.422954	1.001273
C95	C	1.496678	-0.338341	0.211527
C96	C	1.996678	0.161659	0.711527
C97	C	1.496861	-0.338174	0.094762
C98	C	1.996861	0.161826	0.594762
C99	C	1.566911	-0.293295	0.933065
C100	C	2.066911	0.206705	1.433065
C101	C	1.566938	-0.293270	1.042790
C102	C	2.066938	0.206730	1.542790
C103	C	1.426746	-0.383101	1.037002
C104	C	1.926746	0.116899	1.537002
C105	C	1.426715	-0.383122	0.927278
C106	C	1.926715	0.116878	1.427278
C107	C	1.636999	-0.248394	0.881099
C108	C	2.136999	0.251606	1.381099
C109	C	1.707113	-0.203465	0.938851
C110	C	2.207113	0.296535	1.438851
C111	C	1.707140	-0.203440	1.048577
C112	C	2.207140	0.296560	1.548577
C113	C	1.637053	-0.248343	1.100550
C114	C	2.137053	0.251657	1.600550
H115	H	1.190564	-0.428272	0.612883
H116	H	1.690564	0.071728	1.112883
O117	O	1.340575	-0.596153	0.328230
O118	O	1.840575	-0.096153	0.828230
H119	H	1.355462	-0.538971	0.343176
H120	H	1.855462	-0.038971	0.843176
O121	O	1.619786	-0.595856	0.607797
O122	O	2.119786	-0.095856	1.107797
H123	H	1.574855	-0.562430	0.663336
H124	H	2.074855	-0.062430	1.163336
O125	O	1.637066	-0.248316	1.218898
O126	O	2.137066	0.251684	1.718898
H127	H	1.715394	-0.262515	1.246930
H128	H	2.215394	0.237485	1.746930
H129	H	1.101952	-0.256714	0.368045
H130	H	1.601952	0.243286	0.868045
O131	O	0.763424	-0.428310	0.612914
O132	O	1.263424	0.071690	1.112914
H133	H	0.735427	-0.414188	0.693101
H134	H	1.235427	0.085812	1.193101
O135	O	1.373802	-1.080080	0.361283
O136	O	1.873802	-0.580080	0.861283
H137	H	1.381492	-1.137237	0.368927
H138	H	1.881492	-0.637237	0.868927
O139	O	1.351100	-0.431578	0.864983
O140	O	1.851100	0.068422	1.364983
H141	H	1.299664	-0.400141	0.817023
H142	H	1.799664	0.099859	1.317023
O143	O	1.351161	-0.431529	1.093060
O144	O	1.851161	0.068471	1.593060
H145	H	1.302397	-0.462768	1.034467
H146	H	1.802397	0.037232	1.534467
H147	H	0.902881	-0.256742	0.368054
H148	H	1.402881	0.243258	0.868054
H149	H	1.593005	-0.738643	0.580933
H150	H	2.093005	-0.238643	1.080933
H151	H	1.400556	-0.937287	0.388171
H152	H	1.900556	-0.437287	0.888171
H153	H	1.409413	-0.850508	0.397060
H154	H	1.909413	-0.350508	0.897060
O155	O	1.099579	-0.521748	0.746344
O156	O	1.599579	-0.021748	1.246344
H157	H	1.185574	-0.514186	0.735553
H158	H	1.685574	-0.014186	1.235553
H159	H	1.636988	-0.248411	0.791755
H160	H	2.136988	0.251589	1.291755
O161	O	0.871578	-0.521814	0.746339
O162	O	1.371578	-0.021814	1.246339
H163	H	0.823619	-0.490468	0.801935
H164	H	1.323619	0.009532	1.301935
H165	H	1.644259	-0.937017	0.632189
H166	H	2.144259	-0.437017	1.132189
O167	O	1.782709	-0.155038	0.882804
O168	O	2.282709	0.344962	1.382804
H169	H	1.770923	-0.162607	0.796803
H170	H	2.270923	0.337393	1.296803
H171	H	1.349301	-0.738915	0.336922
H172	H	1.849301	-0.238915	0.836922
H173	H	1.635848	-1.070104	0.623714
H174	H	2.135848	-0.570104	1.123714
O175	O	1.602519	-0.815723	0.590436
O176	O	2.102519	-0.315723	1.090436
H177	H	1.557588	-0.782297	0.645976
H178	H	2.057588	-0.282297	1.145976
H179	H	1.764223	-0.166852	1.095596
H180	H	2.264223	0.333148	1.595596
