data_functionalizedCrystal
_audit_creation_method	'MofGen! by Chris Wilmer'
_symmetry_space_group_name_H-M	'P1'
_symmetry_Int_Tables_number	1
_symmetry_cell_setting	triclinic
loop_
_symmetry_equiv_pos_as_xyz
  x,y,z
_cell_length_a	9.065215
_cell_length_b	17.699083
_cell_length_c	7.540329
_cell_angle_alpha	89.995522
_cell_angle_beta	89.997574
_cell_angle_gamma	84.148856
loop_
_atom_site_label
_atom_site_type_symbol
_atom_site_fract_x
_atom_site_fract_y
_atom_site_fract_z
O1	O	1.957112	0.110962	-0.147466
O2	O	1.527557	0.120067	-0.147474
O3	O	1.754471	0.005420	-0.147454
O4	O	1.730199	0.225609	-0.147486
O5	O	1.754457	0.005419	0.147511
O6	O	1.527544	0.120066	0.147491
O7	O	1.957099	0.110961	0.147499
Cu8	Cu	1.742320	0.115513	0.174427
Cu9	Cu	1.742336	0.115515	-0.174403
O10	O	1.730185	0.225608	0.147479
C11	C	1.472590	0.119192	0.000007
C12	C	1.308824	0.116577	0.000004
C13	C	1.753594	-0.022784	0.000028
C14	C	1.750985	-0.106823	0.000029
C15	C	1.884179	-0.154406	0.000034
C16	C	1.881718	-0.233368	0.000018
C17	C	1.746063	-0.264746	0.000010
C18	C	1.612859	-0.217157	-0.000000
C19	C	1.615321	-0.138196	0.000003
C20	C	1.602928	-0.535598	-0.000015
C21	C	1.600476	-0.614565	-0.000012
C22	C	1.869325	-0.630770	0.000001
C23	C	1.871787	-0.551809	0.000004
C24	C	1.738584	-0.504227	-0.000016
C25	C	1.741253	-0.418607	-0.000002
C26	C	1.743392	-0.350365	0.000009
C27	C	2.012066	0.111836	0.000013
C28	C	2.175832	0.114451	0.000004
C29	C	1.731062	0.253812	-0.000008
C30	C	1.733671	0.337851	-0.000020
N31	N	1.742320	0.115511	0.419776
N32	N	1.742348	0.115511	-0.419751
H33	H	1.990178	-0.272108	0.000026
C34	C	2.021010	-0.517294	0.000003
C35	C	2.167525	-0.569634	-0.000008
C36	C	2.316750	-0.535120	-0.000020
C37	C	2.319461	-0.448266	-0.000020
C38	C	2.172941	-0.395921	-0.000009
C39	C	2.023715	-0.430435	0.000002
H40	H	2.165523	-0.633933	-0.000007
H41	H	2.425214	-0.573870	-0.000028
H42	H	2.429927	-0.422717	-0.000029
H43	H	2.174942	-0.331622	-0.000010
H44	H	1.915251	-0.391685	0.000011
H45	H	1.506861	-0.099454	-0.000002
H46	H	1.994645	-0.128864	0.000052
H47	H	1.977785	-0.669521	0.000008
C48	C	1.451245	-0.649082	-0.000037
C49	C	1.340657	-0.631544	0.153110
C50	C	1.191435	-0.666062	0.153088
C51	C	1.152802	-0.718117	-0.000080
C52	C	1.263393	-0.735657	-0.153239
C53	C	1.412614	-0.701140	-0.153217
H54	H	1.369253	-0.593007	0.266505
H55	H	1.109569	-0.653077	0.266467
H56	H	1.042339	-0.743669	-0.000097
H57	H	1.234797	-0.774194	-0.266633
H58	H	1.494481	-0.714125	-0.266595
H59	H	1.494465	-0.496865	-0.000030
H60	H	1.502406	-0.242711	-0.000018
