data_functionalizedCrystal
_audit_creation_method	'MofGen! by Chris Wilmer'
_symmetry_space_group_name_H-M	'P1'
_symmetry_Int_Tables_number	1
_symmetry_cell_setting	triclinic
loop_
_symmetry_equiv_pos_as_xyz
  x,y,z
_cell_length_a	15.995300
_cell_length_b	15.995350
_cell_length_c	9.130313
_cell_angle_alpha	89.997713
_cell_angle_beta	89.994890
_cell_angle_gamma	83.482091
loop_
_atom_site_label
_atom_site_type_symbol
_atom_site_fract_x
_atom_site_fract_y
_atom_site_fract_z
O1	O	1.111011	0.107726	-0.121846
O2	O	0.867230	0.121097	-0.121836
O3	O	0.995784	-0.007477	-0.121840
O4	O	0.982456	0.236300	-0.121842
O5	O	0.995775	-0.007481	0.121759
O6	O	0.867221	0.121094	0.121763
O7	O	1.111002	0.107722	0.121753
Cu8	Cu	0.989111	0.114408	0.144001
Cu9	Cu	0.989121	0.114412	-0.144083
O10	O	0.982447	0.236297	0.121757
C11	C	0.836030	0.120550	-0.000035
C12	C	0.743077	0.118915	-0.000032
C13	C	0.572894	0.115896	-0.000043
C14	C	0.525428	0.207443	-0.000041
C15	C	0.428740	0.205773	-0.000597
C16	C	0.405337	0.112924	-0.000052
C17	C	0.446475	0.067506	-0.138885
C18	C	0.543109	0.069822	-0.138997
C19	C	0.543378	0.068463	0.138030
C20	C	0.446433	0.068471	0.139851
C21	C	0.310642	0.111239	-0.000063
C22	C	0.667590	0.117577	-0.000043
C23	C	0.995229	-0.038674	-0.000043
C24	C	0.993577	-0.131624	-0.000051
C25	C	0.987644	-0.469370	-0.000046
C26	C	0.896090	-0.421920	-0.000589
C27	C	0.897743	-0.325230	-0.000040
C28	C	0.990587	-0.301810	-0.000049
C29	C	1.035740	-0.342898	0.139053
C30	C	1.033440	-0.439533	0.139170
C31	C	1.035341	-0.439888	-0.137848
C32	C	1.035319	-0.342942	-0.139686
C33	C	0.992255	-0.207113	-0.000047
C34	C	0.985979	-0.564068	-0.000039
C35	C	1.142202	0.108269	-0.000051
C36	C	1.235154	0.109904	-0.000064
C37	C	0.983003	0.267493	-0.000043
C38	C	0.984655	0.360443	-0.000044
N39	N	0.989109	0.114404	0.346623
N40	N	0.989129	0.114409	-0.346706
C41	C	1.046052	0.057495	0.423273
C42	C	1.046060	0.057495	0.576610
C43	C	0.932180	0.171321	0.576633
C44	C	0.932168	0.171316	0.423299
H45	H	0.400274	0.241461	0.098901
H46	H	0.419090	0.101638	0.242561
H47	H	1.103026	-0.327592	-0.148092
H48	H	0.885821	0.217658	0.639078
C49	C	0.550399	0.257156	0.134425
C50	C	0.591600	0.338794	0.113487
C51	C	0.616576	0.388509	0.247957
C52	C	0.600350	0.356585	0.403364
C53	C	0.559147	0.274943	0.424309
C54	C	0.534171	0.225228	0.289839
H55	H	0.603613	0.362429	-0.001561
H56	H	0.647077	0.448946	0.232451
H57	H	0.618839	0.393387	0.502906
H58	H	0.547134	0.251307	0.539357
H59	H	0.503670	0.164790	0.305345
H60	H	1.092427	0.011154	0.639015
H61	H	0.885795	0.217658	0.360886
H62	H	0.575159	0.000966	0.139366
C63	C	0.391116	0.253782	-0.135824
C64	C	0.449060	0.293757	-0.243648
C65	C	0.411435	0.341768	-0.378881
C66	C	0.315866	0.349804	-0.406289
C67	C	0.257916	0.309828	-0.298462
C68	C	0.295541	0.261817	-0.163229
H69	H	0.519811	0.287809	-0.223362
H70	H	0.454335	0.371361	-0.458702
H71	H	0.288014	0.385345	-0.506397
H72	H	0.187165	0.315776	-0.318749
H73	H	0.252642	0.232224	-0.083409
H74	H	0.545040	0.243687	-0.099449
H75	H	1.002307	-0.315686	-0.242591
C76	C	0.849788	-0.286815	-0.134737
C77	C	0.841897	-0.191108	-0.160616
C78	C	0.793937	-0.152698	-0.295315
C79	C	0.753868	-0.209993	-0.404135
C80	C	0.761758	-0.305705	-0.378260
C81	C	0.809718	-0.344116	-0.243561
H82	H	0.871560	-0.148690	-0.080057
H83	H	0.788097	-0.081845	-0.314468
H84	H	0.718365	-0.181559	-0.503848
H85	H	0.732096	-0.348124	-0.458819
H86	H	0.815559	-0.414969	-0.224407
C87	C	1.124240	-0.483126	0.147720
C88	C	1.180240	-0.466867	0.279528
C89	C	1.271037	-0.510457	0.288093
C90	C	1.305833	-0.570305	0.164849
C91	C	1.249831	-0.586566	0.033031
C92	C	1.159035	-0.542977	0.024467
H93	H	1.154483	-0.422561	0.370769
H94	H	1.312492	-0.498418	0.385674
H95	H	1.373046	-0.602572	0.171189
H96	H	1.275589	-0.630872	-0.058210
H97	H	1.117579	-0.555015	-0.073114
C98	C	1.108679	-0.005113	0.338929
C99	C	1.171311	-0.067715	0.423251
C100	C	1.233938	-0.130327	0.338913
C101	C	1.233933	-0.130337	0.170251
C102	C	1.171299	-0.067732	0.085919
C103	C	1.108672	-0.005120	0.170258
H104	H	1.171317	-0.067710	0.548113
H105	H	1.280304	-0.176671	0.401342
H106	H	1.280293	-0.176686	0.107818
H107	H	1.171293	-0.067737	-0.038943
H108	H	1.062306	0.041224	0.107829
C109	C	0.846656	-0.446930	-0.135357
C110	C	0.888812	-0.510748	-0.246567
C111	C	0.839380	-0.535758	-0.381349
C112	C	0.747792	-0.496950	-0.404920
C113	C	0.705631	-0.433128	-0.293707
C114	C	0.755064	-0.408118	-0.158925
H115	H	0.956615	-0.539480	-0.229121
H116	H	0.870591	-0.583004	-0.463676
H117	H	0.711200	-0.515464	-0.504693
H118	H	0.637828	-0.404396	-0.311153
H119	H	0.723853	-0.360872	-0.076598
H120	H	0.432376	-0.000718	-0.143657
H121	H	0.561431	0.102558	-0.243170
C122	C	0.993363	-0.304562	0.278912
C123	C	0.990378	-0.209455	0.308157
C124	C	0.947996	-0.171120	0.448011
C125	C	0.908598	-0.227893	0.558620
C126	C	0.911581	-0.323006	0.529378
C127	C	0.953964	-0.361340	0.389524
H128	H	1.019544	-0.167423	0.226275
H129	H	0.945787	-0.100711	0.469657
H130	H	0.877224	-0.199516	0.662148
H131	H	0.882416	-0.365038	0.611260
H132	H	0.956172	-0.431750	0.367877
C133	C	0.425645	-0.022954	0.151823
C134	C	0.459716	-0.078313	0.281407
C135	C	0.438895	-0.169729	0.293405
C136	C	0.384002	-0.205787	0.175818
C137	C	0.349928	-0.150428	0.046224
C138	C	0.370749	-0.059011	0.034227
H139	H	0.500354	-0.051621	0.368461
H140	H	0.464119	-0.210710	0.389339
H141	H	0.368589	-0.273459	0.184699
H142	H	0.309290	-0.177120	-0.040829
H143	H	0.345524	-0.018031	-0.061708
H144	H	0.575382	0.002598	-0.144929
C145	C	0.408177	0.109607	-0.278993
C146	C	0.464979	0.148801	-0.389813
C147	C	0.426683	0.190910	-0.529916
C148	C	0.331586	0.193826	-0.559198
C149	C	0.274779	0.154631	-0.448375
C150	C	0.313074	0.112522	-0.308272
H151	H	0.535381	0.146644	-0.368139
H152	H	0.468736	0.219925	-0.611954
H153	H	0.303237	0.224998	-0.662910
H154	H	0.204377	0.156789	-0.470048
H155	H	0.271021	0.083507	-0.226234
H156	H	0.563874	0.098601	0.243291
H157	H	0.859656	-0.441509	0.098611
H158	H	0.862003	-0.297360	0.099847
H159	H	1.000507	-0.457830	0.243158
H160	H	1.103950	-0.328785	0.144219
H161	H	1.102844	-0.471661	-0.138790
H162	H	1.005411	-0.460420	-0.243280
