data_functionalizedCrystal
_audit_creation_method	'MofGen! by Chris Wilmer'
_symmetry_space_group_name_H-M	'P1'
_symmetry_Int_Tables_number	1
_symmetry_cell_setting	triclinic
loop_
_symmetry_equiv_pos_as_xyz
  x,y,z
_cell_length_a	13.897449
_cell_length_b	12.645330
_cell_length_c	13.897441
_cell_angle_alpha	89.973671
_cell_angle_beta	89.978743
_cell_angle_gamma	90.018519
loop_
_atom_site_label
_atom_site_type_symbol
_atom_site_fract_x
_atom_site_fract_y
_atom_site_fract_z
Zn1	Zn	1.474682	-0.421992	-0.545472
Zn2	Zn	1.808016	-0.088659	-0.212138
Zn3	Zn	2.141349	0.244674	0.121195
Zn4	Zn	1.474582	-0.599285	-0.384182
Zn5	Zn	1.807916	-0.265951	-0.050849
Zn6	Zn	2.141249	0.067382	0.282484
Zn7	Zn	1.313377	-0.422038	-0.384183
Zn8	Zn	1.646711	-0.088705	-0.050849
Zn9	Zn	1.980044	0.244628	0.282484
Zn10	Zn	1.313353	-0.599217	-0.545428
Zn11	Zn	1.646686	-0.265883	-0.212094
Zn12	Zn	1.980020	0.067450	0.121239
O13	O	1.393999	-0.510633	-0.464816
O14	O	1.727332	-0.177300	-0.131483
O15	O	2.060665	0.156034	0.201851
O16	O	1.609651	-0.445520	-0.524095
O17	O	1.942984	-0.112186	-0.190761
O18	O	2.276317	0.221147	0.142572
O19	O	1.453166	-0.575820	-0.249201
O20	O	1.786500	-0.242487	0.084133
O21	O	2.119833	0.090846	0.417466
O22	O	1.334827	-0.273685	-0.405597
O23	O	1.668160	0.059648	-0.072263
O24	O	2.001494	0.392982	0.261070
O25	O	1.609577	-0.575776	-0.405596
O26	O	1.942911	-0.242442	-0.072263
O27	O	2.276244	0.090891	0.261070
O28	O	1.453337	-0.273651	-0.524095
O29	O	1.786670	0.059682	-0.190762
O30	O	2.120004	0.393016	0.142572
O31	O	1.334730	-0.445598	-0.249201
O32	O	1.668063	-0.112265	0.084132
O33	O	2.001397	0.221068	0.417466
O34	O	1.178393	-0.445532	-0.405554
O35	O	1.511726	-0.112199	-0.072220
O36	O	1.845059	0.221134	0.261113
O37	O	1.334785	-0.575660	-0.680415
O38	O	1.668119	-0.242326	-0.347082
O39	O	2.001452	0.091007	-0.013748
O40	O	1.178375	-0.575704	-0.524020
O41	O	1.511708	-0.242371	-0.190686
O42	O	1.845041	0.090962	0.142647
O43	O	1.453313	-0.445454	-0.680448
O44	O	1.786647	-0.112120	-0.347114
O45	O	2.119980	0.221213	-0.013781
O46	O	1.453143	-0.747623	-0.405553
O47	O	1.786476	-0.414290	-0.072220
O48	O	2.119810	-0.080956	0.261113
O49	O	1.334689	-0.747573	-0.524019
O50	O	1.668022	-0.414240	-0.190686
O51	O	2.001355	-0.080906	0.142647
C52	C	1.143384	-0.510617	-0.464782
C53	C	1.476718	-0.177283	-0.131449
C54	C	1.810051	0.156050	0.201884
C55	C	1.036171	-0.510635	-0.464791
C56	C	1.369504	-0.177302	-0.131458
C57	C	1.702837	0.156031	0.201876
C58	C	0.949101	-0.510639	-0.464807
C59	C	1.282434	-0.177305	-0.131474
C60	C	1.615767	0.156028	0.201860
C61	C	0.839868	-0.510646	-0.464836
C62	C	1.173202	-0.177313	-0.131503
C63	C	1.506535	0.156020	0.201830
C64	C	1.393928	-0.786063	-0.464803
C65	C	1.727262	-0.452729	-0.131469
C66	C	2.060595	-0.119396	0.201864
C67	C	1.393987	-0.903893	-0.464829
C68	C	1.727320	-0.570559	-0.131496
C69	C	2.060653	-0.237226	0.201838
C70	C	1.319774	-1.071469	-0.539586
C71	C	1.653108	-0.738136	-0.206253
C72	C	1.986441	-0.404803	0.127081
C73	C	1.319395	-0.948910	-0.539346
C74	C	1.652728	-0.615577	-0.206012
C75	C	1.986061	-0.282243	0.127321
C76	C	1.366471	-0.948490	-0.363172
C77	C	1.699804	-0.615157	-0.029839
C78	C	2.033138	-0.281824	0.303494
C79	C	1.366018	-1.071089	-0.363626
C80	C	1.699351	-0.737755	-0.030293
C81	C	2.032685	-0.404422	0.303041
C82	C	1.496168	-1.070980	-0.490905
C83	C	1.829502	-0.737646	-0.157571
C84	C	2.162835	-0.404313	0.175762
C85	C	1.495542	-0.948373	-0.493127
C86	C	1.828876	-0.615040	-0.159794
C87	C	2.162209	-0.281706	0.173539
C88	C	1.645592	-0.510650	-0.464850
C89	C	1.978925	-0.177317	-0.131517
C90	C	2.312258	0.156016	0.201816
C91	C	1.752806	-0.510658	-0.464865
C92	C	2.086139	-0.177324	-0.131532
C93	C	2.419472	0.156009	0.201802
C94	C	1.394058	-0.510544	-0.716409
C95	C	1.727391	-0.177211	-0.383076
C96	C	2.060725	0.156123	-0.049743
C97	C	1.394083	-0.510506	-0.823623
C98	C	1.727416	-0.177173	-0.490290
C99	C	2.060750	0.156161	-0.156957
C100	C	1.394096	-0.234128	-0.464851
C101	C	1.727429	0.099206	-0.131517
C102	C	2.060762	0.432539	0.201816
C103	C	1.394137	-0.116298	-0.464866
C104	C	1.727470	0.217036	-0.131532
C105	C	2.060804	0.550369	0.201801
C106	C	1.394103	-0.510476	-0.910693
C107	C	1.727436	-0.177143	-0.577360
C108	C	2.060769	0.156191	-0.244026
C109	C	1.394130	-0.510428	-1.019926
C110	C	1.727464	-0.177095	-0.686592
C111	C	2.060797	0.156238	-0.353259
C112	C	1.393996	-0.510645	-0.214202
C113	C	1.727329	-0.177312	0.119132
C114	C	2.060662	0.156021	0.452465
C115	C	1.394157	-0.510385	-0.106988
C116	C	1.727491	-0.177051	0.226345
C117	C	2.060824	0.156282	0.559678
H118	H	1.336610	-0.918754	-0.614723
H119	H	1.669943	-0.585420	-0.281390
H120	H	2.003276	-0.252087	0.051943
C121	C	1.530077	-1.112634	-0.589344
C122	C	1.863411	-0.779301	-0.256011
C123	C	2.196744	-0.445968	0.077322
H124	H	1.482319	-1.158057	-0.615487
H125	H	1.815652	-0.824724	-0.282153
H126	H	2.148985	-0.491390	0.051180
H127	H	1.588441	-1.150760	-0.581539
H128	H	1.921774	-0.817427	-0.248206
H129	H	2.255108	-0.484094	0.085127
H130	H	1.540367	-1.054776	-0.631749
H131	H	1.873700	-0.721443	-0.298416
H132	H	2.207034	-0.388110	0.034917
H133	H	1.553864	-0.917723	-0.442668
H134	H	1.887197	-0.584390	-0.109335
H135	H	2.220530	-0.251056	0.223998
H136	H	1.551570	-1.099968	-0.436483
H137	H	1.884904	-0.766635	-0.103149
H138	H	2.218237	-0.433302	0.230184
H139	H	1.516293	-0.919220	-0.567942
H140	H	1.849626	-0.585887	-0.234608
H141	H	2.182959	-0.252553	0.098725
H142	H	1.243753	-0.919677	-0.522094
H143	H	1.577087	-0.586344	-0.188761
H144	H	1.910420	-0.253010	0.144572
H145	H	1.291433	-1.099782	-0.341568
H146	H	1.624766	-0.766448	-0.008234
H147	H	1.958099	-0.433115	0.325099
H148	H	1.336831	-1.100879	-0.615211
H149	H	1.670164	-0.767546	-0.281878
H150	H	2.003498	-0.434212	0.051456
H151	H	1.244605	-1.102372	-0.522555
H152	H	1.577939	-0.769039	-0.189222
H153	H	1.911272	-0.435705	0.144112
H154	H	1.417831	-1.100747	-0.306055
H155	H	1.751164	-0.767413	0.027278
H156	H	2.084497	-0.434080	0.360612
C157	C	1.437310	-0.909098	-0.285903
C158	C	1.770643	-0.575765	0.047431
C159	C	2.103977	-0.242431	0.380764
H160	H	1.484406	-0.864993	-0.315022
H161	H	1.817739	-0.531660	0.018311
H162	H	2.151072	-0.198327	0.351644
H163	H	1.467989	-0.967947	-0.256520
H164	H	1.801322	-0.634614	0.076814
H165	H	2.134655	-0.301280	0.410147
H166	H	1.403235	-0.870028	-0.238502
H167	H	1.736568	-0.536695	0.094831
H168	H	2.069902	-0.203362	0.428165
C169	C	1.266758	-0.907160	-0.332837
C170	C	1.600091	-0.573826	0.000496
C171	C	1.933424	-0.240493	0.333830
H172	H	1.241762	-0.862738	-0.381979
H173	H	1.575096	-0.529405	-0.048646
H174	H	1.908429	-0.196072	0.284688
H175	H	1.272517	-0.868035	-0.274789
H176	H	1.605850	-0.534702	0.058545
H177	H	1.939183	-0.201369	0.391878
H178	H	1.224467	-0.965218	-0.323050
H179	H	1.557800	-0.631885	0.010283
H180	H	1.891133	-0.298551	0.343617
