data_functionalizedCrystal
_audit_creation_method	'MofGen! by Chris Wilmer'
_symmetry_space_group_name_H-M	'P1'
_symmetry_Int_Tables_number	1
_symmetry_cell_setting	triclinic
loop_
_symmetry_equiv_pos_as_xyz
  x,y,z
_cell_length_a	15.944551
_cell_length_b	15.021413
_cell_length_c	11.792241
_cell_angle_alpha	89.996104
_cell_angle_beta	83.846077
_cell_angle_gamma	90.002826
loop_
_atom_site_label
_atom_site_type_symbol
_atom_site_fract_x
_atom_site_fract_y
_atom_site_fract_z
O1	O	1.115189	0.073940	0.146365
O2	O	1.448523	0.407273	0.479698
O3	O	1.781856	0.740606	0.813031
O4	O	0.870721	0.073962	0.164412
O5	O	1.204054	0.407295	0.497745
O6	O	1.537388	0.740628	0.831078
O7	O	0.998888	0.073944	-0.009831
O8	O	1.332221	0.407277	0.323502
O9	O	1.665554	0.740610	0.656835
O10	O	0.987023	0.073957	0.320608
O11	O	1.320356	0.407291	0.653941
O12	O	1.653689	0.740624	0.987274
O13	O	0.998867	-0.074120	-0.009806
O14	O	1.332201	0.259213	0.323527
O15	O	1.665534	0.592546	0.656860
O16	O	0.870701	-0.074103	0.164437
O17	O	1.204034	0.259231	0.497770
O18	O	1.537367	0.592564	0.831103
O19	O	1.115169	-0.074125	0.146390
O20	O	1.448502	0.259209	0.479723
O21	O	1.781836	0.592542	0.813056
Zn22	Zn	0.992932	-0.097622	0.155417
Zn23	Zn	1.326265	0.235711	0.488750
Zn24	Zn	1.659598	0.569045	0.822084
Zn25	Zn	0.992958	0.097459	0.155384
Zn26	Zn	1.326292	0.430792	0.488718
Zn27	Zn	1.659625	0.764126	0.822051
O28	O	0.987002	-0.074107	0.320632
O29	O	1.320336	0.259227	0.653966
O30	O	1.653669	0.592560	0.987299
C31	C	0.839414	-0.000068	0.163675
C32	C	1.172747	0.333266	0.497008
C33	C	1.506080	0.666599	0.830342
C34	C	0.746157	-0.000059	0.161429
C35	C	1.079491	0.333274	0.494762
C36	C	1.412824	0.666607	0.828096
N37	N	0.992919	-0.230760	0.155439
N38	N	1.326253	0.102574	0.488772
N39	N	1.659586	0.435907	0.822105
C40	C	0.530789	-0.000081	0.048056
C41	C	0.864122	0.333252	0.381389
C42	C	1.197456	0.666585	0.714723
C43	C	0.470017	0.072924	0.100690
C44	C	0.803350	0.406258	0.434024
C45	C	1.136683	0.739591	0.767357
C46	C	0.575413	-0.000070	0.157365
C47	C	0.908747	0.333263	0.490699
C48	C	1.242080	0.666597	0.824032
C49	C	0.470019	-0.073055	0.100741
C50	C	0.803352	0.260278	0.434074
C51	C	1.136686	0.593611	0.767407
C52	C	0.410483	-0.000084	0.153432
C53	C	0.743816	0.333249	0.486766
C54	C	1.077149	0.666582	0.820099
C55	C	0.515869	0.072996	0.210030
C56	C	0.849202	0.406329	0.543363
C57	C	1.182536	0.739663	0.876696
C58	C	0.515878	-0.073049	0.210065
C59	C	0.849211	0.260284	0.543398
C60	C	1.182544	0.593617	0.876731
C61	C	0.455123	-0.000026	0.262778
C62	C	0.788456	0.333307	0.596112
C63	C	1.121790	0.666641	0.929445
C64	C	0.670426	-0.000061	0.159628
C65	C	1.003759	0.333272	0.492961
C66	C	1.337092	0.666606	0.826295
C67	C	0.315471	-0.000087	0.151178
C68	C	0.648805	0.333247	0.484511
C69	C	0.982138	0.666580	0.817845
C70	C	0.933646	-0.470435	0.235971
C71	C	1.266979	-0.137101	0.569304
C72	C	1.600312	0.196232	0.902637
C73	C	1.009646	-0.529775	0.258005
C74	C	1.342979	-0.196442	0.591338
C75	C	1.676312	0.136892	0.924672
C76	C	0.992941	-0.412367	0.155410
C77	C	1.326274	-0.079033	0.488744
C78	C	1.659607	0.254300	0.822077
C79	C	0.916962	-0.529768	0.133401
C80	C	1.250295	-0.196435	0.466735
C81	C	1.583628	0.136899	0.800068
C82	C	0.992955	-0.587791	0.155386
C83	C	1.326288	-0.254457	0.488719
C84	C	1.659621	0.078876	0.822052
C85	C	1.068979	-0.470400	0.177496
C86	C	1.402312	-0.137067	0.510829
C87	C	1.735646	0.196266	0.844162
C88	C	0.976245	-0.470388	0.052847
C89	C	1.309578	-0.137055	0.386181
C90	C	1.642912	0.196279	0.719514
C91	C	1.052299	-0.529702	0.074838
C92	C	1.385633	-0.196368	0.408171
C93	C	1.718966	0.136965	0.741505
C94	C	0.992932	-0.311309	0.155428
C95	C	1.326265	0.022024	0.488761
C96	C	1.659598	0.355357	0.822094
C97	C	0.992972	-0.688846	0.155367
C98	C	1.326306	-0.355512	0.488701
C99	C	1.659639	-0.022179	0.822034
C100	C	1.146476	-0.000093	0.147126
C101	C	1.479810	0.333240	0.480460
C102	C	1.813143	0.666573	0.813793
C103	C	1.239733	-0.000096	0.149372
C104	C	1.573066	0.333237	0.482706
C105	C	1.906399	0.666571	0.816039
C106	C	0.998132	-0.000088	-0.052104
C107	C	1.331466	0.333245	0.281230
C108	C	1.664799	0.666579	0.614563
C109	C	0.995901	-0.000087	-0.178099
C110	C	1.329235	0.333246	0.155234
C111	C	1.662568	0.666580	0.488568
N112	N	0.992977	0.230597	0.155354
N113	N	1.326311	0.563930	0.488687
N114	N	1.659644	0.897263	0.822020
C115	C	0.991799	-0.000072	-0.408777
C116	C	1.325133	0.333262	-0.075444
C117	C	1.658466	0.666595	0.257889
C118	C	0.994079	-0.000080	-0.280411
C119	C	1.327412	0.333253	0.052922
C120	C	1.660745	0.666587	0.386256
C121	C	0.987758	-0.000073	0.362905
C122	C	1.321091	0.333260	0.696238
C123	C	1.654424	0.666594	1.029571
C124	C	0.989989	-0.000068	0.488900
C125	C	1.323322	0.333265	0.822233
C126	C	1.656655	0.666598	1.155567
H127	H	0.563713	0.000005	-0.042662
H128	H	0.897046	0.333339	0.290672
H129	H	1.230379	0.666672	0.624005
F130	F	0.443471	0.153595	0.040250
F131	F	0.776804	0.486929	0.373583
F132	F	1.110137	0.820262	0.706917
F133	F	0.542274	0.153758	0.270401
F134	F	0.875608	0.487091	0.603735
F135	F	1.208941	0.820425	0.937068
H136	H	1.023780	-0.555860	0.344729
H137	H	1.357113	-0.222527	0.678063
H138	H	1.690446	0.110807	1.011396
H139	H	0.422374	0.000019	0.353590
H140	H	0.755708	0.333352	0.686923
H141	H	1.089041	0.666685	1.020256
F142	F	0.542455	-0.153722	0.270459
F143	F	0.875788	0.179611	0.603793
F144	F	1.209121	0.512944	0.937126
F145	F	0.443482	-0.153727	0.040301
F146	F	0.776815	0.179606	0.373634
F147	F	1.110149	0.512939	0.706967
F148	F	0.868172	-0.436417	0.325087
F149	F	1.201505	-0.103083	0.658420
F150	F	1.534838	0.230250	0.991754
F151	F	1.152992	-0.436462	0.201945
F152	F	1.486326	-0.103129	0.535278
F153	F	1.819659	0.230205	0.868612
F154	F	1.117918	-0.563507	-0.014227
F155	F	1.451252	-0.230174	0.319106
F156	F	1.784585	0.103160	0.652439
H157	H	0.962087	-0.444282	-0.033849
H158	H	1.295421	-0.110949	0.299484
H159	H	1.628754	0.222384	0.632818
F160	F	0.832970	-0.563855	0.109082
F161	F	1.166303	-0.230522	0.442415
F162	F	1.499637	0.102811	0.775748
