data_functionalizedCrystal
_audit_creation_method	'MofGen! by Chris Wilmer'
_symmetry_space_group_name_H-M	'P1'
_symmetry_Int_Tables_number	1
_symmetry_cell_setting	triclinic
loop_
_symmetry_equiv_pos_as_xyz
  x,y,z
_cell_length_a	15.995292
_cell_length_b	11.804365
_cell_length_c	13.339070
_cell_angle_alpha	74.887832
_cell_angle_beta	80.451045
_cell_angle_gamma	78.153349
loop_
_atom_site_label
_atom_site_type_symbol
_atom_site_fract_x
_atom_site_fract_y
_atom_site_fract_z
O1	O	1.153417	-0.099057	-0.109673
O2	O	0.913389	-0.099052	-0.125837
O3	O	1.005855	-0.099050	0.029501
O4	O	1.060951	-0.099058	-0.265011
O5	O	0.981503	0.099005	-0.011353
O6	O	0.889037	0.099004	-0.166690
O7	O	1.129064	0.098999	-0.150526
Cu8	Cu	1.006827	0.117085	-0.162339
Cu9	Cu	1.035627	-0.117138	-0.114025
O10	O	1.036599	0.098997	-0.305864
C11	C	0.869865	-0.000023	-0.145606
C12	C	0.776453	-0.000021	-0.143634
N13	N	0.986577	0.281826	-0.196319
N14	N	1.055881	-0.281879	-0.080036
C15	C	0.437032	-0.000035	-0.136381
C16	C	0.486447	-0.000480	-0.248408
C17	C	0.583562	-0.000029	-0.250632
C18	C	0.605423	-0.000029	-0.139980
C19	C	0.549392	0.113068	-0.107255
C20	C	0.452277	0.113158	-0.105923
C21	C	0.479583	-0.112068	-0.057176
C22	C	0.577224	-0.113558	-0.061024
C23	C	0.700589	-0.000021	-0.142009
C24	C	0.341864	-0.000034	-0.134351
C25	C	1.172589	-0.000032	-0.130757
C26	C	1.266002	-0.000042	-0.132727
C27	C	0.984373	-0.000024	0.046761
C28	C	0.956632	-0.000028	0.159057
C29	C	1.104504	0.655776	0.001583
C30	C	1.119822	0.531115	0.027294
C31	C	1.086512	0.468786	-0.028607
C32	C	1.037882	0.531132	-0.110223
C33	C	1.022569	0.655805	-0.135942
C34	C	1.004576	0.468815	-0.166132
C35	C	0.955947	0.531161	-0.247748
C36	C	0.940636	0.655822	-0.273462
C37	C	0.973946	0.718150	-0.217561
C38	C	1.019889	0.344142	-0.140414
C39	C	0.937954	0.344171	-0.277939
C40	C	0.922637	0.468832	-0.303649
C41	C	1.058081	-0.000032	-0.323124
C42	C	1.085823	-0.000035	-0.435418
C43	C	1.172330	-0.000032	0.523905
C44	C	1.198395	-0.000021	0.418397
C45	C	1.137956	-0.000023	0.353557
C46	C	1.051449	-0.000035	0.394235
C47	C	1.025380	-0.000037	0.499752
C48	C	0.991006	-0.000028	0.329404
C49	C	0.904499	-0.000040	0.370082
C50	C	0.878434	-0.000042	0.475589
C51	C	0.938873	-0.000040	0.540429
C52	C	1.017075	-0.000027	0.223887
C53	C	0.870125	-0.000031	0.199734
C54	C	0.844060	-0.000042	0.305242
H55	H	0.622755	-0.081104	-0.277802
C56	C	0.783272	-0.000043	0.520329
N57	N	0.711595	-0.000045	0.554026
C58	C	0.629024	-0.226593	-0.092837
N59	N	0.668048	-0.311730	-0.116799
C60	C	0.869143	0.537428	-0.393424
N61	N	0.828851	0.589096	-0.461042
C62	C	0.414192	0.227358	-0.181944
N63	N	0.385511	0.313372	-0.239212
H64	H	1.087510	-0.000017	0.190777
H65	H	1.268829	-0.000010	0.385284
H66	H	0.592270	-0.120389	0.021150
C67	C	1.141141	0.724345	0.063062
N68	N	1.168738	0.775994	0.109373
C69	C	0.748901	-0.000038	0.349999
N70	N	0.677226	-0.000031	0.383711
C71	C	0.434903	-0.113104	0.054526
N72	N	0.401243	-0.113877	0.138655
H73	H	0.602241	0.081180	-0.311547
H74	H	0.417997	0.118295	-0.024777
H75	H	0.820910	-0.000027	0.146939
C76	C	0.957078	0.855287	-0.245820
N77	N	0.944367	0.958579	-0.267095
H78	H	0.478464	-0.081588	-0.274894
C79	C	0.447341	0.108477	-0.328943
N80	N	0.417886	0.190546	-0.389599
H81	H	0.901047	0.706584	-0.339926
H82	H	0.561827	0.117274	-0.026697
C83	C	0.901308	0.275615	-0.339433
N84	N	0.873710	0.223971	-0.385746
C85	C	1.238800	-0.000021	0.595232
N86	N	1.288870	-0.000012	0.648958
C87	C	0.574718	0.226776	-0.183303
N88	N	0.593791	0.312418	-0.240590
C89	C	1.103355	0.331655	-0.000315
N90	N	1.116039	0.228362	0.021003
C91	C	0.466683	-0.227877	-0.080746
N92	N	0.456970	-0.315099	-0.098513
C93	C	1.173307	0.462545	0.117074
N94	N	1.213592	0.410896	0.184703
C95	C	1.166633	-0.000020	0.237497
N96	N	1.188237	-0.000025	0.150077
H97	H	0.917655	-0.000053	0.626344
H98	H	1.059484	0.293391	-0.073962
