data_functionalizedCrystal
_audit_creation_method	'MofGen! by Chris Wilmer'
_symmetry_space_group_name_H-M	'P1'
_symmetry_Int_Tables_number	1
_symmetry_cell_setting	triclinic
loop_
_symmetry_equiv_pos_as_xyz
  x,y,z
_cell_length_a	27.440280
_cell_length_b	23.096457
_cell_length_c	23.096457
_cell_angle_alpha	90.003305
_cell_angle_beta	60.004322
_cell_angle_gamma	60.002011
loop_
_atom_site_label
_atom_site_type_symbol
_atom_site_fract_x
_atom_site_fract_y
_atom_site_fract_z
Zr1	Zr	0.533377	-0.075985	0.557851
O2	O	0.635040	-0.168430	0.465409
O3	O	0.431716	-0.047647	0.586179
O4	O	0.533376	-0.168434	0.586185
O5	O	0.533381	0.047638	0.465411
O6	O	0.533374	-0.168436	0.681467
O7	O	0.533380	-0.047643	0.465403
O8	O	0.351523	0.047631	0.681457
O9	O	0.715232	-0.168429	0.465421
O10	O	0.473529	-0.035561	0.669382
O11	O	0.473532	0.035547	0.598280
O12	O	0.593223	-0.106664	0.598286
O13	O	0.593225	-0.035556	0.527184
Zr14	Zr	0.533377	0.075973	0.709828
Zr15	Zr	0.533374	-0.075988	0.709816
Zr16	Zr	0.533380	0.075976	0.557864
Zr17	Zr	0.661275	-0.075983	0.557871
Zr18	Zr	0.405479	0.075971	0.709809
O19	O	0.635038	0.047635	0.681500
O20	O	0.635035	-0.168435	0.681483
O21	O	0.635043	0.047639	0.465427
O22	O	0.431714	0.168418	0.802271
O23	O	0.431711	-0.047651	0.802253
O24	O	0.431719	0.168423	0.586197
O25	O	0.533373	-0.047650	0.802268
O26	O	0.533378	0.168422	0.681495
O27	O	0.533380	0.168424	0.586213
O28	O	0.533374	0.047631	0.802276
O29	O	0.715230	-0.168432	0.586213
O30	O	0.351524	0.168420	0.681467
O31	O	0.351522	0.168417	0.802258
O32	O	0.351520	0.047628	0.802248
O33	O	0.715234	-0.047640	0.465431
O34	O	0.715231	-0.047643	0.586223
O35	O	0.473531	0.106652	0.669394
O36	O	0.473529	0.035544	0.740496
O37	O	0.593223	-0.035559	0.669400
O38	O	0.593225	0.035549	0.598298
C39	C	0.373397	-0.000008	0.633815
C40	C	0.319101	-0.000009	0.633807
C41	C	0.533381	-0.000002	0.443756
C42	C	0.533382	-0.000001	0.379243
C43	C	0.533380	0.190074	0.633855
C44	C	0.533381	0.254586	0.633861
C45	C	-0.017643	-0.037118	0.670974
C46	C	-0.068667	-0.037116	0.670981
O47	O	-0.095074	-0.068661	0.702567
N48	N	-0.094181	0.000001	0.633865
C49	C	-0.068675	0.037123	0.596747
O50	O	-0.095063	0.068694	0.565179
C51	C	-0.017655	0.037125	0.596745
C52	C	0.007862	0.000001	0.633857
C53	C	0.007874	-0.074238	0.708084
C54	C	0.058895	-0.074241	0.708076
C55	C	0.084400	-0.037123	0.670959
C56	C	0.058883	-0.000002	0.633849
C57	C	0.007847	0.074252	0.559632
C58	C	0.058870	0.074251	0.559633
C59	C	0.084387	0.037126	0.596745
C60	C	0.135409	0.037113	0.596725
N61	N	0.160924	-0.000003	0.633840
C62	C	0.135419	-0.037121	0.670957
C63	C	-0.175820	0.037118	0.596755
C64	C	-0.226835	0.037112	0.596752
C65	C	-0.226824	-0.037126	0.670987
C66	C	-0.175805	-0.037124	0.670985
C67	C	-0.150305	0.000002	0.633870
C68	C	0.242568	-0.037125	0.670938
C69	C	0.293596	-0.037127	0.670924
C70	C	0.293578	0.037114	0.596693
C71	C	0.242557	0.037113	0.596703
C72	C	0.217052	-0.000008	0.633830
O73	O	0.161847	0.068645	0.565157
O74	O	0.161807	-0.068680	0.702528
C75	C	0.693358	-0.000004	0.633864
C76	C	0.747653	-0.000003	0.633873
C77	C	0.533374	-0.190086	0.633824
C78	C	0.533373	-0.254598	0.633819
C79	C	0.595858	0.247776	0.596753
C80	C	0.595859	0.308392	0.596742
C81	C	0.533379	0.375816	0.633854
C82	C	0.470894	0.382624	0.670963
C83	C	0.470895	0.322008	0.670967
N84	N	0.486871	0.498618	0.694249
N85	N	0.486875	0.556198	0.694245
C86	C	0.533373	0.558449	0.633844
N87	N	0.579878	0.500940	0.573448
N88	N	0.579876	0.443354	0.573455
C89	C	0.533371	0.441548	0.633853
C90	C	0.595855	0.617363	0.596721
C91	C	0.595854	0.677981	0.596708
C92	C	0.470887	0.752213	0.670936
C93	C	0.470890	0.691595	0.670942
C94	C	0.533376	0.624173	0.633836
C95	C	0.533386	-0.052495	0.348936
C96	C	0.533380	-0.052495	0.288323
C97	C	0.533383	-0.000006	0.258012
C98	C	0.533375	0.052498	0.288329
C99	C	0.533375	0.052500	0.348944
N100	N	0.572399	0.015886	0.139668
N101	N	0.572401	0.015879	0.082085
C102	C	0.533384	-0.000009	0.075383
N103	N	0.494373	-0.015904	0.128434
N104	N	0.494374	-0.015901	0.186021
C105	C	0.533384	-0.000002	0.192286
C106	C	0.533380	-0.052506	-0.020646
C107	C	0.533370	-0.052502	-0.081257
C108	C	0.533372	0.052488	-0.081254
C109	C	0.533375	0.052486	-0.020640
C110	C	0.533383	-0.000015	0.009658
C111	C	0.533373	-0.000010	0.823924
C112	C	0.533372	-0.000011	0.888437
C113	C	0.373393	-0.000012	0.823899
C114	C	0.319096	-0.000014	0.888404
C115	C	0.373399	0.190072	0.633831
C116	C	0.319104	0.254583	0.633828
C117	C	0.373395	0.190068	0.823915
C118	C	0.319099	0.254577	0.888425
C119	C	0.693359	-0.190080	0.443765
C120	C	0.747655	-0.254589	0.379255
C121	C	0.693361	0.000000	0.443780
C122	C	0.747659	0.000002	0.379276
C123	C	0.693355	-0.190084	0.633849
C124	C	0.747650	-0.254595	0.633852
C125	C	0.293597	-0.037138	0.881575
C126	C	0.242586	-0.037154	0.942178
C127	C	0.217071	-0.000042	1.009609
C128	C	0.242574	0.037082	1.016437
C129	C	0.293588	0.037094	0.955834
C130	C	0.293607	0.322000	0.670947
C131	C	0.242598	0.382621	0.670942
C132	C	0.217084	0.375822	0.633821
C133	C	0.242587	0.308398	0.596697
C134	C	0.293598	0.247779	0.596699
C135	C	0.293600	0.247754	0.955840
C136	C	0.242590	0.308362	1.016460
C137	C	0.217077	0.375792	1.009663
C138	C	0.242581	0.382614	0.942240
C139	C	0.293594	0.322007	0.881622
C140	C	0.773161	-0.247766	0.311839
C141	C	0.824186	-0.308374	0.251220
C142	C	0.849702	-0.375804	0.258017
C143	C	0.824195	-0.382626	0.325440
C144	C	0.773173	-0.322019	0.386058
C145	C	0.773162	0.037120	0.386104
C146	C	0.824187	0.037119	0.325501
C147	C	0.849704	0.000005	0.258070
C148	C	0.824198	-0.037117	0.251243
C149	C	0.773178	-0.037120	0.311845
C150	C	0.773147	-0.247774	0.670980
C151	C	0.824156	-0.308382	0.670997
C152	C	0.849671	-0.375812	0.633880
C153	C	0.824168	-0.382632	0.596751
C154	C	0.773157	-0.322024	0.596739
H155	H	0.314372	-0.067361	0.701145
H156	H	0.314371	-0.067368	0.826675
N157	N	0.319632	0.075028	0.558775
N158	N	0.348092	0.059301	0.493333
H159	H	0.366490	0.086082	0.466556
H160	H	0.646732	0.672430	0.566486
N161	N	0.407075	0.451496	0.708891
N162	N	0.365247	0.469577	0.774335
H163	H	0.320174	0.518220	0.801125
N164	N	0.084956	-0.112165	0.745985
N165	N	0.113415	-0.177608	0.730252
H166	H	0.131815	-0.204392	0.757030
N167	N	0.216495	0.075035	0.558792
N168	N	0.188035	0.140479	0.574528
H169	H	0.169628	0.167267	0.547757
H170	H	0.844915	-0.302816	0.701231
H171	H	0.221793	0.067297	1.071347
N172	N	0.747113	-0.075016	0.304863
N173	N	0.684484	-0.042702	0.330384
H174	H	0.666076	-0.069467	0.325448
H175	H	0.844950	-0.437541	0.566532
H176	H	0.533371	0.095228	-0.105931
H177	H	0.844946	-0.302805	0.196327
N178	N	0.164966	0.437740	0.633828
N179	N	0.142182	0.431668	0.600690
H180	H	0.105371	0.475398	0.600699
H181	H	0.891208	-0.425157	0.633896
H182	H	0.221806	0.302873	0.566474
N183	N	0.533372	-0.106117	0.010326
N184	N	0.533372	-0.106109	0.064445
H185	H	0.533365	-0.143970	0.086320
H186	H	-0.155032	-0.067353	0.701205
N187	N	0.850252	-0.075004	0.182360
N188	N	0.810392	-0.059250	0.164267
H189	H	0.828789	-0.086002	0.115616
H190	H	0.533369	-0.095247	-0.105931
N191	N	0.747109	-0.178898	0.304872
N192	N	0.769898	-0.172828	0.244668
H193	H	0.751504	-0.124192	0.239742
H194	H	0.752381	-0.192875	0.701204
N195	N	0.747123	-0.329010	0.558806
N196	N	0.769915	-0.389222	0.525671
H197	H	0.751531	-0.394162	0.498879
H198	H	0.314352	0.192887	0.566474
N199	N	0.216518	0.451496	0.935305
N200	N	0.222208	0.493603	0.960858
H201	H	0.203796	0.542253	0.955963
H202	H	0.533376	0.095229	0.004035
H203	H	0.221828	-0.067385	0.936605
H204	H	0.533376	0.095236	0.263648
H205	H	-0.247600	-0.067348	0.701211
H206	H	0.314365	0.192854	0.961389
H207	H	0.175539	0.425136	1.059028
N208	N	0.319637	0.075015	0.962803
N209	N	0.382266	0.042721	0.937274
H210	H	0.400663	0.069504	0.942199
N211	N	0.216526	-0.075044	0.708868
N212	N	0.239322	-0.108182	0.741996
H213	H	0.220933	-0.134965	0.768782
N214	N	0.164909	0.000020	1.071524
N215	N	0.107982	0.024082	1.081962
H216	H	0.071123	0.024154	1.125695
N217	N	-0.018169	-0.112157	0.746009
N218	N	0.004628	-0.145292	0.779138
H219	H	-0.013758	-0.172078	0.805922
H220	H	0.314374	0.327549	0.701176
N221	N	0.850244	-0.451501	0.332389
N222	N	0.827465	-0.457594	0.392583
H223	H	0.845858	-0.506239	0.397491
H224	H	-0.247599	0.067334	0.566523
H225	H	0.221829	0.302794	1.071353
N226	N	0.747103	-0.328983	0.454925
N227	N	0.701543	-0.274871	0.509049
H228	H	0.683131	-0.279792	0.557687
H229	H	0.314349	0.327573	0.826731
H230	H	0.221839	0.437515	0.701175
N231	N	0.901821	-0.437702	0.196086
N232	N	0.924583	-0.431591	0.135899
H233	H	0.961391	-0.475304	0.092157
N234	N	0.747109	0.075040	0.454973
N235	N	0.769898	0.108171	0.461047
H236	H	0.751503	0.134953	0.509685
H237	H	0.891248	0.000013	0.208730
N238	N	-0.149780	0.075044	0.558834
N239	N	-0.172572	0.108179	0.525701
H240	H	-0.154185	0.134966	0.498920
N241	N	-0.018200	0.112176	0.521716
N242	N	0.004584	0.145315	0.488587
H243	H	-0.013811	0.172102	0.461807
H244	H	0.420017	0.327558	0.701186
H245	H	0.079630	0.104482	0.529408
H246	H	0.844945	0.067351	0.331074
H247	H	0.646739	0.192882	0.566536
H248	H	0.646737	0.302847	0.566521
H249	H	0.646735	0.562464	0.566503
H250	H	0.420015	0.697143	0.701163
N251	N	0.407070	0.821084	0.708834
N252	N	0.407077	0.875200	0.708823
H253	H	0.362005	0.923845	0.735587
H254	H	0.533371	0.095248	0.373621
N255	N	0.533408	-0.106135	0.379866
N256	N	0.533421	-0.153007	0.352789
H257	H	0.533442	-0.190894	0.374631
N258	N	0.533381	-0.106121	0.257368
N259	N	0.533384	-0.152989	0.284429
H260	H	0.533384	-0.190864	0.262569
