data_functionalizedCrystal
_audit_creation_method	'MofGen! by Chris Wilmer'
_symmetry_space_group_name_H-M	'P1'
_symmetry_Int_Tables_number	1
_symmetry_cell_setting	triclinic
loop_
_symmetry_equiv_pos_as_xyz
  x,y,z
_cell_length_a	29.839131
_cell_length_b	11.169417
_cell_length_c	11.169409
_cell_angle_alpha	90.019824
_cell_angle_beta	89.959881
_cell_angle_gamma	89.957701
loop_
_atom_site_label
_atom_site_type_symbol
_atom_site_fract_x
_atom_site_fract_y
_atom_site_fract_z
Zn1	Zn	-0.178806	-1.834703	-0.678478
Zn2	Zn	-0.253948	-1.834484	-0.477767
Zn3	Zn	-0.178834	-1.633989	-0.477812
Zn4	Zn	-0.253911	-1.633888	-0.678412
O5	O	-0.216375	-1.734266	-0.578117
O6	O	-0.188778	-2.002624	-0.651862
O7	O	-0.244011	-1.807838	-0.309823
O8	O	-0.115963	-1.660748	-0.504477
O9	O	-0.243984	-2.002462	-0.504401
O10	O	-0.115943	-1.808212	-0.651905
O11	O	-0.188825	-1.660536	-0.309856
O12	O	-0.188789	-1.466026	-0.504413
O13	O	-0.243922	-1.660576	-0.846371
O14	O	-0.243948	-1.465951	-0.651794
O15	O	-0.188742	-1.808114	-0.846419
O16	O	-0.316810	-1.807740	-0.504337
O17	O	-0.316783	-1.660363	-0.651750
C18	C	-0.333097	-1.734049	-0.578058
C19	C	-0.383032	-1.734066	-0.578073
C20	C	-0.216368	-1.422441	-0.578102
C21	C	-0.216376	-1.289041	-0.578124
C22	C	-0.216325	-1.734358	-0.891160
C23	C	-0.216304	-1.734397	-1.024560
C24	C	-0.692677	-1.811145	-0.501472
C25	C	-0.880350	-1.811293	-0.501518
O26	O	-0.904616	-1.876656	-0.436344
N27	N	-0.903817	-1.734515	-0.578208
C28	C	-0.880363	-1.657700	-0.654897
O29	O	-0.904630	-1.592407	-0.720136
C30	C	-0.692691	-1.657559	-0.654856
C31	C	-0.669226	-1.734333	-0.578152
C32	C	-0.669212	-1.887914	-0.424776
C33	C	-0.622296	-1.887871	-0.424760
C34	C	-0.598846	-1.811060	-0.501441
C35	C	-0.622311	-1.734291	-0.578137
C36	C	-0.669238	-1.580751	-0.731550
C37	C	-0.622317	-1.580724	-0.731535
C38	C	-0.598852	-1.657499	-0.654831
C39	C	-0.551945	-1.657437	-0.654802
N40	N	-0.528477	-1.734215	-0.578112
C41	C	-0.551928	-1.811026	-0.501432
C42	C	-0.978894	-1.657778	-0.654912
C43	C	-1.025811	-1.657811	-0.654921
C44	C	-1.025795	-1.811406	-0.501543
C45	C	-0.978876	-1.811366	-0.501529
C46	C	-0.955426	-1.734556	-0.578222
C47	C	-0.453402	-1.810931	-0.501404
C48	C	-0.406482	-1.810878	-0.501392
C49	C	-0.406503	-1.657288	-0.654773
C50	C	-0.453419	-1.657336	-0.654782
C51	C	-0.476867	-1.734167	-0.578093
O52	O	-0.527650	-1.592118	-0.719952
O53	O	-0.527653	-1.876328	-0.436221
C54	C	-0.739592	-1.811187	-0.501487
C55	C	-0.763057	-1.734418	-0.578183
C56	C	-0.739606	-1.657606	-0.654864
C57	C	-0.809975	-1.734451	-0.578192
C58	C	-0.833425	-1.811263	-0.501512
C59	C	-0.809958	-1.888041	-0.424822
C60	C	-0.763043	-1.887999	-0.424807
C61	C	-0.763074	-1.580828	-0.731553
C62	C	-0.809989	-1.580876	-0.731562
C63	C	-0.833440	-1.657688	-0.654881
C64	C	-0.099196	-1.734516	-0.578203
C65	C	-0.049262	-1.734623	-0.578240
C66	C	-0.216382	-2.047308	-0.578134
C67	C	-0.216385	-2.180708	-0.578140
C68	C	-0.216392	-1.734243	-0.266293
C69	C	-0.216287	-1.734436	-0.132893
H70	H	-0.387379	-1.873397	-0.438927
H71	H	-0.829090	-1.518346	-0.794022
H72	H	-0.688335	-1.518227	-0.794004
H73	H	-1.044896	-1.873949	-0.439107
Br74	Br	-1.057651	-1.553595	-0.759004
H75	H	-0.387402	-1.594745	-0.717202
H76	H	-0.472488	-1.873496	-0.438960
Br77	Br	-0.590458	-1.992089	-0.320675
H78	H	-0.959774	-1.873882	-0.439071
Br79	Br	-0.731205	-1.992201	-0.320706
Br80	Br	-0.947076	-1.553524	-0.759005
Br81	Br	-0.590495	-1.476481	-0.835629
H82	H	-0.743984	-1.518280	-0.793998
Br83	Br	-0.485265	-1.553112	-0.758850
H84	H	-0.688300	-1.950470	-0.362333
Br85	Br	-0.841793	-1.992279	-0.320751
