data_functionalizedCrystal
_audit_creation_method	'MofGen! by Chris Wilmer'
_symmetry_space_group_name_H-M	'P1'
_symmetry_Int_Tables_number	1
_symmetry_cell_setting	triclinic
loop_
_symmetry_equiv_pos_as_xyz
  x,y,z
_cell_length_a	15.538191
_cell_length_b	11.026607
_cell_length_c	9.482944
_cell_angle_alpha	81.873049
_cell_angle_beta	77.117504
_cell_angle_gamma	77.929055
loop_
_atom_site_label
_atom_site_type_symbol
_atom_site_fract_x
_atom_site_fract_y
_atom_site_fract_z
O1	O	-1.202639	0.356439	0.120921
O2	O	-0.950489	0.226059	0.120917
O3	O	-1.055666	0.458698	0.120914
O4	O	-1.097463	0.123800	0.120925
O5	O	-1.025825	0.479295	-0.120880
O6	O	-0.920648	0.246656	-0.120876
O7	O	-1.172798	0.377037	-0.120873
Cu8	Cu	-1.043999	0.313727	-0.142952
Cu9	Cu	-1.079289	0.289368	0.142997
O10	O	-1.067622	0.144398	-0.120869
C11	C	-0.902786	0.222716	0.000020
C12	C	-0.805103	0.182084	0.000019
C13	C	-1.033035	0.510811	0.000018
C14	C	-1.010050	0.635400	0.000023
C15	C	-1.220502	0.380379	0.000028
C16	C	-1.318186	0.421011	0.000039
C17	C	-0.448860	0.585759	0.000028
C18	C	-0.357074	0.547550	0.000030
C19	C	-0.371076	0.332632	0.000037
C20	C	-0.462865	0.370823	0.000028
C21	C	-0.501749	0.497389	0.000025
C22	C	-0.515754	0.282453	0.000024
C23	C	-0.607535	0.320642	0.000023
C24	C	-0.646427	0.447201	0.000024
C25	C	-0.593531	0.535577	0.000023
C26	C	-0.476869	0.155888	0.000038
C27	C	-0.529758	0.067517	0.000034
C28	C	-0.621540	0.105706	0.000022
C29	C	-0.660432	0.232265	0.000024
C30	C	-0.674437	0.017330	0.000023
C31	C	-0.766218	0.055519	0.000022
C32	C	-0.752214	0.270454	0.000022
C33	C	-1.090253	0.092285	0.000030
C34	C	-1.113239	-0.032305	0.000034
N35	N	-1.019183	0.330864	-0.344073
C36	C	-1.073517	0.737161	0.000026
C37	C	-1.049763	0.865931	0.000031
C38	C	-1.071963	0.294421	-0.416270
C39	C	-1.051322	0.308692	-0.583689
N40	N	-1.104110	0.272244	0.344118
H41	H	-0.721164	0.478290	0.000042
C42	C	-0.912887	0.646480	0.000024
H43	H	-0.909666	0.731576	0.000017
H44	H	-0.894929	0.600167	0.084338
H45	H	-0.874120	0.614546	-0.084310
H46	H	-0.977836	0.874134	0.000040
H47	H	-1.145439	0.728950	0.000018
C48	C	-0.937490	0.387279	-0.427989
H49	H	-0.907055	0.408297	-0.360983
H50	H	-0.897821	0.328209	-0.487380
H51	H	-0.957199	0.460154	-0.487358
C52	C	-0.631663	-0.121885	0.000046
H53	H	-0.676310	-0.169048	0.000056
H54	H	-0.585736	-0.134077	-0.084262
H55	H	-0.606569	-0.148421	0.084386
C56	C	-1.153650	0.237995	-0.332347
H57	H	-1.156803	0.235796	-0.230833
H58	H	-1.206961	0.287646	-0.357200
H59	H	-1.147570	0.155711	-0.357222
H60	H	-0.402135	0.124798	0.000044
C61	C	-0.794995	0.409674	0.000004
H62	H	-0.857230	0.419757	-0.000008
H63	H	-0.787486	0.440402	0.084315
H64	H	-0.766669	0.454748	-0.084333
H65	H	-0.625191	0.638640	0.000012
C66	C	-0.298897	0.644766	0.000031
H67	H	-0.335203	0.725610	0.000021
H68	H	-0.273209	0.627151	0.084350
H69	H	-0.252395	0.641524	-0.084298
C70	C	-1.210406	0.956627	0.000022
H71	H	-1.213626	0.871533	0.000006
H72	H	-1.249180	0.988568	0.084336
H73	H	-1.228351	1.002938	-0.084312
H74	H	-0.990852	0.350465	-0.645817
H75	H	-1.164583	0.230478	-0.593756
C76	C	-0.491640	0.724979	0.000032
H77	H	-0.446998	0.772145	0.000042
H78	H	-0.516752	0.751530	-0.084281
H79	H	-0.537557	0.737147	0.084367
C80	C	-0.328297	0.193420	0.000031
H81	H	-0.266059	0.183332	0.000023
H82	H	-0.356623	0.148331	0.084343
H83	H	-0.335806	0.162718	-0.084305
H84	H	-0.498087	-0.035533	0.000043
C85	C	-0.824400	-0.041685	0.000018
H86	H	-0.788095	-0.122529	0.000007
H87	H	-0.870902	-0.038435	0.084337
H88	H	-0.850086	-0.024067	-0.084311
