data_functionalizedCrystal
_audit_creation_method	'MofGen! by Chris Wilmer'
_symmetry_space_group_name_H-M	'P1'
_symmetry_Int_Tables_number	1
_symmetry_cell_setting	triclinic
loop_
_symmetry_equiv_pos_as_xyz
  x,y,z
_cell_length_a	12.759395
_cell_length_b	12.759394
_cell_length_c	12.759387
_cell_angle_alpha	90.029967
_cell_angle_beta	90.021426
_cell_angle_gamma	90.014544
loop_
_atom_site_label
_atom_site_type_symbol
_atom_site_fract_x
_atom_site_fract_y
_atom_site_fract_z
Zn1	Zn	1.606275	-0.418192	0.594037
Zn2	Zn	1.606168	-0.593909	0.418360
Zn3	Zn	1.430573	-0.418246	0.418371
Zn4	Zn	1.430568	-0.593831	0.593996
O5	O	1.518396	-0.506045	0.506191
O6	O	1.753282	-0.441510	0.570745
O7	O	1.582832	-0.570662	0.271340
O8	O	1.453927	-0.271218	0.441695
O9	O	1.753203	-0.570609	0.441676
O10	O	1.583014	-0.271178	0.570756
O11	O	1.453824	-0.441604	0.271348
O12	O	1.283551	-0.441529	0.441656
O13	O	1.453918	-0.570477	0.741023
O14	O	1.283548	-0.570530	0.570687
O15	O	1.583010	-0.441436	0.741053
O16	O	1.582828	-0.740920	0.441637
O17	O	1.453815	-0.740863	0.570676
C18	C	1.245428	-0.506028	0.506169
C19	C	1.128652	-0.506046	0.506184
C20	C	0.909263	-0.640617	0.640367
C21	C	0.964152	-0.707880	0.707433
C22	C	1.073874	-0.707867	0.707420
C23	C	1.128709	-0.640586	0.640330
C24	C	1.073819	-0.573322	0.573264
C25	C	0.964095	-0.573340	0.573287
C26	C	1.073763	-0.438782	0.439117
C27	C	0.964041	-0.438788	0.439135
C28	C	1.128597	-0.371501	0.372028
C29	C	1.073708	-0.304231	0.304965
C30	C	0.963980	-0.304245	0.304982
C31	C	0.909152	-0.371525	0.372068
C32	C	1.518338	-0.779012	0.506174
C33	C	1.518409	-0.895789	0.506201
C34	C	1.652727	-0.895589	0.640693
C35	C	1.719919	-0.950350	0.707947
C36	C	1.719981	-1.060071	0.707970
C37	C	1.652842	-1.115034	0.640734
C38	C	1.585650	-1.060274	0.573480
C39	C	1.585597	-0.950550	0.573462
C40	C	1.451328	-1.060474	0.438995
C41	C	1.451270	-0.950752	0.438965
C42	C	1.384189	-1.115437	0.371758
C43	C	1.317001	-1.060676	0.304498
C44	C	1.316942	-0.950948	0.304477
C45	C	1.384077	-0.895991	0.371711
C46	C	1.792429	-0.506062	0.506214
C47	C	1.909206	-0.506070	0.506224
C48	C	1.518475	-0.505942	0.780225
C49	C	1.518509	-0.505898	0.897001
C50	C	1.518483	-0.232011	0.506231
C51	C	1.518520	-0.115234	0.506249
C52	C	1.518377	-0.506071	0.233223
C53	C	1.518547	-0.505819	0.116447
C54	C	1.652941	-0.371535	0.897052
C55	C	1.720171	-0.304339	0.951939
C56	C	1.720197	-0.304300	1.061660
C57	C	1.652982	-0.371464	1.116498
C58	C	1.585752	-0.438661	1.061612
C59	C	1.585736	-0.438694	0.951888
C60	C	1.451317	-0.573016	1.061561
C61	C	1.451295	-0.573061	0.951839
C62	C	1.384102	-0.640180	1.116399
C63	C	1.316875	-0.707384	1.061513
C64	C	1.316854	-0.707420	0.951784
C65	C	1.384064	-0.640258	0.896953
H66	H	0.919296	-0.249472	0.250368
H67	H	0.819811	-0.371539	0.372093
N68	N	1.792436	-1.119142	0.780519
H69	H	1.834955	-1.067679	0.823114
H70	H	1.841101	-1.164662	0.737805
N71	N	1.244477	-0.891883	0.231933
H72	H	1.195747	-0.846364	0.274579
H73	H	1.202029	-0.943417	0.189360
N74	N	1.133076	-0.780418	0.779753
H75	H	1.178633	-0.737774	0.828505
H76	H	1.178510	-0.829030	0.736885
H77	H	0.819922	-0.640623	0.640395
N78	N	1.652915	-1.233376	0.640758
H79	H	1.580851	-1.259856	0.660016
H80	H	1.705715	-1.259633	0.693560
H81	H	1.262149	-0.762057	1.106170
N82	N	1.384258	-1.233779	0.371769
H83	H	1.403611	-1.260228	0.299711
H84	H	1.312178	-1.260172	0.391071
N85	N	1.244595	-1.119952	0.231982
H86	H	1.195912	-1.165481	0.274648
H87	H	1.287416	-1.165419	0.183358
N88	N	0.905000	-0.780437	0.779791
H89	H	0.924138	-0.764207	0.854882
H90	H	0.924097	-0.855454	0.763254
N91	N	1.652673	-0.777247	0.640654
H92	H	1.705402	-0.750738	0.693447
H93	H	1.580546	-0.750936	0.659871
N94	N	1.792674	-0.231920	0.892782
H95	H	1.776405	-0.156838	0.911874
H96	H	1.782421	-0.242242	0.814967
H97	H	1.384040	-0.806650	0.371696
H98	H	1.217939	-0.371500	0.372017
N99	N	1.247050	-0.640586	0.640296
H100	H	1.273502	-0.693411	0.692956
H101	H	1.273426	-0.568502	0.659696
N102	N	1.652926	-0.371591	0.778710
H103	H	1.705708	-0.318853	0.752300
H104	H	1.580824	-0.352308	0.752348
N105	N	1.384135	-0.640147	1.234741
H106	H	1.331357	-0.692889	1.261149
H107	H	1.364895	-0.568028	1.261104
H108	H	1.118363	-0.249460	0.250342
N109	N	1.792698	-0.231817	1.120867
H110	H	1.835271	-0.189272	1.069483
H111	H	1.841309	-0.274576	1.166393
H112	H	1.774581	-0.905589	0.762693
N113	N	1.652980	-0.371398	1.234840
H114	H	1.705759	-0.318629	1.261289
H115	H	1.672230	-0.443493	1.261199
N116	N	1.384024	-0.640307	0.778611
H117	H	1.456078	-0.659641	0.752179
H118	H	1.364690	-0.568225	0.752278
H119	H	1.262095	-0.762129	0.907102
