data_functionalizedCrystal
_audit_creation_method	'MofGen! by Chris Wilmer'
_symmetry_space_group_name_H-M	'P1'
_symmetry_Int_Tables_number	1
_symmetry_cell_setting	triclinic
loop_
_symmetry_equiv_pos_as_xyz
  x,y,z
_cell_length_a	16.120490
_cell_length_b	12.827892
_cell_length_c	12.827885
_cell_angle_alpha	90.029786
_cell_angle_beta	92.917123
_cell_angle_gamma	87.107940
loop_
_atom_site_label
_atom_site_type_symbol
_atom_site_fract_x
_atom_site_fract_y
_atom_site_fract_z
Zn1	Zn	1.274622	-0.497187	0.671786
Zn2	Zn	1.774622	0.002813	1.171786
Zn3	Zn	1.274538	-0.671959	0.497041
Zn4	Zn	1.774538	-0.171959	0.997041
Zn5	Zn	1.135200	-0.488355	0.488207
Zn6	Zn	1.635200	0.011645	0.988207
Zn7	Zn	1.135188	-0.663003	0.662893
Zn8	Zn	1.635188	-0.163003	1.162893
O9	O	1.204887	-0.580126	0.579982
O10	O	1.704887	-0.080126	1.079982
O11	O	1.391278	-0.527815	0.656025
O12	O	1.891278	-0.027815	1.156025
O13	O	1.256024	-0.647655	0.349631
O14	O	1.756024	-0.147655	0.849631
O15	O	1.153735	-0.343293	0.512584
O16	O	1.653735	0.156707	1.012584
O17	O	1.391216	-0.656219	0.527641
O18	O	1.891216	-0.156219	1.027641
O19	O	1.256168	-0.349782	0.647459
O20	O	1.756168	0.150218	1.147459
O21	O	1.153653	-0.512763	0.343141
O22	O	1.653653	-0.012763	0.843141
O23	O	1.018531	-0.504079	0.503960
O24	O	1.518531	-0.004079	1.003960
O25	O	1.153715	-0.640956	0.810310
O26	O	1.653715	-0.140956	1.310310
O27	O	1.018522	-0.632392	0.632301
O28	O	1.518522	-0.132392	1.132301
O29	O	1.256156	-0.519131	0.816845
O30	O	1.756156	-0.019131	1.316845
O31	O	1.256012	-0.817004	0.519017
O32	O	1.756012	-0.317004	1.019017
O33	O	1.153633	-0.810425	0.640867
O34	O	1.653633	-0.310425	1.140867
C35	C	1.204835	-0.851633	0.579960
C36	C	1.704835	-0.351633	1.079960
C37	C	1.204889	-0.967789	0.579990
C38	C	1.704889	-0.467789	1.079990
C39	C	0.988276	-0.566306	0.566207
C40	C	1.488276	-0.066306	1.066207
C41	C	0.895609	-0.560419	0.560339
C42	C	1.395609	-0.060419	1.060339
C43	C	1.255610	-1.022799	0.519769
C44	C	1.755610	-0.522799	1.019769
C45	C	1.255667	-1.142853	0.519799
C46	C	1.755667	-0.642853	1.019799
C47	C	0.684675	-0.610655	0.610422
C48	C	1.184675	-0.110655	1.110422
C49	C	0.725951	-0.549680	0.549624
C50	C	1.225951	-0.049680	1.049624
C51	C	0.820357	-0.555657	0.555588
C52	C	1.320357	-0.055657	1.055588
C53	C	0.590259	-0.604680	0.604459
C54	C	1.090259	-0.104680	1.104459
C55	C	1.422344	-0.594001	0.593811
C56	C	1.922344	-0.094001	1.093811
C57	C	1.515011	-0.599913	0.599704
C58	C	2.015011	-0.099913	1.099704
C59	C	1.204944	-0.580029	0.852556
C60	C	1.704944	-0.080029	1.352556
C61	C	1.204968	-0.579988	0.968710
C62	C	1.704968	-0.079988	1.468710
C63	C	1.204962	-0.307561	0.580028
C64	C	1.704962	0.192439	1.080028
C65	C	1.204994	-0.191410	0.580047
C66	C	1.704994	0.308590	1.080047
C67	C	1.204878	-0.580150	0.308471
C68	C	1.704878	-0.080150	0.808471
C69	C	1.205016	-0.579907	0.192327
C70	C	1.705016	-0.079907	0.692327
C71	C	1.255665	-0.519693	1.023729
C72	C	1.755665	-0.019693	1.523729
C73	C	1.255691	-0.519649	1.143781
C74	C	1.755691	-0.019649	1.643781
H75	H	1.298995	-0.981018	0.468193
H76	H	1.798995	-0.481018	0.968193
N77	N	1.310145	-0.454902	1.203128
N78	N	1.810145	0.045098	1.703128
N79	N	1.310092	-0.454961	1.300566
N80	N	1.810092	0.045039	1.800566
H81	H	1.348552	-0.409233	1.342484
H82	H	1.848552	0.090767	1.842484
H83	H	1.161578	-0.631569	1.010485
H84	H	1.661578	-0.131569	1.510485
N85	N	1.150462	-1.020212	0.644685
N86	N	1.650462	-0.520212	1.144685
N87	N	1.097428	-1.077846	0.604445
N88	N	1.597428	-0.577846	1.104445
H89	H	1.058987	-1.114869	0.650136
H90	H	1.558987	-0.614869	1.150136
H91	H	1.299046	-0.468102	0.981954
H92	H	1.799046	0.031898	1.481954
N93	N	0.681355	-0.478570	0.478685
N94	N	1.181355	0.021430	0.978685
N95	N	0.720110	-0.421248	0.421512
N96	N	1.220110	0.078752	0.921512
H97	H	0.688613	-0.371031	0.371408
H98	H	1.188613	0.128969	0.871408
N99	N	1.150559	-0.644656	1.132987
N100	N	1.650559	-0.144656	1.632987
N101	N	1.097476	-0.604464	1.068691
N102	N	1.597476	-0.104464	1.568691
H103	H	1.059014	-0.650191	1.026773
H104	H	1.559014	-0.150191	1.526773
H105	H	1.299088	-1.190147	0.468239
H106	H	1.799088	-0.690147	0.968239
H107	H	1.161564	-1.144122	0.631604
H108	H	1.661564	-0.644122	1.131604
H109	H	0.720237	-0.667343	0.666946
H110	H	1.220237	-0.167343	1.166946
