data_functionalizedCrystal
_audit_creation_method	'MofGen! by Chris Wilmer'
_symmetry_space_group_name_H-M	'P1'
_symmetry_Int_Tables_number	1
_symmetry_cell_setting	triclinic
loop_
_symmetry_equiv_pos_as_xyz
  x,y,z
_cell_length_a	10.654558
_cell_length_b	10.654550
_cell_length_c	11.892095
_cell_angle_alpha	93.928097
_cell_angle_beta	86.063713
_cell_angle_gamma	84.486610
loop_
_atom_site_label
_atom_site_type_symbol
_atom_site_fract_x
_atom_site_fract_y
_atom_site_fract_z
O1	O	1.675794	0.168491	-0.093985
O2	O	1.310317	0.185286	-0.093990
O3	O	1.501458	-0.005850	-0.093983
O4	O	1.484653	0.359627	-0.093992
O5	O	1.485521	0.010062	0.094024
O6	O	1.294380	0.201198	0.094017
O7	O	1.659857	0.184403	0.094022
Zn8	Zn	1.474588	0.195327	0.123870
Zn9	Zn	1.495586	0.174362	-0.123837
O10	O	1.468716	0.375539	0.094015
C11	C	1.255551	0.192006	0.000013
C12	C	1.116108	0.188310	0.000011
C13	C	1.492256	-0.044692	0.000019
C14	C	1.488564	-0.184136	0.000015
C15	C	0.928257	0.174441	-0.102472
C16	C	1.059280	0.177903	-0.102473
C17	C	1.041908	0.195244	0.102502
C18	C	0.910889	0.191773	0.102502
C19	C	0.871434	0.164046	-0.204962
C20	C	0.945626	0.157110	-0.307455
C21	C	1.076648	0.160571	-0.307456
C22	C	1.133480	0.170969	-0.204965
C23	C	1.601105	-0.263618	0.000020
C24	C	1.597629	-0.394639	0.000012
C25	C	1.369061	-0.366684	-0.000001
C26	C	1.372539	-0.235666	-0.000001
C27	C	1.717130	-0.212088	0.000037
C28	C	1.829679	-0.291571	0.000043
C29	C	1.826204	-0.422593	0.000035
C30	C	1.710178	-0.474131	0.000021
C31	C	1.714623	0.177682	0.000017
C32	C	1.854066	0.181378	0.000012
C33	C	1.477918	0.414381	0.000011
C34	C	1.481610	0.553824	0.000007
N35	N	1.460266	0.209634	0.292923
N36	N	1.509917	0.160045	-0.292891
C37	C	1.609571	0.060419	0.529577
C38	C	1.599570	0.070428	0.647918
C39	C	1.430257	0.239656	0.647950
C40	C	1.440259	0.229646	0.529609
C41	C	1.529920	0.140026	0.470426
C42	C	1.539926	0.130023	0.352082
C43	C	1.370609	0.299244	0.352116
C44	C	1.360607	0.309254	0.470458
H45	H	0.764750	0.161230	-0.204973
H46	H	1.612936	0.057053	0.303897
H47	H	1.682585	-0.012545	0.481389
H48	H	1.664428	0.005603	0.696075
H49	H	1.274598	-0.408658	-0.000011
O50	O	1.263098	-0.158625	0.000043
C51	C	1.159947	-0.232200	0.000008
H52	H	1.187943	-0.326679	0.035609
H53	H	1.076394	-0.179942	0.054581
H54	H	1.132093	-0.249471	-0.090192
H55	H	1.357249	0.312614	0.696152
O56	O	1.273454	0.396144	0.528080
C57	C	1.189581	0.333955	0.596524
H58	H	1.237241	0.237636	0.614239
H59	H	1.163141	0.393229	0.679748
H60	H	1.100541	0.320714	0.550934
H61	H	1.924146	-0.249602	0.000026
O62	O	1.293297	0.376452	0.294482
C63	C	1.321376	0.348434	0.177338
H64	H	1.368798	0.247645	0.161161
H65	H	1.230196	0.357741	0.132374
H66	H	1.387836	0.417258	0.143755
H67	H	0.899346	0.148635	-0.390899
O68	O	1.260725	0.174500	-0.204828
C69	C	1.286482	0.289005	-0.148646
H70	H	1.201492	0.328282	-0.088797
H71	H	1.372856	0.271160	-0.098271
H72	H	1.305927	0.360163	-0.213437
O73	O	1.148528	0.153870	-0.407111
C74	C	1.070277	0.143918	-0.497565
H75	H	0.969485	0.183679	-0.467516
H76	H	1.106767	0.199723	-0.569242
H77	H	1.071305	0.040305	-0.529079
O78	O	1.720354	-0.084808	-0.000100
C79	C	1.667120	-0.041596	-0.097484
H80	H	1.601149	-0.111685	-0.129968
H81	H	1.611396	0.054774	-0.075576
H82	H	1.745765	-0.032932	-0.165654
H83	H	1.088191	0.203712	0.185946
O84	O	1.935430	-0.499921	0.000184
C85	C	1.932013	-0.568289	0.097564
H86	H	1.829515	-0.573038	0.130020
H87	H	1.979793	-0.668189	0.075662
H88	H	1.983966	-0.518929	0.165753
O89	O	0.838990	0.198583	0.202154
C90	C	0.917238	0.208481	0.292615
H91	H	1.008327	0.248108	0.262576
H92	H	0.865860	0.274406	0.364292
H93	H	0.940798	0.110937	0.324126
H94	H	1.707358	-0.580820	0.000002
