data_functionalizedCrystal
_audit_creation_method	'MofGen! by Chris Wilmer'
_symmetry_space_group_name_H-M	'P1'
_symmetry_Int_Tables_number	1
_symmetry_cell_setting	triclinic
loop_
_symmetry_equiv_pos_as_xyz
  x,y,z
_cell_length_a	17.000371
_cell_length_b	7.540329
_cell_length_c	9.065218
_cell_angle_alpha	89.998243
_cell_angle_beta	80.307566
_cell_angle_gamma	89.996638
loop_
_atom_site_label
_atom_site_type_symbol
_atom_site_fract_x
_atom_site_fract_y
_atom_site_fract_z
O1	O	1.056484	-0.147488	0.053109
O2	O	0.825137	-0.147488	0.106602
O3	O	0.945592	-0.147484	-0.135526
O4	O	0.936028	-0.147491	0.295237
O5	O	0.945585	0.147481	-0.135528
O6	O	0.825129	0.147477	0.106601
O7	O	1.056477	0.147477	0.053107
Cu8	Cu	0.940802	0.174410	0.079854
Cu9	Cu	0.940811	-0.174420	0.079856
O10	O	0.936021	0.147474	0.295235
C11	C	0.795500	-0.000005	0.109475
C12	C	0.707203	-0.000005	0.118019
N13	N	0.940802	0.419758	0.079850
C14	C	0.944669	-0.000005	-0.190371
C15	C	0.941921	-0.000013	-0.353789
C16	C	0.674230	-0.000000	-0.013461
C17	C	0.591265	-0.000013	-0.005425
C18	C	0.541274	-0.000019	0.134094
C19	C	0.574253	-0.000029	0.265583
C20	C	0.657217	-0.000029	0.257545
C21	C	0.290352	-0.000031	0.165142
C22	C	0.207384	-0.000026	0.173171
C23	C	0.224401	-0.000013	-0.097839
C24	C	0.307365	-0.000002	-0.105864
C25	C	0.340337	-0.000022	0.025625
C26	C	0.456471	-0.000026	0.142312
C27	C	0.425139	-0.000027	0.017406
C28	C	1.086113	-0.000009	0.050234
C29	C	1.174410	-0.000021	0.041691
N30	N	0.940817	-0.419769	0.079846
C31	C	0.936944	-0.000010	0.350081
C32	C	0.939692	-0.000013	0.513499
H33	H	0.714927	0.000012	-0.127072
F34	F	0.403261	-0.000034	0.290793
F35	F	0.521047	-0.000052	0.414070
H36	H	0.564422	-0.000010	-0.112490
F37	F	0.360563	0.000014	-0.254359
H38	H	0.197546	-0.000017	-0.204890
F39	F	0.154181	-0.000018	0.321672
H40	H	0.317187	-0.000059	0.272211
F41	F	0.692308	-0.000041	0.397485
F42	F	0.478344	-0.000029	-0.131075
