data_functionalizedCrystal
_audit_creation_method	'MofGen! by Chris Wilmer'
_symmetry_space_group_name_H-M	'P1'
_symmetry_Int_Tables_number	1
_symmetry_cell_setting	triclinic
loop_
_symmetry_equiv_pos_as_xyz
  x,y,z
_cell_length_a	14.908571
_cell_length_b	21.295417
_cell_length_c	14.908308
_cell_angle_alpha	86.738273
_cell_angle_beta	89.824947
_cell_angle_gamma	86.725606
loop_
_atom_site_label
_atom_site_type_symbol
_atom_site_fract_x
_atom_site_fract_y
_atom_site_fract_z
Zn1	Zn	1.345222	-0.328502	0.587537
Zn2	Zn	1.353780	-0.428069	0.437164
Zn3	Zn	1.203540	-0.316412	0.428537
Zn4	Zn	1.194808	-0.427321	0.578816
O5	O	1.274337	-0.375076	0.508014
O6	O	1.472182	-0.347083	0.574851
O7	O	1.341086	-0.408510	0.310196
O8	O	1.222407	-0.229931	0.449668
O9	O	1.478469	-0.420234	0.464372
O10	O	1.326500	-0.238814	0.566485
O11	O	1.230705	-0.326476	0.303857
O12	O	1.076557	-0.325751	0.441211
O13	O	1.207525	-0.418959	0.705797
O14	O	1.070141	-0.407236	0.551621
O15	O	1.318033	-0.346358	0.712205
O16	O	1.332619	-0.516054	0.455915
O17	O	1.215823	-0.515505	0.559986
C18	C	1.040724	-0.365101	0.494534
C19	C	0.940782	-0.360849	0.488788
C20	C	0.746357	-0.437829	0.592807
C21	C	0.652453	-0.433836	0.587412
C22	C	0.659066	-0.348869	0.472608
C23	C	0.752971	-0.352861	0.478003
C24	C	0.796613	-0.397344	0.538104
C25	C	0.890520	-0.401339	0.543494
C26	C	0.897131	-0.316368	0.428695
C27	C	0.803226	-0.312376	0.423300
C28	C	1.274225	-0.538621	0.507961
C29	C	1.274258	-0.608591	0.507974
C30	C	1.328424	-0.646026	0.568840
C31	C	1.328454	-0.711771	0.568864
C32	C	1.274329	-0.740078	0.508007
C33	C	1.220152	-0.702634	0.447136
C34	C	1.220117	-0.636891	0.447120
N35	N	1.272081	-0.840068	0.428926
N36	N	1.272120	-0.902521	0.428945
C37	C	1.274432	-0.938158	0.508053
N38	N	1.276721	-0.908983	0.587146
N39	N	1.276686	-0.846523	0.587127
C40	C	1.274361	-0.811365	0.508018
C41	C	1.328634	-1.046881	0.568950
C42	C	1.328658	-1.112627	0.568975
C43	C	1.220361	-1.103489	0.447240
C44	C	1.220332	-1.037745	0.447222
C45	C	1.274473	-1.009445	0.508076
C46	C	1.508863	-0.385091	0.521547
C47	C	1.608804	-0.389358	0.527313
C48	C	1.260850	-0.383924	0.742538
C49	C	1.255103	-0.387694	0.842478
C50	C	1.274473	-0.210894	0.508087
C51	C	1.274531	-0.140930	0.508118
C52	C	1.287824	-0.366219	0.274405
C53	C	1.293745	-0.362279	0.174475
C54	C	1.359373	-0.319165	1.036950
C55	C	1.353975	-0.322705	1.130853
C56	C	1.238907	-0.398313	1.124188
C57	C	1.244304	-0.394772	1.030285
C58	C	1.304540	-0.355197	0.986670
C59	C	1.309941	-0.351661	0.892765
C60	C	1.194869	-0.427264	0.886102
C61	C	1.189471	-0.430805	0.980005
H62	H	0.611537	-0.466803	0.631959
H63	H	1.150222	-0.456606	0.845154
N64	N	1.374915	-0.308985	0.845719
H65	H	1.340643	-0.276788	0.804655
H66	H	1.418785	-0.334929	0.809210
H67	H	0.926052	-0.437559	0.592429
H68	H	1.372555	-0.742256	0.618438
N69	N	1.161776	-0.733158	0.381491
H70	H	1.117996	-0.760053	0.415595
H71	H	1.200827	-0.760377	0.341985
H72	H	0.781892	-0.474051	0.641738
N73	N	0.611972	-0.300916	0.407771
H74	H	0.570914	-0.271508	0.442132
H75	H	0.575449	-0.323298	0.363837
N76	N	0.756154	-0.264413	0.358462
H77	H	0.689040	-0.268030	0.363337
H78	H	0.776253	-0.272436	0.295172
H79	H	0.938060	-0.283403	0.384150
H80	H	1.176285	-1.126536	0.397694
N81	N	1.386810	-0.615502	0.634478
H82	H	1.421127	-0.649198	0.673042
H83	H	1.347767	-0.588245	0.673939
N84	N	1.413125	-0.283847	1.185083
H85	H	1.400568	-0.292094	1.251189
H86	H	1.400108	-0.237675	1.167881
N87	N	1.161695	-0.596509	0.381467
H88	H	1.127408	-0.624415	0.342917
H89	H	1.200709	-0.569218	0.341994
N90	N	1.424346	-0.276491	0.989900
H91	H	1.458269	-0.254204	1.036003
H92	H	1.390012	-0.244329	0.948839
N93	N	1.387022	-1.016352	0.634583
H94	H	1.421337	-1.050046	0.673152
H95	H	1.347984	-0.989088	0.674041
H96	H	1.372766	-1.143106	0.618544
H97	H	1.176228	-1.007263	0.397656
H98	H	1.189865	-0.430532	1.159716
N99	N	1.124487	-0.473473	1.027048
H100	H	1.129381	-0.470245	1.094165
H101	H	1.139379	-0.518410	1.011433
