data_functionalizedCrystal
_audit_creation_method	'MofGen! by Chris Wilmer'
_symmetry_space_group_name_H-M	'P1'
_symmetry_Int_Tables_number	1
_symmetry_cell_setting	triclinic
loop_
_symmetry_equiv_pos_as_xyz
  x,y,z
_cell_length_a	18.101398
_cell_length_b	19.120786
_cell_length_c	18.101389
_cell_angle_alpha	87.539356
_cell_angle_beta	89.975673
_cell_angle_gamma	92.460164
loop_
_atom_site_label
_atom_site_type_symbol
_atom_site_fract_x
_atom_site_fract_y
_atom_site_fract_z
Zn1	Zn	1.119565	-0.279790	-0.406239
Zn2	Zn	1.452899	0.053544	-0.072906
Zn3	Zn	1.786232	0.386877	0.260427
Zn4	Zn	1.114191	-0.397230	-0.277109
Zn5	Zn	1.447524	-0.063897	0.056224
Zn6	Zn	1.780857	0.269436	0.389557
Zn7	Zn	0.995724	-0.279782	-0.282401
Zn8	Zn	1.329058	0.053551	0.050932
Zn9	Zn	1.662391	0.386884	0.384266
Zn10	Zn	0.990406	-0.397200	-0.400899
Zn11	Zn	1.323739	-0.063867	-0.067566
Zn12	Zn	1.657073	0.269466	0.265767
O13	O	1.054972	-0.338501	-0.341662
O14	O	1.388305	-0.005167	-0.008329
O15	O	1.721638	0.328166	0.325004
O16	O	1.222484	-0.295384	-0.389130
O17	O	1.555818	0.037949	-0.055797
O18	O	1.889151	0.371283	0.277536
O19	O	1.098453	-0.381660	-0.174178
O20	O	1.431786	-0.048327	0.159155
O21	O	1.765119	0.285006	0.492489
O22	O	1.016627	-0.181494	-0.303278
O23	O	1.349961	0.151839	0.030056
O24	O	1.683294	0.485173	0.363389
O25	O	1.218536	-0.381667	-0.294259
O26	O	1.551869	-0.048334	0.039074
O27	O	1.885203	0.284999	0.372407
O28	O	1.107612	-0.181499	-0.394261
O29	O	1.440946	0.151834	-0.060928
O30	O	1.774279	0.485167	0.272405
O31	O	1.011416	-0.295372	-0.178066
O32	O	1.344749	0.037962	0.155268
O33	O	1.678083	0.371295	0.488601
O34	O	0.891387	-0.295342	-0.298100
O35	O	1.224720	0.037991	0.035234
O36	O	1.558053	0.371324	0.368567
O37	O	1.007563	-0.381616	-0.505241
O38	O	1.340896	-0.048283	-0.171908
O39	O	1.674229	0.285051	0.161426
O40	O	0.887479	-0.381609	-0.385160
O41	O	1.220813	-0.048276	-0.051827
O42	O	1.554146	0.285058	0.281507
O43	O	1.102455	-0.295355	-0.509164
O44	O	1.435789	0.037978	-0.175831
O45	O	1.769122	0.371312	0.157502
O46	O	1.093295	-0.495516	-0.289081
O47	O	1.426629	-0.162182	0.044252
O48	O	1.759962	0.171151	0.377586
O49	O	1.002351	-0.495494	-0.380029
O50	O	1.335685	-0.162160	-0.046696
O51	O	1.669018	0.171173	0.286638
C52	C	0.862562	-0.338472	-0.341625
C53	C	1.195896	-0.005139	-0.008292
C54	C	1.529229	0.328194	0.325042
C55	C	0.780248	-0.338477	-0.341626
C56	C	1.113581	-0.005144	-0.008292
C57	C	1.446915	0.328190	0.325041
C58	C	0.481155	-0.338521	-0.341686
C59	C	0.814488	-0.005187	-0.008353
C60	C	1.147822	0.328146	0.324981
C61	C	0.514926	-0.283973	-0.287201
C62	C	0.848260	0.049360	0.046132
C63	C	1.181593	0.382694	0.379465
C64	C	0.600538	-0.284119	-0.286952
C65	C	0.933871	0.049214	0.046381
C66	C	1.267204	0.382547	0.379715
C67	C	0.629539	-0.338498	-0.341656
C68	C	0.962872	-0.005165	-0.008323
C69	C	1.296205	0.328168	0.325011
C70	C	0.595100	-0.412484	-0.317000
C71	C	0.928434	-0.079151	0.016333
C72	C	1.261767	0.254183	0.349667
C73	C	0.509469	-0.412181	-0.316618
C74	C	0.842802	-0.078848	0.016716
C75	C	1.176135	0.254486	0.350049
C76	C	0.513613	-0.319726	-0.420932
C77	C	0.846946	0.013607	-0.087598
C78	C	1.180280	0.346940	0.245735
C79	C	0.599338	-0.318078	-0.420578
C80	C	0.932671	0.015255	-0.087245
C81	C	1.266005	0.348588	0.246089
C82	C	0.713398	-0.338490	-0.341640
C83	C	1.046732	-0.005157	-0.008307
C84	C	1.380065	0.328176	0.325026
C85	C	0.397295	-0.338534	-0.341700
C86	C	0.730628	-0.005200	-0.008366
C87	C	1.063962	0.328133	0.324967
C88	C	1.046683	-0.520990	-0.333418
C89	C	1.380016	-0.187657	-0.000084
C90	C	1.713350	0.145677	0.333249
C91	C	1.043205	-0.599060	-0.329915
C92	C	1.376538	-0.265726	0.003418
C93	C	1.709872	0.067607	0.336751
C94	C	1.088907	-0.635679	-0.375679
C95	C	1.422240	-0.302346	-0.042345
C96	C	1.755574	0.030987	0.290988
C97	C	1.085636	-0.709034	-0.372389
C98	C	1.418969	-0.375701	-0.039056
C99	C	1.752302	-0.042368	0.294278
C100	C	1.036666	-0.745768	-0.323332
C101	C	1.370000	-0.412435	0.010002
C102	C	1.703333	-0.079101	0.343335
C103	C	0.990959	-0.709143	-0.277567
C104	C	1.324293	-0.375810	0.055767
C105	C	1.657626	-0.042476	0.389100
C106	C	0.994227	-0.635790	-0.280860
C107	C	1.327560	-0.302456	0.052473
C108	C	1.660894	0.030877	0.385806
C109	C	1.024428	-0.967251	-0.311018
C110	C	1.357761	-0.633917	0.022315
C111	C	1.691095	-0.300584	0.355648
C112	C	1.021165	-1.040609	-0.307726
C113	C	1.354499	-0.707276	0.025607
C114	C	1.687832	-0.373943	0.358940
C115	C	1.115841	-1.040495	-0.402550
C116	C	1.449174	-0.707162	-0.069217
C117	C	1.782508	-0.373829	0.264117
C118	C	1.119108	-0.967141	-0.405836
C119	C	1.452441	-0.633807	-0.072503
C120	C	1.785774	-0.300474	0.260830
C121	C	1.073398	-0.930522	-0.360074
C122	C	1.406732	-0.597189	-0.026741
C123	C	1.740065	-0.263855	0.306593
C124	C	1.033323	-0.820748	-0.319966
C125	C	1.366656	-0.487415	0.013367
C126	C	1.699990	-0.154082	0.346700
C127	C	1.076738	-0.855543	-0.363443
C128	C	1.410071	-0.522210	-0.030110
C129	C	1.743405	-0.188876	0.303223
C130	C	1.248132	-0.338530	-0.341700
C131	C	1.581465	-0.005196	-0.008367
C132	C	1.914799	0.328137	0.324966
C133	C	1.330446	-0.338542	-0.341716
C134	C	1.663779	-0.005209	-0.008383
C135	C	1.997112	0.328124	0.324950
C136	C	1.055015	-0.338483	-0.534825
C137	C	1.388349	-0.005150	-0.201492
C138	C	1.721682	0.328184	0.131842
C139	C	1.055034	-0.338475	-0.617140
C140	C	1.388367	-0.005142	-0.283806
C141	C	1.721700	0.328191	0.049527
C142	C	1.063313	-0.155299	-0.349956
C143	C	1.396646	0.178035	-0.016622
C144	C	1.729979	0.511368	0.316711
C145	C	1.066867	-0.077229	-0.353490
C146	C	1.400200	0.256104	-0.020156
C147	C	1.733534	0.589438	0.313177
C148	C	1.055083	-0.338344	-0.916237
C149	C	1.388416	-0.005010	-0.582903
C150	C	1.721749	0.328323	-0.249570
C151	C	0.995189	-0.392444	-0.882451
C152	C	1.328523	-0.059111	-0.549117
C153	C	1.661856	0.274222	-0.215784
C154	C	0.995333	-0.392695	-0.796821
C155	C	1.328667	-0.059362	-0.463488
C156	C	1.662000	0.273971	-0.130154
C157	C	1.055058	-0.338409	-0.767851
C158	C	1.388391	-0.005076	-0.434518
C159	C	1.721724	0.328258	-0.101184
C160	C	1.132181	-0.358507	-0.798052
C161	C	1.465515	-0.025174	-0.464718
C162	C	1.798848	0.308160	-0.131385
C163	C	1.131845	-0.358862	-0.883681
C164	C	1.465179	-0.025529	-0.550347
C165	C	1.798512	0.307805	-0.217014
C166	C	1.038537	-0.264025	-0.888008
C167	C	1.371870	0.069308	-0.554674
C168	C	1.705203	0.402642	-0.221341
C169	C	1.036781	-0.264454	-0.802337
C170	C	1.370115	0.068879	-0.469004
C171	C	1.703448	0.402212	-0.135671
C172	C	1.055049	-0.338445	-0.683990
C173	C	1.388382	-0.005111	-0.350657
C174	C	1.721715	0.328222	-0.017323
C175	C	1.055097	-0.338310	-1.000098
C176	C	1.388431	-0.004976	-0.666764
C177	C	1.721764	0.328357	-0.333431
C178	C	1.054973	-0.338468	-0.149253
C179	C	1.388306	-0.005134	0.184080
C180	C	1.721640	0.328199	0.517413
C181	C	1.055107	-0.338277	-0.066948
C182	C	1.388440	-0.004944	0.266385
C183	C	1.721774	0.328389	0.599718
H184	H	0.622125	-0.263633	-0.439109
H185	H	0.955459	0.069700	-0.105776
H186	H	1.288792	0.403033	0.227557
H187	H	0.938039	-0.380118	-0.776355
H188	H	1.271372	-0.046785	-0.443022
H189	H	1.604706	0.286549	-0.109688
H190	H	1.158983	-0.937233	-0.445783
H191	H	1.492316	-0.603900	-0.112449
H192	H	1.825649	-0.270567	0.220884
H193	H	1.122857	-0.738847	-0.409649
H194	H	1.456190	-0.405513	-0.076315
H195	H	1.789524	-0.072180	0.257018
H196	H	1.146262	-0.413190	-0.901218
H197	H	1.479595	-0.079857	-0.567884
H198	H	1.812928	0.253477	-0.234551
Br199	Br	0.478075	-0.304428	-0.190019
Br200	Br	0.811408	0.028905	0.143314
Br201	Br	1.144741	0.362239	0.476647
H202	H	0.983451	-0.245715	-0.910418
H203	H	1.316784	0.087618	-0.577085
H204	H	1.650118	0.420951	-0.243751
Br205	Br	1.156743	-0.448095	-0.758281
Br206	Br	1.490077	-0.114761	-0.424948
Br207	Br	1.823410	0.218572	-0.091615
Br208	Br	0.942205	-0.239195	-0.769600
Br209	Br	1.275538	0.094138	-0.436267
Br210	Br	1.608872	0.427472	-0.102934
H211	H	0.624040	-0.229255	-0.302789
H212	H	0.957374	0.104078	0.030544
H213	H	1.290707	0.437411	0.363878
H214	H	1.128786	-0.605776	-0.415623
H215	H	1.462120	-0.272442	-0.082289
H216	H	1.795453	0.060891	0.251044
H217	H	0.987211	-0.937442	-0.273755
H218	H	1.320544	-0.604108	0.059578
H219	H	1.653878	-0.270775	0.392912
Br220	Br	0.481627	-0.231370	-0.457225
Br221	Br	0.814960	0.101963	-0.123892
Br222	Br	1.148294	0.435296	0.209441
Br223	Br	1.177870	-1.090195	-0.464654
Br224	Br	1.511203	-0.756862	-0.131321
Br225	Br	1.844537	-0.423529	0.202012
H226	H	0.981285	-1.070516	-0.267777
H227	H	1.314618	-0.737183	0.065556
H228	H	1.647951	-0.403849	0.398889
Br229	Br	0.625907	-0.482040	-0.380834
Br230	Br	0.959240	-0.148707	-0.047501
Br231	Br	1.292573	0.184627	0.285832
H232	H	0.620434	-0.296543	-0.228299
H233	H	0.953767	0.036790	0.105034
H234	H	1.287101	0.370124	0.438367
H235	H	0.951084	-0.739058	-0.237626
H236	H	1.284417	-0.405724	0.095707
H237	H	1.617751	-0.072391	0.429040
H238	H	0.488742	-0.428121	-0.258586
H239	H	0.822075	-0.094788	0.074747
H240	H	1.155408	0.238545	0.408081
H241	H	0.486861	-0.454199	-0.354390
H242	H	0.820195	-0.120865	-0.021057
H243	H	1.153528	0.212468	0.312276
Br244	Br	1.143189	-0.805689	-0.430025
Br245	Br	1.476522	-0.472356	-0.096692
Br246	Br	1.809855	-0.139023	0.236642
H247	H	1.077487	-0.222006	-0.782865
H248	H	1.410821	0.111327	-0.449531
H249	H	1.744154	0.444661	-0.116198
Br250	Br	0.484760	-0.192245	-0.313362
Br251	Br	0.818093	0.141088	0.019971
Br252	Br	1.151427	0.474421	0.353304
H253	H	1.082201	-0.223717	-0.910099
H254	H	1.415534	0.109616	-0.576765
H255	H	1.748867	0.442949	-0.243432
H256	H	0.491574	-0.359457	-0.461569
H257	H	0.824907	-0.026124	-0.128236
H258	H	1.158240	0.307210	0.205098
Br259	Br	0.629576	-0.439517	-0.221287
Br260	Br	0.962909	-0.106184	0.112046
Br261	Br	1.296242	0.227149	0.445380
H262	H	1.177804	-0.321168	-0.906119
H263	H	1.511137	0.012165	-0.572785
H264	H	1.844471	0.345498	-0.239452
H265	H	0.957011	-0.605975	-0.243596
H266	H	1.290344	-0.272641	0.089737
H267	H	1.623678	0.060692	0.423071
Br268	Br	1.208320	-0.294895	-0.767011
Br269	Br	1.541653	0.038438	-0.433678
Br270	Br	1.874986	0.371771	-0.100344
H271	H	0.937715	-0.379996	-0.903597
H272	H	1.271048	-0.046662	-0.570264
H273	H	1.604382	0.286671	-0.236930
Br274	Br	0.632253	-0.379476	-0.492318
Br275	Br	0.965587	-0.046142	-0.158985
Br276	Br	1.298920	0.287191	0.174349
Br277	Br	1.012703	-0.483690	-0.914280
Br278	Br	1.346036	-0.150356	-0.580946
Br279	Br	1.679369	0.182977	-0.247613
Br280	Br	0.966859	-0.870607	-0.253397
Br281	Br	1.300193	-0.537274	0.079936
Br282	Br	1.633526	-0.203940	0.413269
H283	H	1.005987	-0.447783	-0.773858
H284	H	1.339321	-0.114449	-0.440525
H285	H	1.672654	0.218884	-0.107191
