data_functionalizedCrystal
_audit_creation_method	'MofGen! by Chris Wilmer'
_symmetry_space_group_name_H-M	'P1'
_symmetry_Int_Tables_number	1
_symmetry_cell_setting	triclinic
loop_
_symmetry_equiv_pos_as_xyz
  x,y,z
_cell_length_a	14.519731
_cell_length_b	14.519709
_cell_length_c	14.185569
_cell_angle_alpha	103.184626
_cell_angle_beta	103.175552
_cell_angle_gamma	96.315502
loop_
_atom_site_label
_atom_site_type_symbol
_atom_site_fract_x
_atom_site_fract_y
_atom_site_fract_z
O1	O	-0.141729	1.203029	-0.083275
O2	O	0.358271	1.703029	0.416725
O3	O	-0.155973	0.934546	-0.083305
O4	O	0.344027	1.434546	0.416695
O5	O	-0.014615	1.075894	-0.083296
O6	O	0.485385	1.575894	0.416704
O7	O	-0.283086	1.061681	-0.083283
O8	O	0.216914	1.561681	0.416717
O9	O	0.027139	1.117649	0.083541
O10	O	0.527139	1.617649	0.583541
O11	O	-0.114219	0.976301	0.083532
O12	O	0.385781	1.476301	0.583532
O13	O	-0.099975	1.244784	0.083562
O14	O	0.400025	1.744784	0.583562
Cu15	Cu	-0.103285	1.114355	0.098781
Cu16	Cu	0.396715	1.614355	0.598781
Cu17	Cu	-0.152663	1.064975	-0.098523
Cu18	Cu	0.347337	1.564975	0.401477
O19	O	-0.241333	1.103436	0.083554
O20	O	0.258667	1.603436	0.583554
C21	C	-0.134433	0.921063	0.000110
C22	C	0.365567	1.421063	0.500110
C23	C	-0.132448	0.818678	0.000098
C24	C	0.367552	1.318678	0.500098
C25	C	-0.125117	0.443793	0.000144
C26	C	0.374883	0.943793	0.500144
C27	C	-0.127153	0.548098	0.000131
C28	C	0.372847	1.048098	0.500131
C29	C	-0.128783	0.631232	0.000120
C30	C	0.371217	1.131232	0.500120
C31	C	-0.130818	0.735544	0.000109
C32	C	0.369182	1.235544	0.500109
C33	C	-0.296568	1.083225	0.000137
C34	C	0.203432	1.583225	0.500137
C35	C	-0.398947	1.085222	0.000142
C36	C	0.101053	1.585222	0.500142
C37	C	-0.482092	1.086843	0.000139
C38	C	0.017908	1.586843	0.500139
C39	C	-0.586403	1.088868	0.000129
C40	C	-0.086403	1.588868	0.500129
C41	C	-0.669544	1.090474	0.000121
C42	C	-0.169544	1.590474	0.500121
C43	C	-0.773862	1.092499	0.000114
C44	C	-0.273862	1.592499	0.500114
C45	C	0.040620	1.096104	0.000118
C46	C	0.540620	1.596104	0.500118
C47	C	0.142997	1.094105	0.000106
C48	C	0.642997	1.594105	0.500106
C49	C	-0.121515	1.258267	0.000145
C50	C	0.378485	1.758267	0.500145
C51	C	-0.123502	1.360649	0.000150
C52	C	0.376498	1.860649	0.500150
N53	N	-0.068554	1.149094	0.237554
N54	N	0.431446	1.649094	0.737554
N55	N	-0.187387	1.030244	-0.237296
N56	N	0.312613	1.530244	0.262704
C57	C	-0.289386	0.928182	0.605191
C58	C	0.210614	1.428182	1.105191
C59	C	-0.263084	0.954502	0.710214
C60	C	0.236916	1.454502	1.210214
C61	C	-0.137958	1.079691	0.710182
C62	C	0.362042	1.579691	1.210182
C63	C	-0.164247	1.053378	0.605157
C64	C	0.335753	1.553378	1.105157
C65	C	-0.239962	0.977624	0.552670
C66	C	0.260038	1.477624	1.052670
C67	C	-0.114823	1.102820	0.552636
C68	C	0.385177	1.602820	1.052636
C69	C	-0.141113	1.076513	0.447620
C70	C	0.358887	1.576513	0.947620
C71	C	-0.216827	1.000763	0.395125
C72	C	0.283173	1.500763	0.895125
C73	C	-0.266252	0.951316	0.447654
C74	C	0.233748	1.451316	0.947654
C75	C	-0.039113	1.178579	0.605125
C76	C	0.460887	1.678579	1.105125
C77	C	0.010311	1.228021	0.552604
C78	C	0.510311	1.728021	1.052604
C79	C	-0.015974	1.201709	0.447586
C80	C	0.484026	1.701709	0.947586
C81	C	-0.091688	1.125959	0.395091
C82	C	0.408312	1.625959	0.895091
C83	C	0.033451	1.251156	0.395057
C84	C	0.533451	1.751156	0.895057
C85	C	0.007161	1.224848	0.290041
C86	C	0.507161	1.724848	0.790041
C87	C	-0.117978	1.099652	0.290075
C88	C	0.382022	1.599652	0.790075
H89	H	-0.179626	1.037958	0.247338
H90	H	0.320374	1.537958	0.747338
H91	H	-0.017714	1.199999	0.690636
H92	H	0.482286	1.699999	1.190636
F93	F	-0.315698	0.901872	0.766104
F94	F	0.184302	1.401872	1.266104
H95	H	0.071957	1.289704	0.595351
H96	H	0.571957	1.789704	1.095351
H97	H	-0.076313	1.141374	0.752929
H98	H	0.423687	1.641374	1.252929
F99	F	0.114022	1.331786	0.450929
F100	F	0.614022	1.831786	0.950929
F101	F	-0.244810	0.972768	0.283356
F102	F	0.255190	1.472768	0.783356
F103	F	-0.346829	0.870680	0.391790
F104	F	0.153171	1.370680	0.891790
H105	H	-0.351034	0.866488	0.562454
H106	H	0.148966	1.366488	1.062454
F107	F	0.059763	1.277473	0.234143
F108	F	0.559763	1.777473	0.734143
