data_functionalizedCrystal
_audit_creation_method	'MofGen! by Chris Wilmer'
_symmetry_space_group_name_H-M	'P1'
_symmetry_Int_Tables_number	1
_symmetry_cell_setting	triclinic
loop_
_symmetry_equiv_pos_as_xyz
  x,y,z
_cell_length_a	13.897449
_cell_length_b	13.897447
_cell_length_c	13.897441
_cell_angle_alpha	89.973472
_cell_angle_beta	90.020733
_cell_angle_gamma	89.977525
loop_
_atom_site_label
_atom_site_type_symbol
_atom_site_fract_x
_atom_site_fract_y
_atom_site_fract_z
Zn1	Zn	1.474679	0.383951	0.545408
Zn2	Zn	1.808012	0.717285	0.878742
Zn3	Zn	2.141346	1.050618	1.212075
Zn4	Zn	1.474563	0.545273	0.384121
Zn5	Zn	1.807897	0.878606	0.717455
Zn6	Zn	2.141230	1.211940	1.050788
Zn7	Zn	1.313368	0.383997	0.384127
Zn8	Zn	1.646702	0.717330	0.717460
Zn9	Zn	1.980035	1.050664	1.050793
Zn10	Zn	1.313340	0.545210	0.545374
Zn11	Zn	1.646673	0.878543	0.878707
Zn12	Zn	1.980007	1.211876	1.212041
O13	O	1.393988	0.464608	0.464758
O14	O	1.727321	0.797941	0.798091
O15	O	2.060654	1.131274	1.131424
O16	O	1.609645	0.405358	0.524026
O17	O	1.942979	0.738692	0.857359
O18	O	2.276312	1.072025	1.190692
O19	O	1.453144	0.523925	0.249140
O20	O	1.786477	0.857258	0.582474
O21	O	2.119810	1.190592	0.915807
O22	O	1.334827	0.249009	0.405538
O23	O	1.668160	0.582343	0.738871
O24	O	2.001493	0.915676	1.072205
O25	O	1.609560	0.523881	0.405529
O26	O	1.942894	0.857214	0.738862
O27	O	2.276227	1.190547	1.072195
O28	O	1.453341	0.248976	0.524031
O29	O	1.786675	0.582309	0.857364
O30	O	2.120008	0.915642	1.190698
O31	O	1.334714	0.405436	0.249144
O32	O	1.668048	0.738770	0.582478
O33	O	2.001381	1.072103	0.915811
O34	O	1.178383	0.405375	0.405504
O35	O	1.511716	0.738708	0.738838
O36	O	1.845050	1.072042	1.072171
O37	O	1.334779	0.523773	0.680360
O38	O	1.668112	0.857106	1.013694
O39	O	2.001445	1.190439	1.347027
O40	O	1.178362	0.523817	0.523972
O41	O	1.511696	0.857150	0.857305
O42	O	1.845029	1.190484	1.190639
O43	O	1.453314	0.405297	0.680386
O44	O	1.786647	0.738630	1.013719
O45	O	2.119981	1.071963	1.347052
O46	O	1.453116	0.680246	0.405495
O47	O	1.786450	1.013579	0.738828
O48	O	2.119783	1.346913	1.072162
O49	O	1.334666	0.680200	0.523967
O50	O	1.668000	1.013533	0.857300
O51	O	2.001333	1.346866	1.190633
C52	C	1.143373	0.464595	0.464736
C53	C	1.476707	0.797928	0.798069
C54	C	1.810040	1.131261	1.131402
C55	C	1.036159	0.464613	0.464749
C56	C	1.369493	0.797946	0.798082
C57	C	1.702826	1.131279	1.131416
C58	C	0.839864	0.464616	0.464774
C59	C	1.173198	0.797949	0.798108
C60	C	1.506531	1.131283	1.131441
C61	C	0.949097	0.464611	0.464758
C62	C	1.282430	0.797944	0.798091
C63	C	1.615763	1.131278	1.131424
C64	C	1.393902	0.715222	0.464748
C65	C	1.727235	1.048555	0.798081
C66	C	2.060569	1.381889	1.131414
C67	C	1.393954	0.822436	0.464775
C68	C	1.727287	1.155769	0.798109
C69	C	2.060620	1.489103	1.131442
C70	C	1.393998	0.909506	0.464802
C71	C	1.727331	1.242839	0.798135
C72	C	2.060664	1.576172	1.131468
C73	C	1.394062	1.018738	0.464832
C74	C	1.727395	1.352071	0.798165
C75	C	2.060729	1.685405	1.131498
C76	C	1.645581	0.464621	0.464780
C77	C	1.978914	0.797955	0.798114
C78	C	2.312247	1.131288	1.131447
C79	C	1.752795	0.464627	0.464790
C80	C	2.086128	0.797960	0.798123
C81	C	2.419461	1.131294	1.131457
C82	C	1.394056	0.464522	0.716351
C83	C	1.727389	0.797856	1.049684
C84	C	2.060723	1.131189	1.383017
C85	C	1.394085	0.464486	0.823565
C86	C	1.727419	0.797819	1.156898
C87	C	2.060752	1.131153	1.490231
C88	C	1.394093	1.213015	0.464801
C89	C	1.727426	1.546348	0.798134
C90	C	2.060759	1.879681	1.131468
C91	C	1.394119	1.105801	0.464851
C92	C	1.727452	1.439134	0.798184
C93	C	2.060786	1.772467	1.131518
C94	C	1.393975	0.464623	0.214143
C95	C	1.727308	0.797956	0.547477
C96	C	2.060642	1.131290	0.880810
C97	C	1.394133	0.464388	0.106930
C98	C	1.727466	0.797721	0.440263
C99	C	2.060799	1.131054	0.773597
C100	C	1.394111	0.464421	1.019860
C101	C	1.727445	0.797754	1.353193
C102	C	2.060778	1.131088	1.686527
C103	C	1.394094	0.464460	0.910627
C104	C	1.727427	0.797793	1.243961
C105	C	2.060761	1.131126	1.577294
