data_functionalizedCrystal
_audit_creation_method	'MofGen! by Chris Wilmer'
_symmetry_space_group_name_H-M	'P1'
_symmetry_Int_Tables_number	1
_symmetry_cell_setting	triclinic
loop_
_symmetry_equiv_pos_as_xyz
  x,y,z
_cell_length_a	9.198806
_cell_length_b	8.559649
_cell_length_c	8.597304
_cell_angle_alpha	102.375305
_cell_angle_beta	97.703309
_cell_angle_gamma	89.996679
loop_
_atom_site_label
_atom_site_type_symbol
_atom_site_fract_x
_atom_site_fract_y
_atom_site_fract_z
O1	O	0.114213	-2.119296	-0.053145
O2	O	0.124352	-1.655356	0.027755
O3	O	0.090525	-1.896456	-0.242262
O4	O	0.148039	-1.878197	0.216872
O5	O	-0.151260	-1.896438	-0.242262
O6	O	-0.117433	-1.655338	0.027755
O7	O	-0.127572	-2.119278	-0.053145
Cu8	Cu	-0.144580	-1.887306	-0.012695
Cu9	Cu	0.141359	-1.887328	-0.012695
O10	O	-0.093746	-1.878178	0.216872
C11	C	0.004228	-1.595913	0.033886
C12	C	0.006516	-1.418818	0.052135
N13	N	-0.345694	-1.887303	-0.012697
C14	C	-0.037659	-1.894485	-0.300497
C15	C	-0.059386	-1.888622	-0.474017
C16	C	-0.599529	-1.988784	-0.126319
C17	C	-0.432116	-1.988763	-0.126315
N18	N	0.342472	-1.887344	-0.012707
C19	C	-0.007445	-2.178721	-0.059276
C20	C	-0.009724	-2.355816	-0.077525
C21	C	0.034442	-1.880149	0.275107
C22	C	0.056178	-1.886012	0.448627
H23	H	-0.673810	-2.075653	-0.223587
H24	H	-0.382185	-2.075604	-0.223588
O25	O	-0.030475	-1.463813	-0.243072
H26	H	-0.029094	-1.590628	-0.231911
O27	O	0.209268	-1.888992	-0.463264
H28	H	0.290499	-1.886141	-0.547212
H29	H	-0.395616	-1.800445	0.084572
O30	O	-0.559136	-1.772261	0.116125
H31	H	-0.481245	-1.840655	0.184100
O32	O	0.027244	-1.310813	0.217691
H33	H	0.025836	-1.183997	0.206534
H34	H	-0.174963	-1.886352	-0.540540
