data_functionalizedCrystal
_audit_creation_method	'MofGen! by Chris Wilmer'
_symmetry_space_group_name_H-M	'P1'
_symmetry_Int_Tables_number	1
_symmetry_cell_setting	triclinic
loop_
_symmetry_equiv_pos_as_xyz
  x,y,z
_cell_length_a	10.540539
_cell_length_b	10.723024
_cell_length_c	9.798715
_cell_angle_alpha	90.001978
_cell_angle_beta	90.001636
_cell_angle_gamma	84.496681
loop_
_atom_site_label
_atom_site_type_symbol
_atom_site_fract_x
_atom_site_fract_y
_atom_site_fract_z
O1	O	-1.685796	-0.175862	-0.113423
O2	O	-1.316374	-0.192431	-0.113439
O3	O	-1.509606	-0.002575	-0.113426
O4	O	-1.492564	-0.365719	-0.113437
O5	O	-1.509592	-0.002574	0.113556
O6	O	-1.316360	-0.192431	0.113543
O7	O	-1.685781	-0.175861	0.113559
Zn8	Zn	-1.501068	-0.184146	0.149589
Zn9	Zn	-1.501087	-0.184147	-0.149469
O10	O	-1.492549	-0.365718	0.113546
C11	C	-1.508359	0.043926	0.000064
C12	C	-1.504648	0.182482	0.000059
C13	C	-1.269065	-0.191189	0.000050
C14	C	-1.128118	-0.187471	0.000043
C15	C	-1.733091	-0.177104	0.000067
C16	C	-1.874037	-0.180822	0.000065
C17	C	-0.944765	-0.045013	0.000577
C18	C	-1.091381	-0.048782	0.000052
C19	C	-1.066420	-0.254214	-0.129572
C20	C	-0.919878	-0.249481	-0.129666
C21	C	-0.919371	-0.252302	0.128455
C22	C	-1.066353	-0.253579	0.130154
C23	C	-1.493797	-0.412218	0.000053
C24	C	-1.497507	-0.550775	0.000049
N25	N	-1.501064	-0.184145	0.353689
C26	C	-1.612771	0.257411	0.000062
C27	C	-1.608938	0.400616	0.000057
N28	N	-1.501101	-0.184138	-0.353569
C29	C	-1.582197	-0.104078	0.421472
C30	C	-1.582218	-0.104073	0.578634
H31	H	-1.134016	0.003735	0.092966
H32	H	-1.090526	-0.354693	0.137977
H33	H	-1.708175	0.215541	0.000074
O34	O	-1.674241	-0.013279	0.655841
H35	H	-1.733666	0.045359	0.582263
O36	O	-0.906933	0.027569	0.123707
H37	H	-0.802569	0.034561	0.121618
H38	H	-1.701499	0.465003	0.000065
H39	H	-1.404941	0.384846	0.000056
O40	O	-1.378266	0.237930	0.000065
H41	H	-1.371234	0.296601	-0.092444
O42	O	-1.674158	-0.013237	0.344240
H43	H	-1.659697	-0.027483	0.232917
H44	H	-1.431641	-0.252695	0.588150
O45	O	-1.409077	-0.274966	0.430912
H46	H	-1.346819	-0.221993	0.496038
H47	H	-0.914592	0.009545	-0.091856
H48	H	-0.891699	-0.200152	-0.226552
O49	O	-1.146738	0.021263	-0.123232
H50	H	-1.105484	-0.023651	-0.217383
O51	O	-0.856254	-0.381592	-0.137491
H52	H	-0.930193	-0.448575	-0.141202
H53	H	-1.088721	-0.356064	-0.134397
H54	H	-0.887842	-0.207418	0.226702
O55	O	-1.122847	-0.192794	-0.257351
H56	H	-1.227206	-0.199869	-0.258846
O57	O	-1.120636	-0.188995	0.257172
H58	H	-1.099907	-0.089450	0.256131
O59	O	-0.856737	-0.384989	0.129638
H60	H	-0.793618	-0.400015	0.039280
