data_functionalizedCrystal
_audit_creation_method	'MofGen! by Chris Wilmer'
_symmetry_space_group_name_H-M	'P1'
_symmetry_Int_Tables_number	1
_symmetry_cell_setting	triclinic
loop_
_symmetry_equiv_pos_as_xyz
  x,y,z
_cell_length_a	10.654550
_cell_length_b	15.995350
_cell_length_c	9.130313
_cell_angle_alpha	90.000982
_cell_angle_beta	89.996220
_cell_angle_gamma	83.988639
loop_
_atom_site_label
_atom_site_type_symbol
_atom_site_fract_x
_atom_site_fract_y
_atom_site_fract_z
O1	O	1.666298	0.117599	-0.121912
O2	O	1.300673	0.128803	-0.121888
O3	O	1.493480	0.001371	-0.121899
O4	O	1.473491	0.245030	-0.121900
O5	O	1.493478	0.001375	0.121700
O6	O	1.300671	0.128807	0.121711
O7	O	1.666295	0.117602	0.121687
Cu8	Cu	1.483483	0.123205	0.143942
Cu9	Cu	1.483486	0.123201	-0.144142
O10	O	1.473488	0.245034	0.121698
C11	C	1.253885	0.127982	-0.000085
C12	C	1.114473	0.125521	-0.000076
C13	C	1.034008	0.200551	-0.000098
C14	C	0.903017	0.198233	-0.000123
C15	C	0.932971	0.045849	-0.000111
C16	C	1.063959	0.048168	-0.000075
C17	C	1.084522	0.277904	-0.000099
C18	C	1.004055	0.352940	-0.000122
C19	C	0.873064	0.350622	-0.000147
C20	C	0.822541	0.273268	-0.000149
C21	C	1.492652	-0.029827	-0.000102
C22	C	1.490175	-0.122791	-0.000110
C23	C	1.481278	-0.460591	-0.000105
C24	C	1.343964	-0.413954	-0.000642
C25	C	1.346442	-0.317249	-0.000093
C26	C	1.485691	-0.293004	-0.000108
C27	C	1.553417	-0.333687	0.138991
C28	C	1.549968	-0.430342	0.139108
C29	C	1.552807	-0.430688	-0.137910
C30	C	1.552775	-0.333743	-0.139748
C31	C	1.488192	-0.198292	-0.000106
C32	C	1.478780	-0.555303	-0.000098
C33	C	1.713084	0.118423	-0.000119
C34	C	1.852495	0.120884	-0.000137
C35	C	1.474316	0.276232	-0.000101
C36	C	1.476793	0.369197	-0.000103
N37	N	1.483490	0.123207	0.346564
N38	N	1.483488	0.123192	-0.346765
C39	C	1.568887	0.066800	0.423211
C40	C	1.568883	0.066789	0.576548
C41	C	1.398083	0.179602	0.576578
C42	C	1.398081	0.179607	0.423244
C43	C	1.654296	0.010399	0.346532
C44	C	1.739700	-0.046012	0.423179
C45	C	1.739697	-0.046022	0.576516
C46	C	1.654289	0.010379	0.653206
H47	H	1.045200	0.415918	-0.000108
H48	H	1.809228	-0.091960	0.638920
O49	O	1.822566	-0.100748	0.348463
C50	C	1.804217	-0.088675	0.196690
H51	H	1.757337	-0.022382	0.175744
H52	H	1.741176	-0.136432	0.153215
C53	C	1.990236	-0.181951	0.143648
C54	C	1.932667	-0.100526	0.117921
H55	H	2.069468	-0.189265	0.095057
H56	H	2.002597	-0.190088	0.245900
H57	H	1.937690	-0.221739	0.107419
H58	H	1.985206	-0.060740	0.154166
H59	H	1.920318	-0.092383	0.015672
H60	H	0.715878	0.271387	-0.000147
O61	O	1.278318	-0.436321	-0.119595
C62	C	1.155756	-0.393486	-0.116796
H63	H	1.155827	-0.334140	-0.047671
H64	H	1.087499	-0.436013	-0.067263
C65	C	1.113893	-0.442307	-0.358929
C66	C	1.113984	-0.369413	-0.274038
H67	H	1.088122	-0.427461	-0.455922
H68	H	1.196464	-0.471168	-0.360813
H69	H	1.057014	-0.477739	-0.317634
H70	H	1.170874	-0.333988	-0.315322
H71	H	1.031421	-0.340545	-0.272164
H72	H	1.328548	0.225522	0.639028
O73	O	1.315086	0.234484	0.349006
C74	C	1.239689	0.284254	0.449561
H75	H	1.291171	0.285519	0.558862
H76	H	1.146407	0.256487	0.465870
C77	C	1.150568	0.372869	0.255480
C78	C	1.213803	0.374428	0.389721
H79	H	1.134594	0.428491	0.218567
H80	H	1.201360	0.339336	0.187733
H81	H	1.072839	0.349725	0.269089
H82	H	1.291536	0.397561	0.376107
H83	H	1.163023	0.407967	0.457466
H84	H	1.654285	0.010361	0.778063
O85	O	0.795077	0.423586	-0.000228
C86	C	0.867757	0.492352	-0.000181
H87	H	0.965531	0.471664	-0.046276
H88	H	0.877057	0.516031	0.116685
C89	C	0.682423	0.588835	-0.039118
C90	C	0.802507	0.563428	-0.095744
H91	H	0.642173	0.632680	-0.098060
H92	H	0.633455	0.542507	-0.039144
H93	H	0.690190	0.608562	0.058270
H94	H	0.794738	0.543691	-0.193123
H95	H	0.851472	0.609755	-0.095737
O96	O	1.142083	-0.024736	-0.000324
C97	C	1.119203	-0.071666	-0.126476
H98	H	1.074447	-0.027727	-0.214666
H99	H	1.052510	-0.120524	-0.097973
C100	C	1.299731	-0.170253	-0.075337
C101	C	1.244770	-0.116284	-0.183657
H102	H	1.377184	-0.197779	-0.110607
H103	H	1.315143	-0.138637	0.009657
H104	H	1.244141	-0.210960	-0.051594
H105	H	1.300353	-0.075572	-0.207385
H106	H	1.229369	-0.147894	-0.268658
H107	H	1.191179	0.279800	-0.000085
H108	H	0.891824	-0.017129	-0.000137
H109	H	1.506376	-0.305577	0.242515
O110	O	1.675436	-0.316090	0.145427
C111	C	1.694714	-0.271733	0.275564
H112	H	1.620582	-0.285275	0.359909
H113	H	1.686330	-0.201432	0.251502
C114	C	1.918286	-0.283319	0.232696
C115	C	1.827243	-0.299958	0.336293
H116	H	2.000038	-0.300725	0.270154
H117	H	1.905299	-0.313200	0.145017
H118	H	1.911284	-0.224734	0.212653
H119	H	1.834236	-0.358542	0.356320
H120	H	1.840234	-0.270087	0.423978
O121	O	1.673564	-0.467911	-0.139316
C122	C	1.694323	-0.515900	-0.268231
H123	H	1.623689	-0.490922	-0.355609
H124	H	1.681726	-0.584431	-0.243928
C125	C	1.916184	-0.540164	-0.216529
C126	C	1.829437	-0.509481	-0.323852
H127	H	1.999530	-0.536208	-0.250836
H128	H	1.902199	-0.507835	-0.129673
H129	H	1.905671	-0.597271	-0.196286
H130	H	1.839940	-0.452372	-0.344079
H131	H	1.843427	-0.541800	-0.410713
H132	H	1.289324	-0.433864	0.098560
O133	O	1.282687	-0.284281	0.119129
C134	C	1.364651	-0.242215	0.207391
H135	H	1.445999	-0.223430	0.137811
H136	H	1.403538	-0.285696	0.299328
C137	C	1.191855	-0.185977	0.359062
C138	C	1.291762	-0.162898	0.273600
H139	H	1.146893	-0.137052	0.399910
H140	H	1.136634	-0.214319	0.299603
H141	H	1.224275	-0.222212	0.435665
H142	H	1.259339	-0.126673	0.196989
H143	H	1.346976	-0.134548	0.333049
O144	O	1.491110	-0.452670	0.263109
C145	C	1.487180	-0.540499	0.264806
H146	H	1.565517	-0.571719	0.192078
H147	H	1.391811	-0.556026	0.222019
C148	C	1.409682	-0.534946	0.512030
C149	C	1.505904	-0.573292	0.422713
H150	H	1.421225	-0.555175	0.609434
H151	H	1.412324	-0.475774	0.510886
H152	H	1.330216	-0.547888	0.476357
H153	H	1.585365	-0.560341	0.458376
H154	H	1.503275	-0.632463	0.423867
H155	H	1.293204	-0.289138	-0.099805
O156	O	1.493880	-0.301385	-0.262479
C157	C	1.498971	-0.213682	-0.266028
H158	H	1.581448	-0.196835	-0.196320
H159	H	1.407140	-0.180563	-0.220821
C160	C	1.415871	-0.206067	-0.510756
C161	C	1.517177	-0.185376	-0.425149
H162	H	1.427096	-0.188604	-0.608909
H163	H	1.412436	-0.265154	-0.508364
H164	H	1.339355	-0.178466	-0.473066
H165	H	1.593689	-0.212985	-0.462828
H166	H	1.520626	-0.126292	-0.427551
H167	H	1.654308	0.010404	0.221678
O168	O	1.673912	-0.314670	-0.149534
C169	C	1.700768	-0.263791	-0.029807
H170	H	1.633503	-0.273859	0.064150
H171	H	1.688345	-0.194923	-0.064308
C172	C	1.920364	-0.275281	-0.094737
C173	C	1.837755	-0.287651	0.020666
H174	H	2.004865	-0.289995	-0.063606
H175	H	1.902271	-0.309556	-0.175403
H176	H	1.909996	-0.217890	-0.123478
H177	H	1.848112	-0.345043	0.049392
H178	H	1.855853	-0.253386	0.101339
H179	H	1.650782	-0.462005	0.145409
H180	H	1.507914	-0.451490	-0.243339
