data_functionalizedCrystal
_audit_creation_method	'MofGen! by Chris Wilmer'
_symmetry_space_group_name_H-M	'P1'
_symmetry_Int_Tables_number	1
_symmetry_cell_setting	triclinic
loop_
_symmetry_equiv_pos_as_xyz
  x,y,z
_cell_length_a	12.811438
_cell_length_b	19.188924
_cell_length_c	11.892110
_cell_angle_alpha	93.874216
_cell_angle_beta	91.498492
_cell_angle_gamma	83.596248
loop_
_atom_site_label
_atom_site_type_symbol
_atom_site_fract_x
_atom_site_fract_y
_atom_site_fract_z
O1	O	1.388759	0.096340	0.048380
O2	O	1.888759	0.596340	0.548380
O3	O	1.085359	0.105092	0.017270
O4	O	1.585359	0.605092	0.517270
O5	O	1.245817	-0.000853	0.033736
O6	O	1.745817	0.499147	0.533736
O7	O	1.228300	0.202285	0.031914
O8	O	1.728300	0.702285	0.531914
O9	O	1.232437	0.007968	0.220371
O10	O	1.732437	0.507968	0.720371
O11	O	1.071978	0.113913	0.203904
O12	O	1.571978	0.613913	0.703904
O13	O	1.375378	0.105161	0.235014
O14	O	1.875378	0.605161	0.735014
Zn15	Zn	1.221554	0.110937	0.249092
Zn16	Zn	1.721554	0.610937	0.749092
Zn17	Zn	1.239183	0.099316	0.003193
Zn18	Zn	1.739183	0.599316	0.503193
O19	O	1.214920	0.211106	0.218548
O20	O	1.714920	0.711106	0.718548
C21	C	1.039852	0.108741	0.106607
C22	C	1.539852	0.608741	0.606607
C23	C	0.924193	0.106463	0.094748
C24	C	1.424193	0.606463	0.594748
C25	C	0.768466	0.098446	-0.023689
C26	C	1.268466	0.598446	0.476311
C27	C	0.877139	0.100585	-0.012555
C28	C	1.377139	0.600585	0.487445
C29	C	0.862566	0.110201	0.190925
C30	C	1.362566	0.610201	0.690925
C31	C	0.753893	0.108062	0.179792
C32	C	1.253893	0.608062	0.679792
C33	C	0.706847	0.102185	0.072482
C34	C	1.206847	0.602185	0.572482
C35	C	0.598171	0.100051	0.061349
C36	C	1.098171	0.600051	0.561349
C37	C	0.583601	0.109663	0.264829
C38	C	1.083601	0.609663	0.764829
C39	C	0.692274	0.111802	0.275962
C40	C	1.192274	0.611802	0.775962
C41	C	1.238561	-0.022459	0.126996
C42	C	1.738561	0.477541	0.626996
C43	C	1.236861	-0.099981	0.126825
C44	C	1.736861	0.400019	0.626825
C45	C	1.243361	-0.141196	0.025009
C46	C	1.743361	0.358804	0.525009
C47	C	1.241750	-0.214034	0.024835
C48	C	1.741750	0.285966	0.524835
C49	C	1.233660	-0.245657	0.126486
C50	C	1.733660	0.254343	0.626486
C51	C	1.227152	-0.204432	0.228314
C52	C	1.727152	0.295568	0.728314
C53	C	1.228753	-0.131594	0.228484
C54	C	1.728753	0.368406	0.728484
N55	N	1.285010	-0.361184	0.208024
N56	N	1.785010	0.138816	0.708024
N57	N	1.283492	-0.430377	0.207856
N58	N	1.783492	0.069623	0.707856
C59	C	1.228834	-0.465114	0.125980
C60	C	1.728834	0.034886	0.625980
N61	N	1.175766	-0.428045	0.044262
N62	N	1.675766	0.071955	0.544262
N63	N	1.177289	-0.358845	0.044427
N64	N	1.677289	0.141155	0.544427
C65	C	1.231923	-0.324637	0.126313
C66	C	1.731923	0.175363	0.626313
C67	C	1.233587	-0.585310	0.023968
C68	C	1.733587	-0.085310	0.523968
C69	C	1.231969	-0.658149	0.023798
C70	C	1.731969	-0.158149	0.523798
C71	C	1.217382	-0.648546	0.227281
C72	C	1.717382	-0.148546	0.727281
C73	C	1.218989	-0.575708	0.227447
C74	C	1.718989	-0.075708	0.727447
C75	C	1.227097	-0.544094	0.125788
C76	C	1.727097	-0.044094	0.625788
C77	C	1.420885	0.101512	0.145675
C78	C	1.920885	0.601512	0.645675
C79	C	1.536544	0.103789	0.157527
C80	C	2.036544	0.603789	0.657527
C81	C	1.222177	0.232712	0.125285
C82	C	1.722177	0.732712	0.625285
C83	C	1.223877	0.310233	0.125449
C84	C	1.723877	0.810233	0.625449
N85	N	1.209530	0.118869	0.416912
N86	N	1.709530	0.618869	0.916912
C87	C	1.334865	0.036161	0.666422
C88	C	1.834865	0.536161	1.166422
C89	C	1.326468	0.041710	0.783902
C90	C	1.826468	0.541710	1.283902
C91	C	1.184335	0.135512	0.769354
C92	C	1.684335	0.635512	1.269354
C93	C	1.192732	0.129963	0.651874
C94	C	1.692732	0.629963	1.151874
C95	C	1.268000	0.080287	0.600412
C96	C	1.768000	0.580287	1.100412
C97	C	1.276402	0.074741	0.482930
C98	C	1.776402	0.574741	0.982930
C99	C	1.134264	0.168539	0.468384
C100	C	1.634264	0.668539	0.968384
C101	C	1.125868	0.174088	0.585864
C102	C	1.625868	0.674088	1.085864
N103	N	1.251207	0.091384	0.835372
N104	N	1.751207	0.591384	1.335372
H105	H	0.900892	0.114978	0.278292
H106	H	1.400892	0.614978	0.778292
F107	F	0.518013	0.113648	0.367187
F108	F	1.018013	0.613648	0.867187
H109	H	1.240183	-0.559568	-0.058809
H110	H	1.740183	-0.059568	0.441191
F111	F	1.208765	-0.682196	0.335465
F112	F	1.708765	-0.182196	0.835465
H113	H	0.559868	0.095269	-0.026028
H114	H	1.059868	0.595269	0.473972
H115	H	1.213704	-0.542150	0.310358
H116	H	1.713704	-0.042150	0.810358
F117	F	1.251985	-0.107554	-0.083186
F118	F	1.751985	0.392446	0.416814
F119	F	1.045762	0.226953	0.640643
F120	F	1.545762	0.726953	1.140643
H121	H	0.927306	0.097539	-0.090867
H122	H	1.427306	0.597539	0.409133
H123	H	0.730595	0.116584	0.363331
H124	H	1.230595	0.616584	0.863331
H125	H	1.337691	0.034295	0.441032
H126	H	1.837691	0.534295	0.941032
H127	H	1.396158	-0.004282	0.624522
H128	H	1.896158	0.495718	1.124522
F129	F	0.718392	0.092200	-0.137894
F130	F	1.218392	0.592200	0.362106
F131	F	1.397632	-0.005256	0.854150
F132	F	1.897632	0.494744	1.354150
H133	H	1.079822	0.204471	0.414626
H134	H	1.579822	0.704471	0.914626
F135	F	1.104224	0.188371	0.824135
F136	F	1.604224	0.688371	1.324135
H137	H	1.247038	-0.247598	-0.058079
H138	H	1.747038	0.252402	0.441921
F139	F	1.218535	-0.238088	0.336497
F140	F	1.718535	0.261912	0.836497
F141	F	1.221832	-0.087728	0.336855
F142	F	1.721832	0.412272	0.836855
H143	H	1.237258	-0.691706	-0.059117
H144	H	1.737258	-0.191706	0.440883
