data_functionalizedCrystal
_audit_creation_method	'MofGen! by Chris Wilmer'
_symmetry_space_group_name_H-M	'P1'
_symmetry_Int_Tables_number	1
_symmetry_cell_setting	triclinic
loop_
_symmetry_equiv_pos_as_xyz
  x,y,z
_cell_length_a	10.654550
_cell_length_b	13.339070
_cell_length_c	9.130313
_cell_angle_alpha	90.000326
_cell_angle_beta	89.996220
_cell_angle_gamma	100.057099
loop_
_atom_site_label
_atom_site_type_symbol
_atom_site_fract_x
_atom_site_fract_y
_atom_site_fract_z
O1	O	1.715926	0.142430	-0.121918
O2	O	1.355030	0.156000	-0.121894
O3	O	1.494059	0.001661	-0.121899
O4	O	1.576897	0.296769	-0.121913
O5	O	1.494058	0.001665	0.121700
O6	O	1.355029	0.156004	0.121705
O7	O	1.715925	0.142434	0.121681
Cu8	Cu	1.535477	0.149219	0.143935
Cu9	Cu	1.535478	0.149215	-0.144149
O10	O	1.576896	0.296773	0.121686
C11	C	1.307895	0.155006	-0.000092
C12	C	1.167445	0.152025	-0.000083
C13	C	1.118643	0.242897	-0.000108
C14	C	0.986674	0.240090	-0.000134
C15	C	0.952320	0.055530	-0.000113
C16	C	1.084286	0.058338	-0.000078
C17	C	1.138476	0.349452	-0.000126
C18	C	1.006507	0.346644	-0.000152
C19	C	1.480065	-0.036124	-0.000101
C20	C	1.438355	-0.148719	-0.000104
C21	C	1.762670	-0.511236	-0.000124
C22	C	1.801862	-0.405449	-0.000113
C23	C	1.710989	-0.341261	-0.000111
C24	C	1.580916	-0.382872	-0.000120
C25	C	1.541720	-0.488670	-0.000119
C26	C	1.490039	-0.318694	-0.000106
C27	C	1.359966	-0.360305	-0.000115
C28	C	1.320776	-0.466093	-0.000116
C29	C	1.411650	-0.530280	-0.000117
C30	C	1.529235	-0.212896	-0.000107
C31	C	1.308285	-0.190329	-0.000102
C32	C	1.269093	-0.296117	-0.000113
C33	C	1.763060	0.143428	-0.000125
C34	C	1.903510	0.146409	-0.000144
C35	C	1.590890	0.334559	-0.000116
C36	C	1.632600	0.447153	-0.000122
N37	N	1.535485	0.149222	0.346558
N38	N	1.535477	0.149204	-0.346771
C39	C	1.597077	0.080904	0.423208
C40	C	1.597069	0.080892	0.576545
C41	C	1.473877	0.217525	0.576568
C42	C	1.473878	0.217531	0.423234
C43	C	1.668206	0.002023	0.423195
C44	C	1.668198	0.002011	0.576532
H45	H	0.978331	0.386791	-0.102107
H46	H	1.379745	-0.616422	-0.000132
N47	N	1.210253	-0.121118	-0.000110
H48	H	1.155134	-0.134595	0.090196
H49	H	1.254907	-0.047812	-0.000170
H50	H	1.770577	0.019386	0.618141
H51	H	1.185588	0.383378	-0.105300
N52	N	1.407420	0.291206	0.340574
H53	H	1.446978	0.363293	0.367262
H54	H	1.416772	0.280761	0.231827
H55	H	1.635141	-0.179028	-0.000099
H56	H	1.742907	-0.255125	-0.000102
N57	N	1.860679	-0.580457	-0.000130
H58	H	1.915791	-0.566979	0.090173
H59	H	1.816021	-0.653761	-0.000183
H60	H	1.181878	0.391127	0.101823
H61	H	1.907767	-0.371577	-0.000104
H62	H	0.971709	0.378848	0.105015
N63	N	1.136926	-0.039673	-0.000012
H64	H	1.064219	-0.099446	-0.000013
H65	H	1.190958	-0.042545	-0.090296
H66	H	0.884597	-0.020747	-0.000132
H67	H	1.612814	-0.071647	0.624085
H68	H	1.767729	0.026722	0.375630
H69	H	1.214863	-0.499968	-0.000111
N70	N	1.128804	-0.341001	-0.000121
H71	H	1.117770	-0.417758	-0.000122
H72	H	1.087406	-0.317586	0.090185
N73	N	1.407428	0.291195	0.659269
H74	H	1.416768	0.280824	0.768037
H75	H	1.447030	0.363250	0.632477
N76	N	1.604947	-0.101219	0.368054
H77	H	1.576708	-0.147296	0.454045
H78	H	1.528397	-0.093558	0.306565
