data_functionalizedCrystal
_audit_creation_method	'MofGen! by Chris Wilmer'
_symmetry_space_group_name_H-M	'P1'
_symmetry_Int_Tables_number	1
_symmetry_cell_setting	triclinic
loop_
_symmetry_equiv_pos_as_xyz
  x,y,z
_cell_length_a	12.759401
_cell_length_b	12.759399
_cell_length_c	12.759393
_cell_angle_alpha	90.028363
_cell_angle_beta	89.980387
_cell_angle_gamma	89.984238
loop_
_atom_site_label
_atom_site_type_symbol
_atom_site_fract_x
_atom_site_fract_y
_atom_site_fract_z
Zn1	Zn	1.606249	0.418198	-0.594036
Zn2	Zn	1.606141	0.593917	-0.418366
Zn3	Zn	1.430551	0.418253	-0.418372
Zn4	Zn	1.430537	0.593836	-0.594004
O5	O	1.518370	0.506051	-0.506195
O6	O	1.753256	0.441518	-0.570744
O7	O	1.582809	0.570671	-0.271346
O8	O	1.453909	0.271225	-0.441690
O9	O	1.753176	0.570618	-0.441680
O10	O	1.582994	0.271184	-0.570750
O11	O	1.453804	0.441612	-0.271350
O12	O	1.283528	0.441534	-0.441659
O13	O	1.453885	0.570480	-0.741029
O14	O	1.283518	0.570534	-0.570695
O15	O	1.582980	0.441440	-0.741053
O16	O	1.582796	0.740927	-0.441649
O17	O	1.453781	0.740868	-0.570689
C18	C	1.245402	0.506032	-0.506175
C19	C	1.128626	0.506049	-0.506191
C20	C	1.518303	0.779018	-0.506188
C21	C	1.518371	0.895795	-0.506220
C22	C	1.073726	0.573164	-0.438896
C23	C	0.964002	0.573182	-0.438914
C24	C	0.964087	0.438962	-0.573526
C25	C	1.073809	0.438950	-0.573512
C26	C	1.128543	0.640263	-0.371575
C27	C	1.073643	0.707382	-0.304273
C28	C	0.963919	0.707400	-0.304292
C29	C	0.909094	0.640299	-0.371612
C30	C	1.585623	0.950653	-0.439106
C31	C	1.585686	1.060377	-0.439145
C32	C	1.451236	1.060375	-0.573414
C33	C	1.451179	0.950653	-0.573380
C34	C	1.652815	0.895795	-0.371946
C35	C	1.720072	0.950653	-0.304826
C36	C	1.720135	1.060377	-0.304864
C37	C	1.652941	1.115243	-0.372023
C38	C	1.792403	0.506071	-0.506215
C39	C	1.909180	0.506079	-0.506223
C40	C	1.518443	0.505945	-0.780228
C41	C	1.518475	0.505900	-0.897005
C42	C	1.518461	1.232018	-0.506238
C43	C	1.518491	1.115241	-0.506293
C44	C	1.585704	0.438702	-0.951881
C45	C	1.585729	0.438664	-1.061605
C46	C	1.451293	0.573031	-1.061567
C47	C	1.451263	0.573063	-0.951845
C48	C	1.652915	0.371539	-0.897040
C49	C	1.720150	0.304337	-0.951916
C50	C	1.720175	0.304299	-1.061640
C51	C	1.652965	0.371463	-1.116489
C52	C	1.518357	0.506081	-0.233227
C53	C	1.518529	0.505830	-0.116451
H54	H	1.217885	0.640254	-0.371551
H55	H	1.652769	0.806452	-0.371904
H56	H	1.774864	0.249647	-0.907252
H57	H	1.118288	0.762021	-0.249471
H58	H	1.774785	0.905975	-0.250153
H59	H	1.774906	1.105039	-0.250219
H60	H	0.919222	0.762059	-0.249499
Cl61	Cl	0.771154	0.640329	-0.371636
H62	H	1.774914	0.249572	-1.106318
Cl63	Cl	1.366811	0.657464	-1.130520
H64	H	1.396529	1.105056	-0.628091
Cl65	Cl	1.366634	0.881684	-0.657756
H66	H	0.919441	0.384330	-0.628334
H67	H	1.396503	0.627765	-0.907164
Cl68	Cl	1.652589	1.253182	-0.371634
H69	H	1.118510	0.384297	-0.628308
Cl70	Cl	1.652892	0.371586	-0.759102
H71	H	1.652979	0.371415	-1.205833
