data_functionalizedCrystal
_audit_creation_method	'MofGen! by Chris Wilmer'
_symmetry_space_group_name_H-M	'P1'
_symmetry_Int_Tables_number	1
_symmetry_cell_setting	triclinic
loop_
_symmetry_equiv_pos_as_xyz
  x,y,z
_cell_length_a	19.077105
_cell_length_b	16.959454
_cell_length_c	19.076919
_cell_angle_alpha	87.724511
_cell_angle_beta	89.923776
_cell_angle_gamma	87.716588
loop_
_atom_site_label
_atom_site_type_symbol
_atom_site_fract_x
_atom_site_fract_y
_atom_site_fract_z
Zn1	Zn	1.058295	-0.382399	0.440440
Zn2	Zn	1.062944	-0.509490	0.322940
Zn3	Zn	0.945513	-0.371810	0.318233
Zn4	Zn	0.940765	-0.509013	0.435693
O5	O	1.001879	-0.443178	0.379326
O6	O	1.157244	-0.403889	0.428810
O7	O	1.051298	-0.486995	0.223984
O8	O	0.960515	-0.262606	0.334460
O9	O	1.160659	-0.497262	0.342484
O10	O	1.043376	-0.270386	0.424245
O11	O	0.965022	-0.385842	0.220526
O12	O	0.846551	-0.385379	0.329857
O13	O	0.952424	-0.496450	0.534654
O14	O	0.843063	-0.486182	0.416155
O15	O	1.038773	-0.403426	0.538142
O16	O	1.046695	-0.620035	0.337881
O17	O	0.956931	-0.619685	0.420720
C18	C	0.819311	-0.434581	0.371980
C19	C	0.741206	-0.430922	0.368854
C20	C	0.702718	-0.481759	0.412246
C21	C	0.629330	-0.478312	0.409312
C22	C	0.594433	-0.424030	0.362983
C23	C	0.632926	-0.373188	0.319590
C24	C	0.706312	-0.376632	0.322528
C25	C	0.375144	-0.408090	0.349389
C26	C	0.301753	-0.404651	0.346453
C27	C	0.298162	-0.509774	0.436177
C28	C	0.371550	-0.513217	0.439107
C29	C	0.410037	-0.462372	0.395717
N30	N	0.519419	-0.420507	0.359981
N31	N	0.485049	-0.465892	0.398723
C32	C	1.001821	-0.648541	0.379312
C33	C	1.001859	-0.736400	0.379332
C34	C	0.955205	-1.107727	0.422458
C35	C	1.048747	-1.108038	0.336274
C36	C	1.048723	-1.025491	0.336266
C37	C	1.001938	-0.984058	0.379355
C38	C	0.955178	-1.025172	0.422451
C39	C	1.095477	-0.984370	0.293166
C40	C	1.095454	-0.901818	0.293156
C41	C	1.048672	-0.860383	0.336249
C42	C	1.001911	-0.901503	0.379347
C43	C	0.955126	-0.860069	0.422436
C44	C	0.908367	-0.901187	0.465538
C45	C	0.908396	-0.983737	0.465543
C46	C	1.048644	-0.777834	0.336244
C47	C	0.955099	-0.777514	0.422428
C48	C	1.185161	-0.451810	0.386702
C49	C	1.263265	-0.455488	0.389844
C50	C	0.994550	-0.451066	0.562607
C51	C	0.991427	-0.454427	0.640710
C52	C	1.001956	-0.237015	0.379357
C53	C	1.001989	-0.149160	0.379370
C54	C	1.009220	-0.435266	0.196760
C55	C	1.012479	-0.431688	0.118663
C56	C	1.034915	-0.407577	0.679220
C57	C	1.031972	-0.410731	0.752606
C58	C	0.985544	-0.460742	0.787481
C59	C	0.942052	-0.507595	0.748966
C60	C	0.944992	-0.504435	0.675581
C61	C	0.971927	-0.475381	1.006763
C62	C	0.968992	-0.478539	1.080153
C63	C	1.058911	-0.381674	1.083788
C64	C	1.061850	-0.378523	1.010402
C65	C	1.018355	-0.425372	0.971893
N66	N	0.982536	-0.463970	0.862493
N67	N	1.021360	-0.422140	0.896882
H68	H	0.737648	-0.335231	0.287197
H69	H	0.936521	-0.513541	0.975418
H70	H	0.870272	-0.867443	0.500618
Cl71	Cl	0.896284	-0.725434	0.476604
H72	H	0.597996	-0.519710	0.444645
H73	H	1.086833	-1.141778	0.301189
H74	H	1.067386	-0.372582	0.783958
H75	H	1.133528	-0.868345	0.258061
Cl76	Cl	1.107414	-0.726145	0.282055
H77	H	0.870326	-1.017223	0.500634
H78	H	0.731126	-0.525964	0.449970
Cl79	Cl	0.896428	-1.159415	0.476645
H80	H	1.133562	-1.018111	0.258080
Cl81	Cl	1.120219	-0.315650	0.966565
Cl82	Cl	0.890317	-0.563333	0.627168
Cl83	Cl	0.415416	-0.581461	0.497350
Cl84	Cl	1.093288	-0.344707	0.635385
Cl85	Cl	0.257883	-0.336412	0.288201
H86	H	0.904247	-0.548311	0.777367
H87	H	0.266818	-0.551169	0.471504
Cl88	Cl	1.113584	-0.322779	1.132203
Cl89	Cl	0.910617	-0.541410	1.123995
H90	H	0.406472	-0.366694	0.314052
H91	H	0.604506	-0.328988	0.281870
