data_functionalizedCrystal
_audit_creation_method	'MofGen! by Chris Wilmer'
_symmetry_space_group_name_H-M	'P1'
_symmetry_Int_Tables_number	1
_symmetry_cell_setting	triclinic
loop_
_symmetry_equiv_pos_as_xyz
  x,y,z
_cell_length_a	17.699083
_cell_length_b	9.065218
_cell_length_c	8.140239
_cell_angle_alpha	90.002802
_cell_angle_beta	89.995596
_cell_angle_gamma	95.850550
loop_
_atom_site_label
_atom_site_type_symbol
_atom_site_fract_x
_atom_site_fract_y
_atom_site_fract_z
O1	O	0.110973	-1.957109	-0.136622
O2	O	0.120075	-1.527555	-0.136624
O3	O	0.005429	-1.754468	-0.136608
O4	O	0.225619	-1.730196	-0.136637
O5	O	0.005428	-1.754455	0.136619
O6	O	0.120074	-1.527542	0.136603
O7	O	0.110971	-1.957097	0.136605
Zn8	Zn	0.115522	-1.742317	0.179985
Zn9	Zn	0.115524	-1.742334	-0.180004
O10	O	0.225617	-1.730183	0.136590
C11	C	0.119200	-1.472588	-0.000011
C12	C	0.116584	-1.308822	-0.000011
C13	C	-0.022775	-1.753592	0.000005
C14	C	-0.106813	-1.750983	0.000006
C15	C	0.111847	-2.012064	-0.000012
C16	C	0.114463	-2.175829	-0.000022
C17	C	-0.154396	-1.884176	0.000009
C18	C	-0.233358	-1.881716	-0.000005
C19	C	-0.264737	-1.746060	-0.000011
C20	C	-0.217149	-1.612857	-0.000019
C21	C	-0.138188	-1.615319	-0.000017
C22	C	-0.535589	-1.602925	-0.000033
C23	C	-0.614556	-1.600474	-0.000031
C24	C	-0.630760	-1.869322	-0.000022
C25	C	-0.551799	-1.871784	-0.000019
C26	C	-0.504217	-1.738581	-0.000036
C27	C	-0.418597	-1.741251	-0.000023
C28	C	-0.350355	-1.743390	-0.000012
C29	C	0.253822	-1.731059	-0.000028
C30	C	0.337860	-1.733669	-0.000039
N31	N	0.115521	-1.742317	0.425667
N32	N	0.115520	-1.742346	-0.425686
H33	H	-0.128854	-1.994642	0.000024
H34	H	-0.496857	-1.494463	-0.000046
H35	H	-0.272097	-1.990175	0.000001
H36	H	-0.669510	-1.977782	-0.000016
O37	O	-0.521443	-2.003689	-0.000087
C38	C	-0.580374	-2.120725	-0.000049
H39	H	-0.634283	-2.079565	-0.051776
H40	H	-0.563224	-2.215454	-0.079376
H41	H	-0.591267	-2.161794	0.131031
O42	O	-0.247502	-1.480951	-0.000104
C43	C	-0.188570	-1.363918	-0.000069
H44	H	-0.134658	-1.405087	-0.051794
H45	H	-0.205713	-1.269196	-0.079400
H46	H	-0.177685	-1.322836	0.131009
O47	O	-0.645127	-1.468782	-0.000270
C48	C	-0.690299	-1.459328	-0.141798
H49	H	-0.709159	-1.575683	-0.188957
H50	H	-0.742398	-1.400707	-0.109979
H51	H	-0.655869	-1.393950	-0.240897
H52	H	-0.099446	-1.506859	-0.000019
