data_functionalizedCrystal
_audit_creation_method	'MofGen! by Chris Wilmer'
_symmetry_space_group_name_H-M	'P1'
_symmetry_Int_Tables_number	1
_symmetry_cell_setting	triclinic
loop_
_symmetry_equiv_pos_as_xyz
  x,y,z
_cell_length_a	13.897449
_cell_length_b	13.897447
_cell_length_c	21.395355
_cell_angle_alpha	90.014356
_cell_angle_beta	90.023390
_cell_angle_gamma	90.020810
loop_
_atom_site_label
_atom_site_type_symbol
_atom_site_fract_x
_atom_site_fract_y
_atom_site_fract_z
Zn1	Zn	1.474716	-0.384094	0.354260
Zn2	Zn	1.808049	-0.050760	0.687593
Zn3	Zn	2.141382	0.282573	1.020927
Zn4	Zn	1.474597	-0.545373	0.249490
Zn5	Zn	1.807930	-0.212040	0.582824
Zn6	Zn	2.141264	0.121293	0.916157
Zn7	Zn	1.313397	-0.384097	0.249499
Zn8	Zn	1.646731	-0.050764	0.582832
Zn9	Zn	1.980064	0.282569	0.916166
Zn10	Zn	1.313381	-0.545352	0.354233
Zn11	Zn	1.646715	-0.212019	0.687566
Zn12	Zn	1.980048	0.121315	1.020899
O13	O	1.394023	-0.464729	0.301870
O14	O	1.727356	-0.131396	0.635204
O15	O	2.060689	0.201938	0.968537
O16	O	1.609681	-0.405495	0.340370
O17	O	1.943015	-0.072162	0.673703
O18	O	2.276348	0.261172	1.007037
O19	O	1.453170	-0.523990	0.161813
O20	O	1.786504	-0.190657	0.495147
O21	O	2.119837	0.142677	0.828480
O22	O	1.334853	-0.249115	0.263411
O23	O	1.668186	0.084218	0.596744
O24	O	2.001519	0.417551	0.930078
O25	O	1.609594	-0.523986	0.263396
O26	O	1.942928	-0.190653	0.596729
O27	O	2.276261	0.142680	0.930063
O28	O	1.453373	-0.249113	0.340378
O29	O	1.786706	0.084221	0.673712
O30	O	2.120039	0.417554	1.007045
O31	O	1.334738	-0.405502	0.161820
O32	O	1.668071	-0.072168	0.495153
O33	O	2.001404	0.261165	0.828487
O34	O	1.178413	-0.405481	0.263384
O35	O	1.511747	-0.072148	0.596718
O36	O	1.845080	0.261186	0.930051
O37	O	1.334826	-0.523950	0.441914
O38	O	1.668159	-0.190617	0.775247
O39	O	2.001492	0.142716	1.108581
O40	O	1.178402	-0.523954	0.340332
O41	O	1.511735	-0.190621	0.673665
O42	O	1.845068	0.142713	1.006998
O43	O	1.453357	-0.405474	0.441934
O44	O	1.786690	-0.072141	0.775268
O45	O	2.120024	0.261192	1.108601
O46	O	1.453155	-0.680352	0.263369
O47	O	1.786488	-0.347019	0.596703
O48	O	2.119822	-0.013685	0.930036
O49	O	1.334710	-0.680336	0.340323
O50	O	1.668044	-0.347003	0.673656
O51	O	2.001377	-0.013670	1.006990
C52	C	1.143408	-0.464716	0.301856
C53	C	1.476742	-0.131383	0.635190
C54	C	1.810075	0.201950	0.968523
C55	C	1.036194	-0.464734	0.301865
C56	C	1.369528	-0.131401	0.635198
C57	C	1.702861	0.201933	0.968532
C58	C	1.393944	-0.715343	0.301856
C59	C	1.727278	-0.382010	0.635189
C60	C	2.060611	-0.048677	0.968523
C61	C	1.393999	-0.822557	0.301871
C62	C	1.727332	-0.489224	0.635204
C63	C	2.060666	-0.155891	0.968537
C64	C	0.839899	-0.464737	0.301881
C65	C	1.173233	-0.131404	0.635215
C66	C	1.506566	0.201929	0.968548
C67	C	0.949132	-0.464733	0.301870
C68	C	1.282465	-0.131399	0.635204
C69	C	1.615799	0.201934	0.968537
C70	C	1.394046	-0.909627	0.301885
C71	C	1.727379	-0.576294	0.635218
C72	C	2.060712	-0.242960	0.968552
C73	C	1.394113	-1.018860	0.301901
C74	C	1.727447	-0.685526	0.635234
C75	C	2.060780	-0.352193	0.968568
C76	C	1.645616	-0.464743	0.301885
C77	C	1.978949	-0.131409	0.635219
C78	C	2.312282	0.201924	0.968552
C79	C	1.752830	-0.464749	0.301891
C80	C	2.086163	-0.131415	0.635225
C81	C	2.419496	0.201918	0.968558
C82	C	1.394103	-0.464710	0.465294
C83	C	1.727436	-0.131376	0.798627
C84	C	2.060769	0.201957	1.131960
C85	C	1.394137	-0.464701	0.534935
C86	C	1.727470	-0.131368	0.868268
C87	C	2.060804	0.201965	1.201602
C88	C	1.394128	-0.213136	0.301899
C89	C	1.727461	0.120197	0.635232
C90	C	2.060794	0.453531	0.968565
C91	C	1.394172	-0.105922	0.301911
C92	C	1.727506	0.227411	0.635244
C93	C	2.060839	0.560744	0.968577
C94	C	1.393998	-0.464679	0.139083
C95	C	1.727332	-0.131346	0.472416
C96	C	2.060665	0.201988	0.805750
C97	C	1.394151	-0.464416	0.069442
C98	C	1.727485	-0.131082	0.402775
C99	C	2.060818	0.202251	0.736109
C100	C	1.455854	-0.403008	0.567660
C101	C	1.789187	-0.069675	0.900993
C102	C	2.122520	0.263658	1.234326
C103	C	1.455852	-0.402967	0.633095
C104	C	1.789186	-0.069634	0.966429
C105	C	2.122519	0.263700	1.299762
C106	C	1.394144	-0.464636	0.665803
C107	C	1.727478	-0.131302	0.999137
C108	C	2.060811	0.202031	1.332470
C109	C	1.332416	-0.526333	0.633071
C110	C	1.665749	-0.192999	0.966404
C111	C	1.999082	0.140334	1.299738
C112	C	1.332412	-0.526366	0.567637
C113	C	1.665745	-0.193032	0.900970
C114	C	1.999079	0.140301	1.234303
C115	C	1.386501	-0.551488	0.769473
C116	C	1.719834	-0.218155	1.102807
C117	C	2.053167	0.115179	1.436140
C118	C	1.386511	-0.551457	0.834906
C119	C	1.719845	-0.218123	1.168240
C120	C	2.053178	0.115210	1.501573
C121	C	1.394150	-0.464534	0.867624
C122	C	1.727484	-0.131200	1.200958
C123	C	2.060817	0.202133	1.534291
C124	C	1.401799	-0.377639	0.834901
C125	C	1.735132	-0.044306	1.168235
C126	C	2.068466	0.289028	1.501568
C127	C	1.401795	-0.377672	0.769467
C128	C	1.735129	-0.044339	1.102801
C129	C	2.068462	0.288995	1.436134
C130	C	1.394141	-0.464606	0.736756
C131	C	1.727475	-0.131273	1.070089
C132	C	2.060808	0.202060	1.403423
C133	C	1.455869	-0.402790	0.971302
C134	C	1.789202	-0.069457	1.304635
C135	C	2.122536	0.263876	1.637968
C136	C	1.455861	-0.402747	1.036738
C137	C	1.789194	-0.069414	1.370072
C138	C	2.122528	0.263919	1.703405
C139	C	1.332429	-0.526122	1.036713
C140	C	1.665763	-0.192789	1.370046
C141	C	1.999096	0.140545	1.703379
C142	C	1.332432	-0.526156	0.971277
C143	C	1.665766	-0.192823	1.304611
C144	C	1.999099	0.140510	1.637944
C145	C	1.394157	-0.464492	0.938576
C146	C	1.727491	-0.131159	1.271909
C147	C	2.060824	0.202175	1.605242
H148	H	1.506114	-0.352795	0.541038
H149	H	1.839447	-0.019462	0.874371
H150	H	2.172781	0.313872	1.207705
H151	H	1.282182	-0.576399	0.944633
H152	H	1.615515	-0.243066	1.277966
H153	H	1.948848	0.090267	1.611299
Br154	Br	1.539593	-0.319211	0.677517
Br155	Br	1.872926	0.014122	1.010851
Br156	Br	2.206259	0.347456	1.344184
Br157	Br	1.248662	-0.610020	0.677459
Br158	Br	1.581995	-0.276687	1.010792
Br159	Br	1.915328	0.056647	1.344125
H160	H	1.282176	-0.576324	1.063343
H161	H	1.615509	-0.242991	1.396676
H162	H	1.948842	0.090343	1.730010
H163	H	1.506117	-0.352504	1.063382
H164	H	1.839450	-0.019171	1.396715
H165	H	2.172783	0.314163	1.730048
Br166	Br	1.412170	-0.259750	0.725059
Br167	Br	1.745504	0.073583	1.058392
Br168	Br	2.078837	0.406917	1.391726
H169	H	1.380289	-0.622212	0.861544
H170	H	1.713622	-0.288878	1.194878
H171	H	2.046956	0.044455	1.528211
Br172	Br	1.248645	-0.610097	0.523221
Br173	Br	1.581979	-0.276764	0.856555
Br174	Br	1.915312	0.056570	1.189888
Br175	Br	1.412175	-0.259663	0.879296
Br176	Br	1.745509	0.073670	1.212629
Br177	Br	2.078842	0.407003	1.545962
Br178	Br	1.539633	-0.319102	0.926917
Br179	Br	1.872966	0.014231	1.260250
Br180	Br	2.206300	0.347564	1.593584
H181	H	1.380022	-0.622253	0.742840
H182	H	1.713355	-0.288920	1.076173
H183	H	2.046689	0.044413	1.409506
