data_functionalizedCrystal
_audit_creation_method	'MofGen! by Chris Wilmer'
_symmetry_space_group_name_H-M	'P1'
_symmetry_Int_Tables_number	1
_symmetry_cell_setting	triclinic
loop_
_symmetry_equiv_pos_as_xyz
  x,y,z
_cell_length_a	18.760487
_cell_length_b	20.875641
_cell_length_c	20.875625
_cell_angle_alpha	59.251205
_cell_angle_beta	93.006589
_cell_angle_gamma	62.461161
loop_
_atom_site_label
_atom_site_type_symbol
_atom_site_fract_x
_atom_site_fract_y
_atom_site_fract_z
Zr1	Zr	0.708999	0.702111	-0.109545
O2	O	0.594445	0.835932	-0.216941
O3	O	0.740528	0.568291	-0.073220
O4	O	0.737982	0.702112	-0.211952
O5	O	0.603080	0.702108	0.027355
O6	O	0.855289	0.702112	-0.211887
O7	O	0.596990	0.702110	-0.078209
O8	O	0.859842	0.462730	0.036279
O9	O	0.598527	0.941490	-0.220812
O10	O	0.845854	0.623332	-0.061790
O11	O	0.762855	0.623331	0.016943
O12	O	0.759857	0.780888	-0.146397
O13	O	0.676858	0.780887	-0.067664
Zr14	Zr	0.905803	0.702107	0.058921
Zr15	Zr	0.896090	0.702110	-0.109442
Zr16	Zr	0.718712	0.702108	0.058817
Zr17	Zr	0.715509	0.870465	-0.115718
Zr18	Zr	0.899292	0.533753	0.065094
O19	O	0.874274	0.835927	0.022595
O20	O	0.860463	0.835931	-0.216794
O21	O	0.608255	0.835927	0.022448
O22	O	1.020357	0.568286	0.166317
O23	O	1.006546	0.568291	-0.073073
O24	O	0.754338	0.568287	0.166169
O25	O	1.011721	0.702110	-0.077979
O26	O	0.876820	0.702106	0.161328
O27	O	0.759513	0.702106	0.161263
O28	O	1.017811	0.702108	0.027584
O29	O	0.747239	0.941490	-0.220730
O30	O	0.867563	0.462728	0.170105
O31	O	1.016275	0.462728	0.170187
O32	O	1.008554	0.462730	0.036362
O33	O	0.606247	0.941488	-0.086986
O34	O	0.754959	0.941488	-0.086904
O35	O	0.854944	0.623330	0.095772
O36	O	0.937944	0.623331	0.017039
O37	O	0.851947	0.780887	-0.067567
O38	O	0.768947	0.780886	0.011165
C39	C	0.799257	0.491524	-0.017591
C40	C	0.796494	0.420053	-0.014970
C41	C	0.573379	0.702109	-0.025442
C42	C	0.493954	0.702109	-0.025486
C43	C	0.838518	0.386477	-0.054837
C44	C	0.835924	0.319318	-0.052367
C45	C	0.791299	0.285741	-0.010034
C46	C	0.749274	0.319320	0.029837
C47	C	0.751874	0.386473	0.027371
C48	C	0.778883	0.084897	0.001751
C49	C	0.776284	0.017741	0.004212
C50	C	0.862935	0.017742	-0.077991
C51	C	0.865526	0.084901	-0.080457
C52	C	0.823505	0.118470	-0.040582
N53	N	0.788644	0.217096	-0.007511
N54	N	0.826166	0.187110	-0.043101
C55	C	0.113266	0.784355	-0.069340
C56	C	0.203053	0.619864	0.018991
C57	C	0.277671	0.619862	0.018924
C58	C	0.270089	0.702108	-0.025277
C59	C	0.187889	0.784356	-0.069410
C60	C	0.359875	0.537616	0.063050
C61	C	0.434499	0.537611	0.062983
C62	C	0.426919	0.619859	0.018787
C63	C	0.344713	0.702110	-0.025348
C64	C	0.337131	0.784356	-0.069548
C65	C	0.254926	0.866608	-0.113679
C66	C	0.180309	0.866603	-0.113607
C67	C	0.501536	0.619863	0.018715
C68	C	0.411754	0.784357	-0.069619
C69	C	1.041423	0.702109	-0.025183
C70	C	1.120847	0.702109	-0.025139
C71	C	0.795251	0.702113	-0.235908
C72	C	0.791128	0.702114	-0.307382
C73	C	0.815544	0.912694	-0.033034
C74	C	0.818308	0.984165	-0.035655
C75	C	0.853816	0.702116	-0.340925
C76	C	0.849943	0.702109	-0.408078
C77	C	0.783379	0.702107	-0.441691
C78	C	0.720688	0.702103	-0.408142
C79	C	0.724565	0.702103	-0.340986
C80	C	0.764859	0.702100	-0.642538
C81	C	0.760986	0.702102	-0.709700
C82	C	0.890242	0.702107	-0.709631
C83	C	0.894110	0.702112	-0.642477
C84	C	0.831422	0.702103	-0.608931
N85	N	0.779418	0.702103	-0.510334
N86	N	0.835387	0.702101	-0.540286
C87	C	0.819550	0.702105	0.185283
C88	C	0.823674	0.702104	0.256757
C89	C	1.033279	0.491524	-0.017461
C90	C	1.109940	0.420053	-0.014797
C91	C	0.811407	0.491520	0.193005
C92	C	0.812766	0.420048	0.267099
C93	C	1.045429	0.491520	0.193134
C94	C	1.126213	0.420048	0.267273
C95	C	0.569373	0.912698	-0.243759
C96	C	0.488589	0.984170	-0.317898
C97	C	0.581522	0.912694	-0.033163
C98	C	0.504861	0.984165	-0.035828
C99	C	0.803395	0.912698	-0.243629
C100	C	0.802035	0.984170	-0.317724
C101	C	1.097871	0.386490	-0.054701
C102	C	1.169894	0.319345	-0.052213
C103	C	1.253987	0.285759	-0.009816
C104	C	1.266055	0.319329	0.030089
C105	C	1.194032	0.386477	0.027596
C106	C	0.861475	0.386483	0.343051
C107	C	0.862750	0.319337	0.412677
C108	C	0.815321	0.285753	0.406350
C109	C	0.766606	0.319324	0.330391
C110	C	0.765327	0.386474	0.260766
C111	C	1.207483	0.386485	0.260992
C112	C	1.283396	0.319338	0.330646
C113	C	1.278036	0.285752	0.406581
C114	C	1.196758	0.319322	0.412861
C115	C	1.120847	0.386472	0.343207
C116	C	0.407319	1.017742	-0.311617
C117	C	0.331407	1.084909	-0.381272
C118	C	0.336766	1.118498	-0.457207
C119	C	0.418045	1.084924	-0.463487
C120	C	0.493955	1.017763	-0.393832
C121	C	0.516931	1.017735	0.004069
C122	C	0.444907	1.084898	0.001562
C123	C	0.360814	1.118486	-0.040837
C124	C	0.348746	1.084914	-0.080739
C125	C	0.420769	1.017756	-0.078237
C126	C	0.849474	1.017733	-0.311372
C127	C	0.848214	1.084880	-0.380985
C128	C	0.799509	1.118466	-0.456950
C129	C	0.752068	1.084896	-0.463301
C130	C	0.753334	1.017746	-0.393688
H131	H	0.874851	0.413815	-0.089312
H132	H	0.248762	0.933573	-0.149671
O133	O	0.697239	0.702102	-0.606371
H134	H	0.711116	0.702094	-0.554022
O135	O	0.733543	0.121116	0.044741
H136	H	0.781797	0.108224	0.090699
O137	O	0.581617	0.981562	-0.400599
H138	H	0.616604	0.907482	-0.369235
O139	O	1.033190	0.422652	0.349986
H140	H	1.042226	0.388000	0.414493
H141	H	0.727991	0.291969	0.325252
H142	H	0.706778	0.702102	-0.737065
O143	O	0.728154	-0.018475	0.049881
H144	H	0.675737	-0.005575	0.007864
O145	O	0.211228	0.531161	0.066660
H146	H	0.244483	0.491728	0.044335
H147	H	0.402938	0.990397	-0.249793
O148	O	1.213280	0.422711	0.179096
H149	H	1.246958	0.366342	0.174351
H150	H	0.046332	0.851322	-0.105267
O151	O	0.912631	0.422704	0.349884
H152	H	0.946702	0.388082	0.414399
H153	H	0.712945	0.291972	0.064309
H154	H	1.349569	0.292012	0.325519
H155	H	0.897148	-0.009597	-0.110454
O156	O	1.331662	0.213336	-0.007136
H157	H	1.392169	0.195620	0.029043
H158	H	0.666493	0.702096	-0.435510
O159	O	1.190981	0.283081	0.494765
H160	H	1.257424	0.230740	0.542137
H161	H	0.948312	0.702114	-0.615111
H162	H	0.410930	0.990426	-0.110723
O163	O	0.699535	1.121111	-0.545229
H164	H	0.650010	1.195188	-0.580535
O165	O	0.254884	1.190936	-0.532329
H166	H	0.272257	1.208663	-0.586191
H167	H	0.113373	0.933568	-0.149535
O168	O	0.423812	1.121156	-0.545394
H169	H	0.460829	1.151762	-0.553342
O170	O	0.706543	0.422698	0.070364
H171	H	0.675068	0.388076	0.100208
O172	O	1.207054	0.422662	0.070652
H173	H	1.277630	0.388013	0.100557
O174	O	0.403577	0.873067	-0.117297
H175	H	0.333880	0.930255	-0.147974
O176	O	0.712792	0.422663	0.178851
H177	H	0.719860	0.475003	0.131491
O178	O	0.607626	0.981528	0.049788
H179	H	0.603904	1.016174	0.077093
H180	H	0.302176	1.173171	-0.042869
O181	O	0.902019	0.981504	-0.229442
H182	H	0.934801	1.016123	-0.236732
O183	O	0.258043	1.121143	-0.126463
H184	H	0.247974	1.151749	-0.190798
O185	O	1.359914	0.213316	0.481707
H186	H	1.417324	0.195617	0.464574
O187	O	0.243748	1.121098	-0.374490
H188	H	0.252781	1.086437	-0.309984
O189	O	0.656951	0.702092	-0.304808
H190	H	0.689198	0.640586	-0.241196
O191	O	0.368054	0.448911	0.110716
H192	H	0.302356	0.462730	0.103356
H193	H	0.714700	0.990426	-0.398872
H194	H	0.454750	1.112222	0.034058
H195	H	0.501427	0.470637	0.098916
O196	O	0.590195	0.531162	0.066306
H197	H	0.582931	0.473971	0.097054
O198	O	0.913657	0.121113	-0.126119
H199	H	0.966060	0.108233	-0.084107
H200	H	0.886844	1.112205	-0.375798
H201	H	0.902422	0.292011	0.474519
H202	H	0.798485	1.173144	-0.513626
H203	H	0.870144	0.291980	-0.084828
H204	H	0.908016	0.702123	-0.313565
H205	H	0.941281	0.702112	-0.736949
O206	O	0.917542	0.702135	-0.444272
H207	H	0.964468	0.702156	-0.409628
H208	H	1.029405	0.413835	-0.089235
O209	O	1.156870	0.283138	-0.095248
H210	H	1.086294	0.317765	-0.125132
H211	H	1.334532	0.291973	0.064607
H212	H	0.816370	0.231075	0.463049
