data_functionalizedCrystal
_audit_creation_method	'MofGen! by Chris Wilmer'
_symmetry_space_group_name_H-M	'P1'
_symmetry_Int_Tables_number	1
_symmetry_cell_setting	triclinic
loop_
_symmetry_equiv_pos_as_xyz
  x,y,z
_cell_length_a	16.109301
_cell_length_b	10.540539
_cell_length_c	15.186229
_cell_angle_alpha	89.998389
_cell_angle_beta	89.999362
_cell_angle_gamma	83.993486
loop_
_atom_site_label
_atom_site_type_symbol
_atom_site_fract_x
_atom_site_fract_y
_atom_site_fract_z
O1	O	1.104128	0.163159	-0.073169
O2	O	0.862191	0.183464	-0.073182
O3	O	0.988679	-0.011474	-0.073174
O4	O	0.977640	0.358096	-0.073177
O5	O	0.988671	-0.011477	0.073283
O6	O	0.862182	0.183461	0.073275
O7	O	1.104120	0.163156	0.073289
Zn8	Zn	0.983150	0.173308	0.096535
Zn9	Zn	0.983161	0.173312	-0.096429
O10	O	0.977631	0.358094	0.073280
C11	C	0.831206	0.182640	0.000045
C12	C	0.738896	0.180174	0.000039
C13	C	0.517296	0.290112	0.000049
C14	C	0.430561	0.287785	0.000054
C15	C	0.449021	0.056499	0.000053
C16	C	0.535754	0.058827	0.000053
C17	C	0.569889	0.175637	0.000047
C18	C	0.396421	0.170982	0.000052
C19	C	0.302380	0.168459	0.000058
C20	C	0.663936	0.178162	0.000042
C21	C	0.987847	-0.058767	0.000053
C22	C	0.985370	-0.199679	0.000048
C23	C	0.890460	-0.381753	-0.000286
C24	C	0.892971	-0.235171	0.000044
C25	C	1.029832	-0.261972	0.083685
C26	C	1.026678	-0.408472	0.083755
C27	C	1.028567	-0.409014	-0.082794
C28	C	1.029418	-0.262044	-0.083900
C29	C	1.135104	0.163980	0.000060
C30	C	1.227414	0.166446	0.000059
C31	C	0.978463	0.405386	0.000052
C32	C	0.980940	0.546299	0.000051
N33	N	0.983148	0.173305	0.228228
N34	N	0.983169	0.173305	-0.228121
C35	C	1.039177	0.087015	0.453954
C36	C	1.039179	0.087012	0.546144
C37	C	0.927134	0.259598	0.546146
C38	C	0.927128	0.259594	0.453958
C39	C	0.983154	0.173304	0.407864
C40	C	0.983163	0.173305	0.592242
C41	C	0.983165	0.173303	0.692198
C42	C	0.983151	0.173305	0.307902
H43	H	0.421218	-0.038605	0.000063
H44	H	0.853964	-0.409832	-0.060263
H45	H	1.084796	0.016747	0.583668
N46	N	0.866699	0.352675	0.404248
H47	H	0.898798	0.408889	0.365992
H48	H	0.829612	0.304057	0.366058
N49	N	1.114699	-0.473261	0.088810
H50	H	1.121096	-0.527653	0.143633
H51	H	1.126550	-0.528850	0.035166
N52	N	0.373856	0.411274	0.000092
H53	H	0.384908	0.462264	-0.054190
H54	H	0.313747	0.392007	0.000141
N55	N	0.983133	-0.445224	0.166554
H56	H	1.022239	-0.506445	0.202131
H57	H	0.966165	-0.366231	0.202599
N58	N	1.119723	-0.233695	0.087800
H59	H	1.132519	-0.180097	0.035364
H60	H	1.129258	-0.185720	0.143846
N61	N	0.846305	-0.179192	0.079593
H62	H	0.885330	-0.133971	0.117702
H63	H	0.798297	-0.116406	0.059724
N64	N	0.554119	0.416091	0.000056
H65	H	0.589692	0.422220	-0.054236
H66	H	0.507593	0.488185	0.000094
N67	N	0.988964	-0.450233	-0.166767
H68	H	1.031258	-0.507437	-0.201504
H69	H	0.939740	-0.498248	-0.151881
N70	N	0.592488	-0.064648	0.000061
H71	H	0.557704	-0.139000	0.000061
H72	H	0.628880	-0.068719	-0.054229
N73	N	0.842304	-0.421069	0.078713
H74	H	0.824628	-0.343645	0.116057
H75	H	0.791216	-0.460645	0.058225
H76	H	0.857986	-0.192068	-0.059910
H77	H	0.998939	-0.218934	0.145921
N78	N	0.986382	-0.207225	-0.165864
H79	H	0.938554	-0.142260	-0.148699
H80	H	1.027571	-0.164795	-0.202977
N81	N	1.116974	-0.472813	-0.083542
H82	H	1.116113	-0.568430	-0.085828
H83	H	1.147210	-0.443633	-0.136909
H84	H	1.096785	-0.238783	-0.088946
N85	N	1.099600	-0.006051	0.404237
H86	H	1.135089	-0.060716	0.447427
H87	H	1.067437	-0.062183	0.365992
H88	H	0.881521	0.329855	0.583684
