data_functionalizedCrystal
_audit_creation_method	'MofGen! by Chris Wilmer'
_symmetry_space_group_name_H-M	'P1'
_symmetry_Int_Tables_number	1
_symmetry_cell_setting	triclinic
loop_
_symmetry_equiv_pos_as_xyz
  x,y,z
_cell_length_a	18.760487
_cell_length_b	20.875650
_cell_length_c	20.875641
_cell_angle_alpha	60.100828
_cell_angle_beta	90.036576
_cell_angle_gamma	62.470545
loop_
_atom_site_label
_atom_site_type_symbol
_atom_site_fract_x
_atom_site_fract_y
_atom_site_fract_z
Zr1	Zr	0.719510	0.694180	-0.105175
O2	O	0.615091	0.820381	-0.208456
O3	O	0.747584	0.562962	-0.070268
O4	O	0.758119	0.686951	-0.203697
O5	O	0.600724	0.703843	0.026532
O6	O	0.875419	0.686956	-0.203634
O7	O	0.604556	0.696392	-0.075027
O8	O	0.856574	0.465162	0.035045
O9	O	0.619569	0.925636	-0.212147
O10	O	0.851853	0.618795	-0.059255
O11	O	0.761453	0.624353	0.016491
O12	O	0.773856	0.770334	-0.140604
O13	O	0.683456	0.775891	-0.064858
Zr14	Zr	0.900479	0.706071	0.056901
Zr15	Zr	0.906591	0.694187	-0.105075
Zr16	Zr	0.713398	0.706064	0.056801
Zr17	Zr	0.726652	0.862051	-0.111062
Zr18	Zr	0.893337	0.538200	0.062788
O19	O	0.872406	0.837288	0.021994
O20	O	0.881096	0.820391	-0.208314
O21	O	0.606401	0.837278	0.021853
O22	O	1.004898	0.579870	0.160182
O23	O	1.013588	0.562972	-0.070127
O24	O	0.738893	0.579860	0.160040
O25	O	1.019265	0.696407	-0.074806
O26	O	0.861871	0.713299	0.155423
O27	O	0.744570	0.713295	0.155360
O28	O	1.015433	0.703859	0.026753
O29	O	0.768274	0.925642	-0.212068
O30	O	0.851716	0.474608	0.163794
O31	O	1.000420	0.474614	0.163873
O32	O	1.005278	0.465168	0.035124
O33	O	0.614711	0.935083	-0.083398
O34	O	0.763415	0.935088	-0.083319
O35	O	0.846133	0.629917	0.092330
O36	O	0.936533	0.624359	0.016584
O37	O	0.858537	0.775898	-0.064765
O38	O	0.768137	0.781455	0.010981
C39	C	0.801061	0.490144	-0.016773
C40	C	0.798029	0.418879	-0.014274
C41	C	0.776176	0.017776	0.004341
C42	C	0.778983	0.084778	0.001944
C43	C	0.827570	0.115380	-0.038798
C44	C	0.873360	0.078969	-0.077140
C45	C	0.870557	0.011964	-0.074739
C46	C	0.841016	0.315463	-0.050215
C47	C	0.843814	0.382475	-0.052615
C48	C	0.749437	0.388278	0.026471
C49	C	0.746635	0.321275	0.028865
C50	C	0.792428	0.284867	-0.009474
N51	N	0.830438	0.183869	-0.041250
N52	N	0.789564	0.216375	-0.007017
C53	C	0.575985	0.700116	-0.024262
C54	C	0.496564	0.700113	-0.024304
C55	C	0.120023	0.779240	-0.066469
C56	C	0.201457	0.621031	0.018461
C57	C	0.276081	0.621025	0.018396
C58	C	0.272680	0.700127	-0.024103
C59	C	0.194653	0.779236	-0.066537
C60	C	0.354113	0.541917	0.060823
C61	C	0.428744	0.541908	0.060759
C62	C	0.425342	0.621011	0.018264
C63	C	0.347310	0.700123	-0.024171
C64	C	0.343908	0.779226	-0.066670
C65	C	0.265876	0.858339	-0.109101
C66	C	0.191252	0.858340	-0.109032
C67	C	0.499966	0.621011	0.018195
C68	C	0.418538	0.779222	-0.066738
C69	C	1.044004	0.700134	-0.024012
C70	C	1.123425	0.700137	-0.023970
C71	C	0.817640	0.685260	-0.226744
C72	C	0.820234	0.680215	-0.295507
C73	C	0.818928	0.910106	-0.031501
C74	C	0.821960	0.981372	-0.034000
C75	C	0.780741	0.756945	-0.370275
C76	C	0.783190	0.752199	-0.434882
C77	C	0.825128	0.670724	-0.424719
C78	C	0.864626	0.593989	-0.349943
C79	C	0.862181	0.598735	-0.285338
C80	C	0.836809	0.648046	-0.613386
C81	C	0.839248	0.643306	-0.677999
C82	C	0.757813	0.801517	-0.762934
C83	C	0.755369	0.806256	-0.698323
C84	C	0.794870	0.729521	-0.623553
N85	N	0.827630	0.665871	-0.490757
N86	N	0.792373	0.734375	-0.557517
C87	C	0.802350	0.714990	0.178470
C88	C	0.799755	0.720035	0.247232
C89	C	1.035071	0.490153	-0.016648
C90	C	1.111460	0.418891	-0.014107
C91	C	0.793416	0.505009	0.185834
C92	C	0.787789	0.438788	0.257096
C93	C	1.027426	0.505018	0.185958
C94	C	1.101220	0.438800	0.257263
C95	C	0.592564	0.895232	-0.234233
C96	C	0.518770	0.961450	-0.305537
C97	C	0.584919	0.910097	-0.031626
C98	C	0.508530	0.981360	-0.034167
C99	C	0.826573	0.895241	-0.234108
C100	C	0.832200	0.961462	-0.305370
C101	C	1.103131	0.382520	-0.052507
C102	C	1.174900	0.315569	-0.050134
C103	C	1.254997	0.284986	-0.009356
C104	C	1.263324	0.321364	0.029045
C105	C	1.191556	0.388317	0.026668
C106	C	0.829349	0.410596	0.330156
C107	C	0.824059	0.348384	0.397120
C108	C	0.777214	0.314362	0.391023
C109	C	0.735649	0.342561	0.317955
C110	C	0.740935	0.404776	0.250993
C111	C	1.183070	0.404803	0.251210
C112	C	1.252415	0.342593	0.318201
C113	C	1.239908	0.314378	0.391246
C114	C	1.158049	0.348382	0.397297
C115	C	1.088706	0.410595	0.330306
C116	C	0.436920	0.995456	-0.299484
C117	C	0.367575	1.057686	-0.366476
C118	C	0.380083	1.085905	-0.439521
C119	C	0.461941	1.051897	-0.445572
C120	C	0.531284	0.989672	-0.378581
C121	C	0.516859	1.017737	0.004226
C122	C	0.445092	1.084705	0.001835
C123	C	0.364995	1.115290	-0.038946
C124	C	0.356667	1.078910	-0.077344
C125	C	0.428434	1.011947	-0.074957
C126	C	0.879052	0.995464	-0.299248
C127	C	0.884355	1.057677	-0.366200
C128	C	0.842801	1.085891	-0.439273
C129	C	0.795947	1.051882	-0.445393
C130	C	0.790649	0.989666	-0.378442
H131	H	0.907841	-0.017677	-0.105959
H132	H	0.883381	0.407388	-0.085795
H133	H	1.328549	0.296453	0.062246
H134	H	0.762115	1.074863	-0.504898
H135	H	0.857910	0.325432	0.456608
H136	H	0.451888	1.114315	0.033107
F137	F	0.271415	1.111468	-0.120741
H138	H	0.898777	0.527649	-0.341673
H139	H	1.037919	0.407419	-0.085723
H140	H	0.056487	0.843652	-0.101013
H141	H	1.147878	0.325399	0.456779
F142	F	0.475239	1.081937	-0.523318
H143	H	0.873397	0.576955	-0.669716
F144	F	1.339527	0.306412	0.311745
H145	H	1.198349	0.417922	0.057943
F146	F	1.313718	0.248163	0.462538
F147	F	0.879213	0.446791	0.336662
H148	H	0.563496	0.556599	0.052748
F149	F	0.724457	-0.014782	0.047700
H150	H	0.323612	1.136573	-0.494063
F151	F	0.618393	0.953482	-0.385035
H152	H	1.022062	0.438267	0.335246
F153	F	0.740774	0.953490	-0.384970
F154	F	0.423589	0.965433	-0.221751
H155	H	0.263116	0.922744	-0.143707
H156	H	0.582071	0.992840	0.037439
F157	F	0.925073	0.111537	-0.120498
H158	H	0.300929	1.085365	-0.361534
H159	H	0.306564	1.169815	-0.040883
H160	H	0.421640	0.982331	-0.106220
H161	H	0.912891	0.972503	-0.239755
F162	F	0.934220	1.093865	-0.359670
H163	H	0.741705	0.114411	0.033171
H164	H	0.847121	1.136552	-0.493783
H165	H	0.746586	0.823291	-0.378559
H166	H	0.707071	0.296363	0.062042
F167	F	0.771597	0.248147	0.462298
H168	H	0.697508	0.314851	0.313003
H169	H	0.712156	0.417928	0.057685
F170	F	0.205073	0.536849	0.063684
F171	F	0.889735	0.276741	-0.091037
H172	H	0.415757	0.843638	-0.101338
H173	H	1.193269	0.427766	0.191739
F174	F	0.108204	0.942530	-0.154186
F175	F	0.357727	0.457736	0.106046
H176	H	0.721222	0.872602	-0.706607
F177	F	0.511784	0.457710	0.105919
H178	H	0.751033	0.814680	-0.495760
F179	F	0.878821	0.566377	-0.533818
F180	F	0.715777	0.883178	-0.842511
H181	H	0.894341	0.536254	-0.224458
H182	H	1.168103	0.285959	-0.081406
H183	H	1.313428	0.230467	-0.007426
H184	H	0.707094	0.427722	0.191507
