data_functionalizedCrystal
_audit_creation_method	'MofGen! by Chris Wilmer'
_symmetry_space_group_name_H-M	'P1'
_symmetry_Int_Tables_number	1
_symmetry_cell_setting	triclinic
loop_
_symmetry_equiv_pos_as_xyz
  x,y,z
_cell_length_a	13.033409
_cell_length_b	13.032721
_cell_length_c	13.032268
_cell_angle_alpha	103.289627
_cell_angle_beta	105.162573
_cell_angle_gamma	89.138002
loop_
_atom_site_label
_atom_site_type_symbol
_atom_site_fract_x
_atom_site_fract_y
_atom_site_fract_z
Zn1	Zn	1.451051	-0.662355	-0.490271
Zn2	Zn	1.450937	-0.817427	-0.335232
Zn3	Zn	1.301724	-0.623048	-0.329561
Zn4	Zn	1.250860	-0.817388	-0.535377
O5	O	1.363643	-0.730055	-0.422610
O6	O	1.597263	-0.699393	-0.453201
O7	O	1.452383	-0.775208	-0.183460
O8	O	1.342867	-0.482032	-0.329629
O9	O	1.597179	-0.813323	-0.339294
O10	O	1.452577	-0.510911	-0.447702
O11	O	1.342757	-0.632399	-0.179293
O12	O	1.148750	-0.632361	-0.373366
O13	O	1.256177	-0.813257	-0.680413
O14	O	1.111381	-0.775142	-0.524579
O15	O	1.403257	-0.699355	-0.647274
O16	O	1.403062	-0.963652	-0.383032
O17	O	1.256067	-0.963623	-0.530078
C18	C	1.092150	-0.699482	-0.453252
C19	C	0.975997	-0.686431	-0.466391
C20	C	0.804146	-0.723386	-0.429354
C21	C	0.924196	-0.736878	-0.415770
C22	C	1.324058	-1.001559	-0.462085
C23	C	1.307213	-1.117724	-0.478998
C24	C	1.372483	-1.169506	-0.413825
C25	C	1.355075	-1.289569	-0.431304
C26	C	1.636196	-0.760747	-0.391848
C27	C	1.752342	-0.773826	-0.378740
C28	C	1.324056	-0.760686	-0.704096
C29	C	1.307186	-0.773739	-0.824048
C30	C	1.403409	-0.457496	-0.383001
C31	C	1.420354	-0.341348	-0.366122
C32	C	1.372437	-0.723203	-0.861130
C33	C	1.355003	-0.736693	-0.985107
C34	C	1.403148	-0.699474	-0.142201
C35	C	1.420263	-0.686149	-0.022184
H36	H	0.968716	-0.790060	-0.362384
Cl37	Cl	1.201001	-0.855955	-0.916731
H38	H	1.238449	-1.162279	-0.547738
H39	H	0.931476	-0.633259	-0.519787
Cl40	Cl	1.248813	-0.818912	-1.077787
Cl41	Cl	0.821076	-0.855929	-0.296315
H42	H	1.441255	-1.124955	-0.345092
H43	H	1.489034	-0.632885	-0.962152
H44	H	1.286306	-1.334120	-0.500049
Cl45	Cl	0.735408	-0.641300	-0.511795
H46	H	1.489131	-1.296799	-0.297384
H47	H	1.441204	-0.669945	-0.801094
