data_functionalizedCrystal
_audit_creation_method	'MofGen! by Chris Wilmer'
_symmetry_space_group_name_H-M	'P1'
_symmetry_Int_Tables_number	1
_symmetry_cell_setting	triclinic
loop_
_symmetry_equiv_pos_as_xyz
  x,y,z
_cell_length_a	14.044220
_cell_length_b	14.044190
_cell_length_c	13.596369
_cell_angle_alpha	89.989293
_cell_angle_beta	89.999747
_cell_angle_gamma	93.190328
loop_
_atom_site_label
_atom_site_type_symbol
_atom_site_fract_x
_atom_site_fract_y
_atom_site_fract_z
O1	O	1.277175	0.230170	-0.081707
O2	O	1.000503	0.221864	-0.081731
O3	O	1.134683	0.087681	-0.081700
O4	O	1.142995	0.364353	-0.081738
O5	O	1.134667	0.087672	0.081883
O6	O	1.000488	0.221855	0.081852
O7	O	1.277160	0.230161	0.081876
Zn8	Zn	1.138821	0.226007	0.107836
Zn9	Zn	1.138841	0.226019	-0.107691
O10	O	1.142980	0.364344	0.081845
C11	C	0.964874	0.218224	0.000058
C12	C	0.858731	0.207380	0.000049
C13	C	1.131039	0.052054	0.000094
C14	C	1.120191	-0.054089	0.000102
C15	C	1.177292	-0.299547	0.000068
C16	C	1.100375	-0.248422	0.000068
C17	C	1.111404	-0.140285	0.000087
C18	C	1.166265	-0.407694	0.000050
C19	C	0.664392	0.187553	0.000072
C20	C	0.613264	0.264468	0.000065
C21	C	0.505128	0.253436	0.000077
C22	C	0.772539	0.198583	0.000059
C23	C	1.312789	0.233801	0.000085
C24	C	1.418932	0.244646	0.000087
C25	C	1.146624	0.399971	0.000049
C26	C	1.157472	0.506114	0.000035
N27	N	1.138815	0.225999	0.254928
N28	N	1.138855	0.226020	-0.254783
C29	C	1.138840	0.226019	0.656219
C30	C	1.138831	0.226017	0.544568
C31	C	1.138828	0.226010	0.455577
C32	C	1.138817	0.226006	0.343919
H33	H	1.026243	-0.285865	0.000056
O34	O	1.265747	-0.254928	-0.000084
C35	C	1.415904	-0.231050	-0.084769
C36	C	1.315753	-0.281640	-0.084734
H37	H	1.456370	-0.252642	-0.153190
H38	H	1.409207	-0.150523	-0.084819
H39	H	1.456304	-0.252582	-0.016275
H40	H	1.275297	-0.260185	-0.153216
H41	H	1.322518	-0.362156	-0.084633
H42	H	0.650706	0.338602	0.000050
O43	O	0.619583	0.099186	0.000038
C44	C	0.469371	0.007489	0.000111
C45	C	0.520010	0.107618	0.000131
H46	H	0.388858	0.014272	0.000206
H47	H	0.490821	-0.032972	-0.068365
H48	H	0.490956	-0.032966	0.068554
H49	H	0.498451	0.148152	-0.068266
H50	H	0.498559	0.148006	0.068651
