data_functionalizedCrystal
_audit_creation_method	'MofGen! by Chris Wilmer'
_symmetry_space_group_name_H-M	'P1'
_symmetry_Int_Tables_number	1
_symmetry_cell_setting	triclinic
loop_
_symmetry_equiv_pos_as_xyz
  x,y,z
_cell_length_a	11.792241
_cell_length_b	9.130313
_cell_length_c	10.654550
_cell_angle_alpha	89.995417
_cell_angle_beta	84.339159
_cell_angle_gamma	89.998597
loop_
_atom_site_label
_atom_site_type_symbol
_atom_site_fract_x
_atom_site_fract_y
_atom_site_fract_z
O1	O	-1.507309	0.121631	-0.172137
O2	O	-1.177009	0.121670	-0.189877
O3	O	-1.349753	0.121644	0.001754
O4	O	-1.334565	0.121657	-0.363768
O5	O	-1.349733	-0.121955	0.001763
O6	O	-1.176988	-0.121929	-0.189868
O7	O	-1.507289	-0.121968	-0.172128
Cu8	Cu	-1.342137	-0.144191	-0.180997
Cu9	Cu	-1.342161	0.143893	-0.181008
O10	O	-1.334544	-0.121942	-0.363759
C11	C	-1.134705	-0.000125	-0.188758
C12	C	-1.008684	-0.000110	-0.185423
C13	C	-0.777957	-0.000149	-0.179290
C14	C	-0.906351	-0.000128	-0.182697
N15	N	-1.342128	-0.346814	-0.180989
C16	C	-1.265660	-0.576830	-0.265828
C17	C	-1.265632	-0.423493	-0.265816
C18	C	-1.418650	-0.423479	-0.096158
C19	C	-1.418672	-0.576813	-0.096165
C20	C	-1.189167	-0.653501	-0.350670
C21	C	-1.112643	-0.576846	-0.435499
C22	C	-1.112615	-0.423509	-0.435488
C23	C	-1.189110	-0.346827	-0.350647
C24	C	-0.549592	-0.000166	-0.173247
C25	C	-0.675614	-0.000161	-0.176582
C26	C	-1.348628	-0.000153	0.048553
C27	C	-1.345291	-0.000148	0.187987
N28	N	-1.342179	0.346516	-0.181006
C29	C	-1.335670	-0.000141	-0.410558
C30	C	-1.339006	-0.000137	-0.549992
C31	C	-1.447000	-0.000164	0.267760
C32	C	-1.443858	-0.000154	0.398772
C33	C	-1.237289	-0.000117	0.370224
C34	C	-1.240433	-0.000117	0.239215
C35	C	-1.551859	-0.000195	0.216532
C36	C	-1.653577	-0.000213	0.296307
C37	C	-1.650435	-0.000203	0.427319
C38	C	-1.545575	-0.000174	0.478556
H39	H	-1.050357	-0.639289	-0.504567
N40	N	-1.030071	-0.340827	-0.526960
H41	H	-0.981618	-0.412670	-0.580702
H42	H	-1.073943	-0.277178	-0.582803
N43	N	-1.124204	-0.000109	0.425495
H44	H	-1.079592	-0.090406	0.396459
H45	H	-1.079691	0.090258	0.396443
N46	N	-1.501212	-0.659499	-0.004691
H47	H	-1.489616	-0.768268	-0.017569
H48	H	-1.487403	-0.632720	0.084505
N49	N	-1.130736	-0.000091	0.153163
H50	H	-1.063831	-0.000081	0.205493
H51	H	-1.127531	-0.090393	0.098186
H52	H	-1.189186	-0.778356	-0.350689
N53	N	-1.189066	-0.181443	-0.350629
H54	H	-1.206236	-0.144481	-0.436080
H55	H	-1.249129	-0.144616	-0.283962
H56	H	-1.480930	-0.361035	-0.027086
N57	N	-1.542187	-0.000179	0.619862
H58	H	-1.460329	-0.000170	0.640212
H59	H	-1.582044	0.090120	0.656929
H60	H	-1.554429	-0.000209	0.109857
H61	H	-1.738949	-0.000200	0.254580
H62	H	-1.733258	-0.000202	0.492268
