data_functionalizedCrystal
_audit_creation_method	'MofGen! by Chris Wilmer'
_symmetry_space_group_name_H-M	'P1'
_symmetry_Int_Tables_number	1
_symmetry_cell_setting	triclinic
loop_
_symmetry_equiv_pos_as_xyz
  x,y,z
_cell_length_a	16.625547
_cell_length_b	16.625546
_cell_length_c	16.625527
_cell_angle_alpha	89.912139
_cell_angle_beta	89.935872
_cell_angle_gamma	90.022405
loop_
_atom_site_label
_atom_site_type_symbol
_atom_site_fract_x
_atom_site_fract_y
_atom_site_fract_z
Zn1	Zn	1.232993	-0.320544	-0.455990
Zn2	Zn	1.732993	0.179456	0.044010
Zn3	Zn	1.232804	-0.455522	-0.321152
Zn4	Zn	1.732804	0.044478	0.178848
Zn5	Zn	1.098063	-0.320707	-0.321160
Zn6	Zn	1.598063	0.179293	0.178840
Zn7	Zn	1.098126	-0.455338	-0.455932
Zn8	Zn	1.598126	0.044662	0.044068
O9	O	1.165497	-0.388028	-0.388559
O10	O	1.665497	0.111972	0.111441
O11	O	1.345801	-0.338458	-0.438124
O12	O	1.845801	0.161542	0.061876
O13	O	1.214825	-0.437784	-0.208321
O14	O	1.714825	0.062216	0.291679
O15	O	1.116015	-0.207853	-0.339074
O16	O	1.616015	0.292147	0.160926
O17	O	1.345662	-0.437626	-0.339059
O18	O	1.845662	0.062374	0.160941
O19	O	1.215148	-0.207733	-0.438132
O20	O	1.715148	0.292267	0.061868
O21	O	1.115831	-0.338736	-0.208327
O22	O	1.615831	0.161264	0.291673
O23	O	0.985239	-0.338558	-0.339017
O24	O	1.485239	0.161442	0.160983
O25	O	1.116122	-0.437312	-0.568773
O26	O	1.616122	0.062688	-0.068773
O27	O	0.985285	-0.437470	-0.438034
O28	O	1.485285	0.062530	0.061966
O29	O	1.215209	-0.338279	-0.568815
O30	O	1.715209	0.161721	-0.068815
O31	O	1.214886	-0.568330	-0.339003
O32	O	1.714886	-0.068330	0.160997
O33	O	1.115938	-0.568195	-0.438026
O34	O	1.615938	-0.068195	0.061974
C35	C	0.956006	-0.388012	-0.388521
C36	C	1.456006	0.111988	0.111479
C37	C	0.866385	-0.388025	-0.388524
C38	C	1.366385	0.111975	0.111476
C39	C	0.793602	-0.388027	-0.388533
C40	C	1.293602	0.111973	0.111467
C41	C	0.702294	-0.388031	-0.388554
C42	C	1.202294	0.111969	0.111446
C43	C	0.629517	-0.388038	-0.388574
C44	C	1.129517	0.111962	0.111426
C45	C	0.538203	-0.388044	-0.388593
C46	C	1.038203	0.111956	0.111407
C47	C	1.165420	-0.597519	-0.388525
C48	C	1.665420	-0.097519	0.111475
C49	C	1.165461	-0.687140	-0.388538
C50	C	1.665461	-0.187140	0.111462
C51	C	1.165602	-1.015315	-0.388622
C52	C	1.665602	-0.515315	0.111378
C53	C	1.165560	-0.924007	-0.388600
C54	C	1.665560	-0.424007	0.111400
C55	C	1.165531	-0.851231	-0.388579
C56	C	1.665531	-0.351231	0.111421
C57	C	1.165491	-0.759916	-0.388559
C58	C	1.665491	-0.259916	0.111441
C59	C	1.375805	-0.388044	-0.388597
C60	C	1.875805	0.111956	0.111403
C61	C	1.465427	-0.388051	-0.388614
C62	C	1.965427	0.111949	0.111386
C63	C	1.165693	-0.387757	-0.598868
C64	C	1.665693	0.112243	-0.098868
C65	C	1.165777	-0.387641	-0.688490
C66	C	1.665777	0.112359	-0.188490
C67	C	1.165595	-0.177719	-0.388610
C68	C	1.665595	0.322281	0.111390
C69	C	1.165637	-0.088098	-0.388632
C70	C	1.665637	0.411902	0.111368
C71	C	1.165347	-0.388240	-0.179067
C72	C	1.665347	0.111760	0.320933
C73	C	1.165419	-0.388128	-0.089447
C74	C	1.665419	0.111872	0.410553
C75	C	1.165719	-0.387733	0.238728
C76	C	1.665719	0.112267	0.738728
C77	C	1.165638	-0.387845	0.147420
C78	C	1.665638	0.112155	0.647420
C79	C	1.165569	-0.387931	0.074644
C80	C	1.665569	0.112069	0.574644
C81	C	1.165488	-0.388042	-0.016670
C82	C	1.665488	0.111958	0.483330
