data_functionalizedCrystal
_audit_creation_method	'MofGen! by Chris Wilmer'
_symmetry_space_group_name_H-M	'P1'
_symmetry_Int_Tables_number	1
_symmetry_cell_setting	triclinic
loop_
_symmetry_equiv_pos_as_xyz
  x,y,z
_cell_length_a	14.472310
_cell_length_b	15.995350
_cell_length_c	15.995350
_cell_angle_alpha	83.492375
_cell_angle_beta	90.001162
_cell_angle_gamma	89.990621
loop_
_atom_site_label
_atom_site_type_symbol
_atom_site_fract_x
_atom_site_fract_y
_atom_site_fract_z
O1	O	0.076758	-1.110997	-0.107921
O2	O	0.076776	-0.867221	-0.121248
O3	O	0.076766	-0.995773	0.007303
O4	O	0.076769	-0.982445	-0.236472
O5	O	-0.076916	-0.995740	0.007296
O6	O	-0.076906	-0.867188	-0.121256
O7	O	-0.076924	-1.110963	-0.107928
Cu8	Cu	-0.090947	-0.989073	-0.114593
Cu9	Cu	0.090800	-0.989112	-0.114584
O10	O	-0.076913	-0.982412	-0.236480
C11	C	-0.000062	-0.836010	-0.120701
C12	C	-0.000055	-0.743060	-0.119049
N13	N	-0.218778	-0.989051	-0.114598
C14	C	-0.000073	-0.995205	0.038494
C15	C	-0.000068	-0.993553	0.131444
C16	C	-0.592869	-0.989111	-0.114581
C17	C	-0.553698	-0.920095	-0.183135
C18	C	-0.446610	-0.920254	-0.183385
C19	C	-0.407278	-0.989081	-0.114590
C20	C	-0.446122	-1.076445	-0.133671
C21	C	-0.553243	-1.076057	-0.134159
C22	C	-0.553398	-0.971542	-0.026741
C23	C	-0.446270	-0.969538	-0.027327
C24	C	-0.302390	-0.989069	-0.114593
C25	C	-0.697757	-0.989128	-0.114579
N26	N	0.218631	-0.989140	-0.114572
C27	C	-0.000083	-1.142175	-0.108476
C28	C	-0.000084	-1.235125	-0.110127
C29	C	-0.000074	-0.405312	-0.113117
C30	C	-0.000418	-0.452746	-0.021565
C31	C	-0.000065	-0.549436	-0.023217
C32	C	-0.000065	-0.572873	-0.116060
C33	C	0.087692	-0.531804	-0.161212
C34	C	0.087759	-0.435169	-0.158912
C35	C	-0.087007	-0.434792	-0.160812
C36	C	-0.088160	-0.531737	-0.160790
C37	C	-0.000057	-0.667570	-0.117727
C38	C	-0.000076	-0.310614	-0.111452
C39	C	-0.000072	-0.982980	-0.267671
C40	C	-0.000071	-0.984631	-0.360621
C41	C	-0.000071	-0.987621	0.469192
C42	C	0.000281	-0.896069	0.421758
C43	C	-0.000066	-0.897721	0.325068
C44	C	-0.000069	-0.990564	0.301631
C45	C	-0.087831	-1.035701	0.342705
C46	C	-0.087904	-1.033401	0.439340
C47	C	0.086861	-1.035330	0.439707
C48	C	0.088021	-1.035309	0.342762
C49	C	-0.000071	-0.992231	0.206934
C50	C	-0.000075	-0.985956	0.563890
H51	H	-0.420349	-0.855314	-0.172016
H52	H	-0.063352	-0.434210	0.015027
H53	H	-0.579154	-1.129018	-0.086196
H54	H	-0.580461	-0.909219	-0.008392
H55	H	0.090955	-0.545930	-0.229421
H56	H	0.062951	-0.577308	0.012521
H57	H	0.153379	-1.005412	0.460250
N58	N	-0.414159	-1.142406	-0.072694
N59	N	-0.362269	-1.125723	-0.014354
H60	H	-0.339693	-1.172306	0.028714
N61	N	0.169493	-0.994000	0.308525
N62	N	0.224953	-0.962164	0.355789
H63	H	0.282497	-0.932998	0.331603
N64	N	-0.078243	-0.850373	0.446330
N65	N	-0.157955	-0.876428	0.433971
H66	H	-0.213418	-0.844162	0.451327
N67	N	-0.169753	-0.996333	0.307094
N68	N	-0.163730	-0.935044	0.251477
H69	H	-0.221585	-0.907234	0.226327
H70	H	-0.578220	-1.091540	-0.198219
N71	N	0.170037	-0.412199	-0.117585
N72	N	0.184960	-0.336812	-0.108412
H73	H	0.243069	-0.320592	-0.079221
N74	N	-0.094806	-0.551045	-0.245713
N75	N	-0.100364	-0.625930	-0.260586
H76	H	-0.105046	-0.639577	-0.320563
H77	H	-0.063079	-0.861973	0.297200
N78	N	-0.170457	-0.409007	-0.123281
N79	N	-0.185949	-0.332599	-0.119799
H80	H	-0.244883	-0.314386	-0.093287
N81	N	-0.091927	-1.121262	0.324966
N82	N	-0.095796	-1.137666	0.250478
H83	H	-0.098686	-1.198093	0.237945
H84	H	-0.087600	-0.403031	-0.228313
H85	H	0.091741	-0.402921	-0.226128
H86	H	0.062168	-0.433166	0.014865
H87	H	-0.062973	-0.577852	0.012275
H88	H	-0.153505	-1.000459	0.457639
N89	N	-0.412449	-1.096327	-0.213117
N90	N	-0.359855	-1.046301	-0.255814
H91	H	-0.336073	-1.060338	-0.311925
N92	N	-0.414423	-0.888914	-0.009169
N93	N	-0.363196	-0.845962	-0.060261
H94	H	-0.340697	-0.789021	-0.047440
H95	H	-0.091888	-1.100617	0.471588
N96	N	0.094650	-1.120244	0.323485
N97	N	0.031619	-1.171516	0.345371
H98	H	0.036293	-1.231505	0.331754
N99	N	-0.586045	-0.838367	-0.169101
N100	N	-0.638350	-0.830028	-0.108413
H101	H	-0.661200	-0.772305	-0.098499
N102	N	-0.587462	-0.933978	-0.264444
N103	N	-0.640249	-0.994481	-0.272122
H104	H	-0.664097	-1.004290	-0.329546
H105	H	0.087449	-1.102831	0.471468
H106	H	-0.419500	-1.016541	0.026079
N107	N	-0.414459	-0.934282	-0.265174
N108	N	-0.471135	-0.943994	-0.322246
H109	H	-0.448430	-0.953888	-0.380017
H110	H	0.153002	-0.560193	-0.129845
H111	H	-0.578728	-1.021872	0.024275
H112	H	0.062846	-0.862239	0.296649
N113	N	-0.169599	-0.565978	-0.119424
N114	N	-0.162857	-0.620475	-0.057231
H115	H	-0.220372	-0.644663	-0.028014
N116	N	0.079242	-0.850190	0.445007
N117	N	0.136178	-0.884426	0.496810
H118	H	0.191950	-0.852024	0.513233
