data_functionalizedCrystal
_audit_creation_method	'MofGen! by Chris Wilmer'
_symmetry_space_group_name_H-M	'P1'
_symmetry_Int_Tables_number	1
_symmetry_cell_setting	triclinic
loop_
_symmetry_equiv_pos_as_xyz
  x,y,z
_cell_length_a	14.044220
_cell_length_b	14.044220
_cell_length_c	12.503572
_cell_angle_alpha	93.847060
_cell_angle_beta	86.157348
_cell_angle_gamma	93.188877
loop_
_atom_site_label
_atom_site_type_symbol
_atom_site_fract_x
_atom_site_fract_y
_atom_site_fract_z
O1	O	1.272114	0.235217	0.089315
O2	O	0.995443	0.226911	0.089318
O3	O	1.129626	0.092728	0.089311
O4	O	1.137931	0.369400	0.089321
O5	O	1.139721	0.082623	-0.089331
O6	O	1.005538	0.216807	-0.089325
O7	O	1.282209	0.225112	-0.089328
Cu8	Cu	1.144795	0.220037	-0.105638
Cu9	Cu	1.132857	0.231986	0.105628
O10	O	1.148026	0.359295	-0.089322
C11	C	0.964868	0.218223	-0.000003
C12	C	0.858726	0.207379	-0.000002
C13	C	1.131038	0.052054	-0.000009
C14	C	1.120193	-0.054089	-0.000005
N15	N	1.153199	0.211632	-0.254230
C16	C	1.312784	0.233800	-0.000005
C17	C	1.418926	0.244645	0.000001
C18	C	1.613264	0.264471	0.000001
C19	C	1.664394	0.187557	-0.000002
C20	C	1.772530	0.198588	-0.000002
C21	C	1.505118	0.253441	0.000001
C22	C	1.146614	0.399969	0.000001
C23	C	1.157459	0.506112	0.000005
C24	C	1.177285	0.700450	-0.000000
C25	C	1.100371	0.751580	-0.000000
C26	C	1.111402	0.859716	-0.000003
C27	C	1.166255	0.592304	0.000002
N28	N	1.124460	0.240384	0.254220
C29	C	1.112100	0.252737	0.473336
C30	C	1.165556	0.199282	0.526661
C31	C	1.158679	0.206155	0.648584
C32	C	1.118976	0.245865	0.351401
H33	H	1.626950	0.113428	0.000074
H34	H	1.650700	0.338599	0.000005
F35	F	1.003472	0.702647	-0.000006
F36	F	1.274177	0.749382	-0.000005
H37	H	1.216486	0.148354	0.480745
F38	F	1.045531	0.319297	0.533345
