data_functionalizedCrystal
_audit_creation_method	'MofGen! by Chris Wilmer'
_symmetry_space_group_name_H-M	'P1'
_symmetry_Int_Tables_number	1
_symmetry_cell_setting	triclinic
loop_
_symmetry_equiv_pos_as_xyz
  x,y,z
_cell_length_a	19.288864
_cell_length_b	19.288855
_cell_length_c	18.366186
_cell_angle_alpha	90.008830
_cell_angle_beta	90.022894
_cell_angle_gamma	83.134244
loop_
_atom_site_label
_atom_site_type_symbol
_atom_site_fract_x
_atom_site_fract_y
_atom_site_fract_z
O1	O	-0.921350	-0.086649	-0.060787
O2	O	-0.719089	-0.098338	-0.060738
O3	O	-0.826067	0.008637	-0.060754
O4	O	-0.814371	-0.193624	-0.060771
O5	O	-0.826049	0.008643	0.060345
O6	O	-0.719071	-0.098333	0.060361
O7	O	-0.921332	-0.086644	0.060312
Zn8	Zn	-0.820198	-0.092487	0.079564
Zn9	Zn	-0.820222	-0.092494	-0.079990
O10	O	-0.814353	-0.193619	0.060329
C11	C	-0.693203	-0.097959	-0.000182
C12	C	-0.616100	-0.096830	-0.000163
C13	C	-0.825683	0.034517	-0.000204
C14	C	-0.824557	0.111620	-0.000201
C15	C	-0.947217	-0.087023	-0.000246
C16	C	-1.024321	-0.088152	-0.000269
C17	C	-0.571401	-0.159598	-0.000179
C18	C	-0.498954	-0.158538	-0.000187
C19	C	-0.471209	-0.094705	-0.000193
C20	C	-0.515917	-0.031929	-0.000173
C21	C	-0.588363	-0.032991	-0.000157
C22	C	-0.362955	-0.044528	-0.042640
C23	C	-0.290510	-0.043468	-0.042660
C24	C	-0.247763	-0.091426	-0.000237
C25	C	-0.277468	-0.140455	0.042196
C26	C	-0.349913	-0.141517	0.042211
C27	C	-0.392655	-0.093546	-0.000209
C28	C	-0.124509	-0.153048	-0.000261
C29	C	-0.052061	-0.151985	-0.000265
C30	C	-0.069026	-0.025374	-0.000257
C31	C	-0.141472	-0.026439	-0.000247
C32	C	-0.169209	-0.090278	-0.000252
C33	C	-0.824041	0.147828	-0.066212
C34	C	-0.822973	0.220274	-0.066216
C35	C	-0.822434	0.256512	-0.000206
C36	C	-0.822946	0.220295	0.065813
C37	C	-0.824007	0.147849	0.065816
C38	C	-0.861429	0.376745	0.050353
C39	C	-0.860372	0.449190	0.050347
C40	C	-0.819158	0.479958	-0.000212
C41	C	-0.779010	0.438273	-0.050778
C42	C	-0.780071	0.365827	-0.050775
C43	C	-0.821283	0.335067	-0.000202
C44	C	-0.817483	0.594720	-0.066232
C45	C	-0.816411	0.667167	-0.066234
C46	C	-0.816391	0.667187	0.065797
C47	C	-0.817457	0.594740	0.065797
C48	C	-0.818006	0.558512	-0.000220
C49	C	-0.814739	0.780502	-0.000222
C50	C	-0.815871	0.703399	-0.000223
N51	N	-0.820187	-0.092482	0.188455
N52	N	-0.820239	-0.092494	-0.188881
C53	C	-0.867572	-0.045137	0.226548
C54	C	-0.867577	-0.045134	0.302776
C55	C	-0.820202	-0.092488	0.340908
C56	C	-0.772808	-0.139837	0.302806
C57	C	-0.772800	-0.139834	0.226579
C58	C	-0.810902	-0.155776	0.461664
C59	C	-0.810915	-0.155780	0.537889
C60	C	-0.820222	-0.092497	0.576015
C61	C	-0.829532	-0.029207	0.537907
C62	C	-0.829524	-0.029204	0.461681
C63	C	-0.820205	-0.092496	0.423563
C64	C	-0.867615	-0.045144	0.696763
C65	C	-0.867615	-0.045140	0.772993
C66	C	-0.772849	-0.139849	0.773021
C67	C	-0.772846	-0.139847	0.696793
C68	C	-0.820233	-0.092495	0.658669
H69	H	-0.593980	-0.211581	-0.000185
H70	H	-0.817883	0.565260	0.119551
H71	H	-0.745450	0.463321	-0.091948
C72	C	-0.824638	0.107980	-0.138833
N73	N	-0.825087	0.077965	-0.193531
C74	C	-0.190643	0.042612	-0.000237
N75	N	-0.227678	0.094624	-0.000229
H76	H	-0.817926	0.565220	-0.119987
C77	C	-0.822352	0.260157	0.138425
N78	N	-0.821902	0.290181	0.193118
H79	H	-0.266331	-0.003548	-0.077215
H80	H	-0.734234	-0.178393	0.333856
C81	C	-0.904533	0.495037	0.105973
N82	N	-0.937795	0.529567	0.147873
H83	H	-0.906199	-0.006582	0.804009
C84	C	-0.720768	-0.191982	0.654889
N85	N	-0.681555	-0.231267	0.623327
H86	H	-0.815987	0.696645	-0.119991
H87	H	-0.734212	-0.178389	0.195563
C88	C	-0.155022	-0.223271	-0.000258
N89	N	-0.178003	-0.276164	-0.000254
C90	C	-0.822401	0.260110	-0.138836
N91	N	-0.821970	0.290113	-0.193534
C92	C	-0.449777	-0.227590	-0.000214
N93	N	-0.412738	-0.279601	-0.000238
C94	C	-0.735903	0.319975	-0.106391
N95	N	-0.702632	0.285440	-0.148279
C96	C	-0.815799	0.707043	0.138410
N97	N	-0.815352	0.737067	0.193103
C98	C	-0.800667	-0.225399	0.579801
N99	N	-0.792944	-0.277838	0.611368
C100	C	-0.906774	0.342910	0.105973
N101	N	-0.940927	0.317426	0.147864
H102	H	-0.015667	-0.203100	-0.000274
C103	C	-0.824579	0.108020	0.138437
N104	N	-0.825012	0.078020	0.193136
C105	C	-0.382587	-0.195442	0.088895
N106	N	-0.407197	-0.236056	0.124061
H107	H	-0.803311	-0.207312	0.430629
C108	C	-0.919693	0.006959	0.184616
N109	N	-0.958948	0.046199	0.153032
C110	C	-0.919714	0.006945	0.344687
N111	N	-0.958986	0.046168	0.376252
H112	H	-0.242664	-0.179506	0.076742
H113	H	-0.046436	0.026600	-0.000308
H114	H	-0.397755	-0.005473	-0.077190
H115	H	-0.493322	0.020044	-0.000188
H116	H	-0.906198	-0.006585	0.665721
H117	H	-0.837103	0.022329	0.430656
C118	C	-0.637533	0.036062	-0.000144
N119	N	-0.674570	0.088074	-0.000137
H120	H	-0.837111	0.022324	0.568947
H121	H	-0.734273	-0.178403	0.804067
