data_functionalizedCrystal
_audit_creation_method	'MofGen! by Chris Wilmer'
_symmetry_space_group_name_H-M	'P1'
_symmetry_Int_Tables_number	1
_symmetry_cell_setting	triclinic
loop_
_symmetry_equiv_pos_as_xyz
  x,y,z
_cell_length_a	13.185407
_cell_length_b	19.288857
_cell_length_c	18.366186
_cell_angle_alpha	89.991598
_cell_angle_beta	90.008881
_cell_angle_gamma	112.446704
loop_
_atom_site_label
_atom_site_type_symbol
_atom_site_fract_x
_atom_site_fract_y
_atom_site_fract_z
O1	O	1.447872	0.181120	0.060520
O2	O	1.130026	0.110648	0.060529
O3	O	1.298138	0.248714	0.060515
O4	O	1.279760	0.043054	0.060533
O5	O	1.298109	0.248714	-0.060584
O6	O	1.129997	0.110648	-0.060570
O7	O	1.447844	0.181120	-0.060580
Zn8	Zn	1.288916	0.145884	-0.079802
Zn9	Zn	1.288954	0.145884	0.079752
O10	O	1.279732	0.043054	-0.060566
C11	C	1.089348	0.103504	-0.000020
C12	C	0.968182	0.082225	-0.000016
C13	C	0.679933	0.285308	-0.000037
C14	C	0.793775	0.305304	-0.000045
C15	C	0.837382	0.249536	-0.000038
C16	C	0.767137	0.173769	-0.000023
C17	C	0.653284	0.153772	-0.000021
C18	C	0.810733	0.117999	-0.000021
C19	C	0.740487	0.042232	-0.000007
C20	C	0.626646	0.022239	-0.000004
C21	C	0.583038	0.078006	-0.000012
C22	C	0.924586	0.137996	-0.000023
C23	C	0.897936	0.006460	-0.000007
C24	C	0.784095	-0.013536	0.000001
C25	C	1.297534	0.274481	-0.000035
C26	C	1.295763	0.351258	-0.000037
C27	C	1.488522	0.188264	-0.000029
C28	C	1.609688	0.209543	-0.000028
C29	C	1.280336	0.017287	-0.000014
C30	C	1.282107	-0.059490	-0.000007
C31	C	1.294952	0.387316	0.065974
C32	C	1.293272	0.459451	0.065980
C33	C	1.292426	0.495532	-0.000030
C34	C	1.293231	0.459464	-0.066050
C35	C	1.294899	0.387327	-0.066054
C36	C	1.353704	0.627098	-0.050599
C37	C	1.352042	0.699236	-0.050593
C38	C	1.287275	0.718025	-0.000021
C39	C	1.224184	0.664672	0.050556
C40	C	1.225852	0.592535	0.050552
C41	C	1.290616	0.573752	-0.000033
C42	C	1.284641	0.832300	0.066000
C43	C	1.282955	0.904435	0.066003
C44	C	1.282925	0.904449	-0.066029
C45	C	1.284600	0.832313	-0.066029
C46	C	1.285463	0.796244	-0.000013
N47	N	1.288898	0.145886	-0.188693
C48	C	1.363363	0.207003	-0.226800
C49	C	1.363370	0.207007	-0.303028
C50	C	1.288923	0.145885	-0.341146
C51	C	1.214445	0.084762	-0.303030
C52	C	1.214432	0.084762	-0.226804
C53	C	1.274308	0.079894	-0.461900
C54	C	1.274328	0.079894	-0.538125
C55	C	1.288954	0.145882	-0.576254
C56	C	1.303583	0.211877	-0.538147
C57	C	1.303571	0.211878	-0.461921
C58	C	1.288927	0.145877	-0.423801
C59	C	1.363429	0.207008	-0.697015
C60	C	1.363429	0.207012	-0.773244
C61	C	1.214509	0.084761	-0.773246
C62	C	1.214504	0.084762	-0.697018
C63	C	1.288970	0.145886	-0.658907
N64	N	1.288980	0.145889	0.188643
H65	H	0.850961	0.366993	-0.000060
H66	H	1.406444	0.611808	-0.091786
H67	H	1.292605	0.488813	0.119736
Cl68	Cl	0.439918	0.052872	0.000009
Cl69	Cl	1.120849	0.007924	-0.350949
H70	H	0.981769	0.199686	-0.000034
Cl71	Cl	1.256022	-0.003054	-0.413976
Cl72	Cl	0.538339	-0.073011	0.000005
H73	H	1.153793	0.034993	-0.195777
H74	H	0.726885	-0.075226	0.000012
Cl75	Cl	1.321948	0.294836	-0.414018
H76	H	0.933440	-0.038951	-0.000003
Cl77	Cl	0.625106	0.355407	-0.000055
H78	H	1.295652	0.357952	0.119730
Cl79	Cl	1.321979	0.294841	-0.586071
H80	H	1.262423	0.026158	-0.569146
Cl81	Cl	1.146537	0.525464	0.114128
H82	H	0.930078	0.265821	-0.000044
H83	H	1.171444	0.679967	0.091736
H84	H	1.285338	0.802929	0.119755
Cl85	Cl	1.281928	0.949763	0.148997
Cl86	Cl	1.281854	0.949799	-0.149013
Cl87	Cl	1.285619	0.786980	-0.149020
H88	H	1.403419	0.742672	-0.091773
H89	H	1.292538	0.488844	-0.119795
H90	H	1.424061	0.256780	-0.665984
Cl91	Cl	1.295917	0.341994	-0.149046
Cl92	Cl	1.456969	0.283844	-0.178890
Cl93	Cl	1.456991	0.283846	-0.350941
H94	H	1.424063	0.256783	-0.804271
Cl95	Cl	1.120910	0.007925	-0.821161
Cl96	Cl	1.120894	0.007924	-0.649108
