data_functionalizedCrystal
_audit_creation_method	'MofGen! by Chris Wilmer'
_symmetry_space_group_name_H-M	'P1'
_symmetry_Int_Tables_number	1
_symmetry_cell_setting	triclinic
loop_
_symmetry_equiv_pos_as_xyz
  x,y,z
_cell_length_a	10.723023
_cell_length_b	15.995292
_cell_length_c	9.198806
_cell_angle_alpha	90.000009
_cell_angle_beta	89.996513
_cell_angle_gamma	83.968082
loop_
_atom_site_label
_atom_site_type_symbol
_atom_site_fract_x
_atom_site_fract_y
_atom_site_fract_z
O1	O	1.655654	0.117435	-0.120866
O2	O	1.292354	0.128676	-0.120871
O3	O	1.483973	0.001222	-0.120871
O4	O	1.464035	0.244889	-0.120867
O5	O	1.483958	0.001221	0.120914
O6	O	1.292339	0.128676	0.120914
O7	O	1.655639	0.117434	0.120919
Cu8	Cu	1.473987	0.123055	0.142993
Cu9	Cu	1.474005	0.123055	-0.142946
O10	O	1.464020	0.244889	0.120918
C11	C	1.245858	0.127858	0.000020
C12	C	1.107335	0.125411	0.000018
C13	C	1.045570	0.124320	0.125269
C14	C	0.902400	0.121790	0.125269
C15	C	1.483154	-0.029979	0.000018
C16	C	1.480721	-0.122946	0.000007
C17	C	1.471778	-0.460735	0.000020
C18	C	1.610083	-0.436629	0.000562
C19	C	1.612711	-0.339938	0.000012
C20	C	1.476215	-0.293154	0.000014
C21	C	1.407078	-0.322652	-0.138053
C22	C	1.405413	-0.419452	-0.138164
C23	C	1.402572	-0.419326	0.136791
C24	C	1.407697	-0.322804	0.138611
C25	C	1.478716	-0.198444	0.000006
C26	C	1.469273	-0.555446	0.000018
C27	C	1.702135	0.118252	0.000024
C28	C	1.840657	0.120700	0.000017
C29	C	1.464839	0.276089	0.000026
C30	C	1.467272	0.369056	0.000028
N31	N	1.473984	0.123054	0.344107
N32	N	1.474019	0.123050	-0.344060
C33	C	1.554442	0.069304	0.416304
C34	C	1.554462	0.069301	0.583717
H35	H	1.098684	0.125253	0.232500
C36	C	1.268422	-0.439898	-0.146655
N37	N	1.165243	-0.455295	-0.153064
H38	H	1.623350	0.023286	0.645803
H39	H	1.405136	0.169073	0.593863
H40	H	1.623308	0.023284	0.354178
C41	C	1.273097	-0.279040	0.149877
N42	N	1.171711	-0.246079	0.158350
H43	H	1.405110	0.169067	0.406235
H44	H	0.849282	0.120857	0.232501
H45	H	1.054223	0.124470	-0.107213
C46	C	0.912404	0.121966	-0.144860
N47	N	0.966454	0.122919	-0.253982
H48	H	1.666858	-0.320602	0.098982
H49	H	1.446120	-0.447164	0.241446
C50	C	1.471962	-0.295188	-0.276867
N51	N	1.520841	-0.274506	-0.381419
C52	C	1.682100	-0.474044	0.134322
N53	N	1.736345	-0.502231	0.235073
H54	H	1.306635	-0.291361	-0.143185
C55	C	1.265047	-0.439029	0.138066
N56	N	1.161469	-0.453879	0.139019
C57	C	1.681712	-0.475415	-0.132452
N58	N	1.735659	-0.504630	-0.232640
H59	H	1.667190	-0.321221	-0.099132
C60	C	1.470135	-0.455312	-0.277583
N61	N	1.518892	-0.482318	-0.382593
H62	H	1.458039	-0.303949	0.240752
