data_functionalizedCrystal
_audit_creation_method	'MofGen! by Chris Wilmer'
_symmetry_space_group_name_H-M	'P1'
_symmetry_Int_Tables_number	1
_symmetry_cell_setting	triclinic
loop_
_symmetry_equiv_pos_as_xyz
  x,y,z
_cell_length_a	23.532407
_cell_length_b	23.532407
_cell_length_c	9.130307
_cell_angle_alpha	89.992076
_cell_angle_beta	90.001167
_cell_angle_gamma	82.848712
loop_
_atom_site_label
_atom_site_type_symbol
_atom_site_fract_x
_atom_site_fract_y
_atom_site_fract_z
O1	O	0.755257	0.069134	-0.121722
O2	O	0.589394	0.079137	-0.121747
O3	O	0.677327	-0.008796	-0.121707
O4	O	0.667324	0.157068	-0.121762
O5	O	0.677324	-0.008797	0.121892
O6	O	0.589391	0.079137	0.121852
O7	O	0.755254	0.069134	0.121877
Cu8	Cu	0.672322	0.074135	0.144107
Cu9	Cu	0.672326	0.074136	-0.143977
O10	O	0.667321	0.157067	0.121837
C11	C	0.568176	0.078882	0.000050
C12	C	0.504959	0.078116	0.000041
C13	C	0.238792	0.022921	0.000099
C14	C	0.298192	0.023632	0.000099
O15	O	0.334937	-0.020153	0.000164
N16	N	0.320818	0.075909	0.000071
C17	C	0.284041	0.127477	0.000060
O18	O	0.308740	0.172007	0.000038
C19	C	0.224642	0.126765	0.000071
C20	C	0.202019	0.074485	0.000083
C21	C	0.216169	-0.029354	0.000114
C22	C	0.156772	-0.030066	0.000111
C23	C	0.119999	0.021499	0.000095
C24	C	0.142623	0.073774	0.000081
C25	C	0.187865	0.178333	0.000069
C26	C	0.128463	0.177616	0.000082
C27	C	0.105840	0.125336	0.000094
C28	C	0.046454	0.124627	0.000063
N29	N	0.023828	0.072351	0.000090
C30	C	0.060600	0.020787	0.000106
C31	C	0.408783	0.128968	0.000039
C32	C	0.468181	0.129681	0.000017
C33	C	0.482328	0.025836	0.000059
C34	C	0.422929	0.025124	0.000070
C35	C	0.386157	0.076692	0.000066
C36	C	-0.064136	0.019297	0.000101
C37	C	-0.123538	0.018590	0.000092
C38	C	-0.137680	0.122435	0.000058
C39	C	-0.078284	0.123142	0.000059
C40	C	-0.041512	0.071568	0.000085
O41	O	0.009675	0.168390	0.000003
O42	O	0.035892	-0.023737	0.000148
C43	C	0.677071	-0.030012	0.000096
C44	C	0.676305	-0.093229	0.000108
C45	C	0.723538	-0.492332	0.000034
C46	C	0.722827	-0.551733	0.000023
O47	O	0.766613	-0.588477	-0.000024
N48	N	0.670551	-0.574359	0.000016
C49	C	0.618982	-0.537581	0.000006
O50	O	0.574452	-0.562281	-0.000002
C51	C	0.619695	-0.478182	0.000007
C52	C	0.671974	-0.455559	0.000028
C53	C	0.775814	-0.469709	0.000055
C54	C	0.776525	-0.410313	0.000069
C55	C	0.724961	-0.373540	0.000062
C56	C	0.672685	-0.396163	0.000042
C57	C	0.568127	-0.441406	-0.000014
C58	C	0.568843	-0.382003	-0.000015
C59	C	0.621123	-0.359381	0.000007
C60	C	0.621832	-0.299994	0.000050
N61	N	0.674109	-0.277368	0.000057
C62	C	0.725673	-0.314141	0.000063
C63	C	0.617491	-0.662324	0.000002
C64	C	0.616778	-0.721722	0.000011
C65	C	0.720623	-0.735869	0.000026
C66	C	0.721335	-0.676470	0.000027
C67	C	0.669767	-0.639698	0.000009
C68	C	0.727163	-0.189404	0.000094
C69	C	0.727869	-0.130002	0.000114
C70	C	0.624025	-0.115860	0.000091
C71	C	0.623318	-0.175257	0.000079
C72	C	0.674891	-0.212028	0.000075
O73	O	0.578069	-0.263215	0.000091
O74	O	0.770196	-0.289433	0.000052
C75	C	0.776472	0.069389	0.000077
C76	C	0.839689	0.070155	0.000076
C77	C	0.667577	0.178283	0.000031
C78	C	0.668343	0.241500	0.000010
N79	N	0.672324	0.074134	0.346730
N80	N	0.672328	0.074132	-0.346600
C81	C	0.750220	-0.003709	0.346756
C82	C	0.789172	-0.042629	0.423435
C83	C	0.789178	-0.042629	0.576769
C84	C	0.750226	-0.003707	0.653426
C85	C	0.711275	0.035213	0.576746
C86	C	0.711274	0.035210	0.423410
C87	C	0.633377	0.113052	0.576721
C88	C	0.633373	0.113056	0.423387
C89	C	0.594425	0.151975	0.653378
C90	C	0.555475	0.190898	0.576699
C91	C	0.555471	0.190897	0.423356
C92	C	0.594421	0.151976	0.346708
H93	H	0.512280	-0.016150	0.000073
N94	N	-0.146636	-0.034820	0.000095
N95	N	-0.113792	-0.080854	0.000110
H96	H	-0.130103	-0.118574	0.000113
N97	N	-0.055180	0.176547	0.000054
N98	N	-0.066556	0.211229	0.102730
H99	H	-0.050243	0.248948	0.102742
N100	N	0.564812	-0.624763	-0.000026
N101	N	0.529970	-0.626658	-0.102716
H102	H	0.492765	-0.600133	-0.102741
H103	H	0.098525	0.219610	0.000085
H104	H	-0.167631	0.164417	0.000038
H105	H	0.750224	-0.003708	0.221903
N106	N	0.253726	-0.082031	0.000094
N107	N	0.288440	-0.093222	-0.102602
H108	H	0.314962	-0.130428	-0.102628
N109	N	0.828895	-0.082425	0.345061
N110	N	0.828347	-0.135053	0.362213
H111	H	0.856376	-0.163174	0.306832
H112	H	0.750229	-0.003714	0.778278
N113	N	0.594437	0.151979	0.190083
N114	N	0.629222	0.117232	0.121664
H115	H	0.629238	0.117234	0.011044
H116	H	0.582043	-0.085909	0.000091
H117	H	0.770443	-0.111587	0.000135
H118	H	0.523761	0.222584	0.639123
H119	H	0.769159	-0.219337	0.000085
H120	H	0.820894	-0.074323	0.639201
N121	N	0.371231	0.181653	0.000028
N122	N	0.391447	0.228321	0.000005
H123	H	0.364929	0.265530	-0.000000
N124	N	0.210952	0.231742	0.000081
N125	N	0.199571	0.266420	0.102765
H126	H	0.215873	0.304144	0.102778
N127	N	0.829933	-0.387219	0.000085
N128	N	0.875964	-0.420067	0.000085
H129	H	0.913687	-0.403761	0.000091
N130	N	0.828496	-0.507258	0.000051
N131	N	0.875162	-0.487039	0.000064
H132	H	0.912372	-0.513555	0.000069
H133	H	0.580747	-0.193677	0.000102
N134	N	0.515674	0.230654	0.345057
N135	N	0.480902	0.265398	0.413525
H136	H	0.452793	0.293477	0.358233
N137	N	0.594418	0.151980	0.810004
N138	N	0.559636	0.186730	0.878425
H139	H	0.559628	0.186735	0.989044
N140	N	0.774737	-0.653363	0.000070
N141	N	0.809418	-0.664742	0.102766
H142	H	0.847135	-0.648425	0.102798
N143	N	-0.026581	-0.033383	0.000151
N144	N	-0.028481	-0.068227	0.102847
H145	H	-0.001957	-0.105432	0.102879
N146	N	0.133678	-0.083474	0.000124
N147	N	0.166527	-0.129505	0.000141
H148	H	0.150221	-0.167228	0.000153
N149	N	0.773303	-0.773429	0.000034
N150	N	0.808149	-0.771543	0.102720
H151	H	0.845352	-0.798069	0.102727
N152	N	0.563376	-0.744827	0.000038
N153	N	0.528693	-0.733461	0.102723
H154	H	0.490975	-0.749777	0.102738
N155	N	0.399833	-0.028283	0.000080
N156	N	0.432679	-0.074316	0.000086
H157	H	0.416371	-0.112037	0.000095
H158	H	0.486595	0.172252	-0.000013
N159	N	0.514719	-0.464495	-0.000040
N160	N	0.468688	-0.431644	-0.000062
H161	H	0.430965	-0.447949	-0.000085
N162	N	0.516161	-0.344450	-0.000051
N163	N	0.469491	-0.364662	-0.000079
H164	H	0.432284	-0.338142	-0.000106
