data_functionalizedCrystal
_audit_creation_method	'MofGen! by Chris Wilmer'
_symmetry_space_group_name_H-M	'P1'
_symmetry_Int_Tables_number	1
_symmetry_cell_setting	triclinic
loop_
_symmetry_equiv_pos_as_xyz
  x,y,z
_cell_length_a	16.109301
_cell_length_b	13.330367
_cell_length_c	14.853569
_cell_angle_alpha	90.005810
_cell_angle_beta	83.548523
_cell_angle_gamma	90.004834
loop_
_atom_site_label
_atom_site_type_symbol
_atom_site_fract_x
_atom_site_fract_y
_atom_site_fract_z
O1	O	1.103299	0.083363	0.115881
O2	O	0.861257	0.083379	0.130302
O3	O	0.988743	0.083361	-0.008149
O4	O	0.975814	0.083381	0.254332
O5	O	0.988724	-0.083486	-0.008152
O6	O	0.861239	-0.083468	0.130299
O7	O	1.103280	-0.083484	0.115878
Cu8	Cu	0.982258	-0.098711	0.123088
Cu9	Cu	0.982280	0.098605	0.123092
O10	O	0.975795	-0.083466	0.254329
C11	C	0.830272	-0.000043	0.129717
C12	C	0.737975	-0.000037	0.127965
N13	N	0.982249	-0.237492	0.123085
C14	C	0.515812	-0.000042	0.206047
C15	C	0.429090	-0.000049	0.204394
C16	C	0.448732	-0.000057	0.040127
C17	C	0.535453	-0.000058	0.041781
C18	C	0.568991	-0.000045	0.124743
C19	C	0.395547	-0.000051	0.121437
C20	C	0.301518	-0.000058	0.119645
C21	C	0.663025	-0.000040	0.126536
C22	C	0.925827	-0.710107	0.184374
C23	C	1.038755	-0.710091	0.061803
C24	C	1.038746	-0.605073	0.061800
C25	C	0.982277	-0.552567	0.123086
C26	C	0.925817	-0.605079	0.184375
C27	C	1.095210	-0.552553	0.000519
C28	C	1.095204	-0.447528	0.000514
C29	C	1.038730	-0.395020	0.061797
C30	C	0.982267	-0.447539	0.123087
C31	C	0.925799	-0.395033	0.184373
C32	C	0.869331	-0.447549	0.245660
C33	C	0.869344	-0.552571	0.245657
C34	C	1.038718	-0.289998	0.061799
C35	C	0.925789	-0.290004	0.184374
C36	C	1.134265	-0.000061	0.116464
C37	C	1.226563	-0.000060	0.118215
C38	C	0.988147	-0.000063	-0.041738
C39	C	0.986391	-0.000064	-0.141819
N40	N	0.982296	0.237387	0.123088
C41	C	0.909838	-0.000061	-0.178069
C42	C	1.061294	-0.000060	-0.199608
C43	C	1.059647	-0.000055	-0.293640
C44	C	0.983094	-0.000052	-0.329890
C45	C	0.908188	-0.000053	-0.272109
C46	C	1.134551	-0.000044	-0.351428
C47	C	1.132907	-0.000039	-0.445466
C48	C	1.056353	-0.000042	-0.481717
C49	C	0.981444	-0.000045	-0.423930
C50	C	0.904891	-0.000041	-0.460180
C51	C	0.829981	-0.000051	-0.402394
C52	C	0.831634	-0.000057	-0.308360
C53	C	1.054700	-0.000036	-0.575751
C54	C	0.903241	-0.000034	-0.554220
C55	C	0.976390	-0.000040	0.287918
C56	C	0.978147	-0.000033	0.387999
H57	H	0.385795	-0.000049	0.270600
H58	H	0.421415	-0.000074	-0.027418
O59	O	0.814594	-0.396430	0.305231
C60	C	0.797036	-0.277887	0.428384
C61	C	0.859114	-0.335704	0.360960
H62	H	0.833006	-0.228792	0.473471
H63	H	0.755476	-0.228657	0.389492
H64	H	0.756661	-0.333473	0.472146
H65	H	0.899544	-0.280189	0.317180
H66	H	0.900617	-0.384948	0.399907
H67	H	0.578754	-0.000063	-0.024431
H68	H	0.770647	-0.000062	-0.261303
H69	H	0.823371	-0.595337	0.295556
H70	H	1.084696	-0.247244	0.011904
O71	O	0.870862	-0.761072	0.243814
C72	C	0.726363	-0.793177	0.296619
C73	C	0.788519	-0.735414	0.229241
H74	H	0.659775	-0.772438	0.284873
H75	H	0.735992	-0.877271	0.286091
H76	H	0.737315	-0.772534	0.368826
H77	H	0.777604	-0.755973	0.157007
H78	H	0.778875	-0.651334	0.239847
H79	H	0.879802	-0.247260	0.234278
O80	O	0.828896	-0.000206	-0.589473
C81	C	0.739149	-0.086599	-0.683203
C82	C	0.823363	-0.086541	-0.643323
H83	H	0.734655	-0.156382	-0.726764
H84	H	0.685864	-0.086671	-0.625784
H85	H	0.734605	-0.016735	-0.726636
H86	H	0.827988	-0.156393	-0.599900
H87	H	0.876607	-0.086416	-0.700785
O88	O	1.093564	-0.760987	0.002147
C89	C	1.142047	-0.793192	-0.154604
C90	C	1.079946	-0.735465	-0.087136
H91	H	1.131047	-0.772595	-0.226804
H92	H	1.208669	-0.772515	-0.142923
H93	H	1.132361	-0.877268	-0.144026
H94	H	1.089556	-0.651376	-0.097674
H95	H	1.013347	-0.756226	-0.098834
O96	O	1.150014	-0.603453	-0.059139
C97	C	1.198491	-0.635659	-0.215891
C98	C	1.136399	-0.577923	-0.148420
H99	H	1.187493	-0.615056	-0.288090
H100	H	1.265116	-0.614997	-0.204210
H101	H	1.188793	-0.719734	-0.205315
H102	H	1.146021	-0.493835	-0.158956
H103	H	1.069796	-0.598669	-0.160118
O104	O	1.149855	-0.396512	-0.059225
C105	C	1.167113	-0.278343	-0.182667
C106	C	1.105184	-0.335970	-0.114938
H107	H	1.131020	-0.229397	-0.227741
H108	H	1.208799	-0.228983	-0.144032
H109	H	1.207374	-0.334053	-0.226412
H110	H	1.064867	-0.280333	-0.071175
H111	H	1.063555	-0.385346	-0.153628
H112	H	0.767652	-0.000042	-0.431921
H113	H	0.848849	-0.000072	-0.131016
O114	O	1.135581	-0.000106	-0.164248
C115	C	1.205244	-0.000052	-0.028925
C116	C	1.121052	-0.000020	-0.068853
H117	H	1.193527	0.000039	0.048207
H118	H	1.242271	-0.069894	-0.052664
H119	H	1.242269	0.069756	-0.052770
H120	H	1.083960	-0.069781	-0.045026
H121	H	1.084089	0.069868	-0.045118
O122	O	1.208837	-0.000092	-0.316066
C123	C	1.278495	-0.000053	-0.180740
C124	C	1.194305	-0.000019	-0.220671
H125	H	1.266775	0.000027	-0.103607
H126	H	1.315525	-0.069891	-0.204485
H127	H	1.315518	0.069759	-0.204575
H128	H	1.157215	-0.069785	-0.196853
H129	H	1.157339	0.069865	-0.196929
H130	H	0.543115	-0.000040	0.273600
H131	H	1.193903	-0.000033	-0.492508
H132	H	1.115690	-0.000019	-0.622796
