data_functionalizedCrystal
_audit_creation_method	'MofGen! by Chris Wilmer'
_symmetry_space_group_name_H-M	'P1'
_symmetry_Int_Tables_number	1
_symmetry_cell_setting	triclinic
loop_
_symmetry_equiv_pos_as_xyz
  x,y,z
_cell_length_a	19.188930
_cell_length_b	19.188924
_cell_length_c	9.482900
_cell_angle_alpha	99.300357
_cell_angle_beta	80.728812
_cell_angle_gamma	83.143372
loop_
_atom_site_label
_atom_site_type_symbol
_atom_site_fract_x
_atom_site_fract_y
_atom_site_fract_z
O1	O	0.937102	0.076159	-0.121374
O2	O	0.733781	0.087902	-0.121275
O3	O	0.841310	-0.019624	-0.121310
O4	O	0.829573	0.183685	-0.121338
O5	O	0.819468	0.002304	0.120490
O6	O	0.711939	0.109831	0.120525
O7	O	0.915260	0.098087	0.120426
Cu8	Cu	0.811605	0.105961	0.142554
Cu9	Cu	0.837436	0.080028	-0.143402
O10	O	0.807731	0.205614	0.120461
C11	C	0.696848	0.098488	-0.000362
C12	C	0.619340	0.097350	-0.000324
C13	C	0.574418	0.160439	-0.000356
C14	C	0.501595	0.159366	-0.000371
C15	C	0.473701	0.095198	-0.000385
C16	C	0.518633	0.032102	-0.000345
C17	C	0.591453	0.033179	-0.000314
N18	N	0.373161	0.038683	-0.082731
N19	N	0.303985	0.037665	-0.082763
C20	C	0.254301	0.091952	-0.000473
N21	N	0.276406	0.147305	0.081832
N22	N	0.345588	0.148325	0.081857
C23	C	0.394742	0.094024	-0.000417
C24	C	0.130415	0.153881	-0.000520
C25	C	0.057591	0.152806	-0.000527
C26	C	0.074632	0.025540	-0.000515
C27	C	0.147453	0.026618	-0.000493
C28	C	0.175341	0.090790	-0.000503
C29	C	0.830009	-0.034671	-0.000409
C30	C	0.828870	-0.112175	-0.000404
C31	C	0.840245	-0.160527	-0.132209
C32	C	0.839166	-0.233351	-0.132220
C33	C	0.826726	-0.257821	-0.000418
C34	C	0.815346	-0.209458	0.131405
C35	C	0.816418	-0.136635	0.131411
N36	N	0.855914	-0.368589	0.097661
N37	N	0.854898	-0.437769	0.097645
C38	C	0.823493	-0.477231	-0.000430
N39	N	0.793153	-0.444903	-0.098512
N40	N	0.794173	-0.375718	-0.098501
C41	C	0.825561	-0.336784	-0.000410
C42	C	0.833697	-0.604548	-0.132256
C43	C	0.832613	-0.677372	-0.132261
C44	C	0.808800	-0.653478	0.131368
C45	C	0.809877	-0.580655	0.131369
C46	C	0.822329	-0.556195	-0.000447
C47	C	0.952193	0.087502	-0.000490
C48	C	1.029702	0.088638	-0.000538
C49	C	0.819032	0.220660	-0.000443
C50	C	0.820172	0.298164	-0.000457
N51	N	0.793443	0.124201	0.343680
N52	N	0.855604	0.061784	-0.344529
C53	C	0.832074	0.085405	0.415866
C54	C	0.816967	0.100585	0.583289
H55	H	0.153120	0.206136	-0.000506
H56	H	0.749183	0.168652	0.405824
H57	H	0.848424	-0.272726	-0.239555
O58	O	0.805388	-0.089762	0.259583
C59	C	0.794153	-0.126968	0.375919
H60	H	0.818978	-0.185341	0.337268
H61	H	0.820025	-0.102111	0.468094
H62	H	0.734374	-0.123538	0.416467
H63	H	0.495919	-0.020145	-0.000376
H64	H	0.805215	-0.229386	0.238719
O65	O	0.047435	-0.036738	-0.000595
C66	C	-0.026475	-0.024158	-0.000588
H67	H	-0.039599	0.026230	-0.046371
H68	H	-0.042353	-0.071570	-0.070798
H69	H	-0.057238	-0.016962	0.115408
O70	O	0.635002	-0.028179	-0.000358
C71	C	0.594767	-0.085044	-0.000329
H72	H	0.544503	-0.071310	-0.046123
H73	H	0.628120	-0.135602	-0.070519
H74	H	0.579143	-0.094204	0.115675
H75	H	0.184031	-0.024756	-0.000476
H76	H	0.850382	-0.140617	-0.239544
H77	H	0.843832	-0.584631	-0.239588
O78	O	0.764121	0.153541	0.657570
C79	C	0.713130	0.124331	0.745634
H80	H	0.738931	0.071608	0.768269
H81	H	0.692457	0.163183	0.852741
H82	H	0.666769	0.114582	0.687107
O83	O	0.843714	-0.724253	-0.260434
C84	C	0.854922	-0.687042	-0.376767
H85	H	0.874289	-0.634586	-0.338120
H86	H	0.896840	-0.720975	-0.468954
H87	H	0.802700	-0.675474	-0.417297
H88	H	0.798666	-0.673400	0.238683
O89	O	0.798857	-0.533783	0.259536
C90	C	0.787629	-0.570991	0.375870
H91	H	0.812452	-0.629364	0.337211
H92	H	0.813508	-0.546136	0.468037
H93	H	0.727851	-0.567559	0.416432
H94	H	0.876329	0.040948	0.353724
O95	O	0.908318	0.008607	0.581568
C96	C	0.893563	-0.057008	0.618925
H97	H	0.833860	-0.053189	0.660819
H98	H	0.910607	-0.101193	0.518887
H99	H	0.924291	-0.069701	0.707271
O100	O	0.601383	0.222842	-0.000284
C101	C	0.546114	0.278292	-0.000351
H102	H	0.492559	0.263020	0.045403
H103	H	0.554837	0.329473	0.069856
H104	H	0.546255	0.287223	-0.116360
H105	H	0.021014	0.204183	-0.000544
O106	O	0.457894	0.220587	-0.000605
C107	C	0.426619	0.212409	-0.125877
H108	H	0.426892	0.153213	-0.167611
H109	H	0.369255	0.241133	-0.097749
H110	H	0.458419	0.236269	-0.213565
