data_functionalizedCrystal
_audit_creation_method	'MofGen! by Chris Wilmer'
_symmetry_space_group_name_H-M	'P1'
_symmetry_Int_Tables_number	1
_symmetry_cell_setting	triclinic
loop_
_symmetry_equiv_pos_as_xyz
  x,y,z
_cell_length_a	15.995300
_cell_length_b	14.519709
_cell_length_c	13.596369
_cell_angle_alpha	90.000208
_cell_angle_beta	89.993087
_cell_angle_gamma	83.575976
loop_
_atom_site_label
_atom_site_type_symbol
_atom_site_fract_x
_atom_site_fract_y
_atom_site_fract_z
O1	O	1.111190	0.118654	-0.081814
O2	O	1.361190	0.368654	0.168186
O3	O	1.611190	0.618654	0.418186
O4	O	1.861190	0.868654	0.668186
O5	O	0.867431	0.133381	-0.081806
O6	O	1.117431	0.383381	0.168194
O7	O	1.367431	0.633381	0.418194
O8	O	1.617431	0.883381	0.668194
O9	O	0.995774	-0.008234	-0.081819
O10	O	1.245774	0.241766	0.168181
O11	O	1.495774	0.491766	0.418181
O12	O	1.745774	0.741766	0.668181
O13	O	0.982848	0.260269	-0.081801
O14	O	1.232848	0.510269	0.168199
O15	O	1.482848	0.760269	0.418199
O16	O	1.732848	1.010269	0.668199
O17	O	0.995761	-0.008241	0.081764
O18	O	1.245761	0.241759	0.331764
O19	O	1.495761	0.491759	0.581764
O20	O	1.745761	0.741759	0.831764
O21	O	0.867419	0.133374	0.081777
O22	O	1.117419	0.383374	0.331777
O23	O	1.367419	0.633374	0.581777
O24	O	1.617419	0.883374	0.831777
O25	O	1.111177	0.118646	0.081769
O26	O	1.361177	0.368646	0.331769
O27	O	1.611177	0.618646	0.581769
O28	O	1.861177	0.868646	0.831769
Zn29	Zn	0.989296	0.126009	0.107745
Zn30	Zn	1.239296	0.376009	0.357745
Zn31	Zn	1.489296	0.626009	0.607745
Zn32	Zn	1.739296	0.876009	0.857745
Zn33	Zn	0.989313	0.126019	-0.107782
Zn34	Zn	1.239313	0.376019	0.142218
Zn35	Zn	1.489313	0.626019	0.392218
Zn36	Zn	1.739313	0.876019	0.642218
O37	O	0.982835	0.260261	0.081782
O38	O	1.232835	0.510261	0.331782
O39	O	1.482835	0.760261	0.581782
O40	O	1.732835	1.010261	0.831782
C41	C	0.836229	0.132777	-0.000014
C42	C	1.086229	0.382777	0.249986
C43	C	1.336229	0.632777	0.499986
C44	C	1.586229	0.882777	0.749986
C45	C	0.743273	0.130976	-0.000012
C46	C	0.993273	0.380976	0.249988
C47	C	1.243273	0.630976	0.499988
C48	C	1.493273	0.880976	0.749988
C49	C	0.573085	0.127650	-0.000020
C50	C	0.823085	0.377650	0.249980
C51	C	1.073085	0.627650	0.499980
C52	C	1.323085	0.877650	0.749980
C53	C	0.525770	0.228484	-0.000010
C54	C	0.775770	0.478484	0.249990
C55	C	1.025770	0.728484	0.499990
C56	C	1.275770	0.978484	0.749990
C57	C	0.429080	0.226644	-0.000384
C58	C	0.679080	0.476644	0.249616
C59	C	0.929080	0.726644	0.499616
C60	C	1.179080	0.976644	0.749616
C61	C	0.405524	0.124377	-0.000026
C62	C	0.655524	0.374377	0.249974
C63	C	0.905524	0.624377	0.499974
C64	C	1.155524	0.874377	0.749974
C65	C	0.446589	0.074354	-0.093259
C66	C	0.696589	0.324354	0.156741
C67	C	0.946589	0.574354	0.406741
C68	C	1.196589	0.824354	0.656741
C69	C	0.543226	0.076906	-0.093335
C70	C	0.793226	0.326906	0.156665
C71	C	1.043226	0.576906	0.406665
C72	C	1.293226	0.826906	0.656665
C73	C	0.543488	0.075405	0.092696
C74	C	0.793488	0.325405	0.342696
C75	C	1.043488	0.575405	0.592696
C76	C	1.293488	0.825405	0.842696
C77	C	0.446544	0.075414	0.093919
C78	C	0.696544	0.325414	0.343919
C79	C	0.946544	0.575414	0.593919
C80	C	1.196544	0.825414	0.843919
C81	C	0.310826	0.122522	-0.000033
C82	C	0.560826	0.372522	0.249967
C83	C	0.810826	0.622522	0.499967
C84	C	1.060826	0.872522	0.749967
C85	C	0.667784	0.129503	-0.000019
C86	C	0.917784	0.379503	0.249981
C87	C	1.167784	0.629503	0.499981
C88	C	1.417784	0.879503	0.749981
C89	C	0.995165	-0.042596	-0.000032
C90	C	1.245165	0.207404	0.249968
C91	C	1.495165	0.457404	0.499968
C92	C	1.745165	0.707404	0.749968
C93	C	0.993360	-0.144974	-0.000045
C94	C	1.243360	0.105026	0.249955
C95	C	1.493360	0.355026	0.499955
C96	C	1.743360	0.605026	0.749955
C97	C	1.142380	0.119251	-0.000025
C98	C	1.392380	0.369251	0.249975
C99	C	1.642380	0.619251	0.499975
C100	C	1.892380	0.869251	0.749975
C101	C	1.235336	0.121051	-0.000034
C102	C	1.485336	0.371051	0.249966
C103	C	1.735336	0.621051	0.499966
C104	C	1.985336	0.871051	0.749966
C105	C	0.983444	0.294624	-0.000007
C106	C	1.233444	0.544624	0.249993
C107	C	1.483444	0.794624	0.499993
C108	C	1.733444	1.044624	0.749993
C109	C	0.985249	0.397001	-0.000001
C110	C	1.235249	0.647001	0.249999
C111	C	1.485249	0.897001	0.499999
C112	C	1.735249	1.147001	0.749999
N113	N	0.989291	0.126002	0.254837
N114	N	1.239291	0.376002	0.504837
N115	N	1.489291	0.626002	0.754837
N116	N	1.739291	0.876002	1.004837
C117	C	0.991895	0.771884	-0.000040
C118	C	1.241895	1.021884	0.249960
C119	C	1.491895	1.271884	0.499960
C120	C	1.741895	1.521884	0.749960
C121	C	0.990049	0.667580	-0.000029
C122	C	1.240049	0.917580	0.249971
C123	C	1.490049	1.167580	0.499971
C124	C	1.740049	1.417580	0.749971
C125	C	0.988572	0.584446	-0.000019
C126	C	1.238572	0.834446	0.249981
C127	C	1.488572	1.084446	0.499981
C128	C	1.738572	1.334446	0.749981
C129	C	0.986726	0.480135	-0.000010
C130	C	1.236726	0.730135	0.249990
C131	C	1.486726	0.980135	0.499990
C132	C	1.736726	1.230135	0.749990
N133	N	0.989325	0.126019	-0.254874
N134	N	1.239325	0.376019	-0.004874
N135	N	1.489325	0.626019	0.245126
N136	N	1.739325	0.876019	0.495126
C137	C	0.989312	0.126020	0.656128
C138	C	1.239312	0.376020	0.906128
C139	C	1.489312	0.626020	1.156128
C140	C	1.739312	0.876020	1.406128
C141	C	0.989303	0.126018	0.544477
C142	C	1.239303	0.376018	0.794477
C143	C	1.489303	0.626018	1.044477
C144	C	1.739303	0.876018	1.294477
C145	C	0.989302	0.126011	0.455486
C146	C	1.239302	0.376011	0.705486
C147	C	1.489302	0.626011	0.955486
C148	C	1.739302	0.876011	1.205486
C149	C	0.989292	0.126008	0.343828
C150	C	1.239292	0.376008	0.593828
C151	C	1.489292	0.626008	0.843828
C152	C	1.739292	0.876008	1.093828
H153	H	0.564033	0.108598	0.163384
H154	H	0.814033	0.358598	0.413384
H155	H	1.064033	0.608598	0.663384
H156	H	1.314033	0.858598	0.913384
Cl157	Cl	0.386178	0.287074	-0.104166
Cl158	Cl	0.636178	0.537074	0.145834
Cl159	Cl	0.886178	0.787074	0.395834
Cl160	Cl	1.136178	1.037074	0.645834
Cl161	Cl	0.402935	0.127387	-0.200782
Cl162	Cl	0.652935	0.377387	0.049218
Cl163	Cl	0.902935	0.627387	0.299218
Cl164	Cl	1.152935	0.877387	0.549218
H165	H	0.545444	0.268405	-0.066763
H166	H	0.795444	0.518405	0.183237
H167	H	1.045444	0.768405	0.433237
H168	H	1.295444	1.018405	0.683237
H169	H	0.561604	0.112964	-0.163287
H170	H	0.811604	0.362964	0.086713
H171	H	1.061604	0.612964	0.336713
H172	H	1.311604	0.862964	0.586713
Cl173	Cl	0.592399	-0.039367	0.094088
Cl174	Cl	0.842399	0.210633	0.344088
Cl175	Cl	1.092399	0.460633	0.594088
Cl176	Cl	1.342399	0.710633	0.844088
H177	H	0.400670	0.265950	0.066434
H178	H	0.650670	0.515950	0.316434
H179	H	0.900670	0.765950	0.566434
H180	H	1.150670	1.015950	0.816434
Cl181	Cl	0.554930	0.291296	0.102765
Cl182	Cl	0.804930	0.541296	0.352765
Cl183	Cl	1.054930	0.791296	0.602765
Cl184	Cl	1.304930	1.041296	0.852765
H185	H	0.419253	0.111943	0.162894
H186	H	0.669253	0.361943	0.412894
H187	H	0.919253	0.611943	0.662894
H188	H	1.169253	0.861943	0.912894
H189	H	0.431094	0.000854	0.099819
H190	H	0.681094	0.250854	0.349819
H191	H	0.931094	0.500854	0.599819
H192	H	1.181094	0.750854	0.849819
Cl193	Cl	0.592886	-0.037406	-0.099488
Cl194	Cl	0.842886	0.212594	0.150512
Cl195	Cl	1.092886	0.462594	0.400512
Cl196	Cl	1.342886	0.712594	0.650512
H197	H	0.432377	-0.000789	-0.096469
H198	H	0.682377	0.249211	0.153531
H199	H	0.932377	0.499211	0.403531
H200	H	1.182377	0.749211	0.653531
