data_functionalizedCrystal
_audit_creation_method	'MofGen! by Chris Wilmer'
_symmetry_space_group_name_H-M	'P1'
_symmetry_Int_Tables_number	1
_symmetry_cell_setting	triclinic
loop_
_symmetry_equiv_pos_as_xyz
  x,y,z
_cell_length_a	14.971486
_cell_length_b	27.732048
_cell_length_c	14.048226
_cell_angle_alpha	89.988614
_cell_angle_beta	89.998499
_cell_angle_gamma	83.128392
loop_
_atom_site_label
_atom_site_type_symbol
_atom_site_fract_x
_atom_site_fract_y
_atom_site_fract_z
O1	O	1.185952	0.062991	-0.079062
O2	O	0.925432	0.070534	-0.079089
O3	O	1.063783	-0.003597	-0.079057
O4	O	1.047601	0.137122	-0.079094
O5	O	1.063767	-0.003601	0.079265
O6	O	0.925416	0.070530	0.079232
O7	O	1.185935	0.062986	0.079259
Zn8	Zn	1.055673	0.066757	0.104383
Zn9	Zn	1.055695	0.066763	-0.104212
O10	O	1.047584	0.137117	0.079227
C11	C	0.892105	0.070195	0.000068
C12	C	0.792824	0.069184	0.000059
C13	C	0.734910	0.112734	0.000048
C14	C	0.641626	0.111781	0.000063
C15	C	0.606257	0.067278	0.000081
C16	C	0.664178	0.023724	0.000094
C17	C	0.757460	0.024678	0.000086
C18	C	0.469746	0.021740	0.000108
C19	C	0.376457	0.020787	0.000114
C20	C	0.353912	0.108844	0.000084
C21	C	0.447195	0.109797	0.000076
C22	C	0.505109	0.066243	0.000088
C23	C	1.063435	-0.021608	0.000107
C24	C	1.062412	-0.075267	0.000114
C25	C	1.137729	-0.413735	0.000073
C26	C	1.133934	-0.615412	0.000060
O27	O	1.202806	-0.646350	0.000025
N28	N	1.051898	-0.634914	0.000052
C29	C	0.970804	-0.603994	0.000042
O30	O	0.900940	-0.625209	0.000025
C31	C	0.974601	-0.402318	0.000048
C32	C	1.056642	-0.382818	0.000066
C33	C	1.219764	-0.394235	0.000090
C34	C	1.220712	-0.343819	0.000098
C35	C	1.139625	-0.312902	0.000091
C36	C	1.057590	-0.332402	0.000074
C37	C	0.893508	-0.371398	0.000031
C38	C	0.894464	-0.320976	0.000030
C39	C	0.976506	-0.301477	0.000048
C40	C	0.977451	-0.251069	0.000075
N41	N	1.059487	-0.231567	0.000083
C42	C	1.140574	-0.262483	0.000091
C43	C	0.968817	-0.709877	0.000040
C44	C	0.967868	-0.760296	0.000040
C45	C	1.130998	-0.771710	0.000056
C46	C	1.131946	-0.721291	0.000063
C47	C	1.050854	-0.690375	0.000048
C48	C	1.142559	-0.156605	0.000110
C49	C	1.143500	-0.106184	0.000122
C50	C	0.980370	-0.094773	0.000101
C51	C	0.979429	-0.145190	0.000093
C52	C	1.060530	-0.176105	0.000094
O53	O	0.908616	-0.220103	0.000099
O54	O	1.210428	-0.241258	0.000086
C55	C	1.136781	-0.464151	0.000065
C56	C	1.054746	-0.483651	0.000049
C57	C	0.973659	-0.452734	0.000041
C58	C	1.053797	-0.534070	0.000049
C59	C	1.134884	-0.564986	0.000056
C60	C	1.216921	-0.545484	0.000064
C61	C	1.217868	-0.495067	0.000072
C62	C	0.891623	-0.472237	0.000033
C63	C	0.890682	-0.522654	0.000026
C64	C	0.971769	-0.553570	0.000033
C65	C	1.219263	0.063326	0.000100
C66	C	1.318544	0.064337	0.000103
C67	C	1.047932	0.155128	0.000062
C68	C	1.048955	0.208788	0.000048
N69	N	1.055665	0.066753	0.246743
N70	N	1.055710	0.066764	-0.246573
C71	C	1.116945	0.033942	0.296576
C72	C	1.116951	0.033941	0.396234
C73	C	1.055680	0.066755	0.446057
C74	C	0.994393	0.099569	0.396217
C75	C	0.994384	0.099566	0.296562
C76	C	0.994419	0.099572	0.603932
C77	C	0.994429	0.099575	0.703594
C78	C	1.116987	0.033947	0.703604
C79	C	1.116977	0.033945	0.603948
C80	C	1.055691	0.066759	0.554115
H81	H	1.210310	-0.090310	0.000139
O82	O	1.176500	0.002019	0.248329
C83	C	1.298092	-0.063057	0.258868
C84	C	1.230682	-0.026937	0.313622
H85	H	1.341929	-0.086471	0.311633
H86	H	1.259856	-0.087274	0.212256
H87	H	1.342438	-0.042141	0.212169
H88	H	1.186318	-0.047814	0.360373
H89	H	1.268974	-0.002720	0.360174
H90	H	0.825590	-0.447069	0.000025
H91	H	1.285799	-0.419403	0.000092
H92	H	1.208600	-0.181771	0.000107
H93	H	0.823869	-0.538525	0.000020
H94	H	1.166850	0.007223	0.436807
H95	H	1.166873	0.007228	0.563382
H96	H	1.282944	-0.570665	0.000074
O97	O	1.176642	0.002119	0.751966
C98	C	1.332561	-0.026074	0.782411
C99	C	1.265099	0.010000	0.727592
H100	H	1.404092	-0.019722	0.762710
H101	H	1.322118	-0.020437	0.862206
H102	H	1.321406	-0.064797	0.762849
H103	H	1.276213	0.048737	0.747074
H104	H	1.275558	0.004321	0.647810
H105	H	1.198752	-0.705418	0.000076
H106	H	0.763700	0.148973	0.000033
O107	O	0.481405	0.153069	0.000099
C108	C	0.449205	0.240309	0.000016
C109	C	0.410342	0.191338	0.000009
H110	H	0.391769	0.271262	-0.000077
H111	H	0.492284	0.242986	0.066285
H112	H	0.492342	0.242929	-0.066230
H113	H	0.367164	0.188684	0.066210
H114	H	0.367313	0.188681	-0.066303
H115	H	0.944535	0.126295	0.744156
H116	H	0.306753	0.144307	0.000079
O117	O	0.525970	-0.020579	-0.000054
C118	C	0.573746	-0.095556	-0.082041
C119	C	0.510036	-0.047645	-0.081979
H120	H	0.560873	-0.117456	-0.148260
H121	H	0.646510	-0.087258	-0.082112
H122	H	0.560979	-0.117439	-0.015749
H123	H	0.522722	-0.025738	-0.148260
H124	H	0.437294	-0.055977	-0.081859
H125	H	0.914351	-0.069592	0.000098
O126	O	0.934853	0.131495	0.555670
C127	C	0.813268	0.196575	0.566172
C128	C	0.880683	0.160455	0.620947
H129	H	0.769441	0.219991	0.618924
H130	H	0.851499	0.220788	0.519526
H131	H	0.768913	0.175657	0.519505
H132	H	0.925056	0.181333	0.667666
H133	H	0.842396	0.136242	0.667533
O134	O	0.934946	0.131507	0.248194
C135	C	0.881323	0.215507	0.217707
C136	C	0.948705	0.179388	0.272524
H137	H	0.892411	0.254226	0.237374
H138	H	0.891837	0.209910	0.137912
H139	H	0.809786	0.209119	0.237305
H140	H	1.020269	0.185755	0.253006
H141	H	0.938112	0.184994	0.352307
O142	O	0.629867	-0.019519	0.000278
C143	C	0.620649	-0.095088	0.082289
C144	C	0.659544	-0.046126	0.082215
H145	H	0.644642	-0.116619	0.148517
H146	H	0.544026	-0.088320	0.082349
H147	H	0.644536	-0.116589	0.016006
H148	H	0.635726	-0.024601	0.148487
H149	H	0.736163	-0.052929	0.082105
O150	O	0.813684	-0.017640	-0.000077
C151	C	0.861463	-0.092620	-0.082049
C152	C	0.797754	-0.044708	-0.081999
H153	H	0.848593	-0.114523	-0.148266
H154	H	0.934227	-0.084323	-0.082117
H155	H	0.848691	-0.114500	-0.015754
H156	H	0.810445	-0.022805	-0.148282
H157	H	0.725011	-0.053040	-0.081881
O158	O	0.899794	-0.164194	-0.000042
C159	C	0.804037	-0.214454	-0.082124
C160	C	0.894264	-0.192978	-0.082067
H161	H	0.799529	-0.237723	-0.148444
H162	H	0.799494	-0.237817	-0.015921
H163	H	0.746258	-0.183688	-0.082077
H164	H	0.952094	-0.223713	-0.082147
H165	H	0.898729	-0.169602	-0.148265
O166	O	0.813836	-0.390356	0.000172
C167	C	0.718072	-0.440680	0.082120
C168	C	0.808328	-0.419234	0.082095
H169	H	0.713598	-0.464040	0.148337
H170	H	0.660252	-0.409935	0.082167
H171	H	0.713575	-0.463968	0.015825
H172	H	0.812913	-0.395951	0.148378
H173	H	0.866106	-0.450001	0.081998
H174	H	0.594476	0.147244	0.000053
H175	H	0.347663	-0.015451	0.000130
H176	H	1.287519	-0.327947	0.000109
O177	O	0.888094	-0.779154	-0.000009
C178	C	0.726393	-0.762497	0.000025
C179	C	0.816676	-0.741078	0.000066
H180	H	0.668628	-0.731723	0.000106
H181	H	0.721812	-0.785791	-0.066249
H182	H	0.721906	-0.785840	0.066265
H183	H	0.821224	-0.717714	-0.066130
H184	H	0.821218	-0.717812	0.066384
H185	H	1.197022	-0.796891	0.000063
O186	O	0.815746	-0.290896	0.000144
C187	C	0.722096	-0.227381	0.082186
C188	C	0.811284	-0.261409	0.082162
H189	H	0.718451	-0.203538	0.148500
H190	H	0.718455	-0.203449	0.015976
H191	H	0.663318	-0.249993	0.082126
H192	H	0.870112	-0.238835	0.082255
H193	H	0.814846	-0.285342	0.148366
H194	H	0.944501	0.126285	0.436789
H195	H	0.902778	-0.684709	0.000027
H196	H	1.284675	-0.479196	0.000086
