data_functionalizedCrystal
_audit_creation_method	'MofGen! by Chris Wilmer'
_symmetry_space_group_name_H-M	'P1'
_symmetry_Int_Tables_number	1
_symmetry_cell_setting	triclinic
loop_
_symmetry_equiv_pos_as_xyz
  x,y,z
_cell_length_a	19.077105
_cell_length_b	10.686285
_cell_length_c	10.685314
_cell_angle_alpha	89.696502
_cell_angle_beta	87.769738
_cell_angle_gamma	83.162422
loop_
_atom_site_label
_atom_site_type_symbol
_atom_site_fract_x
_atom_site_fract_y
_atom_site_fract_z
Zn1	Zn	1.071609	-0.636418	0.741861
Zn2	Zn	1.089509	-0.831541	0.517217
Zn3	Zn	0.962138	-0.611962	0.524875
Zn4	Zn	0.963524	-0.837786	0.718611
O5	O	1.021695	-0.729427	0.625641
O6	O	1.172523	-0.669924	0.718587
O7	O	1.079524	-0.789565	0.343140
O8	O	0.968588	-0.439038	0.566594
O9	O	1.185674	-0.813279	0.553542
O10	O	1.049016	-0.457006	0.726012
O11	O	0.985945	-0.628241	0.348766
O12	O	0.863782	-0.634296	0.544049
O13	O	0.970951	-0.823923	0.896789
O14	O	0.864801	-0.800209	0.686387
O15	O	1.050361	-0.675979	0.913870
O16	O	1.080869	-1.008538	0.530998
O17	O	0.988308	-1.013126	0.678961
C18	C	0.838742	-0.715277	0.613527
C19	C	0.760473	-0.709256	0.608372
C20	C	0.724262	-0.792922	0.679922
C21	C	0.650720	-0.787248	0.675086
C22	C	0.613391	-0.697915	0.598691
C23	C	0.649607	-0.614241	0.527138
C24	C	0.723147	-0.619909	0.531982
C25	C	0.393388	-0.671681	0.576277
C26	C	0.319843	-0.666021	0.571436
C27	C	0.320961	-0.839028	0.719386
C28	C	0.394503	-0.844694	0.724218
C29	C	0.430712	-0.761015	0.652670
N30	N	0.538219	-0.692116	0.593742
N31	N	0.505882	-0.766809	0.657626
C32	C	1.036699	-1.056514	0.601654
C33	C	1.043181	-1.196451	0.591439
C34	C	1.205363	-0.743633	0.637804
C35	C	1.283632	-0.749687	0.642986
C36	C	1.008814	-0.753376	0.951999
C37	C	1.003325	-0.763582	1.091073
C38	C	1.006651	-0.401067	0.649750
C39	C	1.000240	-0.261139	0.660024
C40	C	1.034562	-0.705483	0.300562
C41	C	1.040172	-0.694934	0.161524
H42	H	0.752629	-0.551774	0.473724
C43	C	0.944718	-1.192201	0.748922
C44	C	0.977930	-1.125613	0.837289
C45	C	0.926806	-1.062097	0.919213
H46	H	0.913581	-1.134985	0.702836
H47	H	0.918654	-1.251511	0.790659
H48	H	1.003981	-1.066309	0.795556
H49	H	1.009063	-1.182799	0.883405
H50	H	0.900743	-1.121407	0.960950
H51	H	0.895672	-1.004888	0.873116
H52	H	0.949333	-1.016920	0.979186
C53	C	1.087719	-0.606036	1.099931
C54	C	1.047074	-0.516834	1.028172
C55	C	1.090848	-0.434930	0.971404
H56	H	1.110113	-0.564211	1.162647
H57	H	1.122586	-0.652814	1.047360
H58	H	1.012219	-0.470061	1.080739
H59	H	1.024681	-0.558623	0.965435
H60	H	1.125716	-0.481709	0.918833
H61	H	1.113240	-0.393114	1.034129
H62	H	1.063278	-0.374405	0.922700
C63	C	1.098816	-1.265587	0.502869
C64	C	1.094429	-1.395301	0.510052
C65	C	1.145684	-1.459032	0.428515
H66	H	1.090967	-1.237350	0.419579
H67	H	1.144414	-1.249078	0.525994
H68	H	1.048842	-1.411801	0.486919
H69	H	1.102286	-1.423574	0.593323
H70	H	1.191283	-1.442523	0.451641
H71	H	1.137831	-1.430785	0.345231
H72	H	1.142719	-1.547050	0.433387
H73	H	0.754651	-0.865671	0.742127
C74	C	0.435103	-0.941487	0.807271
C75	C	0.470908	-0.879474	0.895563
C76	C	0.508321	-0.968602	0.972082
H77	H	0.403077	-0.990542	0.849315
H78	H	0.468231	-0.994948	0.757236
H79	H	0.437783	-0.826036	0.945592
H80	H	0.502945	-0.830426	0.853554
H81	H	0.541450	-1.022063	0.922047
H82	H	0.476291	-1.017651	1.014117
H83	H	0.532625	-0.926540	1.031990
H84	H	0.967579	-0.830160	1.137153
H85	H	0.291471	-0.907153	0.777639
C86	C	0.611538	-0.878254	0.752798
C87	C	0.659973	-0.957734	0.820699
C88	C	0.623906	-1.041603	0.892285
H89	H	0.578493	-0.832143	0.809139
H90	H	0.587271	-0.927362	0.698947
H91	H	0.684228	-0.908631	0.874545
H92	H	0.693019	-1.003873	0.764389
H93	H	0.599639	-1.090712	0.838435
H94	H	0.590862	-0.995481	0.948619
H95	H	0.656764	-1.095547	0.938356
H96	H	0.289450	-0.593261	0.509234
H97	H	0.422861	-0.603553	0.518007
C98	C	0.608957	-0.517372	0.444229
C99	C	0.536804	-0.530334	0.455275
C100	C	0.499339	-0.441130	0.378904
H101	H	0.616319	-0.435036	0.469599
H102	H	0.625118	-0.530422	0.359550
H103	H	0.520648	-0.517274	0.539936
H104	H	0.529421	-0.612651	0.429896
H105	H	0.515501	-0.454180	0.294225
H106	H	0.506707	-0.358800	0.404281
H107	H	0.450381	-0.449919	0.386379
