data_functionalizedCrystal
_audit_creation_method	'MofGen! by Chris Wilmer'
_symmetry_space_group_name_H-M	'P1'
_symmetry_Int_Tables_number	1
_symmetry_cell_setting	triclinic
loop_
_symmetry_equiv_pos_as_xyz
  x,y,z
_cell_length_a	16.109301
_cell_length_b	9.016244
_cell_length_c	16.109304
_cell_angle_alpha	89.999429
_cell_angle_beta	83.462059
_cell_angle_gamma	90.004619
loop_
_atom_site_label
_atom_site_type_symbol
_atom_site_fract_x
_atom_site_fract_y
_atom_site_fract_z
O1	O	1.103137	0.123237	0.106864
O2	O	0.861075	0.123260	0.120163
O3	O	0.988754	0.123249	-0.007518
O4	O	0.975457	0.123248	0.234544
O5	O	0.988736	-0.123432	-0.007515
O6	O	0.861056	-0.123421	0.120166
O7	O	1.103118	-0.123444	0.106866
Cu8	Cu	0.982085	-0.145956	0.113516
Cu9	Cu	0.982108	0.145772	0.113513
O10	O	0.975439	-0.123433	0.234547
C11	C	0.830091	-0.000078	0.119626
C12	C	0.737795	-0.000069	0.118010
N13	N	0.982076	-0.351142	0.113518
C14	C	0.515524	-0.000086	0.190018
C15	C	0.428803	-0.000096	0.188494
C16	C	0.448676	-0.000089	0.037005
C17	C	0.535395	-0.000090	0.038530
C18	C	0.568816	-0.000081	0.115039
C19	C	0.395377	-0.000090	0.111990
C20	C	0.301351	-0.000100	0.110337
C21	C	0.662848	-0.000074	0.116693
C22	C	0.913570	-0.586169	0.181594
C23	C	0.913718	-0.414278	0.181845
C24	C	1.068823	-0.413489	0.132444
C25	C	1.068448	-0.585434	0.132925
C26	C	0.964700	-0.585684	0.026289
C27	C	0.962700	-0.413729	0.026874
C28	C	1.134102	-0.000103	0.107404
C29	C	1.226398	-0.000102	0.109019
C30	C	0.988206	-0.000088	-0.038491
C31	C	0.986590	-0.000078	-0.130786
N32	N	0.982124	0.350958	0.113504
C33	C	0.982866	0.134382	-0.343125
C34	C	0.981340	0.134381	-0.429845
C35	C	0.981324	-0.134564	-0.429839
C36	C	0.982844	-0.134561	-0.343120
C37	C	0.983620	-0.000084	-0.299766
C38	C	0.980573	-0.000088	-0.473205
C39	C	0.978919	-0.000090	-0.567231
C40	C	0.985273	-0.000081	-0.205734
C41	C	0.975987	-0.000092	0.265520
C42	C	0.977603	-0.000093	0.357816
H43	H	0.542732	-0.000090	0.252316
Cl44	Cl	0.813694	-0.650032	0.164464
H45	H	0.385416	-0.000103	0.249550
Cl46	Cl	1.041882	-0.648455	-0.051942
Cl47	Cl	1.149459	-0.350353	0.057914
Cl48	Cl	0.980392	0.303432	-0.484351
H49	H	0.421454	-0.000106	-0.025285
H50	H	0.578788	-0.000091	-0.022530
Cl51	Cl	0.814149	-0.349195	0.164496
Cl52	Cl	0.930516	-0.652823	0.280962
Cl53	Cl	0.983836	0.303439	-0.288625
Cl54	Cl	0.980350	-0.303612	-0.484347
H55	H	0.924838	-0.373133	0.246568
H56	H	1.121052	-0.627021	0.085286
H57	H	1.083805	-0.625525	0.196530
Cl58	Cl	1.093097	-0.346989	0.229528
Cl59	Cl	0.869150	-0.652702	-0.001803
Cl60	Cl	1.034786	-0.347408	-0.055018
Cl61	Cl	0.864179	-0.350820	0.004694
Cl62	Cl	0.983782	-0.303618	-0.288605
