data_functionalizedCrystal
_audit_creation_method	'MofGen! by Chris Wilmer'
_symmetry_space_group_name_H-M	'P1'
_symmetry_Int_Tables_number	1
_symmetry_cell_setting	triclinic
loop_
_symmetry_equiv_pos_as_xyz
  x,y,z
_cell_length_a	13.032831
_cell_length_b	18.050589
_cell_length_c	13.033454
_cell_angle_alpha	82.784202
_cell_angle_beta	89.091650
_cell_angle_gamma	82.833186
loop_
_atom_site_label
_atom_site_type_symbol
_atom_site_fract_x
_atom_site_fract_y
_atom_site_fract_z
Zn1	Zn	1.498458	-0.360556	-0.780878
Zn2	Zn	1.998458	0.139444	-0.280878
Zn3	Zn	1.520149	-0.502252	-0.608889
Zn4	Zn	2.020149	-0.002252	-0.108889
Zn5	Zn	1.348298	-0.364514	-0.587108
Zn6	Zn	1.848298	0.135486	-0.087108
Zn7	Zn	1.326418	-0.471132	-0.759022
Zn8	Zn	1.826418	0.028868	-0.259022
O9	O	1.423331	-0.424614	-0.683974
O10	O	1.923331	0.075386	-0.183974
O11	O	1.645255	-0.390719	-0.776325
O12	O	2.145255	0.109281	-0.276325
O13	O	1.515586	-0.498661	-0.462075
O14	O	2.015586	0.001339	0.037925
O15	O	1.368296	-0.260069	-0.612844
O16	O	1.868296	0.239931	-0.112844
O17	O	1.661191	-0.494822	-0.649965
O18	O	2.161191	0.005178	-0.149965
O19	O	1.478618	-0.257161	-0.755206
O20	O	1.978618	0.242839	-0.255206
O21	O	1.389329	-0.397466	-0.446073
O22	O	1.889329	0.102534	0.053927
O23	O	1.201476	-0.367291	-0.591651
O24	O	1.701476	0.132709	-0.091651
O25	O	1.331006	-0.441784	-0.905846
O26	O	1.831006	0.058216	-0.405846
O27	O	1.185401	-0.445623	-0.717956
O28	O	1.685401	0.054377	-0.217956
O29	O	1.457403	-0.360544	-0.921904
O30	O	1.957403	0.139456	-0.421904
O31	O	1.494371	-0.602044	-0.628773
O32	O	1.994371	-0.102044	-0.128773
O33	O	1.352038	-0.579181	-0.739075
O34	O	1.852038	-0.079181	-0.239075
C35	C	1.156122	-0.403510	-0.650069
C36	C	1.656122	0.096490	-0.150069
C37	C	1.041806	-0.394497	-0.635588
C38	C	1.541806	0.105503	-0.135588
C39	C	0.982926	-0.429318	-0.691532
C40	C	1.482926	0.070682	-0.191532
C41	C	0.864774	-0.420003	-0.676567
C42	C	1.364774	0.079997	-0.176567
C43	C	1.423209	-0.617558	-0.683942
C44	C	1.923209	-0.117558	-0.183942
C45	C	1.423246	-0.700104	-0.683974
C46	C	1.923246	-0.200104	-0.183974
C47	C	1.345916	-0.887156	-0.743941
C48	C	1.845916	-0.387156	-0.243941
C49	C	1.332758	-0.944174	-0.646915
C50	C	1.832758	-0.444174	-0.146915
C51	C	1.423346	-0.851241	-0.684000
C52	C	1.923346	-0.351241	-0.184000
C53	C	1.436554	-0.941307	-0.781043
C54	C	1.936554	-0.441307	-0.281043
C55	C	1.423439	-0.997231	-0.684033
C56	C	1.923439	-0.497231	-0.184033
C57	C	1.410144	-0.907173	-0.586918
C58	C	1.910144	-0.407173	-0.086918
C59	C	1.513976	-0.904299	-0.721116
C60	C	2.013976	-0.404299	-0.221116
C61	C	1.500861	-0.961304	-0.624029
C62	C	2.000861	-0.461304	-0.124029
C63	C	1.423289	-0.767139	-0.683982
C64	C	1.923289	-0.267139	-0.183982
C65	C	1.423497	-1.081332	-0.684041
C66	C	1.923497	-0.581332	-0.184041
C67	C	1.691583	-0.445800	-0.718013
C68	C	2.191583	0.054200	-0.218013
C69	C	1.805896	-0.454829	-0.732518
C70	C	2.305896	0.045171	-0.232518
C71	C	1.389344	-0.397251	-0.952236
C72	C	1.889344	0.102749	-0.452236
C73	C	1.374861	-0.385591	-1.066554
C74	C	1.874861	0.114409	-0.566554
C75	C	1.423479	-0.230916	-0.684033
C76	C	1.923479	0.269084	-0.184033
C77	C	1.423541	-0.148374	-0.684059
C78	C	1.923541	0.351626	-0.184059
C79	C	1.430874	-0.430461	-1.125437
C80	C	1.930874	0.069539	-0.625437
C81	C	1.415906	-0.418411	-1.243590
C82	C	1.915906	0.081589	-0.743590
C83	C	1.457245	-0.451821	-0.416764
C84	C	1.957245	0.048179	0.083236
C85	C	1.471927	-0.463288	-0.302472
C86	C	1.971927	0.036712	0.197528
H87	H	1.019988	-0.466022	-0.750510
H88	H	1.519988	0.033978	-0.250510
C89	C	1.510631	-0.494413	-1.075377
C90	C	2.010631	0.005587	-0.575377
N91	N	1.570704	-0.542584	-1.037672
N92	N	2.070704	-0.042584	-0.537672
H93	H	1.356871	-0.371068	-1.280646
H94	H	1.856871	0.128932	-0.780646
H95	H	1.315830	-0.338251	-1.103614
H96	H	1.815830	0.161749	-0.603614
H97	H	1.530971	-0.510625	-1.265419
H98	H	2.030971	-0.010625	-0.765419
H99	H	0.827716	-0.383290	-0.617593
H100	H	1.327716	0.116710	-0.117593
C101	C	0.855953	-0.504423	-0.812197
C102	C	1.355953	-0.004423	-0.312197
N103	N	0.893657	-0.541777	-0.872209
N104	N	1.393657	-0.041777	-0.372209
C105	C	1.257357	-0.843718	-0.812290
C106	C	1.757357	-0.343718	-0.312290
N107	N	1.190653	-0.810999	-0.863765
N108	N	1.690653	-0.310999	-0.363765
C109	C	0.991742	-0.344905	-0.555915
C110	C	1.491742	0.155095	-0.055915
N111	N	0.954035	-0.307552	-0.495903
N112	N	1.454035	0.192448	0.004097
C113	C	1.589382	-1.004570	-0.555479
C114	C	2.089382	-0.504570	-0.055479
N115	N	1.656052	-1.037160	-0.503843
N116	N	2.156052	-0.537160	-0.003843
H117	H	1.256158	-0.961866	-0.615549
H118	H	1.756158	-0.461866	-0.115549
C119	C	1.394974	-0.886697	-0.476019
C120	C	1.894974	-0.386697	0.023981
N121	N	1.383544	-0.871272	-0.392492
N122	N	1.883544	-0.371272	0.107508
C123	C	1.617417	-0.880375	-0.763556
C124	C	2.117417	-0.380375	-0.263556
N125	N	1.695325	-0.862349	-0.795535
N126	N	2.195325	-0.362349	-0.295535
C127	C	1.451599	-0.961900	-0.891897
C128	C	1.951599	-0.461900	-0.391897
N129	N	1.462924	-0.977406	-0.975392
N130	N	1.962924	-0.477406	-0.475392
