data_functionalizedCrystal
_audit_creation_method	'MofGen! by Chris Wilmer'
_symmetry_space_group_name_H-M	'P1'
_symmetry_Int_Tables_number	1
_symmetry_cell_setting	triclinic
loop_
_symmetry_equiv_pos_as_xyz
  x,y,z
_cell_length_a	12.759401
_cell_length_b	11.169416
_cell_length_c	12.759393
_cell_angle_alpha	89.975274
_cell_angle_beta	90.020938
_cell_angle_gamma	89.985387
loop_
_atom_site_label
_atom_site_type_symbol
_atom_site_fract_x
_atom_site_fract_y
_atom_site_fract_z
Zn1	Zn	1.606278	0.477700	0.594062
Zn2	Zn	1.606174	0.678429	0.418400
Zn3	Zn	1.430577	0.477764	0.418397
Zn4	Zn	1.430574	0.678345	0.594037
O5	O	1.518401	0.578060	0.506224
O6	O	1.753285	0.504336	0.570772
O7	O	1.582839	0.651872	0.271379
O8	O	1.453929	0.309806	0.441709
O9	O	1.753209	0.651810	0.441714
O10	O	1.583016	0.309759	0.570769
O11	O	1.453828	0.504445	0.271377
O12	O	1.283555	0.504363	0.441685
O13	O	1.453923	0.651667	0.741062
O14	O	1.283553	0.651729	0.570727
O15	O	1.583013	0.504254	0.741080
O16	O	1.582836	0.846368	0.441689
O17	O	1.453823	0.846306	0.570729
C18	C	1.245433	0.578045	0.506203
C19	C	1.128657	0.578068	0.506219
C20	C	1.073821	0.654918	0.573306
C21	C	0.964097	0.654923	0.573327
C22	C	0.964054	0.501223	0.439166
C23	C	1.073776	0.501213	0.439151
C24	C	1.518346	0.889884	0.506230
C25	C	1.518419	1.023284	0.506267
C26	C	1.792434	0.578075	0.506246
C27	C	1.909211	0.578082	0.506255
C28	C	1.518479	0.577944	0.780258
C29	C	1.518513	0.577895	0.897034
C30	C	1.518474	1.265017	0.506253
C31	C	1.518478	1.131617	0.506293
C32	C	1.518383	0.578088	0.233257
C33	C	1.518553	0.577799	0.116481
C34	C	1.585735	0.501125	0.951908
C35	C	1.585752	0.501073	1.061632
C36	C	1.451324	0.654573	1.061600
C37	C	1.451301	0.654617	0.951878
H38	H	0.919455	0.717500	0.627957
H39	H	1.118502	0.717495	0.627920
O40	O	1.650866	0.426530	0.898518
C41	C	1.591054	0.349015	0.835069
H42	H	1.511422	0.391352	0.818611
H43	H	1.579536	0.260060	0.877363
C44	C	1.746649	0.275320	0.751070
C45	C	1.648848	0.327323	0.730850
H46	H	1.782301	0.261933	0.686785
H47	H	1.786947	0.327539	0.793820
H48	H	1.737038	0.201196	0.786319
H49	H	1.658462	0.401452	0.695614
H50	H	1.608553	0.275115	0.688091
H51	H	1.396605	0.717039	1.106267
O52	O	1.385966	0.729312	0.898729
C53	C	1.326637	0.797006	0.970661
H54	H	1.369682	0.801138	1.048883
H55	H	1.246859	0.753045	0.982319
C56	C	1.258582	0.919679	0.831748
C57	C	1.311455	0.924763	0.927819
H58	H	1.249212	0.998484	0.805320
H59	H	1.298550	0.874070	0.783285
H60	H	1.192106	0.883039	0.841476
H61	H	1.377934	0.961388	0.918087
H62	H	1.271497	0.970381	0.976279
H63	H	0.919357	0.438653	0.384559
H64	H	1.640489	0.438557	1.106305
H65	H	1.118424	0.438625	0.384521
