data_functionalizedCrystal
_audit_creation_method	'MofGen! by Chris Wilmer'
_symmetry_space_group_name_H-M	'P1'
_symmetry_Int_Tables_number	1
_symmetry_cell_setting	triclinic
loop_
_symmetry_equiv_pos_as_xyz
  x,y,z
_cell_length_a	26.374263
_cell_length_b	26.373608
_cell_length_c	26.370205
_cell_angle_alpha	60.005297
_cell_angle_beta	60.010839
_cell_angle_gamma	59.993700
loop_
_atom_site_label
_atom_site_type_symbol
_atom_site_fract_x
_atom_site_fract_y
_atom_site_fract_z
O1	O	0.070152	-0.740800	0.619517
O2	O	0.026377	-0.576764	0.499159
O3	O	0.130245	-0.680560	0.499088
O4	O	-0.033715	-0.637003	0.619589
O5	O	0.164701	-0.646107	0.533470
O6	O	0.060833	-0.542310	0.533541
O7	O	0.104608	-0.706346	0.653899
Cu8	Cu	0.085867	-0.621182	0.596859
Cu9	Cu	0.045119	-0.661927	0.556199
O10	O	0.000741	-0.602549	0.653971
N11	N	0.114528	-0.592529	0.625461
N12	N	0.016463	-0.690587	0.527598
C13	C	0.181428	-0.355400	0.692330
C14	C	0.181530	-0.525690	0.862573
C15	C	0.181440	-0.525667	0.692313
C16	C	0.351736	-0.525673	0.692271
C17	C	0.200174	-0.411588	0.711047
C18	C	0.200232	-0.506954	0.806384
C19	C	0.295546	-0.506943	0.711016
C20	C	0.200182	-0.506940	0.711037
C21	C	0.157567	-0.283881	0.668507
C22	C	0.157587	-0.549500	0.668479
C23	C	0.224035	-0.483107	0.734871
C24	C	0.455739	-0.507754	0.637520
C25	C	0.520749	-0.529425	0.615835
C26	C	0.520768	-0.634611	0.655947
C27	C	0.455759	-0.612939	0.677633
C28	C	0.173240	-0.251367	0.604595
C29	C	0.151546	-0.186351	0.582941
C30	C	0.098512	-0.186369	0.689113
C31	C	0.120206	-0.251385	0.710768
C32	C	0.093669	-0.533798	0.684205
C33	C	0.071992	-0.555464	0.662532
C34	C	0.178144	-0.608536	0.609422
C35	C	0.199825	-0.586869	0.631088
C36	C	0.093821	-0.533842	0.966616
C37	C	0.072187	-0.555526	1.031630
C38	C	0.178370	-0.608608	1.031591
C39	C	0.200004	-0.586926	0.966576
C40	C	0.157728	-0.549541	0.934090
C41	C	0.423247	-0.549509	0.668416
C42	C	-0.097522	-0.709158	0.508557
C43	C	-0.002050	-0.709295	0.413344
C44	C	-0.002241	-0.804604	0.508735
C45	C	-0.002225	-0.709288	0.508793
C46	C	-0.026009	-0.733087	0.484858
N47	N	0.552340	-0.592538	0.625346
O48	O	0.750867	-0.598274	0.477076
O49	O	0.751048	-0.718989	0.640960
O50	O	0.750981	-0.718715	0.537020
O51	O	0.750934	-0.598547	0.581017
O52	O	0.647701	-0.684348	0.571512
O53	O	0.647768	-0.684622	0.675452
O54	O	0.647587	-0.563907	0.511569
Cu55	Cu	0.638247	-0.621127	0.596660
Cu56	Cu	0.760388	-0.661769	0.555869
O57	O	0.647654	-0.564181	0.615509
N58	N	0.846295	-0.690358	0.527176
N59	N	0.114503	-0.154778	0.625499
O60	O	-0.033701	0.043855	0.619632
O61	O	0.130190	0.043858	0.498933
O62	O	0.026233	0.043841	0.499224
O63	O	0.070257	0.043872	0.619341
O64	O	0.060690	-0.059448	0.533654
O65	O	0.164647	-0.059431	0.533363
O66	O	0.000756	-0.059434	0.654062
Cu67	Cu	0.085848	-0.068863	0.596857
Cu68	Cu	0.045099	0.053287	0.556138
O69	O	0.104714	-0.059417	0.653771
N70	N	0.016435	0.139202	0.527497
N71	N	0.114760	-0.592585	1.063190
O72	O	0.108896	-0.740779	1.261808
O73	O	-0.011787	-0.576838	1.261822
O74	O	-0.011509	-0.680779	1.261780
O75	O	0.108618	-0.636838	1.261850
O76	O	0.022916	-0.646341	1.158496
O77	O	0.022638	-0.542399	1.158538
O78	O	0.143321	-0.706341	1.158524
Cu79	Cu	0.086123	-0.621225	1.149100
Cu80	Cu	0.045411	-0.661953	1.271246
O81	O	0.143044	-0.602399	1.158566
N82	N	0.016774	-0.690600	1.357156
C83	C	0.039504	-0.538867	0.499769
C84	C	0.168130	-0.667407	0.499680
C85	C	0.091482	-0.744243	0.653289
C86	C	-0.037145	-0.615703	0.653378
C87	C	0.699429	-0.718429	0.678853
C88	C	0.699348	-0.718091	0.550135
C89	C	0.699202	-0.564465	0.473677
C90	C	0.699287	-0.564805	0.602393
C91	C	0.168023	-0.007659	0.499484
C92	C	0.039327	-0.007807	0.499887
C93	C	-0.037119	-0.007789	0.653468
C94	C	0.091620	-0.007770	0.653109
C95	C	-0.011194	-0.538964	1.210181
C96	C	-0.010843	-0.667676	1.210109
C97	C	0.142729	-0.744214	1.210165
C98	C	0.142386	-0.615494	1.210214
H99	H	0.059391	-0.503396	0.940172
C100	C	0.270306	-0.604195	0.930798
C101	C	0.316805	-0.645309	0.966534
C102	C	0.387105	-0.662577	0.930758
C103	C	0.410907	-0.638730	0.859247
C104	C	0.364407	-0.597613	0.823508
C105	C	0.294106	-0.580345	0.859283
H106	H	0.299186	-0.662964	1.019474
H107	H	0.421527	-0.693014	0.957215
H108	H	0.462948	-0.651512	0.832764
H109	H	0.382026	-0.579958	0.770567
H110	H	0.259684	-0.549907	0.832826
H111	H	0.214995	-0.007372	0.461496
H112	H	-0.084187	-0.007791	0.691362
C113	C	0.699267	-0.513805	0.615107
C114	C	0.699196	-0.450090	0.564138
C115	C	0.699176	-0.399090	0.576852
C116	C	0.699227	-0.411804	0.640535
C117	C	0.699298	-0.475521	0.691508
C118	C	0.699318	-0.526522	0.678795
H119	H	0.699159	-0.440676	0.516992
H120	H	0.699124	-0.351922	0.539117
H121	H	0.699212	-0.374050	0.649946
H122	H	0.699335	-0.484935	0.738654
H123	H	0.699370	-0.573690	0.716529
H124	H	-0.048566	-0.677061	1.210046
C125	C	0.699126	-0.513262	0.410096
C126	C	0.752713	-0.486498	0.370088
C127	C	0.752637	-0.435294	0.306507
C128	C	0.698974	-0.410854	0.282935
C129	C	0.645383	-0.437618	0.322945
C130	C	0.645459	-0.488822	0.386525
H131	H	0.792441	-0.504590	0.387536
H132	H	0.792309	-0.415482	0.276889
H133	H	0.698918	-0.372950	0.235869
H134	H	0.605655	-0.419526	0.305496
H135	H	0.605787	-0.508634	0.416143
C136	C	0.104105	-0.807899	0.704359
C137	C	0.063851	-0.847994	0.731106
C138	C	0.076475	-0.911650	0.782175
C139	C	0.129353	-0.935211	0.806498
C140	C	0.169610	-0.895115	0.779751
C141	C	0.156986	-0.831459	0.728681
H142	H	0.024705	-0.830553	0.713101
H143	H	0.046673	-0.941331	0.801975
H144	H	0.138697	-0.982333	0.844303
H145	H	0.208756	-0.912556	0.797756
H146	H	0.186788	-0.801778	0.708882
H147	H	0.215222	-0.676694	0.461838
H148	H	0.180620	-0.791296	1.210154
H149	H	-0.084239	-0.606419	0.691217
C150	C	0.026601	-0.007818	0.448905
C151	C	-0.037092	-0.007825	0.461624
C152	C	-0.049818	-0.007836	0.410643
C153	C	0.001149	-0.007839	0.346942
C154	C	0.064846	-0.007832	0.334220
C155	C	0.077572	-0.007821	0.385202
H156	H	-0.074824	-0.007822	0.508782
H157	H	-0.096971	-0.007841	0.420061
H158	H	-0.008272	-0.007847	0.309203
H159	H	0.102578	-0.007835	0.287063
H160	H	0.124725	-0.007816	0.375784
C161	C	0.193373	-0.602800	1.210232
C162	C	0.180663	-0.539108	1.210248
C163	C	0.231651	-0.526414	1.210267
C164	C	0.295349	-0.577412	1.210269
C165	C	0.308062	-0.641108	1.210254
C166	C	0.257074	-0.653802	1.210235
H167	H	0.133507	-0.501353	1.210246
H168	H	0.222240	-0.479262	1.210278
H169	H	0.333093	-0.568015	1.210283
H170	H	0.355218	-0.678863	1.210256
H171	H	0.266486	-0.700955	1.210224
C172	C	-0.062383	-0.475358	1.210185
C173	C	-0.049979	-0.424184	1.210211
C174	C	-0.101168	-0.360578	1.210215
C175	C	-0.164761	-0.348146	1.210193
C176	C	-0.177169	-0.399322	1.210166
C177	C	-0.125980	-0.462928	1.210162
H178	H	-0.002900	-0.433386	1.210228
H179	H	-0.091982	-0.322694	1.210234
H180	H	-0.202654	-0.301061	1.210195
H181	H	-0.224247	-0.390121	1.210150
H182	H	-0.135165	-0.500812	1.210143
H183	H	0.020147	-0.542732	1.058106
H184	H	0.212798	-0.639038	1.058038
H185	H	0.699474	-0.756325	0.725922
H186	H	0.059274	-0.503369	0.714648
H187	H	0.212545	-0.638970	0.578981
C188	C	0.001682	-0.538198	0.679823
C189	C	-0.039100	-0.557136	0.748492
C190	C	-0.109408	-0.539871	0.765782
C191	C	-0.138933	-0.503669	0.714402
C192	C	-0.098151	-0.484729	0.645729
C193	C	-0.027843	-0.501994	0.628439
H194	H	-0.017244	-0.583937	0.786530
H195	H	-0.139597	-0.553891	0.816619
H196	H	-0.190979	-0.490888	0.727201
H197	H	-0.120007	-0.457928	0.607691
H198	H	0.002347	-0.487974	0.577602
H199	H	0.699366	-0.755841	0.540718
H200	H	0.101045	-0.007760	0.690842
H201	H	0.429307	-0.646943	0.702793
C202	C	0.270133	-0.604125	0.613795
C203	C	0.310984	-0.672787	0.632687
C204	C	0.381289	-0.690037	0.615395
C205	C	0.410744	-0.638626	0.579211
C206	C	0.369892	-0.569959	0.560317
C207	C	0.299587	-0.552709	0.577609
H208	H	0.289180	-0.710849	0.659474
H209	H	0.411530	-0.740869	0.629382
H210	H	0.462788	-0.651396	0.566411
H211	H	0.391696	-0.531897	0.533530
H212	H	0.269346	-0.501877	0.563622
C213	C	0.556533	-0.704383	0.666081
C214	C	0.547630	-0.751658	0.732420
C215	C	0.583398	-0.821430	0.742554
C216	C	0.628070	-0.843928	0.686348
C217	C	0.636976	-0.796652	0.620004
C218	C	0.601207	-0.726880	0.609870
H219	H	0.514559	-0.735004	0.774031
H220	H	0.576805	-0.856427	0.791666
H221	H	0.654548	-0.895578	0.693849
H222	H	0.670046	-0.813306	0.578393
H223	H	0.607800	-0.691883	0.560758
C224	C	0.556497	-0.483493	0.581843
C225	C	0.520737	-0.413721	0.571701
C226	C	0.556485	-0.367791	0.537704
C227	C	0.627994	-0.391632	0.513849
C228	C	0.663758	-0.461407	0.523991
C229	C	0.628009	-0.507338	0.557988
H230	H	0.467798	-0.396070	0.589361
H231	H	0.530010	-0.316138	0.530197
H232	H	0.654457	-0.357631	0.488683
H233	H	0.716696	-0.479059	0.506331
H234	H	0.654484	-0.558990	0.565495
C235	C	0.026879	-0.475213	0.448698
C236	C	0.067131	-0.435116	0.421948
C237	C	0.054506	-0.371461	0.370877
C238	C	0.001629	-0.347904	0.346556
C239	C	-0.038628	-0.388001	0.373306
C240	C	-0.026003	-0.451656	0.424377
H241	H	0.106278	-0.452554	0.439952
H242	H	0.084307	-0.341779	0.351075
H243	H	-0.007717	-0.300783	0.308750
H244	H	-0.077774	-0.370563	0.355302
H245	H	-0.055803	-0.481338	0.444179
H246	H	0.429268	-0.456103	0.630015
H247	H	0.203661	-0.277820	0.570179
H248	H	0.164306	-0.159876	0.530897
H249	H	0.107441	-0.277854	0.762810
C250	C	0.057418	-0.150620	0.735599
C251	C	0.040187	-0.186387	0.805903
C252	C	-0.000908	-0.150639	0.852390
C253	C	-0.024773	-0.079125	0.828572
C254	C	-0.007542	-0.043354	0.758265
C255	C	0.033554	-0.079101	0.711778
H256	H	0.057854	-0.239329	0.823537
H257	H	-0.013663	-0.177120	0.904436
H258	H	-0.055194	-0.052663	0.862984
H259	H	-0.025208	0.009589	0.740630
H260	H	0.046309	-0.052621	0.659732
