data_functionalizedCrystal
_audit_creation_method	'MofGen! by Chris Wilmer'
_symmetry_space_group_name_H-M	'P1'
_symmetry_Int_Tables_number	1
_symmetry_cell_setting	triclinic
loop_
_symmetry_equiv_pos_as_xyz
  x,y,z
_cell_length_a	10.540539
_cell_length_b	10.489716
_cell_length_c	9.616153
_cell_angle_alpha	90.001809
_cell_angle_beta	89.995174
_cell_angle_gamma	84.527314
loop_
_atom_site_label
_atom_site_type_symbol
_atom_site_fract_x
_atom_site_fract_y
_atom_site_fract_z
O1	O	1.685898	0.179762	-0.115566
O2	O	1.316485	0.196699	-0.115582
O3	O	1.509614	0.002629	-0.115579
O4	O	1.492770	0.373831	-0.115570
O5	O	1.509587	0.002633	0.115712
O6	O	1.316459	0.196703	0.115709
O7	O	1.685871	0.179766	0.115725
Zn8	Zn	1.501161	0.188235	0.152440
Zn9	Zn	1.501196	0.188230	-0.152297
O10	O	1.492743	0.373835	0.115722
C11	C	1.269169	0.195431	0.000061
C12	C	1.128221	0.191631	0.000055
C13	C	0.944789	0.046012	0.000591
C14	C	1.091408	0.049864	0.000055
C15	C	1.066566	0.259852	-0.132017
C16	C	0.920021	0.255014	-0.132114
C17	C	0.919502	0.257903	0.130908
C18	C	1.066484	0.259208	0.132639
C19	C	1.508335	-0.044901	0.000062
C20	C	1.504548	-0.186531	0.000050
C21	C	1.622981	-0.284219	0.000067
C22	C	1.560411	-0.361574	-0.113970
C23	C	1.560358	-0.361534	0.114065
C24	C	1.442029	-0.262021	-0.114082
C25	C	1.441992	-0.261975	0.114055
C26	C	1.379336	-0.339281	-0.000010
C27	C	1.733188	0.181034	0.000078
C28	C	1.874136	0.184834	0.000076
C29	C	1.494022	0.421365	0.000077
C30	C	1.497808	0.562996	0.000081
N31	N	1.501146	0.188238	0.360414
N32	N	1.501221	0.188217	-0.360271
C33	C	1.397520	0.291704	0.580782
C34	C	1.397748	0.292092	0.419615
C35	C	1.633870	0.218517	0.418870
C36	C	1.633306	0.219250	0.580088
C37	C	1.473370	0.054153	0.580321
C38	C	1.470323	0.055022	0.419094
H39	H	0.872056	0.356970	-0.138106
C40	C	1.263875	0.267494	0.633239
N41	N	1.163213	0.249263	0.672768
C42	C	1.762148	-0.250893	-0.000081
N43	N	1.866966	-0.225790	-0.000200
H44	H	0.914591	-0.009759	-0.093600
H45	H	1.392072	-0.218712	-0.210599
C46	C	0.876881	0.195915	0.266153
N47	N	0.844780	0.149211	0.368013
C48	C	1.421941	0.426461	0.367494
N49	N	1.440171	0.527673	0.328238
H50	H	1.133162	-0.004197	-0.094786
C51	C	0.881922	0.186878	-0.265482
N52	N	0.853233	0.135551	-0.365936
H53	H	1.415190	0.390604	0.621284
C54	C	1.121756	0.191840	0.264638
N55	N	1.163385	0.141087	0.364058
C56	C	1.096774	0.400498	-0.138662
N57	N	1.119531	0.506433	-0.143666
H58	H	1.610417	-0.405077	-0.210379
C59	C	1.666187	0.351394	0.630876
N60	N	1.690944	0.450931	0.669123
C61	C	1.575507	-0.049907	0.631825
N62	N	1.652439	-0.128276	0.670628
H63	H	1.372684	0.032071	0.380889
H64	H	1.134009	-0.003816	0.094730
H65	H	1.109164	0.212458	-0.230311
C66	C	0.906141	-0.029650	0.128545
N67	N	0.877021	-0.086640	0.224923
H68	H	1.540847	-0.025687	0.378800
H69	H	1.378632	0.025335	0.621053
C70	C	1.240063	-0.372276	-0.000098
N71	N	1.135164	-0.397130	-0.000170
H72	H	1.090713	0.362566	0.140616
H73	H	1.712946	0.146912	0.619078
C74	C	0.855701	0.396234	0.132121
N75	N	0.807638	0.500420	0.133026
H76	H	1.392030	-0.218450	0.210467
H77	H	1.712923	0.145201	0.380519
C78	C	1.667504	0.349169	0.364329
N79	N	1.692827	0.447582	0.323256
H80	H	1.610367	-0.405011	0.210472
H81	H	1.299131	0.273873	0.380095
