data_functionalizedCrystal
_audit_creation_method	'MofGen! by Chris Wilmer'
_symmetry_space_group_name_H-M	'P1'
_symmetry_Int_Tables_number	1
_symmetry_cell_setting	triclinic
loop_
_symmetry_equiv_pos_as_xyz
  x,y,z
_cell_length_a	11.026607
_cell_length_b	17.038272
_cell_length_c	10.065875
_cell_angle_alpha	99.426590
_cell_angle_beta	79.302338
_cell_angle_gamma	99.848786
loop_
_atom_site_label
_atom_site_type_symbol
_atom_site_fract_x
_atom_site_fract_y
_atom_site_fract_z
O1	O	1.661277	0.323101	-0.113507
O2	O	1.304065	0.285271	-0.113508
O3	O	1.480547	0.190072	-0.113497
O4	O	1.484796	0.418300	-0.113518
O5	O	1.446904	0.208319	0.113490
O6	O	1.270422	0.303517	0.113479
O7	O	1.627634	0.341348	0.113479
Zn8	Zn	1.443687	0.325329	0.149518
Zn9	Zn	1.488013	0.301289	-0.149547
O10	O	1.451153	0.436546	0.113468
C11	C	1.241312	0.287415	-0.000014
C12	C	1.104451	0.266610	-0.000014
C13	C	1.036576	0.324055	-0.000020
C14	C	0.895122	0.302554	-0.000020
C15	C	1.459863	0.169523	-0.000004
C16	C	1.448341	0.081107	-0.000004
C17	C	1.554125	0.045899	-0.000002
C18	C	1.543294	-0.037179	-0.000015
C19	C	1.426676	-0.085047	-0.000020
C20	C	1.320885	-0.049835	-0.000026
C21	C	1.331719	0.033241	-0.000022
C22	C	1.388403	-0.336200	-0.000039
C23	C	1.377576	-0.419281	-0.000038
C24	C	1.599986	-0.406621	-0.000030
C25	C	1.610809	-0.323543	-0.000019
C26	C	1.505019	-0.288338	-0.000032
C27	C	1.415601	-0.169966	-0.000029
C28	C	1.516096	-0.203421	-0.000032
C29	C	1.690387	0.339203	-0.000017
C30	C	1.827251	0.360008	-0.000026
C31	C	1.471837	0.457095	-0.000028
C32	C	1.483360	0.545511	-0.000036
N33	N	1.413444	0.341737	0.353622
N34	N	1.518264	0.284877	-0.353650
C35	C	1.477482	0.306992	0.421405
C36	C	1.454217	0.319627	0.578571
H37	H	1.083188	0.389155	-0.000019
H38	H	0.848520	0.237447	-0.000049
H39	H	0.873855	0.425112	-0.000023
N40	N	1.608700	0.235859	0.573182
N41	N	1.720317	0.254104	0.589006
H42	H	1.784198	0.219496	0.537322
H43	H	1.057843	0.201508	-0.000043
H44	H	1.649086	0.084868	0.000010
H45	H	1.629434	-0.065841	-0.000011
H46	H	1.341390	0.380834	0.411944
N47	N	1.729941	-0.274661	-0.000013
N48	N	1.824384	-0.306108	-0.000014
H49	H	1.908524	-0.271585	-0.000006
H50	H	1.382158	0.358727	0.636887
H51	H	1.686114	-0.435294	-0.000022
H52	H	1.282604	-0.458252	-0.000020
N53	N	1.280343	-0.300250	-0.000059
N54	N	1.218853	-0.321457	-0.095738
H55	H	1.142529	-0.296065	-0.095750
N56	N	1.201771	-0.098741	-0.000015
N57	N	1.156740	-0.138821	0.095668
H58	H	1.072613	-0.173362	0.095681
N59	N	1.223654	0.069194	-0.000041
N60	N	1.119538	0.026447	-0.000053
H61	H	1.043213	0.051836	-0.000076
N62	N	1.296490	-0.218877	-0.000006
N63	N	1.251475	-0.258962	0.095675
H64	H	1.167353	-0.293510	0.095692
N65	N	1.635202	-0.154515	-0.000011
N66	N	1.651855	-0.099057	0.095675
H67	H	1.735973	-0.064509	0.095696
H68	H	1.549527	0.267887	0.363085
