data_functionalizedCrystal
_audit_creation_method	'MofGen! by Chris Wilmer'
_symmetry_space_group_name_H-M	'P1'
_symmetry_Int_Tables_number	1
_symmetry_cell_setting	triclinic
loop_
_symmetry_equiv_pos_as_xyz
  x,y,z
_cell_length_a	18.215407
_cell_length_b	15.297510
_cell_length_c	18.215399
_cell_angle_alpha	99.650393
_cell_angle_beta	90.017368
_cell_angle_gamma	80.294185
loop_
_atom_site_label
_atom_site_type_symbol
_atom_site_fract_x
_atom_site_fract_y
_atom_site_fract_z
Zn1	Zn	1.074340	0.359235	0.466769
Zn2	Zn	1.574340	0.859235	0.966769
Zn3	Zn	1.052942	0.510106	0.364996
Zn4	Zn	1.552942	1.010106	0.864996
Zn5	Zn	0.951269	0.359257	0.343725
Zn6	Zn	1.451269	0.859257	0.843725
Zn7	Zn	0.929940	0.510048	0.488018
Zn8	Zn	1.429940	1.010048	0.988018
O9	O	1.002123	0.434661	0.415877
O10	O	1.502123	0.934661	0.915877
O11	O	1.174483	0.379264	0.453278
O12	O	1.674483	0.879264	0.953278
O13	O	1.039426	0.490129	0.259195
O14	O	1.539426	0.990129	0.759195
O15	O	0.985476	0.233007	0.342252
O16	O	1.485476	0.733007	0.842252
O17	O	1.158762	0.490108	0.378506
O18	O	1.658762	0.990108	0.878506
O19	O	1.075896	0.232991	0.432652
O20	O	1.575896	0.732991	0.932652
O21	O	0.964728	0.379300	0.243567
O22	O	1.464728	0.879300	0.743567
O23	O	0.845458	0.379244	0.362856
O24	O	1.345458	0.879244	0.862856
O25	O	0.949124	0.490009	0.588179
O26	O	1.449124	0.990009	1.088179
O27	O	0.829787	0.490030	0.468868
O28	O	1.329787	0.990030	0.968868
O29	O	1.055214	0.379207	0.572567
O30	O	1.555214	0.879207	1.072567
O31	O	1.018744	0.636345	0.399111
O32	O	1.518744	1.136345	0.899111
O33	O	0.928375	0.636302	0.489494
O34	O	1.428375	1.136302	0.989494
C35	C	0.810920	0.434634	0.415860
C36	C	1.310920	0.934634	0.915860
C37	C	0.729120	0.434643	0.415874
C38	C	1.229120	0.934643	0.915874
C39	C	0.549094	0.377046	0.454899
C40	C	1.049094	0.877046	0.954899
C41	C	0.472234	0.377053	0.454902
C42	C	0.972234	0.877053	0.954902
C43	C	0.455900	0.492302	0.376872
C44	C	0.955900	0.992302	0.876872
C45	C	0.532759	0.492289	0.376865
C46	C	1.032759	0.992289	0.876865
C47	C	0.579354	0.434662	0.415882
C48	C	1.079354	0.934662	0.915882
C49	C	0.425635	0.434683	0.415893
C50	C	0.925635	0.934683	0.915893
C51	C	0.342300	0.434692	0.415897
C52	C	0.842300	0.934692	0.915897
C53	C	0.662694	0.434652	0.415878
C54	C	1.162694	0.934652	0.915878
C55	C	0.968943	0.669058	0.448933
C56	C	1.468943	1.169058	0.948933
C57	C	0.954816	0.769333	0.463098
C58	C	1.454816	1.269333	0.963098
C59	C	1.103358	1.051958	0.314925
C60	C	1.603358	1.551958	0.814925
C61	C	1.116631	0.957744	0.301612
C62	C	1.616631	1.457744	0.801612
C63	C	1.076178	0.910636	0.341982
C64	C	1.576178	1.410636	0.841982
C65	C	1.022451	0.957753	0.395668
C66	C	1.522451	1.457753	0.895668
C67	C	1.009172	1.051976	0.408979
C68	C	1.509172	1.551976	0.908979
C69	C	0.981993	0.910655	0.436036
C70	C	1.481993	1.410655	0.936036
C71	C	0.928265	0.957771	0.489722
C72	C	1.428265	1.457771	0.989722
C73	C	0.914990	1.051985	0.503031
C74	C	1.414990	1.551985	1.003031
C75	C	0.955442	1.099092	0.462660
C76	C	1.455442	1.599092	0.962660
C77	C	0.995271	0.816431	0.422726
C78	C	1.495271	1.316431	0.922726
C79	C	0.901085	0.816450	0.516780
C80	C	1.401085	1.316450	1.016780
C81	C	0.887813	0.910664	0.530093
C82	C	1.387813	1.410664	1.030093
C83	C	1.194072	0.434690	0.415895
C84	C	1.694072	0.934690	0.915895
C85	C	1.275869	0.434702	0.415902
C86	C	1.775869	0.934702	0.915902
C87	C	1.002176	0.434599	0.607821
C88	C	1.502176	0.934599	1.107821
C89	C	1.002199	0.434573	0.689617
C90	C	1.502199	0.934573	1.189617
C91	C	1.035445	1.199350	0.382717
C92	C	1.535445	1.699350	0.882717
C93	C	1.049627	1.099074	0.368606
C94	C	1.549627	1.599074	0.868606
C95	C	1.002121	0.434658	0.224670
C96	C	1.502121	0.934658	0.724670
C97	C	1.002277	0.434430	0.142840
C98	C	1.502277	0.934430	0.642840
C99	C	1.057465	0.376824	0.869675
C100	C	1.557465	0.876824	1.369675
C101	C	1.057477	0.376798	0.946530
C102	C	1.557477	0.876798	1.446530
C103	C	0.947005	0.492181	0.962776
C104	C	1.447005	0.992181	1.462776
C105	C	0.946991	0.492202	0.885922
C106	C	1.446991	0.992202	1.385922
C107	C	1.002224	0.434525	0.839373
C108	C	1.502224	0.934525	1.339373
C109	C	1.002252	0.434478	0.993083
C110	C	1.502252	0.934478	1.493083
C111	C	1.002265	0.434450	1.076413
C112	C	1.502265	0.934450	1.576413
C113	C	1.002210	0.434552	0.756038
C114	C	1.502210	0.934552	1.256038
H115	H	0.417953	0.539221	0.345106
H116	H	0.917953	1.039221	0.845106
Cl117	Cl	1.154204	1.111182	0.264179
Cl118	Cl	1.654204	1.611182	0.764179
Cl119	Cl	0.570804	0.564718	0.327803
Cl120	Cl	1.070804	1.064718	0.827803
H121	H	1.102438	0.329857	0.831777
H122	H	1.602438	0.829857	1.331777
Cl123	Cl	1.126931	0.304264	0.984621
Cl124	Cl	1.626931	0.804264	1.484621
Cl125	Cl	0.820271	0.969906	0.597581
Cl126	Cl	1.320271	1.469906	1.097581
H127	H	1.039016	0.778078	0.379014
H128	H	1.539016	1.278078	0.879014
Cl129	Cl	0.607669	0.304597	0.503945
Cl130	Cl	1.107669	0.804597	1.003945
Cl131	Cl	1.093067	0.792195	0.325446
Cl132	Cl	1.593067	1.292195	0.825446
H133	H	0.944640	1.175809	0.473499
H134	H	1.444640	1.675809	0.973499
Cl135	Cl	0.850223	0.757236	0.567530
Cl136	Cl	1.350223	1.257236	1.067530
Cl137	Cl	1.184178	0.898519	0.234131
Cl138	Cl	1.684178	1.398519	0.734131
H139	H	0.902038	0.539142	1.000685
H140	H	1.402038	1.039142	1.500685
H141	H	0.871232	1.090344	0.546737
H142	H	1.371232	1.590344	1.046737
H143	H	0.447601	0.330135	0.486672
H144	H	0.947601	0.830135	0.986672
H145	H	0.902002	0.539189	0.861250
H146	H	1.402002	1.039189	1.361250
