data_functionalizedCrystal
_audit_creation_method	'MofGen! by Chris Wilmer'
_symmetry_space_group_name_H-M	'P1'
_symmetry_Int_Tables_number	1
_symmetry_cell_setting	triclinic
loop_
_symmetry_equiv_pos_as_xyz
  x,y,z
_cell_length_a	10.654550
_cell_length_b	14.185569
_cell_length_c	10.654550
_cell_angle_alpha	103.283487
_cell_angle_beta	84.484903
_cell_angle_gamma	76.719293
loop_
_atom_site_label
_atom_site_type_symbol
_atom_site_fract_x
_atom_site_fract_y
_atom_site_fract_z
O1	O	1.639574	0.083496	0.204652
O2	O	1.274101	0.083480	0.221452
O3	O	1.465241	0.083485	0.030312
O4	O	1.448433	0.083491	0.395792
O5	O	1.521706	-0.083348	-0.026147
O6	O	1.330565	-0.083353	0.164994
O7	O	1.696038	-0.083337	0.148193
Cu8	Cu	1.518457	-0.098578	0.151439
Cu9	Cu	1.451681	0.098721	0.218207
O10	O	1.504898	-0.083342	0.339334
C11	C	1.255536	0.000061	0.191989
C12	C	1.116095	0.000055	0.188295
N13	N	1.565433	-0.237348	0.104476
C14	C	1.036603	0.000072	0.300842
C15	C	0.905576	0.000089	0.297371
C16	C	0.933544	0.000077	0.068797
C17	C	1.064570	0.000053	0.072267
C18	C	1.020454	0.000083	0.432808
C19	C	0.889427	0.000100	0.429338
C20	C	1.266700	-0.605006	0.403080
C21	C	1.302292	-0.710026	0.367515
C22	C	1.471582	-0.709983	0.198324
C23	C	1.436000	-0.604960	0.233870
C24	C	1.333559	-0.552480	0.336250
C25	C	1.502859	-0.552434	0.167041
C26	C	1.467284	-0.447421	0.202589
C27	C	1.364849	-0.394933	0.304967
C28	C	1.297984	-0.447466	0.371799
C29	C	1.605306	-0.604917	0.064667
C30	C	1.672165	-0.552391	-0.002163
C31	C	1.636584	-0.447375	0.033379
C32	C	1.534149	-0.394887	0.135758
C33	C	1.703450	-0.394842	-0.033452
C34	C	1.667874	-0.289828	0.002097
C35	C	1.498574	-0.289874	0.171306
C36	C	1.714602	0.000084	0.177658
C37	C	1.854041	0.000097	0.181354
C38	C	1.492239	0.000069	-0.044715
C39	C	1.488546	0.000073	-0.184157
N40	N	1.404716	0.237491	0.265160
C41	C	1.601087	0.000075	-0.263642
C42	C	1.597608	0.000082	-0.394661
C43	C	1.369039	0.000080	-0.366698
C44	C	1.372517	0.000081	-0.235679
C45	C	1.733051	0.000071	-0.279789
C46	C	1.729572	0.000078	-0.410808
C47	C	1.477899	0.000076	0.414362
C48	C	1.481590	0.000079	0.553806
H49	H	1.129294	0.000025	-0.019385
C50	C	1.816137	-0.452576	-0.146061
C51	C	1.807906	-0.438142	-0.284215
C52	C	1.920596	-0.495873	-0.396825
C53	C	2.041516	-0.568039	-0.371280
C54	C	2.049752	-0.582476	-0.233120
C55	C	1.937063	-0.524744	-0.120510
H56	H	1.718389	-0.384718	-0.303131
H57	H	1.914498	-0.485185	-0.499101
H58	H	2.124936	-0.610775	-0.454641
H59	H	2.139269	-0.635900	-0.214204
H60	H	1.943160	-0.535432	-0.018234
H61	H	1.745073	0.072114	-0.432073
H62	H	0.868133	-0.071925	0.444844
H63	H	1.073416	-0.069739	0.460790
C64	C	1.770847	0.094389	-0.208195
C65	C	1.797795	0.170430	-0.282851
C66	C	1.835587	0.264745	-0.211256
C67	C	1.846431	0.283020	-0.065005
C68	C	1.819482	0.206977	0.009659
C69	C	1.781689	0.112661	-0.061935
H70	H	1.789769	0.156903	-0.391122
H71	H	1.855537	0.321037	-0.266528
H72	H	1.874407	0.352838	-0.012006
H73	H	1.827508	0.220503	0.117931
H74	H	1.761740	0.056370	-0.006663
C75	C	1.822762	-0.097233	-0.264576
C76	C	1.896048	-0.180613	-0.386527
C77	C	1.985759	-0.277917	-0.371312
C78	C	2.002183	-0.291842	-0.234146
C79	C	1.928894	-0.208459	-0.112185
C80	C	1.839184	-0.111155	-0.127400
H81	H	1.883892	-0.170308	-0.488074
H82	H	2.040012	-0.339642	-0.461596
H83	H	2.068592	-0.363872	-0.222883
H84	H	1.941050	-0.218765	-0.010638
H85	H	1.784931	-0.049430	-0.037115
H86	H	0.891571	0.000091	-0.025663
H87	H	1.214557	-0.404734	0.455157
H88	H	1.031731	0.072113	0.499203
H89	H	1.415147	-0.247142	0.254665
H90	H	0.824062	0.069926	0.502689
H91	H	1.802923	-0.069738	-0.476194
H92	H	1.183273	-0.562274	0.486439
C93	C	1.325710	-0.279416	0.344075
C94	C	1.279513	-0.221661	0.243857
C95	C	1.240373	-0.106145	0.282964
C96	C	1.247432	-0.048384	0.422287
C97	C	1.293632	-0.106139	0.522513
C98	C	1.332771	-0.221655	0.483407
H99	H	1.274286	-0.264419	0.140714
H100	H	1.206173	-0.063392	0.208769
H101	H	1.218459	0.037128	0.451236
H102	H	1.298858	-0.063381	0.625657
H103	H	1.366971	-0.264409	0.557602
H104	H	1.247839	-0.752788	0.421947
H105	H	1.554995	-0.752725	0.114968
H106	H	1.280870	0.000093	-0.170962
H107	H	1.634271	-0.690426	0.035732
H108	H	1.755577	-0.595132	-0.085519
H109	H	1.722320	-0.247062	-0.052323
H110	H	1.274572	0.000087	-0.408663
