data_functionalizedCrystal
_audit_creation_method	'MofGen! by Chris Wilmer'
_symmetry_space_group_name_H-M	'P1'
_symmetry_Int_Tables_number	1
_symmetry_cell_setting	triclinic
loop_
_symmetry_equiv_pos_as_xyz
  x,y,z
_cell_length_a	6.817900
_cell_length_b	9.582860
_cell_length_c	16.437606
_cell_angle_alpha	88.726901
_cell_angle_beta	115.325453
_cell_angle_gamma	111.206767
loop_
_atom_site_label
_atom_site_type_symbol
_atom_site_fract_x
_atom_site_fract_y
_atom_site_fract_z
V1	V	-4.210941	-0.210588	-0.280783
O2	O	-4.153936	0.006483	-0.275608
O3	O	-4.200642	-0.414062	-0.278699
O4	O	-4.224871	-0.208944	-0.403317
O5	O	-4.129539	-0.200055	-0.150128
V6	V	-4.681555	-0.184435	-0.265175
O7	O	-4.500515	-0.267956	-0.315019
O8	O	-4.842177	-0.127067	-0.230939
O9	O	-4.468647	0.019040	-0.267259
O10	O	-4.855956	-0.401505	-0.270350
O11	O	-4.880354	-0.194967	-0.395830
O12	O	-4.444418	-0.186079	-0.142642
C13	C	-4.052895	-0.463615	-0.274227
C14	C	-4.126176	-0.629969	-0.273340
C15	C	-4.083811	-0.201959	-0.433188
C16	C	-4.178482	-0.201960	-0.535242
V17	V	-4.075309	-0.184446	-0.689609
O18	O	-4.036449	-0.194978	-0.564085
O19	O	-4.060792	-0.186092	-0.807042
O20	O	-3.818410	0.019025	-0.644282
O21	O	-4.280509	-0.401515	-0.727972
V22	V	-4.600578	-0.210584	-0.700770
O23	O	-4.298351	-0.127071	-0.722663
O24	O	-4.845905	-0.267945	-0.687311
O25	O	-4.382879	-0.208945	-0.573621
O26	O	-4.761573	-0.200048	-0.831404
O27	O	-4.517513	0.006488	-0.667517
O28	O	-4.625261	-0.414062	-0.736382
C29	C	-4.248829	-0.193063	-0.112765
C30	C	-4.135141	-0.193053	-0.012594
C31	C	-4.279736	0.068585	-0.271728
C32	C	-4.185696	0.234937	-0.272621
C33	C	-3.929147	-0.193077	0.168923
C34	C	-4.042815	-0.193055	0.068754
C35	C	-3.605755	0.068565	-0.623157
C36	C	-3.480514	0.234916	-0.590427
C37	C	-4.487678	-0.463619	-0.742858
C38	C	-4.591322	-0.629972	-0.774683
C39	C	-3.604654	0.320726	-0.585793
C40	C	-3.486999	0.477029	-0.555029
C41	C	-3.245206	0.547520	-0.528905
C42	C	-3.121058	0.461697	-0.533538
C43	C	-3.238711	0.305396	-0.564296
C44	C	-4.453901	-0.700436	-0.784924
C45	C	-4.551246	-0.856744	-0.814813
C46	C	-4.786017	-0.942585	-0.834466
C47	C	-4.923444	-0.872112	-0.824221
C48	C	-4.826094	-0.715808	-0.794326
H49	H	-3.588124	0.546885	-0.551264
N50	N	-4.974343	-0.639809	-0.783302
H51	H	-4.899822	-0.590532	-0.717846
H52	H	-5.137805	-0.717995	-0.800343
N53	N	-4.403031	-0.932826	-0.825793
H54	H	-4.477536	-0.982175	-0.891232
H55	H	-4.392827	-1.012453	-0.784634
N56	N	-2.860272	0.537737	-0.505365
H57	H	-2.804605	0.649774	-0.485184
H58	H	-2.829649	0.522324	-0.558742
N59	N	-3.104799	0.212860	-0.569305
H60	H	-3.215997	0.103144	-0.592754
H61	H	-2.975632	0.221588	-0.506549
N62	N	-5.176673	-0.964711	-0.845442
H63	H	-5.198695	-0.956140	-0.789044
H64	H	-5.217289	-1.074368	-0.865964
N65	N	-4.200680	-0.607879	-0.763732
H66	H	-4.093824	-0.646972	-0.713612
H67	H	-4.160038	-0.498187	-0.743282
H68	H	-4.865253	-1.069858	-0.858802
H69	H	-3.801536	0.263355	-0.607061
H70	H	-3.149434	0.674791	-0.503862
