data_functionalizedCrystal
_audit_creation_method	'MofGen! by Chris Wilmer'
_symmetry_space_group_name_H-M	'P1'
_symmetry_Int_Tables_number	1
_symmetry_cell_setting	triclinic
loop_
_symmetry_equiv_pos_as_xyz
  x,y,z
_cell_length_a	15.995350
_cell_length_b	15.995350
_cell_length_c	15.072220
_cell_angle_alpha	90.001101
_cell_angle_beta	89.991149
_cell_angle_gamma	83.492375
loop_
_atom_site_label
_atom_site_type_symbol
_atom_site_fract_x
_atom_site_fract_y
_atom_site_fract_z
O1	O	1.110996	0.107921	-0.073703
O2	O	1.610996	0.607921	0.426297
O3	O	0.867221	0.121249	-0.073721
O4	O	1.367221	0.621249	0.426279
O5	O	0.995772	-0.007303	-0.073710
O6	O	1.495772	0.492697	0.426290
O7	O	0.982444	0.236472	-0.073713
O8	O	1.482444	0.736472	0.426287
O9	O	0.995740	-0.007296	0.073855
O10	O	1.495740	0.492704	0.573855
O11	O	0.867189	0.121256	0.073844
O12	O	1.367189	0.621256	0.573844
O13	O	1.110964	0.107928	0.073862
O14	O	1.610964	0.607928	0.573862
Zn15	Zn	0.989071	0.114593	0.097283
Zn16	Zn	1.489071	0.614593	0.597283
Zn17	Zn	0.989113	0.114584	-0.097141
Zn18	Zn	1.489113	0.614584	0.402859
O19	O	0.982413	0.236480	0.073852
O20	O	1.482413	0.736480	0.573852
C21	C	0.836010	0.120701	0.000060
C22	C	1.336010	0.620701	0.500060
C23	C	0.743060	0.119049	0.000053
C24	C	1.243060	0.619049	0.500053
C25	C	0.405312	0.113117	0.000071
C26	C	0.905312	0.613117	0.500071
C27	C	0.452746	0.021565	0.000401
C28	C	0.952746	0.521565	0.500401
C29	C	0.549436	0.023217	0.000063
C30	C	1.049436	0.523217	0.500063
C31	C	0.572873	0.116060	0.000063
C32	C	1.072873	0.616060	0.500063
C33	C	0.531804	0.161212	-0.084201
C34	C	1.031804	0.661212	0.415799
C35	C	0.435168	0.158912	-0.084266
C36	C	0.935168	0.658912	0.415734
C37	C	0.434793	0.160812	0.083543
C38	C	0.934793	0.660812	0.583543
C39	C	0.531738	0.160790	0.084651
C40	C	1.031738	0.660790	0.584651
C41	C	0.667570	0.117727	0.000055
C42	C	1.167570	0.617727	0.500055
C43	C	0.310614	0.111452	0.000073
C44	C	0.810614	0.611452	0.500073
C45	C	0.995205	-0.038494	0.000070
C46	C	1.495205	0.461506	0.500070
C47	C	0.993553	-0.131444	0.000065
C48	C	1.493553	0.368556	0.500065
C49	C	0.987621	-0.469192	0.000068
C50	C	1.487621	0.030808	0.500068
C51	C	0.896069	-0.421758	-0.000270
C52	C	1.396069	0.078242	0.499730
C53	C	0.897721	-0.325068	0.000063
C54	C	1.397721	0.174932	0.500063
C55	C	0.990564	-0.301631	0.000066
C56	C	1.490564	0.198369	0.500066
C57	C	1.035702	-0.342705	0.084335
C58	C	1.535702	0.157295	0.584335
C59	C	1.033402	-0.439341	0.084405
C60	C	1.533402	0.060659	0.584405
C61	C	1.035330	-0.439707	-0.083404
C62	C	1.535330	0.060293	0.416596
C63	C	1.035308	-0.342761	-0.084518
C64	C	1.535308	0.157239	0.415482
C65	C	0.992231	-0.206934	0.000068
C66	C	1.492231	0.293066	0.500068
C67	C	0.985956	-0.563890	0.000072
C68	C	1.485956	-0.063890	0.500072
C69	C	1.142175	0.108476	0.000080
C70	C	1.642175	0.608476	0.500080
C71	C	1.235125	0.110127	0.000081
C72	C	1.735125	0.610127	0.500081
C73	C	0.982980	0.267671	0.000069
C74	C	1.482980	0.767671	0.500069
C75	C	0.984631	0.360621	0.000069
C76	C	1.484631	0.860621	0.500069
N77	N	0.989049	0.114599	0.229971
N78	N	1.489049	0.614599	0.729971
N79	N	0.989142	0.114571	-0.229830
N80	N	1.489142	0.614571	0.270170
C81	C	0.989112	0.114580	0.589173
C82	C	1.489112	0.614580	1.089173
C83	C	0.920095	0.183135	0.551560
C84	C	1.420095	0.683135	1.051560
C85	C	0.920254	0.183385	0.448735
C86	C	1.420254	0.683385	0.948735
C87	C	0.989080	0.114590	0.410969
C88	C	1.489080	0.614590	0.910969
C89	C	1.076445	0.133671	0.448266
C90	C	1.576445	0.633671	0.948266
C91	C	1.076058	0.134159	0.551124
C92	C	1.576058	0.634159	1.051124
C93	C	0.971542	0.026741	0.551272
C94	C	1.471542	0.526741	1.051272
C95	C	0.969537	0.027327	0.448409
C96	C	1.469537	0.527327	0.948409
C97	C	0.989067	0.114593	0.310255
C98	C	1.489067	0.614593	0.810255
C99	C	0.989130	0.114579	0.689886
C100	C	1.489130	0.614579	1.189886
H101	H	0.416873	0.125979	-0.147255
H102	H	0.916873	0.625979	0.352745
N103	N	0.888913	0.009169	0.417829
N104	N	1.388913	0.509169	0.917829
N105	N	0.845961	0.060262	0.368641
N106	N	1.345961	0.560262	0.868641
H107	H	0.789019	0.047440	0.347038
H108	H	1.289019	0.547440	0.847038
N109	N	0.852898	-0.290100	0.075976
N110	N	1.352898	0.209900	0.575976
N111	N	0.889707	-0.250264	0.132453
N112	N	1.389707	0.249736	0.632453
H113	H	0.858051	-0.225568	0.186072
H114	H	1.358051	0.274432	0.686072
H115	H	0.931160	0.247952	0.577399
H116	H	1.431160	0.747952	1.077399
H117	H	0.547102	0.228494	0.089741
H118	H	1.047102	0.728494	0.589741
N119	N	1.028500	-0.039666	0.416152
N120	N	1.528500	0.460334	0.916152
N121	N	1.086146	-0.024117	0.364819
N122	N	1.586146	0.475883	0.864819
H123	H	1.127795	-0.071429	0.342036
H124	H	1.627795	0.428571	0.842036
N125	N	0.429495	-0.024293	0.076244
N126	N	0.929495	0.475707	0.576244
N127	N	0.354389	-0.036284	0.087779
N128	N	0.854389	0.463716	0.587779
H129	H	0.337969	-0.068655	0.141360
H130	H	0.837969	0.431345	0.641360
H131	H	0.854945	0.171953	0.576317
H132	H	1.354945	0.671953	1.076317
H133	H	1.005411	-0.460250	-0.147274
H134	H	1.505411	0.039750	0.352726
H135	H	1.129019	0.086195	0.576003
H136	H	1.629019	0.586195	1.076003
H137	H	0.559041	0.127829	0.146989
H138	H	1.059041	0.627829	0.646989
N139	N	1.121271	-0.324996	0.088295
N140	N	1.621271	0.175004	0.588295
N141	N	1.179637	-0.383993	0.088028
N142	N	1.679637	0.116007	0.588028
H143	H	1.240071	-0.371486	0.090827
H144	H	1.740071	0.128514	0.590827
H145	H	0.402920	0.226128	-0.088090
H146	H	0.902920	0.726128	0.411910
H147	H	0.931473	0.248570	0.424121
H148	H	1.431473	0.748570	0.924121
H149	H	0.859626	-0.441349	0.059819
H150	H	1.359626	0.058651	0.559819
H151	H	1.129029	0.085068	0.423801
H152	H	1.629029	0.585068	0.923801
H153	H	0.545929	0.229421	-0.087335
H154	H	1.045929	0.729421	0.412665
N155	N	1.034683	-0.037252	0.581790
N156	N	1.534683	0.462748	1.081790
N157	N	1.092401	-0.018366	0.631236
N158	N	1.592401	0.481634	1.131236
H159	H	1.136996	-0.063554	0.652795
H160	H	1.636996	0.436446	1.152795
N161	N	1.120002	-0.479566	-0.084124
N162	N	1.620002	0.020434	0.415876
N163	N	1.145745	-0.525519	-0.147808
N164	N	1.645745	-0.025519	0.352192
H165	H	1.205542	-0.553675	-0.148310
H166	H	1.705542	-0.053675	0.351690
H167	H	0.403031	0.228312	0.084113
H168	H	0.903031	0.728312	0.584113
N169	N	0.996325	-0.307106	0.162996
N170	N	1.496325	0.192894	0.662996
N171	N	0.920251	-0.313138	0.177215
N172	N	1.420251	0.186862	0.677215
H173	H	0.892434	-0.287998	0.232768
H174	H	1.392434	0.212002	0.732768
N175	N	0.585078	-0.021316	0.075836
N176	N	1.085078	0.478684	0.575836
N177	N	0.538548	-0.053839	0.129340
N178	N	1.038548	0.446161	0.629340
H179	H	0.563716	-0.085299	0.182855
H180	H	1.063716	0.414701	0.682855
N181	N	0.853204	-0.289423	-0.075718
N182	N	1.353204	0.210577	0.424282
N183	N	0.820693	-0.335950	-0.129221
N184	N	1.320693	0.164050	0.370779
H185	H	0.789246	-0.310780	-0.182743
H186	H	1.289246	0.189220	0.317257
H187	H	0.859490	-0.440293	-0.060701
H188	H	1.359490	0.059707	0.439299
H189	H	0.433165	-0.014865	-0.059694
H190	H	0.933165	0.485135	0.440306
N191	N	0.992076	-0.462289	0.163427
N192	N	1.492076	0.037711	0.663427
N193	N	0.965129	-0.406960	0.218140
N194	N	1.465129	0.093040	0.718140
H195	H	0.935940	-0.423162	0.273951
H196	H	1.435940	0.076838	0.773951
H197	H	1.100617	-0.471588	0.088231
H198	H	1.600617	0.028412	0.588231
N199	N	0.993954	-0.308517	-0.162719
N200	N	1.493954	0.191483	0.337281
N201	N	0.931759	-0.254020	-0.156252
N202	N	1.431759	0.245980	0.343748
H203	H	0.902550	-0.229830	-0.211481
H204	H	1.402550	0.270170	0.288519
N205	N	1.120252	-0.323515	-0.090909
N206	N	1.620252	0.176485	0.409091
N207	N	1.165413	-0.351246	-0.154434
N208	N	1.665413	0.148754	0.345566
H209	H	1.225409	-0.337657	-0.158943
H210	H	1.725409	0.162343	0.341057
H211	H	0.577307	-0.012521	-0.060446
H212	H	1.077307	0.487479	0.439554
N213	N	0.567443	0.121879	-0.162867
N214	N	1.067443	0.621879	0.337133
N215	N	0.623076	0.060603	-0.157090
N216	N	1.123076	0.560603	0.342910
H217	H	0.648256	0.032827	-0.212646
H218	H	1.148256	0.532827	0.287354
H219	H	0.855314	0.172016	0.423519
H220	H	1.355314	0.672016	0.923519
N221	N	1.095484	0.214523	0.581202
N222	N	1.595484	0.714523	1.081202
N223	N	1.109231	0.269860	0.526229
N224	N	1.609231	0.769860	1.026229
H225	H	1.122951	0.326620	0.547467
H226	H	1.622951	0.826620	1.047467
N227	N	0.893334	0.003738	0.583816
N228	N	1.393334	0.503738	1.083816
N229	N	0.835970	-0.008553	0.530707
N230	N	1.335970	0.491447	1.030707
H231	H	0.780730	-0.024791	0.553687
H232	H	1.280730	0.475209	1.053687
N233	N	1.096317	0.213126	0.415948
N234	N	1.596317	0.713126	0.915948
N235	N	1.048725	0.278651	0.432911
N236	N	1.548725	0.778651	0.932911
H237	H	1.062753	0.334769	0.410088
H238	H	1.562753	0.834769	0.910088
N239	N	0.409008	0.123265	0.163663
N240	N	0.909008	0.623265	0.663663
N241	N	0.368584	0.060890	0.160212
N242	N	0.868584	0.560890	0.660212
H243	H	0.350371	0.034365	0.216792
H244	H	0.850371	0.534365	0.716792
