data_functionalizedCrystal
_audit_creation_method	'MofGen! by Chris Wilmer'
_symmetry_space_group_name_H-M	'P1'
_symmetry_Int_Tables_number	1
_symmetry_cell_setting	triclinic
loop_
_symmetry_equiv_pos_as_xyz
  x,y,z
_cell_length_a	16.974897
_cell_length_b	14.519731
_cell_length_c	15.455313
_cell_angle_alpha	92.669259
_cell_angle_beta	83.675220
_cell_angle_gamma	83.544620
loop_
_atom_site_label
_atom_site_type_symbol
_atom_site_fract_x
_atom_site_fract_y
_atom_site_fract_z
O1	O	1.056321	0.109422	-0.146205
O2	O	1.556321	0.609422	0.353795
O3	O	0.825362	0.125285	-0.130011
O4	O	1.325362	0.625285	0.369989
O5	O	0.946956	-0.016926	-0.138529
O6	O	1.446956	0.483074	0.361471
O7	O	0.934727	0.251633	-0.137687
O8	O	1.434727	0.751633	0.362313
O9	O	0.940002	-0.008827	0.006220
O10	O	1.440002	0.491173	0.506220
O11	O	0.818409	0.133384	0.014738
O12	O	1.318409	0.633384	0.514738
O13	O	1.049367	0.117521	-0.001456
O14	O	1.549367	0.617521	0.498544
Cu15	Cu	0.933253	0.126192	0.019858
Cu16	Cu	1.433253	0.626192	0.519858
Cu17	Cu	0.941476	0.116614	-0.151325
Cu18	Cu	1.441476	0.616614	0.348675
O19	O	0.927774	0.259732	0.007062
O20	O	1.427774	0.759732	0.507062
C21	C	0.792327	0.128879	-0.055564
C22	C	1.292327	0.628879	0.444436
C23	C	0.704253	0.127511	-0.049389
C24	C	1.204253	0.627511	0.450611
C25	C	0.666658	0.122457	-0.125384
C26	C	1.166658	0.622457	0.374616
C27	C	0.583901	0.121187	-0.119568
C28	C	1.083901	0.621187	0.380432
C29	C	0.538740	0.124966	-0.037757
C30	C	1.038740	0.624966	0.462243
C31	C	0.576340	0.130023	0.038244
C32	C	1.076340	0.630023	0.538244
C33	C	0.659096	0.131300	0.032427
C34	C	1.159096	0.631300	0.532427
C35	C	0.290832	0.121628	-0.011901
C36	C	0.790832	0.621628	0.488099
C37	C	0.208072	0.120349	-0.006091
C38	C	0.708072	0.620349	0.493909
C39	C	0.215638	0.111514	-0.163904
C40	C	0.715638	0.611514	0.336096
C41	C	0.298395	0.112785	-0.169713
C42	C	0.798395	0.612785	0.330287
C43	C	0.335987	0.117848	-0.093712
C44	C	0.835987	0.617848	0.406288
N45	N	0.454149	0.123665	-0.031811
N46	N	0.954149	0.623665	0.468189
N47	N	0.420576	0.119155	-0.099659
N48	N	0.920576	0.619155	0.400341
C49	C	0.942906	-0.047232	-0.066114
C50	C	1.442906	0.452768	0.433886
C51	C	0.941189	-0.149600	-0.065993
C52	C	1.441189	0.350400	0.434007
C53	C	0.939794	-0.232735	-0.065897
C54	C	1.439794	0.267265	0.434103
C55	C	0.938051	-0.337032	-0.065782
C56	C	1.438051	0.162968	0.434218
C57	C	0.936667	-0.420161	-0.065690
C58	C	1.436667	0.079839	0.434310
C59	C	0.934924	-0.524465	-0.065573
C60	C	1.434924	-0.024465	0.434427
C61	C	1.082402	0.113927	-0.075905
C62	C	1.582402	0.613927	0.424095
C63	C	1.170477	0.115294	-0.082086
C64	C	1.670477	0.615294	0.417914
C65	C	0.931824	0.290038	-0.065355
C66	C	1.431824	0.790038	0.434645
C67	C	0.933541	0.392406	-0.065482
C68	C	1.433541	0.892406	0.434518
N69	N	0.927475	0.132928	0.140258
N70	N	1.427475	0.632928	0.640258
N71	N	0.947260	0.109871	-0.271726
N72	N	1.447260	0.609871	0.228274
C73	C	0.979150	0.072534	0.182032
C74	C	1.479150	0.572534	0.682032
C75	C	0.974788	0.077636	0.273146
C76	C	1.474788	0.577636	0.773146
C77	C	0.918754	0.143138	0.322483
C78	C	1.418754	0.643138	0.822483
C79	C	0.867073	0.203535	0.280703
C80	C	1.367073	0.703535	0.780703
C81	C	0.871432	0.198428	0.189591
C82	C	1.371432	0.698428	0.689591
C83	C	0.899939	0.165160	0.595383
C84	C	1.399939	0.665160	1.095383
C85	C	0.895585	0.170265	0.686500
C86	C	1.395585	0.670265	1.186500
C87	C	1.003300	0.044364	0.678937
C88	C	1.503300	0.544364	1.178937
C89	C	1.007657	0.039266	0.587824
C90	C	1.507657	0.539266	1.087824
C91	C	0.955974	0.099660	0.546052
C92	C	1.455974	0.599660	1.046052
N93	N	0.914295	0.148357	0.415616
N94	N	1.414295	0.648357	0.915616
N95	N	0.960429	0.094436	0.452921
N96	N	1.460429	0.594436	0.952921
H97	H	0.171301	0.123452	0.060533
H98	H	0.671301	0.623452	0.560533
H99	H	0.539564	0.133106	0.104856
H100	H	1.039564	0.633106	0.604856
H101	H	0.829352	0.247606	0.155580
H102	H	1.329352	0.747606	0.655580
H103	H	1.024783	0.019199	0.141867
H104	H	1.524783	0.519199	0.641867
O105	O	0.327444	0.126408	0.061863
O106	O	0.827444	0.626408	0.561863
C107	C	0.425305	0.053046	0.146302
C108	C	0.925305	0.553046	0.646302
C109	C	0.383917	0.047532	0.062714
C110	C	0.883917	0.547532	0.562714
H111	H	0.470960	-0.010726	0.147027
H112	H	0.970960	0.489274	0.647027
H113	H	0.456758	0.118357	0.148043
H114	H	0.956758	0.618357	0.648043
H115	H	0.378788	0.055564	0.205754
H116	H	0.878788	0.555564	0.705754
H117	H	0.430383	0.044977	0.003216
H118	H	0.930383	0.544977	0.503216
H119	H	0.352448	-0.017770	0.061050
H120	H	0.852448	0.482230	0.561050
H121	H	0.849953	0.223609	0.726667
H122	H	1.349953	0.723609	1.226667
O123	O	0.547513	0.116223	-0.193477
O124	O	1.047513	0.616223	0.306523
C125	C	0.563747	0.107628	-0.350619
C126	C	1.063747	0.607628	0.149381
C127	C	0.605058	0.113229	-0.266983
C128	C	1.105058	0.613229	0.233017
H129	H	0.610251	0.105225	-0.410070
H130	H	1.110251	0.605225	0.089930
H131	H	0.532378	0.042256	-0.352392
H132	H	1.032378	0.542256	0.147608
H133	H	0.518010	0.171331	-0.351304
H134	H	1.018010	0.671331	0.148696
H135	H	0.650830	0.049574	-0.266242
H136	H	1.150830	0.549574	0.233758
H137	H	0.636374	0.178641	-0.265243
H138	H	1.136374	0.678641	0.234757
H139	H	0.857857	0.214337	0.561379
H140	H	1.357857	0.714337	1.061379
O141	O	0.695497	0.136167	0.106335
O142	O	1.195497	0.636167	0.606335
C143	C	0.679258	0.144848	0.263477
C144	C	1.179258	0.644848	0.763477
C145	C	0.637937	0.139311	0.179845
C146	C	1.137937	0.639311	0.679845
H147	H	0.632738	0.147411	0.322931
H148	H	1.132738	0.647411	0.822931
H149	H	0.724950	0.081119	0.264263
H150	H	1.224950	0.581119	0.764263
H151	H	0.710679	0.210184	0.265147
H152	H	1.210679	0.710184	0.765147
H153	H	0.606472	0.074014	0.178119
H154	H	1.106472	0.574014	0.678119
H155	H	0.592289	0.203085	0.179092
H156	H	1.092289	0.703085	0.679092
O157	O	1.025078	0.018937	0.313584
O158	O	1.525078	0.518937	0.813584
C159	C	1.132363	-0.106491	0.296468
C160	C	1.632363	0.393509	0.796468
C161	C	1.075465	-0.040058	0.250561
C162	C	1.575465	0.459942	0.750561
H163	H	1.173105	-0.154218	0.245536
H164	H	1.673105	0.345782	0.745536
H165	H	1.170061	-0.064497	0.336294
H166	H	1.670061	0.435503	0.836294
H167	H	1.096001	-0.149985	0.341575
H168	H	1.596001	0.350015	0.841575
H169	H	1.111765	0.003451	0.205412
H170	H	1.611765	0.503451	0.705412
H171	H	1.037766	-0.082106	0.210791
H172	H	1.537766	0.417894	0.710791
O173	O	1.062110	-0.024448	0.540033
O174	O	1.562110	0.475552	1.040033
C175	C	1.168518	-0.148750	0.542148
C176	C	1.668518	0.351250	1.042148
C177	C	1.106873	-0.076656	0.596377
C178	C	1.606873	0.423344	1.096377
H179	H	1.204737	-0.190966	0.587677
H180	H	1.704737	0.309034	1.087677
H181	H	1.136281	-0.197121	0.501935
H182	H	1.636281	0.302879	1.001935
H183	H	1.210211	-0.111483	0.496671
H184	H	1.710211	0.388517	0.996671
H185	H	1.065162	-0.113844	0.641902
H186	H	1.565162	0.386156	1.141902
H187	H	1.139162	-0.028288	0.636531
H188	H	1.639162	0.471712	1.136531
O189	O	0.812711	0.267137	0.328756
O190	O	1.312711	0.767137	0.828756
C191	C	0.758229	0.330771	0.472469
C192	C	1.258229	0.830771	0.972469
C193	C	0.819843	0.258710	0.418157
C194	C	1.319843	0.758710	0.918157
H195	H	0.763963	0.323970	0.544760
H196	H	1.263963	0.823970	1.044760
H197	H	0.769527	0.403610	0.453869
H198	H	1.269527	0.903610	0.953869
H199	H	0.695538	0.318039	0.458978
H200	H	1.195538	0.818039	0.958978
H201	H	0.882558	0.271356	0.431619
H202	H	1.382558	0.771356	0.931619
H203	H	0.808475	0.185896	0.436765
H204	H	1.308475	0.685896	0.936765
H205	H	0.703422	0.119377	-0.192004
H206	H	1.203422	0.619377	0.307996
H207	H	0.185020	0.107394	-0.225779
H208	H	0.685020	0.607394	0.274221
O209	O	0.342138	0.109145	-0.249254
O210	O	0.842138	0.609145	0.250746
C211	C	0.340914	0.100175	-0.405169
C212	C	0.840914	0.600175	0.094831
C213	C	0.291276	0.104324	-0.315145
C214	C	0.791276	0.604324	0.184855
H215	H	0.299815	0.096256	-0.458466
H216	H	0.799815	0.596256	0.041534
H217	H	0.372672	0.165094	-0.411405
H218	H	0.872672	0.665094	0.088595
H219	H	0.387020	0.036030	-0.412279
H220	H	0.887020	0.536030	0.087721
H221	H	0.245129	0.168427	-0.307973
H222	H	0.745129	0.668427	0.192027
H223	H	0.259574	0.039361	-0.308949
H224	H	0.759574	0.539361	0.191051
H225	H	1.045377	-0.004807	0.712956
H226	H	1.545377	0.495193	1.212956
