data_functionalizedCrystal
_audit_creation_method	'MofGen! by Chris Wilmer'
_symmetry_space_group_name_H-M	'P1'
_symmetry_Int_Tables_number	1
_symmetry_cell_setting	triclinic
loop_
_symmetry_equiv_pos_as_xyz
  x,y,z
_cell_length_a	8.497366
_cell_length_b	8.497374
_cell_length_c	13.032831
_cell_angle_alpha	97.192176
_cell_angle_beta	82.791383
_cell_angle_gamma	90.036547
loop_
_atom_site_label
_atom_site_type_symbol
_atom_site_fract_x
_atom_site_fract_y
_atom_site_fract_z
Zn1	Zn	-1.198102	0.934395	1.598073
Zn2	Zn	-0.934348	1.198313	1.597970
Zn3	Zn	-0.900856	0.901008	1.423256
Zn4	Zn	-1.164639	1.164587	1.423325
O5	O	-1.049486	1.049576	1.510656
O6	O	-1.191136	0.997490	1.744310
O7	O	-0.709129	1.159017	1.574722
O8	O	-0.940274	0.684677	1.446460
O9	O	-0.997356	1.191390	1.744235
O10	O	-1.158660	0.709206	1.574897
O11	O	-0.684522	0.940588	1.446360
O12	O	-0.907826	0.907886	1.277014
O13	O	-1.389854	1.133910	1.446577
O14	O	-1.101627	1.101536	1.277065
O15	O	-1.414440	0.964788	1.574964
O16	O	-0.964909	1.414599	1.574789
O17	O	-1.134103	1.389821	1.446478
C18	C	-0.997462	0.997430	1.239118
C19	C	-0.975243	0.975159	1.122953
C20	C	-1.061082	1.061199	1.071216
C21	C	-1.038120	1.038184	0.951153
C22	C	-0.460978	1.049444	1.510717
C23	C	-0.639595	1.049747	1.510578
C24	C	-1.049507	1.459453	1.510643
C25	C	-1.049486	1.638102	1.510670
C26	C	-1.101715	1.101927	1.783254
C27	C	-1.123971	1.124235	1.899419
H28	H	-1.151577	1.151894	1.115808
Br29	Br	-0.887298	0.886984	0.876846
Br30	Br	-1.274839	1.275392	0.973723
H31	H	-0.884760	0.884453	1.078362
