data_functionalizedCrystal
_audit_creation_method	'MofGen! by Chris Wilmer'
_symmetry_space_group_name_H-M	'P1'
_symmetry_Int_Tables_number	1
_symmetry_cell_setting	triclinic
loop_
_symmetry_equiv_pos_as_xyz
  x,y,z
_cell_length_a	17.000383
_cell_length_b	19.188924
_cell_length_c	16.098538
_cell_angle_alpha	92.711427
_cell_angle_beta	87.475102
_cell_angle_gamma	79.371133
loop_
_atom_site_label
_atom_site_type_symbol
_atom_site_fract_x
_atom_site_fract_y
_atom_site_fract_z
O1	O	1.059590	0.021830	-0.069314
O2	O	0.827769	0.047175	-0.069305
O3	O	0.950372	-0.067546	-0.069300
O4	O	0.936987	0.136551	-0.069319
O5	O	0.943210	-0.060869	0.069213
O6	O	0.820607	0.053851	0.069208
O7	O	1.052429	0.028507	0.069198
Zn8	Zn	0.935381	0.042239	0.091195
Zn9	Zn	0.944817	0.033442	-0.091301
O10	O	0.929826	0.143228	0.069194
C11	C	0.794529	0.051874	-0.000047
C12	C	0.706157	0.055922	-0.000043
C13	C	0.946358	-0.090193	-0.000043
C14	C	0.945060	-0.167622	-0.000041
C15	C	0.205850	0.082055	-0.000076
C16	C	0.288886	0.078247	-0.000075
C17	C	0.340112	0.012142	-0.000063
C18	C	0.308299	-0.050158	-0.000060
C19	C	0.225264	-0.046349	-0.000067
C20	C	0.591309	-0.002570	-0.000047
C21	C	0.674348	-0.006374	-0.000037
C22	C	0.654930	0.122031	-0.000054
C23	C	0.571894	0.125834	-0.000056
C24	C	0.540088	0.063534	-0.000058
C25	C	0.424988	0.008248	-0.000059
C26	C	0.455213	0.067429	-0.000067
C27	C	0.948358	-0.207625	-0.075544
C28	C	0.947127	-0.280375	-0.075550
C29	C	0.942613	-0.313123	-0.000049
C30	C	0.939311	-0.273110	0.075464
C31	C	0.940534	-0.200359	0.075469
N32	N	0.983091	-0.432624	0.056143
N33	N	0.981931	-0.501735	0.056134
C34	C	0.938926	-0.532316	-0.000057
N35	N	0.897136	-0.491178	-0.056251
N36	N	0.898300	-0.422062	-0.056244
C37	C	0.941286	-0.392008	-0.000045
C38	C	0.940889	-0.651204	-0.075572
C39	C	0.939652	-0.723955	-0.075575
C40	C	0.931844	-0.716689	0.075442
C41	C	0.933073	-0.643938	0.075443
C42	C	0.937599	-0.611201	-0.000067
C43	C	1.085668	0.023807	-0.000061
C44	C	1.174041	0.019760	-0.000071
C45	C	0.933839	0.165875	-0.000065
C46	C	0.935138	0.243303	-0.000073
N47	N	0.928947	0.048242	0.215744
N48	N	0.951257	0.027433	-0.215850
C49	C	0.981003	-0.000435	0.259331
C50	C	0.976510	0.003771	0.346520
C51	C	0.919963	0.056657	0.390120
C52	C	0.867901	0.105336	0.346527
C53	C	0.872391	0.101127	0.259340
C54	C	0.903685	0.071904	0.653369
C55	C	0.899200	0.076110	0.740563
C56	C	1.007809	-0.025456	0.740550
C57	C	1.012297	-0.029658	0.653361
C58	C	0.960232	0.019019	0.609775
C59	C	0.915370	0.060958	0.479241
C60	C	0.964822	0.014714	0.520656
H61	H	0.164146	0.135884	-0.000080
Br62	Br	0.838628	0.132732	0.538416
H63	H	0.314780	0.128974	-0.000088
H64	H	0.530191	0.179663	-0.000069
Br65	Br	1.041558	-0.057062	0.461484
H66	H	0.680836	0.172752	-0.000055
Br67	Br	0.947026	-0.606769	-0.178046
Br68	Br	0.743870	-0.096092	-0.000019
Br69	Br	0.928593	-0.589644	0.177917
H70	H	0.565423	-0.053299	-0.000046
H71	H	0.413502	0.121250	-0.000081
H72	H	0.830000	0.140764	0.223852
H73	H	0.853151	0.119180	0.776058
Br74	Br	1.078463	-0.091516	0.799704
H75	H	0.942334	-0.756524	-0.137062
H76	H	0.199368	-0.097077	-0.000064
Br77	Br	1.089043	-0.101430	0.594188
Br78	Br	0.954496	-0.163197	-0.178020
Br79	Br	0.377819	-0.139872	-0.000048
H80	H	0.861293	0.111540	0.617889
Br81	Br	0.494515	-0.081462	-0.000036
H82	H	1.027053	-0.043497	0.223837
Br83	Br	0.925711	-0.761123	0.177910
H84	H	0.949807	-0.312951	-0.137036
H85	H	0.935634	-0.299777	0.136938
H86	H	0.937845	-0.167788	0.136955
H87	H	1.018898	-0.035866	0.382008
Br88	Br	0.791151	0.177108	0.405695
