data_functionalizedCrystal
_audit_creation_method	'MofGen! by Chris Wilmer'
_symmetry_space_group_name_H-M	'P1'
_symmetry_Int_Tables_number	1
_symmetry_cell_setting	triclinic
loop_
_symmetry_equiv_pos_as_xyz
  x,y,z
_cell_length_a	12.759401
_cell_length_b	25.639240
_cell_length_c	12.759393
_cell_angle_alpha	89.955765
_cell_angle_beta	89.981433
_cell_angle_gamma	90.031802
loop_
_atom_site_label
_atom_site_type_symbol
_atom_site_fract_x
_atom_site_fract_y
_atom_site_fract_z
Zn1	Zn	1.606124	-0.208133	-0.593891
Zn2	Zn	2.106124	0.291867	-0.093891
Zn3	Zn	1.605962	-0.295580	-0.418172
Zn4	Zn	2.105962	0.204420	0.081828
Zn5	Zn	1.430425	-0.208159	-0.418230
Zn6	Zn	1.930425	0.291841	0.081770
Zn7	Zn	1.430359	-0.295538	-0.593813
Zn8	Zn	1.930359	0.204462	-0.093813
O9	O	1.518218	-0.251853	-0.506027
O10	O	2.018218	0.248147	-0.006027
O11	O	1.753123	-0.219740	-0.570590
O12	O	2.253123	0.280260	-0.070590
O13	O	1.582638	-0.284012	-0.271159
O14	O	2.082638	0.215988	0.228841
O15	O	1.453828	-0.134990	-0.441588
O16	O	1.953828	0.365010	0.058412
O17	O	1.753005	-0.283987	-0.441490
O18	O	2.253005	0.216013	0.058510
O19	O	1.582912	-0.134971	-0.570646
O20	O	2.082912	0.365029	-0.070646
O21	O	1.453671	-0.219784	-0.271201
O22	O	1.953671	0.280216	0.228799
O23	O	1.283396	-0.219743	-0.441513
O24	O	1.783396	0.280257	0.058487
O25	O	1.453714	-0.283915	-0.740845
O26	O	1.953714	0.216085	-0.240845
O27	O	1.283347	-0.283940	-0.570514
O28	O	1.783347	0.216060	-0.070514
O29	O	1.582847	-0.219699	-0.740902
O30	O	2.082847	0.280301	-0.240902
O31	O	1.582573	-0.368740	-0.441415
O32	O	2.082573	0.131260	0.058585
O33	O	1.453558	-0.368709	-0.570457
O34	O	1.953558	0.131291	-0.070457
C35	C	1.245250	-0.251840	-0.506012
C36	C	1.745250	0.248160	-0.006012
C37	C	1.128474	-0.251848	-0.506031
C38	C	1.628474	0.248152	-0.006031
C39	C	1.073666	-0.218458	-0.573357
C40	C	1.573666	0.281542	-0.073357
C41	C	0.963942	-0.218468	-0.573364
C42	C	1.463942	0.281532	-0.073364
C43	C	0.963843	-0.285262	-0.438714
C44	C	1.463843	0.214738	0.061286
C45	C	1.073565	-0.285249	-0.438703
C46	C	1.573565	0.214751	0.061297
C47	C	1.073723	-0.179896	-0.651099
C48	C	1.573723	0.320104	-0.151099
C49	C	0.963999	-0.179906	-0.651105
C50	C	1.463999	0.320094	-0.151105
C51	C	1.518069	-0.387695	-0.505944
C52	C	2.018069	0.112305	-0.005944
C53	C	1.518102	-0.445809	-0.505944
C54	C	2.018102	0.054191	-0.005944
C55	C	1.585465	-0.806124	-0.573348
C56	C	2.085465	-0.306124	-0.073348
C57	C	1.585496	-0.860728	-0.573369
C58	C	2.085496	-0.360728	-0.073369
O59	O	1.642595	-0.888924	-0.630594
O60	O	2.142595	-0.388924	-0.130594
N61	N	1.518363	-0.888092	-0.506128
N62	N	2.018363	-0.388092	-0.006128
C63	C	1.451188	-0.860848	-0.438869
C64	C	1.951188	-0.360848	0.061131
O65	O	1.394088	-0.889137	-0.381678
O66	O	1.894088	-0.389137	0.118322
C67	C	1.451152	-0.806245	-0.438853
C68	C	1.951152	-0.306245	0.061147
C69	C	1.518297	-0.778884	-0.506091
C70	C	2.018297	-0.278884	-0.006091
C71	C	1.652604	-0.778763	-0.640581
C72	C	2.152604	-0.278763	-0.140581
C73	C	1.652574	-0.724163	-0.640558
C74	C	2.152574	-0.224163	-0.140558
C75	C	1.585406	-0.696923	-0.573302
C76	C	2.085406	-0.196923	-0.073302
C77	C	1.518267	-0.724283	-0.506068
C78	C	2.018267	-0.224283	-0.006068
C79	C	1.383972	-0.779002	-0.371600
C80	C	1.883972	-0.279002	0.128400
C81	C	1.383941	-0.724395	-0.371591
C82	C	1.883941	-0.224395	0.128409
C83	C	1.451086	-0.697034	-0.438829
C84	C	1.951086	-0.197034	0.061171
C85	C	1.451069	-0.642443	-0.438789
C86	C	1.951069	-0.142443	0.061211
N87	N	1.518202	-0.615080	-0.506030
N88	N	2.018202	-0.115080	-0.006030
C89	C	1.585370	-0.642320	-0.573287
C90	C	2.085370	-0.142320	-0.073287
C91	C	1.451266	-0.975518	-0.438907
C92	C	1.951266	-0.475518	0.061093
C93	C	1.451306	-1.030121	-0.438916
C94	C	1.951306	-0.530121	0.061084
C95	C	1.585614	-1.029997	-0.573419
C96	C	2.085614	-0.529997	-0.073419
C97	C	1.585578	-0.975394	-0.573403
C98	C	2.085578	-0.475394	-0.073403
C99	C	1.518399	-0.948155	-0.506148
C100	C	2.018399	-0.448155	-0.006148
C101	C	1.585303	-0.527655	-0.573233
C102	C	2.085303	-0.027655	-0.073233
C103	C	1.585270	-0.473049	-0.573201
C104	C	2.085270	0.026951	-0.073201
C105	C	1.450959	-0.473177	-0.438703
C106	C	1.950959	0.026823	0.061297
C107	C	1.450995	-0.527778	-0.438730
C108	C	1.950995	-0.027778	0.061270
C109	C	1.518171	-0.555015	-0.506004
C110	C	2.018171	-0.055015	-0.006004
O111	O	1.393996	-0.614213	-0.381597
O112	O	1.893996	-0.114213	0.118403
O113	O	1.642450	-0.614024	-0.630478
O114	O	2.142450	-0.114024	-0.130478
C115	C	1.792251	-0.251865	-0.506042
C116	C	2.292251	0.248135	-0.006042
C117	C	1.909027	-0.251871	-0.506048
C118	C	2.409027	0.248129	-0.006048
C119	C	1.518291	-0.251800	-0.780060
C120	C	2.018291	0.248200	-0.280060
C121	C	1.518323	-0.251777	-0.896837
C122	C	2.018323	0.248223	-0.396837
C123	C	1.518395	-0.115480	-0.506132
C124	C	2.018395	0.384520	-0.006132
C125	C	1.518471	-0.057365	-0.506177
C126	C	2.018471	0.442635	-0.006177
C127	C	1.585572	-0.218337	-0.951730
C128	C	2.085572	0.281663	-0.451730
C129	C	1.585597	-0.218318	-1.061454
C130	C	2.085597	0.281682	-0.561454
C131	C	1.451120	-0.285185	-1.061382
C132	C	1.951120	0.214815	-0.561382
C133	C	1.451091	-0.285200	-0.951660
C134	C	1.951091	0.214800	-0.451660
C135	C	1.663214	-0.179734	-0.951773
C136	C	2.163214	0.320266	-0.451773
C137	C	1.663239	-0.179715	-1.061497
C138	C	2.163239	0.320285	-0.561497
C139	C	1.518205	-0.251867	-0.233059
C140	C	2.018205	0.248133	0.266941
C141	C	1.518377	-0.251743	-0.116283
C142	C	2.018377	0.248257	0.383717
H143	H	1.103515	-0.139385	-0.629463
H144	H	1.603515	0.360615	-0.129463
Cl145	Cl	1.142462	-0.327212	-0.354030
Cl146	Cl	1.642462	0.172788	0.145970
H147	H	1.107779	-0.194443	-0.728330
H148	H	1.607779	0.305557	-0.228330
Cl149	Cl	1.366529	-0.327233	-0.882654
Cl150	Cl	1.866529	0.172767	-0.382654
Cl151	Cl	0.911469	-0.120495	-0.606356
Cl152	Cl	1.411469	0.379505	-0.106356
Cl153	Cl	1.366606	-0.327200	-1.130310
Cl154	Cl	1.866606	0.172800	-0.630310
H155	H	1.329295	-0.801269	-0.316847
H156	H	1.829295	-0.301269	0.183153
H157	H	0.919122	-0.312457	-0.383899
H158	H	1.419122	0.187543	0.116101
Cl159	Cl	1.629644	-0.117221	-0.905851
Cl160	Cl	2.129644	0.382779	-0.405851
H161	H	1.634149	-0.141242	-1.095562
H162	H	2.134149	0.358758	-0.595562
Cl163	Cl	1.299482	-0.690155	-0.287036
Cl164	Cl	1.799482	-0.190155	0.212964
Cl165	Cl	1.669689	-0.438656	-0.657733
Cl166	Cl	2.169689	0.061344	-0.157733
H167	H	0.934247	-0.190802	-0.732437
H168	H	1.434247	0.309198	-0.232437
Cl169	Cl	1.366597	-0.562175	-0.354188
Cl170	Cl	1.866597	-0.062175	0.145812
H171	H	1.396274	-0.450990	-0.383940
H172	H	1.896274	0.049010	0.116060
Cl173	Cl	1.736981	-0.689775	-0.725100
Cl174	Cl	2.236981	-0.189775	-0.225100
H175	H	1.639996	-0.549825	-0.628020
H176	H	2.139996	-0.049825	-0.128020
H177	H	1.740476	-0.194250	-0.917730
H178	H	2.240476	0.305750	-0.417730
Cl179	Cl	1.788857	-0.196452	-1.107473
Cl180	Cl	2.288857	0.303548	-0.607473
Cl181	Cl	1.669989	-0.941004	-0.657936
Cl182	Cl	2.169989	-0.441004	-0.157936
Cl183	Cl	1.670053	-1.064252	-0.657972
Cl184	Cl	2.170053	-0.564252	-0.157972
Cl185	Cl	1.737053	-0.812998	-0.725147
Cl186	Cl	2.237053	-0.312998	-0.225147
Cl187	Cl	1.366906	-1.064510	-0.354371
Cl188	Cl	1.866906	-0.564510	0.145629
H189	H	1.396564	-0.953343	-0.384131
H190	H	1.896564	-0.453343	0.115869
