data_functionalizedCrystal
_audit_creation_method	'MofGen! by Chris Wilmer'
_symmetry_space_group_name_H-M	'P1'
_symmetry_Int_Tables_number	1
_symmetry_cell_setting	triclinic
loop_
_symmetry_equiv_pos_as_xyz
  x,y,z
_cell_length_a	13.897449
_cell_length_b	13.897441
_cell_length_c	13.897448
_cell_angle_alpha	90.030599
_cell_angle_beta	89.982475
_cell_angle_gamma	89.977141
loop_
_atom_site_label
_atom_site_type_symbol
_atom_site_fract_x
_atom_site_fract_y
_atom_site_fract_z
Zn1	Zn	-1.474703	0.545436	-0.383988
Zn2	Zn	-0.974703	1.045436	0.116012
Zn3	Zn	-1.474597	0.384137	-0.545310
Zn4	Zn	-0.974597	0.884137	-0.045310
Zn5	Zn	-1.313392	0.384148	-0.384030
Zn6	Zn	-0.813392	0.884148	0.115970
Zn7	Zn	-1.313373	0.545384	-0.545243
Zn8	Zn	-0.813373	1.045384	-0.045243
O9	O	-1.394016	0.464776	-0.464643
O10	O	-0.894016	0.964776	0.035357
O11	O	-1.609670	0.524056	-0.405399
O12	O	-1.109670	1.024056	0.094601
O13	O	-1.453176	0.249157	-0.523962
O14	O	-0.953176	0.749157	-0.023962
O15	O	-1.334842	0.405570	-0.249043
O16	O	-0.834842	0.905570	0.250957
O17	O	-1.609592	0.405551	-0.523921
O18	O	-1.109592	0.905551	-0.023921
O19	O	-1.453356	0.524067	-0.249012
O20	O	-0.953356	1.024067	0.250988
O21	O	-1.334739	0.249165	-0.405470
O22	O	-0.834739	0.749165	0.094530
O23	O	-1.178408	0.405519	-0.405405
O24	O	-0.678408	0.905519	0.094595
O25	O	-1.334811	0.680372	-0.523806
O26	O	-0.834811	1.180372	-0.023806
O27	O	-1.178394	0.523978	-0.523847
O28	O	-0.678394	1.023978	-0.023847
O29	O	-1.453339	0.680411	-0.405333
O30	O	-0.953339	1.180411	0.094667
O31	O	-1.453158	0.405501	-0.680283
O32	O	-0.953158	0.905501	-0.180283
O33	O	-1.334708	0.523968	-0.680233
O34	O	-0.834708	1.023968	-0.180233
C35	C	-1.143402	0.464745	-0.464624
C36	C	-0.643402	0.964745	0.035376
C37	C	-1.036188	0.464755	-0.464639
C38	C	-0.536188	0.964755	0.035361
C39	C	-0.839893	0.464773	-0.464637
C40	C	-0.339893	0.964773	0.035363
C41	C	-0.949125	0.464760	-0.464635
C42	C	-0.449125	0.964760	0.035365
C43	C	-1.393946	0.464748	-0.715257
C44	C	-0.893946	0.964748	-0.215257
C45	C	-1.394004	0.464769	-0.822471
C46	C	-0.894004	0.964769	-0.322471
C47	C	-1.394085	0.716369	-0.464558
C48	C	-0.894085	1.216369	0.035442
C49	C	-1.394114	0.823583	-0.464521
C50	C	-0.894114	1.323583	0.035479
C51	C	-0.645609	0.464799	-0.464656
C52	C	-0.145609	0.964799	0.035344
C53	C	-0.752823	0.464785	-0.464646
C54	C	-0.252823	0.964785	0.035354
C55	C	-1.394003	0.214162	-0.464658
C56	C	-0.894003	0.714162	0.035342
C57	C	-1.394161	0.106949	-0.464423
C58	C	-0.894161	0.606949	0.035577
C59	C	-1.394140	1.019879	-0.464456
C60	C	-0.894140	1.519879	0.035544
C61	C	-1.394122	0.910646	-0.464495
C62	C	-0.894122	1.410646	0.035505
C63	C	-1.394105	0.464829	-1.018766
C64	C	-0.894105	0.964829	-0.518766
C65	C	-1.394046	0.464798	-0.909534
C66	C	-0.894046	0.964798	-0.409534
C67	C	-1.394113	0.464825	-0.213050
C68	C	-0.894113	0.964825	0.286950
C69	C	-1.394154	0.464846	-0.105836
C70	C	-0.894154	0.964846	0.394164
