data_functionalizedCrystal
_audit_creation_method	'MofGen! by Chris Wilmer'
_symmetry_space_group_name_H-M	'P1'
_symmetry_Int_Tables_number	1
_symmetry_cell_setting	triclinic
loop_
_symmetry_equiv_pos_as_xyz
  x,y,z
_cell_length_a	13.101039
_cell_length_b	15.538191
_cell_length_c	15.625429
_cell_angle_alpha	113.263208
_cell_angle_beta	75.329365
_cell_angle_gamma	92.020033
loop_
_atom_site_label
_atom_site_type_symbol
_atom_site_fract_x
_atom_site_fract_y
_atom_site_fract_z
O1	O	0.022850	-1.248145	-0.290892
O2	O	-0.014716	-0.976302	-0.189780
O3	O	0.052319	-1.116617	-0.370194
O4	O	-0.044186	-1.107829	-0.110479
O5	O	0.217934	-1.106550	-0.357233
O6	O	0.150898	-0.966234	-0.176820
O7	O	0.188464	-1.238078	-0.277932
Zn8	Zn	0.195976	-1.100558	-0.225318
Zn9	Zn	-0.022228	-1.113822	-0.242394
O10	O	0.121428	-1.097762	-0.097518
C11	C	0.064161	-0.936425	-0.172721
C12	C	0.052454	-0.832604	-0.141210
N13	N	0.344895	-1.091512	-0.213667
N14	N	-0.171144	-1.122874	-0.254054
C15	C	0.548045	-1.079206	-0.197807
C16	C	0.625711	-1.135178	-0.269910
C17	C	0.738751	-1.128330	-0.261086
C18	C	0.434994	-1.086052	-0.206630
C19	C	0.147174	-1.110189	-0.396141
C20	C	0.183070	-1.106022	-0.492762
C21	C	0.109585	-1.277954	-0.294991
C22	C	0.121285	-1.381775	-0.326503
C23	C	0.168763	-0.537334	-0.454265
C24	C	0.157752	-0.439777	-0.424634
C25	C	0.095821	-0.421316	-0.257964
C26	C	0.106831	-0.518874	-0.287581
C27	C	0.143302	-0.576876	-0.385733
C28	C	0.081370	-0.558416	-0.219048
C29	C	0.092375	-0.655965	-0.248664
C30	C	0.128841	-0.713973	-0.346812
C31	C	0.154307	-0.674426	-0.415348
C32	C	0.044893	-0.500413	-0.120897
C33	C	0.019432	-0.539954	-0.052364
C34	C	0.030444	-0.637505	-0.081979
C35	C	0.066910	-0.695513	-0.180127
C36	C	0.004978	-0.677053	-0.013442
C37	C	0.015983	-0.774603	-0.043058
C38	C	0.077915	-0.793063	-0.209743
C39	C	-0.150220	-1.119728	-0.845848
C40	C	-0.116460	-1.115806	-0.936634
C41	C	0.064081	-1.104832	-0.922492
C42	C	0.030337	-1.108757	-0.831705
C43	C	-0.076815	-1.116204	-0.793391
C44	C	0.103742	-1.105233	-0.779247
C45	C	0.069999	-1.109153	-0.688467
C46	C	-0.037149	-1.116597	-0.650144
C47	C	-0.110558	-1.120124	-0.702610
C48	C	0.210892	-1.097780	-0.817561
C49	C	0.284297	-1.094256	-0.765103
C50	C	0.250556	-1.098183	-0.674323
C51	C	0.143408	-1.105626	-0.636001
C52	C	0.323965	-1.094656	-0.621857
C53	C	0.290222	-1.098576	-0.531077
C54	C	0.109665	-1.109546	-0.545220
C55	C	0.026572	-1.104190	-0.071571
C56	C	-0.009331	-1.108357	0.025049
H57	H	0.566444	-1.026148	-0.129454
H58	H	0.066122	-0.374079	-0.178048
H59	H	0.178487	-0.407587	-0.480449
O60	O	0.427998	-1.087294	-0.659127
C61	C	0.439604	-1.004006	-0.675350
H62	H	0.361836	-0.981284	-0.683136
H63	H	0.504530	-1.017067	-0.744254
H64	H	0.461830	-0.946320	-0.611779
H65	H	-0.064622	-1.119778	-0.576219
O66	O	0.603615	-1.198286	-0.351481
C67	C	0.494062	-1.191021	-0.342334
H68	H	0.449855	-1.158947	-0.262630
H69	H	0.466391	-1.263880	-0.378146
H70	H	0.477351	-1.144363	-0.378829
O71	O	0.361453	-1.095283	-0.480085
C72	C	0.360677	-1.177905	-0.462999
H73	H	0.281680	-1.210156	-0.467480
H74	H	0.372169	-1.160188	-0.388110
H75	H	0.427554	-1.230180	-0.519589
H76	H	0.107619	-0.840291	-0.289667
H77	H	0.184011	-0.721654	-0.495273
O78	O	0.139357	-0.808729	-0.375480
C79	C	0.040271	-0.841480	-0.346396
H80	H	-0.012750	-0.781617	-0.282900
H81	H	0.051703	-0.901035	-0.323734
H82	H	0.001738	-0.868270	-0.409034
O83	O	0.243802	-1.094082	-0.905789
C84	C	0.317893	-1.170443	-0.968098
H85	H	0.355623	-1.196398	-0.923617
H86	H	0.381836	-1.146967	-1.017298
H87	H	0.276133	-1.229710	-1.013765
H88	H	0.198467	-0.584563	-0.534190
H89	H	0.035931	-0.420982	-0.096787
H90	H	-0.010267	-0.492717	0.027551
H91	H	-0.024726	-0.629814	0.066472
H92	H	-0.004741	-0.806797	0.012749
O93	O	-0.214628	-1.127275	-0.665228
C94	C	-0.252899	-1.049205	-0.577304
H95	H	-0.184020	-1.018092	-0.545622
H96	H	-0.311794	-1.072468	-0.524525
H97	H	-0.293831	-0.993928	-0.590665
H98	H	-0.176245	-1.118668	-0.979339
H99	H	0.022413	-1.115618	-0.514026
O100	O	0.388332	-1.086903	-0.802375
C101	C	0.399953	-1.003620	-0.818606
H102	H	0.322189	-0.980890	-0.826393
H103	H	0.464880	-1.016692	-0.887513
H104	H	0.422187	-0.945935	-0.755040
O105	O	-0.254354	-1.126926	-0.808747
C106	C	-0.311910	-1.129228	-0.874527
H107	H	-0.266266	-1.095333	-0.924068
H108	H	-0.392263	-1.088977	-0.833153
H109	H	-0.323743	-1.205232	-0.919548
H110	H	0.151324	-1.098765	-0.953699
