data_functionalizedCrystal
_audit_creation_method	'MofGen! by Chris Wilmer'
_symmetry_space_group_name_H-M	'P1'
_symmetry_Int_Tables_number	1
_symmetry_cell_setting	triclinic
loop_
_symmetry_equiv_pos_as_xyz
  x,y,z
_cell_length_a	12.827893
_cell_length_b	29.839131
_cell_length_c	12.827885
_cell_angle_alpha	89.962989
_cell_angle_beta	89.980728
_cell_angle_gamma	90.041391
loop_
_atom_site_label
_atom_site_type_symbol
_atom_site_fract_x
_atom_site_fract_y
_atom_site_fract_z
Zn1	Zn	1.597481	-0.178831	-0.590798
Zn2	Zn	2.097481	0.321169	-0.090798
Zn3	Zn	1.597295	-0.253968	-0.416036
Zn4	Zn	2.097295	0.246032	0.083964
Zn5	Zn	1.422722	-0.178853	-0.416071
Zn6	Zn	1.922722	0.321147	0.083929
Zn7	Zn	1.422628	-0.253935	-0.590736
Zn8	Zn	1.922628	0.246065	-0.090736
O9	O	1.510031	-0.216397	-0.503410
O10	O	2.010031	0.283603	-0.003410
O11	O	1.743692	-0.188803	-0.567626
O12	O	2.243692	0.311197	-0.067626
O13	O	1.574100	-0.244028	-0.269805
O14	O	2.074100	0.255972	0.230195
O15	O	1.446021	-0.115983	-0.439289
O16	O	1.946021	0.384017	0.060711
O17	O	1.743556	-0.244006	-0.439230
O18	O	2.243556	0.255994	0.060770
O19	O	1.574415	-0.115967	-0.567660
O20	O	2.074415	0.384033	-0.067660
O21	O	1.445841	-0.188841	-0.269830
O22	O	1.945841	0.311159	0.230170
O23	O	1.276473	-0.188808	-0.439230
O24	O	1.776473	0.311192	0.060770
O25	O	1.445861	-0.243949	-0.736981
O26	O	1.945861	0.256051	-0.236981
O27	O	1.276404	-0.243970	-0.567556
O28	O	1.776404	0.256030	-0.067556
O29	O	1.574324	-0.188770	-0.737026
O30	O	2.074324	0.311230	-0.237026
O31	O	1.574008	-0.316831	-0.439170
O32	O	2.074008	0.183169	0.060830
O33	O	1.445681	-0.316806	-0.567522
O34	O	1.945681	0.183194	-0.067522
C35	C	1.238522	-0.216388	-0.503390
C36	C	1.738522	0.283612	-0.003390
C37	C	1.122368	-0.216395	-0.503407
C38	C	1.622368	0.283605	-0.003407
C39	C	1.509843	-0.333119	-0.503359
C40	C	2.009843	0.166881	-0.003359
C41	C	1.509858	-0.383054	-0.503371
C42	C	2.009858	0.116946	-0.003371
C43	C	1.070577	-0.243734	-0.566808
C44	C	1.570577	0.256266	-0.066808
C45	C	0.950527	-0.243742	-0.566827
C46	C	1.450527	0.256258	-0.066827
C47	C	1.576973	-0.692697	-0.436675
C48	C	2.076973	-0.192697	0.063325
C49	C	1.577102	-0.880371	-0.436716
C50	C	2.077102	-0.380371	0.063284
O51	O	1.634016	-0.904636	-0.379969
O52	O	2.134016	-0.404636	0.120031
N53	N	1.510248	-0.903839	-0.503489
N54	N	2.010248	-0.403839	-0.003489
C55	C	1.443362	-0.880386	-0.570262
C56	C	1.943362	-0.380386	-0.070262
O57	O	1.386509	-0.904654	-0.627065
O58	O	1.886509	-0.404654	-0.127065
C59	C	1.443239	-0.692714	-0.570226
C60	C	1.943239	-0.192714	-0.070226
C61	C	1.510090	-0.669248	-0.503441
C62	C	2.010090	-0.169248	-0.003441
C63	C	1.643819	-0.669231	-0.369897
C64	C	2.143819	-0.169231	0.130103
C65	C	1.643782	-0.622316	-0.369883
C66	C	2.143782	-0.122316	0.130117
C67	C	1.576899	-0.598867	-0.436648
C68	C	2.076899	-0.098867	0.063352
C69	C	1.510053	-0.622333	-0.503427
C70	C	2.010053	-0.122333	-0.003427
C71	C	1.376359	-0.669262	-0.637003
C72	C	1.876359	-0.169262	-0.137003
C73	C	1.376336	-0.622341	-0.636990
C74	C	1.876336	-0.122341	-0.136990
C75	C	1.443187	-0.598875	-0.570205
C76	C	1.943187	-0.098875	-0.070205
C77	C	1.443133	-0.551968	-0.570179
C78	C	1.943133	-0.051968	-0.070179
N79	N	1.509987	-0.528499	-0.503406
N80	N	2.009987	-0.028499	-0.003406
C81	C	1.576870	-0.551949	-0.436641
C82	C	2.076870	-0.051949	0.063359
C83	C	1.443430	-0.978917	-0.570274
C84	C	1.943430	-0.478917	-0.070274
C85	C	1.443459	-1.025835	-0.570282
C86	C	1.943459	-0.525835	-0.070282
C87	C	1.577201	-1.025816	-0.436738
C88	C	2.077201	-0.525816	0.063262
C89	C	1.577165	-0.978897	-0.436725
C90	C	2.077165	-0.478897	0.063275
C91	C	1.510284	-0.955448	-0.503501
C92	C	2.010284	-0.455448	-0.003501
C93	C	1.576787	-0.453423	-0.436617
C94	C	2.076787	0.046577	0.063383
C95	C	1.576741	-0.406503	-0.436606
C96	C	2.076741	0.093497	0.063394
C97	C	1.443004	-0.406526	-0.570154
C98	C	1.943004	0.093474	-0.070154
C99	C	1.443045	-0.453442	-0.570161
C100	C	1.943045	0.046558	-0.070161
C101	C	1.509945	-0.476889	-0.503389
C102	C	2.009945	0.023111	-0.003389
O103	O	1.386257	-0.527674	-0.626905
O104	O	1.886257	-0.027674	-0.126905
O105	O	1.633731	-0.527673	-0.379862
O106	O	2.133731	-0.027673	0.120138
C107	C	1.577010	-0.739613	-0.436689
C108	C	2.077010	-0.239613	0.063311
C109	C	1.510164	-0.763079	-0.503468
C110	C	2.010164	-0.263079	-0.003468
C111	C	1.443281	-0.739629	-0.570233
C112	C	1.943281	-0.239629	-0.070233
C113	C	1.510193	-0.809997	-0.503476
C114	C	2.010193	-0.309997	-0.003476
C115	C	1.577076	-0.833446	-0.436710
C116	C	2.077076	-0.333446	0.063290
C117	C	1.643930	-0.809978	-0.369937
C118	C	2.143930	-0.309978	0.130063
C119	C	1.643893	-0.763062	-0.369924
C120	C	2.143893	-0.263062	0.130076
C121	C	1.376427	-0.763098	-0.637006
C122	C	1.876427	-0.263098	-0.137006
C123	C	1.376468	-0.810013	-0.637013
C124	C	1.876468	-0.310013	-0.137013
C125	C	1.443352	-0.833463	-0.570248
C126	C	1.943352	-0.333463	-0.070248
C127	C	1.782602	-0.216406	-0.503431
C128	C	2.282602	0.283594	-0.003431
C129	C	1.898755	-0.216410	-0.503440
C130	C	2.398755	0.283590	-0.003440
C131	C	1.510103	-0.216353	-0.775981
C132	C	2.010103	0.283647	-0.275981
C133	C	1.510133	-0.216335	-0.892134
C134	C	2.010133	0.283665	-0.392134
C135	C	1.510249	-0.099218	-0.503485
C136	C	2.010249	0.400782	-0.003485
C137	C	1.510342	-0.049284	-0.503517
C138	C	2.010342	0.450716	-0.003517
C139	C	1.446720	-0.189003	-1.063976
C140	C	1.946720	0.310997	-0.563976
C141	C	1.446687	-0.189021	-0.943925
C142	C	1.946687	0.310979	-0.443925
C143	C	1.510021	-0.216408	-0.231900
C144	C	2.010021	0.283592	0.268100
C145	C	1.510193	-0.216300	-0.115748
C146	C	2.010193	0.283700	0.384252
H147	H	1.115113	-0.267132	-0.621079
H148	H	1.615113	0.232868	-0.121079
Cl149	Cl	1.594065	-0.252402	-1.046971
Cl150	Cl	2.094065	0.247598	-0.546971
H151	H	1.698386	-0.829079	-0.315572
H152	H	2.198386	-0.329079	0.184428
Cl153	Cl	0.967507	-0.180273	-0.419621
Cl154	Cl	1.467507	0.319727	0.080379
Cl155	Cl	1.362777	-0.152940	-0.875191
Cl156	Cl	1.862777	0.347060	-0.375191
H157	H	0.905987	-0.267149	-0.621104
H158	H	1.405987	0.232851	-0.121104
H159	H	1.321917	-0.688360	-0.691381
H160	H	1.821917	-0.188360	-0.191381
Cl161	Cl	1.594034	-0.252422	-0.960861
Cl162	Cl	2.094034	0.247578	-0.460861
H163	H	1.321874	-0.603251	-0.691370
H164	H	1.821874	-0.103251	-0.191370
Cl165	Cl	1.358982	-0.482943	-0.654099
Cl166	Cl	1.858982	0.017057	-0.154099
Cl167	Cl	1.292417	-0.839508	-0.720980
Cl168	Cl	1.792417	-0.339508	-0.220980
Cl169	Cl	1.727944	-0.733569	-0.285965
Cl170	Cl	2.227944	-0.233569	0.214035
Cl171	Cl	1.727913	-0.698702	-0.285952
Cl172	Cl	2.227913	-0.198702	0.214048
Cl173	Cl	1.358932	-0.377038	-0.654089
Cl174	Cl	1.858932	0.122962	-0.154089
H175	H	1.388964	-0.959828	-0.624653
H176	H	1.888964	-0.459828	-0.124653
Cl177	Cl	1.362859	-0.152896	-1.132753
Cl178	Cl	1.862859	0.347104	-0.632753
H179	H	1.077832	-0.192994	-0.449144
H180	H	1.577832	0.307006	0.050856
H181	H	1.631178	-0.387399	-0.382218
H182	H	2.131178	0.112601	0.117782
Cl183	Cl	1.660889	-0.482892	-0.352671
Cl184	Cl	2.160889	0.017108	0.147329
H185	H	1.389013	-1.044937	-0.624656
H186	H	1.889013	-0.544937	-0.124656
Cl187	Cl	1.661211	-0.949402	-0.352766
Cl188	Cl	2.161211	-0.449402	0.147234
Cl189	Cl	1.661281	-1.055304	-0.352803
Cl190	Cl	2.161281	-0.555304	0.147197
Cl191	Cl	1.727844	-0.592823	-0.285936
Cl192	Cl	2.227844	-0.092823	0.214064
Cl193	Cl	1.292336	-0.733626	-0.720948
Cl194	Cl	1.792336	-0.233626	-0.220948
