data_functionalizedCrystal
_audit_creation_method	'MofGen! by Chris Wilmer'
_symmetry_space_group_name_H-M	'P1'
_symmetry_Int_Tables_number	1
_symmetry_cell_setting	triclinic
loop_
_symmetry_equiv_pos_as_xyz
  x,y,z
_cell_length_a	18.215407
_cell_length_b	14.908520
_cell_length_c	18.215399
_cell_angle_alpha	93.269364
_cell_angle_beta	89.983101
_cell_angle_gamma	93.318021
loop_
_atom_site_label
_atom_site_type_symbol
_atom_site_fract_x
_atom_site_fract_y
_atom_site_fract_z
Zn1	Zn	1.108174	-0.359229	-0.432964
Zn2	Zn	1.358174	-0.109229	-0.182964
Zn3	Zn	1.608174	0.140771	0.067036
Zn4	Zn	1.858174	0.390771	0.317036
Zn5	Zn	1.100986	-0.510098	-0.316998
Zn6	Zn	1.350986	-0.260098	-0.066998
Zn7	Zn	1.600986	-0.010098	0.183002
Zn8	Zn	1.850986	0.239902	0.433002
Zn9	Zn	0.985106	-0.359251	-0.309919
Zn10	Zn	1.235106	-0.109251	-0.059919
Zn11	Zn	1.485106	0.140749	0.190081
Zn12	Zn	1.735106	0.390749	0.440081
Zn13	Zn	0.977979	-0.510040	-0.440026
Zn14	Zn	1.227979	-0.260040	-0.190026
Zn15	Zn	1.477979	-0.010040	0.059974
Zn16	Zn	1.727979	0.239960	0.309974
O17	O	1.043061	-0.434654	-0.374977
O18	O	1.293061	-0.184654	-0.124977
O19	O	1.543061	0.065346	0.125023
O20	O	1.793061	0.315346	0.375023
O21	O	1.210204	-0.379258	-0.417588
O22	O	1.460204	-0.129258	-0.167588
O23	O	1.710204	0.120742	0.082412
O24	O	1.960204	0.370742	0.332412
O25	O	1.085589	-0.490121	-0.213076
O26	O	1.335589	-0.240121	0.036924
O27	O	1.585589	0.009879	0.286924
O28	O	1.835589	0.259879	0.536924
O29	O	1.007422	-0.233003	-0.320323
O30	O	1.257422	0.016997	-0.070323
O31	O	1.507422	0.266997	0.179677
O32	O	1.757422	0.516997	0.429677
O33	O	1.204923	-0.490100	-0.332388
O34	O	1.454923	-0.240100	-0.082388
O35	O	1.704923	0.009900	0.167612
O36	O	1.954923	0.259900	0.417612
O37	O	1.097840	-0.232987	-0.410723
O38	O	1.347840	0.017013	-0.160723
O39	O	1.597840	0.267013	0.089277
O40	O	1.847840	0.517013	0.339277
O41	O	1.000452	-0.379294	-0.207875
O42	O	1.250452	-0.129294	0.042125
O43	O	1.500452	0.120706	0.292125
O44	O	1.750452	0.370706	0.542125
O45	O	0.881177	-0.379238	-0.327171
O46	O	1.131177	-0.129238	-0.077171
O47	O	1.381177	0.120762	0.172829
O48	O	1.631177	0.370762	0.422829
O49	O	0.995275	-0.490001	-0.542072
O50	O	1.245275	-0.240001	-0.292072
O51	O	1.495275	0.009999	-0.042072
O52	O	1.745275	0.259999	0.207928
O53	O	0.875941	-0.490022	-0.422760
O54	O	1.125941	-0.240022	-0.172760
O55	O	1.375941	0.009978	0.077240
O56	O	1.625941	0.259978	0.327240
O57	O	1.090929	-0.379201	-0.536883
O58	O	1.340929	-0.129201	-0.286883
O59	O	1.590929	0.120799	-0.036883
O60	O	1.840929	0.370799	0.213117
O61	O	1.078678	-0.636335	-0.339236
O62	O	1.328678	-0.386335	-0.089236
O63	O	1.578678	-0.136335	0.160764
O64	O	1.828678	0.113665	0.410764
O65	O	0.988305	-0.636292	-0.429624
O66	O	1.238305	-0.386292	-0.179624
O67	O	1.488305	-0.136292	0.070376
O68	O	1.738305	0.113708	0.320376
C69	C	0.851856	-0.434627	-0.374964
C70	C	1.101856	-0.184627	-0.124964
C71	C	1.351856	0.065373	0.125036
C72	C	1.601856	0.315373	0.375036
C73	C	0.770057	-0.434637	-0.374977
C74	C	1.020057	-0.184637	-0.124977
C75	C	1.270057	0.065363	0.125023
C76	C	1.520057	0.315363	0.375023
C77	C	0.502287	-0.492434	-0.424690
C78	C	0.752287	-0.242434	-0.174690
C79	C	1.002287	0.007566	0.075310
C80	C	1.252287	0.257566	0.325310
C81	C	0.579146	-0.492427	-0.424686
C82	C	0.829146	-0.242427	-0.174686
C83	C	1.079146	0.007573	0.075314
C84	C	1.329146	0.257573	0.325314
C85	C	0.584576	-0.376895	-0.325277
C86	C	0.834576	-0.126895	-0.075277
C87	C	1.084576	0.123105	0.174723
C88	C	1.334576	0.373105	0.424723
C89	C	0.507718	-0.376908	-0.325278
C90	C	0.757718	-0.126908	-0.075278
C91	C	1.007718	0.123092	0.174722
C92	C	1.257718	0.373092	0.424722
C93	C	0.466575	-0.434676	-0.374989
C94	C	0.716575	-0.184676	-0.124989
C95	C	0.966575	0.065324	0.125011
C96	C	1.216575	0.315324	0.375011
C97	C	0.620293	-0.434656	-0.374984
C98	C	0.870293	-0.184656	-0.124984
C99	C	1.120293	0.065344	0.125016
C100	C	1.370293	0.315344	0.375016
C101	C	0.703627	-0.434647	-0.374979
C102	C	0.953627	-0.184647	-0.124979
C103	C	1.203627	0.065353	0.125021
C104	C	1.453627	0.315353	0.375021
C105	C	0.383236	-0.434686	-0.374992
C106	C	0.633236	-0.184686	-0.124992
C107	C	0.883236	0.065314	0.125008
C108	C	1.133236	0.315314	0.375008
C109	C	1.031958	-0.669047	-0.385981
C110	C	1.281958	-0.419047	-0.135981
C111	C	1.531958	-0.169047	0.114019
C112	C	1.781958	0.080953	0.364019
C113	C	1.027275	-0.769322	-0.390713
C114	C	1.277275	-0.519322	-0.140713
C115	C	1.527275	-0.269322	0.109287
C116	C	1.777275	-0.019322	0.359287
C117	C	1.112678	-0.957731	-0.305559
C118	C	1.362678	-0.707731	-0.055559
C119	C	1.612678	-0.457731	0.194441
C120	C	1.862678	-0.207731	0.444441
C121	C	1.108281	-1.051948	-0.310003
C122	C	1.358281	-0.801948	-0.060003
C123	C	1.608281	-0.551948	0.189997
C124	C	1.858281	-0.301948	0.439997
C125	C	1.014088	-1.051973	-0.404048
C126	C	1.264088	-0.801973	-0.154048
C127	C	1.514088	-0.551973	0.095952
C128	C	1.764088	-0.301973	0.345952
C129	C	1.018485	-0.957757	-0.399604
C130	C	1.268485	-0.707757	-0.149604
C131	C	1.518485	-0.457757	0.100396
C132	C	1.768485	-0.207757	0.350396
C133	C	1.067781	-0.910639	-0.350357
C134	C	1.317781	-0.660639	-0.100357
C135	C	1.567781	-0.410639	0.149643
C136	C	1.817781	-0.160639	0.399643
C137	C	1.072174	-0.816420	-0.345910
C138	C	1.322174	-0.566420	-0.095910
C139	C	1.572174	-0.316420	0.154090
C140	C	1.822174	-0.066420	0.404090
C141	C	0.977985	-0.816448	-0.439958
C142	C	1.227985	-0.566448	-0.189958
C143	C	1.477985	-0.316448	0.060042
C144	C	1.727985	-0.066448	0.310042
C145	C	0.973588	-0.910664	-0.444402
C146	C	1.223588	-0.660664	-0.194402
C147	C	1.473588	-0.410664	0.055598
C148	C	1.723588	-0.160664	0.305598
C149	C	1.235013	-0.434683	-0.374990
C150	C	1.485013	-0.184683	-0.124990
C151	C	1.735013	0.065317	0.125010
C152	C	1.985013	0.315317	0.375010
C153	C	1.316811	-0.434695	-0.374995
C154	C	1.566811	-0.184695	-0.124995
C155	C	1.816811	0.065305	0.125005
C156	C	2.066811	0.315305	0.375005
C157	C	1.043109	-0.434592	-0.566927
C158	C	1.293109	-0.184592	-0.316927
C159	C	1.543109	0.065408	-0.066927
C160	C	1.793109	0.315408	0.183073
C161	C	1.043129	-0.434566	-0.648724
C162	C	1.293129	-0.184566	-0.398724
C163	C	1.543129	0.065434	-0.148724
C164	C	1.793129	0.315434	0.101276
C165	C	1.054228	-0.199346	-0.363946
C166	C	1.304228	0.050654	-0.113946
C167	C	1.554228	0.300654	0.136054
C168	C	1.804228	0.550654	0.386054
C169	C	1.058986	-0.099072	-0.359245
C170	C	1.308986	0.150928	-0.109245
C171	C	1.558986	0.400928	0.140755
C172	C	1.808986	0.650928	0.390755
C173	C	1.092956	-0.376818	-0.834215
C174	C	1.342956	-0.126818	-0.584215
C175	C	1.592956	0.123182	-0.334215
C176	C	1.842956	0.373182	-0.084215
C177	C	1.092966	-0.376792	-0.911073
C178	C	1.342966	-0.126792	-0.661073
C179	C	1.592966	0.123208	-0.411073
C180	C	1.842966	0.373208	-0.161073
C181	C	0.993361	-0.492174	-0.916465
C182	C	1.243361	-0.242174	-0.666465
C183	C	1.493361	0.007826	-0.416465
C184	C	1.743361	0.257826	-0.166465
C185	C	0.993348	-0.492195	-0.839608
C186	C	1.243348	-0.242195	-0.589608
C187	C	1.493348	0.007805	-0.339608
C188	C	1.743348	0.257805	-0.089608
C189	C	1.043150	-0.434518	-0.798486
C190	C	1.293150	-0.184518	-0.548486
C191	C	1.543150	0.065482	-0.298486
C192	C	1.793150	0.315482	-0.048486
C193	C	1.043173	-0.434471	-0.952200
C194	C	1.293173	-0.184471	-0.702200
C195	C	1.543173	0.065529	-0.452200
C196	C	1.793173	0.315529	-0.202200
C197	C	1.043183	-0.434443	-1.035532
C198	C	1.293183	-0.184443	-0.785532
C199	C	1.543183	0.065557	-0.535532
C200	C	1.793183	0.315557	-0.285532
C201	C	1.043139	-0.434545	-0.715148
C202	C	1.293139	-0.184545	-0.465148
C203	C	1.543139	0.065455	-0.215148
C204	C	1.793139	0.315455	0.034852
C205	C	1.043059	-0.434651	-0.183770
C206	C	1.293059	-0.184651	0.066230
C207	C	1.543059	0.065349	0.316230
C208	C	1.793059	0.315349	0.566230
C209	C	1.043193	-0.434424	-0.101961
C210	C	1.293193	-0.184424	0.148039
C211	C	1.543193	0.065576	0.398039
C212	C	1.793193	0.315576	0.648039
H213	H	0.468791	-0.539474	-0.465167
H214	H	0.718791	-0.289474	-0.215167
H215	H	0.968791	-0.039474	0.034833
H216	H	1.218791	0.210526	0.284833
F217	F	1.156068	-1.102063	-0.262325
F218	F	1.406068	-0.852063	-0.012325
F219	F	1.656068	-0.602063	0.237675
F220	F	1.906068	-0.352063	0.487675
H221	H	1.152812	-0.919367	-0.265456
H222	H	1.402812	-0.669367	-0.015456
H223	H	1.652812	-0.419367	0.234544
H224	H	1.902812	-0.169367	0.484544
H225	H	0.478641	-0.329873	-0.284802
H226	H	0.728641	-0.079873	-0.034802
H227	H	0.978641	0.170127	0.215198
H228	H	1.228641	0.420127	0.465198
F229	F	0.617149	-0.553903	-0.477583
F230	F	0.867149	-0.303903	-0.227583
F231	F	1.117149	-0.053903	0.022417
F232	F	1.367149	0.196097	0.272417
H233	H	0.618083	-0.329861	-0.284806
H234	H	0.868083	-0.079861	-0.034806
H235	H	1.118083	0.170139	0.215194
H236	H	1.368083	0.420139	0.465194
H237	H	1.133522	-0.329805	-0.940160
H238	H	1.383522	-0.079805	-0.690160
H239	H	1.633522	0.170195	-0.440160
H240	H	1.883522	0.420195	-0.190160
F241	F	0.940332	-0.553606	-0.801580
F242	F	1.190332	-0.303606	-0.551580
F243	F	1.440332	-0.053606	-0.301580
F244	F	1.690332	0.196394	-0.051580
H245	H	1.112311	-0.778058	-0.305809
H246	H	1.362311	-0.528058	-0.055809
H247	H	1.612311	-0.278058	0.194191
H248	H	1.862311	-0.028058	0.444191
H249	H	0.973958	-1.090353	-0.444147
H250	H	1.223958	-0.840353	-0.194147
H251	H	1.473958	-0.590353	0.055853
H252	H	1.723958	-0.340353	0.305853
H253	H	1.133505	-0.329852	-0.800735
H254	H	1.383505	-0.079852	-0.550735
H255	H	1.633505	0.170148	-0.300735
H256	H	1.883505	0.420148	-0.050735
H257	H	0.952816	-0.539134	-0.949956
H258	H	1.202816	-0.289134	-0.699956
H259	H	1.452816	-0.039134	-0.449956
H260	H	1.702816	0.210866	-0.199956
H261	H	0.941425	-0.778095	-0.476433
H262	H	1.191425	-0.528095	-0.226433
H263	H	1.441425	-0.278095	0.023567
H264	H	1.691425	-0.028095	0.273567
H265	H	0.933454	-0.949040	-0.484499
H266	H	1.183454	-0.699040	-0.234499
H267	H	1.433454	-0.449040	0.015501
H268	H	1.683454	-0.199040	0.265501
