data_functionalizedCrystal
_audit_creation_method	'MofGen! by Chris Wilmer'
_symmetry_space_group_name_H-M	'P1'
_symmetry_Int_Tables_number	1
_symmetry_cell_setting	triclinic
loop_
_symmetry_equiv_pos_as_xyz
  x,y,z
_cell_length_a	16.992695
_cell_length_b	16.109302
_cell_length_c	14.586319
_cell_angle_alpha	90.002225
_cell_angle_beta	90.006633
_cell_angle_gamma	87.065002
loop_
_atom_site_label
_atom_site_type_symbol
_atom_site_fract_x
_atom_site_fract_y
_atom_site_fract_z
O1	O	0.100790	1.109852	0.076283
O2	O	0.113331	0.868627	0.076276
O3	O	-0.007082	0.988272	0.076272
O4	O	0.221203	0.990206	0.076287
O5	O	-0.007090	0.988271	-0.076209
O6	O	0.113323	0.868626	-0.076205
O7	O	0.100782	1.109851	-0.076198
Cu8	Cu	0.107052	0.989238	-0.090124
Cu9	Cu	0.107061	0.989239	0.090202
O10	O	0.221195	0.990205	-0.076194
C11	C	0.112819	0.837618	0.000034
C12	C	0.111296	0.745221	0.000031
C13	C	0.107769	0.532644	-0.083077
C14	C	0.106329	0.445828	-0.083074
C15	C	0.106342	0.445840	0.083169
C16	C	0.107776	0.532655	0.083165
C17	C	0.108493	0.576054	0.000039
C18	C	0.105619	0.402423	0.000046
C19	C	0.104058	0.308293	0.000050
C20	C	0.110053	0.670190	0.000035
C21	C	-0.036298	0.985784	0.000032
C22	C	-0.123340	0.978360	0.000032
C23	C	-0.173599	1.049986	0.000033
C24	C	-0.255384	1.043006	0.000041
C25	C	-0.286908	0.964400	0.000042
C26	C	-0.236643	0.892768	0.000044
C27	C	-0.154860	0.899749	0.000042
C28	C	-0.530499	0.935467	0.000054
C29	C	-0.612288	0.928491	0.000053
C30	C	-0.631023	1.078730	0.000052
C31	C	-0.549237	1.085704	0.000045
C32	C	-0.498980	1.014073	0.000051
N33	N	-0.370505	0.957263	0.000048
N34	N	-0.415384	1.021210	0.000052
C35	C	0.250411	0.992694	0.000048
C36	C	0.337453	1.000117	0.000054
C37	C	0.101294	1.140860	0.000045
C38	C	0.102817	1.233257	0.000054
N39	N	0.107062	0.989240	0.217034
C40	C	0.053847	1.042334	0.452039
C41	C	0.053846	1.042336	0.548020
C42	C	0.160268	0.936143	0.548032
C43	C	0.160273	0.936146	0.452053
C44	C	0.107058	0.989240	0.404058
C45	C	0.107052	0.989239	0.596019
C46	C	0.107050	0.989241	0.700086
C47	C	0.107060	0.989240	0.299985
N48	N	0.107047	0.989239	0.783044
H49	H	0.105739	0.410487	-0.150755
H50	H	-0.296301	1.101332	0.000040
H51	H	0.010517	1.085568	0.412964
Cl52	Cl	0.227161	0.869395	0.608373
Cl53	Cl	-0.013050	1.109088	0.608334
Cl54	Cl	-0.651917	0.829664	0.000049
Cl55	Cl	0.105421	0.391276	0.187664
H56	H	0.203607	0.892910	0.412985
H57	H	0.108364	0.568000	0.150852
H58	H	-0.523577	1.149714	0.000044
Cl59	Cl	0.108666	0.587201	-0.187577
H60	H	-0.147938	1.113997	0.000026
H61	H	-0.262317	0.828765	0.000050
Cl62	Cl	-0.694208	1.168775	0.000047
Cl63	Cl	-0.091677	0.809701	0.000044
H64	H	-0.489588	0.877139	0.000059
