data_functionalizedCrystal
_audit_creation_method	'MofGen! by Chris Wilmer'
_symmetry_space_group_name_H-M	'P1'
_symmetry_Int_Tables_number	1
_symmetry_cell_setting	triclinic
loop_
_symmetry_equiv_pos_as_xyz
  x,y,z
_cell_length_a	19.805407
_cell_length_b	16.959454
_cell_length_c	19.805399
_cell_angle_alpha	90.022387
_cell_angle_beta	90.019573
_cell_angle_gamma	90.020075
loop_
_atom_site_label
_atom_site_type_symbol
_atom_site_fract_x
_atom_site_fract_y
_atom_site_fract_z
Zn1	Zn	1.034765	-0.314700	0.382744
Zn2	Zn	1.034693	-0.446882	0.269566
Zn3	Zn	0.921580	-0.314722	0.269569
Zn4	Zn	0.921556	-0.446840	0.382713
O5	O	0.978149	-0.380786	0.326148
O6	O	1.129472	-0.332243	0.367743
O7	O	1.019668	-0.429378	0.174850
O8	O	0.936635	-0.204108	0.284596
O9	O	1.129419	-0.429356	0.284591
O10	O	1.019792	-0.204092	0.367745
O11	O	0.936564	-0.332280	0.174852
O12	O	0.826860	-0.332239	0.284565
O13	O	0.936594	-0.429285	0.477434
O14	O	0.826843	-0.429306	0.367692
O15	O	1.019768	-0.332202	0.477457
O16	O	1.019645	-0.557488	0.284561
O17	O	0.936524	-0.557457	0.367690
C18	C	0.802293	-0.380771	0.326126
C19	C	0.727061	-0.380783	0.326133
C20	C	0.691725	-0.431402	0.369347
C21	C	0.621037	-0.431404	0.369356
C22	C	0.585685	-0.380790	0.326148
C23	C	0.621026	-0.330165	0.282932
C24	C	0.691713	-0.330160	0.282926
C25	C	0.335952	-0.330183	0.282954
C26	C	0.265260	-0.330193	0.282962
C27	C	0.265276	-0.431426	0.369384
C28	C	0.335963	-0.431421	0.369379
C29	C	0.371298	-0.380794	0.326166
C30	C	0.447946	-0.380792	0.326157
C31	C	0.509038	-0.380795	0.326153
C32	C	0.978092	-0.586152	0.326136
C33	C	0.978130	-0.674009	0.326154
C34	C	0.934930	-1.045498	0.369428
C35	C	1.021555	-1.045470	0.282937
C36	C	1.021532	-0.962925	0.282930
C37	C	0.978206	-0.921662	0.326173
C38	C	0.934904	-0.962945	0.369422
C39	C	1.064828	-0.921635	0.239677
C40	C	1.064806	-0.839085	0.239669
C41	C	1.021483	-0.797820	0.282915
C42	C	0.978180	-0.839108	0.326167
C43	C	0.934854	-0.797845	0.369409
C44	C	0.891553	-0.839132	0.412665
C45	C	0.891581	-0.921680	0.412669
C46	C	1.021455	-0.715272	0.282911
C47	C	0.934827	-0.715292	0.369403
C48	C	1.154691	-0.380802	0.326170
C49	C	1.229923	-0.380808	0.326180
C50	C	0.978187	-0.380736	0.502691
C51	C	0.978203	-0.380715	0.577923
C52	C	0.978224	-0.174618	0.326174
C53	C	0.978256	-0.086761	0.326186
C54	C	0.978150	-0.380779	0.150292
C55	C	0.978265	-0.380577	0.075060
C56	C	1.021513	-0.330161	0.613280
C57	C	1.021520	-0.330138	0.683968
C58	C	0.978220	-0.380674	0.719298
C59	C	0.934905	-0.431230	0.683936
C60	C	0.934895	-0.431248	0.613249
C61	C	0.934943	-0.431156	0.969010
C62	C	0.934958	-0.431135	1.039702
C63	C	1.021568	-0.330046	1.039729
C64	C	1.021558	-0.330065	0.969042
C65	C	0.978241	-0.380617	0.933686
C66	C	0.978233	-0.380641	0.857037
C67	C	0.978230	-0.380655	0.795946
H68	H	0.720482	-0.288937	0.247741
H69	H	0.899549	-0.681701	0.404619
C70	C	1.069163	-0.274533	0.722865
C71	C	1.039866	-0.212457	0.771461
C72	C	1.087511	-0.156850	0.810359
C73	C	1.164452	-0.163319	0.800660
C74	C	1.193753	-0.225397	0.752061
C75	C	1.146109	-0.281005	0.713163
H76	H	0.982906	-0.207667	0.778643
H77	H	1.065820	-0.110895	0.846335
H78	H	1.199722	-0.122155	0.829454
H79	H	1.250714	-0.230188	0.744879
H80	H	1.167800	-0.326959	0.677187
C81	C	1.069212	-0.274429	1.078622
C82	C	1.069226	-0.274398	1.156375
C83	C	1.116870	-0.218785	1.195266
C84	C	1.164502	-0.163202	1.156403
C85	C	1.164491	-0.163230	1.078646
C86	C	1.116846	-0.218844	1.039755
H87	H	1.033964	-0.315546	1.185147
H88	H	1.116879	-0.218764	1.252827
H89	H	1.199772	-0.122033	1.185193
H90	H	1.199752	-0.122083	1.049874
H91	H	1.116838	-0.218865	0.982194
C92	C	1.069081	-0.669855	0.235338
C93	C	1.039765	-0.613155	0.182170
C94	C	1.087394	-0.567738	0.134596
C95	C	1.164340	-0.579021	0.140190
C96	C	1.193660	-0.635723	0.193360
C97	C	1.146030	-0.681140	0.240934
H98	H	0.982801	-0.604801	0.178027
H99	H	1.065689	-0.525763	0.095236
H100	H	1.199598	-0.545400	0.104972
H101	H	1.250623	-0.644077	0.197503
H102	H	1.167736	-0.723115	0.280294
C103	C	1.069144	-0.274571	0.574420
C104	C	1.063652	-0.184710	0.584150
C105	C	1.111283	-0.129116	0.545292
C106	C	1.164406	-0.163382	0.496704
C107	C	1.169900	-0.253247	0.486971
C108	C	1.122269	-0.308841	0.525829
H109	H	1.024326	-0.159341	0.620120
H110	H	1.107216	-0.062592	0.552497
H111	H	1.199665	-0.122228	0.467939
H112	H	1.209226	-0.278617	0.451001
H113	H	1.126336	-0.375365	0.518624
C114	C	1.112480	-0.967029	0.192113
C115	C	1.083195	-1.023842	0.138960
C116	C	1.130849	-1.069242	0.091395
C117	C	1.207788	-1.057829	0.096983
C118	C	1.237078	-1.001014	0.150138
C119	C	1.189424	-0.955613	0.197703
H120	H	1.026236	-1.032292	0.134822
H121	H	1.109166	-1.111301	0.052046
H122	H	1.243064	-1.091437	0.061773
H123	H	1.294036	-0.992563	0.154277
H124	H	1.211106	-0.913555	0.237052
C125	C	0.843894	-0.793739	0.460229
C126	C	0.849374	-0.805029	0.537182
C127	C	0.801715	-0.759632	0.584745
C128	C	0.748576	-0.702946	0.555355
C129	C	0.743094	-0.691654	0.478398
C130	C	0.790753	-0.737050	0.430835
H131	H	0.888712	-0.846993	0.558942
H132	H	0.805773	-0.767992	0.641713
H133	H	0.713296	-0.669341	0.590563
H134	H	0.703756	-0.649689	0.456638
H135	H	0.786695	-0.728690	0.373867
H136	H	1.056819	-0.288916	0.940280
C137	C	0.582138	-0.274488	0.235404
C138	C	0.533567	-0.212485	0.264830
C139	C	0.494680	-0.156809	0.217300
C140	C	0.504364	-0.163136	0.140344
C141	C	0.552937	-0.225142	0.110914
C142	C	0.591825	-0.280818	0.158444
H143	H	0.526396	-0.207799	0.321801
H144	H	0.458723	-0.110908	0.239086
H145	H	0.475578	-0.121921	0.105159
H146	H	0.560108	-0.229828	0.053943
H147	H	0.627782	-0.326719	0.136658
H148	H	0.592269	-0.472623	0.404545
C149	C	0.843953	-0.967099	0.460242
C150	C	0.790850	-1.023909	0.430864
C151	C	0.743223	-1.069333	0.478435
C152	C	0.748698	-1.057945	0.555386
C153	C	0.801803	-1.001132	0.584769
C154	C	0.849430	-0.955709	0.537197
H155	H	0.786795	-1.032341	0.373897
H156	H	0.703911	-1.111389	0.456684
H157	H	0.713441	-1.091570	0.590602
H158	H	0.805857	-0.992701	0.641736
H159	H	0.888742	-0.913652	0.558948
H160	H	0.364743	-0.472639	0.404561
C161	C	0.887319	-0.486721	1.078567
C162	C	0.839669	-0.542324	1.039679
C163	C	0.792033	-0.597906	1.078544
C164	C	0.792048	-0.597886	1.156297
C165	C	0.839701	-0.542281	1.195189
C166	C	0.887336	-0.486699	1.156324
H167	H	0.839656	-0.542341	0.982117
H168	H	0.756758	-0.639069	1.049753
H169	H	0.756786	-0.639031	1.185067
H170	H	0.839714	-0.542264	1.252751
H171	H	0.922612	-0.445537	1.185115
C172	C	0.887289	-0.486768	0.930139
C173	C	0.810351	-0.480297	0.939871
C174	C	0.762690	-0.535913	0.901003
C175	C	0.791965	-0.598000	0.852404
C176	C	0.868906	-0.604473	0.842670
C177	C	0.916568	-0.548857	0.881537
H178	H	0.788676	-0.434334	0.975849
H179	H	0.705732	-0.531121	0.908210
H180	H	0.756683	-0.639170	0.823632
H181	H	0.890582	-0.650436	0.806692
H182	H	0.973526	-0.553650	0.874331
H183	H	0.720503	-0.472621	0.404530
H184	H	0.236498	-0.472646	0.404573
H185	H	0.899647	-0.472373	0.712708
H186	H	0.899621	-0.472406	0.584462
H187	H	0.899678	-1.079117	0.404647
H188	H	0.236479	-0.288972	0.247776
H189	H	1.100064	-0.805474	0.204449
H190	H	0.364713	-0.288965	0.247763
H191	H	1.056825	-1.079072	0.247726
