data_functionalizedCrystal
_audit_creation_method	'MofGen! by Chris Wilmer'
_symmetry_space_group_name_H-M	'P1'
_symmetry_Int_Tables_number	1
_symmetry_cell_setting	triclinic
loop_
_symmetry_equiv_pos_as_xyz
  x,y,z
_cell_length_a	14.853558
_cell_length_b	13.330367
_cell_length_c	10.654550
_cell_angle_alpha	89.996556
_cell_angle_beta	95.941982
_cell_angle_gamma	90.007028
loop_
_atom_site_label
_atom_site_type_symbol
_atom_site_fract_x
_atom_site_fract_y
_atom_site_fract_z
O1	O	1.197251	0.083409	-0.163904
O2	O	1.697251	0.583409	0.336096
O3	O	0.934895	0.083413	-0.183448
O4	O	1.434895	0.583413	0.316552
O5	O	1.072106	0.083407	0.009126
O6	O	1.572106	0.583407	0.509126
O7	O	1.060041	0.083415	-0.356479
O8	O	1.560041	0.583415	0.143521
O9	O	1.072085	-0.083440	0.009130
O10	O	1.572085	0.416560	0.509130
O11	O	0.934875	-0.083434	-0.183444
O12	O	1.434875	0.416566	0.316556
O13	O	1.197231	-0.083439	-0.163900
O14	O	1.697231	0.416561	0.336100
Cu15	Cu	1.066052	-0.098671	-0.173672
Cu16	Cu	1.566052	0.401329	0.326328
Cu17	Cu	1.066075	0.098645	-0.173677
Cu18	Cu	1.566075	0.598645	0.326323
O19	O	1.060021	-0.083432	-0.356474
O20	O	1.560021	0.416568	0.143526
C21	C	0.901292	-0.000010	-0.182563
C22	C	1.401292	0.499990	0.317437
C23	C	0.801194	-0.000008	-0.179915
C24	C	1.301194	0.499992	0.320085
C25	C	0.754178	0.090944	-0.178676
C26	C	1.254178	0.590944	0.321324
C27	C	0.754154	-0.090959	-0.178657
C28	C	1.254154	0.409041	0.321343
C29	C	0.660107	-0.090961	-0.176162
C30	C	1.160107	0.409039	0.323838
C31	C	0.613091	-0.000009	-0.174923
C32	C	1.113091	0.499991	0.325077
C33	C	0.660122	0.090945	-0.176178
C34	C	1.160122	0.590945	0.323822
C35	C	0.613070	-0.181913	-0.174895
C36	C	1.113070	0.318087	0.325105
C37	C	0.519017	-0.181919	-0.172399
C38	C	1.019017	0.318081	0.327601
C39	C	0.471999	-0.090965	-0.171169
C40	C	0.971999	0.409035	0.328831
C41	C	0.519036	-0.000008	-0.172425
C42	C	1.019036	0.499992	0.327575
C43	C	0.472020	0.090944	-0.171186
C44	C	0.972020	0.590944	0.328814
C45	C	0.519054	0.181903	-0.172451
C46	C	1.019054	0.681903	0.327549
C47	C	0.613104	0.181898	-0.174948
C48	C	1.113104	0.681898	0.325052
C49	C	0.377949	-0.090961	-0.168672
C50	C	0.877949	0.409039	0.331328
C51	C	0.377964	0.090945	-0.168688
C52	C	0.877964	0.590945	0.331312
N53	N	1.066041	-0.237452	-0.173667
N54	N	1.566041	0.262548	0.326333
C55	C	1.005316	-0.710072	-0.258915
C56	C	1.505316	-0.210072	0.241085
C57	C	1.126859	-0.710046	-0.088429
C58	C	1.626859	-0.210046	0.411571
C59	C	1.126849	-0.605027	-0.088425
C60	C	1.626849	-0.105027	0.411575
C61	C	1.066072	-0.552527	-0.173669
C62	C	1.566072	-0.052527	0.326331
C63	C	1.005306	-0.605044	-0.258916
C64	C	1.505306	-0.105044	0.241084
C65	C	1.187620	-0.552502	-0.003187
C66	C	1.687620	-0.052502	0.496813
C67	C	1.187613	-0.447477	-0.003181
C68	C	1.687613	0.052523	0.496819
C69	C	1.126831	-0.394975	-0.088420
C70	C	1.626831	0.105025	0.411580
C71	C	1.066062	-0.447499	-0.173670
C72	C	1.566062	0.052501	0.326330
C73	C	1.005285	-0.394998	-0.258914
C74	C	1.505285	0.105002	0.241086
C75	C	0.944510	-0.447520	-0.344159
C76	C	1.444510	0.052480	0.155841
C77	C	0.944524	-0.552542	-0.344155
C78	C	1.444524	-0.052542	0.155845
C79	C	1.126818	-0.289953	-0.088424
C80	C	1.626818	0.210047	0.411576
C81	C	1.005275	-0.289970	-0.258915
C82	C	1.505275	0.210030	0.241085
C83	C	1.230835	-0.000013	-0.164786
C84	C	1.730835	0.499987	0.335214
C85	C	1.330933	-0.000008	-0.167433
C86	C	1.830933	0.499992	0.332567
C87	C	1.071210	-0.000015	0.055917
C88	C	1.571210	0.499985	0.555917
C89	C	1.068559	-0.000012	0.195332
C90	C	1.568559	0.499988	0.695332
N91	N	1.066093	0.237427	-0.173671
N92	N	1.566093	0.737427	0.326329
C93	C	1.060917	-0.000008	-0.403265
C94	C	1.560917	0.499992	0.096735
C95	C	1.063567	-0.000005	-0.542681
C96	C	1.563567	0.499995	-0.042681
C97	C	1.149347	-0.000016	0.275661
C98	C	1.649347	0.499984	0.775661
C99	C	1.146851	-0.000009	0.406656
C100	C	1.646851	0.499991	0.906656
C101	C	0.982774	0.000003	0.376980
C102	C	1.482774	0.500003	0.876980
C103	C	0.985271	0.000003	0.245988
C104	C	1.485271	0.500003	0.745988
C105	C	1.244075	-0.000027	0.292795
C106	C	1.744075	0.499973	0.792795
C107	C	1.241580	-0.000020	0.423790
C108	C	1.741580	0.499980	0.923790
H109	H	0.792477	0.165000	-0.179712
H110	H	1.292477	0.665000	0.320288
Cl111	Cl	0.459940	0.296238	-0.170864
Cl112	Cl	0.959940	0.796238	0.329136
H113	H	0.339690	0.165011	-0.167686
H114	H	0.839690	0.665011	0.332314
Cl115	Cl	0.868130	-0.618572	-0.451316
Cl116	Cl	1.368130	-0.118572	0.048684
H117	H	1.270216	0.072019	0.469730
H118	H	1.770216	0.572019	0.969730
Cl119	Cl	0.672239	0.296235	-0.176521
Cl120	Cl	1.172239	0.796235	0.323479
H121	H	0.955780	-0.247230	-0.328327
H122	H	1.455780	0.252770	0.171673
H123	H	0.792441	-0.165008	-0.179656
H124	H	1.292441	0.334992	0.320344
H125	H	1.176304	-0.247194	-0.019024
H126	H	1.676304	0.252806	0.480976
Cl127	Cl	1.301291	0.107766	0.248052
Cl128	Cl	1.801291	0.607766	0.748052
Cl129	Cl	0.672179	-0.296245	-0.176457
Cl130	Cl	1.172179	0.203755	0.323543
Cl131	Cl	0.883705	0.000033	0.145006
Cl132	Cl	1.383705	0.500033	0.645006
Cl133	Cl	1.264010	-0.381456	0.103985
Cl134	Cl	1.764010	0.118544	0.603985
Cl135	Cl	0.459896	-0.296264	-0.170826
Cl136	Cl	0.959896	0.203736	0.329174
Cl137	Cl	0.318826	-0.205298	-0.167062
Cl138	Cl	0.818826	0.294702	0.332938
H139	H	0.895029	-0.404762	-0.413571
H140	H	1.395029	0.095238	0.086429
H141	H	0.914963	0.000015	0.418241
H142	H	1.414963	0.500015	0.918241
Cl143	Cl	0.928913	-0.776095	-0.366071
Cl144	Cl	1.428913	-0.276095	0.133929
Cl145	Cl	1.296668	-0.107821	0.488851
Cl146	Cl	1.796668	0.392179	0.988851
Cl147	Cl	1.290619	-0.111259	0.238265
Cl148	Cl	1.790619	0.388741	0.738265
H149	H	1.176346	-0.752795	-0.019032
H150	H	1.676346	-0.252795	0.480968
H151	H	1.237107	-0.595251	0.066210
H152	H	1.737107	-0.095251	0.566210
