data_functionalizedCrystal
_audit_creation_method	'MofGen! by Chris Wilmer'
_symmetry_space_group_name_H-M	'P1'
_symmetry_Int_Tables_number	1
_symmetry_cell_setting	triclinic
loop_
_symmetry_equiv_pos_as_xyz
  x,y,z
_cell_length_a	19.288867
_cell_length_b	16.109304
_cell_length_c	15.186229
_cell_angle_alpha	90.009166
_cell_angle_beta	90.006446
_cell_angle_gamma	83.299853
loop_
_atom_site_label
_atom_site_type_symbol
_atom_site_fract_x
_atom_site_fract_y
_atom_site_fract_z
O1	O	0.921598	0.103731	0.073192
O2	O	1.171598	0.353731	0.323192
O3	O	1.421598	0.603731	0.573192
O4	O	1.671598	0.853731	0.823192
O5	O	0.719372	0.117720	0.073200
O6	O	0.969372	0.367720	0.323200
O7	O	1.219372	0.617720	0.573200
O8	O	1.469372	0.867720	0.823200
O9	O	0.826039	-0.010324	0.073197
O10	O	1.076039	0.239676	0.323197
O11	O	1.326039	0.489676	0.573197
O12	O	1.576039	0.739676	0.823197
O13	O	0.814931	0.231775	0.073196
O14	O	1.064931	0.481775	0.323196
O15	O	1.314931	0.731775	0.573196
O16	O	1.564931	0.981775	0.823196
O17	O	0.826025	-0.010345	-0.073261
O18	O	1.076025	0.239655	0.176739
O19	O	1.326025	0.489655	0.426739
O20	O	1.576025	0.739655	0.676739
O21	O	0.719357	0.117700	-0.073257
O22	O	0.969357	0.367700	0.176743
O23	O	1.219357	0.617700	0.426743
O24	O	1.469357	0.867700	0.676743
O25	O	0.921584	0.103710	-0.073265
O26	O	1.171584	0.353710	0.176735
O27	O	1.421584	0.603710	0.426735
O28	O	1.671584	0.853710	0.676735
Zn29	Zn	0.820468	0.110702	-0.096514
Zn30	Zn	1.070468	0.360702	0.153486
Zn31	Zn	1.320468	0.610702	0.403486
Zn32	Zn	1.570468	0.860702	0.653486
Zn33	Zn	0.820487	0.110729	0.096450
Zn34	Zn	1.070487	0.360729	0.346450
Zn35	Zn	1.320487	0.610729	0.596450
Zn36	Zn	1.570487	0.860729	0.846450
O37	O	0.814916	0.231755	-0.073261
O38	O	1.064916	0.481755	0.176739
O39	O	1.314916	0.731755	0.426739
O40	O	1.564916	0.981755	0.676739
C41	C	0.693487	0.117259	-0.000027
C42	C	0.943487	0.367259	0.249973
C43	C	1.193487	0.617259	0.499973
C44	C	1.443487	0.867259	0.749973
C45	C	0.616380	0.115907	-0.000024
C46	C	0.866380	0.365907	0.249976
C47	C	1.116380	0.615907	0.499976
C48	C	1.366380	0.865907	0.749976
C49	C	0.060799	0.106180	0.079800
C50	C	0.310799	0.356180	0.329800
C51	C	0.560799	0.606180	0.579800
C52	C	0.810799	0.856180	0.829800
C53	C	0.133250	0.107445	0.079803
C54	C	0.383250	0.357445	0.329803
C55	C	0.633250	0.607445	0.579803
C56	C	0.883250	0.857445	0.829803
C57	C	0.169472	0.108071	-0.000031
C58	C	0.419472	0.358071	0.249969
C59	C	0.669472	0.608071	0.499969
C60	C	0.919472	0.858071	0.749969
C61	C	0.133240	0.107409	-0.079874
C62	C	0.383240	0.357409	0.170126
C63	C	0.633240	0.607409	0.420126
C64	C	0.883240	0.857409	0.670126
C65	C	0.060792	0.106135	-0.079875
C66	C	0.310792	0.356135	0.170125
C67	C	0.560792	0.606135	0.420125
C68	C	0.810792	0.856135	0.670125
C69	C	0.278915	0.158775	-0.061194
C70	C	0.528915	0.408775	0.188806
C71	C	0.778915	0.658775	0.438806
C72	C	1.028915	0.908775	0.688806
C73	C	0.351361	0.160054	-0.061190
C74	C	0.601361	0.410054	0.188810
C75	C	0.851361	0.660054	0.438810
C76	C	1.101361	0.910054	0.688810
C77	C	0.392927	0.111996	-0.000031
C78	C	0.642927	0.361996	0.249969
C79	C	0.892927	0.611996	0.499969
C80	C	1.142927	0.861996	0.749969
C81	C	0.362037	0.062669	0.061138
C82	C	0.612037	0.312669	0.311138
C83	C	0.862037	0.562669	0.561138
C84	C	1.112037	0.812669	0.811138
C85	C	0.289588	0.061395	0.061137
C86	C	0.539588	0.311395	0.311137
C87	C	0.789588	0.561395	0.561137
C88	C	1.039588	0.811395	0.811137
C89	C	0.248030	0.109451	-0.000039
C90	C	0.498030	0.359451	0.249961
C91	C	0.748030	0.609451	0.499961
C92	C	0.998030	0.859451	0.749961
C93	C	0.507710	0.114023	0.079810
C94	C	0.757710	0.364023	0.329810
C95	C	1.007710	0.614023	0.579810
C96	C	1.257710	0.864023	0.829810
C97	C	0.580163	0.115283	0.079810
C98	C	0.830163	0.365283	0.329810
C99	C	1.080163	0.615283	0.579810
C100	C	1.330163	0.865283	0.829810
C101	C	0.580151	0.115256	-0.079869
C102	C	0.830151	0.365256	0.170131
C103	C	1.080151	0.615256	0.420131
C104	C	1.330151	0.865256	0.670131
C105	C	0.507700	0.113987	-0.079866
C106	C	0.757700	0.363987	0.170134
C107	C	1.007700	0.613987	0.420134
C108	C	1.257700	0.863987	0.670134
C109	C	0.471484	0.113375	-0.000024
C110	C	0.721484	0.363375	0.249976
C111	C	0.971484	0.613375	0.499976
C112	C	1.221484	0.863375	0.749976
C113	C	0.825582	-0.041308	-0.000030
C114	C	1.075582	0.208692	0.249970
C115	C	1.325582	0.458692	0.499970
C116	C	1.575582	0.708692	0.749970
C117	C	0.824232	-0.133598	-0.000024
C118	C	1.074232	0.116402	0.249976
C119	C	1.324232	0.366402	0.499976
C120	C	1.574232	0.616402	0.749976
C121	C	0.821120	-0.345914	0.079807
C122	C	1.071120	-0.095914	0.329807
C123	C	1.321120	0.154086	0.579807
C124	C	1.571120	0.404086	0.829807
C125	C	0.819845	-0.432630	0.079806
C126	C	1.069845	-0.182630	0.329806
C127	C	1.319845	0.067370	0.579806
C128	C	1.569845	0.317370	0.829806
C129	C	0.819833	-0.432649	-0.079870
C130	C	1.069833	-0.182649	0.170130
C131	C	1.319833	0.067351	0.420130
C132	C	1.569833	0.317351	0.670130
C133	C	0.821103	-0.345934	-0.079868
C134	C	1.071103	-0.095934	0.170132
C135	C	1.321103	0.154066	0.420132
C136	C	1.571103	0.404066	0.670132
C137	C	0.821750	-0.302569	-0.000027
C138	C	1.071750	-0.052569	0.249973
C139	C	1.321750	0.197431	0.499973
C140	C	1.571750	0.447431	0.749973
C141	C	0.819205	-0.476000	-0.000030
C142	C	1.069205	-0.226000	0.249970
C143	C	1.319205	0.024000	0.499970
C144	C	1.569205	0.274000	0.749970
C145	C	0.817823	-0.570021	-0.000031
C146	C	1.067823	-0.320021	0.249969
C147	C	1.317823	-0.070021	0.499969
C148	C	1.567823	0.179979	0.749969
C149	C	0.823131	-0.208542	-0.000025
C150	C	1.073131	0.041458	0.249975
C151	C	1.323131	0.291458	0.499975
C152	C	1.573131	0.541458	0.749975
C153	C	0.947469	0.104171	-0.000035
C154	C	1.197469	0.354171	0.249965
C155	C	1.447469	0.604171	0.499965
C156	C	1.697469	0.854171	0.749965
C157	C	1.024575	0.105523	-0.000033
C158	C	1.274575	0.355523	0.249967
C159	C	1.524575	0.605523	0.499967
C160	C	1.774575	0.855523	0.749967
C161	C	0.815374	0.262738	-0.000033
C162	C	1.065374	0.512738	0.249967
C163	C	1.315374	0.762738	0.499967
C164	C	1.565374	1.012738	0.749967
C165	C	0.816724	0.355029	-0.000033
C166	C	1.066724	0.605029	0.249967
C167	C	1.316724	0.855029	0.499967
C168	C	1.566724	1.105029	0.749967
N169	N	0.820460	0.110683	-0.228207
N170	N	1.070460	0.360683	0.021793
N171	N	1.320460	0.610683	0.271793
N172	N	1.570460	0.860683	0.521793
C173	C	0.778370	0.060423	-0.546157
C174	C	1.028370	0.310423	-0.296157
C175	C	1.278370	0.560423	-0.046157
C176	C	1.528370	0.810423	0.203843
C177	C	0.778364	0.060411	-0.453968
C178	C	1.028364	0.310411	-0.203968
C179	C	1.278364	0.560411	0.046032
C180	C	1.528364	0.810411	0.296032
C181	C	0.862596	0.161002	-0.453914
C182	C	1.112596	0.411002	-0.203914
C183	C	1.362596	0.661002	0.046086
C184	C	1.612596	0.911002	0.296086
C185	C	0.862605	0.161009	-0.546102
C186	C	1.112605	0.411009	-0.296102
C187	C	1.362605	0.661009	-0.046102
C188	C	1.612605	0.911009	0.203898
C189	C	0.820488	0.110721	-0.592221
C190	C	1.070488	0.360721	-0.342221
C191	C	1.320488	0.610721	-0.092221
C192	C	1.570488	0.860721	0.157779
C193	C	0.820473	0.110702	-0.407844
C194	C	1.070473	0.360702	-0.157844
C195	C	1.320473	0.610702	0.092156
C196	C	1.570473	0.860702	0.342156
C197	C	0.820467	0.110690	-0.307887
C198	C	1.070467	0.360690	-0.057887
C199	C	1.320467	0.610690	0.192113
C200	C	1.570467	0.860690	0.442113
C201	C	0.820495	0.110733	-0.692184
C202	C	1.070495	0.360733	-0.442184
C203	C	1.320495	0.610733	-0.192184
C204	C	1.570495	0.860733	0.057816
N205	N	0.820501	0.110741	0.228142
N206	N	1.070501	0.360741	0.478142
N207	N	1.320501	0.610741	0.728142
N208	N	1.570501	0.860741	0.978142
H209	H	0.162749	0.107985	0.144814
H210	H	0.412749	0.357985	0.394814
H211	H	0.662749	0.607985	0.644814
H212	H	0.912749	0.857985	0.894814
H213	H	0.264440	0.021231	0.110941
H214	H	0.514440	0.271231	0.360941
H215	H	0.764440	0.521231	0.610941
H216	H	1.014440	0.771231	0.860941
Br217	Br	0.821997	-0.287064	0.188161
Br218	Br	1.071997	-0.037064	0.438161
Br219	Br	1.321997	0.212936	0.688161
Br220	Br	1.571997	0.462936	0.938161
H221	H	0.744068	0.019453	-0.416466
H222	H	0.994068	0.269453	-0.166466
H223	H	1.244068	0.519453	0.083534
H224	H	1.494068	0.769453	0.333534
Br225	Br	0.222512	0.223989	-0.144214
Br226	Br	0.472512	0.473989	0.105786
Br227	Br	0.722512	0.723989	0.355786
Br228	Br	0.972512	0.973989	0.605786
H229	H	0.821612	-0.310642	-0.144883
H230	H	1.071612	-0.060642	0.105117
H231	H	1.321612	0.189358	0.355117
H232	H	1.571612	0.439358	0.605117
H233	H	0.031317	0.105678	0.144813
H234	H	0.281317	0.355678	0.394813
H235	H	0.531317	0.605678	0.644813
H236	H	0.781317	0.855678	0.894813
H237	H	0.819331	-0.467917	0.144815
H238	H	1.069331	-0.217917	0.394815
H239	H	1.319331	0.032083	0.644815
H240	H	1.569331	0.282083	0.894815
Br241	Br	0.919775	0.229270	-0.608623
Br242	Br	1.169775	0.479270	-0.358623
Br243	Br	1.419775	0.729270	-0.108623
Br244	Br	1.669775	0.979270	0.141377
Br245	Br	0.458556	0.113188	0.188164
Br246	Br	0.708556	0.363188	0.438164
Br247	Br	0.958556	0.613188	0.688164
Br248	Br	1.208556	0.863188	0.938164
Br249	Br	0.818953	-0.491506	-0.188220
Br250	Br	1.068953	-0.241506	0.061780
Br251	Br	1.318953	0.008494	0.311780
Br252	Br	1.568953	0.258494	0.561780
H253	H	0.744076	0.019475	-0.583705
H254	H	0.994076	0.269475	-0.333705
H255	H	1.244076	0.519475	-0.083705
H256	H	1.494076	0.769475	0.166295
H257	H	0.896885	0.201946	-0.416352
H258	H	1.146885	0.451946	-0.166352
H259	H	1.396885	0.701946	0.083648
H260	H	1.646885	0.951946	0.333648
H261	H	0.609656	0.115812	0.144822
H262	H	0.859656	0.365812	0.394822
H263	H	1.109656	0.615812	0.644822
H264	H	1.359656	0.865812	0.894822
Br265	Br	0.629303	0.116086	-0.188217
Br266	Br	0.879303	0.366086	0.061783
Br267	Br	1.129303	0.616086	0.311783
Br268	Br	1.379303	0.866086	0.561783
Br269	Br	0.418437	-0.002551	0.144151
Br270	Br	0.668437	0.247449	0.394151
Br271	Br	0.918437	0.497449	0.644151
Br272	Br	1.168437	0.747449	0.894151
H273	H	0.478206	0.113455	-0.144874
H274	H	0.728206	0.363455	0.105126
H275	H	0.978206	0.613455	0.355126
H276	H	1.228206	0.863455	0.605126
H277	H	0.162737	0.107917	-0.144875
H278	H	0.412737	0.357917	0.105125
H279	H	0.662737	0.607917	0.355125
H280	H	0.912737	0.857917	0.605125
Br281	Br	0.393276	0.227005	-0.144194
Br282	Br	0.643276	0.477005	0.105806
Br283	Br	0.893276	0.727005	0.355806
Br284	Br	1.143276	0.977005	0.605806
H285	H	0.031298	0.105604	-0.144886
H286	H	0.281298	0.355604	0.105114
H287	H	0.531298	0.605604	0.355114
H288	H	0.781298	0.855604	0.605114
