data_functionalizedCrystal
_audit_creation_method	'MofGen! by Chris Wilmer'
_symmetry_space_group_name_H-M	'P1'
_symmetry_Int_Tables_number	1
_symmetry_cell_setting	triclinic
loop_
_symmetry_equiv_pos_as_xyz
  x,y,z
_cell_length_a	29.839134
_cell_length_b	29.839131
_cell_length_c	29.839126
_cell_angle_alpha	90.021998
_cell_angle_beta	90.038073
_cell_angle_gamma	90.034165
loop_
_atom_site_label
_atom_site_type_symbol
_atom_site_fract_x
_atom_site_fract_y
_atom_site_fract_z
Zn1	Zn	0.686781	-0.178984	0.254153
Zn2	Zn	0.686695	-0.254102	0.179023
Zn3	Zn	0.611645	-0.178977	0.179019
Zn4	Zn	0.611611	-0.254078	0.254108
O5	O	0.649183	-0.216535	0.216576
O6	O	0.749636	-0.188961	0.244207
O7	O	0.676718	-0.244143	0.116155
O8	O	0.621663	-0.116111	0.189003
O9	O	0.749573	-0.244150	0.189009
O10	O	0.676864	-0.116116	0.244204
O11	O	0.621579	-0.188949	0.116153
O12	O	0.548774	-0.188927	0.188960
O13	O	0.621604	-0.244110	0.316981
O14	O	0.548749	-0.244103	0.244127
O15	O	0.676831	-0.188939	0.317014
O16	O	0.676684	-0.316966	0.188966
O17	O	0.621521	-0.316949	0.244131
C18	C	0.532460	-0.216512	0.216539
C19	C	0.482526	-0.216513	0.216534
C20	C	0.125939	-0.187763	0.187909
C21	C	0.313613	-0.187750	0.187882
O22	O	0.337878	-0.163267	0.163502
N23	N	0.337081	-0.216520	0.216556
C24	C	0.313628	-0.245294	0.245242
O25	O	0.337896	-0.269761	0.269634
C26	C	0.125956	-0.245304	0.245271
C27	C	0.102490	-0.216535	0.216591
C28	C	0.102473	-0.158996	0.159232
C29	C	0.055558	-0.159001	0.159237
C30	C	0.032109	-0.187773	0.187920
C31	C	0.055574	-0.216540	0.216597
C32	C	0.102504	-0.274075	0.273958
C33	C	0.055583	-0.274074	0.273964
C34	C	0.032117	-0.245305	0.245284
C35	C	-0.014790	-0.245317	0.245284
N36	N	-0.038259	-0.216547	0.216610
C37	C	-0.014809	-0.187775	0.187927
C38	C	0.412159	-0.245287	0.245224
C39	C	0.459077	-0.245285	0.245216
C40	C	0.459058	-0.187741	0.187856
C41	C	0.412139	-0.187745	0.187862
C42	C	0.388690	-0.216517	0.216549
C43	C	-0.113335	-0.187788	0.187941
C44	C	-0.160255	-0.187797	0.187947
C45	C	-0.160232	-0.245340	0.245308
C46	C	-0.113316	-0.245333	0.245300
C47	C	-0.089869	-0.216553	0.216615
O48	O	-0.039084	-0.269784	0.269654
O49	O	-0.039085	-0.163304	0.163546
C50	C	0.172855	-0.187757	0.187904
C51	C	0.196321	-0.216524	0.216580
C52	C	0.172871	-0.245296	0.245263
C53	C	0.243239	-0.216522	0.216573
C54	C	0.266688	-0.187750	0.187890
C55	C	0.243220	-0.158980	0.159216
C56	C	0.196304	-0.158985	0.159221
C57	C	0.196340	-0.274067	0.273937
C58	C	0.243255	-0.274060	0.273929
C59	C	0.266705	-0.245287	0.245247
C60	C	0.649102	-0.333258	0.216554
C61	C	0.649108	-0.383192	0.216559
C62	C	0.677959	-0.692832	0.187894
C63	C	0.678014	-0.880505	0.187911
O64	O	0.702480	-0.904767	0.163521
N65	N	0.649276	-0.903977	0.216610
C66	C	0.620524	-0.880529	0.245308
O67	O	0.596085	-0.904799	0.269722
C68	C	0.620471	-0.692856	0.245293
C69	C	0.649208	-0.669387	0.216589
C70	C	0.706694	-0.669362	0.159192
C71	C	0.706678	-0.622447	0.159187
C72	C	0.677927	-0.599001	0.187882
C73	C	0.649192	-0.622471	0.216583
C74	C	0.591722	-0.669408	0.273993
C75	C	0.591712	-0.622487	0.273988
C76	C	0.620449	-0.599018	0.245284
C77	C	0.620426	-0.552110	0.245273
N78	N	0.649164	-0.528638	0.216574
C79	C	0.677915	-0.552083	0.187879
C80	C	0.620553	-0.979059	0.245314
C81	C	0.620566	-1.025977	0.245317
C82	C	0.678057	-1.025950	0.187920
C83	C	0.678042	-0.979032	0.187915
C84	C	0.649291	-0.955587	0.216615
C85	C	0.677879	-0.453558	0.187868
C86	C	0.677859	-0.406638	0.187864
C87	C	0.620370	-0.406669	0.245262
C88	C	0.620388	-0.453584	0.245265
C89	C	0.649146	-0.477027	0.216567
O90	O	0.595976	-0.527819	0.269653
O91	O	0.702357	-0.527804	0.163475
C92	C	0.677975	-0.739748	0.187899
C93	C	0.649240	-0.763217	0.216601
C94	C	0.620489	-0.739772	0.245296
C95	C	0.649252	-0.810135	0.216604
C96	C	0.678003	-0.833581	0.187909
C97	C	0.706741	-0.810109	0.159210
C98	C	0.706726	-0.763193	0.159204
C99	C	0.591751	-0.763244	0.273995
C100	C	0.591769	-0.810160	0.273998
C101	C	0.620520	-0.833605	0.245303
C102	C	0.766361	-0.216559	0.216614
C103	C	0.816296	-0.216569	0.216630
C104	C	0.649223	-0.216523	0.333754
C105	C	0.649240	-0.216517	0.383689
C106	C	0.649277	-0.099357	0.216608
C107	C	0.649317	-0.049423	0.216622
C108	C	0.649169	-0.216516	0.099853
C109	C	0.649239	-0.216395	0.049919
C110	C	0.677945	-0.245197	0.740280
C111	C	0.677946	-0.245228	0.552607
O112	O	0.702347	-0.269683	0.528346
N113	N	0.649238	-0.216495	0.529134
C114	C	0.620527	-0.187755	0.552582
O115	O	0.596106	-0.163320	0.528310
C116	C	0.620524	-0.187727	0.740254
C117	C	0.649237	-0.216458	0.763725
C118	C	0.706655	-0.273926	0.763751
C119	C	0.706656	-0.273916	0.810667
C120	C	0.677947	-0.245177	0.834111
C121	C	0.649238	-0.216448	0.810640
C122	C	0.591811	-0.158989	0.763701
C123	C	0.591812	-0.158985	0.810622
C124	C	0.620524	-0.187716	0.834093
C125	C	0.620531	-0.187699	0.881000
N126	N	0.649238	-0.216431	0.904474
C127	C	0.677946	-0.245170	0.881029
C128	C	0.620531	-0.187772	0.454051
C129	C	0.620532	-0.187778	0.407133
C130	C	0.677950	-0.245252	0.407162
C131	C	0.677951	-0.245242	0.454081
C132	C	0.649238	-0.216504	0.477524
C133	C	0.677947	-0.245147	0.979555
C134	C	0.677947	-0.245134	1.026475
C135	C	0.620527	-0.187662	1.026442
C136	C	0.620529	-0.187674	0.979526
C137	C	0.649240	-0.216420	0.956084
O138	O	0.596139	-0.163260	0.905290
O139	O	0.702356	-0.269609	0.905309
C140	C	0.677944	-0.245206	0.693365
C141	C	0.649234	-0.216477	0.669894
C142	C	0.620526	-0.187738	0.693339
C143	C	0.649235	-0.216484	0.622976
C144	C	0.677944	-0.245223	0.599532
C145	C	0.706651	-0.273955	0.623005
C146	C	0.706652	-0.273945	0.669920
C147	C	0.591818	-0.159006	0.669865
C148	C	0.591820	-0.159018	0.622950
C149	C	0.620528	-0.187757	0.599505
H150	H	0.393036	-0.164317	0.164510
H151	H	0.730035	-0.297313	0.829773
N152	N	0.560735	-0.737963	0.304944
H153	H	0.539917	-0.718527	0.286660
H154	H	0.579002	-0.718495	0.325780
H155	H	0.393071	-0.268718	0.268585
N156	N	0.484350	-0.156699	0.156925
H157	H	0.476159	-0.163623	0.124812
H158	H	0.517625	-0.161076	0.161312
N159	N	0.589536	-0.953779	0.276268
H160	H	0.568720	-0.934340	0.257985
H161	H	0.607805	-0.934313	0.297105
N162	N	-0.185533	-0.276367	0.276243
H163	H	-0.177340	-0.269431	0.308353
H164	H	-0.177386	-0.308446	0.269175
N165	N	0.268562	-0.305095	0.304861
H166	H	0.246583	-0.323320	0.323030
H167	H	0.288053	-0.286834	0.325683
N168	N	0.127806	-0.305105	0.304891
H169	H	0.105825	-0.323328	0.323060
H170	H	0.147298	-0.286846	0.325712
N171	N	0.737681	-0.597138	0.128234
H172	H	0.733315	-0.563857	0.132581
H173	H	0.730709	-0.605362	0.096141
H174	H	0.036493	-0.297502	0.297326
N175	N	0.708917	-0.276122	1.051790
H176	H	0.727102	-0.294330	1.029815
H177	H	0.690616	-0.296906	1.071241
N178	N	0.708860	-0.381326	0.156907
H179	H	0.704489	-0.348045	0.161255
H180	H	0.701887	-0.389550	0.124815
H181	H	0.177252	-0.297497	0.297295
H182	H	0.730109	-0.688447	0.135825
N183	N	0.484384	-0.276321	0.276141
H184	H	0.462405	-0.294546	0.294312
H185	H	0.503878	-0.258065	0.296963
H186	H	0.730033	-0.297341	0.689026
H187	H	0.597155	-0.164273	0.960415
H188	H	0.701442	-0.959925	0.164542
H189	H	0.568439	-0.135604	0.688949
H190	H	0.177203	-0.135558	0.135868
H191	H	0.597161	-1.045082	0.268687
H192	H	0.701467	-1.045048	0.164556
N193	N	0.708896	-0.478839	0.156916
H194	H	0.727094	-0.456846	0.138735
H195	H	0.690626	-0.498332	0.136106
H196	H	0.568319	-0.688510	0.297365
H197	H	0.568429	-0.135594	0.744599
N198	N	-0.088003	-0.276366	0.276227
H199	H	-0.109980	-0.294595	0.294396
H200	H	-0.068514	-0.258106	0.297049
H201	H	0.262321	-0.135554	0.135860
N202	N	0.737747	-0.835405	0.128258
H203	H	0.758561	-0.854844	0.146544
H204	H	0.755923	-0.813395	0.110078
H205	H	0.568301	-0.603401	0.297360
H206	H	0.596989	-0.472694	0.268640
H207	H	0.596960	-0.387572	0.268624
H208	H	0.730126	-0.744087	0.135831
H209	H	0.568364	-0.829265	0.297372
H210	H	0.701330	-0.268552	0.960474
N211	N	0.737620	-0.304927	0.738469
H212	H	0.755804	-0.323122	0.760465
H213	H	0.758428	-0.286647	0.719023
N214	N	0.708919	-0.276231	0.479394
H215	H	0.727105	-0.294435	0.457418
H216	H	0.690617	-0.297018	0.498842
H217	H	0.701327	-0.268651	0.388065
H218	H	0.597157	-0.164377	0.388027
N219	N	0.589560	-0.156773	0.479334
H220	H	0.571378	-0.138574	0.457340
H221	H	0.607861	-0.135981	0.498818
N222	N	0.560840	-0.127990	0.835908
H223	H	0.542653	-0.109792	0.813917
H224	H	0.579141	-0.107196	0.855390
H225	H	0.597155	-0.164262	1.045539
N226	N	0.737617	-0.304950	0.597713
H227	H	0.733203	-0.300646	0.564430
H228	H	0.730651	-0.337030	0.605957
H229	H	0.568439	-0.135617	0.603844
H230	H	-0.094250	-0.164351	0.164584
N231	N	-0.185563	-0.156768	0.157011
H232	H	-0.177377	-0.124678	0.164044
H233	H	-0.218836	-0.161174	0.161378
N234	N	0.030257	-0.127966	0.128305
H235	H	0.038451	-0.095879	0.135344
H236	H	-0.003017	-0.132364	0.132669
N237	N	0.127761	-0.127955	0.128298
H238	H	0.105769	-0.109734	0.110137
H239	H	0.147201	-0.146208	0.107468
