data_functionalizedCrystal
_audit_creation_method	'MofGen! by Chris Wilmer'
_symmetry_space_group_name_H-M	'P1'
_symmetry_Int_Tables_number	1
_symmetry_cell_setting	triclinic
loop_
_symmetry_equiv_pos_as_xyz
  x,y,z
_cell_length_a	17.077404
_cell_length_b	16.625546
_cell_length_c	17.077396
_cell_angle_alpha	89.969785
_cell_angle_beta	89.980499
_cell_angle_gamma	90.022693
loop_
_atom_site_label
_atom_site_type_symbol
_atom_site_fract_x
_atom_site_fract_y
_atom_site_fract_z
Zn1	Zn	1.200057	-0.320997	-0.443833
Zn2	Zn	1.199965	-0.455839	-0.312563
Zn3	Zn	1.068789	-0.321025	-0.312581
Zn4	Zn	1.068758	-0.455792	-0.443787
O5	O	1.134392	-0.388413	-0.378191
O6	O	1.309892	-0.338892	-0.426432
O7	O	1.182539	-0.437988	-0.202719
O8	O	1.086253	-0.208189	-0.330019
O9	O	1.309824	-0.437960	-0.329988
O10	O	1.182695	-0.208168	-0.426449
O11	O	1.086164	-0.338940	-0.202732
O12	O	0.958938	-0.338894	-0.329974
O13	O	1.086200	-0.437879	-0.553640
O14	O	0.958915	-0.437906	-0.426370
O15	O	1.182665	-0.338846	-0.553674
O16	O	1.182509	-0.568666	-0.329943
O17	O	1.086111	-0.568630	-0.426353
C18	C	0.930444	-0.388399	-0.378169
C19	C	0.843194	-0.388412	-0.378179
C20	C	0.802213	-0.440045	-0.428292
C21	C	0.720232	-0.440047	-0.428304
C22	C	0.679235	-0.388419	-0.378199
C23	C	0.720222	-0.336780	-0.328084
C24	C	0.802201	-0.336774	-0.328076
C25	C	0.549352	-0.336795	-0.328103
C26	C	0.467368	-0.336801	-0.328110
C27	C	0.467383	-0.440068	-0.428331
C28	C	0.549362	-0.440063	-0.428323
C29	C	0.590344	-0.388425	-0.378207
C30	C	1.134318	-0.597904	-0.378158
C31	C	1.134358	-0.687525	-0.378170
C32	C	1.134495	-1.015701	-0.378252
C33	C	1.134454	-0.924392	-0.378232
C34	C	1.134426	-0.851616	-0.378211
C35	C	1.134386	-0.760302	-0.378191
C36	C	1.339136	-0.388428	-0.378213
C37	C	1.426386	-0.388435	-0.378223
C38	C	1.134440	-0.388354	-0.582936
C39	C	1.134460	-0.388329	-0.670185
C40	C	1.134488	-0.178104	-0.378241
C41	C	1.134529	-0.088483	-0.378263
C42	C	1.184691	-0.336758	-0.711195
C43	C	1.184700	-0.336731	-0.793175
C44	C	1.134482	-0.388280	-0.834145
C45	C	1.084245	-0.439853	-0.793130
C46	C	1.084233	-0.439875	-0.711151
C47	C	1.084277	-0.439804	-0.964000
C48	C	1.084291	-0.439783	-1.045985
C49	C	1.184745	-0.336660	-1.046024
C50	C	1.184732	-0.336682	-0.964045
C51	C	1.134496	-0.388257	-0.923036
C52	C	1.134390	-0.388414	-0.174243
C53	C	1.134522	-0.388212	-0.086994
H54	H	0.686836	-0.294739	-0.287291
H55	H	1.043397	-0.481757	-1.079340
H56	H	1.043357	-0.481789	-0.930613
C57	C	1.029009	-0.496558	-0.838201
C58	C	1.063014	-0.559846	-0.894545
C59	C	1.007782	-0.616555	-0.939617
C60	C	0.918544	-0.609977	-0.928344
C61	C	0.884535	-0.546686	-0.871997
C62	C	0.939767	-0.489977	-0.826925
H63	H	1.129077	-0.564718	-0.902893
H64	H	1.032958	-0.663407	-0.981329
H65	H	0.877658	-0.651956	-0.961709
H66	H	0.818472	-0.541814	-0.863649
H67	H	0.914591	-0.443125	-0.785213
C68	C	0.847286	-0.279977	-0.272952
C69	C	0.836044	-0.188324	-0.279524
C70	C	0.881129	-0.131521	-0.224403
C71	C	0.937455	-0.166370	-0.162710
C72	C	0.948699	-0.258027	-0.156136
C73	C	0.903614	-0.314830	-0.211257
H74	H	0.794346	-0.162523	-0.325195
H75	H	0.872805	-0.063670	-0.229270
H76	H	0.970829	-0.124320	-0.121906
H77	H	0.990397	-0.283828	-0.110465
H78	H	0.911938	-0.382681	-0.206390
C79	C	0.594437	-0.279992	-0.272979
C80	C	0.583199	-0.188339	-0.279548
C81	C	0.628286	-0.131539	-0.224425
C82	C	0.684611	-0.166392	-0.162735
C83	C	0.695852	-0.258050	-0.156163
C84	C	0.650765	-0.314849	-0.211286
H85	H	0.541501	-0.162534	-0.325217
H86	H	0.619964	-0.063688	-0.229290
H87	H	0.717987	-0.124345	-0.121930
H88	H	0.737550	-0.283854	-0.110494
H89	H	0.659087	-0.382701	-0.206421
H90	H	1.043321	-0.481861	-0.677762
H91	H	0.434012	-0.482112	-0.469140
H92	H	0.835587	-0.482090	-0.469091
H93	H	0.686869	-0.482093	-0.469111
H94	H	0.433990	-0.294752	-0.287319
C95	C	1.239999	-0.279920	-1.091130
C96	C	1.295241	-0.223220	-1.046066
C97	C	1.350495	-0.166484	-1.091176
C98	C	1.350507	-0.166448	-1.181350
C99	C	1.295263	-0.223150	-1.226419
C100	C	1.240009	-0.279886	-1.181309
H101	H	1.295234	-0.223245	-0.979310
H102	H	1.391390	-0.124510	-1.057813
H103	H	1.391409	-0.124449	-1.214743
H104	H	1.295270	-0.223125	-1.293175
H105	H	1.199114	-0.321860	-1.214673
H106	H	0.582740	-0.482108	-0.469119
H107	H	1.225587	-0.294783	-0.677843
H108	H	1.225605	-0.294739	-0.826561
H109	H	1.225629	-0.294711	-0.930690
