data_functionalizedCrystal
_audit_creation_method	'MofGen! by Chris Wilmer'
_symmetry_space_group_name_H-M	'P1'
_symmetry_Int_Tables_number	1
_symmetry_cell_setting	triclinic
loop_
_symmetry_equiv_pos_as_xyz
  x,y,z
_cell_length_a	21.395364
_cell_length_b	12.594516
_cell_length_c	21.395355
_cell_angle_alpha	90.013083
_cell_angle_beta	90.024552
_cell_angle_gamma	90.026767
loop_
_atom_site_label
_atom_site_type_symbol
_atom_site_fract_x
_atom_site_fract_y
_atom_site_fract_z
Zn1	Zn	0.957941	-0.423441	0.354285
Zn2	Zn	1.457941	0.076559	0.854285
Zn3	Zn	0.957878	-0.601405	0.249518
Zn4	Zn	1.457878	-0.101405	0.749518
Zn5	Zn	0.853156	-0.423487	0.249522
Zn6	Zn	1.353156	0.076513	0.749522
Zn7	Zn	0.853160	-0.601424	0.354258
Zn8	Zn	1.353160	-0.101424	0.854258
O9	O	0.905534	-0.512439	0.301896
O10	O	1.405534	-0.012439	0.801896
O11	O	1.045611	-0.447021	0.340397
O12	O	1.545611	0.052979	0.840397
O13	O	0.943959	-0.577815	0.161840
O14	O	1.443959	-0.077815	0.661840
O15	O	0.867081	-0.274535	0.263432
O16	O	1.367081	0.225465	0.763432
O17	O	1.045565	-0.577770	0.263425
O18	O	1.545565	-0.077770	0.763425
O19	O	0.944066	-0.274501	0.340401
O20	O	1.444066	0.225499	0.840401
O21	O	0.867020	-0.447100	0.161843
O22	O	1.367020	0.052900	0.661843
O23	O	0.765479	-0.447119	0.263406
O24	O	1.265479	0.052881	0.763406
O25	O	0.867087	-0.577803	0.441939
O26	O	1.367087	-0.077803	0.941939
O27	O	0.765482	-0.577848	0.340355
O28	O	1.265482	-0.077848	0.840355
O29	O	0.944070	-0.447039	0.441959
O30	O	1.444070	0.052961	0.941959
O31	O	0.943963	-0.750353	0.263398
O32	O	1.443963	-0.250353	0.763398
O33	O	0.867026	-0.750367	0.340351
O34	O	1.367026	-0.250367	0.840351
C35	C	0.742746	-0.512491	0.301878
C36	C	1.242746	-0.012491	0.801878
C37	C	0.673105	-0.512539	0.301885
C38	C	1.173105	-0.012539	0.801885
C39	C	0.640439	-0.444569	0.342027
C40	C	1.140439	0.055431	0.842027
C41	C	0.575003	-0.444541	0.342029
C42	C	1.075003	0.055459	0.842029
C43	C	0.542237	-0.512501	0.301897
C44	C	1.042237	-0.012501	0.801897
C45	C	0.574911	-0.580476	0.261748
C46	C	1.074911	-0.080476	0.761748
C47	C	0.640346	-0.580495	0.261742
C48	C	1.140346	-0.080495	0.761742
C49	C	0.438531	-0.608355	0.296865
C50	C	0.938531	-0.108355	0.796865
C51	C	0.373098	-0.608338	0.296875
C52	C	0.873098	-0.108338	0.796875
C53	C	0.340416	-0.512443	0.301911
C54	C	0.840416	-0.012443	0.801911
C55	C	0.373175	-0.416562	0.306950
C56	C	0.873175	0.083438	0.806950
C57	C	0.438609	-0.416581	0.306944
C58	C	0.938609	0.083419	0.806944
C59	C	0.471285	-0.512488	0.301898
C60	C	0.971285	-0.012488	0.801898
C61	C	0.236797	-0.444436	0.342057
C62	C	0.736797	0.055564	0.842057
C63	C	0.171360	-0.444406	0.342055
C64	C	0.671360	0.055594	0.842055
C65	C	0.171270	-0.580351	0.261777
C66	C	0.671270	-0.080351	0.761777
C67	C	0.236705	-0.580372	0.261775
C68	C	0.736705	-0.080372	0.761775
C69	C	0.269465	-0.512416	0.301919
C70	C	0.769465	-0.012416	0.801919
C71	C	0.905505	-0.788980	0.301885
C72	C	1.405505	-0.288980	0.801885
C73	C	0.905550	-0.907286	0.301901
C74	C	1.405550	-0.407286	0.801901
C75	C	0.947444	-0.976493	0.260091
C76	C	1.447444	-0.476493	0.760091
C77	C	0.962759	-1.047207	0.317279
C78	C	1.462759	-0.547207	0.817279
C79	C	0.890314	-1.047370	0.244750
C80	C	1.390314	-0.547370	0.744750
C81	C	0.920894	-0.976442	0.359119
C82	C	1.420894	-0.476442	0.859119
C83	C	0.848422	-0.976598	0.286551
C84	C	1.348422	-0.476598	0.786551
C85	C	0.863715	-1.047281	0.343778
C86	C	1.363715	-0.547281	0.843778
C87	C	1.068957	-0.512388	0.301914
C88	C	1.568957	-0.012388	0.801914
C89	C	1.138599	-0.512366	0.301921
C90	C	1.638599	-0.012366	0.801921
C91	C	0.905586	-0.512418	0.465319
C92	C	1.405586	-0.012418	0.965319
C93	C	0.905608	-0.512409	0.534960
C94	C	1.405608	-0.012409	1.034960
C95	C	0.905580	-0.234818	0.301920
C96	C	1.405580	0.265182	0.801920
C97	C	0.905600	-0.116513	0.301931
C98	C	1.405600	0.383487	0.801931
C99	C	0.905518	-0.512384	0.139108
C100	C	1.405518	-0.012384	0.639108
C101	C	0.905618	-0.512093	0.069467
C102	C	1.405618	-0.012093	0.569467
C103	C	0.945691	-0.444317	0.567685
C104	C	1.445691	0.055683	1.067685
C105	C	0.945690	-0.444271	0.633120
C106	C	1.445690	0.055729	1.133120
C107	C	0.905613	-0.512336	0.665829
C108	C	1.405613	-0.012336	1.165829
C109	C	0.865522	-0.580432	0.633096
C110	C	1.365522	-0.080432	1.133096
C111	C	0.865520	-0.580469	0.567662
C112	C	1.365520	-0.080469	1.067662
C113	C	0.900656	-0.608176	0.769500
C114	C	1.400656	-0.108176	1.269500
C115	C	0.900663	-0.608141	0.834933
C116	C	1.400663	-0.108141	1.334933
C117	C	0.905617	-0.512224	0.867649
C118	C	1.405617	-0.012224	1.367649
C119	C	0.910578	-0.416337	0.834925
C120	C	1.410578	0.083663	1.334925
C121	C	0.910575	-0.416374	0.769491
C122	C	1.410575	0.083626	1.269491
C123	C	0.905611	-0.512304	0.736781
C124	C	1.405611	-0.012304	1.236781
C125	C	0.945701	-0.444077	0.971327
C126	C	1.445701	0.055923	1.471327
C127	C	0.945696	-0.444029	1.036763
C128	C	1.445696	0.055971	1.536763
C129	C	0.865531	-0.580200	1.036738
C130	C	1.365531	-0.080200	1.536738
C131	C	0.865533	-0.580238	0.971303
C132	C	1.365533	-0.080238	1.471303
C133	C	0.905622	-0.512178	0.938601
C134	C	1.405622	-0.012178	1.438601
H135	H	0.548401	-0.389186	0.374716
H136	H	1.048401	0.110814	0.874716
H137	H	0.877406	-1.078524	0.196406
H138	H	1.377406	-0.578524	0.696406
Cl139	Cl	0.815137	-0.665995	0.674214
Cl140	Cl	1.315137	-0.165995	1.174214
Cl141	Cl	0.773817	-0.928676	0.266456
Cl142	Cl	1.273817	-0.428676	0.766456
H143	H	0.667107	-0.389233	0.374714
H144	H	1.167107	0.110767	0.874714
Cl145	Cl	0.996072	-0.358643	0.674268
Cl146	Cl	1.496072	0.141357	1.174268
Cl147	Cl	0.277774	-0.665820	0.211306
Cl148	Cl	0.777774	-0.165820	0.711306
H149	H	0.346431	-0.686409	0.292774
H150	H	0.846431	-0.186409	0.792774
H151	H	0.896627	-0.686217	0.861571
H152	H	1.396627	-0.186217	1.361571
H153	H	0.978335	-0.388575	1.063407
H154	H	1.478335	0.111425	1.563407
Cl155	Cl	0.996084	-0.358750	0.526578
Cl156	Cl	1.496084	0.141250	1.026578
H157	H	0.982878	-0.945410	0.224766
H158	H	1.482878	-0.445410	0.724766
Cl159	Cl	0.533721	-0.665907	0.211293
Cl160	Cl	1.033721	-0.165907	0.711293
Cl161	Cl	0.681414	-0.665947	0.211273
Cl162	Cl	1.181414	-0.165947	0.711273
Cl163	Cl	0.916809	-0.295747	0.876048
Cl164	Cl	1.416809	0.204253	1.376048
H165	H	0.933754	-0.945419	0.407505
H166	H	1.433754	-0.445419	0.907505
H167	H	1.011092	-1.078226	0.330279
H168	H	1.511092	-0.578226	0.830279
Cl169	Cl	0.809049	-1.094973	0.398447
Cl170	Cl	1.309049	-0.594973	0.898447
Cl171	Cl	0.996093	-0.358512	0.930213
Cl172	Cl	1.496093	0.141488	1.430213
H173	H	0.144592	-0.635686	0.229100
H174	H	0.644592	-0.135686	0.729100
H175	H	0.914613	-0.338300	0.742850
H176	H	1.414613	0.161700	1.242850
H177	H	0.832893	-0.635608	1.063368
H178	H	1.332893	-0.135608	1.563368
Cl179	Cl	0.479610	-0.728919	0.290524
Cl180	Cl	0.979610	-0.228919	0.790524
H181	H	0.832897	-0.635692	0.944658
H182	H	1.332897	-0.135692	1.444658
Cl183	Cl	0.479790	-0.296051	0.313275
Cl184	Cl	0.979790	0.203949	0.813275
H185	H	0.832877	-0.635915	0.541018
H186	H	1.332877	-0.135915	1.041018
Cl187	Cl	0.277983	-0.359000	0.392517
Cl188	Cl	0.777983	0.141000	0.892517
H189	H	0.346567	-0.338475	0.311051
H190	H	0.846567	0.161525	0.811051
H191	H	0.144764	-0.389051	0.374742
H192	H	0.644764	0.110949	0.874742
Cl193	Cl	0.894446	-0.728773	0.728377
Cl194	Cl	1.394446	-0.228773	1.228377
