data_functionalizedCrystal
_audit_creation_method	'MofGen! by Chris Wilmer'
_symmetry_space_group_name_H-M	'P1'
_symmetry_Int_Tables_number	1
_symmetry_cell_setting	triclinic
loop_
_symmetry_equiv_pos_as_xyz
  x,y,z
_cell_length_a	12.827893
_cell_length_b	18.215405
_cell_length_c	18.215387
_cell_angle_alpha	90.093990
_cell_angle_beta	89.944345
_cell_angle_gamma	89.975144
loop_
_atom_site_label
_atom_site_type_symbol
_atom_site_fract_x
_atom_site_fract_y
_atom_site_fract_z
Zn1	Zn	1.597976	0.292532	-0.416062
Zn2	Zn	1.597730	0.415739	-0.292990
Zn3	Zn	1.423106	0.292691	-0.293013
Zn4	Zn	1.423174	0.415561	-0.416019
O5	O	1.510497	0.354131	-0.354521
O6	O	1.744179	0.308883	-0.399744
O7	O	1.574435	0.399558	-0.190008
O8	O	1.446378	0.189686	-0.309364
O9	O	1.743999	0.399403	-0.309323
O10	O	1.574854	0.189568	-0.399767
O11	O	1.446140	0.309155	-0.190026
O12	O	1.276879	0.308982	-0.309323
O13	O	1.446493	0.399100	-0.519009
O14	O	1.276929	0.399254	-0.399695
O15	O	1.574919	0.308710	-0.519041
O16	O	1.574500	0.518700	-0.309282
O17	O	1.446254	0.518569	-0.399671
C18	C	1.238987	0.354117	-0.354507
C19	C	1.122834	0.354128	-0.354518
C20	C	1.510741	0.353867	-0.546474
C21	C	1.510845	0.353755	-0.628274
C22	C	1.510386	0.545337	-0.354486
C23	C	1.510435	0.627136	-0.354495
C24	C	1.071101	0.398868	-0.399168
C25	C	0.951051	0.398881	-0.399181
C26	C	1.783067	0.354145	-0.354535
C27	C	1.899220	0.354152	-0.354542
C28	C	1.510636	0.162178	-0.354573
C29	C	1.510695	0.080379	-0.354595
C30	C	1.577369	0.815373	-0.307516
C31	C	1.577416	0.892232	-0.307534
C32	C	1.443758	0.892136	-0.401579
C33	C	1.443717	0.815279	-0.401564
C34	C	1.510521	0.776899	-0.354529
C35	C	1.510609	0.930615	-0.354561
C36	C	1.510659	1.013949	-0.354581
C37	C	1.510473	0.693560	-0.354510
C38	C	1.510313	0.354340	-0.163314
C39	C	1.510412	0.354245	-0.081516
C40	C	1.577047	0.306561	0.183331
C41	C	1.576973	0.306643	0.106473
C42	C	1.444202	0.401441	0.106885
C43	C	1.444272	0.401355	0.183742
C44	C	1.510701	0.353917	0.221963
C45	C	1.510556	0.354083	0.068248
C46	C	1.510474	0.354172	-0.015086
C47	C	1.510781	0.353827	0.305302
H48	H	1.115687	0.437158	-0.437388
H49	H	0.943702	0.315849	-0.316311
H50	H	1.078247	0.315832	-0.316305
H51	H	1.630997	0.268080	0.075022
C52	C	1.370178	0.772951	-0.453281
C53	C	1.370138	0.688411	-0.453266
C54	C	1.296606	0.646083	-0.504982
C55	C	1.223114	0.688295	-0.556713
C56	C	1.223152	0.772840	-0.556730
C57	C	1.296683	0.815168	-0.505014
H58	H	1.424543	0.657159	-0.414970
H59	H	1.296579	0.583497	-0.504969
H60	H	1.168682	0.656961	-0.594996
H61	H	1.168746	0.804092	-0.595026
H62	H	1.296711	0.877754	-0.505026
H63	H	0.906561	0.437186	-0.437406
C64	C	1.371142	0.453627	0.064839
C65	C	1.371065	0.453727	-0.019700
C66	C	1.298005	0.505917	-0.061744
C67	C	1.225023	0.558006	-0.019247
C68	C	1.225097	0.557908	0.065297
C69	C	1.298156	0.505718	0.107341
H70	H	1.425093	0.415166	-0.051163
H71	H	1.297951	0.505989	-0.124330
H72	H	1.170940	0.596640	-0.050370
H73	H	1.171068	0.596469	0.096760
H74	H	1.298211	0.505646	0.169926
H75	H	1.390238	0.439917	0.215197
C76	C	1.650108	0.254374	0.225376
C77	C	1.723082	0.202281	0.182878
C78	C	1.796142	0.150090	0.224919
C79	C	1.796227	0.149993	0.309459
C80	C	1.723250	0.202088	0.351962
C81	C	1.650190	0.254279	0.309920
H82	H	1.723022	0.202351	0.120292
H83	H	1.850165	0.111526	0.193456
H84	H	1.850310	0.111358	0.340581
H85	H	1.723310	0.202018	0.414548
H86	H	1.596168	0.292843	0.341384
H87	H	1.389367	0.923394	-0.439873
C88	C	1.650860	0.773155	-0.255784
C89	C	1.724396	0.815480	-0.204074
C90	C	1.797891	0.773264	-0.152343
C91	C	1.797851	0.688724	-0.152321
C92	C	1.724312	0.646395	-0.204032
C93	C	1.650816	0.688611	-0.255764
H94	H	1.724428	0.878066	-0.204089
H95	H	1.852329	0.804600	-0.114062
H96	H	1.852256	0.657474	-0.114026
H97	H	1.724279	0.583809	-0.204018
H98	H	1.596378	0.657275	-0.294044
H99	H	1.631852	0.923554	-0.269252
