data_functionalizedCrystal
_audit_creation_method	'MofGen! by Chris Wilmer'
_symmetry_space_group_name_H-M	'P1'
_symmetry_Int_Tables_number	1
_symmetry_cell_setting	triclinic
loop_
_symmetry_equiv_pos_as_xyz
  x,y,z
_cell_length_a	14.519731
_cell_length_b	27.732048
_cell_length_c	13.596369
_cell_angle_alpha	89.989067
_cell_angle_beta	89.994584
_cell_angle_gamma	83.165754
loop_
_atom_site_label
_atom_site_type_symbol
_atom_site_fract_x
_atom_site_fract_y
_atom_site_fract_z
O1	O	1.222753	0.063411	-0.081805
O2	O	1.722753	0.563411	0.418195
O3	O	0.954149	0.070862	-0.081807
O4	O	1.454149	0.570862	0.418193
O5	O	1.096793	-0.003220	-0.081787
O6	O	1.596793	0.496780	0.418213
O7	O	1.080109	0.137493	-0.081825
O8	O	1.580109	0.637493	0.418175
O9	O	1.096779	-0.003224	0.081796
O10	O	1.596779	0.496776	0.581796
O11	O	0.954135	0.070858	0.081775
O12	O	1.454135	0.570858	0.581775
O13	O	1.222739	0.063407	0.081778
O14	O	1.722739	0.563407	0.581778
Zn15	Zn	1.088435	0.067132	0.107749
Zn16	Zn	1.588435	0.567132	0.607749
Zn17	Zn	1.088453	0.067137	-0.107778
Zn18	Zn	1.588453	0.567137	0.392222
O19	O	1.080095	0.137489	0.081758
O20	O	1.580095	0.637489	0.581758
C21	C	0.919789	0.070511	-0.000016
C22	C	1.419789	0.570511	0.499984
C23	C	0.817427	0.069465	-0.000016
C24	C	1.317427	0.569465	0.499984
C25	C	1.096436	-0.021231	0.000007
C26	C	1.596436	0.478769	0.500007
C27	C	1.095382	-0.074890	0.000015
C28	C	1.595382	0.425110	0.500015
C29	C	0.734297	0.068615	-0.000020
C30	C	1.234297	0.568615	0.499980
C31	C	0.630007	0.067553	-0.000020
C32	C	1.130007	0.567553	0.499980
C33	C	0.546883	0.066710	-0.000020
C34	C	1.046883	0.566710	0.499980
C35	C	0.442586	0.065647	-0.000022
C36	C	0.942586	0.565647	0.499978
C37	C	1.173036	-0.413331	-0.000035
C38	C	1.673036	0.086669	0.499965
C39	C	1.169123	-0.615010	-0.000048
C40	C	1.669123	-0.115010	0.499952
O41	O	1.240132	-0.645923	-0.000091
O42	O	1.740132	-0.145923	0.499909
N43	N	1.084541	-0.634541	-0.000048
N44	N	1.584541	-0.134541	0.499952
C45	C	1.000931	-0.603649	-0.000051
C46	C	1.500931	-0.103649	0.499949
O47	O	0.928899	-0.624890	-0.000062
O48	O	1.428899	-0.124890	0.499938
C49	C	1.004845	-0.401972	-0.000045
C50	C	1.504845	0.098028	0.499955
C51	C	1.089432	-0.382444	-0.000035
C52	C	1.589432	0.117556	0.499965
C53	C	1.257616	-0.393802	-0.000026
C54	C	1.757616	0.106198	0.499974
C55	C	1.258594	-0.343386	-0.000017
C56	C	1.758594	0.156614	0.499983
C57	C	1.174990	-0.312498	-0.000017
C58	C	1.674990	0.187502	0.499983
C59	C	1.090410	-0.332027	-0.000026
C60	C	1.590410	0.167973	0.499974
C61	C	0.921236	-0.371081	-0.000055
C62	C	1.421236	0.128919	0.499945
C63	C	0.922222	-0.320659	-0.000055
C64	C	1.422222	0.179341	0.499945
C65	C	1.006809	-0.301131	-0.000046
C66	C	1.506809	0.198869	0.499954
C67	C	1.007784	-0.250723	-0.000017
C68	C	1.507784	0.249277	0.499983
N69	N	1.092366	-0.231191	-0.000017
N70	N	1.592366	0.268809	0.499983
C71	C	1.175969	-0.262079	-0.000017
C72	C	1.675969	0.237921	0.499983
C73	C	0.998882	-0.709533	-0.000053
C74	C	1.498882	-0.209533	0.499947
C75	C	0.997903	-0.759953	-0.000053
C76	C	1.497903	-0.259953	0.499947
C77	C	1.166096	-0.771309	-0.000052
C78	C	1.666096	-0.271309	0.499948
C79	C	1.167073	-0.720889	-0.000045
C80	C	1.667073	-0.220889	0.499955
C81	C	1.083464	-0.690002	-0.000053
C82	C	1.583464	-0.190002	0.499947
C83	C	1.178015	-0.156200	0.000002
C84	C	1.678015	0.343800	0.500002
C85	C	1.178985	-0.105778	0.000015
C86	C	1.678985	0.394222	0.500015
C87	C	1.010793	-0.094426	0.000009
C88	C	1.510793	0.405574	0.500009
C89	C	1.009823	-0.144843	0.000001
C90	C	1.509823	0.355157	0.500001
C91	C	1.093441	-0.175729	-0.000006
C92	C	1.593441	0.324271	0.499994
O93	O	0.936812	-0.219781	0.000014
O94	O	1.436812	0.280219	0.500014
O95	O	1.247991	-0.240829	-0.000029
O96	O	1.747991	0.259171	0.499971
C97	C	1.172058	-0.463748	-0.000043
C98	C	1.672058	0.036252	0.499957
C99	C	1.087478	-0.483277	-0.000052
C100	C	1.587478	0.016723	0.499948
C101	C	1.003874	-0.452389	-0.000052
C102	C	1.503874	0.047611	0.499948
C103	C	1.086499	-0.533696	-0.000052
C104	C	1.586499	-0.033696	0.499948
C105	C	1.170102	-0.564584	-0.000052
C106	C	1.670102	-0.064584	0.499948
C107	C	1.254685	-0.545052	-0.000052
C108	C	1.754685	-0.045052	0.499948
C109	C	1.255662	-0.494636	-0.000043
C110	C	1.755662	0.005364	0.499957
C111	C	0.919292	-0.471921	-0.000052
C112	C	1.419292	0.028079	0.499948
C113	C	0.918322	-0.522338	-0.000060
C114	C	1.418322	-0.022338	0.499940
C115	C	1.001925	-0.553225	-0.000060
C116	C	1.501925	-0.053225	0.499940
C117	C	1.257099	0.063758	-0.000015
C118	C	1.757099	0.563758	0.499985
C119	C	1.359462	0.064804	-0.000021
C120	C	1.859462	0.564804	0.499979
C121	C	1.080452	0.155500	-0.000038
C122	C	1.580452	0.655500	0.499962
C123	C	1.081507	0.209160	-0.000053
C124	C	1.581507	0.709160	0.499947
N125	N	1.088429	0.067128	0.254841
N126	N	1.588429	0.567128	0.754841
N127	N	1.088467	0.067137	-0.254870
N128	N	1.588467	0.567137	0.245130
C129	C	1.088452	0.067138	0.656132
C130	C	1.588452	0.567138	1.156132
C131	C	1.088443	0.067137	0.544481
C132	C	1.588443	0.567137	1.044481
C133	C	1.088441	0.067133	0.455490
C134	C	1.588441	0.567133	0.955490
C135	C	1.088431	0.067132	0.343832
C136	C	1.588431	0.567132	0.843832
H137	H	1.246105	-0.181342	-0.000007
H138	H	1.746105	0.318658	0.499993
N139	N	0.911499	-0.779897	-0.000072
N140	N	1.411499	-0.279897	0.499928
N141	N	0.892191	-0.806754	-0.069032
N142	N	1.392191	-0.306754	0.430968
H143	H	0.831164	-0.820838	-0.069052
H144	H	1.331164	-0.320838	0.430948
N145	N	1.345007	-0.323450	-0.000011
N146	N	1.845007	0.176550	0.499989
N147	N	1.419639	-0.351042	-0.000015
N148	N	1.919639	0.148958	0.499985
H149	H	1.480674	-0.336966	-0.000014
H150	H	1.980674	0.163034	0.499986
H151	H	0.930793	-0.684389	-0.000059
H152	H	1.430793	-0.184389	0.499941
H153	H	1.325700	-0.418947	-0.000029
H154	H	1.825700	0.081053	0.499971
N155	N	0.923418	-0.164791	-0.000020
N156	N	1.423418	0.335209	0.499980
N157	N	0.904110	-0.191643	-0.068987
N158	N	1.404110	0.308357	0.431013
H159	H	0.843084	-0.205728	-0.069011
H160	H	1.343084	0.294272	0.430989
N161	N	0.925409	-0.062861	-0.000006
N162	N	1.425409	0.437139	0.499994
N163	N	0.907220	-0.033452	-0.068964
N164	N	1.407220	0.466548	0.431036
H165	H	0.846917	-0.011157	-0.068982
H166	H	1.346917	0.488843	0.431018
N167	N	1.342075	-0.474700	-0.000029
N168	N	1.842075	0.025300	0.499971
N169	N	1.416708	-0.502292	-0.000028
N170	N	1.916708	-0.002292	0.499972
H171	H	1.477742	-0.488216	-0.000019
H172	H	1.977742	0.011784	0.499981
H173	H	0.851211	-0.446776	-0.000054
H174	H	1.351211	0.053224	0.499946
N175	N	0.834822	-0.391013	-0.000067
N176	N	1.334822	0.108987	0.499933
N177	N	0.760191	-0.363419	-0.000078
N178	N	1.260191	0.136581	0.499922
H179	H	0.699155	-0.377494	-0.000090
H180	H	1.199155	0.122506	0.499910
N181	N	1.340076	-0.576616	-0.000042
N182	N	1.840076	-0.076616	0.499958
N183	N	1.339178	-0.621631	-0.000046
N184	N	1.839178	-0.121631	0.499954
H185	H	1.399481	-0.643925	-0.000041
H186	H	1.899481	-0.143925	0.499959
N187	N	1.265401	-0.085839	0.000033
N188	N	1.765401	0.414161	0.500033
N189	N	1.340039	-0.113427	0.000033
N190	N	1.840039	0.386573	0.500033
H191	H	1.401070	-0.099347	0.000045
H192	H	1.901070	0.400653	0.500045
H193	H	0.854135	-0.295513	-0.000064
H194	H	1.354135	0.204487	0.499936
H195	H	1.235952	-0.704993	-0.000037
H196	H	1.735952	-0.204993	0.499963
N197	N	1.251487	-0.802872	-0.000044
N198	N	1.751487	-0.302872	0.499956
N199	N	1.250590	-0.847887	-0.000043
N200	N	1.750590	-0.347887	0.499957
H201	H	1.310894	-0.870181	-0.000042
H202	H	1.810894	-0.370181	0.499958
H203	H	0.849435	-0.538232	-0.000059
H204	H	1.349435	-0.038232	0.499941
