data_functionalizedCrystal
_audit_creation_method	'MofGen! by Chris Wilmer'
_symmetry_space_group_name_H-M	'P1'
_symmetry_Int_Tables_number	1
_symmetry_cell_setting	triclinic
loop_
_symmetry_equiv_pos_as_xyz
  x,y,z
_cell_length_a	9.483290
_cell_length_b	10.654550
_cell_length_c	10.654551
_cell_angle_alpha	95.514820
_cell_angle_beta	79.661199
_cell_angle_gamma	100.386757
loop_
_atom_site_label
_atom_site_type_symbol
_atom_site_fract_x
_atom_site_fract_y
_atom_site_fract_z
O1	O	0.120774	-1.650150	0.158801
O2	O	0.120800	-1.284668	0.175604
O3	O	0.120783	-1.475812	-0.015536
O4	O	0.120791	-1.459006	0.349941
O5	O	-0.120994	-1.511213	0.019686
O6	O	-0.120978	-1.320069	0.210826
O7	O	-0.121004	-1.685551	0.194024
Cu8	Cu	-0.143067	-1.506042	0.205641
Cu9	Cu	0.142863	-1.464176	0.163986
O10	O	-0.120987	-1.494407	0.385164
C11	C	-0.000085	-1.255570	0.191980
C12	C	-0.000075	-1.116125	0.188287
C13	C	-0.000103	-1.492278	-0.044723
C14	C	-0.000096	-1.488584	-0.184167
N15	N	-0.344175	-1.535497	0.234938
C16	C	-0.416400	-1.472850	0.172621
C17	C	-0.583807	-1.497388	0.197006
N18	N	0.343971	-1.434731	0.134680
C19	C	-0.000115	-1.714648	0.177647
C20	C	-0.000116	-1.854092	0.181339
C21	C	-0.000077	-1.036640	0.300829
C22	C	-0.000102	-0.905623	0.297356
C23	C	-0.000118	-0.933588	0.068789
C24	C	-0.000103	-1.064604	0.072264
C25	C	0.131699	-1.467554	-0.268871
C26	C	0.131700	-1.464073	-0.399892
C27	C	-0.131899	-1.502661	-0.361492
C28	C	-0.131899	-1.506132	-0.230473
C29	C	-0.000097	-1.477941	0.414350
C30	C	-0.000095	-1.481633	0.553793
H31	H	-0.354298	-1.401044	0.101222
H32	H	-0.239229	-1.523251	-0.161502
Cl33	Cl	-0.679669	-1.608244	0.307263
Cl34	Cl	-0.560170	-1.323860	0.024436
H35	H	-0.239209	-1.516950	-0.399211
H36	H	-0.000149	-0.891624	-0.025672
Cl37	Cl	-0.440042	-1.646349	0.345191
Cl38	Cl	-0.000112	-1.164537	-0.069227
Cl39	Cl	-0.000051	-1.101407	0.446686
H40	H	0.239020	-1.446946	-0.468853
Cl41	Cl	-0.000106	-0.805704	0.438844
Cl42	Cl	0.297393	-1.445486	-0.210662
