data_functionalizedCrystal
_audit_creation_method	'MofGen! by Chris Wilmer'
_symmetry_space_group_name_H-M	'P1'
_symmetry_Int_Tables_number	1
_symmetry_cell_setting	triclinic
loop_
_symmetry_equiv_pos_as_xyz
  x,y,z
_cell_length_a	17.639617
_cell_length_b	19.121063
_cell_length_c	17.640968
_cell_angle_alpha	81.648500
_cell_angle_beta	70.333968
_cell_angle_gamma	104.083010
loop_
_atom_site_label
_atom_site_type_symbol
_atom_site_fract_x
_atom_site_fract_y
_atom_site_fract_z
Zn1	Zn	1.358109	0.092904	-0.717549
Zn2	Zn	1.324239	-0.054341	-0.585562
Zn3	Zn	1.190013	0.033379	-0.554187
Zn4	Zn	1.214331	-0.054272	-0.695442
O5	O	1.271673	0.004418	-0.638185
O6	O	1.469962	0.098254	-0.722423
O7	O	1.282082	-0.067644	-0.467048
O8	O	1.216309	0.139580	-0.571979
O9	O	1.445078	-0.009926	-0.625453
O10	O	1.339809	0.183313	-0.692000
O11	O	1.183466	-0.003197	-0.443997
O12	O	1.076893	-0.003131	-0.550543
O13	O	1.257756	-0.009809	-0.812727
O14	O	1.094760	-0.067528	-0.654322
O15	O	1.363389	0.098321	-0.828969
O16	O	1.305662	-0.152636	-0.604016
O17	O	1.224913	-0.152586	-0.684745
C18	C	1.055659	-0.041781	-0.596629
C19	C	0.963251	-0.061558	-0.578872
C20	C	0.724147	0.154719	-0.773290
C21	C	0.637311	0.136114	-0.756588
C22	C	0.611395	0.023583	-0.655457
C23	C	0.698231	0.042176	-0.672153
C24	C	0.754600	0.107746	-0.731070
C25	C	0.728684	-0.004797	-0.629933
C26	C	0.815512	0.013797	-0.646625
C27	C	0.871886	0.079364	-0.705537
C28	C	0.841428	0.126340	-0.747762
C29	C	0.672312	-0.070364	-0.571012
C30	C	0.702766	-0.117337	-0.528791
C31	C	0.789596	-0.098746	-0.545488
C32	C	0.845970	-0.033179	-0.604400
C33	C	0.820054	-0.145722	-0.503263
C34	C	0.906882	-0.127128	-0.519955
C35	C	0.932798	-0.014585	-0.621092
C36	C	1.264278	-0.178092	-0.645408
C37	C	1.261196	-0.256148	-0.648541
C38	C	1.301840	-0.292803	-0.608032
C39	C	1.298947	-0.366143	-0.610984
C40	C	1.255405	-0.402828	-0.654439
C41	C	1.214760	-0.366167	-0.694952
C42	C	1.217658	-0.292826	-0.692005
C43	C	1.244553	-0.624268	-0.665442
C44	C	1.241655	-0.697614	-0.668384
C45	C	1.325845	-0.697585	-0.584416
C46	C	1.328735	-0.624245	-0.581469
C47	C	1.288093	-0.587588	-0.621986
C48	C	1.252445	-0.477794	-0.657455
C49	C	1.291059	-0.512622	-0.618974
C50	C	1.488531	0.050797	-0.679904
C51	C	1.580942	0.070560	-0.697682
C52	C	1.317063	0.050903	-0.851328
C53	C	1.336406	0.070713	-0.942156
C54	C	1.279124	0.187648	-0.630956
C55	C	1.282300	0.265731	-0.627875
C56	C	1.125065	-0.145622	-1.198605
C57	C	1.143258	-0.126996	-1.283955
C58	C	1.253244	-0.014410	-1.300856
C59	C	1.235058	-0.033025	-1.215505
C60	C	1.170968	-0.098633	-1.164386
C61	C	1.280960	0.013964	-1.181286
C62	C	1.262778	-0.004652	-1.095942
C63	C	1.198693	-0.070258	-1.044818
C64	C	1.152785	-0.117249	-1.079042
C65	C	1.345054	0.079569	-1.232407
C66	C	1.390957	0.126558	-1.198188
C67	C	1.372771	0.107945	-1.112842
C68	C	1.308686	0.042340	-1.061718
C69	C	1.418678	0.154937	-1.078618
C70	C	1.400496	0.136320	-0.993275
C71	C	1.290503	0.023723	-0.976375
C72	C	1.226510	-0.041826	-0.425879
C73	C	1.207336	-0.061403	-0.335074
H74	H	0.931677	-0.165378	-0.485575
N75	N	1.456423	0.193566	-1.250421
N76	N	1.472654	0.210179	-1.326619
H77	H	1.518890	0.257504	-1.363508
N78	N	1.484149	0.221941	-1.130854
N79	N	1.500382	0.238549	-1.207053
H80	H	1.546622	0.285870	-1.243945
N81	N	1.346319	-0.255322	-0.563651
N82	N	1.348902	-0.189840	-0.561024
H83	H	1.380318	-0.163368	-0.529680
N84	N	0.990386	0.052399	-0.681265
N85	N	1.034527	0.101317	-0.660130
H86	H	1.075200	0.148623	-0.702623
H87	H	1.364190	-0.594377	-0.546084
H88	H	1.358934	-0.727438	-0.551431
N89	N	0.899005	0.193317	-0.807952
N90	N	0.871808	0.235253	-0.845650
H91	H	0.912470	0.282555	-0.888156
N92	N	0.762456	-0.212687	-0.443076
N93	N	0.684933	-0.229275	-0.428173
H94	H	0.644254	-0.276570	-0.385665
H95	H	0.565487	-0.029802	-0.607484
H96	H	0.656858	-0.170722	-0.480819
H97	H	1.359858	0.094723	-1.301899
N98	N	0.583615	-0.089370	-0.553941
N99	N	0.531881	-0.096800	-0.482185
H100	H	0.469238	-0.110225	-0.470126
N101	N	1.447392	0.184324	-0.958329
N102	N	1.504609	0.242900	-1.003979
H103	H	1.537733	0.276803	-0.979299
H104	H	0.942586	0.094504	-0.719124
H105	H	1.179311	-0.396040	-0.730339
H106	H	1.332043	-0.395985	-0.577997
H107	H	0.770047	0.208110	-0.821269
N108	N	1.197164	-0.735080	-0.712771
N109	N	1.160876	-0.702346	-0.748938
H110	H	1.129452	-0.728807	-0.780282
N111	N	0.606222	0.184096	-0.799748
N112	N	0.656566	0.242627	-0.852362
H113	H	0.634612	0.276509	-0.882851
H114	H	1.211459	-0.594429	-0.698430
N115	N	1.176143	-0.255390	-0.733394
N116	N	1.137270	-0.288149	-0.772194
H117	H	1.107952	-0.261710	-0.801430
N118	N	1.335521	-0.475146	-0.574581
N119	N	1.296823	-0.451871	-0.515229
H120	H	1.328220	-0.425399	-0.483872
N121	N	1.207947	-0.515264	-0.701829
N122	N	1.171648	-0.482535	-0.737987
H123	H	1.140220	-0.508999	-0.769326
H124	H	1.100577	-0.170661	-1.037413
N125	N	1.225021	-0.043283	-0.924144
N126	N	1.150523	-0.052946	-0.918732
H127	H	1.104277	-0.100267	-0.881842
N128	N	1.180098	-0.089284	-0.957638
N129	N	1.122872	-0.147861	-0.912006
H130	H	1.109737	-0.161299	-0.850434
H131	H	1.072857	-0.199034	-1.156976
H132	H	1.105873	-0.165265	-1.311812
N133	N	1.318710	0.052598	-1.353088
N134	N	1.334941	0.069211	-1.429287
H135	H	1.381177	0.116536	-1.466176
