data_functionalizedCrystal
_audit_creation_method	'MofGen! by Chris Wilmer'
_symmetry_space_group_name_H-M	'P1'
_symmetry_Int_Tables_number	1
_symmetry_cell_setting	triclinic
loop_
_symmetry_equiv_pos_as_xyz
  x,y,z
_cell_length_a	25.639243
_cell_length_b	25.639239
_cell_length_c	25.639233
_cell_angle_alpha	90.018747
_cell_angle_beta	90.015962
_cell_angle_gamma	90.041410
loop_
_atom_site_label
_atom_site_type_symbol
_atom_site_fract_x
_atom_site_fract_y
_atom_site_fract_z
Zn1	Zn	0.799225	-0.208176	0.295656
Zn2	Zn	1.132558	0.125157	0.628989
Zn3	Zn	1.465892	0.458490	0.962322
Zn4	Zn	0.799149	-0.295595	0.208220
Zn5	Zn	1.132482	0.037738	0.541553
Zn6	Zn	1.465815	0.371071	0.874887
Zn7	Zn	0.711801	-0.208180	0.208229
Zn8	Zn	1.045135	0.125154	0.541563
Zn9	Zn	1.378468	0.458487	0.874896
Zn10	Zn	0.711746	-0.295587	0.295619
Zn11	Zn	1.045080	0.037747	0.628953
Zn12	Zn	1.378413	0.371080	0.962286
O13	O	0.755480	-0.251885	0.251931
O14	O	1.088814	0.081449	0.585264
O15	O	1.422147	0.414782	0.918598
O16	O	0.872380	-0.219775	0.284069
O17	O	1.205713	0.113559	0.617402
O18	O	1.539047	0.446892	0.950735
O19	O	0.787553	-0.284004	0.135056
O20	O	1.120886	0.049329	0.468389
O21	O	1.454219	0.382662	0.801723
O22	O	0.723453	-0.135014	0.219846
O23	O	1.056787	0.198319	0.553179
O24	O	1.390120	0.531653	0.886512
O25	O	0.872324	-0.284001	0.219830
O26	O	1.205657	0.049332	0.553163
O27	O	1.538991	0.382666	0.886497
O28	O	0.787683	-0.135012	0.284077
O29	O	1.121016	0.198322	0.617411
O30	O	1.454350	0.531655	0.950744
O31	O	0.723379	-0.219781	0.135063
O32	O	1.056712	0.113553	0.468396
O33	O	1.390046	0.446886	0.801729
O34	O	0.638629	-0.219772	0.219810
O35	O	0.971962	0.113561	0.553144
O36	O	1.305296	0.446894	0.886477
O37	O	0.723360	-0.283987	0.368789
O38	O	1.056693	0.049347	0.702123
O39	O	1.390026	0.382680	1.035456
O40	O	0.638589	-0.283990	0.284016
O41	O	0.971922	0.049343	0.617349
O42	O	1.305255	0.382677	0.950682
O43	O	0.787630	-0.219767	0.368816
O44	O	1.120963	0.113567	0.702149
O45	O	1.454297	0.446900	1.035483
O46	O	0.787499	-0.368759	0.219795
O47	O	1.120833	-0.035426	0.553128
O48	O	1.454166	0.297907	0.886461
O49	O	0.723286	-0.368753	0.284007
O50	O	1.056619	-0.035420	0.617340
O51	O	1.389952	0.297914	0.950673
C52	C	0.619638	-0.251881	0.251910
C53	C	0.952971	0.081452	0.585244
C54	C	1.286304	0.414786	0.918577
C55	C	0.561524	-0.251892	0.251914
C56	C	0.894857	0.081441	0.585247
C57	C	1.228190	0.414775	0.918581
C58	C	0.201184	-0.218495	0.285436
C59	C	0.534518	0.114839	0.618769
C60	C	0.867851	0.448172	0.952103
C61	C	0.146580	-0.218494	0.285439
C62	C	0.479913	0.114839	0.618772
C63	C	0.813247	0.448173	0.952106
O64	O	0.118363	-0.190088	0.313915
O65	O	0.451697	0.143245	0.647248
O66	O	0.785030	0.476578	0.980582
N67	N	0.119241	-0.251883	0.251945
N68	N	0.452575	0.081450	0.585279
N69	N	0.785908	0.414784	0.918612
C70	C	0.146510	-0.285271	0.218443
C71	C	0.479843	0.048062	0.551776
C72	C	0.813176	0.381396	0.885109
O73	O	0.118242	-0.313670	0.189954
O74	O	0.451575	0.019663	0.523287
O75	O	0.784909	0.352996	0.856620
C76	C	0.201113	-0.285268	0.218437
C77	C	0.534446	0.048065	0.551770
C78	C	0.867780	0.381398	0.885104
C79	C	0.228449	-0.251881	0.251937
C80	C	0.561782	0.081452	0.585270
C81	C	0.895116	0.414786	0.918603
C82	C	0.228520	-0.185109	0.318932
C83	C	0.561854	0.148224	0.652266
C84	C	0.895187	0.481557	0.985599
C85	C	0.283121	-0.185111	0.318930
C86	C	0.616454	0.148223	0.652263
C87	C	0.949788	0.481556	0.985596
C88	C	0.310385	-0.218497	0.285431
C89	C	0.643719	0.114836	0.618764
C90	C	0.977052	0.448170	0.952097
C91	C	0.283049	-0.251882	0.251934
C92	C	0.616383	0.081451	0.585267
C93	C	0.949716	0.414785	0.918601
C94	C	0.228380	-0.318653	0.184932
C95	C	0.561714	0.014680	0.518265
C96	C	0.895047	0.348014	0.851599
C97	C	0.282987	-0.318647	0.184929
C98	C	0.616321	0.014686	0.518263
C99	C	0.949654	0.348019	0.851596
C100	C	0.310323	-0.285260	0.218429
C101	C	0.643657	0.048073	0.551762
C102	C	0.976990	0.381407	0.885095
C103	C	0.364915	-0.285270	0.218432
C104	C	0.698248	0.048064	0.551766
C105	C	1.031581	0.381397	0.885099
N106	N	0.392253	-0.251881	0.251926
N107	N	0.725587	0.081453	0.585259
N108	N	1.058920	0.414786	0.918593
C109	C	0.364989	-0.218494	0.285425
C110	C	0.698322	0.114839	0.618758
C111	C	1.031655	0.448172	0.952092
C112	C	0.031839	-0.285273	0.218456
C113	C	0.365172	0.048060	0.551789
C114	C	0.698506	0.381394	0.885123
C115	C	-0.022763	-0.285279	0.218464
C116	C	0.310570	0.048055	0.551797
C117	C	0.643903	0.381388	0.885130
C118	C	-0.022689	-0.218501	0.285460
C119	C	0.310644	0.114832	0.618793
C120	C	0.643978	0.448166	0.952126
C121	C	0.031914	-0.218499	0.285454
C122	C	0.365248	0.114835	0.618788
C123	C	0.698581	0.448168	0.952121
C124	C	0.059178	-0.251884	0.251950
C125	C	0.392511	0.081449	0.585283
C126	C	0.725844	0.414783	0.918616
C127	C	0.479654	-0.218500	0.285417
C128	C	0.812987	0.114833	0.618751
C129	C	1.146321	0.448167	0.952084
C130	C	0.534259	-0.218506	0.285413
C131	C	0.867593	0.114828	0.618746
C132	C	1.200926	0.448161	0.952080
C133	C	0.534180	-0.285281	0.218415
C134	C	0.867514	0.048052	0.551749
C135	C	1.200847	0.381386	0.885082
C136	C	0.479580	-0.285278	0.218421
C137	C	0.812913	0.048056	0.551755
C138	C	1.146246	0.381389	0.885088
C139	C	0.452318	-0.251883	0.251924
C140	C	0.785651	0.081451	0.585257
C141	C	1.118984	0.414784	0.918591
O142	O	0.393166	-0.313659	0.189969
O143	O	0.726499	0.019674	0.523303
O144	O	1.059833	0.353007	0.856636
O145	O	0.393263	-0.190095	0.313904
O146	O	0.726597	0.143238	0.647238
O147	O	1.059930	0.476572	0.980571
C148	C	0.755392	-0.387727	0.251907
C149	C	1.088726	-0.054394	0.585241
C150	C	1.422059	0.278940	0.918574
C151	C	0.755403	-0.445841	0.251914
C152	C	1.088736	-0.112508	0.585248
C153	C	1.422069	0.220825	0.918581
C154	C	0.789004	-0.806195	0.218553
C155	C	1.122337	-0.472861	0.551886
C156	C	1.455670	-0.139528	0.885220
C157	C	0.789024	-0.860799	0.218560
C158	C	1.122357	-0.527466	0.551893
C159	C	1.455691	-0.194132	0.885227
O160	O	0.817502	-0.889028	0.190169
O161	O	1.150835	-0.555695	0.523502
O162	O	1.484168	-0.222361	0.856835
N163	N	0.755572	-0.888124	0.251966
N164	N	1.088906	-0.554790	0.585299
N165	N	1.422239	-0.221457	0.918632
C166	C	0.722102	-0.860841	0.285371
C167	C	1.055435	-0.527508	0.618704
C168	C	1.388768	-0.194174	0.952037
O169	O	0.693651	-0.889096	0.313786
O170	O	1.026984	-0.555763	0.647119
O171	O	1.360317	-0.222430	0.980452
C172	C	0.722085	-0.806238	0.285366
C173	C	1.055418	-0.472904	0.618699
C174	C	1.388751	-0.139571	0.952032
C175	C	0.755535	-0.778916	0.251954
C176	C	1.088868	-0.445583	0.585287
C177	C	1.422201	-0.112249	0.918621
C178	C	0.822452	-0.778873	0.185144
C179	C	1.155785	-0.445540	0.518478
C180	C	1.489118	-0.112206	0.851811
C181	C	0.822431	-0.724273	0.185137
C182	C	1.155764	-0.390939	0.518470
C183	C	1.489097	-0.057606	0.851803
C184	C	0.788962	-0.696994	0.218538
C185	C	1.122295	-0.363660	0.551871
C186	C	1.455628	-0.030327	0.885205
C187	C	0.755514	-0.724315	0.251946
C188	C	1.088847	-0.390982	0.585280
C189	C	1.422180	-0.057649	0.918613
C190	C	0.688617	-0.778956	0.318773
C191	C	1.021950	-0.445623	0.652106
C192	C	1.355284	-0.112289	0.985439
C193	C	0.688603	-0.724349	0.318765
C194	C	1.021936	-0.391016	0.652099
C195	C	1.355270	-0.057682	0.985432
C196	C	0.722053	-0.697027	0.285354
C197	C	1.055387	-0.363694	0.618687
C198	C	1.388720	-0.030361	0.952020
C199	C	0.722024	-0.642436	0.285340
C200	C	1.055357	-0.309103	0.618673
C201	C	1.388690	0.024231	0.952007
N202	N	0.755475	-0.615112	0.251934
N203	N	1.088809	-0.281778	0.585268
N204	N	1.422142	0.051555	0.918601
C205	C	0.788944	-0.642390	0.218533
C206	C	1.122278	-0.309057	0.551866
C207	C	1.455611	0.024276	0.885200
C208	C	0.722141	-0.975511	0.285379
C209	C	1.055474	-0.642178	0.618712
C210	C	1.388808	-0.308845	0.952045
C211	C	0.722155	-1.030114	0.285381
C212	C	1.055489	-0.696780	0.618714
C213	C	1.388822	-0.363447	0.952048
C214	C	0.789078	-1.030068	0.218571
C215	C	1.122412	-0.696735	0.551904
C216	C	1.455745	-0.363402	0.885238
C217	C	0.789061	-0.975465	0.218566
C218	C	1.122395	-0.642132	0.551900
C219	C	1.455728	-0.308798	0.885233
C220	C	0.755593	-0.948187	0.251973
C221	C	1.088926	-0.614854	0.585306
C222	C	1.422260	-0.281520	0.918639
C223	C	0.788897	-0.527725	0.218519
C224	C	1.122231	-0.194392	0.551853
C225	C	1.455564	0.138941	0.885186
C226	C	0.788872	-0.473120	0.218513
C227	C	1.122205	-0.139787	0.551847
C228	C	1.455538	0.193547	0.885180
C229	C	0.721951	-0.473170	0.285325
C230	C	1.055284	-0.139837	0.618658
C231	C	1.388617	0.193496	0.951992
C232	C	0.721974	-0.527771	0.285329
C233	C	1.055307	-0.194438	0.618663
C234	C	1.388641	0.138896	0.951996
C235	C	0.755452	-0.555047	0.251925
C236	C	1.088785	-0.221714	0.585258
C237	C	1.422118	0.111620	0.918592
O238	O	0.693562	-0.614173	0.313718
O239	O	1.026895	-0.280839	0.647052
O240	O	1.360229	0.052494	0.980385
O241	O	0.817396	-0.614128	0.190127
O242	O	1.150729	-0.280795	0.523461
O243	O	1.484062	0.052538	0.856794
C244	C	0.891853	-0.251888	0.251952
C245	C	1.225187	0.081445	0.585286
C246	C	1.558520	0.414778	0.918619
C247	C	0.949967	-0.251890	0.251961
C248	C	1.283301	0.081443	0.585295
C249	C	1.616634	0.414776	0.918628
C250	C	0.755497	-0.251875	0.388304
C251	C	1.088831	0.081458	0.721637
C252	C	1.422164	0.414791	1.054971
C253	C	0.755504	-0.251871	0.446418
C254	C	1.088838	0.081462	0.779752
C255	C	1.422171	0.414795	1.113085
C256	C	0.755583	-0.115512	0.251967
C257	C	1.088916	0.217822	0.585300
C258	C	1.422250	0.551155	0.918633
C259	C	0.755627	-0.057397	0.251982
C260	C	1.088960	0.275936	0.585315
C261	C	1.422293	0.609269	0.918648
C262	C	0.755494	-0.251856	0.116089
C263	C	1.088827	0.081477	0.449422
C264	C	1.422160	0.414811	0.782755
C265	C	0.755588	-0.251713	0.057975
C266	C	1.088921	0.081621	0.391308
C267	C	1.422254	0.414954	0.724642
C268	C	0.789012	-0.218333	0.806801
C269	C	1.122346	0.115001	1.140134
C270	C	1.455679	0.448334	1.473468
C271	C	0.789019	-0.218318	0.861405
C272	C	1.122352	0.115015	1.194739
C273	C	1.455685	0.448348	1.528072
O274	O	0.817466	-0.189864	0.889659
O275	O	1.150799	0.143469	1.222992
O276	O	1.484133	0.476803	1.556325
N277	N	0.755562	-0.251749	0.888701
N278	N	1.088895	0.081584	1.222034
N279	N	1.422229	0.414918	1.555368
C280	C	0.722093	-0.285192	0.861389
C281	C	1.055426	0.048141	1.194723
C282	C	1.388760	0.381474	1.528056
O283	O	0.693636	-0.313626	0.889620
O284	O	1.026969	0.019707	1.222954
O285	O	1.360302	0.353041	1.556287
C286	C	0.722084	-0.285204	0.806786
C287	C	1.055418	0.048130	1.140119
C288	C	1.388751	0.381463	1.473453
C289	C	0.755547	-0.251775	0.779493
C290	C	1.088880	0.081559	1.112827
C291	C	1.422214	0.414892	1.446160
C292	C	0.822472	-0.184906	0.779508
C293	C	1.155805	0.148427	1.112841
C294	C	1.489138	0.481761	1.446175
C295	C	0.822466	-0.184921	0.724908
C296	C	1.155799	0.148412	1.058241
C297	C	1.489133	0.481745	1.391574
C298	C	0.789001	-0.218363	0.697600
C299	C	1.122334	0.114970	1.030933
C300	C	1.455667	0.448303	1.364267
C301	C	0.755541	-0.251790	0.724893
C302	C	1.088874	0.081543	1.058226
C303	C	1.422208	0.414877	1.391559
C304	C	0.688613	-0.318644	0.779475
C305	C	1.021946	0.014689	1.112809
C306	C	1.355280	0.348022	1.446142
C307	C	0.688607	-0.318653	0.724868
C308	C	1.021940	0.014681	1.058202
C309	C	1.355273	0.348014	1.391535
C310	C	0.722069	-0.285223	0.697576
C311	C	1.055403	0.048110	1.030909
C312	C	1.388736	0.381443	1.364242
C313	C	0.722070	-0.285247	0.642984
C314	C	1.055403	0.048086	0.976318
C315	C	1.388736	0.381419	1.309651
N316	N	0.755526	-0.251817	0.615689
N317	N	1.088860	0.081517	0.949022
N318	N	1.422193	0.414850	1.282355
C319	C	0.788992	-0.218375	0.642996
C320	C	1.122325	0.114959	0.976330
C321	C	1.455658	0.448292	1.309663
C322	C	0.722113	-0.285165	0.976060
C323	C	1.055446	0.048168	1.309393
C324	C	1.388780	0.381501	1.642727
C325	C	0.722124	-0.285157	1.030662
C326	C	1.055457	0.048177	1.363996
C327	C	1.388791	0.381510	1.697329
C328	C	0.789049	-0.218282	1.030675
C329	C	1.122383	0.115051	1.364008
C330	C	1.455716	0.448385	1.697341
C331	C	0.789041	-0.218293	0.976071
C332	C	1.122374	0.115040	1.309405
C333	C	1.455707	0.448373	1.642738
C334	C	0.755570	-0.251735	0.948764
C335	C	1.088903	0.081599	1.282098
C336	C	1.422237	0.414932	1.615431
C337	C	0.788977	-0.218410	0.528331
C338	C	1.122311	0.114924	0.861665
C339	C	1.455644	0.448257	1.194998
C340	C	0.788970	-0.218429	0.473726
C341	C	1.122303	0.114904	0.807059
C342	C	1.455637	0.448237	1.140393
C343	C	0.722043	-0.285302	0.473719
C344	C	1.055376	0.048031	0.807052
C345	C	1.388710	0.381364	1.140385
C346	C	0.722052	-0.285285	0.528319
C347	C	1.055385	0.048049	0.861653
C348	C	1.388719	0.381382	1.194986
C349	C	0.755521	-0.251834	0.555624
C350	C	1.088854	0.081499	0.888958
C351	C	1.422188	0.414833	1.222291
O352	O	0.693635	-0.313686	0.614696
O353	O	1.026969	0.019648	0.948030
O354	O	1.360302	0.352981	1.281363
O355	O	0.817439	-0.189941	0.614759
O356	O	1.150773	0.143392	0.948092
O357	O	1.484106	0.476726	1.281425
H358	H	0.457322	-0.312470	0.191149
H359	H	0.790655	0.020863	0.524483
H360	H	1.123988	0.354196	0.857816
Br361	Br	0.676719	-0.330536	1.067696
Br362	Br	1.010052	0.002797	1.401029
Br363	Br	1.343385	0.336130	1.734362
Br364	Br	0.834499	-1.067100	0.173238
Br365	Br	1.167832	-0.733767	0.506572
Br366	Br	1.501166	-0.400433	0.839905
Br367	Br	0.834270	-0.436044	0.173165
Br368	Br	1.167604	-0.102711	0.506498
Br369	Br	1.500937	0.230623	0.839831
Br370	Br	0.676712	-0.938497	0.330717
Br371	Br	1.010045	-0.605164	0.664050
Br372	Br	1.343379	-0.271830	0.997384
H373	H	0.694912	-1.052354	0.312583
H374	H	1.028245	-0.719021	0.645917
H375	H	1.361579	-0.385688	0.979250
Br376	Br	0.676533	-0.436139	0.330655
Br377	Br	1.009866	-0.102805	0.663988
Br378	Br	1.343199	0.230528	0.997322
H379	H	0.816159	-0.549927	0.191319
H380	H	1.149492	-0.216594	0.524653
H381	H	1.482826	0.116739	0.857986
Br382	Br	0.643223	-0.816021	0.364126
Br383	Br	0.976556	-0.482688	0.697459
Br384	Br	1.309889	-0.149355	1.030793
Br385	Br	0.867879	-0.139548	0.687876
Br386	Br	1.201212	0.193786	1.021209
Br387	Br	1.534546	0.527119	1.354542
Br388	Br	0.643181	-0.687332	0.364108
Br389	Br	0.976514	-0.353999	0.697441
Br390	Br	1.309848	-0.020665	1.030774
H391	H	0.849724	-0.157671	0.801736
H392	H	1.183057	0.175663	1.135070
H393	H	1.516390	0.508996	1.468403
H394	H	0.849709	-0.801078	0.157945
H395	H	1.183042	-0.467744	0.491278
H396	H	1.516376	-0.134411	0.824612
H397	H	0.694738	-0.550017	0.312538
H398	H	1.028071	-0.216684	0.645871
H399	H	1.361405	0.116649	0.979204
H400	H	0.694857	-0.312400	0.953830
H401	H	1.028190	0.020933	1.287164
H402	H	1.361523	0.354267	1.620497
H403	H	0.816300	-0.953223	0.191360
H404	H	1.149633	-0.619890	0.524693
H405	H	1.482966	-0.286556	0.858027
H406	H	0.816221	-0.191207	0.451507
H407	H	1.149554	0.142126	0.784840
H408	H	1.482888	0.475460	1.118173
H409	H	0.054034	-0.312464	0.191174
H410	H	0.387367	0.020869	0.524507
H411	H	0.720700	0.354202	0.857841
H412	H	0.849670	-0.702031	0.157932
H413	H	1.183003	-0.368697	0.491265
H414	H	1.516337	-0.035364	0.824598
H415	H	0.816229	-0.191169	0.550557
H416	H	1.149562	0.142164	0.883890
H417	H	1.482896	0.475497	1.217223
Br418	Br	0.834456	-0.172924	0.939037
Br419	Br	1.167789	0.160409	1.272370
Br420	Br	1.501122	0.493743	1.605703
Br421	Br	0.191295	-0.363957	0.139455
Br422	Br	0.524629	-0.030624	0.472788
Br423	Br	0.857962	0.302710	0.806121
Br424	Br	0.834467	-0.172896	1.067746
Br425	Br	1.167801	0.160438	1.401079
Br426	Br	1.501134	0.493771	1.734412
H427	H	0.661364	-0.345866	0.801688
H428	H	0.994697	-0.012532	1.135021
H429	H	1.328031	0.320801	1.468355
Br430	Br	0.319985	-0.363959	0.139456
Br431	Br	0.653318	-0.030626	0.472790
Br432	Br	0.986651	0.302707	0.806123
Br433	Br	0.676627	-0.330685	0.436648
Br434	Br	1.009960	0.002648	0.769981
Br435	Br	1.343294	0.335982	1.103314
Br436	Br	0.069007	-0.173185	0.330919
Br437	Br	0.402341	0.160148	0.664253
Br438	Br	0.735674	0.493481	0.997586
H439	H	0.661345	-0.345880	0.702638
H440	H	0.994678	-0.012546	1.035971
H441	H	1.328011	0.320787	1.369305
H442	H	0.694809	-0.312510	0.550542
H443	H	1.028142	0.020823	0.883875
H444	H	1.361476	0.354157	1.217209
H445	H	0.556389	-0.312465	0.191142
H446	H	0.889722	0.020869	0.524476
H447	H	1.223056	0.354202	0.857809
H448	H	0.556514	-0.191317	0.312694
H449	H	0.889847	0.142016	0.646028
H450	H	1.223180	0.475350	0.979361
H451	H	-0.045016	-0.312472	0.191191
H452	H	0.288318	0.020861	0.524524
H453	H	0.621651	0.354195	0.857858
Br454	Br	0.191529	-0.139793	0.364402
Br455	Br	0.524862	0.193540	0.697735
Br456	Br	0.858195	0.526874	1.031068
H457	H	0.457464	-0.191305	0.312697
H458	H	0.790797	0.142028	0.646030
H459	H	1.124130	0.475362	0.979363
H460	H	-0.044898	-0.191315	0.312735
H461	H	0.288436	0.142019	0.646069
H462	H	0.621769	0.475352	0.979402
Br463	Br	0.320211	-0.139796	0.364395
Br464	Br	0.653545	0.193538	0.697728
Br465	Br	0.986878	0.526871	1.031061
