data_functionalizedCrystal
_audit_creation_method	'MofGen! by Chris Wilmer'
_symmetry_space_group_name_H-M	'P1'
_symmetry_Int_Tables_number	1
_symmetry_cell_setting	triclinic
loop_
_symmetry_equiv_pos_as_xyz
  x,y,z
_cell_length_a	21.395355
_cell_length_b	21.395362
_cell_length_c	21.395361
_cell_angle_alpha	90.046585
_cell_angle_beta	90.021511
_cell_angle_gamma	90.043940
loop_
_atom_site_label
_atom_site_type_symbol
_atom_site_fract_x
_atom_site_fract_y
_atom_site_fract_z
Zn1	Zn	-0.354573	-0.957859	0.249246
Zn2	Zn	-0.021239	-0.624526	0.582579
Zn3	Zn	0.312094	-0.291193	0.915912
Zn4	Zn	-0.249790	-0.957762	0.354005
Zn5	Zn	0.083544	-0.624429	0.687339
Zn6	Zn	0.416877	-0.291095	1.020672
Zn7	Zn	-0.249774	-0.853074	0.249275
Zn8	Zn	0.083559	-0.519741	0.582608
Zn9	Zn	0.416893	-0.186408	0.915941
Zn10	Zn	-0.354494	-0.853044	0.354018
Zn11	Zn	-0.021161	-0.519710	0.687352
Zn12	Zn	0.312172	-0.186377	1.020685
O13	O	-0.302158	-0.905435	0.301636
O14	O	0.031176	-0.572102	0.634969
O15	O	0.364509	-0.238768	0.968303
O16	O	-0.340712	-1.045524	0.263125
O17	O	-0.007379	-0.712191	0.596458
O18	O	0.325954	-0.378858	0.929791
O19	O	-0.162110	-0.943847	0.340119
O20	O	0.171224	-0.610514	0.673453
O21	O	0.504557	-0.277180	1.006786
O22	O	-0.263702	-0.867028	0.161593
O23	O	0.069632	-0.533695	0.494926
O24	O	0.402965	-0.200361	0.828260
O25	O	-0.263729	-1.045453	0.340091
O26	O	0.069605	-0.712119	0.673425
O27	O	0.402938	-0.378786	1.006758
O28	O	-0.340697	-0.944013	0.161572
O29	O	-0.007364	-0.610680	0.494905
O30	O	0.325970	-0.277347	0.828238
O31	O	-0.162098	-0.866934	0.263174
O32	O	0.171235	-0.533600	0.596508
O33	O	0.504569	-0.200267	0.929841
O34	O	-0.263626	-0.765392	0.263187
O35	O	0.069707	-0.432059	0.596520
O36	O	0.403041	-0.098726	0.929853
O37	O	-0.442183	-0.866976	0.340113
O38	O	-0.108849	-0.533642	0.673447
O39	O	0.224484	-0.200309	1.006780
O40	O	-0.340564	-0.765370	0.340141
O41	O	-0.007230	-0.432036	0.673475
O42	O	0.326103	-0.098703	1.006808
O43	O	-0.442240	-0.943983	0.263137
O44	O	-0.108907	-0.610650	0.596470
O45	O	0.224427	-0.277317	0.929804
O46	O	-0.263653	-0.943817	0.441685
O47	O	0.069681	-0.610484	0.775018
O48	O	0.403014	-0.277150	1.108352
O49	O	-0.340579	-0.866881	0.441695
O50	O	-0.007246	-0.533548	0.775028
O51	O	0.326088	-0.200214	1.108361
C52	C	-0.302085	-0.742647	0.301669
C53	C	0.031248	-0.409314	0.635002
C54	C	0.364582	-0.075981	0.968336
C55	C	-0.302069	-0.673006	0.301698
C56	C	0.031265	-0.339673	0.635032
C57	C	0.364598	-0.006339	0.968365
C58	C	-0.465581	-0.905487	0.301623
C59	C	-0.132248	-0.572154	0.634957
C60	C	0.201086	-0.238820	0.968290
C61	C	-0.535222	-0.905509	0.301618
C62	C	-0.201889	-0.572176	0.634951
C63	C	0.131444	-0.238842	0.968285
C64	C	-0.302123	-0.905352	0.464424
C65	C	0.031211	-0.572019	0.797757
C66	C	0.364544	-0.238685	1.131090
C67	C	-0.302129	-0.905374	0.534065
C68	C	0.031205	-0.572041	0.867398
C69	C	0.364538	-0.238707	1.200732
C70	C	-0.567966	-0.945605	0.261535
C71	C	-0.234633	-0.612272	0.594868
C72	C	0.098700	-0.278939	0.928201
C73	C	-0.633402	-0.945604	0.261508
C74	C	-0.300068	-0.612271	0.594841
C75	C	0.033265	-0.278938	0.928174
C76	C	-0.666091	-0.905514	0.301575
C77	C	-0.332757	-0.572181	0.634909
C78	C	0.000576	-0.238847	0.968242
C79	C	-0.633339	-0.865410	0.341661
C80	C	-0.300005	-0.532077	0.674994
C81	C	0.033328	-0.198743	1.008328
C82	C	-0.567904	-0.865407	0.341682
C83	C	-0.234571	-0.532074	0.675016
C84	C	0.098762	-0.198741	1.008349
C85	C	-0.769752	-0.900538	0.357992
C86	C	-0.436418	-0.567205	0.691325
C87	C	-0.103085	-0.233871	1.024659
C88	C	-0.835185	-0.900545	0.357972
C89	C	-0.501851	-0.567211	0.691305
C90	C	-0.168518	-0.233878	1.024638
C91	C	-0.867911	-0.905518	0.301509
C92	C	-0.534578	-0.572184	0.634842
C93	C	-0.201245	-0.238851	0.968176
C94	C	-0.835197	-0.910497	0.245065
C95	C	-0.501864	-0.577164	0.578398
C96	C	-0.168531	-0.243830	0.911732
C97	C	-0.769763	-0.910495	0.245086
C98	C	-0.436430	-0.577161	0.578420
C99	C	-0.103097	-0.243828	0.911753
C100	C	-0.737043	-0.905512	0.301556
C101	C	-0.403710	-0.572179	0.634890
C102	C	-0.070376	-0.238845	0.968223
C103	C	-0.971608	-0.945615	0.261393
C104	C	-0.638275	-0.612282	0.594727
C105	C	-0.304941	-0.278949	0.928060
C106	C	-1.037045	-0.945610	0.261365
C107	C	-0.703711	-0.612277	0.594699
C108	C	-0.370378	-0.278943	0.928032
C109	C	-1.036980	-0.865419	0.341524
C110	C	-0.703647	-0.532085	0.674858
C111	C	-0.370314	-0.198752	1.008191
C112	C	-0.971545	-0.865421	0.341547
C113	C	-0.638212	-0.532087	0.674880
C114	C	-0.304878	-0.198754	1.008213
C115	C	-0.938863	-0.905522	0.301482
C116	C	-0.605529	-0.572189	0.634815
C117	C	-0.272196	-0.238856	0.968149
C118	C	-0.139370	-0.905419	0.301603
C119	C	0.193963	-0.572086	0.634937
C120	C	0.527297	-0.238752	0.968270
C121	C	-0.069729	-0.905518	0.301432
C122	C	0.263604	-0.572185	0.634766
C123	C	0.596938	-0.238852	0.968099
C124	C	-0.302231	-1.068858	0.301603
C125	C	0.031102	-0.735525	0.634937
C126	C	0.364436	-0.402192	0.968270
C127	C	-0.302262	-1.138499	0.301589
C128	C	0.031071	-0.805166	0.634923
C129	C	0.364405	-0.471833	0.968256
C130	C	-0.342070	-0.640297	0.341822
C131	C	-0.008737	-0.306964	0.675155
C132	C	0.324597	0.026369	1.008488
C133	C	-0.342098	-0.574862	0.341806
C134	C	-0.008765	-0.241529	0.675140
C135	C	0.324569	0.091805	1.008473
C136	C	-0.302113	-0.542138	0.301674
C137	C	0.031220	-0.208804	0.635008
C138	C	0.364553	0.124529	0.968341
C139	C	-0.262109	-0.574854	0.261543
C140	C	0.071224	-0.241521	0.594876
C141	C	0.404558	0.091813	0.928210
C142	C	-0.262087	-0.640288	0.261555
C143	C	0.071247	-0.306955	0.594889
C144	C	0.404580	0.026378	0.928222
C145	C	-0.245708	-0.438413	0.296627
C146	C	0.087625	-0.105080	0.629960
C147	C	0.420958	0.228254	0.963293
C148	C	-0.245730	-0.372980	0.296619
C149	C	0.087604	-0.039647	0.629952
C150	C	0.420937	0.293687	0.963286
C151	C	-0.302182	-0.340317	0.301633
C152	C	0.031151	-0.006984	0.634967
C153	C	0.364484	0.326350	0.968300
C154	C	-0.358616	-0.373095	0.306668
C155	C	-0.025283	-0.039762	0.640002
C156	C	0.308051	0.293572	0.973335
C157	C	-0.358594	-0.438529	0.306681
C158	C	-0.025260	-0.105196	0.640014
C159	C	0.308073	0.228138	0.973347
C160	C	-0.302133	-0.471185	0.301656
C161	C	0.031200	-0.137852	0.634990
C162	C	0.364533	0.195481	0.968323
C163	C	-0.342218	-0.236656	0.341742
C164	C	-0.008884	0.096677	0.675076
C165	C	0.324449	0.430011	1.008409
C166	C	-0.342247	-0.171219	0.341723
C167	C	-0.008913	0.162114	0.675056
C168	C	0.324420	0.495447	1.008389
C169	C	-0.262252	-0.171213	0.261462
C170	C	0.071081	0.162121	0.594796
C171	C	0.404415	0.495454	0.928129
C172	C	-0.262229	-0.236648	0.261479
C173	C	0.071105	0.096685	0.594812
C174	C	0.404438	0.430019	0.928146
C175	C	-0.302211	-0.269366	0.301622
C176	C	0.031123	0.063968	0.634956
C177	C	0.364456	0.397301	0.968289
C178	C	-0.302206	-0.905535	0.138213
C179	C	0.031127	-0.572202	0.471546
C180	C	0.364460	-0.238868	0.804879
C181	C	-0.302227	-0.905578	0.068571
C182	C	0.031106	-0.572244	0.401905
C183	C	0.364440	-0.238911	0.735238
C184	C	-0.262114	-0.945470	0.566752
C185	C	0.071219	-0.612137	0.900086
C186	C	0.404552	-0.278804	1.233419
C187	C	-0.262128	-0.945499	0.632188
C188	C	0.071205	-0.612166	0.965521
C189	C	0.404538	-0.278833	1.298854
C190	C	-0.302150	-0.905421	0.664933
C191	C	0.031183	-0.572088	0.998267
C192	C	0.364516	-0.238755	1.331600
C193	C	-0.342172	-0.865322	0.632238
C194	C	-0.008839	-0.531989	0.965571
C195	C	0.324494	-0.198656	1.298905
C196	C	-0.342162	-0.865299	0.566804
C197	C	-0.008828	-0.531965	0.900137
C198	C	0.324505	-0.198632	1.233470
C199	C	-0.307041	-0.849006	0.768664
C200	C	0.026292	-0.515673	1.101997
C201	C	0.359626	-0.182340	1.435331
C202	C	-0.307047	-0.849029	0.834097
C203	C	0.026286	-0.515696	1.167430
C204	C	0.359619	-0.182362	1.500764
C205	C	-0.302187	-0.905494	0.866754
C206	C	0.031146	-0.572161	1.200087
C207	C	0.364480	-0.238828	1.533421
C208	C	-0.297307	-0.961939	0.833970
C209	C	0.036026	-0.628605	1.167303
C210	C	0.369360	-0.295272	1.500637
C211	C	-0.297296	-0.961915	0.768536
C212	C	0.036037	-0.628582	1.101869
C213	C	0.369370	-0.295248	1.435202
C214	C	-0.302167	-0.905443	0.735886
C215	C	0.031167	-0.572109	1.069219
C216	C	0.364500	-0.238776	1.402552
C217	C	-0.262186	-0.945625	0.970394
C218	C	0.071148	-0.612292	1.303727
C219	C	0.404481	-0.278959	1.637060
C220	C	-0.262204	-0.945655	1.035830
C221	C	0.071129	-0.612322	1.369164
C222	C	0.404463	-0.278989	1.702497
C223	C	-0.342245	-0.865473	1.035879
C224	C	-0.008912	-0.532139	1.369213
C225	C	0.324422	-0.198806	1.702546
C226	C	-0.342230	-0.865448	0.970444
C227	C	-0.008896	-0.532115	1.303777
C228	C	0.324437	-0.198782	1.637111
C229	C	-0.302197	-0.905524	0.937705
C230	C	0.031137	-0.572190	1.271039
C231	C	0.364470	-0.238857	1.604372
H232	H	-0.541360	-0.978258	0.228910
H233	H	-0.208027	-0.644925	0.562244
H234	H	0.125306	-0.311592	0.895577
C235	C	-0.218159	-0.989712	0.934378
C236	C	0.115174	-0.656379	1.267712
C237	C	0.448508	-0.323045	1.601045
H238	H	-0.194336	-1.013604	0.963220
H239	H	0.138997	-0.680271	1.296554
H240	H	0.472331	-0.346937	1.629887
H241	H	-0.190823	-0.965750	0.908896
H242	H	0.142510	-0.632417	1.242230
H243	H	0.475843	-0.299084	1.575563
H244	H	-0.242162	-1.016991	0.908807
H245	H	0.091171	-0.683658	1.242141
H246	H	0.424505	-0.350324	1.575474
H247	H	-0.229544	-0.978153	0.658807
H248	H	0.103789	-0.644819	0.992140
H249	H	0.437123	-0.311486	1.325474
C250	C	-0.386055	-0.676283	0.385970
C251	C	-0.052722	-0.342950	0.719304
C252	C	0.280611	-0.009617	1.052637
H253	H	-0.409887	-0.647428	0.409860
H254	H	-0.076554	-0.314094	0.743194
H255	H	0.256779	0.019239	1.076527
H256	H	-0.362032	-0.701758	0.413239
H257	H	-0.028699	-0.368425	0.746573
H258	H	0.304635	-0.035092	1.079906
H259	H	-0.413394	-0.701860	0.362042
H260	H	-0.080061	-0.368527	0.695376
H261	H	0.253273	-0.035193	1.028709
C262	C	-0.386201	-0.272651	0.385888
C263	C	-0.052868	0.060682	0.719221
C264	C	0.280465	0.394016	1.052554
H265	H	-0.380454	-0.316306	0.380154
H266	H	-0.047121	0.017027	0.713488
H267	H	0.286213	0.350360	1.046821
H268	H	-0.428319	-0.261984	0.376776
H269	H	-0.094986	0.071349	0.710109
H270	H	0.238348	0.404682	1.043442
H271	H	-0.376957	-0.261874	0.427973
H272	H	-0.043624	0.071459	0.761306
H273	H	0.289710	0.404793	1.094639
C274	C	-0.218180	-0.989755	1.071790
C275	C	0.115154	-0.656422	1.405123
C276	C	0.448487	-0.323088	1.738456
H277	H	-0.223921	-0.984033	1.115449
H278	H	0.109412	-0.650700	1.448783
H279	H	0.442745	-0.317367	1.782116
H280	H	-0.176072	-0.980591	1.061098
H281	H	0.157261	-0.647258	1.394431
H282	H	0.490595	-0.313925	1.727764
H283	H	-0.227393	-1.031850	1.061014
H284	H	0.105940	-0.698516	1.394347
H285	H	0.439274	-0.365183	1.727680
H286	H	-0.229513	-0.666919	0.228880
H287	H	0.103821	-0.333586	0.562213
H288	H	0.437154	-0.000252	0.895547
H289	H	-0.374824	-0.144589	0.374395
H290	H	-0.041491	0.188744	0.707728
H291	H	0.291842	0.522078	1.041061
C292	C	-0.312415	-0.786944	0.870153
C293	C	0.020918	-0.453611	1.203487
C294	C	0.354252	-0.120277	1.536820
H295	H	-0.315320	-0.753313	0.841334
H296	H	0.018014	-0.419980	1.174667
H297	H	0.351347	-0.086646	1.508001
H298	H	-0.276505	-0.781459	0.895705
H299	H	0.056828	-0.448125	1.229038
H300	H	0.390162	-0.114792	1.562371
H301	H	-0.348743	-0.787754	0.895659
H302	H	-0.015409	-0.454421	1.228992
H303	H	0.317924	-0.121087	1.562325
H304	H	-0.199734	-0.465002	0.292541
H305	H	0.133599	-0.131668	0.625874
H306	H	0.466932	0.201665	0.959208
C307	C	-0.183655	-0.336927	0.291125
C308	C	0.149679	-0.003594	0.624458
C309	C	0.483012	0.329739	0.957792
H310	H	-0.191750	-0.293279	0.291857
H311	H	0.141583	0.040054	0.625190
H312	H	0.474917	0.373387	0.958524
H313	H	-0.163661	-0.347649	0.252963
H314	H	0.169672	-0.014316	0.586297
H315	H	0.503006	0.319018	0.919630
H316	H	-0.157257	-0.347605	0.325189
H317	H	0.176076	-0.014272	0.658522
H318	H	0.509410	0.319061	0.991856
C319	C	-0.386138	-0.538875	0.385907
C320	C	-0.052804	-0.205542	0.719241
C321	C	0.280529	0.127792	1.052574
H322	H	-0.409955	-0.567732	0.409807
H323	H	-0.076622	-0.234399	0.743140
H324	H	0.256712	0.098934	1.076474
H325	H	-0.413478	-0.513422	0.361942
H326	H	-0.080144	-0.180088	0.695275
H327	H	0.253189	0.153245	1.028609
H328	H	-0.362156	-0.513277	0.413179
H329	H	-0.028822	-0.179944	0.746513
H330	H	0.304511	0.153389	1.079846
H331	H	-0.229519	-0.978103	0.540098
H332	H	0.103815	-0.644770	0.873432
H333	H	0.437148	-0.311437	1.206765
H334	H	-0.944885	-0.832774	0.374190
H335	H	-0.611551	-0.499440	0.707524
H336	H	-0.278218	-0.166107	1.040857
H337	H	-0.374760	-0.832691	0.658904
H338	H	-0.041426	-0.499358	0.992237
H339	H	0.291907	-0.166025	1.325570
C340	C	-0.420663	-0.474586	0.312216
C341	C	-0.087329	-0.141252	0.645550
C342	C	0.246004	0.192081	0.978883
H343	H	-0.412561	-0.518233	0.311510
H344	H	-0.079227	-0.184899	0.644843
H345	H	0.254106	0.148434	0.978177
H346	H	-0.447088	-0.463928	0.278171
H347	H	-0.113754	-0.130595	0.611505
H348	H	0.219579	0.202739	0.944838
H349	H	-0.440628	-0.463847	0.350392
H350	H	-0.107294	-0.130514	0.683725
H351	H	0.226039	0.202819	1.017059
C352	C	-0.386176	-0.821188	0.530846
C353	C	-0.052843	-0.487854	0.864180
C354	C	0.280491	-0.154521	1.197513
H355	H	-0.410013	-0.797320	0.559717
H356	H	-0.076679	-0.463986	0.893051
H357	H	0.256654	-0.130653	1.226384
H358	H	-0.413499	-0.845131	0.505274
H359	H	-0.080166	-0.511798	0.838608
H360	H	0.253167	-0.178464	1.171941
H361	H	-0.362164	-0.793887	0.505369
H362	H	-0.028831	-0.460554	0.838702
H363	H	0.304503	-0.127221	1.172036
C364	C	-0.420718	-0.337175	0.312182
C365	C	-0.087384	-0.003842	0.645515
C366	C	0.245949	0.329492	0.978849
H367	H	-0.412652	-0.293510	0.311446
H368	H	-0.079318	0.039823	0.644780
H369	H	0.254015	0.373156	0.978113
H370	H	-0.440679	-0.347880	0.350357
H371	H	-0.107346	-0.014547	0.683690
H372	H	0.225988	0.318787	1.017023
H373	H	-0.447130	-0.347965	0.278135
H374	H	-0.113797	-0.014632	0.611468
H375	H	0.219536	0.318701	0.944802
C376	C	-0.386271	-0.821388	1.071889
C377	C	-0.052938	-0.488055	1.405222
C378	C	0.280395	-0.154721	1.738555
H379	H	-0.410103	-0.797506	1.043046
H380	H	-0.076770	-0.464172	1.376380
H381	H	0.256563	-0.130839	1.709713
H382	H	-0.362276	-0.794110	1.097462
H383	H	-0.028943	-0.460777	1.430795
H384	H	0.304390	-0.127443	1.764129
H385	H	-0.413608	-0.845357	1.097368
H386	H	-0.080275	-0.512024	1.430702
H387	H	0.253058	-0.178691	1.764035
C388	C	-0.871164	-0.895066	0.420056
C389	C	-0.537831	-0.561732	0.753389
C390	C	-0.204497	-0.228399	1.086723
H391	H	-0.842303	-0.892091	0.453685
H392	H	-0.508970	-0.558758	0.787018
H393	H	-0.175636	-0.225424	1.120352
H394	H	-0.896716	-0.930970	0.425554
H395	H	-0.563383	-0.597636	0.758888
H396	H	-0.230050	-0.264303	1.092221
H397	H	-0.896662	-0.858744	0.419234
H398	H	-0.563329	-0.525411	0.752568
H399	H	-0.229996	-0.192077	1.085901
C400	C	-0.669291	-0.821311	0.385736
C401	C	-0.335957	-0.487978	0.719069
C402	C	-0.002624	-0.154644	1.052402
H403	H	-0.640415	-0.797426	0.409609
H404	H	-0.307082	-0.464093	0.742942
H405	H	0.026252	-0.130760	1.076275
H406	H	-0.694832	-0.845262	0.413023
H407	H	-0.361499	-0.511928	0.746356
H408	H	-0.028166	-0.178595	1.079690
H409	H	-0.694798	-0.794026	0.361761
H410	H	-0.361464	-0.460692	0.695094
H411	H	-0.028131	-0.127359	1.028427
C412	C	-0.386240	-0.821339	0.934483
C413	C	-0.052907	-0.488005	1.267817
C414	C	0.280426	-0.154672	1.601150
H415	H	-0.380506	-0.827068	0.890824
H416	H	-0.047172	-0.493735	1.224157
H417	H	0.286161	-0.160401	1.557490
H418	H	-0.377022	-0.779249	0.945261
H419	H	-0.043688	-0.445916	1.278594
H420	H	0.289645	-0.112582	1.611927
H421	H	-0.428353	-0.830497	0.945174
H422	H	-0.095020	-0.497163	1.278507
H423	H	0.238313	-0.163830	1.611840
C424	C	-1.072927	-0.821317	0.385597
C425	C	-0.739594	-0.487983	0.718930
C426	C	-0.406261	-0.154650	1.052263
H427	H	-1.044051	-0.797434	0.409471
H428	H	-0.710718	-0.464100	0.742804
H429	H	-0.377385	-0.130767	1.076138
H430	H	-1.098472	-0.845265	0.412883
H431	H	-0.765139	-0.511932	0.746216
H432	H	-0.431805	-0.178599	1.079550
H433	H	-1.098431	-0.794030	0.361620
H434	H	-0.765098	-0.460697	0.694954
H435	H	-0.431764	-0.127363	1.028287
C436	C	-0.312392	-0.786891	0.732748
C437	C	0.020941	-0.453558	1.066081
C438	C	0.354274	-0.120225	1.399414
H439	H	-0.315292	-0.753280	0.761642
H440	H	0.018041	-0.419946	1.094976
H441	H	0.351375	-0.086613	1.428309
H442	H	-0.348708	-0.787679	0.707202
H443	H	-0.015375	-0.454345	1.040535
H444	H	0.317959	-0.121012	1.373869
H445	H	-0.276470	-0.781392	0.707247
H446	H	0.056864	-0.448058	1.040580
H447	H	0.390197	-0.114725	1.373914
H448	H	-0.660067	-0.978254	0.228864
H449	H	-0.326734	-0.644921	0.562197
H450	H	0.006600	-0.311588	0.895531
C451	C	-0.218126	-0.538863	0.217397
C452	C	0.115207	-0.205530	0.550731
C453	C	0.448540	0.127804	0.884064
H454	H	-0.194302	-0.567718	0.193499
H455	H	0.139031	-0.234384	0.526832
H456	H	0.472365	0.098949	0.860165
H457	H	-0.190790	-0.513283	0.241318
H458	H	0.142543	-0.179950	0.574652
H459	H	0.475877	0.153384	0.907985
H460	H	-0.242158	-0.513392	0.190127
H461	H	0.091175	-0.180058	0.523461
H462	H	0.424508	0.153275	0.856794
C463	C	-0.733780	-0.915961	0.183003
C464	C	-0.400447	-0.582628	0.516336
C465	C	-0.067113	-0.249295	0.849670
H466	H	-0.762638	-0.918919	0.149370
H467	H	-0.429305	-0.585585	0.482703
H468	H	-0.095971	-0.252252	0.816037
H469	H	-0.708277	-0.952276	0.183815
H470	H	-0.374944	-0.618943	0.517149
H471	H	-0.041611	-0.285610	0.850482
H472	H	-0.708231	-0.880049	0.177517
H473	H	-0.374898	-0.546715	0.510851
H474	H	-0.041565	-0.213382	0.844184
C475	C	-0.531882	-0.821304	0.385777
C476	C	-0.198548	-0.487970	0.719111
C477	C	0.134785	-0.154637	1.052444
H478	H	-0.488230	-0.827043	0.380050
H479	H	-0.154897	-0.493709	0.713383
H480	H	0.178436	-0.160376	1.046716
H481	H	-0.542611	-0.830445	0.427870
H482	H	-0.209278	-0.497111	0.761203
H483	H	0.124056	-0.163778	1.094536
H484	H	-0.542572	-0.779209	0.376607
H485	H	-0.209239	-0.445876	0.709940
H486	H	0.124094	-0.112543	1.043273
C487	C	-0.871187	-0.916375	0.182990
C488	C	-0.537854	-0.583042	0.516323
C489	C	-0.204521	-0.249708	0.849656
H490	H	-0.914842	-0.915780	0.191069
H491	H	-0.581509	-0.582447	0.524402
H492	H	-0.248176	-0.249114	0.857736
H493	H	-0.860341	-0.954630	0.163226
H494	H	-0.527008	-0.621297	0.496559
H495	H	-0.193675	-0.287963	0.829893
H496	H	-0.860590	-0.882452	0.156393
H497	H	-0.527256	-0.549119	0.489727
H498	H	-0.193923	-0.215785	0.823060
H499	H	-0.743111	-0.896321	0.403959
H500	H	-0.409777	-0.562987	0.737292
H501	H	-0.076444	-0.229654	1.070626
H502	H	-0.293325	-1.007873	0.741844
H503	H	0.040009	-0.674540	1.075178
H504	H	0.373342	-0.341207	1.408511
H505	H	-1.063704	-0.978260	0.228721
H506	H	-0.730371	-0.644927	0.562054
H507	H	-0.397037	-0.311594	0.895388
C508	C	-0.935655	-0.989714	0.217315
C509	C	-0.602322	-0.656380	0.550648
C510	C	-0.268988	-0.323047	0.883981
H511	H	-0.964531	-1.013586	0.193430
H512	H	-0.631197	-0.680253	0.526763
H513	H	-0.297864	-0.346919	0.860096
H514	H	-0.910147	-1.017001	0.241280
H515	H	-0.576813	-0.683667	0.574613
H516	H	-0.243480	-0.350334	0.907947
H517	H	-0.910115	-0.965753	0.190029
H518	H	-0.576781	-0.632420	0.523362
H519	H	-0.243448	-0.299087	0.856696
H520	H	-0.229699	-0.144569	0.228783
H521	H	0.103635	0.188764	0.562116
H522	H	0.436968	0.522098	0.895450
H523	H	-0.229652	-0.263280	0.228809
H524	H	0.103681	0.070054	0.562143
H525	H	0.437015	0.403387	0.895476
H526	H	-0.293349	-1.007918	0.860558
H527	H	0.039984	-0.674585	1.193891
H528	H	0.373317	-0.341251	1.527224
