data_functionalizedCrystal
_audit_creation_method	'MofGen! by Chris Wilmer'
_symmetry_space_group_name_H-M	'P1'
_symmetry_Int_Tables_number	1
_symmetry_cell_setting	triclinic
loop_
_symmetry_equiv_pos_as_xyz
  x,y,z
_cell_length_a	9.065215
_cell_length_b	11.792240
_cell_length_c	7.540329
_cell_angle_alpha	89.987054
_cell_angle_beta	90.002426
_cell_angle_gamma	95.395943
loop_
_atom_site_label
_atom_site_type_symbol
_atom_site_fract_x
_atom_site_fract_y
_atom_site_fract_z
O1	O	1.958841	-0.166414	0.147505
O2	O	2.458841	0.333586	0.647505
O3	O	1.529428	-0.180069	0.147516
O4	O	2.029428	0.319931	0.647516
O5	O	1.754555	-0.008129	0.147456
O6	O	2.254555	0.491871	0.647456
O7	O	1.733714	-0.338354	0.147565
O8	O	2.233714	0.161646	0.647565
O9	O	1.754542	-0.008127	-0.147509
O10	O	2.254542	0.491873	0.352491
O11	O	1.529414	-0.180067	-0.147449
O12	O	2.029414	0.319933	0.352551
O13	O	1.958828	-0.166412	-0.147460
O14	O	2.458828	0.333588	0.352540
Cu15	Cu	1.744120	-0.173239	-0.174387
Cu16	Cu	2.244120	0.326761	0.325613
Cu17	Cu	1.744136	-0.173242	0.174443
Cu18	Cu	2.244136	0.326758	0.674443
O19	O	1.733700	-0.338352	-0.147401
O20	O	2.233700	0.161648	0.352599
C21	C	1.474447	-0.178756	0.000034
C22	C	1.974447	0.321244	0.500034
C23	C	1.310640	-0.174835	0.000036
C24	C	1.810640	0.325165	0.500036
C25	C	1.753239	0.034171	-0.000036
C26	C	2.253239	0.534171	0.499964
C27	C	1.749321	0.160206	-0.000066
C28	C	2.249321	0.660206	0.499934
C29	C	1.742116	0.390958	-0.000094
C30	C	2.242116	0.890958	0.499906
C31	C	1.746119	0.262551	-0.000078
C32	C	2.246119	0.762551	0.499922
C33	C	2.013809	-0.167725	0.000025
C34	C	2.513809	0.332275	0.500025
C35	C	2.177615	-0.171646	0.000035
C36	C	2.677615	0.328354	0.500035
N37	N	1.744119	-0.173237	-0.419736
N38	N	2.244119	0.326763	0.080264
C39	C	1.735016	0.619348	0.000033
C40	C	2.235016	1.119348	0.500033
C41	C	1.738935	0.493313	-0.000114
C42	C	2.238935	0.993313	0.499886
N43	N	1.744148	-0.173235	0.419792
N44	N	2.244148	0.326765	0.919792
