data_functionalizedCrystal
_audit_creation_method	'MofGen! by Chris Wilmer'
_symmetry_space_group_name_H-M	'P1'
_symmetry_Int_Tables_number	1
_symmetry_cell_setting	triclinic
loop_
_symmetry_equiv_pos_as_xyz
  x,y,z
_cell_length_a	6.817900
_cell_length_b	11.102233
_cell_length_c	10.773894
_cell_angle_alpha	95.424290
_cell_angle_beta	96.645922
_cell_angle_gamma	108.604738
loop_
_atom_site_label
_atom_site_type_symbol
_atom_site_fract_x
_atom_site_fract_y
_atom_site_fract_z
V1	V	-3.974357	-0.171169	-0.388948
O2	O	-3.936004	0.013031	-0.381540
O3	O	-3.952068	-0.344022	-0.386293
O4	O	-3.891313	-0.166428	-0.558580
O5	O	-3.997180	-0.165793	-0.208060
V6	V	-4.459090	-0.149386	-0.367312
O7	O	-4.232960	-0.218953	-0.436409
O8	O	-4.650684	-0.101602	-0.319851
O9	O	-4.258172	0.023467	-0.369968
O10	O	-4.614839	-0.333587	-0.374721
O11	O	-4.553664	-0.154763	-0.548201
O12	O	-4.318927	-0.154128	-0.197680
C13	C	-3.804542	-0.386226	-0.380158
C14	C	-3.867374	-0.527521	-0.379117
C15	C	-3.774111	-0.720269	-0.371411
C16	C	-3.715074	-0.587508	-0.372400
C17	C	-4.078728	-0.600305	-0.384859
C18	C	-4.137763	-0.733064	-0.383878
C19	C	-3.564157	-0.712879	-0.364213
C20	C	-3.505120	-0.580118	-0.365202
C21	C	-3.727042	-0.159685	-0.599926
C22	C	-3.740602	-0.156952	-0.738601
C23	C	-3.919392	-0.161689	-0.806464
C24	C	-3.933410	-0.158864	-0.949792
C25	C	-4.069042	0.065664	-0.376099
C26	C	-3.985447	0.206958	-0.377148
C27	C	-4.146542	-0.160875	-0.156328
C28	C	-4.112221	-0.163601	-0.017652
H29	H	-4.202731	-0.551455	-0.390339
C30	C	-3.678354	-0.256939	-0.996130
C31	C	-3.740749	-0.150563	-1.014580
H32	H	-3.559408	-0.251806	-1.036122
H33	H	-3.789632	-0.333401	-1.031443
H34	H	-3.643673	-0.257738	-0.908308
H35	H	-3.775445	-0.149769	-1.102403
H36	H	-3.629447	-0.074080	-0.979272
H37	H	-4.309851	-0.792314	-0.388567
C38	C	-3.595680	-0.750144	-0.589963
C39	C	-3.497603	-0.775097	-0.478523
H40	H	-3.554607	-0.788564	-0.660531
H41	H	-3.555611	-0.660073	-0.590626
H42	H	-3.743342	-0.784894	-0.594317
H43	H	-3.349940	-0.740338	-0.474165
H44	H	-3.537659	-0.865186	-0.477860
C45	C	-3.440790	-0.430557	-0.176715
C46	C	-3.354082	-0.510236	-0.243440
H47	H	-3.347542	-0.387409	-0.101552
H48	H	-3.570710	-0.480962	-0.155818
H49	H	-3.462887	-0.369246	-0.227518
H50	H	-3.331999	-0.571553	-0.192641
H51	H	-3.224123	-0.459827	-0.264334
C52	C	-3.557520	-0.695289	-0.139818
C53	C	-3.479674	-0.747435	-0.238636
H54	H	-3.505354	-0.716616	-0.062291
H55	H	-3.706174	-0.729272	-0.153892
H56	H	-3.513792	-0.604610	-0.136243
H57	H	-3.523415	-0.838116	-0.242217
H58	H	-3.330988	-0.713458	-0.224559
H59	H	-4.254928	-0.169753	-0.969649
H60	H	-4.062078	-0.167826	-0.758452
H61	H	-3.597907	-0.150797	-0.786610
H62	H	-3.437411	-0.549943	-0.453768
