data_functionalizedCrystal
_audit_creation_method	'MofGen! by Chris Wilmer'
_symmetry_space_group_name_H-M	'P1'
_symmetry_Int_Tables_number	1
_symmetry_cell_setting	triclinic
loop_
_symmetry_equiv_pos_as_xyz
  x,y,z
_cell_length_a	19.188930
_cell_length_b	16.109301
_cell_length_c	15.186229
_cell_angle_alpha	90.005167
_cell_angle_beta	90.017233
_cell_angle_gamma	83.303130
loop_
_atom_site_label
_atom_site_type_symbol
_atom_site_fract_x
_atom_site_fract_y
_atom_site_fract_z
O1	O	-0.926386	-0.103796	-0.073514
O2	O	-0.426386	0.396204	0.426486
O3	O	-0.723108	-0.117769	-0.073454
O4	O	-0.223108	0.382231	0.426546
O5	O	-0.830331	0.010267	-0.073477
O6	O	-0.330331	0.510267	0.426523
O7	O	-0.819163	-0.231832	-0.073492
O8	O	-0.319163	0.268168	0.426508
O9	O	-0.830324	0.010268	0.072980
O10	O	-0.330324	0.510268	0.572980
O11	O	-0.723101	-0.117767	0.073003
O12	O	-0.223101	0.382233	0.573003
O13	O	-0.926379	-0.103795	0.072943
O14	O	-0.426379	0.396205	0.572943
Zn15	Zn	-0.824739	-0.110781	0.096226
Zn16	Zn	-0.324739	0.389219	0.596226
Zn17	Zn	-0.824748	-0.110783	-0.096738
Zn18	Zn	-0.324748	0.389217	0.403262
O19	O	-0.819156	-0.231831	0.072965
O20	O	-0.319156	0.268169	0.572965
C21	C	-0.829875	0.041241	-0.000248
C22	C	-0.329875	0.541241	0.499752
C23	C	-0.828519	0.133532	-0.000246
C24	C	-0.328519	0.633532	0.499754
C25	C	-0.697092	-0.117316	-0.000218
C26	C	-0.197092	0.382684	0.499782
C27	C	-0.619584	-0.115958	-0.000195
C28	C	-0.119584	0.384042	0.499805
C29	C	-0.952395	-0.104248	-0.000296
C30	C	-0.452395	0.395752	0.499704
C31	C	-1.029903	-0.105606	-0.000325
C32	C	-0.529903	0.394394	0.499675
C33	C	-0.574836	-0.191085	-0.000213
C34	C	-0.074836	0.308915	0.499787
C35	C	-0.502009	-0.189809	-0.000223
C36	C	-0.002009	0.310191	0.499777
C37	C	-0.473934	-0.113401	-0.000232
C38	C	0.026066	0.386599	0.499768
C39	C	-0.518692	-0.038264	-0.000208
C40	C	-0.018692	0.461736	0.499792
C41	C	-0.591517	-0.039542	-0.000190
C42	C	-0.091517	0.460458	0.499810
N43	N	-0.365820	-0.054998	-0.050109
N44	N	0.134180	0.445002	0.449891
N45	N	-0.296638	-0.053788	-0.050129
N46	N	0.203362	0.446212	0.449871
C47	C	-0.254516	-0.109545	-0.000285
C48	C	0.245484	0.390455	0.499715
N49	N	-0.284188	-0.166569	0.049567
N50	N	0.215812	0.333431	0.549567
N51	N	-0.353375	-0.167781	0.049583
N52	N	0.146625	0.332219	0.549583
C53	C	-0.394968	-0.112007	-0.000251
C54	C	0.105032	0.387993	0.499749
C55	C	-0.130800	-0.183294	-0.000313
C56	C	0.369200	0.316706	0.499687
C57	C	-0.057973	-0.182015	-0.000317
C58	C	0.442027	0.317985	0.499683
C59	C	-0.074657	-0.030468	-0.000312
C60	C	0.425343	0.469532	0.499688
C61	C	-0.147483	-0.031749	-0.000299
C62	C	0.352517	0.468251	0.499701
C63	C	-0.175550	-0.108165	-0.000303
C64	C	0.324450	0.391835	0.499697
C65	C	-0.819612	-0.262805	-0.000266
C66	C	-0.319612	0.237195	0.499734
C67	C	-0.820968	-0.355096	-0.000273
C68	C	-0.320968	0.144904	0.499727
N69	N	-0.824737	-0.110779	0.227919
N70	N	-0.324737	0.389221	0.727919
C71	C	-0.888990	0.356005	-0.000278
C72	C	-0.388990	0.856005	0.499722
C73	C	-0.887710	0.442721	-0.000285
C74	C	-0.387710	0.942721	0.499715
C75	C	-0.760493	0.422425	-0.000244
C76	C	-0.260493	0.922425	0.499756
C77	C	-0.761773	0.335710	-0.000243
C78	C	-0.261773	0.835710	0.499757
C79	C	-0.826024	0.302503	-0.000256
C80	C	-0.326024	0.802503	0.499744
C81	C	-0.823463	0.475933	-0.000263
C82	C	-0.323463	0.975933	0.499737
C83	C	-0.822075	0.569955	-0.000271
C84	C	-0.322075	1.069955	0.499729
C85	C	-0.827412	0.208475	-0.000250
C86	C	-0.327412	0.708475	0.499750
N87	N	-0.824755	-0.110779	-0.228430
N88	N	-0.324755	0.389221	0.271570
C89	C	-0.872232	-0.054103	0.453632
C90	C	-0.372232	0.445897	0.953632
C91	C	-0.872234	-0.054101	0.545821
C92	C	-0.372234	0.445899	1.045821
C93	C	-0.777255	-0.167457	0.545850
C94	C	-0.277255	0.332543	1.045850
C95	C	-0.777250	-0.167454	0.453662
C96	C	-0.277250	0.332546	0.953662
C97	C	-0.824743	-0.110778	0.407555
C98	C	-0.324743	0.389222	0.907555
C99	C	-0.824750	-0.110779	0.591933
C100	C	-0.324750	0.389221	1.091933
C101	C	-0.824752	-0.110777	0.691889
C102	C	-0.324752	0.389223	1.191889
C103	C	-0.824740	-0.110779	0.307593
C104	C	-0.324740	0.389221	0.807593
H105	H	-0.597683	-0.253308	-0.000219
H106	H	-0.097683	0.246692	0.499781
H107	H	-0.910904	-0.007950	0.583334
H108	H	-0.410904	0.492050	1.083334
N109	N	-0.726031	-0.228586	0.403953
N110	N	-0.226031	0.271414	0.903953
H111	H	-0.695127	-0.196901	0.365725
H112	H	-0.195127	0.303099	0.865725
H113	H	-0.695996	-0.264482	0.447201
H114	H	-0.195996	0.235518	0.947201
H115	H	-0.738589	-0.213602	0.583400
H116	H	-0.238589	0.286398	1.083400
N117	N	-0.955622	0.500427	-0.000309
N118	N	-0.455622	1.000427	0.499691
H119	H	-0.996516	0.466229	-0.000317
H120	H	-0.496516	0.966229	0.499683
H121	H	-0.957859	0.536854	0.053982
H122	H	-0.457859	1.036854	0.553982
N123	N	-0.693855	0.278000	-0.000206
N124	N	-0.193855	0.778000	0.499794
H125	H	-0.704418	0.218028	-0.000209
H126	H	-0.204418	0.718028	0.499791
H127	H	-0.665852	0.288717	-0.054488
H128	H	-0.165852	0.788717	0.445512
N129	N	-0.639781	0.041496	-0.000178
N130	N	-0.139781	0.541496	0.499822
H131	H	-0.670387	0.044344	-0.054463
H132	H	-0.170387	0.544344	0.445537
H133	H	-0.670303	0.044297	0.054156
H134	H	-0.170303	0.544297	0.554156
N135	N	-0.691195	0.458239	-0.000214
N136	N	-0.191195	0.958239	0.499786
H137	H	-0.663609	0.438709	-0.054496
H138	H	-0.163609	0.938709	0.445504
H139	H	-0.699994	0.521285	-0.000180
H140	H	-0.199994	1.021285	0.499820
N141	N	-0.958285	0.320186	-0.000299
N142	N	-0.458285	0.820186	0.499701
H143	H	-0.961651	0.284669	0.053995
H144	H	-0.461651	0.784669	0.553995
H145	H	-0.997937	0.367287	-0.000348
H146	H	-0.497937	0.867287	0.499652
N147	N	-0.923452	0.007023	0.403900
N148	N	-0.423452	0.507023	0.903900
H149	H	-0.953536	0.042928	0.447081
H150	H	-0.453536	0.542928	0.947081
H151	H	-0.896731	0.043700	0.365667
H152	H	-0.396731	0.543700	0.865667
H153	H	-0.465568	-0.250988	-0.000235
H154	H	0.034432	0.249012	0.499765
H155	H	-0.153654	-0.245516	-0.000304
H156	H	0.346346	0.254484	0.499696
N157	N	-0.488410	0.044144	-0.000211
N158	N	0.011590	0.544144	0.499789
H159	H	-0.458589	0.048054	-0.054511
H160	H	0.041411	0.548054	0.445489
H161	H	-0.527848	0.091500	-0.000161
H162	H	-0.027848	0.591500	0.499839
N163	N	-0.009704	-0.263049	-0.000267
N164	N	0.490296	0.236951	0.499733
H165	H	-0.038538	-0.311648	-0.000248
H166	H	0.461462	0.188352	0.499752
H167	H	0.020881	-0.265857	-0.054545
H168	H	0.520881	0.234143	0.445455
H169	H	-0.183919	0.029428	-0.000288
H170	H	0.316081	0.529428	0.499712
N171	N	-0.044387	0.051946	-0.000311
N172	N	0.455613	0.551946	0.499689
H173	H	0.008538	0.041357	-0.000323
H174	H	0.508538	0.541357	0.499677
H175	H	-0.060779	0.084812	-0.054599
H176	H	0.439221	0.584812	0.445401
