data_functionalizedCrystal
_audit_creation_method	'MofGen! by Chris Wilmer'
_symmetry_space_group_name_H-M	'P1'
_symmetry_Int_Tables_number	1
_symmetry_cell_setting	triclinic
loop_
_symmetry_equiv_pos_as_xyz
  x,y,z
_cell_length_a	8.597213
_cell_length_b	27.732048
_cell_length_c	7.681481
_cell_angle_alpha	84.300807
_cell_angle_beta	88.167023
_cell_angle_gamma	83.996112
loop_
_atom_site_label
_atom_site_type_symbol
_atom_site_fract_x
_atom_site_fract_y
_atom_site_fract_z
O1	O	2.034264	0.086140	-0.455073
O2	O	1.584159	0.089573	-0.386792
O3	O	1.823194	0.017624	-0.423020
O4	O	1.795229	0.158090	-0.418845
O5	O	1.852616	0.008748	-0.134622
O6	O	1.613581	0.080697	-0.098394
O7	O	2.063686	0.077264	-0.166674
Zn8	Zn	1.843305	0.077571	-0.086744
Zn9	Zn	1.804540	0.089266	-0.466722
O10	O	1.824651	0.149213	-0.130446
C11	C	1.541304	0.084272	-0.233860
C12	C	1.369774	0.081694	-0.207837
C13	C	1.837319	-0.004828	-0.278727
C14	C	1.835553	-0.058504	-0.278445
C15	C	1.965671	-0.395781	-0.298274
C16	C	1.959111	-0.597517	-0.297303
O17	O	2.078095	-0.627366	-0.315430
N18	N	1.817376	-0.618314	-0.275800
C19	C	1.677269	-0.588673	-0.254550
O20	O	1.556561	-0.610990	-0.236256
C21	C	1.683828	-0.386937	-0.255533
C22	C	1.825575	-0.366144	-0.277020
C23	C	2.107406	-0.374987	-0.319761
C24	C	2.109045	-0.324556	-0.319994
C25	C	1.968949	-0.294919	-0.298740
C26	C	1.827214	-0.315713	-0.277253
C27	C	1.543722	-0.357297	-0.234296
C28	C	1.545374	-0.306860	-0.234548
C29	C	1.687120	-0.286066	-0.256034
C30	C	1.688758	-0.235645	-0.256232
N31	N	1.830494	-0.214848	-0.277735
C32	C	1.970589	-0.244485	-0.298989
C33	C	1.673835	-0.694587	-0.254032
C34	C	1.672195	-0.745021	-0.253783
C35	C	1.954038	-0.753862	-0.296540
C36	C	1.955678	-0.703427	-0.296776
C37	C	1.815571	-0.673790	-0.275535
C38	C	1.974021	-0.138577	-0.299475
C39	C	1.975649	-0.088141	-0.299699
C40	C	1.693806	-0.079305	-0.256951
C41	C	1.692178	-0.129736	-0.256718
C42	C	1.832298	-0.159371	-0.277988
O43	O	1.569836	-0.205767	-0.238134
O44	O	2.091275	-0.222158	-0.317318
C45	C	1.964031	-0.446211	-0.298041
C46	C	1.822296	-0.467005	-0.276554
C47	C	1.682201	-0.437368	-0.255300
C48	C	1.820656	-0.517439	-0.276305
C49	C	1.960752	-0.547076	-0.297559
C50	C	2.102488	-0.526279	-0.319062
C51	C	2.104127	-0.475848	-0.319295
C52	C	1.540465	-0.458165	-0.233797
C53	C	1.538837	-0.508596	-0.233564
C54	C	1.678933	-0.538233	-0.254818
C55	C	2.106541	0.082565	-0.319610
C56	C	2.278070	0.085143	-0.345644
C57	C	1.810526	0.171665	-0.274743
C58	C	1.812291	0.225342	-0.275037
N59	N	1.869772	0.069589	0.172579
N60	N	1.778086	0.097244	-0.726047
H61	H	2.091081	-0.071214	-0.317192
F62	F	1.521332	-0.767146	-0.230883
F63	F	1.655751	0.134140	0.194208
F64	F	2.123153	-0.170110	-0.322113
H65	H	2.224469	-0.307631	-0.337497
H66	H	2.221494	-0.399113	-0.337075
H67	H	1.317051	0.076771	-0.069944
H68	H	1.330783	0.090072	-0.483528
H69	H	2.071100	-0.686501	-0.314274
H70	H	2.068109	-0.778001	-0.313844
F71	F	1.992128	0.032696	0.252328
H72	H	1.559736	-0.670461	-0.236734
H73	H	1.428295	-0.374217	-0.216810
F74	F	1.396247	-0.275320	-0.211943
F75	F	1.544714	-0.047754	-0.234332
F76	F	1.541320	-0.151868	-0.233819
H77	H	2.219552	-0.458923	-0.336792
F78	F	2.251589	-0.557830	-0.341672
H79	H	1.423403	-0.525522	-0.216051
F80	F	1.391346	-0.426629	-0.211180
