data_functionalizedCrystal
_audit_creation_method	'MofGen! by Chris Wilmer'
_symmetry_space_group_name_H-M	'P1'
_symmetry_Int_Tables_number	1
_symmetry_cell_setting	triclinic
loop_
_symmetry_equiv_pos_as_xyz
  x,y,z
_cell_length_a	14.908178
_cell_length_b	19.121224
_cell_length_c	14.908694
_cell_angle_alpha	95.898058
_cell_angle_beta	90.159098
_cell_angle_gamma	84.402490
loop_
_atom_site_label
_atom_site_type_symbol
_atom_site_fract_x
_atom_site_fract_y
_atom_site_fract_z
Zn1	Zn	-0.331726	-1.083610	-0.550522
Zn2	Zn	-0.474137	-1.069961	-0.390690
Zn3	Zn	-0.329469	-0.959182	-0.392967
Zn4	Zn	-0.488476	-0.958378	-0.534536
O5	O	-0.405952	-1.017783	-0.467179
O6	O	-0.345560	-1.180571	-0.535056
O7	O	-0.448001	-1.049890	-0.264854
O8	O	-0.203624	-0.981736	-0.421510
O9	O	-0.450189	-1.170543	-0.417628
O10	O	-0.205282	-1.073153	-0.537265
O11	O	-0.341714	-0.968501	-0.266528
O12	O	-0.355619	-0.860303	-0.406010
O13	O	-0.474628	-0.980367	-0.662794
O14	O	-0.472440	-0.859713	-0.510020
O15	O	-0.359465	-1.072374	-0.674539
O16	O	-0.602183	-1.049111	-0.402128
O17	O	-0.612718	-0.967131	-0.507811
C18	C	-0.415341	-0.834398	-0.456528
C19	C	-0.419381	-0.755945	-0.451991
C20	C	-0.444957	-0.311970	-0.423293
C21	C	-0.441156	-0.385684	-0.427549
C22	C	-0.384881	-0.427765	-0.490904
C23	C	-0.332396	-0.396126	-0.550000
C24	C	-0.336193	-0.322413	-0.545740
C25	C	-0.370693	-0.650593	-0.506827
C26	C	-0.366902	-0.724311	-0.511085
C27	C	-0.475662	-0.713864	-0.388632
C28	C	-0.479457	-0.640150	-0.384381
C29	C	-0.426969	-0.608518	-0.443474
C30	C	-0.380997	-0.503113	-0.495257
C31	C	-0.430849	-0.533171	-0.439116
C32	C	-0.640159	-1.006573	-0.453009
C33	C	-0.740352	-1.001843	-0.446980
C34	C	-0.930212	-1.088085	-0.556308
C35	C	-1.024352	-1.083643	-0.550647
C36	C	-1.022774	-0.988515	-0.430003
C37	C	-0.928634	-0.992957	-0.435664
C38	C	-0.882356	-1.042744	-0.498817
C39	C	-0.788214	-1.047188	-0.504473
C40	C	-0.786639	-0.952058	-0.383834
C41	C	-0.880779	-0.947616	-0.378173
C42	C	-0.170831	-1.029057	-0.481425
C43	C	-0.070637	-1.033861	-0.487496
C44	C	-0.418898	-1.027803	-0.702287
C45	C	-0.424415	-1.032073	-0.802476
C46	C	-0.396519	-0.201884	-0.477861
C47	C	-0.392479	-0.280336	-0.482387
C48	C	-0.324108	-0.955330	-0.992485
C49	C	-0.329289	-0.959340	-1.086622
C50	C	-0.439961	-1.044099	-1.084887
C51	C	-0.434780	-1.040089	-0.990750
C52	C	-0.376851	-0.995704	-0.944553
C53	C	-0.371666	-0.991698	-0.850415
C54	C	-0.482342	-1.076453	-0.848682
C55	C	-0.487523	-1.080463	-0.942818
C56	C	-0.392990	-1.007845	-0.232991
C57	C	-0.387212	-1.003724	-0.132826
H58	H	-0.327958	-0.624848	-0.554950
N59	N	-0.323517	-0.546088	-0.559983
N60	N	-0.276665	-0.517840	-0.612749
H61	H	-0.236066	-0.548192	-0.658460
H62	H	-0.918472	-0.907080	-0.326758
H63	H	-0.286340	-0.926464	-1.125644
H64	H	-0.525286	-1.109330	-0.809646
H65	H	-0.750535	-1.087729	-0.555894
N66	N	-1.073222	-1.129960	-0.609383
N67	N	-1.031888	-1.174404	-0.665765
H68	H	-1.066401	-1.207117	-0.707251
H69	H	-0.490788	-0.277713	-0.371707
N70	N	-0.882939	-1.138928	-0.620827
N71	N	-0.834855	-1.118978	-0.679956
H72	H	-0.801471	-1.154886	-0.725527
N73	N	-0.274897	-0.439109	-0.614702
N74	N	-0.213546	-0.481634	-0.588937
H75	H	-0.172936	-0.511990	-0.634634
N76	N	-0.309396	-0.767289	-0.575794
N77	N	-0.226309	-0.762785	-0.574500
H78	H	-0.185696	-0.793138	-0.620197
N79	N	-0.282588	-0.290109	-0.606116
N80	N	-0.232353	-0.327686	-0.662685
H81	H	-0.194493	-0.304873	-0.705330
N82	N	-0.499136	-1.089420	-1.132098
N83	N	-0.503758	-1.092985	-1.216147
H84	H	-0.545553	-1.124992	-1.249492
N85	N	-1.070070	-0.937659	-0.365515
N86	N	-1.154124	-0.933698	-0.360480
H87	H	-1.187529	-0.897779	-0.314936
H88	H	-0.534690	-1.116597	-0.980445
N89	N	-0.529269	-0.746188	-0.328281
N90	N	-0.525876	-0.812003	-0.332091
H91	H	-0.563736	-0.834832	-0.289465
H92	H	-0.747663	-0.915140	-0.337019
H93	H	-0.324493	-0.955561	-0.812803
H94	H	-0.276932	-0.919197	-0.954871
H95	H	-0.525282	-0.605893	-0.332790
N96	N	-0.494767	-0.417985	-0.367178
N97	N	-0.545013	-0.380406	-0.310619
H98	H	-0.582879	-0.403218	-0.267978
H99	H	-0.476666	-0.498906	-0.387531
