data_functionalizedCrystal
_audit_creation_method	'MofGen! by Chris Wilmer'
_symmetry_space_group_name_H-M	'P1'
_symmetry_Int_Tables_number	1
_symmetry_cell_setting	triclinic
loop_
_symmetry_equiv_pos_as_xyz
  x,y,z
_cell_length_a	16.625545
_cell_length_b	16.625548
_cell_length_c	16.625539
_cell_angle_alpha	90.017055
_cell_angle_beta	89.973757
_cell_angle_gamma	89.973374
loop_
_atom_site_label
_atom_site_type_symbol
_atom_site_fract_x
_atom_site_fract_y
_atom_site_fract_z
Zn1	Zn	-0.320992	-1.232635	-0.455910
Zn2	Zn	-0.070992	-0.982635	-0.205910
Zn3	Zn	0.179008	-0.732635	0.044090
Zn4	Zn	0.429008	-0.482635	0.294090
Zn5	Zn	-0.455831	-1.232539	-0.321078
Zn6	Zn	-0.205831	-0.982539	-0.071078
Zn7	Zn	0.044169	-0.732539	0.178922
Zn8	Zn	0.294169	-0.482539	0.428922
Zn9	Zn	-0.321018	-1.097805	-0.321091
Zn10	Zn	-0.071018	-0.847805	-0.071091
Zn11	Zn	0.178982	-0.597805	0.178909
Zn12	Zn	0.428982	-0.347805	0.428909
Zn13	Zn	-0.455789	-1.097760	-0.455868
Zn14	Zn	-0.205789	-0.847760	-0.205868
Zn15	Zn	0.044211	-0.597760	0.044132
Zn16	Zn	0.294211	-0.347760	0.294132
O17	O	-0.388408	-1.165185	-0.388487
O18	O	-0.138408	-0.915185	-0.138487
O19	O	0.111592	-0.665185	0.111513
O20	O	0.361592	-0.415185	0.361513
O21	O	-0.338885	-1.345455	-0.438037
O22	O	-0.088885	-1.095455	-0.188037
O23	O	0.161115	-0.845455	0.061963
O24	O	0.411115	-0.595455	0.311963
O25	O	-0.437976	-1.214645	-0.208247
O26	O	-0.187976	-0.964645	0.041753
O27	O	0.062024	-0.714645	0.291753
O28	O	0.312024	-0.464645	0.541753
O29	O	-0.208182	-1.115750	-0.338998
O30	O	0.041818	-0.865750	-0.088998
O31	O	0.291818	-0.615750	0.161002
O32	O	0.541818	-0.365750	0.411002
O33	O	-0.437951	-1.345384	-0.338976
O34	O	-0.187951	-1.095384	-0.088976
O35	O	0.062049	-0.845384	0.161024
O36	O	0.312049	-0.595384	0.411024
O37	O	-0.208163	-1.214809	-0.438049
O38	O	0.041837	-0.964809	-0.188049
O39	O	0.291837	-0.714809	0.061951
O40	O	0.541837	-0.464809	0.311951
O41	O	-0.338930	-1.115657	-0.208257
O42	O	-0.088930	-0.865657	0.041743
O43	O	0.161070	-0.615657	0.291743
O44	O	0.411070	-0.365657	0.541743
O45	O	-0.338889	-0.984967	-0.338957
O46	O	-0.088889	-0.734967	-0.088957
O47	O	0.161111	-0.484967	0.161043
O48	O	0.411111	-0.234967	0.411043
O49	O	-0.437879	-1.115673	-0.568706
O50	O	-0.187879	-0.865673	-0.318706
O51	O	0.062121	-0.615673	-0.068706
O52	O	0.312121	-0.365673	0.181294
O53	O	-0.437905	-0.984934	-0.437977
O54	O	-0.187905	-0.734934	-0.187977
O55	O	0.062095	-0.484934	0.062023
O56	O	0.312095	-0.234934	0.312023
O57	O	-0.338845	-1.214765	-0.568737
O58	O	-0.088845	-0.964765	-0.318737
O59	O	0.161155	-0.714765	-0.068737
O60	O	0.411155	-0.464765	0.181263
O61	O	-0.568658	-1.214602	-0.338935
O62	O	-0.318658	-0.964602	-0.088935
O63	O	-0.068658	-0.714602	0.161065
O64	O	0.181342	-0.464602	0.411065
O65	O	-0.568627	-1.115580	-0.437965
O66	O	-0.318627	-0.865580	-0.187965
O67	O	-0.068627	-0.615580	0.062035
O68	O	0.181373	-0.365580	0.312035
C69	C	-0.388396	-0.955694	-0.388464
C70	C	-0.138396	-0.705694	-0.138464
C71	C	0.111604	-0.455694	0.111536
C72	C	0.361604	-0.205694	0.361536
C73	C	-0.388410	-0.866073	-0.388474
C74	C	-0.138410	-0.616073	-0.138474
C75	C	0.111590	-0.366073	0.111526
C76	C	0.361590	-0.116073	0.361526
C77	C	-0.388354	-1.165225	-0.598796
C78	C	-0.138354	-0.915225	-0.348796
C79	C	0.111646	-0.665225	-0.098796
C80	C	0.361646	-0.415225	0.151204
C81	C	-0.388332	-1.165241	-0.688417
C82	C	-0.138332	-0.915241	-0.438417
C83	C	0.111668	-0.665241	-0.188417
C84	C	0.361668	-0.415241	0.061583
C85	C	-0.597898	-1.165097	-0.388461
C86	C	-0.347898	-0.915097	-0.138461
C87	C	-0.097898	-0.665097	0.111539
C88	C	0.152102	-0.415097	0.361539
C89	C	-0.687520	-1.165134	-0.388478
C90	C	-0.437520	-0.915134	-0.138478
C91	C	-0.187520	-0.665134	0.111522
C92	C	0.062480	-0.415134	0.361522
C93	C	-0.760302	-1.165165	-0.388494
C94	C	-0.510302	-0.915165	-0.138494
C95	C	-0.260302	-0.665165	0.111506
C96	C	-0.010302	-0.415165	0.361506
C97	C	-0.851610	-1.165212	-0.388511
C98	C	-0.601610	-0.915212	-0.138511
C99	C	-0.351610	-0.665212	0.111489
C100	C	-0.101610	-0.415212	0.361489
C101	C	-0.924387	-1.165254	-0.388522
C102	C	-0.674387	-0.915254	-0.138522
C103	C	-0.424387	-0.665254	0.111478
C104	C	-0.174387	-0.415254	0.361478
C105	C	-1.015701	-1.165300	-0.388538
C106	C	-0.765701	-0.915300	-0.138538
C107	C	-0.515701	-0.665300	0.111462
C108	C	-0.265701	-0.415300	0.361462
C109	C	-0.178099	-1.165295	-0.388530
C110	C	0.071901	-0.915295	-0.138530
C111	C	0.321901	-0.665295	0.111470
C112	C	0.571901	-0.415295	0.361470
C113	C	-0.088477	-1.165342	-0.388548
C114	C	0.161523	-0.915342	-0.138548
C115	C	0.411523	-0.665342	0.111452
C116	C	0.661523	-0.415342	0.361452
C117	C	-0.388420	-1.375494	-0.388510
C118	C	-0.138420	-1.125494	-0.138510
C119	C	0.111580	-0.875494	0.111490
C120	C	0.361580	-0.625494	0.361490
C121	C	-0.388425	-1.465115	-0.388520
C122	C	-0.138425	-1.215115	-0.138520
C123	C	0.111575	-0.965115	0.111480
C124	C	0.361575	-0.715115	0.361480
C125	C	-0.388416	-0.537897	-0.388508
C126	C	-0.138416	-0.287897	-0.138508
C127	C	0.111584	-0.037897	0.111492
C128	C	0.361584	0.212103	0.361492
C129	C	-0.388412	-0.629206	-0.388496
C130	C	-0.138412	-0.379206	-0.138496
C131	C	0.111588	-0.129206	0.111504
C132	C	0.361588	0.120794	0.361504
C133	C	-0.388414	-0.701982	-0.388490
C134	C	-0.138414	-0.451982	-0.138490
C135	C	0.111586	-0.201982	0.111510
C136	C	0.361586	0.048018	0.361510
C137	C	-0.388409	-0.793297	-0.388480
C138	C	-0.138409	-0.543297	-0.138480
C139	C	0.111591	-0.293297	0.111520
C140	C	0.361591	-0.043297	0.361520
C141	C	-0.388314	-1.165255	-0.761200
C142	C	-0.138314	-0.915255	-0.511200
C143	C	0.111686	-0.665255	-0.261200
C144	C	0.361686	-0.415255	-0.011200
C145	C	-0.388284	-1.165273	-0.852508
C146	C	-0.138284	-0.915273	-0.602508
C147	C	0.111716	-0.665273	-0.352508
C148	C	0.361716	-0.415273	-0.102508
C149	C	-0.388255	-1.165292	-0.925285
C150	C	-0.138255	-0.915292	-0.675285
C151	C	0.111745	-0.665292	-0.425285
C152	C	0.361745	-0.415292	-0.175285
C153	C	-0.388226	-1.165312	-1.016599
C154	C	-0.138226	-0.915312	-0.766599
C155	C	0.111774	-0.665312	-0.516599
C156	C	0.361774	-0.415312	-0.266599
C157	C	-0.388402	-1.165192	-0.178996
C158	C	-0.138402	-0.915192	0.071004
C159	C	0.111598	-0.665192	0.321004
C160	C	0.361598	-0.415192	0.571004
C161	C	-0.388198	-1.165331	-0.089375
C162	C	-0.138198	-0.915331	0.160625
C163	C	0.111802	-0.665331	0.410625
C164	C	0.361802	-0.415331	0.660625
