data_functionalizedCrystal
_audit_creation_method	'MofGen! by Chris Wilmer'
_symmetry_space_group_name_H-M	'P1'
_symmetry_Int_Tables_number	1
_symmetry_cell_setting	triclinic
loop_
_symmetry_equiv_pos_as_xyz
  x,y,z
_cell_length_a	8.597213
_cell_length_b	7.088929
_cell_length_c	16.109301
_cell_angle_alpha	83.776684
_cell_angle_beta	95.597737
_cell_angle_gamma	91.336194
loop_
_atom_site_label
_atom_site_type_symbol
_atom_site_fract_x
_atom_site_fract_y
_atom_site_fract_z
O1	O	2.032358	0.493768	-0.150230
O2	O	1.582915	0.419740	-0.155831
O3	O	1.819985	0.458769	-0.032210
O4	O	1.795288	0.454740	-0.273851
O5	O	1.851667	0.146009	-0.015651
O6	O	1.614597	0.106981	-0.139272
O7	O	2.064040	0.181009	-0.133671
Cu8	Cu	1.842211	0.115437	-0.134959
Cu9	Cu	1.804744	0.485312	-0.154543
O10	O	1.826970	0.141980	-0.257292
C11	C	1.541245	0.253887	-0.146028
C12	C	1.369878	0.225661	-0.141477
N13	N	1.868575	-0.144710	-0.121185
C14	C	2.105710	0.346866	-0.143475
C15	C	2.277076	0.375105	-0.148026
C16	C	1.834826	0.302223	0.007061
C17	C	1.831827	0.301727	0.099408
N18	N	1.778392	0.745461	-0.168310
C19	C	1.812129	0.298530	-0.296564
C20	C	1.815126	0.299039	-0.388911
C21	C	1.965523	0.323778	0.319389
C22	C	1.962692	0.323327	0.406157
C23	C	1.681419	0.276991	0.391101
C24	C	1.684251	0.277456	0.304334
C25	C	1.826308	0.300840	0.268481
C26	C	1.820645	0.299925	0.442016
C27	C	1.817574	0.299436	0.536094
C28	C	1.829380	0.301333	0.174397
H29	H	1.318221	0.076117	-0.132391
H30	H	1.684927	-0.188279	-0.217146
H31	H	1.328724	0.524638	-0.157121
H32	H	1.962057	-0.210976	-0.072353
H33	H	1.570878	0.258781	0.262882
O34	O	2.103635	0.346621	0.284690
C35	C	2.225904	0.366730	0.348236
H36	H	2.176651	0.418810	0.404743
H37	H	2.315873	0.473881	0.323622
H38	H	2.284058	0.223764	0.367728
O39	O	2.097851	0.345933	0.455625
C40	C	2.088208	0.509012	0.497695
H41	H	1.997783	0.609217	0.461276
H42	H	2.207050	0.583867	0.502452
H43	H	2.051995	0.465824	0.563373
H44	H	1.565762	0.257949	0.420304
