data_functionalizedCrystal
_audit_creation_method	'MofGen! by Chris Wilmer'
_symmetry_space_group_name_H-M	'P1'
_symmetry_Int_Tables_number	1
_symmetry_cell_setting	triclinic
loop_
_symmetry_equiv_pos_as_xyz
  x,y,z
_cell_length_a	15.995350
_cell_length_b	14.853567
_cell_length_c	13.330367
_cell_angle_alpha	90.000844
_cell_angle_beta	90.003907
_cell_angle_gamma	83.563652
loop_
_atom_site_label
_atom_site_type_symbol
_atom_site_fract_x
_atom_site_fract_y
_atom_site_fract_z
O1	O	-1.111124	-0.116206	-0.083330
O2	O	-0.867366	-0.130556	-0.083350
O3	O	-0.995756	0.007858	-0.083342
O4	O	-0.982734	-0.254619	-0.083337
O5	O	-0.995738	0.007861	0.083505
O6	O	-0.867347	-0.130553	0.083498
O7	O	-1.111106	-0.116203	0.083517
Cu8	Cu	-0.989225	-0.123377	0.098742
Cu9	Cu	-0.989247	-0.123381	-0.098574
O10	O	-0.982715	-0.254616	0.083510
C11	C	-0.836161	-0.129961	0.000071
C12	C	-0.743209	-0.128182	0.000064
C13	C	-0.995157	0.041447	0.000078
C14	C	-0.993389	0.141528	0.000069
C15	C	-1.142311	-0.116798	0.000094
C16	C	-1.235263	-0.118576	0.000095
C17	C	-0.405454	-0.121795	0.000084
C18	C	-0.452773	-0.023220	0.000455
C19	C	-0.549465	-0.024999	0.000072
C20	C	-0.573018	-0.124963	0.000075
C21	C	-0.531998	-0.173586	-0.095198
C22	C	-0.435359	-0.171110	-0.095271
C23	C	-0.435002	-0.173143	0.094465
C24	C	-0.531947	-0.173119	0.095717
C25	C	-0.667717	-0.126759	0.000066
C26	C	-0.310754	-0.120002	0.000086
C27	C	-0.983315	-0.288206	0.000087
C28	C	-0.985083	-0.388287	0.000089
N29	N	-0.989215	-0.123374	0.237523
C30	C	-0.909648	0.553949	0.000082
C31	C	-1.062178	0.575436	0.000094
C32	C	-1.063841	0.481405	0.000088
C33	C	-0.988406	0.423641	0.000081
C34	C	-0.911308	0.459909	0.000079
C35	C	-1.140937	0.445129	0.000100
C36	C	-1.142603	0.351093	0.000096
C37	C	-1.067167	0.293327	0.000081
C38	C	-0.990066	0.329600	0.000078
C39	C	-0.914631	0.271837	0.000071
C40	C	-0.837529	0.308108	0.000061
C41	C	-0.835872	0.402144	0.000064
C42	C	-1.068824	0.199292	0.000077
C43	C	-0.916291	0.177796	0.000068
N44	N	-0.989263	-0.123377	-0.237356
C45	C	-0.932393	-0.184646	0.710143
C46	C	-1.046123	-0.062109	0.710117
C47	C	-1.046114	-0.062106	0.605099
C48	C	-0.989244	-0.123375	0.552598
C49	C	-0.932384	-0.184647	0.605115
C50	C	-1.102979	-0.000841	0.552574
C51	C	-1.102972	-0.000836	0.447549
C52	C	-1.046098	-0.062102	0.395046
C53	C	-0.989234	-0.123376	0.447570
C54	C	-0.932365	-0.184646	0.395068
C55	C	-0.875497	-0.245916	0.447590
C56	C	-0.875509	-0.245913	0.552612
C57	C	-1.046085	-0.062105	0.290025
C58	C	-0.932355	-0.184647	0.290040
H59	H	-0.434198	0.016185	0.068778
O60	O	-0.411055	-0.124129	-0.189597
H61	H	-0.468299	-0.103386	-0.234728
H62	H	-0.829210	-0.295798	0.595381
H63	H	-0.854861	0.130770	0.000057
H64	H	-0.433141	0.016001	-0.067494
H65	H	-0.773099	0.431685	0.000057
H66	H	-1.149285	0.049039	0.595324
H67	H	-0.776110	0.261065	0.000061
H68	H	-1.149276	0.049054	0.404793
O69	O	-0.407762	-0.130447	0.190129
H70	H	-0.372854	-0.072147	0.171468
O71	O	-0.871070	-0.250737	0.766788
H72	H	-0.831525	-0.293339	0.712633
H73	H	-0.403325	-0.245822	0.095112
O74	O	-0.814161	-0.311989	0.390945
H75	H	-0.824905	-0.382282	0.411083
O76	O	-1.107461	0.003972	0.766736
H77	H	-1.097912	-0.006318	0.848588
H78	H	-1.092390	-0.012223	0.247266
O79	O	-0.586329	0.025957	-0.090556
H80	H	-0.535081	0.051958	-0.134286
H81	H	-0.403195	-0.243482	-0.099593
H82	H	-0.577842	0.013221	0.068367
O83	O	-1.151972	0.160165	0.000081
H84	H	-1.204147	0.216130	0.000083
H85	H	-0.560341	-0.139817	-0.166105
O86	O	-0.550814	-0.270870	-0.099907
H87	H	-0.619924	-0.272818	-0.103257
O88	O	-0.568060	-0.126113	0.189088
H89	H	-0.615068	-0.068692	0.167479
H90	H	-0.547396	-0.246017	0.101474
H91	H	-0.846873	0.583486	0.000070
H92	H	-1.123594	0.622472	0.000108
H93	H	-1.202353	0.492167	0.000116
O94	O	-1.225757	0.311971	0.000083
H95	H	-1.277931	0.367937	0.000077
H96	H	-0.886041	-0.234537	0.247300
