data_functionalizedCrystal
_audit_creation_method	'MofGen! by Chris Wilmer'
_symmetry_space_group_name_H-M	'P1'
_symmetry_Int_Tables_number	1
_symmetry_cell_setting	triclinic
loop_
_symmetry_equiv_pos_as_xyz
  x,y,z
_cell_length_a	15.944551
_cell_length_b	15.944480
_cell_length_c	14.421503
_cell_angle_alpha	90.006710
_cell_angle_beta	90.003340
_cell_angle_gamma	96.515707
loop_
_atom_site_label
_atom_site_type_symbol
_atom_site_fract_x
_atom_site_fract_y
_atom_site_fract_z
O1	O	0.108038	-1.114566	-0.077094
O2	O	0.121456	-0.870009	-0.077100
O3	O	-0.007530	-0.998966	-0.077088
O4	O	0.237023	-0.985609	-0.077105
O5	O	-0.007511	-0.998944	0.077135
O6	O	0.121475	-0.869987	0.077123
O7	O	0.108057	-1.114545	0.077130
Cu8	Cu	0.114768	-0.992264	0.091208
Cu9	Cu	0.114745	-0.992289	-0.091179
O10	O	0.237042	-0.985588	0.077118
C11	C	0.120919	-0.838703	0.000011
C12	C	0.119280	-0.745454	0.000009
C13	C	0.195212	-0.509692	0.000001
C14	C	0.154282	-0.459123	0.076048
C15	C	0.116244	-0.574732	0.000009
C16	C	0.154245	-0.459149	-0.076004
C17	C	0.113317	-0.409821	0.000006
C18	C	0.075336	-0.525391	0.076119
C19	C	0.075310	-0.525420	-0.076002
C20	C	0.034323	-0.474883	0.000064
C21	C	0.117933	-0.669732	0.000012
C22	C	0.111622	-0.314823	0.000010
C23	C	-0.038814	-0.998401	0.000023
C24	C	-0.132060	-0.996738	0.000024
C25	C	-0.346895	-0.912831	0.000009
C26	C	-0.407913	-0.951784	0.076051
C27	C	-0.302785	-0.993731	0.000017
C28	C	-0.407915	-0.951824	-0.076001
C29	C	-0.467697	-0.990820	0.000006
C30	C	-0.362574	-1.032706	0.076122
C31	C	-0.362570	-1.032735	-0.075999
C32	C	-0.423570	-1.071747	0.000063
C33	C	-0.207783	-0.995405	0.000024
C34	C	-0.562697	-0.989152	0.000005
C35	C	0.268327	-0.986153	0.000004
C36	C	0.361572	-0.987815	-0.000003
C37	C	0.108605	-0.145849	0.000015
C38	C	0.110278	-0.239094	0.000006
N39	N	0.114783	-0.992252	0.219490
N40	N	0.114723	-0.992308	-0.219460
C41	C	0.174399	-0.932612	0.469138
C42	C	0.190687	-1.008515	0.530941
C43	C	0.114763	-0.992273	0.408651
C44	C	0.098495	-0.916390	0.530941
C45	C	0.114746	-0.992286	0.591372
C46	C	0.131089	-1.068214	0.469094
C47	C	0.038863	-0.976039	0.469088
C48	C	0.055119	-1.051996	0.530864
C49	C	0.114775	-0.992264	0.303390
C50	C	0.114733	-0.992303	0.696631
H51	H	0.263230	-0.525316	0.000068
H52	H	0.084743	-0.852212	0.558111
F53	F	-0.434174	-0.907050	0.160079
H54	H	0.187640	-0.430177	0.140334
F55	F	-0.054647	-0.454661	0.000127
H56	H	0.187602	-0.430219	-0.140287
H57	H	-0.456746	-1.138956	0.000107
F58	F	0.149162	-1.152120	0.433737
F59	F	0.240369	-0.866734	0.433708
H60	H	-0.342456	-1.066932	-0.140288
H61	H	-0.342584	-1.066886	0.140480
H62	H	0.042015	-0.554210	0.140475
H63	H	0.004676	-1.102510	0.557796
F64	F	-0.434174	-0.907093	-0.160023
H65	H	0.041978	-0.554375	-0.140291
H66	H	-0.313570	-0.845681	0.000083
F67	F	0.274573	-1.026479	0.566453
H68	H	-0.025295	-0.962272	0.441899
