data_functionalizedCrystal
_audit_creation_method	'MofGen! by Chris Wilmer'
_symmetry_space_group_name_H-M	'P1'
_symmetry_Int_Tables_number	1
_symmetry_cell_setting	triclinic
loop_
_symmetry_equiv_pos_as_xyz
  x,y,z
_cell_length_a	19.805407
_cell_length_b	19.805405
_cell_length_c	19.805399
_cell_angle_alpha	89.969291
_cell_angle_beta	89.983114
_cell_angle_gamma	90.026410
loop_
_atom_site_label
_atom_site_type_symbol
_atom_site_fract_x
_atom_site_fract_y
_atom_site_fract_z
Zn1	Zn	1.034718	-0.269469	-0.382712
Zn2	Zn	1.368051	0.063864	-0.049378
Zn3	Zn	1.701384	0.397197	0.283955
Zn4	Zn	1.034638	-0.382661	-0.269520
Zn5	Zn	1.367971	-0.049327	0.063813
Zn6	Zn	1.701305	0.284006	0.397147
Zn7	Zn	0.921538	-0.269491	-0.269536
Zn8	Zn	1.254871	0.063842	0.063797
Zn9	Zn	1.588204	0.397176	0.397131
Zn10	Zn	0.921496	-0.382622	-0.382667
Zn11	Zn	1.254829	-0.049289	-0.049333
Zn12	Zn	1.588163	0.284045	0.284000
O13	O	0.978097	-0.326061	-0.326109
O14	O	1.311431	0.007273	0.007225
O15	O	1.644764	0.340606	0.340558
O16	O	1.129424	-0.284492	-0.367708
O17	O	1.462757	0.048842	-0.034375
O18	O	1.796090	0.382175	0.298958
O19	O	1.019619	-0.367674	-0.174805
O20	O	1.352952	-0.034340	0.158528
O21	O	1.686286	0.298993	0.491861
O22	O	0.936602	-0.174771	-0.284575
O23	O	1.269935	0.158562	0.048759
O24	O	1.603269	0.491895	0.382092
O25	O	1.129365	-0.367653	-0.284547
O26	O	1.462698	-0.034319	0.048786
O27	O	1.796032	0.299014	0.382120
O28	O	1.019755	-0.174756	-0.367724
O29	O	1.353088	0.158578	-0.034391
O30	O	1.686422	0.491911	0.298942
O31	O	0.936525	-0.284528	-0.174817
O32	O	1.269858	0.048805	0.158516
O33	O	1.603191	0.382138	0.491849
O34	O	0.826816	-0.284491	-0.284531
O35	O	1.160149	0.048843	0.048802
O36	O	1.493482	0.382176	0.382136
O37	O	0.936531	-0.367587	-0.477389
O38	O	1.269864	-0.034253	-0.144056
O39	O	1.603198	0.299080	0.189277
O40	O	0.826785	-0.367608	-0.367648
O41	O	1.160118	-0.034274	-0.034314
O42	O	1.493452	0.299059	0.299019
O43	O	1.019715	-0.284454	-0.477422
O44	O	1.353048	0.048879	-0.144089
O45	O	1.686381	0.382212	0.189244
O46	O	1.019578	-0.477372	-0.284503
O47	O	1.352912	-0.144039	0.048830
O48	O	1.686245	0.189295	0.382163
O49	O	0.936454	-0.477344	-0.367632
O50	O	1.269787	-0.144010	-0.034299
O51	O	1.603120	0.189323	0.299035
C52	C	0.802241	-0.326048	-0.326087
C53	C	1.135575	0.007286	0.007247
C54	C	1.468908	0.340619	0.340580
C55	C	0.727009	-0.326059	-0.326093
C56	C	1.060343	0.007275	0.007240
C57	C	1.393676	0.340608	0.340573
C58	C	0.691667	-0.369403	-0.369302
C59	C	1.025000	-0.036069	-0.035969
C60	C	1.358334	0.297264	0.297365
C61	C	0.620978	-0.369404	-0.369312
C62	C	0.954312	-0.036070	-0.035978
C63	C	1.287645	0.297263	0.297355
C64	C	0.585634	-0.326064	-0.326109
C65	C	0.918967	0.007270	0.007225
C66	C	1.252300	0.340603	0.340558
C67	C	0.620981	-0.282715	-0.282898
C68	C	0.954314	0.050618	0.050435
C69	C	1.287648	0.383952	0.383769
C70	C	0.691668	-0.282711	-0.282892
C71	C	1.025002	0.050622	0.050441
C72	C	1.358335	0.383956	0.383774
C73	C	0.335908	-0.282730	-0.282920
C74	C	0.669241	0.050603	0.050413
C75	C	1.002574	0.383937	0.383746
C76	C	0.265216	-0.282739	-0.282928
C77	C	0.598549	0.050595	0.050406
C78	C	0.931882	0.383928	0.383739
C79	C	0.265218	-0.369423	-0.369340
C80	C	0.598551	-0.036090	-0.036006
C81	C	0.931885	0.297244	0.297327
C82	C	0.335905	-0.369419	-0.369334
C83	C	0.669238	-0.036085	-0.036001
C84	C	1.002572	0.297248	0.297333
C85	C	0.371246	-0.326068	-0.326126
C86	C	0.704580	0.007266	0.007207
C87	C	1.037913	0.340599	0.340540
C88	C	0.447895	-0.326066	-0.326117
C89	C	0.781228	0.007267	0.007216
C90	C	1.114561	0.340601	0.340549
C91	C	0.508987	-0.326068	-0.326114
C92	C	0.842320	0.007265	0.007220
C93	C	1.175653	0.340598	0.340553
C94	C	0.978021	-0.501917	-0.326076
C95	C	1.311354	-0.168583	0.007258
C96	C	1.644688	0.164750	0.340591
C97	C	0.978050	-0.577149	-0.326084
C98	C	1.311384	-0.243815	0.007249
C99	C	1.644717	0.089518	0.340582
C100	C	1.021376	-0.612485	-0.282845
C101	C	1.354709	-0.279152	0.050489
C102	C	1.688042	0.054181	0.383822
C103	C	1.021404	-0.683174	-0.282860
C104	C	1.354738	-0.349840	0.050474
C105	C	1.688071	-0.016507	0.383807
C106	C	0.978104	-0.718524	-0.326111
C107	C	1.311437	-0.385191	0.007222
C108	C	1.644771	-0.051858	0.340555
C109	C	0.934777	-0.683183	-0.369356
C110	C	1.268110	-0.349850	-0.036023
C111	C	1.601444	-0.016516	0.297311
C112	C	0.934752	-0.612496	-0.369344
C113	C	1.268085	-0.279162	-0.036010
C114	C	1.601419	0.054171	0.297323
C115	C	0.934877	-0.968256	-0.369406
C116	C	1.268210	-0.634923	-0.036073
C117	C	1.601543	-0.301589	0.297261
C118	C	0.934904	-1.038948	-0.369413
C119	C	1.268237	-0.705615	-0.036080
C120	C	1.601570	-0.372282	0.297253
C121	C	1.021529	-1.038934	-0.282922
C122	C	1.354862	-0.705601	0.050411
C123	C	1.688196	-0.372267	0.383745
C124	C	1.021504	-0.968247	-0.282910
C125	C	1.354838	-0.634914	0.050423
C126	C	1.688171	-0.301580	0.383757
C127	C	0.978180	-0.932912	-0.326157
C128	C	1.311513	-0.599578	0.007177
C129	C	1.644847	-0.266245	0.340510
C130	C	0.978150	-0.856263	-0.326141
C131	C	1.311484	-0.522930	0.007193
C132	C	1.644817	-0.189597	0.340526
C133	C	0.978130	-0.795171	-0.326124
C134	C	1.311463	-0.461838	0.007209
C135	C	1.644797	-0.128505	0.340542
C136	C	1.154640	-0.326074	-0.326131
C137	C	1.487973	0.007259	0.007202
C138	C	1.821307	0.340592	0.340536
C139	C	1.229872	-0.326080	-0.326140
C140	C	1.563205	0.007253	0.007193
C141	C	1.896539	0.340587	0.340526
C142	C	0.978127	-0.326014	-0.502651
C143	C	1.311460	0.007320	-0.169318
C144	C	1.644794	0.340653	0.164015
C145	C	0.978140	-0.325994	-0.577883
C146	C	1.311473	0.007340	-0.244550
C147	C	1.644806	0.340673	0.088783
C148	C	0.978192	-0.149518	-0.326156
C149	C	1.311526	0.183815	0.007177
C150	C	1.644859	0.517149	0.340510
C151	C	0.978233	-0.074286	-0.326177
C152	C	1.311566	0.259047	0.007157
C153	C	1.644899	0.592381	0.340490
C154	C	0.934885	-0.282696	-0.613233
C155	C	1.268218	0.050637	-0.279900
C156	C	1.601551	0.383971	0.053433
C157	C	0.934894	-0.282683	-0.683922
C158	C	1.268227	0.050651	-0.350588
C159	C	1.601561	0.383984	-0.017255
C160	C	0.978162	-0.325964	-0.719259
C161	C	1.311496	0.007369	-0.385926
C162	C	1.644829	0.340702	-0.052592
C163	C	1.021419	-0.369267	-0.683904
C164	C	1.354752	-0.035934	-0.350571
C165	C	1.688086	0.297400	-0.017238
C166	C	1.021406	-0.369283	-0.613217
C167	C	1.354739	-0.035950	-0.279884
C168	C	1.688072	0.297383	0.053450
C169	C	1.021473	-0.369204	-0.968978
C170	C	1.354806	-0.035870	-0.635644
C171	C	1.688139	0.297463	-0.302311
C172	C	1.021484	-0.369183	-1.039670
C173	C	1.354817	-0.035850	-0.706337
C174	C	1.688151	0.297484	-0.373003
C175	C	0.934961	-0.282603	-1.039682
C176	C	1.268294	0.050730	-0.706349
C177	C	1.601628	0.384063	-0.373016
C178	C	0.934948	-0.282619	-0.968995
C179	C	1.268281	0.050714	-0.635662
C180	C	1.601614	0.384047	-0.302329
C181	C	0.978202	-0.325924	-0.933647
C182	C	1.311535	0.007409	-0.600313
C183	C	1.644868	0.340742	-0.266980
C184	C	0.978190	-0.325939	-0.856998
C185	C	1.311524	0.007394	-0.523665
C186	C	1.644857	0.340728	-0.190331
C187	C	0.978178	-0.325947	-0.795906
C188	C	1.311511	0.007386	-0.462573
C189	C	1.644844	0.340720	-0.129240
C190	C	0.978107	-0.326059	-0.150253
C191	C	1.311440	0.007275	0.183081
C192	C	1.644773	0.340608	0.516414
C193	C	0.978225	-0.325888	-0.075021
C194	C	1.311559	0.007445	0.258312
C195	C	1.644892	0.340779	0.591646
H196	H	0.720443	-0.247412	-0.247711
H197	H	1.053776	0.085921	0.085622
H198	H	1.387110	0.419255	0.418956
Cl199	Cl	0.880286	-0.568072	-0.423707
Cl200	Cl	1.213619	-0.234739	-0.090374
Cl201	Cl	1.546953	0.098594	0.242960
H202	H	1.056684	-0.711942	-0.247649
H203	H	1.390017	-0.378608	0.085684
H204	H	1.723350	-0.045275	0.419017
H205	H	0.592206	-0.404700	-0.404496
H206	H	0.925539	-0.071366	-0.071163
H207	H	1.258872	0.261967	0.262171
H208	H	0.364679	-0.404713	-0.404512
H209	H	0.698013	-0.071380	-0.071179
H210	H	1.031346	0.261954	0.262155
H211	H	1.056808	-1.067713	-0.247711
H212	H	1.390142	-0.734379	0.085622
H213	H	1.723475	-0.401046	0.418956
H214	H	0.592198	-0.247424	-0.247724
H215	H	0.925531	0.085909	0.085609
H216	H	1.258864	0.419243	0.418942
Cl217	Cl	1.075809	-0.423683	-0.728328
Cl218	Cl	1.409143	-0.090350	-0.394995
Cl219	Cl	1.742476	0.242984	-0.061662
H220	H	0.720439	-0.404697	-0.404481
H221	H	1.053773	-0.071364	-0.071148
H222	H	1.387106	0.261969	0.262186
H223	H	0.899740	-0.247344	-1.068472
H224	H	1.233073	0.085989	-0.735138
H225	H	1.566406	0.419322	-0.401805
Cl226	Cl	0.880411	-0.923844	-0.423772
Cl227	Cl	1.213744	-0.590510	-0.090439
Cl228	Cl	1.547077	-0.257177	0.242895
H229	H	0.364674	-0.247436	-0.247733
H230	H	0.698007	0.085897	0.085601
H231	H	1.031341	0.419231	0.418934
H232	H	0.236435	-0.404719	-0.404524
H233	H	0.569768	-0.071386	-0.071191
H234	H	0.903101	0.261948	0.262143
H235	H	1.056633	-0.583707	-0.247621
H236	H	1.389966	-0.250374	0.085712
H237	H	1.723299	0.082959	0.419045
Cl238	Cl	1.075783	-0.423720	-0.568777
Cl239	Cl	1.409116	-0.090387	-0.235444
Cl240	Cl	1.742449	0.242947	0.097890
H241	H	0.236440	-0.247442	-0.247747
H242	H	0.569773	0.085891	0.085587
H243	H	0.903107	0.419225	0.418920
Cl244	Cl	1.075941	-0.923810	-0.228535
Cl245	Cl	1.409275	-0.590477	0.104799
Cl246	Cl	1.742608	-0.257143	0.438132
Cl247	Cl	0.880466	-1.083388	-0.423793
Cl248	Cl	1.213799	-0.750055	-0.090459
Cl249	Cl	1.547133	-0.416722	0.242874
H250	H	0.899655	-0.247447	-0.584467
H251	H	1.232988	0.085886	-0.251133
H252	H	1.566321	0.419220	0.082200
Cl253	Cl	0.880346	-0.727624	-0.423734
Cl254	Cl	1.213679	-0.394290	-0.090400
Cl255	Cl	1.547012	-0.060957	0.242933
Cl256	Cl	0.880482	-0.228280	-0.728359
Cl257	Cl	1.213816	0.105053	-0.395025
Cl258	Cl	1.547149	0.438387	-0.061692
H259	H	0.899717	-0.247373	-0.940227
H260	H	1.233050	0.085961	-0.606894
H261	H	1.566384	0.419294	-0.273560
Cl262	Cl	1.075881	-0.423600	-1.084093
Cl263	Cl	1.409215	-0.090267	-0.750760
Cl264	Cl	1.742548	0.243067	-0.417426
Cl265	Cl	1.075854	-0.423639	-0.924549
Cl266	Cl	1.409188	-0.090306	-0.591215
Cl267	Cl	1.742521	0.243027	-0.257882
