data_functionalizedCrystal
_audit_creation_method	'MofGen! by Chris Wilmer'
_symmetry_space_group_name_H-M	'P1'
_symmetry_Int_Tables_number	1
_symmetry_cell_setting	triclinic
loop_
_symmetry_equiv_pos_as_xyz
  x,y,z
_cell_length_a	19.121102
_cell_length_b	11.169416
_cell_length_c	19.121277
_cell_angle_alpha	92.434722
_cell_angle_beta	89.900604
_cell_angle_gamma	92.435079
loop_
_atom_site_label
_atom_site_type_symbol
_atom_site_fract_x
_atom_site_fract_y
_atom_site_fract_z
Zn1	Zn	1.054850	0.587282	0.442096
Zn2	Zn	1.059820	0.779751	0.324873
Zn3	Zn	0.942640	0.570158	0.319880
Zn4	Zn	0.937611	0.778993	0.437074
O5	O	0.998730	0.679046	0.380981
O6	O	1.153615	0.620297	0.430737
O7	O	1.048460	0.745099	0.226106
O8	O	0.957549	0.404483	0.336104
O9	O	1.157267	0.761703	0.344614
O10	O	1.039990	0.417064	0.425896
O11	O	0.962368	0.591112	0.222438
O12	O	0.843867	0.590377	0.331235
O13	O	0.948978	0.760412	0.535845
O14	O	0.840172	0.743807	0.417337
O15	O	1.035114	0.619563	0.539534
O16	O	1.043584	0.947598	0.339744
O17	O	0.953797	0.947041	0.422178
C18	C	0.816582	0.665153	0.373199
C19	C	0.738657	0.659239	0.369887
C20	C	0.998703	0.990869	0.380974
C21	C	0.998754	1.124274	0.380998
C22	C	0.990931	0.691813	0.563838
C23	C	0.987607	0.697253	0.641761
C24	C	0.700146	0.736454	0.413089
C25	C	0.626927	0.730882	0.409980
C26	C	0.592221	0.648100	0.363665
C27	C	0.630738	0.570876	0.320461
C28	C	0.703955	0.576443	0.323574
C29	C	0.371248	0.627283	0.352031
C30	C	0.298025	0.621724	0.348920
C31	C	0.294220	0.781729	0.438440
C32	C	0.367438	0.787294	0.441546
C33	C	0.405949	0.710066	0.398344
C34	C	0.517380	0.642405	0.360485
C35	C	0.480788	0.715756	0.401529
C36	C	1.181590	0.692995	0.388793
C37	C	1.259514	0.698939	0.392122
C38	C	0.998776	0.366009	0.381003
C39	C	0.998796	0.232611	0.381013
C40	C	1.030890	0.626480	0.680292
C41	C	1.027758	0.631586	0.753508
C42	C	0.981348	0.707473	0.788193
C43	C	0.938060	0.778249	0.749657
C44	C	0.941189	0.773136	0.676442
C45	C	0.969655	0.726576	1.009160
C46	C	0.966531	0.731687	1.082381
C47	C	1.056229	0.585021	1.086226
C48	C	1.059356	0.579920	1.013009
C49	C	1.016066	0.650691	0.974480
C50	C	0.978147	0.712697	0.863032
C51	C	1.019264	0.645460	0.899642
C52	C	1.006493	0.666355	1.198834
C53	C	1.009814	0.660913	1.120911
H54	H	0.728398	0.803869	0.450802
C55	C	1.110408	0.496435	0.974862
C56	C	1.104276	0.360267	0.984697
C57	C	1.155332	0.276784	0.946552
C58	C	1.212519	0.329470	0.898572
C59	C	1.218653	0.465646	0.888735
C60	C	1.167597	0.549128	0.926880
H61	H	1.061941	0.321259	1.020216
H62	H	1.150791	0.175978	0.953834
H63	H	1.250313	0.267672	0.870335
H64	H	1.260988	0.504654	0.853216
H65	H	1.172139	0.649935	0.919598
C66	C	0.887012	0.861728	0.787814
C67	C	0.915236	0.961782	0.839438
C68	C	0.864190	1.045267	0.877596
C69	C	0.784921	1.028698	0.864131
C70	C	0.756694	0.928640	0.812505
C71	C	0.807739	0.845155	0.774347
H72	H	0.973919	0.974052	0.849407
H73	H	0.885087	1.119337	0.915812
H74	H	0.747135	1.090499	0.892377
H75	H	0.698010	0.916371	0.802535
H76	H	0.786843	0.771085	0.736130
C77	C	0.893581	0.850990	0.634053
C78	C	0.813454	0.835822	0.640708
C79	C	0.765844	0.913675	0.598318
C80	C	0.798360	1.006695	0.549274
C81	C	0.878492	1.021867	0.542617
C82	C	0.926102	0.944014	0.585006
H83	H	0.789379	0.766960	0.677015
H84	H	0.706525	0.902443	0.603246
H85	H	0.763116	1.064326	0.517894
H86	H	0.902567	1.090729	0.506309
H87	H	0.985421	0.955246	0.580078
H88	H	0.602474	0.503468	0.282754
H89	H	0.402594	0.564407	0.316848
C90	C	0.259847	0.530632	0.297985
C91	C	0.302203	0.445666	0.250475
C92	C	0.264024	0.354573	0.199548
C93	C	0.183488	0.348446	0.196131
C94	C	0.141126	0.433415	0.243643
C95	C	0.179306	0.524508	0.294570
H96	H	0.361825	0.450200	0.253003
H97	H	0.295383	0.291674	0.164377
H98	H	0.155225	0.281013	0.158432
H99	H	0.081504	0.428881	0.241115
H100	H	0.147947	0.587407	0.329741
C101	C	0.518961	0.806817	0.452474
C102	C	0.505519	0.802050	0.531755
C103	C	0.543699	0.893115	0.582697
C104	C	0.595322	0.988949	0.554358
C105	C	0.608768	0.993720	0.475073
C106	C	0.570587	0.902655	0.424131
H107	H	0.467302	0.731105	0.552737
H108	H	0.533746	0.889583	0.641390
H109	H	0.623586	1.056361	0.592069
H110	H	0.646984	1.064665	0.454091
H111	H	0.580540	0.906187	0.365438
C112	C	0.915498	0.815207	1.120537
C113	C	0.867897	0.893084	1.078159
C114	C	0.816880	0.976622	1.116316
C115	C	0.813464	0.982283	1.196851
C116	C	0.861066	0.904403	1.239234
C117	C	0.912083	0.820865	1.201076
H118	H	0.870425	0.888895	1.018538
H119	H	0.781642	1.034273	1.084941
H120	H	0.775698	1.044122	1.225097
H121	H	0.858539	0.908591	1.298855
H122	H	0.947322	0.763213	1.232451
C123	C	0.746322	0.491505	0.276052
C124	C	0.736014	0.354728	0.281482
C125	C	0.778381	0.269782	0.233963
C126	C	0.831055	0.321613	0.181014
C127	C	0.841366	0.458397	0.175582
C128	C	0.798999	0.543344	0.223101
H129	H	0.697019	0.316353	0.320681
H130	H	0.770748	0.168524	0.237985
H131	H	0.862418	0.258731	0.145837
H132	H	0.880361	0.496772	0.136384
H133	H	0.806632	0.644601	0.219080
C134	C	0.405609	0.878359	0.492495
C135	C	0.457226	0.974207	0.464162
C136	C	0.495395	1.065280	0.515109
C137	C	0.481946	1.060505	0.594389
C138	C	0.430326	0.964653	0.622726
C139	C	0.392158	0.873580	0.571779
H140	H	0.467184	0.977746	0.405470
H141	H	0.533607	1.136236	0.494131
H142	H	0.510201	1.127922	0.632103
H143	H	0.420369	0.961114	0.681418
H144	H	0.353945	0.802624	0.592756
H145	H	0.262857	0.844602	0.473613
C146	C	0.479196	0.551353	0.309538
C147	C	0.427572	0.455520	0.337876
C148	C	0.389384	0.364467	0.286932
C149	C	0.402820	0.369247	0.207650
C150	C	0.454446	0.465083	0.179308
C151	C	0.492635	0.556136	0.230252
H152	H	0.417624	0.451978	0.396569
H153	H	0.351166	0.293523	0.307913
H154	H	0.374550	0.301844	0.169938
H155	H	0.464394	0.468625	0.120615
H156	H	0.530852	0.627081	0.209271
H157	H	0.934416	0.784221	0.977798
H158	H	1.063005	0.573958	0.784877
C159	C	1.081943	0.543001	0.642141
C160	C	1.075809	0.406832	0.651974
C161	C	1.126862	0.323348	0.613825
C162	C	1.184048	0.376034	0.565845
C163	C	1.190184	0.512210	0.556010
C164	C	1.139131	0.595694	0.594158
H165	H	1.033474	0.367825	0.687494
H166	H	1.122319	0.222542	0.621106
H167	H	1.221840	0.314234	0.537605
H168	H	1.232519	0.551217	0.520490
H169	H	1.143674	0.696500	0.586878
H170	H	0.940363	0.774491	0.891281
C171	C	1.070315	0.561987	0.861491
C172	C	1.064192	0.425816	0.871317
C173	C	1.115246	0.342348	0.833158
C174	C	1.172423	0.395051	0.785173
C175	C	1.178549	0.531230	0.775345
C176	C	1.127495	0.614698	0.813504
H177	H	1.021864	0.386795	0.906840
H178	H	1.110711	0.241539	0.840434
H179	H	1.210217	0.333263	0.756926
H180	H	1.220877	0.570251	0.739822
H181	H	1.132030	0.715507	0.806229
H182	H	0.595574	0.793760	0.445160
H183	H	1.091472	0.527402	1.117605
