data_functionalizedCrystal
_audit_creation_method	'MofGen! by Chris Wilmer'
_symmetry_space_group_name_H-M	'P1'
_symmetry_Int_Tables_number	1
_symmetry_cell_setting	triclinic
loop_
_symmetry_equiv_pos_as_xyz
  x,y,z
_cell_length_a	19.805407
_cell_length_b	18.050588
_cell_length_c	19.805399
_cell_angle_alpha	90.025240
_cell_angle_beta	90.020409
_cell_angle_gamma	90.031501
loop_
_atom_site_label
_atom_site_type_symbol
_atom_site_fract_x
_atom_site_fract_y
_atom_site_fract_z
Zn1	Zn	1.034721	-0.295638	0.382746
Zn2	Zn	1.534721	0.204362	0.882746
Zn3	Zn	1.034629	-0.419830	0.269562
Zn4	Zn	1.534629	0.080170	0.769562
Zn5	Zn	0.921536	-0.295663	0.269569
Zn6	Zn	1.421536	0.204337	0.769569
Zn7	Zn	0.921493	-0.419795	0.382707
Zn8	Zn	1.421493	0.080205	0.882707
O9	O	0.978095	-0.357732	0.326146
O10	O	1.478095	0.142268	0.826146
O11	O	1.129425	-0.312117	0.367745
O12	O	1.629425	0.187883	0.867745
O13	O	1.019607	-0.403384	0.174846
O14	O	1.519607	0.096616	0.674846
O15	O	0.936606	-0.191735	0.284601
O16	O	1.436606	0.308265	0.784601
O17	O	1.129358	-0.403360	0.284590
O18	O	1.629358	0.096640	0.784590
O19	O	1.019763	-0.191717	0.367751
O20	O	1.519763	0.308283	0.867751
O21	O	0.936517	-0.312159	0.174851
O22	O	1.436517	0.187841	0.674851
O23	O	0.826813	-0.312125	0.284563
O24	O	1.326813	0.187875	0.784563
O25	O	0.936533	-0.403300	0.477429
O26	O	1.436533	0.096700	0.977429
O27	O	0.826782	-0.403324	0.367686
O28	O	1.326782	0.096676	0.867686
O29	O	1.019721	-0.312083	0.477457
O30	O	1.519721	0.187917	0.977457
O31	O	1.019566	-0.523750	0.284552
O32	O	1.519566	-0.023750	0.784552
O33	O	0.936445	-0.523724	0.367679
O34	O	1.436445	-0.023724	0.867679
C35	C	0.802239	-0.357724	0.326122
C36	C	1.302239	0.142276	0.826122
C37	C	0.727007	-0.357739	0.326127
C38	C	1.227007	0.142261	0.826127
C39	C	0.265254	-0.310310	0.369538
C40	C	0.765254	0.189690	0.869538
C41	C	0.335943	-0.310311	0.369533
C42	C	0.835943	0.189689	0.869533
C43	C	0.371245	-0.357743	0.326168
C44	C	0.871245	0.142257	0.826168
C45	C	0.335855	-0.405182	0.282810
C46	C	0.835855	0.094818	0.782810
C47	C	0.265168	-0.405183	0.282819
C48	C	0.765168	0.094817	0.782819
C49	C	0.620929	-0.405176	0.282774
C50	C	1.120929	0.094824	0.782774
C51	C	0.691621	-0.405169	0.282767
C52	C	1.191621	0.094831	0.782767
C53	C	0.691703	-0.310304	0.369488
C54	C	1.191703	0.189696	0.869488
C55	C	0.621016	-0.310306	0.369497
C56	C	1.121016	0.189694	0.869497
C57	C	0.585632	-0.357747	0.326142
C58	C	1.085632	0.142253	0.826142
C59	C	0.508984	-0.357746	0.326148
C60	C	1.008984	0.142254	0.826148
C61	C	0.447892	-0.357741	0.326157
C62	C	0.947892	0.142259	0.826157
C63	C	0.978009	-0.550684	0.326126
C64	C	1.478009	-0.050684	0.826126
C65	C	0.978034	-0.633230	0.326140
C66	C	1.478034	-0.133230	0.826140
C67	C	0.932904	-0.882068	0.371345
C68	C	1.432904	-0.382068	0.871345
C69	C	0.994622	-0.832596	0.387956
C70	C	1.494622	-0.332596	0.887956
C71	C	0.978175	-0.930350	0.326177
C72	C	1.478175	-0.430350	0.826177
C73	C	0.916391	-0.832740	0.309579
C74	C	1.416391	-0.332740	0.809579
C75	C	0.978102	-0.784365	0.326160
C76	C	1.478102	-0.284365	0.826160
C77	C	1.039925	-0.881965	0.342821
C78	C	1.539925	-0.381965	0.842821
C79	C	0.961653	-0.882114	0.264415
C80	C	1.461653	-0.382114	0.764415
C81	C	1.023413	-0.832664	0.281003
C82	C	1.523413	-0.332664	0.781003
C83	C	0.978215	-1.014448	0.326189
C84	C	1.478215	-0.514448	0.826189
C85	C	0.978068	-0.700268	0.326149
C86	C	1.478068	-0.200268	0.826149
C87	C	1.154637	-0.357740	0.326171
C88	C	1.654637	0.142260	0.826171
C89	C	1.229869	-0.357743	0.326182
C90	C	1.729869	0.142257	0.826182
C91	C	0.978133	-0.357685	0.502689
C92	C	1.478133	0.142315	1.002689
C93	C	0.978149	-0.357665	0.577921
C94	C	1.478149	0.142335	1.077921
C95	C	0.978199	-0.164026	0.326181
C96	C	1.478199	0.335974	0.826181
C97	C	0.978244	-0.081480	0.326196
C98	C	1.478244	0.418520	0.826196
C99	C	0.978096	-0.357725	0.150290
C100	C	1.478096	0.142275	0.650290
C101	C	0.978211	-0.357535	0.075058
C102	C	1.478211	0.142465	0.575058
C103	C	1.021466	-0.310166	0.613281
C104	C	1.521466	0.189834	1.113281
C105	C	1.021473	-0.310144	0.683969
C106	C	1.521473	0.189856	1.183969
C107	C	0.978166	-0.357626	0.719296
C108	C	1.478166	0.142374	1.219296
C109	C	0.934844	-0.405128	0.683931
C110	C	1.434844	0.094872	1.183931
C111	C	0.934834	-0.405145	0.613244
C112	C	1.434834	0.094855	1.113244
C113	C	0.934882	-0.405058	0.969005
C114	C	1.434882	0.094942	1.469005
C115	C	0.934897	-0.405039	1.039697
C116	C	1.434897	0.094961	1.539697
C117	C	1.021521	-0.310058	1.039730
C118	C	1.521521	0.189942	1.539730
C119	C	1.021511	-0.310075	0.969043
C120	C	1.521511	0.189925	1.469043
C121	C	0.978187	-0.357573	0.933684
C122	C	1.478187	0.142427	1.433684
C123	C	0.978179	-0.357595	0.857035
C124	C	1.478179	0.142405	1.357035
C125	C	0.978176	-0.357609	0.795944
C126	C	1.478176	0.142391	1.295944
H127	H	0.720521	-0.271677	0.404792
H128	H	1.220521	0.228323	0.904792
H129	H	0.899615	-0.443745	0.940224
H130	H	1.399615	0.056255	1.440224
F131	F	0.848138	-0.804473	0.291238
F132	F	1.348138	-0.304473	0.791238
H133	H	0.236359	-0.443810	0.247515
H134	H	0.736359	0.056190	0.747515
H135	H	1.008569	-0.810847	0.440180
H136	H	1.508569	-0.310847	0.940180
F137	F	1.067564	-0.259632	0.575689
F138	F	1.567564	0.240368	1.075689
F139	F	0.888728	-0.455698	0.575612
F140	F	1.388728	0.044302	1.075612
H141	H	1.056795	-0.271380	1.068527
H142	H	1.556795	0.228620	1.568527
F143	F	0.373429	-0.455665	0.236661
F144	F	0.873429	0.044335	0.736661
F145	F	0.729191	-0.455654	0.236610
F146	F	1.229191	0.044346	0.736610
H147	H	0.899580	-0.443786	0.712701
H148	H	1.399580	0.056214	1.212701
H149	H	0.364750	-0.271689	0.404840
H150	H	0.864750	0.228311	0.904840
H151	H	0.592276	-0.271679	0.404806
H152	H	1.092276	0.228321	0.904806
H153	H	0.894698	-0.903758	0.409577
H154	H	1.394698	-0.403758	0.909577
F155	F	0.943399	-0.910565	0.196174
F156	F	1.443399	-0.410565	0.696174
H157	H	0.899628	-0.443706	1.068459
H158	H	1.399628	0.056294	1.568459
H159	H	0.592128	-0.443803	0.247470
H160	H	1.092128	0.056197	0.747470
F161	F	1.108200	-0.910108	0.361240
F162	F	1.608200	-0.410108	0.861240
H163	H	1.061710	-0.811109	0.242800
H164	H	1.561710	-0.311109	0.742800
F165	F	0.227689	-0.259822	0.415690
F166	F	0.727689	0.240178	0.915690
F167	F	1.067600	-0.259614	0.721599
F168	F	1.567600	0.240386	1.221599
H169	H	1.056779	-0.271413	0.940283
H170	H	1.556779	0.228587	1.440283
