data_functionalizedCrystal
_audit_creation_method	'MofGen! by Chris Wilmer'
_symmetry_space_group_name_H-M	'P1'
_symmetry_Int_Tables_number	1
_symmetry_cell_setting	triclinic
loop_
_symmetry_equiv_pos_as_xyz
  x,y,z
_cell_length_a	18.215405
_cell_length_b	12.759395
_cell_length_c	18.215399
_cell_angle_alpha	89.980379
_cell_angle_beta	90.027541
_cell_angle_gamma	89.977914
loop_
_atom_site_label
_atom_site_type_symbol
_atom_site_fract_x
_atom_site_fract_y
_atom_site_fract_z
Zn1	Zn	-0.293004	-1.606177	0.416114
Zn2	Zn	-0.416076	-1.606053	0.293048
Zn3	Zn	-0.293026	-1.430485	0.293062
Zn4	Zn	-0.416032	-1.430443	0.416074
O5	O	-0.354535	-1.518289	0.354574
O6	O	-0.309339	-1.753181	0.399800
O7	O	-0.399780	-1.582729	0.190066
O8	O	-0.190039	-1.453860	0.309407
O9	O	-0.399759	-1.753090	0.309385
O10	O	-0.190023	-1.582940	0.399813
O11	O	-0.309376	-1.453740	0.190076
O12	O	-0.309334	-1.283458	0.309368
O13	O	-0.399685	-1.453789	0.519063
O14	O	-0.399706	-1.283427	0.399745
O15	O	-0.309297	-1.582900	0.519093
O16	O	-0.519054	-1.582688	0.309346
O17	O	-0.519022	-1.453668	0.399732
C18	C	-0.354518	-1.245322	0.354554
C19	C	-0.354529	-1.128545	0.354563
C20	C	-0.545741	-1.518189	0.354549
C21	C	-0.627540	-1.518242	0.354563
C22	C	-0.448799	-0.909128	0.448544
C23	C	-0.495922	-0.964003	0.495520
C24	C	-0.495914	-1.073724	0.495512
C25	C	-0.448781	-1.128574	0.448522
C26	C	-0.401659	-1.073698	0.401546
C27	C	-0.401670	-0.963974	0.401560
C28	C	-0.307407	-1.073670	0.307587
C29	C	-0.307409	-0.963948	0.307597
C30	C	-0.260274	-1.128519	0.260597
C31	C	-0.213147	-1.073644	0.213623
C32	C	-0.213155	-0.963916	0.213634
C33	C	-0.260287	-0.909073	0.260621
C34	C	-0.815664	-1.585486	0.401701
C35	C	-0.892523	-1.585524	0.401715
C36	C	-0.892653	-1.451223	0.307494
C37	C	-0.815796	-1.451180	0.307484
C38	C	-0.777303	-1.518318	0.354587
C39	C	-0.931019	-1.518398	0.354610
C40	C	-1.014353	-1.518439	0.354625
C41	C	-0.693964	-1.518276	0.354573
C42	C	-0.162582	-1.518419	0.354616
C43	C	-0.080783	-1.518474	0.354634
C44	C	-0.354484	-1.518353	0.546527
C45	C	-0.354462	-1.518380	0.628326
C46	C	-0.354547	-0.792323	0.354591
C47	C	-0.354542	-0.909099	0.354587
C48	C	-0.354532	-1.518286	0.163368
C49	C	-0.354346	-1.518462	0.081570
C50	C	-0.307353	-1.585633	0.816537
C51	C	-0.307332	-1.585645	0.893396
C52	C	-0.401458	-1.451202	0.893354
C53	C	-0.401475	-1.451185	0.816496
C54	C	-0.354424	-1.518407	0.778090
C55	C	-0.354385	-1.518436	0.931806
C56	C	-0.354362	-1.518449	1.015140
C57	C	-0.354445	-1.518392	0.694751
H58	H	-0.448803	-0.819787	0.448562
H59	H	-0.439767	-1.396476	0.924634
H60	H	-0.269039	-1.640366	0.785269
O61	O	-0.162316	-1.132793	0.162941
H62	H	-0.124912	-1.182820	0.195939
H63	H	-0.269001	-1.640386	0.924696
O64	O	-0.546754	-0.904848	0.546205
H65	H	-0.538839	-0.819333	0.538327
O66	O	-0.452224	-1.378644	0.775020
H67	H	-0.484939	-1.331903	0.814637
H68	H	-0.923753	-1.640216	0.440082
O69	O	-0.260298	-0.790731	0.260637
H70	H	-0.219611	-0.761783	0.220082
H71	H	-0.534287	-1.118404	0.533762
H72	H	-0.784560	-1.396479	0.269118
H73	H	-0.784326	-1.640151	0.440056
O74	O	-0.448785	-1.246916	0.448501
H75	H	-0.433984	-1.275906	0.504029
O76	O	-0.260272	-1.246862	0.260579
H77	H	-0.245464	-1.275844	0.316107
H78	H	-0.174783	-0.919243	0.175379
O79	O	-0.934168	-1.378834	0.256676
H80	H	-0.994057	-1.390159	0.264587
