data_functionalizedCrystal
_audit_creation_method	'MofGen! by Chris Wilmer'
_symmetry_space_group_name_H-M	'P1'
_symmetry_Int_Tables_number	1
_symmetry_cell_setting	triclinic
loop_
_symmetry_equiv_pos_as_xyz
  x,y,z
_cell_length_a	10.654546
_cell_length_b	10.654550
_cell_length_c	10.066323
_cell_angle_alpha	98.879507
_cell_angle_beta	81.175622
_cell_angle_gamma	84.484193
loop_
_atom_site_label
_atom_site_type_symbol
_atom_site_fract_x
_atom_site_fract_y
_atom_site_fract_z
O1	O	1.649623	0.194677	0.113513
O2	O	1.284144	0.211487	0.113509
O3	O	1.475287	0.020342	0.113506
O4	O	1.458480	0.385822	0.113516
O5	O	1.511704	-0.016254	-0.113468
O6	O	1.320561	0.174891	-0.113465
O7	O	1.686040	0.158081	-0.113461
Zn8	Zn	1.509083	0.160676	-0.149500
Zn9	Zn	1.461102	0.208892	0.149548
O10	O	1.494897	0.349226	-0.113458
C11	C	1.255555	0.191956	0.000021
C12	C	1.116112	0.188265	0.000020
C13	C	1.030765	0.206468	0.123750
C14	C	0.899743	0.202993	0.123761
C15	C	0.939427	0.163104	-0.123699
C16	C	1.070446	0.166589	-0.123709
C17	C	1.076431	0.228145	0.247478
C18	C	0.991082	0.246348	0.371218
C19	C	0.860060	0.242872	0.371229
C20	C	0.814386	0.221194	0.247500
C21	C	1.492262	-0.044754	0.000021
C22	C	1.488569	-0.184196	0.000025
C23	C	1.601111	-0.263684	0.000023
C24	C	1.597633	-0.394703	0.000032
C25	C	1.369062	-0.366735	0.000042
C26	C	1.372540	-0.235717	0.000042
C27	C	1.717141	-0.212163	0.000006
C28	C	1.829692	-0.291652	0.000002
C29	C	1.826214	-0.422671	0.000011
C30	C	1.710184	-0.474202	0.000025
C31	C	1.714629	0.177613	0.000030
C32	C	1.854070	0.181305	0.000040
C33	C	1.477922	0.414322	0.000030
C34	C	1.481613	0.553766	0.000035
N35	N	1.541837	0.127768	-0.353593
C36	C	1.472481	0.197444	-0.421399
C37	C	1.497723	0.172104	-0.578556
N38	N	1.428356	0.241790	0.353641
H39	H	1.028278	0.264009	0.471953
C40	C	1.220549	0.231973	0.247472
H41	H	1.235524	0.247498	0.338877
H42	H	1.266465	0.152287	0.201762
H43	H	1.248564	0.298518	0.201786
C44	C	0.766181	0.262900	0.507333
H45	H	0.812148	0.276299	0.581014
H46	H	0.705295	0.335481	0.512492
H47	H	0.723197	0.189251	0.512472
C48	C	1.322901	0.347735	-0.567627
H49	H	1.319767	0.350870	-0.472329
H50	H	1.341242	0.427870	-0.590979
H51	H	1.242628	0.329811	-0.590988
H52	H	1.719986	-0.105483	-0.000006
H53	H	1.280898	-0.170996	0.000042
H54	H	0.707695	0.218379	0.247519
C55	C	1.367016	0.303368	-0.342659
H56	H	1.363880	0.306496	-0.247361
H57	H	1.385340	0.383512	-0.366000
H58	H	1.286750	0.285428	-0.366027
H59	H	0.902228	0.145452	-0.224433
H60	H	1.575798	0.093692	-0.636846
C61	C	1.706352	-0.618318	0.000044
H62	H	1.621133	-0.637619	0.000056
H63	H	1.760472	-0.665893	-0.079102
H64	H	1.735069	-0.640346	0.079210
C65	C	1.241440	-0.423412	0.000050
H66	H	1.174908	-0.357303	0.000064
H67	H	1.248027	-0.486706	-0.079099
H68	H	1.222638	-0.461173	0.079213
H69	H	1.619908	0.049362	-0.411888
H70	H	1.924154	-0.249682	0.000025
H71	H	1.139938	0.151773	-0.224460
H72	H	1.917857	-0.487386	0.000022
