data_functionalizedCrystal
_audit_creation_method	'MofGen! by Chris Wilmer'
_symmetry_space_group_name_H-M	'P1'
_symmetry_Int_Tables_number	1
_symmetry_cell_setting	triclinic
loop_
_symmetry_equiv_pos_as_xyz
  x,y,z
_cell_length_a	23.532407
_cell_length_b	23.532361
_cell_length_c	9.798715
_cell_angle_alpha	90.000604
_cell_angle_beta	89.992208
_cell_angle_gamma	82.839173
loop_
_atom_site_label
_atom_site_type_symbol
_atom_site_fract_x
_atom_site_fract_y
_atom_site_fract_z
O1	O	0.069007	0.755276	-0.113368
O2	O	0.079038	0.589409	-0.113403
O3	O	-0.008910	0.677344	-0.113359
O4	O	0.156955	0.667341	-0.113411
O5	O	-0.008910	0.677338	0.113623
O6	O	0.079038	0.589403	0.113580
O7	O	0.069007	0.755270	0.113614
Zn8	Zn	0.074023	0.672335	0.149635
Zn9	Zn	0.074023	0.672344	-0.149424
O10	O	0.156955	0.667334	0.113571
C11	C	0.078787	0.568189	0.000084
C12	C	0.078032	0.504971	0.000072
C13	C	0.074728	0.231731	-0.123646
C14	C	0.075443	0.291130	-0.123650
O15	O	0.075793	0.321859	-0.228874
N16	N	0.075804	0.320832	0.000078
C17	C	0.075445	0.291133	0.123818
O18	O	0.075817	0.321851	0.229059
C19	C	0.074726	0.231734	0.123821
C20	C	0.074370	0.202035	0.000084
C21	C	0.074372	0.202031	-0.247373
C22	C	0.073659	0.142635	-0.247369
C23	C	0.073301	0.112939	-0.123638
C24	C	0.073657	0.142639	0.000088
C25	C	0.074362	0.202036	0.247559
C26	C	0.073642	0.142634	0.247551
C27	C	0.073287	0.112934	0.123814
C28	C	0.072585	0.053547	0.123823
N29	N	0.072224	0.023845	0.000094
C30	C	0.072582	0.053541	-0.123636
C31	C	0.076954	0.415873	0.123804
C32	C	0.077677	0.475269	0.123804
C33	C	0.077674	0.475263	-0.123665
C34	C	0.076955	0.415865	-0.123663
C35	C	0.076593	0.386171	0.000076
C36	C	0.071083	-0.071195	-0.123618
C37	C	0.070372	-0.130596	-0.123603
C38	C	0.070371	-0.130584	0.123865
C39	C	0.071086	-0.071189	0.123851
C40	C	0.071440	-0.041495	0.000098
O41	O	0.072232	0.022781	0.228993
O42	O	0.072202	0.022816	-0.228859
C43	C	-0.030126	0.677086	0.000135
C44	C	-0.093343	0.676320	0.000146
C45	C	-0.492454	0.723555	0.000081
C46	C	-0.551854	0.722844	0.000070
O47	O	-0.588606	0.766630	0.000029
N48	N	-0.574471	0.670566	0.000060
C49	C	-0.537685	0.618997	0.000047
O50	O	-0.562377	0.574465	0.000036
C51	C	-0.478286	0.619709	0.000048
C52	C	-0.455672	0.671990	0.000072
C53	C	-0.469839	0.775832	0.000103
C54	C	-0.410443	0.776543	0.000116
C55	C	-0.373662	0.724977	0.000107
C56	C	-0.396276	0.672701	0.000085
C57	C	-0.441501	0.568140	0.000025
C58	C	-0.382099	0.568857	0.000024
C59	C	-0.359485	0.621137	0.000048
C60	C	-0.300099	0.621847	0.000088
N61	N	-0.277481	0.674124	0.000098
C62	C	-0.314263	0.725690	0.000108
C63	C	-0.662427	0.617505	0.000043
C64	C	-0.721825	0.616793	0.000052
C65	C	-0.735990	0.720640	0.000073
C66	C	-0.676591	0.721352	0.000073
C67	C	-0.639810	0.669783	0.000053
C68	C	-0.189526	0.727179	0.000136
C69	C	-0.130124	0.727886	0.000155
C70	C	-0.115965	0.624039	0.000127
C71	C	-0.175361	0.623332	0.000115
C72	C	-0.212141	0.674907	0.000115
O73	O	-0.263312	0.578083	0.000124
O74	O	-0.289562	0.770214	0.000100
C75	C	0.178171	0.667592	0.000073
C76	C	0.241388	0.668358	0.000054
C77	C	0.069258	0.776489	0.000124
C78	C	0.070014	0.839708	0.000127
N79	N	0.074022	0.672333	0.353735
N80	N	0.074019	0.672350	-0.353523
C81	C	0.036935	0.709257	0.421530
C82	C	0.036933	0.709266	0.578693
H83	H	0.070084	-0.154775	-0.224369
H84	H	-0.658183	0.763923	0.000092
H85	H	0.005182	0.740861	0.363223
H86	H	-0.086007	0.582056	0.000124
H87	H	0.076666	0.391687	-0.224420
H88	H	0.073367	0.118459	-0.348128
H89	H	0.077965	0.499452	-0.224414
H90	H	0.077975	0.499445	0.224562
H91	H	0.005183	0.740881	0.636994
H92	H	0.074662	0.226203	-0.348135
H93	H	0.074649	0.226208	0.348319
H94	H	0.073352	0.118459	0.348316
H95	H	0.076666	0.391698	0.224574
H96	H	0.105774	0.640738	0.588185
H97	H	-0.765949	0.762627	0.000075
H98	H	0.071386	-0.047007	0.224607
H99	H	0.071372	-0.047025	-0.224389
H100	H	0.070082	-0.154774	0.224603
H101	H	-0.111716	0.770461	0.000178
H102	H	0.105770	0.640726	0.412044
H103	H	-0.219466	0.769176	0.000131
H104	H	-0.392037	0.819115	0.000130
H105	H	-0.740232	0.574220	0.000056
H106	H	-0.352154	0.526862	0.000006
H107	H	-0.499782	0.817825	0.000105
H108	H	-0.632483	0.575509	0.000038
H109	H	-0.459902	0.525567	-0.000003
H110	H	-0.193774	0.580761	0.000134
