data_functionalizedCrystal
_audit_creation_method	'MofGen! by Chris Wilmer'
_symmetry_space_group_name_H-M	'P1'
_symmetry_Int_Tables_number	1
_symmetry_cell_setting	triclinic
loop_
_symmetry_equiv_pos_as_xyz
  x,y,z
_cell_length_a	29.839134
_cell_length_b	11.169416
_cell_length_c	11.169409
_cell_angle_alpha	90.030874
_cell_angle_beta	89.967100
_cell_angle_gamma	89.994798
loop_
_atom_site_label
_atom_site_type_symbol
_atom_site_fract_x
_atom_site_fract_y
_atom_site_fract_z
Zn1	Zn	0.686865	0.477874	-0.678974
Zn2	Zn	0.686824	0.678615	-0.478296
Zn3	Zn	0.611734	0.477926	-0.478262
Zn4	Zn	0.611736	0.678496	-0.678895
O5	O	0.649290	0.578228	-0.578607
O6	O	0.749727	0.504531	-0.652400
O7	O	0.676844	0.652065	-0.310341
O8	O	0.621716	0.309970	-0.504906
O9	O	0.749696	0.652014	-0.504963
O10	O	0.676915	0.309931	-0.652368
O11	O	0.621676	0.504620	-0.310317
O12	O	0.548867	0.504504	-0.504830
O13	O	0.621721	0.651812	-0.846855
O14	O	0.548869	0.651862	-0.652233
O15	O	0.676918	0.504416	-0.846913
O16	O	0.676847	0.846549	-0.504887
O17	O	0.621681	0.846461	-0.652266
C18	C	0.532567	0.578177	-0.578520
C19	C	0.482633	0.578184	-0.578511
C20	C	0.649272	0.890053	-0.578597
C21	C	0.649305	1.023453	-0.578634
C22	C	0.649324	0.578095	-0.891649
C23	C	0.649339	0.578038	-1.025049
C24	C	0.173000	0.655071	-0.655266
C25	C	-0.014673	0.655104	-0.655319
O26	O	-0.038929	0.720419	-0.720527
N27	N	-0.038152	0.578272	-0.578697
C28	C	-0.014710	0.501420	-0.502062
O29	O	-0.038987	0.436061	-0.436900
C30	C	0.172962	0.501381	-0.502015
C31	C	0.196439	0.578227	-0.578634
C32	C	0.196477	0.731909	-0.731879
C33	C	0.243392	0.731905	-0.731860
C34	C	0.266831	0.655061	-0.655228
C35	C	0.243354	0.578222	-0.578615
C36	C	0.196403	0.424524	-0.425387
C37	C	0.243324	0.424519	-0.425384
C38	C	0.266801	0.501365	-0.502003
C39	C	0.313708	0.501374	-0.501964
N40	N	0.337187	0.578207	-0.578586
C41	C	0.313749	0.655050	-0.655218
C42	C	-0.113241	0.501447	-0.502090
C43	C	-0.160159	0.501458	-0.502100
C44	C	-0.160118	0.655142	-0.655359
C45	C	-0.113200	0.655136	-0.655342
C46	C	-0.089762	0.578280	-0.578712
C47	C	0.412274	0.655036	-0.655172
C48	C	0.459194	0.655028	-0.655143
C49	C	0.459149	0.501341	-0.501889
C50	C	0.412234	0.501352	-0.501913
C51	C	0.388798	0.578204	-0.578564
O52	O	0.337993	0.436084	-0.436800
O53	O	0.338033	0.720380	-0.720389
C54	C	0.126084	0.655075	-0.655284
C55	C	0.102608	0.578236	-0.578671
C56	C	0.126046	0.501393	-0.502039
C57	C	0.055690	0.578247	-0.578681
C58	C	0.032251	0.655091	-0.655313
C59	C	0.055730	0.731923	-0.731935
C60	C	0.102646	0.731919	-0.731916
C61	C	0.102567	0.424560	-0.425417
C62	C	0.055652	0.424572	-0.425441
C63	C	0.032213	0.501416	-0.502073
C64	C	0.766468	0.578280	-0.578694
C65	C	0.816402	0.578302	-0.578732
C66	C	0.649320	0.265186	-0.578642
C67	C	0.649333	0.131786	-0.578657
C68	C	0.649281	0.578274	-0.266782
C69	C	0.649354	0.577993	-0.133382
H70	H	0.478307	0.717609	-0.717536
H71	H	-0.094088	0.717709	-0.717734
C72	C	0.386501	0.739585	-0.739484
N73	N	0.367089	0.803275	-0.802980
H74	H	-0.179210	0.717711	-0.717756
C75	C	0.029833	0.340026	-0.341152
N76	N	0.010387	0.276338	-0.277676
H77	H	0.036638	0.794496	-0.794328
H78	H	-0.094162	0.438861	-0.439682
C79	C	0.170589	0.339972	-0.341112
N80	N	0.151147	0.276277	-0.277636
H81	H	0.262405	0.361925	-0.362988
C82	C	0.269210	0.816436	-0.816153
N83	N	0.288654	0.880108	-0.879650
H84	H	0.393118	0.438780	-0.439522
H85	H	0.478242	0.438780	-0.439493
H86	H	-0.179270	0.438895	-0.439697
H87	H	0.177398	0.794485	-0.794288
C88	C	0.128464	0.816452	-0.816208
N89	N	0.147908	0.880126	-0.879702
H90	H	0.121646	0.361984	-0.363013
