data_functionalizedCrystal
_audit_creation_method	'MofGen! by Chris Wilmer'
_symmetry_space_group_name_H-M	'P1'
_symmetry_Int_Tables_number	1
_symmetry_cell_setting	triclinic
loop_
_symmetry_equiv_pos_as_xyz
  x,y,z
_cell_length_a	14.853558
_cell_length_b	14.853567
_cell_length_c	14.586319
_cell_angle_alpha	90.000002
_cell_angle_beta	89.997019
_cell_angle_gamma	83.633032
loop_
_atom_site_label
_atom_site_type_symbol
_atom_site_fract_x
_atom_site_fract_y
_atom_site_fract_z
O1	O	1.196369	0.117663	-0.076221
O2	O	0.933908	0.131693	-0.076225
O3	O	1.072149	-0.006552	-0.076226
O4	O	1.058128	0.255908	-0.076220
O5	O	1.072140	-0.006554	0.076255
O6	O	0.933898	0.131691	0.076256
O7	O	1.196359	0.117661	0.076260
Cu8	Cu	1.065128	0.124676	0.090181
Cu9	Cu	1.065139	0.124678	-0.090146
O10	O	1.058118	0.255906	0.076261
C11	C	0.900314	0.131058	0.000015
C12	C	0.800230	0.129158	0.000014
C13	C	0.753215	0.128267	-0.083107
C14	C	0.753203	0.128254	0.083133
C15	C	0.659170	0.126464	0.083135
C16	C	0.612155	0.125574	0.000014
C17	C	0.659173	0.126474	-0.083108
C18	C	0.612145	0.125554	0.166255
C19	C	0.518106	0.123763	0.166260
C20	C	0.471088	0.122879	0.083139
C21	C	0.518113	0.123781	0.000013
C22	C	0.471098	0.122890	-0.083108
C23	C	0.518119	0.123798	-0.166234
C24	C	0.612156	0.125590	-0.166230
C25	C	0.377052	0.121087	0.083134
C26	C	0.377056	0.121097	-0.083109
C27	C	1.071509	-0.040141	0.000012
C28	C	1.069605	-0.140225	0.000004
C29	C	0.979439	-0.552756	0.000020
C30	C	1.143673	-0.574042	0.000023
C31	C	1.145463	-0.480009	0.000017
C32	C	1.064240	-0.422344	0.000015
C33	C	0.981227	-0.458713	0.000018
C34	C	1.228474	-0.443632	0.000023
C35	C	1.230268	-0.349593	0.000019
C36	C	1.149044	-0.291927	0.000010
C37	C	1.066027	-0.328301	0.000012
C38	C	0.984805	-0.270637	0.000010
C39	C	0.901787	-0.307009	0.000005
C40	C	0.900003	-0.401047	0.000009
C41	C	1.150828	-0.197890	0.000006
C42	C	0.986592	-0.176594	0.000007
C43	C	1.229953	0.118296	0.000018
C44	C	1.330037	0.120197	0.000013
C45	C	1.058758	0.289496	0.000021
C46	C	1.060662	0.389580	0.000023
N47	N	1.065127	0.124674	0.217012
N48	N	1.065148	0.124674	-0.216977
C49	C	1.126360	0.063479	0.452018
C50	C	1.126363	0.063477	0.548000
C51	C	1.003908	0.185871	0.548010
C52	C	1.003902	0.185868	0.452030
C53	C	1.065133	0.124673	0.404037
C54	C	1.065142	0.124674	0.595998
C55	C	1.065144	0.124672	0.700065
C56	C	1.065130	0.124674	0.299963
H57	H	0.791504	0.129010	-0.150787
H58	H	0.650450	0.126328	-0.233907
N59	N	1.316067	-0.505834	0.000037
H60	H	1.318990	-0.545325	-0.056487
H61	H	1.368882	-0.468468	0.000079
N62	N	0.937882	0.251882	0.599778
H63	H	0.899093	0.290647	0.554815
H64	H	0.897987	0.217301	0.639610
N65	N	1.240356	-0.158657	0.000021
H66	H	1.291538	-0.209456	0.000029
H67	H	1.244684	-0.120107	-0.056507
N68	N	1.192397	-0.002521	0.400252
H69	H	1.231183	-0.041288	0.445216
H70	H	1.157833	-0.042439	0.360434
H71	H	0.338770	0.120356	0.150814
H72	H	0.791489	0.128972	0.150806
N73	N	0.326348	0.120142	-0.172762
H74	H	0.370407	0.120989	-0.225417
H75	H	0.294578	0.063552	-0.176390
H76	H	1.297865	-0.319987	0.000022
N77	N	0.937865	0.251880	0.400274
H78	H	0.947152	0.242589	0.332190
H79	H	0.873900	0.241354	0.417058
N80	N	0.467401	0.122828	-0.255880
H81	H	0.421138	0.177923	-0.259576
H82	H	0.511511	0.123642	-0.308491
N83	N	0.662850	0.126514	0.255902
H84	H	0.729556	0.127795	0.243287
H85	H	0.639165	0.182042	0.292202
H86	H	0.835656	-0.260047	0.000010
H87	H	0.479829	0.123023	0.233947
H88	H	1.176218	0.013647	0.587063
N89	N	0.810470	-0.440276	0.000008
H90	H	0.821664	-0.508598	0.000016
H91	H	0.774922	-0.419186	0.056534
H92	H	0.920449	-0.129649	0.000001
H93	H	0.911848	-0.582375	0.000013
H94	H	1.209801	-0.620998	0.000032
