data_functionalizedCrystal
_audit_creation_method	'MofGen! by Chris Wilmer'
_symmetry_space_group_name_H-M	'P1'
_symmetry_Int_Tables_number	1
_symmetry_cell_setting	triclinic
loop_
_symmetry_equiv_pos_as_xyz
  x,y,z
_cell_length_a	16.120444
_cell_length_b	21.295420
_cell_length_c	16.120256
_cell_angle_alpha	92.878456
_cell_angle_beta	95.616860
_cell_angle_gamma	92.922386
loop_
_atom_site_label
_atom_site_type_symbol
_atom_site_fract_x
_atom_site_fract_y
_atom_site_fract_z
Zn1	Zn	-0.356856	0.929939	-0.489469
Zn2	Zn	-0.023523	1.263272	-0.156136
Zn3	Zn	0.309811	1.596605	0.177198
Zn4	Zn	-0.489542	0.929858	-0.356780
Zn5	Zn	-0.156209	1.263191	-0.023447
Zn6	Zn	0.177125	1.596524	0.309886
Zn7	Zn	-0.349778	0.830293	-0.349713
Zn8	Zn	-0.016444	1.163626	-0.016380
Zn9	Zn	0.316889	1.496960	0.316953
Zn10	Zn	-0.496577	0.819020	-0.496503
Zn11	Zn	-0.163243	1.152353	-0.163169
Zn12	Zn	0.170090	1.485686	0.170164
O13	O	-0.423188	0.877277	-0.423116
O14	O	-0.089855	1.210611	-0.089783
O15	O	0.243479	1.543944	0.243550
O16	O	-0.374475	1.018016	-0.471881
O17	O	-0.041142	1.351349	-0.138548
O18	O	0.292192	1.684683	0.194785
O19	O	-0.465096	0.921334	-0.238880
O20	O	-0.131762	1.254667	0.094453
O21	O	0.201571	1.588001	0.427786
O22	O	-0.233751	0.848263	-0.362351
O23	O	0.099582	1.181596	-0.029017
O24	O	0.432916	1.514929	0.304316
O25	O	-0.471959	1.017957	-0.374396
O26	O	-0.138626	1.351290	-0.041062
O27	O	0.194708	1.684623	0.292271
O28	O	-0.238951	0.921472	-0.465029
O29	O	0.094382	1.254805	-0.131695
O30	O	0.427715	1.588139	0.201638
O31	O	-0.362412	0.848184	-0.233688
O32	O	-0.029078	1.181518	0.099645
O33	O	0.304255	1.514851	0.432979
O34	O	-0.369233	0.740709	-0.369171
O35	O	-0.035899	1.074043	-0.035838
O36	O	0.297434	1.407376	0.297495
O37	O	-0.483949	0.829050	-0.612532
O38	O	-0.150615	1.162383	-0.279199
O39	O	0.182718	1.495716	0.054134
O40	O	-0.477085	0.732427	-0.477017
O41	O	-0.143752	1.065760	-0.143684
O42	O	0.189581	1.399094	0.189650
O43	O	-0.381296	0.910541	-0.607365
O44	O	-0.047963	1.243874	-0.274031
O45	O	0.285370	1.577208	0.059302
O46	O	-0.607441	0.910403	-0.381216
O47	O	-0.274107	1.243736	-0.047883
O48	O	0.059226	1.577070	0.285451
O49	O	-0.612609	0.828971	-0.483870
O50	O	-0.279276	1.162304	-0.150536
O51	O	0.054058	1.495638	0.182797
C52	C	-0.423155	0.713728	-0.423091
C53	C	-0.089822	1.047061	-0.089758
C54	C	0.243512	1.380395	0.243576
C55	C	-0.423162	0.643759	-0.423101
C56	C	-0.089828	0.977092	-0.089768
C57	C	0.243505	1.310426	0.243566
C58	C	-0.372559	0.144321	-0.473983
C59	C	-0.039226	0.477654	-0.140650
C60	C	0.294107	0.810987	0.192684
C61	C	-0.372553	0.210064	-0.473983
C62	C	-0.039220	0.543397	-0.140649
C63	C	0.294114	0.876730	0.192684
C64	C	-0.423214	0.242916	-0.423137
C65	C	-0.089881	0.576250	-0.089804
C66	C	0.243452	0.909583	0.243530
C67	C	-0.473902	0.210020	-0.372304
C68	C	-0.140569	0.543353	-0.038971
C69	C	0.192765	0.876686	0.294363
C70	C	-0.473913	0.144278	-0.372312
C71	C	-0.140580	0.477611	-0.038979
C72	C	0.192754	0.810944	0.294354
N73	N	-0.425801	0.348802	-0.350270
N74	N	-0.092468	0.682135	-0.016936
N75	N	0.240866	1.015469	0.316397
N76	N	-0.425786	0.411254	-0.350264
N77	N	-0.092452	0.744588	-0.016931
N78	N	0.240881	1.077921	0.316403
C79	C	-0.423186	0.440993	-0.423111
C80	C	-0.089852	0.774326	-0.089778
C81	C	0.243481	1.107660	0.243556
N82	N	-0.420585	0.405921	-0.495965
N83	N	-0.087252	0.739254	-0.162631
N84	N	0.246081	1.072588	0.170702
N85	N	-0.420596	0.343463	-0.495969
N86	N	-0.087263	0.676796	-0.162636
N87	N	0.246071	1.010130	0.170698
C88	C	-0.423209	0.314202	-0.423123
C89	C	-0.089875	0.647536	-0.089790
C90	C	0.243458	0.980869	0.243544
C91	C	-0.372499	0.545167	-0.473945
C92	C	-0.039166	0.878501	-0.140611
C93	C	0.294168	1.211834	0.192722
C94	C	-0.372499	0.610911	-0.473946
C95	C	-0.039165	0.944244	-0.140613
C96	C	0.294168	1.277578	0.192721
C97	C	-0.473843	0.610866	-0.372260
C98	C	-0.140510	0.944200	-0.038927
C99	C	0.192824	1.277533	0.294407
C100	C	-0.473848	0.545123	-0.372266
C101	C	-0.140515	0.878457	-0.038933
C102	C	0.192819	1.211790	0.294400
C103	C	-0.423172	0.512278	-0.423107
C104	C	-0.089838	0.845611	-0.089774
C105	C	0.243495	1.178945	0.243559
C106	C	-0.640354	0.868471	-0.434091
C107	C	-0.307020	1.201805	-0.100758
C108	C	0.026313	1.535138	0.232575
C109	C	-0.733259	0.864761	-0.438814
C110	C	-0.399926	1.198094	-0.105481
C111	C	-0.066593	1.531427	0.227852
C112	C	-0.942171	0.896674	-0.398795
C113	C	-0.608838	1.230007	-0.065462
C114	C	-0.275505	1.563340	0.267872
C115	C	-0.903354	0.857997	-0.447446
C116	C	-0.570021	1.191330	-0.114113
C117	C	-0.236687	1.524664	0.219220
C118	C	-0.808705	0.861761	-0.442642
C119	C	-0.475371	1.195095	-0.109309
C120	C	-0.142038	1.528428	0.224025
C121	C	-1.036829	0.892910	-0.403598
C122	C	-0.703496	1.226244	-0.070265
C123	C	-0.370163	1.559577	0.263069
C124	C	-0.205175	0.886134	-0.412117
C125	C	0.128158	1.219467	-0.078783
C126	C	0.461491	1.552801	0.254550
C127	C	-0.112271	0.889908	-0.407429
C128	C	0.221062	1.223241	-0.074096
C129	C	0.554395	1.556575	0.259237
C130	C	-0.434197	0.868547	-0.641123
C131	C	-0.100863	1.201880	-0.307790
C132	C	0.232470	1.535214	0.025543
C133	C	-0.438888	0.864827	-0.734025
C134	C	-0.105555	1.198160	-0.400692
C135	C	0.227779	1.531493	-0.067358
C136	C	-0.423222	1.041465	-0.423142
C137	C	-0.089889	1.374799	-0.089809
C138	C	0.243445	1.708132	0.243524
C139	C	-0.423236	1.111432	-0.423153
C140	C	-0.089903	1.444766	-0.089820
C141	C	0.243430	1.778099	0.243513
C142	C	-0.398702	0.896678	-0.942951
C143	C	-0.065369	1.230012	-0.609617
C144	C	0.267964	1.563345	-0.276284
C145	C	-0.447418	0.858014	-0.904110
C146	C	-0.114085	1.191348	-0.570777
C147	C	0.219248	1.524681	-0.237443
C148	C	-0.442671	0.861806	-0.809466
C149	C	-0.109337	1.195139	-0.476133
C150	C	0.223996	1.528473	-0.142799
C151	C	-0.403449	0.892888	-1.037603
C152	C	-0.070116	1.226221	-0.704270
C153	C	0.263218	1.559554	-0.370937
C154	C	-0.412162	0.886012	-0.205954
C155	C	-0.078829	1.219346	0.127379
C156	C	0.254505	1.552679	0.460712
C157	C	-0.407235	0.889864	-0.113041
C158	C	-0.073902	1.223197	0.220292
C159	C	0.259431	1.556531	0.553626
H160	H	-0.331298	0.117582	-0.515385
H161	H	0.002035	0.450915	-0.182052
H162	H	0.335369	0.784249	0.151281
H163	H	-0.492686	0.822063	-0.941937
H164	H	-0.159353	1.155396	-0.608604
H165	H	0.173981	1.488729	-0.275271
N166	N	-0.338749	0.944302	-0.892851
N167	N	-0.005415	1.277635	-0.559517
N168	N	0.327918	1.610968	-0.226184
H169	H	-0.306898	0.969581	-0.931956
H170	H	0.026436	1.302915	-0.598623
H171	H	0.359769	1.636248	-0.265289
H172	H	-0.298279	0.921677	-0.854658
H173	H	0.035054	1.255010	-0.521325
H174	H	0.368387	1.588343	-0.187991
N175	N	-0.317893	0.245547	-0.528809
N176	N	0.015440	0.578880	-0.195476
N177	N	0.348773	0.912214	0.137858
H178	H	-0.285794	0.214764	-0.561018
H179	H	0.047540	0.548097	-0.227685
H180	H	0.380873	0.881430	0.105649
H181	H	-0.277446	0.275744	-0.492880
H182	H	0.055887	0.609077	-0.159547
H183	H	0.389221	0.942410	0.173786
H184	H	-0.515153	0.236772	-0.330908
H185	H	-0.181820	0.570106	0.002426
H186	H	0.151514	0.903439	0.335759
N187	N	-0.953493	0.810385	-0.507387
N188	N	-0.620160	1.143719	-0.174054
N189	N	-0.286827	1.477052	0.159279
H190	H	-0.937751	0.766529	-0.493591
H191	H	-0.604418	1.099862	-0.160258
H192	H	-0.271084	1.433195	0.173075
H193	H	-0.941322	0.818372	-0.566344
H194	H	-0.607988	1.151705	-0.233011
H195	H	-0.274655	1.485038	0.100323
H196	H	-0.331234	0.637687	-0.515344
H197	H	0.002099	0.971021	-0.182011
H198	H	0.335433	1.304354	0.151323
N199	N	-0.528494	0.509649	-0.317427
N200	N	-0.195161	0.842982	0.015906
N201	N	0.138172	1.176316	0.349240
H202	H	-0.520814	0.463017	-0.325146
H203	H	-0.187480	0.796351	0.008187
H204	H	0.145853	1.129684	0.341520
H205	H	-0.588860	0.518210	-0.333355
H206	H	-0.255527	0.851543	-0.000021
H207	H	0.077806	1.184877	0.333312
H208	H	-0.515182	0.117500	-0.330919
H209	H	-0.181849	0.450833	0.002414
H210	H	0.151485	0.784167	0.335747
N211	N	-0.892042	0.944278	-0.338846
N212	N	-0.558709	1.277611	-0.005512
N213	N	-0.225375	1.610945	0.327821
H214	H	-0.830555	0.940250	-0.343871
H215	H	-0.497221	1.273583	-0.010537
H216	H	-0.163888	1.606916	0.322796
H217	H	-0.904267	0.936311	-0.279899
H218	H	-0.570934	1.269645	0.053435
H219	H	-0.237601	1.602978	0.386768
H220	H	-0.331235	0.518423	-0.515342
H221	H	0.002098	0.851757	-0.182009
H222	H	0.335431	1.185090	0.151324
H223	H	-0.515099	0.637614	-0.330867
H224	H	-0.181766	0.970947	0.002466
H225	H	0.151567	1.304280	0.335799
