data_functionalizedCrystal
_audit_creation_method	'MofGen! by Chris Wilmer'
_symmetry_space_group_name_H-M	'P1'
_symmetry_Int_Tables_number	1
_symmetry_cell_setting	triclinic
loop_
_symmetry_equiv_pos_as_xyz
  x,y,z
_cell_length_a	10.489741
_cell_length_b	15.944551
_cell_length_c	8.965430
_cell_angle_alpha	89.999468
_cell_angle_beta	89.998843
_cell_angle_gamma	84.018956
loop_
_atom_site_label
_atom_site_type_symbol
_atom_site_fract_x
_atom_site_fract_y
_atom_site_fract_z
O1	O	1.692411	0.118500	-0.123951
O2	O	1.321061	0.129624	-0.123974
O3	O	1.516876	0.001848	-0.123948
O4	O	1.496595	0.246276	-0.123977
O5	O	1.516860	0.001857	0.124130
O6	O	1.321044	0.129633	0.124105
O7	O	1.692394	0.118509	0.124128
Cu8	Cu	1.506718	0.124071	0.146768
Cu9	Cu	1.506737	0.124061	-0.146614
O10	O	1.496578	0.246285	0.124102
C11	C	1.273532	0.128788	0.000062
C12	C	1.131938	0.126275	0.000054
C13	C	1.064925	0.044975	0.000077
C14	C	0.972274	0.083376	-0.122240
C15	C	0.972291	0.083403	0.122346
C16	C	1.041152	0.164709	-0.122364
C17	C	1.041179	0.164726	0.122332
C18	C	0.948554	0.203186	-0.000015
C19	C	1.516026	-0.029446	0.000091
C20	C	1.513502	-0.122708	0.000092
C21	C	1.386093	-0.338330	0.000063
C22	C	1.445249	-0.398988	0.122385
C23	C	1.508935	-0.293461	0.000080
C24	C	1.445294	-0.398979	-0.122201
C25	C	1.504515	-0.458400	0.000062
C26	C	1.568126	-0.352890	0.122503
C27	C	1.568154	-0.352875	-0.122193
C28	C	1.627399	-0.413515	0.000158
C29	C	1.511478	-0.198443	0.000092
C30	C	1.501982	-0.553417	0.000061
C31	C	1.739922	0.119345	0.000088
C32	C	1.881517	0.121858	0.000087
C33	C	1.497429	0.277579	0.000059
C34	C	1.499953	0.370841	0.000049
N35	N	1.506713	0.124078	0.353117
N36	N	1.506752	0.124048	-0.352963
C37	C	1.416127	0.183150	0.450411
C38	C	1.531388	0.200146	0.549830
C39	C	1.391501	0.107089	0.549826
C40	C	1.622032	0.141112	0.450347
C41	C	1.482069	0.048022	0.450334
C42	C	1.597413	0.064986	0.549708
H43	H	1.071741	0.199101	0.225741
H44	H	1.552259	0.264453	0.593533
H45	H	1.284128	-0.305636	0.000179
C46	C	1.763385	-0.457062	0.000126
C47	C	1.759611	-0.544577	-0.001148
C48	C	1.884855	-0.584715	-0.001212
H49	H	1.806952	-0.441387	0.087037
H50	H	1.807332	-0.440607	-0.085989
H51	H	1.715682	-0.561025	0.084958
H52	H	1.716067	-0.560276	-0.088053
H53	H	1.928803	-0.568261	-0.087327
H54	H	1.928413	-0.569034	0.085700
H55	H	1.882312	-0.644098	-0.002091
H56	H	1.719502	0.155545	0.406834
H57	H	1.393285	-0.419405	0.225792
C58	C	1.261624	0.087763	0.608001
C59	C	1.235223	0.008705	0.555456
C60	C	1.115599	-0.009124	0.609026
H61	H	1.197228	0.129715	0.574037
H62	H	1.262793	0.087329	0.713959
H63	H	1.234044	0.009145	0.449520
H64	H	1.299587	-0.033264	0.589415
H65	H	1.116768	-0.009558	0.714985
H66	H	1.051213	0.032832	0.575059
H67	H	1.097675	-0.062769	0.573394
H68	H	1.620032	-0.332584	0.226030
C69	C	1.081776	0.210627	-0.260235
C70	C	1.142188	0.280990	-0.216760
C71	C	1.179646	0.323300	-0.343724
H72	H	1.008408	0.228506	-0.318665
H73	H	1.139600	0.173718	-0.317411
H74	H	1.084367	0.317893	-0.159609
H75	H	1.215570	0.263136	-0.158347
H76	H	1.237470	0.286391	-0.400900
H77	H	1.106271	0.341173	-0.402146
H78	H	1.220649	0.371042	-0.314244
C79	C	1.699879	-0.001539	0.607413
C80	C	1.820238	0.016630	0.556764
C81	C	1.914663	-0.044623	0.609912
H82	H	1.683228	-0.055453	0.571872
H83	H	1.698950	-0.001490	0.713376
H84	H	1.821164	0.016573	0.450822
H85	H	1.836930	0.070533	0.592301
H86	H	1.913734	-0.044574	0.715875
H87	H	1.898000	-0.098533	0.574367
H88	H	1.996339	-0.032299	0.575566
H89	H	0.898203	0.270090	-0.000090
C90	C	1.132443	-0.044133	0.000238
C91	C	1.208255	-0.056270	0.128510
C92	C	1.270459	-0.138345	0.128712
H93	H	1.185212	-0.052194	-0.085742
H94	H	1.070434	-0.083517	-0.000629
H95	H	1.270256	-0.016898	0.129363
H96	H	1.155517	-0.048226	0.214511
H97	H	1.208450	-0.177729	0.127845
H98	H	1.323221	-0.146399	0.042726
H99	H	1.321895	-0.146594	0.215748
H100	H	1.461162	-0.016264	0.406597
H101	H	1.339592	0.233152	0.406812
C102	C	0.931561	0.037386	0.260057
C103	C	0.870181	-0.032522	0.216320
C104	C	0.832662	-0.074945	0.343128
H105	H	0.874302	0.074370	0.317758
H106	H	1.005019	0.019032	0.318035
H107	H	0.796733	-0.014166	0.158366
H108	H	0.927416	-0.069525	0.158636
H109	H	0.906120	-0.093299	0.401106
H110	H	0.775407	-0.037954	0.400820
H111	H	0.791022	-0.122386	0.313470
H112	H	1.620073	-0.332436	-0.225606
C113	C	1.375803	-0.426052	-0.260041
C114	C	1.249550	-0.387619	-0.259472
C115	C	1.185494	-0.412525	-0.386428
H116	H	1.375239	-0.485587	-0.259661
H117	H	1.418551	-0.409468	-0.346936
H118	H	1.206814	-0.404209	-0.172600
H119	H	1.250077	-0.328085	-0.259874
H120	H	1.228241	-0.395940	-0.473323
H121	H	1.184939	-0.472059	-0.386036
H122	H	1.099829	-0.386446	-0.386066
H123	H	0.941743	0.048972	-0.225644
