data_functionalizedCrystal
_audit_creation_method	'MofGen! by Chris Wilmer'
_symmetry_space_group_name_H-M	'P1'
_symmetry_Int_Tables_number	1
_symmetry_cell_setting	triclinic
loop_
_symmetry_equiv_pos_as_xyz
  x,y,z
_cell_length_a	17.038272
_cell_length_b	27.731996
_cell_length_c	15.500227
_cell_angle_alpha	92.797931
_cell_angle_beta	86.956295
_cell_angle_gamma	86.866472
loop_
_atom_site_label
_atom_site_type_symbol
_atom_site_fract_x
_atom_site_fract_y
_atom_site_fract_z
O1	O	1.039770	0.102823	-0.071855
O2	O	1.539770	0.602823	0.428145
O3	O	0.812161	0.101156	-0.071880
O4	O	1.312161	0.601156	0.428120
O5	O	0.933055	0.031916	-0.071848
O6	O	1.433055	0.531916	0.428152
O7	O	0.918876	0.172063	-0.071887
O8	O	1.418876	0.672063	0.428113
O9	O	0.925719	0.036100	0.072039
O10	O	1.425719	0.536100	0.572039
O11	O	0.804825	0.105340	0.072007
O12	O	1.304825	0.605340	0.572007
O13	O	1.032434	0.107007	0.072032
O14	O	1.532434	0.607007	0.572032
Cu15	Cu	0.917960	0.106555	0.085157
Cu16	Cu	1.417960	0.606555	0.585157
Cu17	Cu	0.926635	0.101607	-0.085006
Cu18	Cu	1.426635	0.601607	0.414994
O19	O	0.911540	0.176247	0.072000
O20	O	1.411540	0.676247	0.572000
C21	C	0.779383	0.101733	0.000060
C22	C	1.279383	0.601733	0.500060
C23	C	0.692644	0.097212	0.000052
C24	C	1.192644	0.597212	0.500052
C25	C	0.642034	0.138715	0.000041
C26	C	1.142034	0.638715	0.500041
C27	C	0.560534	0.134465	0.000054
C28	C	1.060534	0.634465	0.500054
C29	C	0.529646	0.088711	0.000072
C30	C	1.029646	0.588711	0.500072
C31	C	0.580262	0.047205	0.000085
C32	C	1.080262	0.547205	0.500085
C33	C	0.661760	0.051456	0.000078
C34	C	1.161760	0.551456	0.500078
C35	C	0.284066	0.073695	0.000099
C36	C	0.784066	0.573695	0.500099
C37	C	0.202561	0.069447	0.000103
C38	C	0.702561	0.569447	0.500103
C39	C	0.182839	0.156707	0.000074
C40	C	0.682839	0.656707	0.500074
C41	C	0.264340	0.160954	0.000062
C42	C	0.764340	0.660954	0.500062
C43	C	0.314949	0.119448	0.000080
C44	C	0.814949	0.619448	0.500080
C45	C	0.446340	0.084366	0.000082
C46	C	0.946340	0.584366	0.500082
C47	C	0.398253	0.123794	0.000075
C48	C	0.898253	0.623794	0.500075
C49	C	0.929095	0.015987	0.000098
C50	C	1.429095	0.515987	0.500098
C51	C	0.928218	-0.037709	0.000107
C52	C	1.428218	0.462291	0.500107
C53	C	0.926698	-0.372960	-0.078369
C54	C	1.426698	0.127040	0.421631
C55	C	0.923367	-0.574771	-0.078384
C56	C	1.423367	-0.074771	0.421616
O57	O	0.926304	-0.602803	-0.145089
O58	O	1.426304	-0.102803	0.354911
N59	N	0.918955	-0.597726	0.000048
N60	N	1.418955	-0.097726	0.500048
C61	C	0.915369	-0.570226	0.078489
C62	C	1.415369	-0.070226	0.578489
O63	O	0.911532	-0.594381	0.145200
O64	O	1.411532	-0.094381	0.645200
C65	C	0.918695	-0.368415	0.078504
C66	C	1.418695	0.131585	0.578504
C67	C	0.923116	-0.345463	0.000067
C68	C	1.423116	0.154537	0.500067
C69	C	0.931118	-0.350007	-0.156799
C70	C	1.431118	0.149993	0.343201
C71	C	0.931955	-0.299558	-0.156795
C72	C	1.431955	0.200442	0.343205
C73	C	0.928372	-0.272061	-0.078359
C74	C	1.428372	0.227939	0.421641
C75	C	0.923953	-0.295013	0.000071
C76	C	1.423953	0.204987	0.500071
C77	C	0.915104	-0.340915	0.156944
C78	C	1.415104	0.159085	0.656944
C79	C	0.915934	-0.290459	0.156941
C80	C	1.415934	0.209541	0.656941
C81	C	0.920355	-0.267507	0.078504
C82	C	1.420355	0.232493	0.578504
C83	C	0.921207	-0.217067	0.078511
C84	C	1.421207	0.282933	0.578511
N85	N	0.925620	-0.194111	0.000080
N86	N	1.425620	0.305889	0.500080
C87	C	0.929202	-0.221608	-0.078356
C88	C	1.429202	0.278392	0.421644
C89	C	0.913625	-0.676179	0.078476
C90	C	1.413625	-0.176179	0.578476
C91	C	0.912795	-0.726632	0.078472
C92	C	1.412795	-0.226632	0.578472
C93	C	0.920792	-0.731173	-0.078401
C94	C	1.420792	-0.231173	0.421599
C95	C	0.921627	-0.680720	-0.078397
C96	C	1.421627	-0.180720	0.421603
C97	C	0.918038	-0.653224	0.000044
C98	C	1.418038	-0.153224	0.500044
C99	C	0.930960	-0.115660	-0.078340
C100	C	1.430960	0.384340	0.421660
C101	C	0.931800	-0.065206	-0.078328
C102	C	1.431800	0.434794	0.421672
C103	C	0.923800	-0.060669	0.078545
C104	C	1.423800	0.439331	0.578545
C105	C	0.922964	-0.111118	0.078534
C106	C	1.422964	0.388882	0.578534
C107	C	0.926542	-0.138613	0.000084
C108	C	1.426542	0.361387	0.500084
O109	O	0.918264	-0.189005	0.145181
O110	O	1.418264	0.310995	0.645181
O111	O	0.933022	-0.197443	-0.145057
O112	O	1.433022	0.302557	0.354943
C113	C	0.925861	-0.423410	-0.078373
C114	C	1.425861	0.076590	0.421627
C115	C	0.921442	-0.446362	0.000057
C116	C	1.421442	0.053638	0.500057
C117	C	0.917859	-0.418865	0.078493
C118	C	1.417859	0.081135	0.578493
C119	C	0.920612	-0.496815	0.000054
C120	C	1.420612	0.003185	0.500054
C121	C	0.924194	-0.524312	-0.078381
C122	C	1.424194	-0.024312	0.421619
C123	C	0.928607	-0.501356	-0.156813
C124	C	1.428607	-0.001356	0.343187
C125	C	0.929444	-0.450907	-0.156809
C126	C	1.429444	0.049093	0.343191
C127	C	0.913447	-0.441820	0.156925
C128	C	1.413447	0.058180	0.656925
C129	C	0.912611	-0.492270	0.156913
C130	C	1.412611	0.007730	0.656913
C131	C	0.916193	-0.519767	0.078478
C132	C	1.416193	-0.019767	0.578478
C133	C	1.065212	0.106430	0.000089
C134	C	1.565212	0.606430	0.500089
C135	C	1.151951	0.110950	0.000092
C136	C	1.651951	0.610950	0.500092
C137	C	0.915500	0.192175	0.000051
C138	C	1.415500	0.692175	0.500051
C139	C	0.916378	0.245871	0.000037
C140	C	1.416378	0.745871	0.500037
N141	N	0.911864	0.110035	0.204841
N142	N	1.411864	0.610035	0.704841
N143	N	0.932738	0.098123	-0.204689
N144	N	1.432738	0.598123	0.295311
C145	C	0.963108	0.080708	0.250131
C146	C	1.463108	0.580708	0.750131
C147	C	0.958505	0.083345	0.340702
C148	C	1.458505	0.583345	0.840702
C149	C	0.902660	0.115312	0.385982
C150	C	1.402660	0.615312	0.885982
C151	C	0.851410	0.144640	0.340686
C152	C	1.351410	0.644640	0.840686
C153	C	0.856010	0.142001	0.250116
C154	C	1.356010	0.642001	0.750116
C155	C	0.886088	0.124812	0.659445
C156	C	1.386088	0.624812	1.159445
C157	C	0.881493	0.127451	0.750021
C158	C	1.381493	0.627451	1.250021
C159	C	0.988588	0.066155	0.750031
C160	C	1.488588	0.566155	1.250031
C161	C	0.993186	0.063520	0.659460
C162	C	1.493186	0.563520	1.159460
C163	C	0.941933	0.092846	0.614171
C164	C	1.441933	0.592846	1.114171
C165	C	0.897955	0.118009	0.478561
C166	C	1.397955	0.618009	0.978561
C167	C	0.946635	0.090147	0.521594
C168	C	1.446635	0.590147	1.021594
H169	H	0.667177	0.175972	0.000026
H170	H	1.167177	0.675972	0.500026
H171	H	0.519330	0.168261	0.000044
H172	H	1.019330	0.668261	0.500044
H173	H	0.923710	-0.753570	-0.142266
H174	H	1.423710	-0.253570	0.357734
H175	H	1.000232	0.059464	0.377577
H176	H	1.500232	0.559464	0.877577
H177	H	1.038659	0.037490	0.622595
H178	H	1.538659	0.537490	1.122595
H179	H	0.555106	0.009952	0.000112
H180	H	1.055106	0.509952	0.500112
H181	H	0.934033	-0.372390	-0.220674
H182	H	1.434033	0.127610	0.279326
H183	H	0.325262	0.039898	0.000114
H184	H	0.825262	0.539898	0.500114
H185	H	0.933870	-0.138041	-0.142221
H186	H	1.433870	0.361959	0.357779
H187	H	0.805936	0.170666	0.377558
H188	H	1.305936	0.670666	0.877558
H189	H	0.421180	0.047114	0.000121
H190	H	0.921180	0.547114	0.500121
H191	H	0.910706	-0.653796	0.142355
H192	H	1.410706	-0.153796	0.642355
H193	H	0.925226	-0.662036	-0.142267
H194	H	1.425226	-0.162036	0.357733
H195	H	0.909017	-0.510954	0.220791
H196	H	1.409017	-0.010954	0.720791
H197	H	0.920886	-0.038272	0.142405
H198	H	1.420886	0.461728	0.642405
H199	H	1.030314	0.042278	0.786914
H200	H	1.530314	0.542278	1.286914
H201	H	0.931528	-0.523753	-0.220678
H202	H	1.431528	-0.023753	0.279322
H203	H	0.702967	0.017660	0.000087
H204	H	1.202967	0.517660	0.500087
H205	H	0.910530	-0.419437	0.220797
H206	H	1.410530	0.080563	0.720797
H207	H	0.909207	-0.745315	0.142344
H208	H	1.409207	-0.245315	0.642344
H209	H	0.911505	-0.359594	0.220816
H210	H	1.411505	0.140406	0.720816
H211	H	0.423406	0.161046	0.000065
H212	H	0.923406	0.661046	0.500065
H213	H	0.935402	-0.046521	-0.142204
H214	H	1.435402	0.453479	0.357796
H215	H	0.992101	0.064117	0.484725
H216	H	1.492101	0.564117	0.984725
H217	H	0.852486	0.144038	0.515435
H218	H	1.352486	0.644038	1.015435
H219	H	0.177416	0.032187	0.000117
H220	H	0.677416	0.532187	0.500117
H221	H	0.935552	-0.280875	-0.220666
H222	H	1.435552	0.219125	0.279334
H223	H	0.912999	-0.268074	0.220818
H224	H	1.412999	0.231926	0.720818
H225	H	1.008586	0.054680	0.213270
H226	H	1.508586	0.554680	0.713270
H227	H	0.836015	0.153484	0.786884
H228	H	1.336015	0.653484	1.286884
H229	H	0.919371	-0.129807	0.142403
H230	H	1.419371	0.370193	0.642403
H231	H	0.933043	-0.432224	-0.220680
H232	H	1.433043	0.067776	0.279320
H233	H	0.844357	0.148692	0.622578
H234	H	1.344357	0.648692	1.122578
H235	H	0.141625	0.190499	0.000061
H236	H	0.641625	0.690499	0.500061
H237	H	0.814281	0.165881	0.213241
H238	H	1.314281	0.665881	0.713241
H239	H	0.289483	0.198211	0.000037
H240	H	0.789483	0.698211	0.500037
