data_functionalizedCrystal
_audit_creation_method	'MofGen! by Chris Wilmer'
_symmetry_space_group_name_H-M	'P1'
_symmetry_Int_Tables_number	1
_symmetry_cell_setting	triclinic
loop_
_symmetry_equiv_pos_as_xyz
  x,y,z
_cell_length_a	11.026607
_cell_length_b	11.026607
_cell_length_c	9.482900
_cell_angle_alpha	101.400185
_cell_angle_beta	78.636152
_cell_angle_gamma	108.586017
loop_
_atom_site_label
_atom_site_type_symbol
_atom_site_fract_x
_atom_site_fract_y
_atom_site_fract_z
O1	O	1.742236	0.518010	-0.120892
O2	O	1.375656	0.457246	-0.120894
O3	O	1.528564	0.304339	-0.120888
O4	O	1.589328	0.670917	-0.120898
O5	O	1.497539	0.335557	0.120903
O6	O	1.344632	0.488465	0.120897
O7	O	1.711212	0.549228	0.120899
Cu8	Cu	1.525089	0.521697	0.142976
Cu9	Cu	1.561779	0.484778	-0.142971
O10	O	1.558304	0.702136	0.120893
C11	C	1.312485	0.461645	0.000001
C12	C	1.170471	0.428228	0.000000
C13	C	1.116822	0.520498	-0.000003
C14	C	0.970043	0.485962	-0.000004
C15	C	1.501842	0.272288	0.000006
C16	C	1.468426	0.130273	0.000000
C17	C	1.560695	0.076624	-0.000001
C18	C	1.526161	-0.070155	-0.000007
C19	C	1.774384	0.544829	0.000001
C20	C	1.916399	0.578244	-0.000008
C21	C	1.585026	0.734186	-0.000004
C22	C	1.618444	0.876199	-0.000008
N23	N	1.499293	0.547665	0.344095
N24	N	1.587583	0.458801	-0.344090
C25	C	1.554160	0.492428	0.416296
C26	C	1.532708	0.514046	0.583713
H27	H	1.665257	0.139358	0.000009
H28	H	1.179554	0.625061	0.000002
O29	O	1.629333	0.417037	0.342383
C30	C	1.755300	0.469856	0.379456
H31	H	1.751875	0.533172	0.489996
H32	H	1.796232	0.388282	0.384540
H33	H	1.819654	0.530822	0.293811
H34	H	1.469843	0.577340	0.645835
O35	O	1.662221	0.382937	0.581802
C36	C	1.587583	0.278213	0.494017
H37	H	1.502177	0.304722	0.471239
H38	H	1.649857	0.255425	0.386969
H39	H	1.550362	0.189811	0.552857
H40	H	1.421592	-0.132886	-0.000017
H41	H	1.723028	-0.061087	-0.000117
H42	H	1.363864	0.067539	-0.000010
H43	H	1.436432	0.610955	0.406222
O44	O	0.895240	0.361223	0.000254
C45	C	0.905521	0.316381	0.125460
H46	H	0.937006	0.402269	0.212987
H47	H	0.807704	0.250101	0.167493
H48	H	0.980162	0.260515	0.097147
O49	O	0.991303	0.702946	-0.000287
C50	C	1.085174	0.711576	-0.125502
H51	H	1.050341	0.626833	-0.213009
H52	H	1.101194	0.806261	-0.167560
H53	H	1.179893	0.708613	-0.097191
H54	H	1.107742	0.323661	-0.000034
