data_functionalizedCrystal
_audit_creation_method	'MofGen! by Chris Wilmer'
_symmetry_space_group_name_H-M	'P1'
_symmetry_Int_Tables_number	1
_symmetry_cell_setting	triclinic
loop_
_symmetry_equiv_pos_as_xyz
  x,y,z
_cell_length_a	8.497374
_cell_length_b	17.077404
_cell_length_c	17.077402
_cell_angle_alpha	89.976892
_cell_angle_beta	89.987778
_cell_angle_gamma	90.003463
loop_
_atom_site_label
_atom_site_type_symbol
_atom_site_fract_x
_atom_site_fract_y
_atom_site_fract_z
Zn1	Zn	0.891988	1.199930	0.312640
Zn2	Zn	0.628173	1.199874	0.443874
Zn3	Zn	0.628207	1.068699	0.312627
Zn4	Zn	0.891897	1.068630	0.443868
O5	O	0.760066	1.134283	0.378252
O6	O	0.857016	1.309770	0.330056
O7	O	0.407415	1.182479	0.426461
O8	O	0.663251	1.086159	0.202782
O9	O	0.663193	1.309729	0.426474
O10	O	0.857049	1.182574	0.202791
O11	O	0.407440	1.086105	0.330034
O12	O	0.663162	0.958843	0.330028
O13	O	1.112671	1.086042	0.426463
O14	O	0.856894	0.958792	0.426450
O15	O	1.112738	1.182508	0.330050
O16	O	0.663104	1.182412	0.553720
O17	O	0.856861	1.085988	0.553716
C18	C	0.760023	0.930336	0.378238
C19	C	0.760042	0.843086	0.378251
C20	C	0.860756	0.802090	0.428533
C21	C	0.860781	0.720109	0.428535
C22	C	0.760083	0.679126	0.378257
C23	C	0.659364	0.720128	0.327969
C24	C	0.659348	0.802107	0.327964
C25	C	0.659402	0.549258	0.327985
C26	C	0.659416	0.467273	0.327991
C27	C	0.860835	0.467260	0.428556
C28	C	0.860819	0.549239	0.428551
C29	C	0.760098	0.590235	0.378263
C30	C	0.760003	1.134208	0.582200
C31	C	0.760029	1.134247	0.669450
C32	C	1.171547	1.134278	0.378253
C33	C	1.350191	1.134279	0.378262
C34	C	0.760111	1.339028	0.378267
C35	C	0.760130	1.426277	0.378273
C36	C	0.760164	1.134381	0.173508
C37	C	0.760206	1.134422	0.086258
C38	C	0.659248	1.184506	0.710416
C39	C	0.659289	1.184545	0.792397
C40	C	0.760103	1.134319	0.833409
C41	C	0.860895	1.084058	0.792437
C42	C	0.860861	1.084024	0.710458
C43	C	0.860955	1.084130	0.963307
C44	C	0.860986	1.084163	1.045291
C45	C	0.659382	1.184651	1.045246
C46	C	0.659349	1.184618	0.963267
C47	C	0.760139	1.134355	0.922300
H48	H	0.577398	0.582634	0.287028
H49	H	0.577251	1.225511	0.929875
C50	C	0.548599	0.675053	0.272662
H51	H	0.488626	0.711212	0.242709
H52	H	0.479758	0.643057	0.302635
H53	H	0.609088	0.643090	0.238507
C54	C	0.548353	1.239757	0.665310
H55	H	0.488350	1.269700	0.701452
H56	H	0.479545	1.209749	0.633367
H57	H	0.608764	1.273923	0.633291
C58	C	0.548566	0.847202	0.272652
H59	H	0.488587	0.811055	0.242713
H60	H	0.609036	0.879197	0.238497
H61	H	0.479705	0.879168	0.302625
C62	C	0.548496	1.239930	1.090305
H63	H	0.562957	1.232762	1.145003
H64	H	0.442483	1.228468	1.076896
H65	H	0.571658	1.292664	1.076826
C66	C	0.548422	1.239826	0.837457
H67	H	0.488362	1.269726	0.801290
H68	H	0.608837	1.274020	0.869396
H69	H	0.479642	1.209834	0.869475
C70	C	0.971876	1.028918	1.090408
H71	H	0.957441	1.036131	1.145098
H72	H	1.077891	1.040355	1.076948
H73	H	0.948680	0.976177	1.077019
C74	C	0.548641	0.422189	0.272695
H75	H	0.563061	0.367495	0.279912
H76	H	0.571904	0.435634	0.219967
H77	H	0.442599	0.435617	0.284107
H78	H	0.943034	1.043203	0.929955
H79	H	0.942929	1.043098	0.677104
H80	H	0.942751	0.835452	0.469478
C81	C	0.971585	0.594320	0.483854
H82	H	1.031584	0.558164	0.513798
H83	H	0.911109	0.626285	0.518004
H84	H	1.040426	0.626313	0.453870
C85	C	0.971635	0.422169	0.483866
H86	H	0.957240	0.367475	0.476663
H87	H	0.948353	0.435582	0.536589
H88	H	1.077675	0.435620	0.472457
C89	C	0.971796	1.028812	0.837545
H90	H	1.031825	0.998880	0.801403
H91	H	0.911405	0.994647	0.869566
H92	H	1.040606	1.058830	0.869484
H93	H	0.942791	0.686734	0.469481
