data_functionalizedCrystal
_audit_creation_method	'MofGen! by Chris Wilmer'
_symmetry_space_group_name_H-M	'P1'
_symmetry_Int_Tables_number	1
_symmetry_cell_setting	triclinic
loop_
_symmetry_equiv_pos_as_xyz
  x,y,z
_cell_length_a	11.026607
_cell_length_b	10.065875
_cell_length_c	11.026607
_cell_angle_alpha	100.731764
_cell_angle_beta	108.586017
_cell_angle_gamma	79.303208
loop_
_atom_site_label
_atom_site_type_symbol
_atom_site_fract_x
_atom_site_fract_y
_atom_site_fract_z
O1	O	1.741282	-0.113460	0.518969
O2	O	1.374703	-0.113469	0.458205
O3	O	1.527611	-0.113460	0.305298
O4	O	1.588375	-0.113469	0.671877
O5	O	1.498486	0.113527	0.334605
O6	O	1.345579	0.113518	0.487512
O7	O	1.712158	0.113527	0.548277
Zn8	Zn	1.524244	0.149562	0.522547
Zn9	Zn	1.562617	-0.149504	0.483934
O10	O	1.559251	0.113518	0.701184
C11	C	1.312482	0.000024	0.461648
C12	C	1.170468	0.000020	0.428231
C13	C	1.501839	0.000031	0.272291
C14	C	1.468423	0.000026	0.130277
N15	N	1.498065	0.353666	0.548901
C16	C	1.774380	0.000031	0.544833
C17	C	1.916395	0.000026	0.578249
C18	C	1.970044	0.000026	0.485979
C19	C	2.116823	0.000020	0.520514
N20	N	1.588804	-0.353608	0.457572
C21	C	1.553499	0.421448	0.493094
C22	C	1.533362	0.578614	0.513388
C23	C	1.560692	0.000026	0.076627
C24	C	1.526157	0.000020	-0.070152
C25	C	1.585023	0.000024	0.734190
C26	C	1.618440	0.000020	0.876203
H27	H	1.907307	0.000051	0.381420
H28	H	1.470986	0.636931	0.576190
N29	N	1.394968	0.000004	-0.148815
N30	N	1.335200	-0.095676	-0.153167
H31	H	1.242548	-0.095687	-0.208721
N32	N	1.749619	0.000015	-0.045100
N33	N	1.777491	0.000017	0.074023
H34	H	1.870135	0.000014	0.129605
N35	N	1.337254	0.000005	0.051570
N36	N	1.309387	-0.000006	-0.067554
H37	H	1.216747	-0.000022	-0.123141
H38	H	2.179552	0.000023	0.625084
N39	N	1.667033	0.573226	0.378771
N40	N	1.683277	0.445658	0.362389
H41	H	1.738524	0.393982	0.306735
N42	N	2.091788	0.000060	0.297050
N43	N	2.002773	0.095754	0.266812
H44	H	1.947205	0.095787	0.174166
H45	H	1.665254	0.000037	0.139362
H46	H	1.979127	0.000029	0.682812
H47	H	1.615860	0.363127	0.430284
H48	H	1.435692	0.411988	0.611699
