data_functionalizedCrystal
_audit_creation_method	'MofGen! by Chris Wilmer'
_symmetry_space_group_name_H-M	'P1'
_symmetry_Int_Tables_number	1
_symmetry_cell_setting	triclinic
loop_
_symmetry_equiv_pos_as_xyz
  x,y,z
_cell_length_a	12.645331
_cell_length_b	12.759400
_cell_length_c	12.759393
_cell_angle_alpha	89.968436
_cell_angle_beta	90.021878
_cell_angle_gamma	89.986337
loop_
_atom_site_label
_atom_site_type_symbol
_atom_site_fract_x
_atom_site_fract_y
_atom_site_fract_z
Zn1	Zn	1.620745	0.418233	0.594076
Zn2	Zn	1.620639	0.593952	0.418396
Zn3	Zn	1.443462	0.418284	0.418405
Zn4	Zn	1.443451	0.593867	0.594027
O5	O	1.532074	0.506084	0.506226
O6	O	1.769078	0.441556	0.570789
O7	O	1.597096	0.570706	0.271376
O8	O	1.467028	0.271256	0.441732
O9	O	1.769000	0.570656	0.441717
O10	O	1.597277	0.271219	0.570797
O11	O	1.466925	0.441644	0.271383
O12	O	1.295113	0.441562	0.441685
O13	O	1.467009	0.570512	0.741055
O14	O	1.295105	0.570562	0.570714
O15	O	1.597266	0.441474	0.741091
O16	O	1.597085	0.740962	0.441670
O17	O	1.466906	0.740900	0.570705
C18	C	1.256644	0.506059	0.506196
C19	C	1.138814	0.506074	0.506208
C20	C	1.532011	0.779051	0.506204
C21	C	1.532081	0.895828	0.506230
C22	C	1.532148	0.505978	0.780260
C23	C	1.532180	0.505933	0.897036
C24	C	0.971220	0.424546	0.425484
C25	C	1.093780	0.424757	0.425128
C26	C	1.094300	0.616752	0.475963
C27	C	0.971702	0.616307	0.475412
C28	C	0.971662	0.477976	0.617489
C29	C	1.094268	0.475504	0.616871
C30	C	1.808579	0.506110	0.506257
C31	C	1.926409	0.506121	0.506271
C32	C	1.532166	0.232051	0.506271
C33	C	1.532205	0.115274	0.506290
C34	C	1.599941	0.950687	0.439116
C35	C	1.600006	1.060412	0.439148
C36	C	1.464343	1.060407	0.573412
C37	C	1.464284	0.950685	0.573384
C38	C	1.667738	0.895831	0.371961
C39	C	1.735602	0.950690	0.304841
C40	C	1.735667	1.060414	0.304873
C41	C	1.667868	1.115279	0.372026
C42	C	1.532061	0.506114	0.233259
C43	C	1.532235	0.505863	0.116483
C44	C	1.600014	0.438737	0.951919
C45	C	1.600040	0.438699	1.061643
C46	C	1.464393	0.573062	1.061593
C47	C	1.464363	0.573094	0.951871
C48	C	1.667831	0.371575	0.897085
C49	C	1.735672	0.304374	0.951967
C50	C	1.735697	0.304336	1.061691
C51	C	1.667881	0.371499	1.116533
H52	H	0.941751	0.342228	0.444238
O53	O	1.668036	1.221865	0.371899
C54	C	1.742619	1.379324	0.298329
C55	C	1.742521	1.258620	0.298353
H56	H	1.802849	1.409077	0.238890
H57	H	1.660586	1.409258	0.276402
H58	H	1.764543	1.408997	0.379746
H59	H	1.720642	1.228857	0.216961
H60	H	1.824563	1.228757	0.320340
H61	H	1.790808	0.906014	0.250173
H62	H	1.409143	1.105086	0.628084
H63	H	0.940374	0.442943	0.343551
H64	H	1.409028	0.906018	0.628036
O65	O	1.801392	0.239078	0.898586
C66	C	1.815669	0.097227	0.774794
C67	C	1.741123	0.171129	0.835159
H68	H	1.766970	0.042257	0.723516
H69	H	1.871056	0.145423	0.723350
H70	H	1.864175	0.049239	0.832893
H71	H	1.692548	0.219133	0.777136
H72	H	1.685805	0.122872	0.886618
O73	O	1.398361	0.638229	0.898515
C74	C	1.255233	0.652411	0.774577
C75	C	1.329903	0.578523	0.834949
H76	H	1.199881	0.604168	0.723153
H77	H	1.206706	0.700390	0.832579
H78	H	1.303894	0.707389	0.723249
H79	H	1.281324	0.523481	0.886278
H80	H	1.378433	0.530617	0.776890
O81	O	1.129514	0.326767	0.447666
C82	C	1.083381	0.148274	0.489126
C83	C	1.042776	0.259205	0.463620
H84	H	1.013274	0.093625	0.502054
H85	H	1.133207	0.118096	0.421083
H86	H	1.133736	0.151001	0.563205
H87	H	0.992378	0.256566	0.389572
H88	H	0.993008	0.289340	0.531723
H89	H	1.790928	0.249610	1.106374
O90	O	1.129147	0.691323	0.543799
C91	C	1.226680	0.852085	0.565446
C92	C	1.187260	0.767724	0.488505
H93	H	1.273691	0.913865	0.520775
H94	H	1.156093	0.890686	0.605408
H95	H	1.279502	0.814109	0.627141
H96	H	1.134457	0.805619	0.426750
H97	H	1.257895	0.729130	0.448623
O98	O	1.128542	0.447012	0.326759
C99	C	1.080650	0.487104	0.148374
C100	C	1.041140	0.461934	0.259738
H101	H	1.010006	0.499154	0.094152
H102	H	1.130477	0.561533	0.150201
H103	H	1.130731	0.419179	0.118310
H104	H	0.991016	0.529794	0.289870
H105	H	0.991370	0.387471	0.257846
O106	O	1.398630	0.638274	1.115025
C107	C	1.338526	0.697736	1.284038
C108	C	1.413071	0.623842	1.223659
H109	H	1.350160	0.686078	1.371879
H110	H	1.357112	0.782482	1.262521
H111	H	1.253056	0.679299	1.262401
H112	H	1.498566	0.642185	1.245263
H113	H	1.394394	0.539118	1.245181
H114	H	1.124958	0.641029	0.395529
H115	H	0.943059	0.640173	0.394106
H116	H	0.942060	0.679144	0.531688
H117	H	0.940761	0.398678	0.644994
H118	H	1.123367	0.394057	0.639677
H119	H	1.124927	0.530584	0.680282
H120	H	1.667895	0.371451	1.205878
H121	H	0.942685	0.537391	0.677682
H122	H	1.667690	0.806488	0.371924
H123	H	1.667820	0.371601	0.807742
H124	H	1.790933	1.105078	0.250228
