data_functionalizedCrystal
_audit_creation_method	'MofGen! by Chris Wilmer'
_symmetry_space_group_name_H-M	'P1'
_symmetry_Int_Tables_number	1
_symmetry_cell_setting	triclinic
loop_
_symmetry_equiv_pos_as_xyz
  x,y,z
_cell_length_a	11.169417
_cell_length_b	16.120444
_cell_length_c	11.169409
_cell_angle_alpha	92.861568
_cell_angle_beta	89.979747
_cell_angle_gamma	92.927659
loop_
_atom_site_label
_atom_site_type_symbol
_atom_site_fract_x
_atom_site_fract_y
_atom_site_fract_z
Zn1	Zn	1.810617	-0.331812	-0.702701
Zn2	Zn	1.800269	-0.471255	-0.512175
Zn3	Zn	1.609896	-0.331864	-0.502040
Zn4	Zn	1.599680	-0.471189	-0.712816
O5	O	1.705115	-0.401530	-0.607433
O6	O	1.977193	-0.350316	-0.677436
O7	O	1.774960	-0.452814	-0.342884
O8	O	1.645128	-0.215191	-0.520184
O9	O	1.969591	-0.452764	-0.537457
O10	O	1.792597	-0.215153	-0.667609
O11	O	1.635094	-0.350404	-0.335438
O12	O	1.440592	-0.350339	-0.529992
O13	O	1.627717	-0.452650	-0.879420
O14	O	1.433086	-0.452700	-0.684848
O15	O	1.782691	-0.350251	-0.871989
O16	O	1.765054	-0.587912	-0.547264
O17	O	1.617682	-0.587863	-0.694675
C18	C	1.393292	-0.401519	-0.607418
C19	C	1.259890	-0.401534	-0.607442
C20	C	1.689169	-0.618138	-0.623193
C21	C	1.682457	-0.710803	-0.629975
C22	C	1.740228	-0.921749	-0.572507
C23	C	1.670225	-0.880459	-0.642371
C24	C	1.677033	-0.786054	-0.635472
C25	C	1.733422	-1.016163	-0.579405
C26	C	2.018157	-0.401542	-0.607448
C27	C	2.151556	-0.401547	-0.607455
C28	C	1.705218	-0.401438	-0.920469
C29	C	1.705262	-0.401398	-1.053866
C30	C	1.721157	-0.184076	-0.591638
C31	C	1.727992	-0.091411	-0.584907
C32	C	1.705086	-0.401562	-0.295611
C33	C	1.705292	-0.401366	-0.162197
H34	H	1.605180	-0.916011	-0.707364
N35	N	1.826379	-0.874660	-0.486421
H36	H	1.780171	-0.838598	-0.428185
H37	H	1.872134	-0.915416	-0.440832
