data_functionalizedCrystal
_audit_creation_method	'MofGen! by Chris Wilmer'
_symmetry_space_group_name_H-M	'P1'
_symmetry_Int_Tables_number	1
_symmetry_cell_setting	triclinic
loop_
_symmetry_equiv_pos_as_xyz
  x,y,z
_cell_length_a	27.731994
_cell_length_b	10.540539
_cell_length_c	9.016244
_cell_angle_alpha	89.999933
_cell_angle_beta	89.998773
_cell_angle_gamma	83.573013
loop_
_atom_site_label
_atom_site_type_symbol
_atom_site_fract_x
_atom_site_fract_y
_atom_site_fract_z
O1	O	0.641895	0.150693	-0.123123
O2	O	0.501243	0.173729	-0.123171
O3	O	0.574778	-0.022637	-0.123144
O4	O	0.568360	0.347058	-0.123150
O5	O	0.574767	-0.022632	0.123537
O6	O	0.501232	0.173733	0.123510
O7	O	0.641885	0.150698	0.123558
Cu8	Cu	0.571558	0.162216	0.146058
Cu9	Cu	0.571570	0.162211	-0.145671
O10	O	0.568350	0.347063	0.123531
C11	C	0.574292	-0.069916	0.000194
C12	C	0.572852	-0.210801	0.000185
C13	C	0.483227	0.173258	0.000163
C14	C	0.429562	0.171834	0.000145
C15	C	0.517675	-0.391803	-0.000387
C16	C	0.519135	-0.245249	0.000168
C17	C	0.598696	-0.273592	0.141061
C18	C	0.596863	-0.420055	0.141179
C19	C	0.597968	-0.420627	-0.139343
C20	C	0.598463	-0.273667	-0.141205
C21	C	0.096781	0.162868	0.134668
C22	C	-0.104911	0.157455	0.134685
O23	O	-0.130993	0.156702	0.249042
N24	N	-0.130124	0.156780	0.000219
C25	C	-0.104911	0.157450	-0.134260
O26	O	-0.130983	0.156738	-0.248631
C27	C	0.096781	0.162854	-0.134276
C28	C	0.121991	0.163542	0.000199
C29	C	0.121991	0.163554	0.269131
C30	C	0.172411	0.164914	0.269125
C31	C	0.197621	0.165588	0.134656
C32	C	0.172411	0.164902	0.000193
C33	C	0.121994	0.163515	-0.268754
C34	C	0.172420	0.164863	-0.268745
C35	C	0.197630	0.165551	-0.134271
C36	C	0.248040	0.166936	-0.134282
N37	N	0.273253	0.167611	0.000184
C38	C	0.248044	0.166937	0.134653
C39	C	-0.210802	0.154615	-0.134243
C40	C	-0.261225	0.153266	-0.134239
C41	C	-0.261221	0.153269	0.134706
C42	C	-0.210798	0.154627	0.134701
C43	C	-0.185589	0.155290	0.000223
C44	C	0.353929	0.169795	0.134631
C45	C	0.404353	0.171160	0.134614
C46	C	0.404345	0.171151	-0.134331
C47	C	0.353925	0.169792	-0.134314
C48	C	0.328718	0.169110	0.000179
O49	O	0.274154	0.167675	-0.248579
O50	O	0.274126	0.167620	0.249007
C51	C	0.046362	0.161508	0.134673
C52	C	0.021152	0.160821	0.000210
C53	C	0.046361	0.161495	-0.134259
C54	C	-0.029271	0.159473	0.000213
C55	C	-0.054481	0.158799	0.134682
C56	C	-0.029268	0.159474	0.269148
C57	C	0.021152	0.160834	0.269142
C58	C	0.021148	0.160820	-0.268725
C59	C	-0.029272	0.159462	-0.268708
C60	C	-0.054481	0.158788	-0.134239
C61	C	0.659900	0.151168	0.000221
C62	C	0.713566	0.152592	0.000230
C63	C	0.568836	0.394343	0.000190
C64	C	0.570276	0.535227	0.000189
N65	N	0.571552	0.162219	0.351244
N66	N	0.571580	0.162197	-0.350857
C67	C	0.532095	0.266920	0.586262
C68	C	0.532182	0.267302	0.414371
C69	C	0.622086	0.190133	0.413599
C70	C	0.621870	0.190871	0.585544
C71	C	0.560977	0.029245	0.585785
C72	C	0.559818	0.030161	0.413831
H73	H	0.498798	-0.201754	-0.100817
F74	F	0.650258	-0.246641	0.147930
H75	H	0.192933	0.165467	0.378628
F76	F	0.540891	0.395186	0.642695
H77	H	0.494635	0.250821	0.372214
H78	H	0.041674	0.161394	0.378645
H79	H	0.496538	-0.421080	0.100057
H80	H	0.652186	0.115847	0.372706
F81	F	0.594920	-0.076368	0.357687
H82	H	-0.049802	0.158931	0.378637
F83	F	0.598606	-0.072602	0.638934
H84	H	0.494430	0.250723	0.627643
H85	H	0.580587	-0.451418	-0.246117
H86	H	0.652194	0.117549	0.627138
H87	H	0.524907	0.002151	0.629221
F88	F	0.633990	0.317565	0.637951
H89	H	0.579552	-0.231980	-0.245421
F90	F	0.649653	-0.244252	-0.152316
H91	H	0.631566	0.285954	0.370524
F92	F	0.541074	0.396302	0.360584
H93	H	0.580734	-0.230201	0.245883
F94	F	0.492354	-0.189486	0.132363
H95	H	0.577753	-0.447414	0.246473
H96	H	0.496460	-0.419473	-0.101412
F97	F	0.647357	-0.484976	0.149565
H98	H	0.636767	-0.469558	-0.140277
F99	F	0.431180	0.171897	0.277746
F100	F	0.095169	0.162840	0.412264
F101	F	0.327109	0.169066	0.277774
F102	F	-0.183972	0.155356	0.277825
H103	H	-0.281747	0.152727	-0.243742
F104	F	-0.288060	0.152551	0.277819
F105	F	0.327093	0.169081	-0.277436
F106	F	0.431184	0.171865	-0.277435
H107	H	-0.190281	0.155154	-0.243757
F108	F	0.511227	0.002438	0.360565
F109	F	0.095175	0.162780	-0.411882
H110	H	0.192943	0.165404	-0.378257
H111	H	-0.049794	0.158912	-0.378222
H112	H	0.041669	0.161365	-0.378228
