data_functionalizedCrystal
_audit_creation_method	'MofGen! by Chris Wilmer'
_symmetry_space_group_name_H-M	'P1'
_symmetry_Int_Tables_number	1
_symmetry_cell_setting	triclinic
loop_
_symmetry_equiv_pos_as_xyz
  x,y,z
_cell_length_a	14.971498
_cell_length_b	14.853569
_cell_length_c	13.330367
_cell_angle_alpha	89.997749
_cell_angle_beta	89.995414
_cell_angle_gamma	83.627280
loop_
_atom_site_label
_atom_site_type_symbol
_atom_site_fract_x
_atom_site_fract_y
_atom_site_fract_z
O1	O	1.186961	0.117532	-0.083412
O2	O	0.926565	0.131590	-0.083418
O3	O	1.063718	-0.006670	-0.083405
O4	O	1.049809	0.255791	-0.083425
O5	O	1.063704	-0.006664	0.083442
O6	O	0.926551	0.131595	0.083429
O7	O	1.186947	0.117537	0.083435
Cu8	Cu	1.056747	0.124567	0.098666
Cu9	Cu	1.056765	0.124560	-0.098650
O10	O	1.049794	0.255797	0.083422
C11	C	1.063080	-0.040256	0.000018
C12	C	1.061191	-0.140339	0.000019
C13	C	0.893233	0.130962	0.000005
C14	C	0.793937	0.129072	0.000003
C15	C	1.220279	0.118165	0.000009
C16	C	1.319576	0.120055	0.000005
C17	C	0.978833	-0.176704	0.000019
C18	C	1.141774	-0.198016	0.000012
C19	C	1.140002	-0.292050	0.000008
C20	C	1.057644	-0.328415	0.000008
C21	C	0.977058	-0.270746	0.000012
C22	C	1.220586	-0.349726	-0.000007
C23	C	1.218817	-0.443766	-0.000013
C24	C	1.136458	-0.480133	-0.000005
C25	C	1.055869	-0.422458	0.000000
C26	C	0.973510	-0.458823	0.000000
C27	C	0.892920	-0.401149	0.000013
C28	C	0.894698	-0.307113	0.000019
C29	C	1.134679	-0.574169	-0.000011
C30	C	0.971735	-0.552865	-0.000007
C31	C	1.366228	0.120941	-0.090945
C32	C	1.459529	0.122709	-0.090946
C33	C	1.506175	0.123598	0.000003
C34	C	1.459516	0.122709	0.090960
C35	C	1.366218	0.120934	0.090960
C36	C	1.653979	0.126410	0.090953
C37	C	1.747284	0.128186	0.090953
C38	C	1.747291	0.128184	-0.090953
C39	C	1.653992	0.126410	-0.090953
C40	C	1.607340	0.125523	0.000004
C41	C	1.050432	0.289383	-0.000004
C42	C	1.052321	0.389466	-0.000011
N43	N	1.056742	0.124571	0.237448
C44	C	0.996002	0.185774	0.289968
C45	C	1.117487	0.063365	0.289956
C46	C	1.117495	0.063363	0.394975
C47	C	1.056755	0.124566	0.447494
C48	C	0.996007	0.185772	0.394996
C49	C	1.178237	0.002152	0.447481
C50	C	1.178247	0.002146	0.552506
C51	C	1.117511	0.063354	0.605027
C52	C	1.056761	0.124563	0.552522
C53	C	0.996021	0.185767	0.605042
C54	C	0.935274	0.246981	0.552539
C55	C	0.935271	0.246980	0.447517
C56	C	1.117514	0.063355	0.710049
C57	C	0.996026	0.185764	0.710070
N58	N	1.056774	0.124558	0.762569
H59	H	0.904668	-0.582465	0.000002
H60	H	1.227685	-0.047682	0.404716
H61	H	1.785260	0.128915	0.165012
O62	O	0.876183	0.306463	0.603406
C63	C	0.755718	0.427913	0.592360
C64	C	0.822574	0.360590	0.534624
H65	H	0.712370	0.471705	0.536775
H66	H	0.710930	0.388952	0.641501
H67	H	0.794409	0.472966	0.641558
H68	H	0.783956	0.315520	0.485371
H69	H	0.867362	0.399607	0.485546
H70	H	1.615996	0.125699	0.165020
H71	H	1.785279	0.128908	-0.165014
O72	O	0.816362	-0.251180	-0.000114
C73	C	0.677675	-0.204142	-0.086590
C74	C	0.766344	-0.267557	-0.086546
H75	H	0.637219	-0.217348	-0.156474
H76	H	0.637078	-0.217383	-0.016814
H77	H	0.693118	-0.130695	-0.086544
H78	H	0.750983	-0.341027	-0.086628
H79	H	0.806915	-0.254238	-0.156316
O80	O	1.320859	0.120238	-0.179268
C81	C	1.205460	0.196246	-0.284819
C82	C	1.256781	0.197167	-0.184766
H83	H	1.153629	0.258426	-0.289287
H84	H	1.254786	0.197238	-0.349864
H85	H	1.169928	0.132344	-0.289348
H86	H	1.292315	0.261058	-0.180140
H87	H	1.207413	0.196127	-0.119769
H88	H	1.284438	-0.490717	-0.000021
O89	O	1.213012	-0.630100	-0.000160
C90	C	1.351706	-0.677120	-0.086652
C91	C	1.263033	-0.613712	-0.086598
H92	H	1.392164	-0.663906	-0.156540
H93	H	1.392298	-0.663882	-0.016880
H94	H	1.336269	-0.750570	-0.086605
H95	H	1.278389	-0.540240	-0.086680
H96	H	1.222467	-0.627029	-0.156364
O97	O	1.504704	0.123605	-0.179385
C98	C	1.494872	0.123355	-0.359810
C99	C	1.443599	0.122365	-0.259722
H100	H	1.445494	0.122334	-0.424789
H101	H	1.530427	0.187239	-0.364434
H102	H	1.546676	0.061153	-0.364298
H103	H	1.391752	0.184523	-0.255167
H104	H	1.408106	0.058440	-0.255140
H105	H	1.328233	0.120223	0.165020
H106	H	1.287638	-0.320110	0.000055
O107	O	1.504940	0.123453	0.179244
C108	C	1.620270	0.047392	0.284844
C109	C	1.568915	0.046445	0.184815
H110	H	1.671991	-0.014871	0.289390
H111	H	1.655907	0.111227	0.289401
H112	H	1.570876	0.046497	0.349834
H113	H	1.618248	0.047308	0.119769
H114	H	1.533263	-0.017384	0.180346
H115	H	1.227711	-0.047696	0.595247
O116	O	1.221793	-0.162735	-0.000173
C117	C	1.361624	-0.152205	-0.086593
C118	C	1.271022	-0.192210	-0.086520
H119	H	1.401459	-0.176035	-0.156386
H120	H	1.349099	-0.075084	-0.086657
H121	H	1.401415	-0.175931	-0.016739
H122	H	1.231185	-0.168553	-0.156362
H123	H	1.283611	-0.269326	-0.086403
H124	H	1.616015	0.125693	-0.165012
H125	H	1.166969	0.013512	0.752792
H126	H	0.825864	-0.430769	0.000007
H127	H	1.166935	0.013531	0.247191
H128	H	0.946567	0.235607	0.752826
O129	O	0.876383	0.306468	0.396404
C130	C	0.857484	0.429588	0.277860
C131	C	0.924274	0.362260	0.335671
H132	H	0.896178	0.474726	0.228760
H133	H	0.812768	0.390631	0.228637
H134	H	0.814053	0.473294	0.333451
H135	H	0.967765	0.318538	0.280153
H136	H	0.968929	0.401273	0.384910
O137	O	0.900576	-0.120648	-0.000148
C138	C	0.808038	-0.002063	-0.086537
C139	C	0.896687	-0.065509	-0.086483
H140	H	0.804873	0.042546	-0.156321
H141	H	0.748836	-0.044164	-0.086604
H142	H	0.804803	0.042444	-0.016673
H143	H	0.900009	-0.110029	-0.156335
H144	H	0.955846	-0.023354	-0.086363
H145	H	0.946545	0.235616	0.247217
