data_functionalizedCrystal
_audit_creation_method	'MofGen! by Chris Wilmer'
_symmetry_space_group_name_H-M	'P1'
_symmetry_Int_Tables_number	1
_symmetry_cell_setting	triclinic
loop_
_symmetry_equiv_pos_as_xyz
  x,y,z
_cell_length_a	19.121747
_cell_length_b	21.395362
_cell_length_c	21.395355
_cell_angle_alpha	89.956060
_cell_angle_beta	92.423270
_cell_angle_gamma	87.607996
loop_
_atom_site_label
_atom_site_type_symbol
_atom_site_fract_x
_atom_site_fract_y
_atom_site_fract_z
Zn1	Zn	-0.279375	0.968491	-0.365231
Zn2	Zn	-0.396799	0.972862	-0.264928
Zn3	Zn	-0.279408	0.863707	-0.260434
Zn4	Zn	-0.396813	0.868145	-0.369634
O5	O	-0.338099	0.918301	-0.315057
O6	O	-0.294932	1.056748	-0.351965
O7	O	-0.381234	0.958355	-0.176655
O8	O	-0.181127	0.873921	-0.270612
O9	O	-0.381202	1.059960	-0.278272
O10	O	-0.181103	0.950905	-0.347606
O11	O	-0.294988	0.878160	-0.173353
O12	O	-0.295002	0.776619	-0.274881
O13	O	-0.381227	0.881483	-0.456727
O14	O	-0.381259	0.779879	-0.355110
O15	O	-0.294946	0.955208	-0.453493
O16	O	-0.495077	0.962658	-0.282541
O17	O	-0.495088	0.885722	-0.359468
C18	C	-0.338136	0.755515	-0.314986
C19	C	-0.338169	0.685875	-0.314971
C20	C	-0.383142	0.654878	-0.356688
C21	C	-0.383125	0.589442	-0.356715
C22	C	-0.338142	0.555006	-0.315014
C23	C	-0.293159	0.586010	-0.273294
C24	C	-0.293173	0.651445	-0.273272
C25	C	-0.332484	0.451066	-0.258393
C26	C	-0.332475	0.385633	-0.258414
C27	C	-0.338096	0.353183	-0.315082
C28	C	-0.343739	0.386176	-0.371730
C29	C	-0.343753	0.451611	-0.371709
C30	C	-0.338122	0.484053	-0.315033
C31	C	-0.383053	0.251233	-0.356832
C32	C	-0.383031	0.185796	-0.356860
C33	C	-0.293069	0.182366	-0.273433
C34	C	-0.293087	0.247802	-0.273411
C35	C	-0.338083	0.282232	-0.315109
C36	C	-0.520565	0.925163	-0.321984
C37	C	-0.598624	0.928155	-0.324968
C38	C	-1.040110	0.947139	-0.343871
C39	C	-0.966765	0.944320	-0.341061
C40	C	-0.930171	0.902862	-0.299543
C41	C	-0.966926	0.864223	-0.260828
C42	C	-1.040270	0.867046	-0.263634
C43	C	-0.708723	0.892339	-0.289059
C44	C	-0.635374	0.889519	-0.286256
C45	C	-0.635218	0.969617	-0.366490
C46	C	-0.708564	0.972433	-0.369295
C47	C	-0.745312	0.933797	-0.330578
C48	C	-0.855200	0.899978	-0.296672
C49	C	-0.820282	0.936684	-0.333446
C50	C	-0.154920	0.911431	-0.308117
C51	C	-0.076860	0.908503	-0.305160
C52	C	-0.338084	0.918353	-0.478480
C53	C	-0.338078	0.918375	-0.548121
C54	C	-0.338062	1.081723	-0.315129
C55	C	-0.338046	1.151364	-0.315159
C56	C	-0.293150	0.956761	-0.579151
C57	C	-0.293120	0.956759	-0.644585
C58	C	-0.338031	0.918378	-0.678987
C59	C	-0.382962	0.879984	-0.647950
C60	C	-0.382986	0.879982	-0.582516
C61	C	-0.401267	0.915808	-0.785061
C62	C	-0.401244	0.915814	-0.850493
C63	C	-0.337956	0.918379	-0.880805
C64	C	-0.274689	0.920951	-0.845677
C65	C	-0.274713	0.920949	-0.780244
C66	C	-0.338009	0.918375	-0.749939
C67	C	-0.292991	0.956765	-0.982786
C68	C	-0.292960	0.956759	-1.048222
C69	C	-0.382809	0.879987	-1.051586
C70	C	-0.382834	0.879990	-0.986151
C71	C	-0.337926	0.918382	-0.951756
C72	C	-0.338062	0.918284	-0.152268
C73	C	-0.337870	0.918376	-0.082620
H74	H	-0.327884	0.358775	-0.212288
C75	C	-0.748811	1.018050	-0.414959
N76	N	-0.779126	1.052412	-0.449352
H77	H	-0.419748	0.564199	-0.390689
C78	C	-0.205066	0.923770	-0.879016
N79	N	-0.152628	0.925895	-0.904129
H80	H	-0.850080	0.970442	-0.367248
C81	C	-0.594789	1.012119	-0.409071
N82	N	-0.564337	1.044135	-0.441143
C83	C	-0.470839	0.912985	-0.889127
N84	N	-0.523260	0.910853	-0.918225
C85	C	-0.349960	0.487900	-0.434021
N86	N	-0.354635	0.515233	-0.480955
H87	H	-0.348315	0.359758	-0.417874
H88	H	-0.256421	0.988023	-0.954780
C89	C	-0.926343	0.986833	-0.383638
N90	N	-0.895898	1.018860	-0.415706
H91	H	-0.256370	0.988017	-1.073485
H92	H	-1.070191	0.835584	-0.232111
H93	H	-0.937127	0.830469	-0.227019
C94	C	-0.432212	0.837767	-1.089424
N95	N	-0.469423	0.805966	-1.117928
C96	C	-0.432262	0.837764	-0.952017
N97	N	-0.469493	0.805956	-0.926308
C98	C	-0.814940	0.854369	-0.251008
N99	N	-0.784613	0.820016	-0.216614
H100	H	-0.419571	0.848720	-0.557252
C101	C	-0.432541	0.289108	-0.402708
N102	N	-0.469814	0.317634	-0.437263
H103	H	-0.452791	0.913552	-0.760386
H104	H	-0.419527	0.848731	-0.675964
H105	H	-0.605583	0.855755	-0.252445
H106	H	-1.069900	0.980893	-0.377686
C107	C	-0.326304	0.486753	-0.196051
N108	N	-0.321650	0.513632	-0.149095
H109	H	-0.419780	0.682907	-0.390643
H110	H	-0.738636	0.860879	-0.257532
C111	C	-0.243740	0.998986	-0.541319
N112	N	-0.206522	1.030787	-0.512823
H113	H	-0.419653	0.160559	-0.390835
C114	C	-0.243586	0.144489	-0.227562
N115	N	-0.206313	0.115958	-0.193011
H116	H	-0.256532	0.557968	-0.239342
C117	C	-0.243618	0.281900	-0.227512
N118	N	-0.206356	0.307582	-0.192940
H119	H	-0.256548	0.676682	-0.239301
C120	C	-0.243697	0.998993	-0.678725
N121	N	-0.206474	1.030805	-0.704438
H122	H	-0.223199	0.923041	-0.751646
