data_functionalizedCrystal
_audit_creation_method	'MofGen! by Chris Wilmer'
_symmetry_space_group_name_H-M	'P1'
_symmetry_Int_Tables_number	1
_symmetry_cell_setting	triclinic
loop_
_symmetry_equiv_pos_as_xyz
  x,y,z
_cell_length_a	13.032831
_cell_length_b	12.759400
_cell_length_c	13.037736
_cell_angle_alpha	97.166718
_cell_angle_beta	90.811084
_cell_angle_gamma	82.819639
loop_
_atom_site_label
_atom_site_type_symbol
_atom_site_fract_x
_atom_site_fract_y
_atom_site_fract_z
Zn1	Zn	1.499595	-0.709902	-0.780546
Zn2	Zn	1.521108	-0.866356	-0.608634
Zn3	Zn	1.349184	-0.665921	-0.586861
Zn4	Zn	1.327564	-0.860746	-0.758702
O5	O	1.424363	-0.775731	-0.683686
O6	O	1.646396	-0.751410	-0.775996
O7	O	1.516354	-0.823709	-0.461884
O8	O	1.369181	-0.524743	-0.612583
O9	O	1.662202	-0.866356	-0.649693
O10	O	1.479688	-0.557056	-0.754883
O11	O	1.390041	-0.676450	-0.445887
O12	O	1.202369	-0.671011	-0.591402
O13	O	1.332333	-0.856795	-0.905462
O14	O	1.186485	-0.814148	-0.717653
O15	O	1.458724	-0.745971	-0.921510
O16	O	1.495389	-1.012623	-0.628511
O17	O	1.353193	-1.008502	-0.738765
C18	C	1.157103	-0.737199	-0.649795
C19	C	1.042765	-0.720743	-0.635320
C20	C	0.983969	-0.784320	-0.691240
C21	C	0.865795	-0.767313	-0.676281
C22	C	1.424304	-1.048687	-0.683657
C23	C	1.424369	-1.165476	-0.683690
C24	C	1.498475	-1.222468	-0.626363
C25	C	1.498534	-1.332205	-0.626403
C26	C	1.350373	-1.327947	-0.741099
C27	C	1.350319	-1.218214	-0.741064
C28	C	1.572525	-1.169730	-0.568989
C29	C	1.646636	-1.226722	-0.511656
C30	C	1.646695	-1.336459	-0.511696
C31	C	1.572643	-1.389204	-0.569068
C32	C	1.692666	-0.814414	-0.717710
C33	C	1.807001	-0.830899	-0.732209
C34	C	1.390717	-0.805663	-0.951831
C35	C	1.376379	-0.818418	-1.066098
C36	C	1.424447	-0.501716	-0.683741
C37	C	1.424482	-0.384946	-0.683765
C38	C	1.457937	-0.745848	-0.416591
C39	C	1.472474	-0.732826	-0.302350
C40	C	1.431939	-0.768895	-0.125188
C41	C	1.416906	-0.782356	-0.243262
H42	H	1.005613	-0.653718	-0.576375
H43	H	1.290083	-1.370901	-0.787808
C44	C	0.815627	-0.676764	-0.596641
H45	H	0.867838	-0.639077	-0.563502
H46	H	0.779319	-0.705880	-0.546511
H47	H	0.768781	-0.629458	-0.630787
H48	H	0.844146	-0.897920	-0.791169
C49	C	1.728091	-1.168714	-0.448555
H50	H	1.772241	-1.218378	-0.414427
H51	H	1.694382	-1.115291	-0.398730
H52	H	1.767921	-1.136702	-0.493589
C53	C	1.337611	-0.853106	-0.292994
H54	H	1.337916	-0.852880	-0.365829
H55	H	1.270621	-0.826276	-0.266587
H56	H	1.355395	-0.923823	-0.277260
C57	C	1.572466	-1.049025	-0.568947
H58	H	1.627184	-1.025779	-0.526574
H59	H	1.508322	-1.012711	-0.542699
H60	H	1.581875	-1.034124	-0.637548
C61	C	1.728212	-1.399148	-0.448635
H62	H	1.772298	-1.352018	-0.414457
H63	H	1.768088	-1.452749	-0.493685
H64	H	1.694535	-1.431335	-0.398837
H65	H	1.572705	-1.478561	-0.569105
H66	H	1.289976	-1.171811	-0.787747
H67	H	1.490632	-0.716527	-0.088363
H68	H	1.531170	-0.680451	-0.265531
H69	H	1.317675	-0.870775	-0.102922
H70	H	1.021120	-0.851337	-0.750193
