data_functionalizedCrystal
_audit_creation_method	'MofGen! by Chris Wilmer'
_symmetry_space_group_name_H-M	'P1'
_symmetry_Int_Tables_number	1
_symmetry_cell_setting	triclinic
loop_
_symmetry_equiv_pos_as_xyz
  x,y,z
_cell_length_a	11.792241
_cell_length_b	19.188924
_cell_length_c	17.666332
_cell_angle_alpha	90.007291
_cell_angle_beta	90.005047
_cell_angle_gamma	83.667690
loop_
_atom_site_label
_atom_site_type_symbol
_atom_site_fract_x
_atom_site_fract_y
_atom_site_fract_z
O1	O	1.505480	0.095695	0.062879
O2	O	1.755480	0.345695	0.312879
O3	O	2.005480	0.595695	0.562879
O4	O	2.255480	0.845695	0.812879
O5	O	1.174991	0.105557	0.062897
O6	O	1.424991	0.355557	0.312897
O7	O	1.674991	0.605557	0.562897
O8	O	1.924991	0.855557	0.812897
O9	O	1.349777	-0.000976	0.062878
O10	O	1.599777	0.249024	0.312878
O11	O	1.849777	0.499024	0.562878
O12	O	2.099777	0.749024	0.812878
O13	O	1.330695	0.202228	0.062897
O14	O	1.580695	0.452228	0.312897
O15	O	1.830695	0.702228	0.562897
O16	O	2.080695	0.952228	0.812897
O17	O	1.349746	-0.000979	-0.063019
O18	O	1.599746	0.249021	0.186981
O19	O	1.849746	0.499021	0.436981
O20	O	2.099746	0.749021	0.686981
O21	O	1.174961	0.105554	-0.063000
O22	O	1.424961	0.355554	0.187000
O23	O	1.674961	0.605554	0.437000
O24	O	1.924961	0.855554	0.687000
O25	O	1.505450	0.095692	-0.063018
O26	O	1.755450	0.345692	0.186982
O27	O	2.005450	0.595692	0.436982
O28	O	2.255450	0.845692	0.686982
Cu29	Cu	1.340202	0.100623	-0.074504
Cu30	Cu	1.590202	0.350623	0.175496
Cu31	Cu	1.840202	0.600623	0.425496
Cu32	Cu	2.090202	0.850623	0.675496
Cu33	Cu	1.340239	0.100626	0.074383
Cu34	Cu	1.590239	0.350626	0.324383
Cu35	Cu	1.840239	0.600626	0.574383
Cu36	Cu	2.090239	0.850626	0.824383
O37	O	1.330664	0.202225	-0.063000
O38	O	1.580664	0.452225	0.187000
O39	O	1.830664	0.702225	0.437000
O40	O	2.080664	0.952225	0.687000
C41	C	1.132694	0.104936	-0.000050
C42	C	1.382694	0.354936	0.249950
C43	C	1.632694	0.604936	0.499950
C44	C	1.882694	0.854936	0.749950
C45	C	1.006708	0.103082	-0.000043
C46	C	1.256708	0.353082	0.249957
C47	C	1.506708	0.603082	0.499957
C48	C	1.756708	0.853082	0.749957
C49	C	1.349145	-0.026992	-0.000071
C50	C	1.599145	0.223008	0.249929
C51	C	1.849145	0.473008	0.499929
C52	C	2.099145	0.723008	0.749929
C53	C	1.347294	-0.104507	-0.000073
C54	C	1.597294	0.145493	0.249927
C55	C	1.847294	0.395493	0.499927
C56	C	2.097294	0.645493	0.749927
C57	C	0.776047	0.099672	-0.000065
C58	C	1.026047	0.349672	0.249935
C59	C	1.276047	0.599672	0.499935
C60	C	1.526047	0.849672	0.749935
C61	C	0.904404	0.101567	-0.000053
C62	C	1.154404	0.351567	0.249947
C63	C	1.404404	0.601567	0.499947
C64	C	1.654404	0.851567	0.749947
C65	C	1.346447	-0.140909	0.068554
C66	C	1.596447	0.109091	0.318554
C67	C	1.846447	0.359091	0.568554
C68	C	2.096447	0.609091	0.818554
C69	C	1.344691	-0.213742	0.068560
C70	C	1.594691	0.036258	0.318560
C71	C	1.844691	0.286258	0.568560
C72	C	2.094691	0.536258	0.818560
C73	C	1.343806	-0.250172	-0.000065
C74	C	1.593806	-0.000172	0.249935
C75	C	1.843806	0.249828	0.499935
C76	C	2.093806	0.499828	0.749935
C77	C	1.344647	-0.213760	-0.068701
C78	C	1.594647	0.036240	0.181299
C79	C	1.844647	0.286240	0.431299
C80	C	2.094647	0.536240	0.681299
C81	C	1.346391	-0.140928	-0.068704
C82	C	1.596391	0.109072	0.181296
C83	C	1.846391	0.359072	0.431296
C84	C	2.096391	0.609072	0.681296
N85	N	1.405641	-0.369486	-0.051144
N86	N	1.655641	-0.119486	0.198856
N87	N	1.905641	0.130514	0.448856
N88	N	2.155641	0.380514	0.698856
N89	N	1.403987	-0.438673	-0.051136
N90	N	1.653987	-0.188673	0.198864
N91	N	1.903987	0.061327	0.448864
N92	N	2.153987	0.311327	0.698864
C93	C	1.338549	-0.469610	-0.000057
C94	C	1.588549	-0.219610	0.249943
C95	C	1.838549	0.030390	0.499943
C96	C	2.088549	0.280390	0.749943
N97	N	1.274842	-0.428747	0.051024
N98	N	1.524842	-0.178747	0.301024
N99	N	1.774842	0.071253	0.551024
N100	N	2.024842	0.321253	0.801024
N101	N	1.276501	-0.359554	0.051018
N102	N	1.526501	-0.109554	0.301018
N103	N	1.776501	0.140446	0.551018
N104	N	2.026501	0.390446	0.801018
C105	C	1.341914	-0.329146	-0.000068
C106	C	1.591914	-0.079146	0.249932
C107	C	1.841914	0.170854	0.499932
C108	C	2.091914	0.420854	0.749932
C109	C	1.335797	-0.584986	0.068580
C110	C	1.585797	-0.334986	0.318580
C111	C	1.835797	-0.084986	0.568580
C112	C	2.085797	0.165014	0.818580
C113	C	1.334034	-0.657819	0.068583
C114	C	1.584034	-0.407819	0.318583
C115	C	1.834034	-0.157819	0.568583
C116	C	2.084034	0.092181	0.818583
C117	C	1.334001	-0.657837	-0.068679
C118	C	1.584001	-0.407837	0.181321
C119	C	1.834001	-0.157837	0.431321
C120	C	2.084001	0.092163	0.681321
C121	C	1.335752	-0.585004	-0.068680
C122	C	1.585752	-0.335004	0.181320
C123	C	1.835752	-0.085004	0.431320
C124	C	2.085752	0.164996	0.681320
C125	C	1.336655	-0.548583	-0.000048
C126	C	1.586655	-0.298583	0.249952
C127	C	1.836655	-0.048583	0.499952
C128	C	2.086655	0.201417	0.749952
C129	C	1.547747	0.096313	-0.000070
C130	C	1.797747	0.346313	0.249930
C131	C	2.047747	0.596313	0.499930
C132	C	2.297747	0.846313	0.749930
C133	C	1.673733	0.098167	-0.000072
C134	C	1.923733	0.348167	0.249928
C135	C	2.173733	0.598167	0.499928
C136	C	2.423733	0.848167	0.749928
C137	C	1.331296	0.228241	-0.000049
C138	C	1.581296	0.478241	0.249951
C139	C	1.831296	0.728241	0.499951
C140	C	2.081296	0.978241	0.749951
C141	C	1.333147	0.305756	-0.000042
C142	C	1.583147	0.555756	0.249958
C143	C	1.833147	0.805756	0.499958
C144	C	2.083147	1.055756	0.749958
N145	N	1.340185	0.100619	-0.179224
N146	N	1.590185	0.350619	0.070776
N147	N	1.840185	0.600619	0.320776
N148	N	2.090185	0.850619	0.570776
C149	C	1.408795	0.143254	-0.218827
C150	C	1.658795	0.393254	0.031173
C151	C	1.908795	0.643254	0.281173
C152	C	2.158795	0.893254	0.531173
C153	C	1.408813	0.143252	-0.298075
C154	C	1.658813	0.393252	-0.048075
C155	C	1.908813	0.643252	0.201925
C156	C	2.158813	0.893252	0.451925
C157	C	1.340200	0.100624	-0.337716
C158	C	1.590200	0.350624	-0.087716
C159	C	1.840200	0.600624	0.162284
C160	C	2.090200	0.850624	0.412284
C161	C	1.271586	0.057981	-0.298103
C162	C	1.521586	0.307981	-0.048103
C163	C	1.771586	0.557981	0.201897
C164	C	2.021586	0.807981	0.451897
C165	C	1.271578	0.057979	-0.218857
C166	C	1.521578	0.307979	0.031143
C167	C	1.771578	0.557979	0.281143
C168	C	2.021578	0.807979	0.531143
N169	N	1.240802	0.098340	-0.462150
N170	N	1.490802	0.348340	-0.212150
N171	N	1.740802	0.598340	0.037850
N172	N	1.990802	0.848340	0.287850
N173	N	1.240812	0.098346	-0.537431
N174	N	1.490812	0.348346	-0.287431
N175	N	1.740812	0.598346	-0.037431
N176	N	1.990812	0.848346	0.212569
C177	C	1.340221	0.100626	-0.576480
C178	C	1.590221	0.350626	-0.326480
C179	C	1.840221	0.600626	-0.076480
C180	C	2.090221	0.850626	0.173520
N181	N	1.439620	0.102913	-0.537405
N182	N	1.689620	0.352913	-0.287405
N183	N	1.939620	0.602913	-0.037405
N184	N	2.189620	0.852913	0.212595
N185	N	1.439609	0.102911	-0.462117
N186	N	1.689609	0.352911	-0.212117
N187	N	1.939609	0.602911	0.037883
N188	N	2.189609	0.852911	0.287883
C189	C	1.340201	0.100621	-0.423645
C190	C	1.590201	0.350621	-0.173645
C191	C	1.840201	0.600621	0.076355
C192	C	2.090201	0.850621	0.326355
C193	C	1.408857	0.143260	-0.702013
C194	C	1.658857	0.393260	-0.452013
C195	C	1.908857	0.643260	-0.202013
C196	C	2.158857	0.893260	0.047987
C197	C	1.408877	0.143254	-0.781262
C198	C	1.658877	0.393254	-0.531262
C199	C	1.908877	0.643254	-0.281262
C200	C	2.158877	0.893254	-0.031262
C201	C	1.271639	0.057987	-0.781289
C202	C	1.521639	0.307987	-0.531289
C203	C	1.771639	0.557987	-0.281289
C204	C	2.021639	0.807987	-0.031289
C205	C	1.271629	0.057989	-0.702041
C206	C	1.521629	0.307989	-0.452041
C207	C	1.771629	0.557989	-0.202041
C208	C	2.021629	0.807989	0.047959
C209	C	1.340236	0.100630	-0.662408
C210	C	1.590236	0.350630	-0.412408
C211	C	1.840236	0.600630	-0.162408
C212	C	2.090236	0.850630	0.087592
N213	N	1.340265	0.100624	0.179102
N214	N	1.590265	0.350624	0.429102
N215	N	1.840265	0.600624	0.679102
N216	N	2.090265	0.850624	0.929102
H217	H	1.347179	-0.111260	0.124439
H218	H	1.597179	0.138740	0.374439
H219	H	1.847179	0.388740	0.624439
H220	H	2.097179	0.638740	0.874439
Br221	Br	1.502009	0.201114	-0.835011
Br222	Br	1.752009	0.451114	-0.585011
Br223	Br	2.002009	0.701114	-0.335011
Br224	Br	2.252009	0.951114	-0.085011
H225	H	1.215705	0.023260	-0.186613
H226	H	1.465705	0.273260	0.063387
H227	H	1.715705	0.523260	0.313387
H228	H	1.965705	0.773260	0.563387
Br229	Br	1.501989	0.201113	-0.648220
Br230	Br	1.751989	0.451113	-0.398220
Br231	Br	2.001989	0.701113	-0.148220
Br232	Br	2.251989	0.951113	0.101780
H233	H	1.343994	-0.243386	0.124445
H234	H	1.593994	0.006614	0.374445
H235	H	1.843994	0.256614	0.624445
H236	H	2.093994	0.506614	0.874445
H237	H	1.464685	0.177971	-0.330326
H238	H	1.714685	0.427971	-0.080326
H239	H	1.964685	0.677971	0.169674
H240	H	2.214685	0.927971	0.419674
H241	H	1.347076	-0.111290	-0.124590
H242	H	1.597076	0.138710	0.125410
H243	H	1.847076	0.388710	0.375410
H244	H	2.097076	0.638710	0.625410
Br245	Br	1.343431	-0.263197	-0.161835
Br246	Br	1.593431	-0.013197	0.088165
Br247	Br	1.843431	0.236803	0.338165
Br248	Br	2.093431	0.486803	0.588165
Br249	Br	1.337016	-0.535553	0.161720
Br250	Br	1.587016	-0.285553	0.411720
Br251	Br	1.837016	-0.035553	0.661720
Br252	Br	2.087016	0.214447	0.911720
Br253	Br	1.332872	-0.707223	0.161728
Br254	Br	1.582872	-0.457223	0.411728
Br255	Br	1.832872	-0.207223	0.661728
Br256	Br	2.082872	0.042777	0.911728
Br257	Br	1.332788	-0.707268	-0.161814
Br258	Br	1.582788	-0.457268	0.088186
Br259	Br	1.832788	-0.207268	0.338186
Br260	Br	2.082788	0.042732	0.588186
H261	H	1.215774	0.023277	-0.813564
H262	H	1.465774	0.273277	-0.563564
H263	H	1.715774	0.523277	-0.313564
H264	H	1.965774	0.773277	-0.063564
Br265	Br	1.336897	-0.535597	-0.161821
Br266	Br	1.586897	-0.285597	0.088179
Br267	Br	1.836897	-0.035597	0.338179
Br268	Br	2.086897	0.214403	0.588179
H269	H	1.464665	0.177972	-0.186563
H270	H	1.714665	0.427972	0.063437
H271	H	1.964665	0.677972	0.313437
H272	H	2.214665	0.927972	0.563437
H273	H	1.215722	0.023272	-0.330384
H274	H	1.465722	0.273272	-0.080384
H275	H	1.715722	0.523272	0.169616
H276	H	1.965722	0.773272	0.419616
H277	H	1.215754	0.023275	-0.669796
H278	H	1.465754	0.273275	-0.419796
H279	H	1.715754	0.523275	-0.169796
H280	H	1.965754	0.773275	0.080204
