data_functionalizedCrystal
_audit_creation_method	'MofGen! by Chris Wilmer'
_symmetry_space_group_name_H-M	'P1'
_symmetry_Int_Tables_number	1
_symmetry_cell_setting	triclinic
loop_
_symmetry_equiv_pos_as_xyz
  x,y,z
_cell_length_a	15.944551
_cell_length_b	19.188930
_cell_length_c	15.021413
_cell_angle_alpha	89.998889
_cell_angle_beta	89.997174
_cell_angle_gamma	83.321760
loop_
_atom_site_label
_atom_site_type_symbol
_atom_site_fract_x
_atom_site_fract_y
_atom_site_fract_z
O1	O	1.114192	0.090039	-0.073949
O2	O	0.869601	0.101141	-0.073973
O3	O	0.998955	-0.006048	-0.073943
O4	O	0.984838	0.197227	-0.073979
O5	O	0.998934	-0.006033	0.074121
O6	O	0.869580	0.101156	0.074091
O7	O	1.114171	0.090054	0.074115
Zn8	Zn	0.991873	0.095607	0.097611
Zn9	Zn	0.991900	0.095587	-0.097470
O10	O	0.984817	0.197242	0.074085
C11	C	0.838298	0.100687	0.000056
C12	C	0.745057	0.099306	0.000048
C13	C	0.998487	-0.032052	0.000091
C14	C	0.997115	-0.109560	0.000099
C15	C	0.530462	0.029563	0.000078
C16	C	0.469331	0.061941	-0.072931
C17	C	0.574341	0.096806	0.000059
C18	C	0.469332	0.061972	0.073048
C19	C	0.409437	0.094386	0.000074
C20	C	0.514438	0.129203	-0.073010
C21	C	0.514446	0.129225	0.073035
C22	C	0.453332	0.161652	0.000008
C23	C	0.669338	0.098198	0.000050
C24	C	0.314441	0.093000	0.000076
C25	C	1.073016	-0.154288	0.000111
C26	C	1.071726	-0.227115	0.000096
C27	C	0.994532	-0.255211	0.000088
C28	C	0.918622	-0.210474	0.000072
C29	C	0.919913	-0.137648	0.000077
N30	N	0.935519	-0.363364	0.050472
N31	N	0.934298	-0.432546	0.050468
C32	C	0.990637	-0.474630	0.000070
N33	N	1.048256	-0.444921	-0.050314
N34	N	1.049480	-0.375733	-0.050307
C35	C	0.993123	-0.334178	0.000082
C36	C	1.065145	-0.598326	0.000064
C37	C	1.063852	-0.671154	0.000044
C38	C	0.910745	-0.654511	0.000029
C39	C	0.912040	-0.581685	0.000040
C40	C	0.989242	-0.553597	0.000062
C41	C	1.145474	0.090507	0.000083
C42	C	1.238715	0.091889	0.000086
C43	C	0.985285	0.223247	0.000048
C44	C	0.986657	0.300755	0.000035
N45	N	0.991860	0.095621	0.230749
N46	N	0.991919	0.095568	-0.230607
C47	C	0.932038	0.145161	0.470418
C48	C	1.007887	0.158716	0.529757
C49	C	0.991882	0.095603	0.412356
C50	C	0.916053	0.082064	0.529759
C51	C	0.991896	0.095588	0.587780
C52	C	1.067770	0.109189	0.470388
C53	C	0.975885	0.032510	0.470384
C54	C	1.051789	0.046038	0.529697
C55	C	0.991872	0.095614	0.311299
C56	C	0.991914	0.095577	0.688835
H57	H	0.449335	0.033494	-0.134646
C58	C	1.159068	-0.318675	0.076228
C59	C	1.155161	-0.276293	0.000115
H60	H	1.210576	-0.349036	0.076237
H61	H	1.156382	-0.289919	0.127851
H62	H	1.112903	-0.345823	0.076206
H63	H	1.201324	-0.249141	0.000141
H64	H	1.157856	-0.305052	-0.051521
C65	C	0.830640	0.066141	0.658169
C66	C	0.829476	0.066609	0.564963
H67	H	0.777188	0.056608	0.679898
H68	H	0.873087	0.030885	0.678459
H69	H	0.842421	0.110620	0.679362
H70	H	0.817701	0.022128	0.543770
H71	H	0.787017	0.101867	0.544664
C72	C	0.848662	-0.314722	0.000070
C73	C	0.833768	-0.241354	0.000066
H74	H	0.796274	-0.333784	0.000070
H75	H	0.879905	-0.330070	-0.051556
H76	H	0.879897	-0.330069	0.051711
H77	H	0.802538	-0.226007	-0.051578
H78	H	0.802511	-0.226000	0.051698
C79	C	0.628963	0.168470	-0.155703
C80	C	0.541282	0.167555	-0.156433
H81	H	0.645535	0.192141	-0.207208
H82	H	0.644758	0.192201	-0.103937
H83	H	0.656060	0.121686	-0.155485
H84	H	0.514184	0.214339	-0.156644
H85	H	0.525479	0.143825	-0.208213
C86	C	1.171232	0.190586	0.466105
C87	C	1.154372	0.124744	0.435371
H88	H	1.224699	0.200191	0.444498
H89	H	1.128707	0.225575	0.445320
H90	H	1.171740	0.190637	0.529342
H91	H	1.153858	0.124694	0.372134
H92	H	1.196909	0.089746	0.456151
C93	C	0.625757	-0.056417	0.076489
C94	C	0.575714	-0.045783	-0.000000
H95	H	0.653690	-0.102932	0.076438
H96	H	0.666483	-0.024018	0.077045
H97	H	0.591033	-0.049524	0.127858
H98	H	0.610439	-0.052671	-0.051370
H99	H	0.534983	-0.078192	-0.000565
H100	H	0.419965	0.217516	-0.000043
C101	C	1.215319	-0.680285	0.000085
C102	C	1.147289	-0.720323	0.000059
H103	H	1.266829	-0.710642	0.000101
H104	H	1.212653	-0.651533	-0.051542
H105	H	1.212618	-0.651536	0.051725
H106	H	1.149987	-0.749069	-0.051584
H107	H	1.149957	-0.749087	0.051692
H108	H	0.534463	0.157649	0.134752
C109	C	0.402094	-0.034267	0.130498
C110	C	0.442348	0.023575	0.156373
H111	H	0.385442	-0.057977	0.181936
H112	H	0.353661	-0.018686	0.095901
H113	H	0.439888	-0.065371	0.096118
H114	H	0.404552	0.054682	0.190747
H115	H	0.490787	0.007995	0.190985
H116	H	1.135880	-0.131424	0.000125
H117	H	0.858103	-0.101230	0.000068
H118	H	1.128007	-0.575456	0.000078
H119	H	0.847892	-0.677386	0.000018
H120	H	0.850233	-0.545266	0.000035
H121	H	0.881481	0.187105	0.444391
C122	C	0.958444	0.259742	0.617589
C123	C	1.026168	0.230733	0.564975
H124	H	0.969728	0.304201	0.639331
H125	H	0.908367	0.265265	0.582802
H126	H	0.951316	0.229435	0.666324
H127	H	1.033292	0.261037	0.516235
H128	H	1.076259	0.225213	0.599763
C129	C	1.199497	0.003793	0.534490
C130	C	1.120186	-0.010549	0.564625
H131	H	1.241722	-0.031138	0.556061
H132	H	1.200161	0.003746	0.471263
H133	H	1.210400	0.048493	0.555725
H134	H	1.109280	-0.055247	0.543385
H135	H	1.119520	-0.010510	0.627865
H136	H	0.962318	-0.020823	0.444285
