data_functionalizedCrystal
_audit_creation_method	'MofGen! by Chris Wilmer'
_symmetry_space_group_name_H-M	'P1'
_symmetry_Int_Tables_number	1
_symmetry_cell_setting	triclinic
loop_
_symmetry_equiv_pos_as_xyz
  x,y,z
_cell_length_a	19.377625
_cell_length_b	14.395555
_cell_length_c	19.377372
_cell_angle_alpha	48.620250
_cell_angle_beta	75.978185
_cell_angle_gamma	52.463611
loop_
_atom_site_label
_atom_site_type_symbol
_atom_site_fract_x
_atom_site_fract_y
_atom_site_fract_z
Zr1	Zr	0.629340	1.166126	-0.313473
O2	O	0.497673	1.406453	-0.411110
O3	O	0.669709	0.958061	-0.283543
O4	O	0.638263	1.233817	-0.455563
O5	O	0.553919	1.066051	-0.103396
O6	O	0.749155	1.250514	-0.490629
O7	O	0.529120	1.130697	-0.239089
O8	O	0.805408	0.757237	-0.182916
O9	O	0.497667	1.559328	-0.411109
O10	O	0.769677	1.044153	-0.296946
O11	O	0.705426	0.983448	-0.169511
O12	O	0.668402	1.308115	-0.372043
O13	O	0.604151	1.247410	-0.244608
Zr14	Zr	0.845754	1.089654	-0.152983
Zr15	Zr	0.806202	1.192756	-0.369398
Zr16	Zr	0.668892	1.063024	-0.097058
Zr17	Zr	0.629330	1.409945	-0.313473
Zr18	Zr	0.845764	0.845835	-0.152984
O19	O	0.805385	1.297719	-0.182914
O20	O	0.749147	1.444317	-0.490628
O21	O	0.553911	1.259855	-0.103395
O22	O	0.977421	0.849327	-0.055347
O23	O	0.921183	0.995925	-0.363061
O24	O	0.725947	0.811463	0.024171
O25	O	0.921175	1.189729	-0.363060
O26	O	0.836831	1.021963	-0.010893
O27	O	0.725939	1.005266	0.024172
O28	O	0.945974	1.125083	-0.227367
O29	O	0.638248	1.580495	-0.455562
O30	O	0.836846	0.675284	-0.010894
O31	O	0.977427	0.696452	-0.055347
O32	O	0.945989	0.778404	-0.227368
O33	O	0.529105	1.477376	-0.239088
O34	O	0.669686	1.498543	-0.283541
O35	O	0.806692	0.947665	-0.094414
O36	O	0.870943	1.008370	-0.221849
O37	O	0.769668	1.272332	-0.296945
O38	O	0.705417	1.211627	-0.169510
C39	C	0.737560	0.822910	-0.233229
C40	C	0.737564	0.719403	-0.233230
C41	C	0.516320	1.094580	-0.163275
C42	C	0.441238	1.083275	-0.139533
C43	C	0.125994	1.224084	-0.435166
C44	C	0.055453	1.213436	-0.412827
C45	C	0.082795	1.142213	-0.263328
C46	C	0.153338	1.152862	-0.285656
C47	C	0.174932	1.193796	-0.371577
C48	C	0.202276	1.122575	-0.222067
C49	C	0.272815	1.133215	-0.244392
C50	C	0.294417	1.174143	-0.330307
C51	C	0.245472	1.204437	-0.393902
C52	C	0.180685	1.081630	-0.136144
C53	C	0.229622	1.051343	-0.072555
C54	C	0.300159	1.061994	-0.094883
C55	C	0.321761	1.102922	-0.180797
C56	C	0.349105	1.031700	-0.031288
C57	C	0.419644	1.042341	-0.053613
C58	C	0.392300	1.113562	-0.203123
C59	C	0.772587	0.691927	-0.302720
C60	C	0.822691	0.513380	-0.217844
C61	C	0.687467	0.713511	-0.318097
C62	C	0.787723	0.542136	-0.148312
C63	C	0.652444	0.742367	-0.248620
C64	C	0.702539	0.563799	-0.163681
C65	C	0.958774	1.161200	-0.303182
C66	C	1.033856	1.172505	-0.326924
C67	C	0.688074	1.256855	-0.503931
C68	C	0.671283	1.300625	-0.595804
C69	C	0.737534	1.432870	-0.233227
C70	C	0.737530	1.536377	-0.233227
C71	C	0.880355	0.755663	-0.701965
C72	C	0.864560	0.796827	-0.788304
C73	C	0.758837	1.072383	-0.866690
C74	C	0.774626	1.031243	-0.780357
C75	C	0.835386	0.872880	-0.698000
C76	C	0.729657	1.148460	-0.776392
C77	C	0.745442	1.107322	-0.690065
C78	C	0.806196	0.948966	-0.607704
C79	C	0.851171	0.831742	-0.611673
C80	C	0.668893	1.306821	-0.858749
C81	C	0.623923	1.424038	-0.854783
C82	C	0.639713	1.382901	-0.768457
C83	C	0.700467	1.224546	-0.686096
C84	C	0.594738	1.500126	-0.764488
C85	C	0.610523	1.458987	-0.678162
C86	C	0.716252	1.183408	-0.599770
C87	C	0.787020	0.998925	0.037474
C88	C	0.803811	0.955155	0.129348
C89	C	0.958786	0.856220	-0.303183
C90	C	1.033873	0.764018	-0.326925
C91	C	0.787033	0.693945	0.037473
C92	C	0.803828	0.546668	0.129346
C93	C	1.008260	0.727255	-0.032481
C94	C	1.100137	0.591283	0.035651
C95	C	0.466834	1.528525	-0.433976
C96	C	0.374957	1.664497	-0.502108
C97	C	0.516308	1.399560	-0.163274
C98	C	0.441221	1.491762	-0.139532
C99	C	0.688061	1.561835	-0.503930
C100	C	0.671266	1.709112	-0.595803
C101	C	1.016273	0.739401	-0.377284
C102	C	1.086815	0.652790	-0.399610
C103	C	1.174956	0.590786	-0.371571
C104	C	1.192555	0.615411	-0.321210
C105	C	1.122013	0.702031	-0.298890
C106	C	0.864576	0.458822	0.211700
C107	C	0.880356	0.320449	0.298035
C108	C	0.835390	0.269918	0.302011
C109	C	0.774635	0.357778	0.219649
C110	C	0.758852	0.496154	0.133318
C111	C	1.176829	0.559118	0.001124
C112	C	1.263163	0.431376	0.065131
C113	C	1.272803	0.335795	0.163664
C114	C	1.196102	0.367970	0.198192
C115	C	1.109770	0.495716	0.134185
C116	C	0.298265	1.696674	-0.467581
C117	C	0.211931	1.824446	-0.531588
C118	C	0.202291	1.920032	-0.630121
C119	C	0.278992	1.887851	-0.664648
C120	C	0.365324	1.760088	-0.600642
C121	C	0.458819	1.516393	-0.089182
C122	C	0.388273	1.603043	-0.066880
C123	C	0.300131	1.665051	-0.094922
C124	C	0.282534	1.640420	-0.145279
C125	C	0.353078	1.553781	-0.167586
C126	C	0.716245	1.759598	-0.599750
C127	C	0.700482	1.897966	-0.686072
C128	C	0.639734	1.985852	-0.768444
C129	C	0.594754	1.935355	-0.764495
C130	C	0.610522	1.796984	-0.678176
H131	H	0.409876	1.146911	-0.273092
H132	H	0.626903	2.098520	-0.838724
F133	F	0.369496	1.185458	-0.354064
F134	F	0.694198	0.589629	0.045673
F135	F	1.166590	0.660829	-0.103740
F136	F	1.344782	0.397156	0.028366
F137	F	0.530097	2.028915	-0.852169
F138	F	0.912427	0.672056	-0.792516
H139	H	0.306097	1.618852	-0.387353
H140	H	0.530584	1.465907	-0.066336
H141	H	1.343105	0.231781	0.215772
H142	H	0.131989	2.024059	-0.682229
F143	F	0.558382	0.870298	-0.265679
H144	H	0.210759	1.690920	-0.168106
F145	F	0.852198	0.122640	0.393900
F146	F	0.334336	1.527568	-0.221168
F147	F	0.562636	1.743278	-0.673987
H148	H	0.149488	1.850622	-0.503457
F149	F	1.140759	0.728208	-0.245286
H150	H	0.574451	1.552976	-0.921848
F151	F	1.250025	0.498598	-0.395331
F152	F	0.916759	0.385491	-0.200824
H153	H	0.427766	1.733896	-0.628766
H154	H	1.203965	0.290130	0.278425
H155	H	1.264328	0.564916	-0.298385
H156	H	0.545262	1.629062	-0.831552
H157	H	0.929830	0.248929	0.365087
H158	H	0.271132	1.965693	-0.744881
H159	H	0.929836	0.626709	-0.634904
F160	F	0.780903	1.666085	-0.512093
H161	H	0.901196	0.499945	0.208481
F162	F	0.811393	0.763879	-0.379450
H163	H	0.402619	1.623079	-0.025874
H164	H	0.765733	1.054454	-0.532709
H165	H	0.573901	1.554436	-0.674935
H166	H	0.738028	0.316614	0.222901
F167	F	0.059809	1.098644	-0.171886
F168	F	1.028153	0.529925	0.170946
F169	F	0.748358	1.951686	-0.690254
H170	H	0.263047	1.237786	-0.463872
F171	F	0.148969	1.267672	-0.526620
H172	H	0.015609	1.238101	-0.464616
F173	F	0.915863	0.663197	-0.524024
F174	F	0.843192	0.448555	-0.054482
F175	F	0.663832	0.491846	-0.086790
H176	H	0.944507	0.789893	-0.400133
H177	H	0.242698	1.735596	-0.076752
H178	H	0.123249	1.072961	-0.117969
H179	H	0.212034	1.018009	-0.002596
F180	F	0.326122	0.988117	0.060157
H181	H	0.645114	0.784905	-0.389869
F182	F	0.471731	1.010099	0.014069
H183	H	0.709364	1.201321	-0.933754
F184	F	0.652092	1.350600	-0.950624
F185	F	1.068067	0.626594	-0.453204
F186	F	0.822991	0.905182	-0.515825
