data_functionalizedCrystal
_audit_creation_method	'MofGen! by Chris Wilmer'
_symmetry_space_group_name_H-M	'P1'
_symmetry_Int_Tables_number	1
_symmetry_cell_setting	triclinic
loop_
_symmetry_equiv_pos_as_xyz
  x,y,z
_cell_length_a	12.594517
_cell_length_b	12.594516
_cell_length_c	12.594517
_cell_angle_alpha	90.003002
_cell_angle_beta	89.992224
_cell_angle_gamma	90.007702
loop_
_atom_site_label
_atom_site_type_symbol
_atom_site_fract_x
_atom_site_fract_y
_atom_site_fract_z
Zn1	Zn	1.627096	-0.424088	0.601582
Zn2	Zn	1.627060	-0.602021	0.423605
Zn3	Zn	1.449160	-0.424044	0.423642
Zn4	Zn	1.449095	-0.602012	0.601566
O5	O	1.538103	-0.513041	0.512599
O6	O	1.776037	-0.447713	0.577965
O7	O	1.603473	-0.578397	0.274664
O8	O	1.472805	-0.275104	0.447269
O9	O	1.776010	-0.578440	0.447206
O10	O	1.603535	-0.275137	0.578001
O11	O	1.472770	-0.447639	0.274691
O12	O	1.300205	-0.447630	0.447252
O13	O	1.472696	-0.578425	0.750514
O14	O	1.300158	-0.578382	0.577972
O15	O	1.603472	-0.447705	0.750526
O16	O	1.603410	-0.750966	0.447190
O17	O	1.472661	-0.750959	0.577936
C18	C	1.261562	-0.513001	0.512615
C19	C	1.143256	-0.513010	0.512647
C20	C	1.074008	-0.584265	0.583608
C21	C	1.003184	-0.487230	0.609786
C22	C	1.003282	-0.610124	0.486446
C23	C	1.073990	-0.415923	0.538876
C24	C	1.074094	-0.538883	0.415491
C25	C	1.003302	-0.441781	0.441631
C26	C	1.538053	-0.789582	0.512580
C27	C	1.538130	-0.907888	0.512608
C28	C	1.609327	-0.977106	0.441571
C29	C	1.635305	-1.047846	0.538716
C30	C	1.512285	-1.047946	0.415525
C31	C	1.564157	-0.977070	0.609804
C32	C	1.441092	-0.977164	0.486548
C33	C	1.467033	-1.047872	0.583760
C34	C	1.815724	-0.513083	0.512583
C35	C	1.934029	-0.513100	0.512577
C36	C	1.538081	-0.513069	0.790220
C37	C	1.538071	-0.513080	0.908525
C38	C	1.538181	-0.235421	0.512641
C39	C	1.538215	-0.117115	0.512659
C40	C	1.466941	-0.584169	0.977772
C41	C	1.564040	-0.610212	1.048545
C42	C	1.440978	-0.487064	1.048550
C43	C	1.635221	-0.539175	0.977741
C44	C	1.512094	-0.415981	0.977739
C45	C	1.609259	-0.441988	1.048481
C46	C	1.538101	-0.513047	1.236058
C47	C	1.538065	-0.513060	1.117752
H48	H	0.972038	-0.465378	0.691919
H49	H	1.717404	-1.078897	0.560786
O50	O	1.395115	-1.084590	0.655462
C51	C	1.293137	-1.047005	0.628657
H52	H	1.300847	-0.972093	0.578442
H53	H	1.247120	-1.028047	0.704268
H54	H	1.248983	-1.110480	0.581588
O55	O	1.111165	-0.564856	0.317457
C56	C	1.075230	-0.489585	0.242802
H57	H	1.000666	-0.449085	0.274312
H58	H	1.056240	-0.531234	0.164711
H59	H	1.139722	-0.427573	0.229013
O60	O	0.966305	-0.369940	0.370021
C61	C	0.854366	-0.371366	0.370180
H62	H	0.825241	-0.451069	0.401688
H63	H	0.823928	-0.359346	0.285793
H64	H	0.823411	-0.304838	0.423187
O65	O	1.590427	-0.939917	0.707730
C66	C	1.590082	-0.827976	0.706515
H67	H	1.601983	-0.798693	0.621699
H68	H	1.657165	-0.797013	0.758804
H69	H	1.510821	-0.797703	0.738062
H70	H	1.406866	-0.644340	0.946725
O71	O	1.343146	-0.940036	0.460375
C72	C	1.302794	-0.878457	0.544714
H73	H	1.343496	-0.902599	0.621864
H74	H	1.213620	-0.892138	0.552095
H75	H	1.318636	-0.790842	0.528382
H76	H	1.490390	-1.079079	0.333402
O77	O	1.590085	-0.708226	1.085609
C78	C	1.514914	-0.782952	1.049568
H79	H	1.437424	-0.740614	1.029710
H80	H	1.499972	-0.844385	1.114344
H81	H	1.546559	-0.824281	0.975509
H82	H	1.104920	-0.333809	0.561100
H83	H	1.717354	-0.561264	0.946768
H84	H	1.105058	-0.644407	0.643695
H85	H	1.490088	-0.333898	0.946614
O86	O	1.681239	-0.370378	1.085248
C87	C	1.783427	-0.398177	1.048949
H88	H	1.785426	-0.486487	1.029190
H89	H	1.844277	-0.380317	1.113531
H90	H	1.803212	-0.350209	0.974776
H91	H	1.358869	-0.465067	1.079654
H92	H	0.972216	-0.692214	0.464318
H93	H	1.669546	-0.946033	0.381551
