data_functionalizedCrystal
_audit_creation_method	'MofGen! by Chris Wilmer'
_symmetry_space_group_name_H-M	'P1'
_symmetry_Int_Tables_number	1
_symmetry_cell_setting	triclinic
loop_
_symmetry_equiv_pos_as_xyz
  x,y,z
_cell_length_a	14.044220
_cell_length_b	15.995292
_cell_length_c	12.503572
_cell_angle_alpha	93.525692
_cell_angle_beta	86.164750
_cell_angle_gamma	88.328747
loop_
_atom_site_label
_atom_site_type_symbol
_atom_site_fract_x
_atom_site_fract_y
_atom_site_fract_z
O1	O	1.263118	0.197436	-0.089192
O2	O	0.987152	0.190150	-0.089220
O3	O	1.132708	0.072468	-0.089207
O4	O	1.117563	0.315118	-0.089205
O5	O	1.121761	0.081334	0.089434
O6	O	0.976206	0.199017	0.089421
O7	O	1.252172	0.206302	0.089449
Cu8	Cu	1.113189	0.203469	0.105746
Cu9	Cu	1.126135	0.192983	-0.105517
O10	O	1.106616	0.323985	0.089436
C11	C	0.946366	0.191395	0.000097
C12	C	0.841143	0.181883	0.000086
C13	C	0.648484	0.164496	0.000107
C14	C	0.590835	0.231952	0.000112
C15	C	0.483633	0.222278	0.000124
C16	C	0.755696	0.174169	0.000096
C17	C	1.126618	0.045659	0.000111
C18	C	1.124771	-0.047432	0.000103
C19	C	1.117977	-0.385678	0.000112
C20	C	1.223010	-0.354498	0.000522
C21	C	1.225032	-0.257694	0.000115
C22	C	1.121348	-0.217870	0.000108
C23	C	1.075075	-0.255958	-0.101907
C24	C	1.073815	-0.352847	-0.101988
C25	C	1.059221	-0.342781	0.101160
C26	C	1.063032	-0.245931	0.102504
C27	C	1.123248	-0.123033	0.000102
C28	C	1.116074	-0.480516	0.000110
C29	C	1.292958	0.205058	0.000130
C30	C	1.398182	0.214569	0.000134
C31	C	1.112706	0.350793	0.000116
C32	C	1.114554	0.443884	0.000117
N33	N	1.104091	0.210844	0.254338
N34	N	1.135241	0.185602	-0.254109
C35	C	1.090707	0.221700	0.473452
C36	C	1.148622	0.174749	0.526784
C37	C	1.141175	0.180789	0.648707
C38	C	1.098153	0.215660	0.351518
H39	H	0.621991	0.296970	0.000108
H40	H	1.203798	0.130017	0.480876
C41	C	0.606401	0.076665	0.000105
C42	C	0.623542	0.020228	0.092861
C43	C	0.581445	-0.067601	0.092854
C44	C	0.522206	-0.098993	0.000092
C45	C	0.505062	-0.042556	-0.092670
C46	C	0.547160	0.045274	-0.092664
H47	H	0.667397	0.043466	0.161535
H48	H	0.594137	-0.109380	0.161524
H49	H	0.491044	-0.164010	0.000087
H50	H	0.461208	-0.065793	-0.161345
H51	H	0.534468	0.087052	-0.161334
H52	H	1.259022	-0.375840	0.073681
C53	C	1.274563	-0.222932	0.098893
C54	C	1.312548	-0.283269	0.178699
C55	C	1.362090	-0.248513	0.277475
C56	C	1.373647	-0.153419	0.296445
C57	C	1.335661	-0.093076	0.216637
C58	C	1.286119	-0.127832	0.117861
H59	H	1.303994	-0.353669	0.164658
H60	H	1.390210	-0.293184	0.336554
H61	H	1.410321	-0.127691	0.369565
H62	H	1.344215	-0.022676	0.230678
H63	H	1.257999	-0.083161	0.058782
C64	C	1.283438	-0.394500	-0.097752
C65	C	1.237825	-0.455292	-0.178259
C66	C	1.298249	-0.495293	-0.276534
C67	C	1.404286	-0.474503	-0.294303
C68	C	1.449904	-0.413708	-0.213794
C69	C	1.389480	-0.373707	-0.115518
H70	H	1.159325	-0.470684	-0.165107
H71	H	1.264478	-0.540297	-0.336133
H72	H	1.449015	-0.504114	-0.367053
H73	H	1.528404	-0.398315	-0.226945
H74	H	1.423251	-0.328702	-0.055920
C75	C	1.016177	0.282135	0.535459
C76	C	1.008117	0.287577	0.659141
C77	C	0.933592	0.348014	0.721162
C78	C	0.867125	0.403010	0.659501
C79	C	0.875183	0.397570	0.535812
C80	C	0.949709	0.337133	0.473791
H81	H	1.057321	0.246864	0.704792
H82	H	0.927627	0.352041	0.812724
H83	H	0.811957	0.447750	0.705413
H84	H	0.825979	0.438283	0.490161
H85	H	0.955673	0.333106	0.382228
C86	C	0.954696	-0.369439	0.102094
C87	C	0.910888	-0.415624	0.197076
C88	C	0.806368	-0.442287	0.198001
C89	C	0.745657	-0.422765	0.103944
C90	C	0.789464	-0.376577	0.008955
C91	C	0.893984	-0.349914	0.008029
H92	H	0.955831	-0.430078	0.266709
H93	H	0.773939	-0.476478	0.268319
H94	H	0.668285	-0.442502	0.104629
H95	H	0.744522	-0.362123	-0.060678
H96	H	0.926413	-0.315723	-0.062288
C97	C	1.286980	-0.233557	-0.098846
C98	C	1.334759	-0.302413	-0.177755
C99	C	1.396705	-0.278277	-0.276725
C100	C	1.410872	-0.185286	-0.296788
C101	C	1.363091	-0.116425	-0.217877
C102	C	1.301146	-0.140560	-0.118907
H103	H	1.324273	-0.371255	-0.162905
H104	H	1.432075	-0.329253	-0.335140
H105	H	1.456727	-0.167420	-0.370052
H106	H	1.373577	-0.047582	-0.232727
H107	H	1.265776	-0.089584	-0.060492
C108	C	0.972318	-0.220859	-0.107053
C109	C	0.929125	-0.157052	-0.018469
C110	C	0.826368	-0.121952	-0.023613
C111	C	0.766804	-0.150657	-0.117341
C112	C	0.809997	-0.214467	-0.205931
C113	C	0.912754	-0.249568	-0.200787
H114	H	0.973218	-0.135799	0.050920
H115	H	0.794394	-0.074715	0.041968
H116	H	0.690738	-0.124674	-0.121149
H117	H	0.765904	-0.235720	-0.275320
H118	H	0.944727	-0.296805	-0.266368
C119	C	1.130633	-0.230278	-0.204466
C120	C	1.177727	-0.297960	-0.285574
C121	C	1.233292	-0.272283	-0.388130
C122	C	1.241763	-0.178924	-0.409579
C123	C	1.194668	-0.111236	-0.328469
C124	C	1.139103	-0.136913	-0.225913
H125	H	1.171458	-0.367076	-0.269698
H126	H	1.268155	-0.322391	-0.448172
H127	H	1.282895	-0.159916	-0.485497
H128	H	1.200937	-0.042121	-0.344345
H129	H	1.104240	-0.086806	-0.165870
C130	C	1.097278	-0.372444	0.205621
C131	C	1.182202	-0.436009	0.200500
C132	C	1.220271	-0.465672	0.304955
C133	C	1.173417	-0.431771	0.414531
C134	C	1.088489	-0.368202	0.419656
C135	C	1.050420	-0.338539	0.315201
H136	H	1.216890	-0.461108	0.119382
H137	H	1.283141	-0.512730	0.301160
H138	H	1.201598	-0.453730	0.491854
H139	H	1.053801	-0.343103	0.500774
H140	H	0.987550	-0.291481	0.318996
H141	H	0.986976	-0.218309	0.108660
C142	C	1.108448	-0.211912	0.204453
C143	C	1.116808	-0.116765	0.226976
C144	C	1.162228	-0.082732	0.328916
C145	C	1.199289	-0.143845	0.408334
C146	C	1.190930	-0.238998	0.385814
C147	C	1.145509	-0.273031	0.283873
H148	H	1.089372	-0.071520	0.168184
H149	H	1.168416	-0.012294	0.345587
H150	H	1.232912	-0.118652	0.483797
H151	H	1.218366	-0.284243	0.444606
H152	H	1.139322	-0.343469	0.267203
H153	H	1.114864	-0.380731	-0.178241
H154	H	0.997069	-0.373380	-0.106616
