data_functionalizedCrystal
_audit_creation_method	'MofGen! by Chris Wilmer'
_symmetry_space_group_name_H-M	'P1'
_symmetry_Int_Tables_number	1
_symmetry_cell_setting	triclinic
loop_
_symmetry_equiv_pos_as_xyz
  x,y,z
_cell_length_a	12.759401
_cell_length_b	12.594516
_cell_length_c	12.759393
_cell_angle_alpha	90.029993
_cell_angle_beta	90.019437
_cell_angle_gamma	90.018184
loop_
_atom_site_label
_atom_site_type_symbol
_atom_site_fract_x
_atom_site_fract_y
_atom_site_fract_z
Zn1	Zn	1.606230	-0.423679	0.594019
Zn2	Zn	1.606114	-0.601698	0.418344
Zn3	Zn	1.430532	-0.423734	0.418356
Zn4	Zn	1.430510	-0.601616	0.593983
O5	O	1.518346	-0.512682	0.506175
O6	O	1.753236	-0.447305	0.570726
O7	O	1.582783	-0.578149	0.271325
O8	O	1.453897	-0.274781	0.441678
O9	O	1.753150	-0.578095	0.441658
O10	O	1.582981	-0.274741	0.570737
O11	O	1.453784	-0.447399	0.271333
O12	O	1.283508	-0.447319	0.441643
O13	O	1.453859	-0.577955	0.741009
O14	O	1.283492	-0.578008	0.570675
O15	O	1.582960	-0.447225	0.741035
O16	O	1.582762	-0.750633	0.441623
O17	O	1.453746	-0.750573	0.570664
C18	C	1.245379	-0.512662	0.506157
C19	C	1.128602	-0.512679	0.506174
C20	C	0.964035	-0.580849	0.573273
C21	C	1.073759	-0.580835	0.573256
C22	C	1.073716	-0.444539	0.439096
C23	C	0.963994	-0.444559	0.439109
C24	C	0.909197	-0.649002	0.640368
C25	C	0.964075	-0.717144	0.707444
C26	C	1.073799	-0.717130	0.707427
C27	C	1.128645	-0.648975	0.640334
C28	C	1.518268	-0.789223	0.506161
C29	C	1.518330	-0.907528	0.506190
C30	C	1.448216	-1.047551	0.576340
C31	C	1.543997	-0.976638	0.602112
C32	C	1.422558	-0.976869	0.480464
C33	C	1.614333	-1.047401	0.532051
C34	C	1.492830	-1.047639	0.410358
C35	C	1.588677	-0.976758	0.436095
C36	C	1.792380	-0.512703	0.506195
C37	C	1.909156	-0.512712	0.506203
C38	C	1.518420	-0.512575	0.780209
C39	C	1.518451	-0.512529	0.896986
C40	C	1.518454	-0.235061	0.506213
C41	C	1.518500	-0.116756	0.506229
C42	C	1.518334	-0.512712	0.233208
C43	C	1.518506	-0.512458	0.116432
C44	C	1.585683	-0.444451	0.951863
C45	C	1.585708	-0.444413	1.061587
C46	C	1.451266	-0.580538	1.061547
C47	C	1.451237	-0.580571	0.951824
C48	C	1.652898	-0.376410	0.897025
C49	C	1.720136	-0.308327	0.951902
C50	C	1.720161	-0.308289	1.061626
C51	C	1.652948	-0.376333	1.116473
H52	H	1.118380	-0.389049	0.384473
Cl53	Cl	1.739530	-1.095033	0.565816
Cl54	Cl	0.894999	-0.358906	0.354784
H55	H	1.648111	-0.945871	0.376787
Cl56	Cl	1.356676	-1.095546	0.667970
H57	H	1.396544	-0.635936	1.106211
H58	H	1.118478	-0.772621	0.762037
H59	H	1.341493	-0.945881	0.458689
Cl60	Cl	1.652875	-0.376457	0.759086
H61	H	0.819854	-0.649019	0.640391
Cl62	Cl	1.804611	-0.222776	0.882955
Cl63	Cl	1.266585	-0.648971	0.640305
H64	H	1.565643	-0.945454	0.683171
H65	H	1.774902	-0.252846	1.106305
H66	H	1.652961	-0.376283	1.205818
H67	H	1.471156	-1.078846	0.329323
H68	H	0.919413	-0.772639	0.762063
Cl69	Cl	1.366714	-0.666154	0.882830
