data_functionalizedCrystal
_audit_creation_method	'MofGen! by Chris Wilmer'
_symmetry_space_group_name_H-M	'P1'
_symmetry_Int_Tables_number	1
_symmetry_cell_setting	triclinic
loop_
_symmetry_equiv_pos_as_xyz
  x,y,z
_cell_length_a	14.853569
_cell_length_b	19.188930
_cell_length_c	13.330367
_cell_angle_alpha	89.990231
_cell_angle_beta	89.994419
_cell_angle_gamma	83.390173
loop_
_atom_site_label
_atom_site_type_symbol
_atom_site_fract_x
_atom_site_fract_y
_atom_site_fract_z
O1	O	1.195861	0.091160	-0.083389
O2	O	1.695861	0.591160	0.416611
O3	O	0.933341	0.102018	-0.083403
O4	O	1.433341	0.602018	0.416597
O5	O	1.072177	-0.005041	-0.083376
O6	O	1.572177	0.494959	0.416624
O7	O	1.057025	0.198219	-0.083416
O8	O	1.557025	0.698219	0.416584
O9	O	1.072157	-0.005044	0.083471
O10	O	1.572157	0.494956	0.583471
O11	O	0.933321	0.102016	0.083444
O12	O	1.433321	0.602016	0.583444
O13	O	1.195841	0.091158	0.083458
O14	O	1.695841	0.591158	0.583458
Cu15	Cu	1.064579	0.096586	0.098686
Cu16	Cu	1.564579	0.596586	0.598686
Cu17	Cu	1.064603	0.096589	-0.098631
Cu18	Cu	1.564603	0.596589	0.401369
O19	O	1.057005	0.198217	0.083431
O20	O	1.557005	0.698217	0.583431
C21	C	0.899745	0.101525	0.000019
C22	C	1.399745	0.601525	0.500019
C23	C	0.799670	0.100050	0.000015
C24	C	1.299670	0.600050	0.500015
C25	C	1.071676	-0.031055	0.000050
C26	C	1.571676	0.468945	0.500050
C27	C	1.070203	-0.108565	0.000059
C28	C	1.570203	0.391435	0.500059
C29	C	0.763651	0.035762	0.000024
C30	C	1.263651	0.535762	0.500024
C31	C	0.741654	0.162952	0.000010
C32	C	1.241654	0.662952	0.500010
C33	C	0.647628	0.161568	0.000012
C34	C	1.147628	0.661568	0.500012
C35	C	0.611609	0.097281	0.000021
C36	C	1.111609	0.597281	0.500021
C37	C	0.669616	0.034377	0.000029
C38	C	1.169616	0.534377	0.500029
C39	C	0.589614	0.224471	0.000014
C40	C	1.089614	0.724471	0.500014
C41	C	0.495581	0.223090	0.000017
C42	C	0.995581	0.723090	0.500017
C43	C	0.459560	0.158802	0.000019
C44	C	0.959560	0.658802	0.500019
C45	C	0.517574	0.095895	0.000025
C46	C	1.017574	0.595895	0.500025
C47	C	0.481555	0.031608	0.000034
C48	C	0.981555	0.531608	0.500034
C49	C	0.539567	-0.031300	0.000034
C50	C	1.039567	0.468700	0.500034
C51	C	0.633595	-0.029912	0.000031
C52	C	1.133595	0.470088	0.500031
C53	C	0.365532	0.157413	0.000022
C54	C	0.865532	0.657413	0.500022
C55	C	0.387520	0.030222	0.000039
C56	C	0.887520	0.530222	0.500039
C57	C	1.151668	-0.153216	0.000068
C58	C	1.651668	0.346784	0.500068
C59	C	1.150284	-0.226045	0.000052
C60	C	1.650284	0.273955	0.500052
C61	C	1.067431	-0.254218	0.000047
C62	C	1.567431	0.245782	0.500047
C63	C	0.985956	-0.209556	0.000032
C64	C	1.485956	0.290444	0.500032
C65	C	0.987342	-0.136730	0.000038
C66	C	1.487342	0.363270	0.500038
N67	N	1.004094	-0.362435	0.056825
N68	N	1.504094	0.137565	0.556825
N69	N	1.002782	-0.431618	0.056821
N70	N	1.502782	0.068382	0.556821
C71	C	1.063250	-0.473641	0.000026
C72	C	1.563250	0.026359	0.500026
N73	N	1.125092	-0.443868	-0.056752
N74	N	1.625092	0.056132	0.443248
N75	N	1.126406	-0.374679	-0.056744
N76	N	1.626406	0.125321	0.443256
C77	C	1.065919	-0.333186	0.000040
C78	C	1.565919	0.166814	0.500040
C79	C	1.143220	-0.597262	0.000016
C80	C	1.643220	-0.097262	0.500016
C81	C	1.141832	-0.670092	-0.000006
C82	C	1.641832	-0.170092	0.499994
C83	C	0.977503	-0.653601	-0.000016
C84	C	1.477503	-0.153601	0.499984
C85	C	0.978892	-0.580774	-0.000003
C86	C	1.478892	-0.080774	0.499997
C87	C	1.061753	-0.552609	0.000017
C88	C	1.561753	-0.052609	0.500017
C89	C	1.229437	0.091651	0.000034
C90	C	1.729437	0.591651	0.500034
C91	C	1.329512	0.093126	0.000031
C92	C	1.829512	0.593126	0.500031
C93	C	1.057506	0.224231	0.000002
C94	C	1.557506	0.724231	0.500002
C95	C	1.058979	0.301740	-0.000013
C96	C	1.558979	0.801740	0.499987
N97	N	1.064569	0.096584	0.237467
N98	N	1.564569	0.596584	0.737467
N99	N	1.064620	0.096586	-0.237412
N100	N	1.564620	0.596586	0.262588
C101	C	1.003124	0.143976	0.710078
C102	C	1.503124	0.643976	1.210078
C103	C	1.126106	0.049197	0.710070
C104	C	1.626106	0.549197	1.210070
C105	C	1.126096	0.049195	0.605051
C106	C	1.626096	0.549195	1.105051
C107	C	1.064600	0.096585	0.552542
C108	C	1.564600	0.596585	1.052542
C109	C	1.003114	0.143977	0.605050
C110	C	1.503114	0.643977	1.105050
C111	C	1.187587	0.001808	0.552535
C112	C	1.687587	0.501808	1.052535
C113	C	1.187580	0.001804	0.447510
C114	C	1.687580	0.501804	0.947510
C115	C	1.126079	0.049192	0.394999
C116	C	1.626079	0.549192	0.894999
C117	C	1.064590	0.096585	0.447513
C118	C	1.564590	0.596585	0.947513
C119	C	1.003093	0.143976	0.395004
C120	C	1.503093	0.643976	0.895004
C121	C	0.941599	0.191367	0.447517
C122	C	1.441599	0.691367	0.947517
C123	C	0.941613	0.191365	0.552538
C124	C	1.441613	0.691365	1.052538
C125	C	1.126066	0.049194	0.289977
C126	C	1.626066	0.549194	0.789977
C127	C	1.003083	0.143976	0.289976
C128	C	1.503083	0.643976	0.789976
H129	H	0.358201	-0.022129	0.000041
H130	H	0.858201	0.477871	0.500041
Br131	Br	0.286806	0.242780	0.000039
Br132	Br	0.786806	0.742780	0.500039
Br133	Br	1.255670	-0.559033	0.000055
Br134	Br	1.755670	-0.059033	0.500055
H135	H	1.176137	0.010612	0.247226
H136	H	1.676137	0.510612	0.747226
H137	H	0.912555	-0.544417	-0.000005
H138	H	1.412555	-0.044417	0.499995
Br139	Br	1.264121	-0.114995	0.000068
Br140	Br	1.764121	0.385005	0.500068
Br141	Br	1.271052	-0.062499	0.623794
Br142	Br	1.771052	0.437501	1.123794
H143	H	1.208173	-0.706447	-0.000004
H144	H	1.708173	-0.206447	0.499996
Br145	Br	0.858164	0.255677	0.623807
Br146	Br	1.358164	0.755677	1.123807
Br147	Br	0.919665	0.208286	0.781338
Br148	Br	1.419665	0.708286	1.281338
H149	H	1.216624	-0.262407	0.000055
H150	H	1.716624	0.237593	0.500055
H151	H	0.680836	-0.081127	0.000032
H152	H	1.180836	0.418873	0.500032
H153	H	0.770987	0.215292	0.000010
H154	H	1.270987	0.715292	0.500010
H155	H	0.910042	-0.676539	-0.000025
H156	H	1.410042	-0.176539	0.499975
Br157	Br	0.638500	0.311713	0.000000
Br158	Br	1.138500	0.811713	0.500000
H159	H	1.176179	0.010616	0.752827
H160	H	1.676179	0.510616	1.252827
Br161	Br	0.919612	0.208290	0.218720
Br162	Br	1.419612	0.708290	0.718720
Br163	Br	0.490672	-0.118544	0.000060
Br164	Br	0.990672	0.381456	0.500060
Br165	Br	1.271032	-0.062510	0.376249
Br166	Br	1.771032	0.437490	0.876249
H167	H	0.810888	-0.015455	0.000020
H168	H	1.310888	0.484545	0.500020
Br169	Br	0.416859	0.308461	0.000012
Br170	Br	0.916859	0.808461	0.500012
H171	H	0.918497	-0.232500	0.000026
H172	H	1.418497	0.267500	0.500026
Br173	Br	0.876775	-0.076126	0.000023
Br174	Br	1.376775	0.423874	0.500023
H175	H	0.891532	0.229955	0.404751
H176	H	1.391532	0.729955	0.904751
