data_functionalizedCrystal
_audit_creation_method	'MofGen! by Chris Wilmer'
_symmetry_space_group_name_H-M	'P1'
_symmetry_Int_Tables_number	1
_symmetry_cell_setting	triclinic
loop_
_symmetry_equiv_pos_as_xyz
  x,y,z
_cell_length_a	19.188930
_cell_length_b	10.654545
_cell_length_c	9.130313
_cell_angle_alpha	89.996934
_cell_angle_beta	89.990369
_cell_angle_gamma	83.813930
loop_
_atom_site_label
_atom_site_type_symbol
_atom_site_fract_x
_atom_site_fract_y
_atom_site_fract_z
O1	O	0.098047	1.665768	-0.121803
O2	O	0.107393	1.300091	-0.121811
O3	O	0.001133	1.493482	-0.121778
O4	O	0.204307	1.472377	-0.121836
O5	O	0.001130	1.493469	0.121821
O6	O	0.107390	1.300078	0.121788
O7	O	0.098044	1.665755	0.121796
Cu8	Cu	0.102716	1.482915	0.144034
Cu9	Cu	0.102720	1.482931	-0.144050
O10	O	0.204303	1.472364	0.121763
C11	C	0.106706	1.253301	-0.000012
C12	C	0.104655	1.113901	-0.000014
C13	C	0.103687	1.048410	0.132773
C14	C	0.101749	0.917431	0.132773
C15	C	0.101747	0.917446	-0.132811
C16	C	0.103681	1.048423	-0.132810
C17	C	-0.024884	1.492792	0.000025
C18	C	-0.102402	1.490741	0.000038
C19	C	-0.146585	1.604216	0.000047
C20	C	-0.219421	1.602289	0.000024
C21	C	-0.248071	1.486879	0.000020
C22	C	-0.203879	1.373389	0.000003
C23	C	-0.131044	1.375319	0.000011
N24	N	-0.356654	1.398658	0.082920
N25	N	-0.425844	1.396831	0.082914
C26	C	-0.467518	1.481055	-0.000009
N27	N	-0.437389	1.567193	-0.082910
N28	N	-0.368192	1.569023	-0.082898
C29	C	-0.327048	1.484773	0.000010
C30	C	-0.590679	1.592448	-0.000028
C31	C	-0.663516	1.590516	-0.000060
C32	C	-0.647972	1.361613	-0.000067
C33	C	-0.575137	1.363548	-0.000049
C34	C	-0.546494	1.478970	-0.000022
C35	C	0.230320	1.473054	-0.000044
C36	C	0.307838	1.475105	-0.000066
C37	C	0.098731	1.712545	-0.000006
C38	C	0.100782	1.851945	-0.000014
N39	N	0.102713	1.482913	0.346657
N40	N	0.102718	1.482943	-0.346672
C41	C	0.055682	1.568576	0.423323
C42	C	0.055682	1.568588	0.576660
C43	C	0.149752	1.397271	0.576651
C44	C	0.149748	1.397254	0.423317
H45	H	0.100961	0.864114	0.240902
H46	H	-0.095070	1.282911	0.000004
N47	N	-0.678856	1.237125	-0.000074
H48	H	-0.708718	1.231223	-0.090381
H49	H	-0.708703	1.231286	0.090283
H50	H	-0.123269	1.698201	0.000064
N51	N	0.004961	1.660991	0.659352
H52	H	0.031938	1.716435	0.722946
H53	H	-0.026190	1.613103	0.722912
N54	N	0.200480	1.304886	0.659334
H55	H	0.193348	1.317895	0.768105
H56	H	0.250084	1.319108	0.632502
N57	N	-0.267093	1.724678	0.000042
H58	H	-0.257811	1.775068	-0.090249
H59	H	-0.257803	1.774936	0.090415
N60	N	0.004954	1.660958	0.340637
H61	H	-0.024841	1.715224	0.412478
H62	H	-0.026163	1.613052	0.277042
N63	N	-0.527474	1.241159	-0.000029
H64	H	-0.496899	1.236861	-0.090326
H65	H	-0.556721	1.167821	0.000024
N66	N	-0.234775	1.248909	-0.000009
H67	H	-0.287620	1.264904	-0.000009
H68	H	-0.218658	1.199262	0.090293
H69	H	0.104480	1.101717	0.240904
H70	H	0.188047	1.327492	0.360891
H71	H	0.104467	1.101748	-0.240948
N72	N	0.100696	0.846824	-0.276036
H73	H	0.099326	0.753912	-0.255890
H74	H	0.144238	0.859298	-0.334042
H75	H	-0.567357	1.686431	-0.000013
N76	N	-0.711175	1.712914	-0.000056
H77	H	-0.681975	1.786319	-0.000033
H78	H	-0.741743	1.717082	0.090244
