data_functionalizedCrystal
_audit_creation_method	'MofGen! by Chris Wilmer'
_symmetry_space_group_name_H-M	'P1'
_symmetry_Int_Tables_number	1
_symmetry_cell_setting	triclinic
loop_
_symmetry_equiv_pos_as_xyz
  x,y,z
_cell_length_a	16.120530
_cell_length_b	12.594516
_cell_length_c	16.120728
_cell_angle_alpha	87.103457
_cell_angle_beta	89.860094
_cell_angle_gamma	87.111852
loop_
_atom_site_label
_atom_site_type_symbol
_atom_site_fract_x
_atom_site_fract_y
_atom_site_fract_z
Zn1	Zn	1.247392	-0.539467	0.534597
Zn2	Zn	1.747392	-0.039467	1.034597
Zn3	Zn	1.254386	-0.708853	0.395553
Zn4	Zn	1.754386	-0.208853	0.895553
Zn5	Zn	1.115408	-0.521421	0.388515
Zn6	Zn	1.615408	-0.021421	0.888515
Zn7	Zn	1.108317	-0.707927	0.527521
Zn8	Zn	1.608317	-0.207927	1.027521
O9	O	1.181376	-0.619417	0.461547
O10	O	1.681376	-0.119417	0.961547
O11	O	1.364686	-0.569876	0.522059
O12	O	1.864686	-0.069876	1.022059
O13	O	1.241845	-0.676826	0.278255
O14	O	1.741845	-0.176826	0.778255
O15	O	1.132957	-0.374873	0.407910
O16	O	1.632957	0.125127	0.907910
O17	O	1.369824	-0.694324	0.419904
O18	O	1.869824	-0.194324	0.919904
O19	O	1.229925	-0.388131	0.515235
O20	O	1.729925	0.111869	1.015235
O21	O	1.139739	-0.539120	0.273084
O22	O	1.639739	-0.039120	0.773084
O23	O	0.998102	-0.538222	0.401048
O24	O	1.498102	-0.038222	0.901048
O25	O	1.120871	-0.692745	0.644824
O26	O	1.620871	-0.192745	1.144824
O27	O	0.992892	-0.675247	0.503175
O28	O	1.492892	-0.175247	1.003175
O29	O	1.223049	-0.568978	0.650023
O30	O	1.723049	-0.068978	1.150023
O31	O	1.234969	-0.857673	0.413043
O32	O	1.734969	-0.357673	0.913043
O33	O	1.127653	-0.856992	0.509999
O34	O	1.627653	-0.356992	1.009999
C35	C	0.965324	-0.604676	0.450580
C36	C	1.465324	-0.104676	0.950580
C37	C	0.872896	-0.598397	0.445909
C38	C	1.372896	-0.098397	0.945909
C39	C	0.703667	-0.586908	0.437387
C40	C	1.203667	-0.086908	0.937387
C41	C	0.659923	-0.652009	0.485767
C42	C	1.159923	-0.152009	0.985767
C43	C	0.565758	-0.645616	0.481026
C44	C	1.065758	-0.145616	0.981026
C45	C	0.797840	-0.593299	0.442127
C46	C	1.297840	-0.093299	0.942127
C47	C	1.181322	-0.895954	0.461536
C48	C	1.681322	-0.395954	0.961536
C49	C	1.181373	-1.014264	0.461563
C50	C	1.681373	-0.514264	0.961563
C51	C	1.123001	-1.083183	0.514258
C52	C	1.623001	-0.583183	1.014258
C53	C	1.106603	-1.147965	0.437355
C54	C	1.606603	-0.647965	0.937355
C55	C	1.197846	-1.160287	0.538483
C56	C	1.697846	-0.660287	1.038483
C57	C	1.164937	-1.077483	0.384617
C58	C	1.664937	-0.577483	0.884617
C59	C	1.256213	-1.089804	0.485798
C60	C	1.756213	-0.589804	0.985798
C61	C	1.239847	-1.154553	0.408844
C62	C	1.739847	-0.654553	0.908844
C63	C	1.398271	-0.634216	0.472556
C64	C	1.898271	-0.134216	0.972556
C65	C	1.490699	-0.640523	0.477248
C66	C	1.990699	-0.140523	0.977248
C67	C	1.170389	-0.632771	0.678440
C68	C	1.670389	-0.132771	1.178440
C69	C	1.165707	-0.638462	0.770866
C70	C	1.665707	-0.138462	1.270866
C71	C	1.181452	-0.341803	0.461577
C72	C	1.681452	0.158197	0.961577
C73	C	1.181484	-0.223501	0.461590
C74	C	1.681484	0.276499	0.961590
C75	C	1.157128	-0.648826	0.940090
C76	C	1.657128	-0.148826	1.440090
C77	C	1.205598	-0.590109	0.983853
C78	C	1.705598	-0.090109	1.483853
C79	C	1.200825	-0.595875	1.078015
C80	C	1.700825	-0.095875	1.578015
C81	C	1.161900	-0.643061	0.845920
C82	C	1.661900	-0.143061	1.345920
C83	C	1.192320	-0.606144	1.245497
C84	C	1.692320	-0.106144	1.745497
C85	C	1.197022	-0.600470	1.153072
C86	C	1.697022	-0.100470	1.653072
H87	H	0.670399	-0.526378	0.392408
H88	H	1.170399	-0.026378	0.892408
F89	F	0.703406	-0.731127	0.544567
F90	F	1.203406	-0.231127	1.044567
F91	F	1.098210	-0.720191	0.983549
F92	F	1.598210	-0.220191	1.483549
H93	H	1.250678	-0.535507	0.950602
H94	H	1.750678	-0.035507	1.450602
H95	H	1.073556	-1.051848	0.558748
H96	H	1.573556	-0.551848	1.058748
H97	H	1.289261	-1.185682	0.364239
H98	H	1.789261	-0.685682	0.864239
F99	F	1.023941	-1.181631	0.410569
F100	F	1.523941	-0.681631	0.910569
F101	F	1.146691	-1.030370	0.299577
F102	F	1.646691	-0.530370	0.799577
F103	F	1.338851	-1.056107	0.512610
F104	F	1.838851	-0.556107	1.012610
F105	F	1.215999	-1.207569	0.623492
F106	F	1.715999	-0.707569	1.123492
