data_functionalizedCrystal
_audit_creation_method	'MofGen! by Chris Wilmer'
_symmetry_space_group_name_H-M	'P1'
_symmetry_Int_Tables_number	1
_symmetry_cell_setting	triclinic
loop_
_symmetry_equiv_pos_as_xyz
  x,y,z
_cell_length_a	12.594517
_cell_length_b	12.594516
_cell_length_c	12.759393
_cell_angle_alpha	90.029124
_cell_angle_beta	90.014978
_cell_angle_gamma	90.016010
loop_
_atom_site_label
_atom_site_type_symbol
_atom_site_fract_x
_atom_site_fract_y
_atom_site_fract_z
Zn1	Zn	1.627274	-0.423681	0.593901
Zn2	Zn	2.127274	0.076319	1.093901
Zn3	Zn	1.627163	-0.601700	0.418228
Zn4	Zn	2.127163	-0.101700	0.918228
Zn5	Zn	1.449276	-0.423736	0.418251
Zn6	Zn	1.949276	0.076264	0.918251
Zn7	Zn	1.449260	-0.601617	0.593880
Zn8	Zn	1.949260	-0.101617	1.093880
O9	O	1.538243	-0.512683	0.506065
O10	O	2.038243	-0.012683	1.006065
O11	O	1.776205	-0.447307	0.570596
O12	O	2.276205	0.052693	1.070596
O13	O	1.603526	-0.578150	0.271210
O14	O	2.103526	-0.078150	0.771210
O15	O	1.472941	-0.274783	0.441569
O16	O	1.972941	0.225217	0.941569
O17	O	1.776123	-0.578097	0.441530
O18	O	2.276123	-0.078097	0.941530
O19	O	1.603715	-0.274742	0.570618
O20	O	2.103715	0.225258	1.070618
O21	O	1.472833	-0.447401	0.271227
O22	O	1.972833	0.052599	0.771227
O23	O	1.300328	-0.447321	0.441549
O24	O	1.800328	0.052679	0.941549
O25	O	1.472914	-0.577956	0.740904
O26	O	1.972914	-0.077956	1.240904
O27	O	1.300316	-0.578009	0.570584
O28	O	1.800316	-0.078009	1.070584
O29	O	1.603700	-0.447227	0.740919
O30	O	2.103700	0.052773	1.240919
O31	O	1.603510	-0.750635	0.441511
O32	O	2.103510	-0.250635	0.941511
O33	O	1.472806	-0.750574	0.570562
O34	O	1.972806	-0.250574	1.070562
C35	C	1.261702	-0.512663	0.506067
C36	C	1.761702	-0.012663	1.006067
C37	C	1.143397	-0.512680	0.506093
C38	C	1.643397	-0.012680	1.006093
C39	C	1.003405	-0.583890	0.576145
C40	C	1.503405	-0.083890	1.076145
C41	C	1.074174	-0.609803	0.480260
C42	C	1.574174	-0.109803	0.980260
C43	C	1.074199	-0.486814	0.601968
C44	C	1.574199	0.013186	1.101968
C45	C	1.003381	-0.538677	0.410126
C46	C	1.503381	-0.038677	0.910126
C47	C	1.003399	-0.415644	0.531899
C48	C	1.503399	0.084356	1.031899
C49	C	1.074137	-0.441519	0.435948
C50	C	1.574137	0.058481	0.935948
C51	C	1.538173	-0.789224	0.506055
C52	C	2.038173	-0.289224	1.006055
C53	C	1.538241	-0.907530	0.506085
C54	C	2.038241	-0.407530	1.006085
C55	C	1.467144	-0.976789	0.576227
C56	C	1.967144	-0.476789	1.076227
C57	C	1.441209	-1.047659	0.480362
C58	C	1.941209	-0.547659	0.980362
C59	C	1.564272	-1.047458	0.601967
C60	C	2.064272	-0.547458	1.101967
C61	C	1.512255	-0.976842	0.410170
C62	C	2.012255	-0.476842	0.910170
C63	C	1.635363	-0.976635	0.531839
C64	C	2.135363	-0.476635	1.031839
C65	C	1.609466	-1.047474	0.435908
C66	C	2.109466	-0.547474	0.935908
C67	C	1.815864	-0.512705	0.506063
C68	C	2.315864	-0.012705	1.006063
C69	C	1.934169	-0.512714	0.506062
C70	C	2.434169	-0.012714	1.006062
C71	C	1.538318	-0.512576	0.780098
C72	C	2.038318	-0.012576	1.280098
C73	C	1.538349	-0.512530	0.896875
C74	C	2.038349	-0.012530	1.396875
C75	C	1.538342	-0.235063	0.506098
C76	C	2.038342	0.264937	1.006098
C77	C	1.538384	-0.116757	0.506112
C78	C	2.038384	0.383243	1.006112
C79	C	1.538230	-0.512714	0.233098
C80	C	2.038230	-0.012714	0.733098
C81	C	1.538405	-0.512459	0.116321
C82	C	2.038405	-0.012459	0.616321
C83	C	1.606459	-0.444453	0.951747
C84	C	2.106459	0.055547	1.451747
C85	C	1.606484	-0.444415	1.061471
C86	C	2.106484	0.055585	1.561471
C87	C	1.470287	-0.580540	1.061442
C88	C	1.970287	-0.080540	1.561442
C89	C	1.470257	-0.580572	0.951720
C90	C	1.970257	-0.080572	1.451720
C91	C	1.674551	-0.376411	0.896902
C92	C	2.174551	0.123589	1.396902
C93	C	1.742667	-0.308329	0.951773
C94	C	2.242667	0.191671	1.451773
C95	C	1.742692	-0.308291	1.061497
C96	C	2.242692	0.191709	1.561497
C97	C	1.674602	-0.376334	1.116350
C98	C	2.174602	0.123666	1.616350
H99	H	1.105261	-0.691879	0.458412
H100	H	1.605261	-0.191879	0.958412
F101	F	1.114861	-0.458199	0.707961
F102	F	1.614861	0.041801	1.207961
F103	F	1.688136	-1.087786	0.358306
F104	F	2.188136	-0.587786	0.858306
F105	F	1.742608	-0.935829	0.560341
F106	F	2.242608	-0.435829	1.060341
F107	F	0.962896	-0.567416	0.304100
F108	F	1.462896	-0.067416	0.804100
F109	F	1.592974	-1.088008	0.707935
F110	F	2.092974	-0.588008	1.207935
F111	F	1.815116	-0.235903	0.893394
F112	F	2.315116	0.264097	1.393394
F113	F	1.114468	-0.362817	0.358414
F114	F	1.614468	0.137183	0.858414
F115	F	1.815187	-0.235834	1.119893
F116	F	2.315187	0.264166	1.619893
H117	H	1.674540	-0.376437	0.807559
H118	H	2.174540	0.123563	1.307559
F119	F	1.674619	-0.376277	1.233129
F120	F	2.174619	0.123723	1.733129
F121	F	1.397766	-0.653026	0.893319
F122	F	1.897766	-0.153026	1.393319
H123	H	1.414851	-0.635937	1.106112
H124	H	1.914851	-0.135937	1.606112
H125	H	1.406912	-0.945751	0.635457
H126	H	1.906912	-0.445751	1.135457
F127	F	0.962807	-0.662640	0.653497
F128	F	1.462807	-0.162640	1.153497
F129	F	1.333936	-1.088433	0.451894
F130	F	1.833936	-0.588433	0.951894
H131	H	0.972288	-0.333591	0.553774
H132	H	1.472288	0.166409	1.053774
H133	H	1.490201	-0.945951	0.329073
H134	H	1.990201	-0.445951	0.829073
