data_functionalizedCrystal
_audit_creation_method	'MofGen! by Chris Wilmer'
_symmetry_space_group_name_H-M	'P1'
_symmetry_Int_Tables_number	1
_symmetry_cell_setting	triclinic
loop_
_symmetry_equiv_pos_as_xyz
  x,y,z
_cell_length_a	12.759401
_cell_length_b	18.050590
_cell_length_c	18.050583
_cell_angle_alpha	89.962959
_cell_angle_beta	89.985948
_cell_angle_gamma	90.019035
loop_
_atom_site_label
_atom_site_type_symbol
_atom_site_fract_x
_atom_site_fract_y
_atom_site_fract_z
Zn1	Zn	1.606168	-0.295597	-0.419870
Zn2	Zn	1.606068	-0.419810	-0.295678
Zn3	Zn	1.430488	-0.295639	-0.295698
Zn4	Zn	1.430447	-0.419750	-0.419831
O5	O	1.518293	-0.357699	-0.357769
O6	O	1.753176	-0.312081	-0.403403
O7	O	1.582752	-0.403381	-0.191756
O8	O	1.453851	-0.191709	-0.312194
O9	O	1.753103	-0.403340	-0.312160
O10	O	1.582923	-0.191678	-0.403423
O11	O	1.453754	-0.312153	-0.191771
O12	O	1.283461	-0.312096	-0.312157
O13	O	1.453782	-0.403239	-0.523761
O14	O	1.283432	-0.403280	-0.403356
O15	O	1.582884	-0.312023	-0.523789
O16	O	1.582713	-0.523726	-0.312122
O17	O	1.453685	-0.523683	-0.403337
C18	C	1.245326	-0.357686	-0.357755
C19	C	1.128549	-0.357699	-0.357766
C20	C	1.518212	-0.550651	-0.357740
C21	C	1.518274	-0.633197	-0.357752
C22	C	0.963920	-0.405153	-0.310206
C23	C	1.073644	-0.405142	-0.310192
C24	C	1.073724	-0.310259	-0.405353
C25	C	0.964002	-0.310267	-0.405362
C26	C	1.223539	-0.431564	-0.222546
C27	C	1.278360	-0.479011	-0.174969
C28	C	1.242719	-0.551464	-0.163439
C29	C	1.152260	-0.576486	-0.199498
C30	C	1.097445	-0.529043	-0.247081
C31	C	1.133084	-0.456580	-0.258596
C32	C	0.814105	-0.283852	-0.493009
C33	C	0.759288	-0.236412	-0.540596
C34	C	0.794926	-0.163957	-0.552133
C35	C	0.885389	-0.138938	-0.516088
C36	C	0.940206	-0.186378	-0.468500
C37	C	0.904560	-0.258832	-0.456962
C38	C	1.588585	-0.832644	-0.308218
C39	C	1.614243	-0.881966	-0.375998
C40	C	1.518333	-0.784327	-0.357781
C41	C	1.492782	-0.882087	-0.290032
C42	C	1.518393	-0.930312	-0.357804
C43	C	1.544040	-0.832562	-0.425596
C44	C	1.422535	-0.832678	-0.339585
C45	C	1.448157	-0.881978	-0.407411
C46	C	1.518302	-0.700229	-0.357767
C47	C	1.518424	-1.014409	-0.357826
C48	C	1.792326	-0.357712	-0.357784
C49	C	1.909103	-0.357718	-0.357790
C50	C	1.518339	-0.357620	-0.551475
C51	C	1.518359	-0.357586	-0.634021
C52	C	1.518403	-0.163993	-0.357815
C53	C	1.518449	-0.081448	-0.357835
C54	C	1.588635	-0.307959	-0.833487
C55	C	1.492809	-0.289783	-0.882884
C56	C	1.518401	-0.357573	-0.785151
C57	C	1.614266	-0.375702	-0.882835
C58	C	1.518450	-0.357559	-0.931136
C59	C	1.422524	-0.339362	-0.833461
C60	C	1.544046	-0.425312	-0.833408
C61	C	1.448154	-0.407162	-0.882783
C62	C	1.518374	-0.357579	-0.701053
C63	C	1.518466	-0.357553	-1.015233
C64	C	1.518307	-0.357724	-0.164817
C65	C	1.518491	-0.357549	-0.082272
H66	H	0.919224	-0.443790	-0.271469
H67	H	1.118437	-0.271627	-0.444085
N68	N	1.037779	-0.159397	-0.429621
H69	H	1.052043	-0.106298	-0.444149
H70	H	1.027284	-0.162556	-0.374250
N71	N	1.572823	-0.803873	-0.501524
H72	H	1.638368	-0.772694	-0.497948
H73	H	1.585797	-0.847049	-0.535880
H74	H	0.914409	-0.079940	-0.525483
N75	N	1.667305	-0.803942	-0.252762
H76	H	1.666253	-0.747993	-0.252812
H77	H	1.648683	-0.822781	-0.201731
N78	N	1.315226	-0.803968	-0.319147
H79	H	1.315844	-0.748018	-0.319768
H80	H	1.262028	-0.822746	-0.356063
H81	H	1.471147	-0.903839	-0.232728
N82	N	1.369478	-0.910482	-0.462998
H83	H	1.388931	-0.892363	-0.514136
H84	H	1.369513	-0.966430	-0.462344
H85	H	1.647932	-0.265976	-0.811839
H86	H	1.388712	-0.449114	-0.904292
H87	H	0.750289	-0.125335	-0.590889
H88	H	1.471133	-0.232492	-0.904617
N89	N	0.775658	-0.362001	-0.480563
H90	H	0.774545	-0.389454	-0.529295
H91	H	0.824133	-0.388194	-0.444920
H92	H	0.685632	-0.256791	-0.569950
H93	H	1.341450	-0.323957	-0.811864
H94	H	1.023797	-0.549416	-0.276441
H95	H	1.695283	-0.903619	-0.391403
H96	H	1.565751	-0.482588	-0.811661
H97	H	1.123256	-0.635488	-0.190114
N98	N	1.721622	-0.396026	-0.911568
H99	H	1.774594	-0.358517	-0.893636
H100	H	1.741426	-0.446846	-0.892791
H101	H	1.287362	-0.590096	-0.124700
H102	H	1.352028	-0.458637	-0.145624
H103	H	1.252560	-0.372564	-0.231922
