data_functionalizedCrystal
_audit_creation_method	'MofGen! by Chris Wilmer'
_symmetry_space_group_name_H-M	'P1'
_symmetry_Int_Tables_number	1
_symmetry_cell_setting	triclinic
loop_
_symmetry_equiv_pos_as_xyz
  x,y,z
_cell_length_a	19.805407
_cell_length_b	19.805405
_cell_length_c	11.169409
_cell_angle_alpha	90.037171
_cell_angle_beta	90.024953
_cell_angle_gamma	90.028666
loop_
_atom_site_label
_atom_site_type_symbol
_atom_site_fract_x
_atom_site_fract_y
_atom_site_fract_z
Zn1	Zn	1.034765	-0.269373	0.678667
Zn2	Zn	1.034670	-0.382583	0.477967
Zn3	Zn	0.921570	-0.269417	0.477983
Zn4	Zn	0.921542	-0.382530	0.678594
O5	O	0.978137	-0.325975	0.578302
O6	O	1.129469	-0.284395	0.652067
O7	O	1.019639	-0.367611	0.310019
O8	O	0.936637	-0.174694	0.504642
O9	O	1.129399	-0.367569	0.504614
O10	O	1.019801	-0.174662	0.652083
O11	O	0.936545	-0.284469	0.310031
O12	O	0.826850	-0.284417	0.504571
O13	O	0.936589	-0.367479	0.846553
O14	O	0.826829	-0.367521	0.651958
O15	O	1.019773	-0.284343	0.846607
O16	O	1.019612	-0.477292	0.504543
O17	O	0.936497	-0.477253	0.651942
C18	C	0.802281	-0.325968	0.578259
C19	C	0.727049	-0.325982	0.578269
C20	C	0.265297	-0.282748	0.655245
C21	C	0.335986	-0.282749	0.655237
C22	C	0.371287	-0.325986	0.578341
C23	C	0.335896	-0.369229	0.501458
C24	C	0.265209	-0.369231	0.501473
C25	C	0.620969	-0.369224	0.501394
C26	C	0.691661	-0.369218	0.501382
C27	C	0.691746	-0.282742	0.655158
C28	C	0.621059	-0.282744	0.655173
C29	C	0.585674	-0.325989	0.578295
C30	C	0.509026	-0.325988	0.578307
C31	C	0.447934	-0.325984	0.578322
C32	C	0.978060	-0.501832	0.578259
C33	C	0.978089	-0.577064	0.578281
C34	C	1.021366	-0.612333	0.655113
C35	C	1.021391	-0.683021	0.655136
C36	C	0.978140	-0.718439	0.578318
C37	C	0.934858	-0.683165	0.501482
C38	C	0.934831	-0.612478	0.501467
C39	C	0.934967	-0.968238	0.501543
C40	C	0.934999	-1.038930	0.501562
C41	C	1.021527	-1.038782	0.655213
C42	C	1.021499	-0.968094	0.655197
C43	C	0.978215	-0.932826	0.578366
C44	C	0.978188	-0.856178	0.578344
C45	C	0.978170	-0.795086	0.578333
C46	C	1.154679	-0.325983	0.578347
C47	C	1.229911	-0.325986	0.578366
C48	C	0.978189	-0.325900	0.891345
C49	C	0.978211	-0.325868	1.024745
C50	C	0.978233	-0.149433	0.578372
C51	C	0.978273	-0.074201	0.578402
C52	C	0.978124	-0.326002	0.266478
C53	C	0.978233	-0.325843	0.133078
H54	H	0.720402	-0.404429	0.438762
H55	H	0.899724	-0.939528	0.438983
H56	H	0.236398	-0.404442	0.438872
Br57	Br	1.080201	-0.920031	0.759447
Br58	Br	0.383804	-0.427914	0.397106
H59	H	0.899640	-0.712008	0.438941
H60	H	0.899776	-1.067765	0.439006
Br61	Br	1.080270	-1.086649	0.759488
H62	H	0.364794	-0.247542	0.717844
Br63	Br	1.080072	-0.564273	0.759362
H64	H	0.899589	-0.583762	0.438903
H65	H	1.056637	-0.711734	0.717692
Br66	Br	0.572956	-0.427894	0.397023
H67	H	0.592320	-0.247533	0.717785
Br68	Br	0.217396	-0.224060	0.759600
H69	H	0.720565	-0.247531	0.717759
