data_functionalizedCrystal
_audit_creation_method	'MofGen! by Chris Wilmer'
_symmetry_space_group_name_H-M	'P1'
_symmetry_Int_Tables_number	1
_symmetry_cell_setting	triclinic
loop_
_symmetry_equiv_pos_as_xyz
  x,y,z
_cell_length_a	15.944545
_cell_length_b	27.731996
_cell_length_c	15.021413
_cell_angle_alpha	89.998029
_cell_angle_beta	89.995468
_cell_angle_gamma	83.058780
loop_
_atom_site_label
_atom_site_type_symbol
_atom_site_fract_x
_atom_site_fract_y
_atom_site_fract_z
O1	O	1.113697	0.062321	-0.073986
O2	O	0.869043	0.070010	-0.074002
O3	O	0.998991	-0.004200	-0.073975
O4	O	0.983749	0.136531	-0.074014
O5	O	0.998971	-0.004189	0.074090
O6	O	0.869023	0.070021	0.074062
O7	O	1.113676	0.062332	0.074078
Zn8	Zn	0.991346	0.066178	0.097578
Zn9	Zn	0.991373	0.066164	-0.097503
O10	O	0.983728	0.136542	0.074050
C11	C	0.837743	0.069697	0.000028
C12	C	0.744510	0.068742	0.000023
C13	C	0.474532	0.019888	0.000046
C14	C	0.524788	0.043446	0.073045
C15	C	0.408912	0.065334	0.000039
C16	C	0.524788	0.043448	-0.072935
C17	C	0.573803	0.067006	0.000030
C18	C	0.457939	0.088881	0.073098
C19	C	0.457937	0.088876	-0.072947
C20	C	0.508159	0.112468	0.000070
C21	C	0.313922	0.064370	0.000045
C22	C	0.668789	0.067974	0.000030
C23	C	0.998668	-0.022203	0.000061
C24	C	0.997725	-0.075864	0.000070
C25	C	0.991802	-0.408611	-0.080684
C26	C	0.988221	-0.610285	-0.080700
O27	O	0.987732	-0.636363	-0.149341
N28	N	0.987765	-0.635498	0.000009
C29	C	0.988199	-0.610290	0.080728
O30	O	0.987720	-0.636362	0.149375
C31	C	0.991774	-0.408617	0.080743
C32	C	0.992239	-0.383407	0.000028
C33	C	0.992266	-0.383401	-0.161392
C34	C	0.993166	-0.332986	-0.161387
C35	C	0.993602	-0.307781	-0.080675
C36	C	0.993139	-0.332991	0.000033
C37	C	0.992202	-0.383408	0.161460
C38	C	0.993094	-0.332987	0.161457
C39	C	0.993558	-0.307777	0.080743
C40	C	0.994475	-0.257371	0.080750
N41	N	0.994931	-0.232158	0.000041
C42	C	0.994495	-0.257363	-0.080671
C43	C	0.986323	-0.716171	0.080714
C44	C	0.985431	-0.766589	0.080711
C45	C	0.985452	-0.766581	-0.080717
C46	C	0.986350	-0.716163	-0.080713
C47	C	0.986779	-0.690958	0.000005
C48	C	0.996385	-0.151488	-0.080655
C49	C	0.997289	-0.101069	-0.080643
C50	C	0.997263	-0.101081	0.080785
C51	C	0.996364	-0.151496	0.080773
C52	C	0.995922	-0.176698	0.000046
O53	O	0.994955	-0.231262	0.149356
O54	O	0.994955	-0.231281	-0.149308
C55	C	0.990903	-0.459027	-0.080689
C56	C	0.990439	-0.484237	0.000019
C57	C	0.990875	-0.459032	0.080731
C58	C	0.989547	-0.534655	0.000015
C59	C	0.989110	-0.559860	-0.080697
C60	C	0.989566	-0.534646	-0.161406
C61	C	0.990466	-0.484231	-0.161401
C62	C	0.990419	-0.484245	0.161440
C63	C	0.989520	-0.534660	0.161429
C64	C	0.989084	-0.559865	0.080716
C65	C	1.144976	0.062645	0.000045
C66	C	1.238210	0.063600	0.000045
C67	C	0.984052	0.154545	0.000013
C68	C	0.984995	0.208206	-0.000002
N69	N	0.991334	0.066187	0.230716
N70	N	0.991393	0.066151	-0.230640
C71	C	0.931237	0.100486	0.470386
C72	C	1.007012	0.109869	0.529723
C73	C	0.991355	0.066175	0.412323
C74	C	0.915601	0.056803	0.529728
C75	C	0.991369	0.066165	0.587747
C76	C	1.067168	0.075580	0.470353
C77	C	0.975708	0.022495	0.470353
C78	C	1.051538	0.031859	0.529662
C79	C	0.991346	0.066182	0.311265
C80	C	0.991388	0.066157	0.688802
H81	H	0.428742	0.108048	-0.134675
H82	H	0.962436	-0.014429	0.444255
C83	C	0.829051	0.046092	0.564961
C84	C	0.776438	0.083311	0.624936
C85	C	0.689886	0.072604	0.660166
C86	C	0.655948	0.024677	0.635421
C87	C	0.708562	-0.012545	0.575443
C88	C	0.795113	-0.001838	0.540214
H89	H	0.801560	0.118792	0.643256
H90	H	0.650938	0.100159	0.704565
H91	H	0.591878	0.016751	0.661500
H92	H	0.683439	-0.048026	0.557123
H93	H	0.834061	-0.029393	0.495814
H94	H	0.993541	-0.312464	-0.227113
H95	H	0.428864	0.108064	0.134880
H96	H	0.991908	-0.403918	-0.227121
H97	H	0.459403	-0.019251	0.000128
C98	C	1.024911	0.159763	0.564961
C99	C	0.964706	0.205687	0.541576
C100	C	0.982598	0.255583	0.576811
C101	C	1.060695	0.259553	0.635431
C102	C	1.120905	0.213627	0.658818
C103	C	1.103013	0.163732	0.623584
H104	H	0.906889	0.202749	0.498180
H105	H	0.938026	0.289580	0.559497
H106	H	1.073940	0.296489	0.661513
H107	H	1.178722	0.216566	0.702215
H108	H	1.147585	0.129735	0.640897
H109	H	1.131252	0.083547	0.444381
H110	H	0.553972	0.024243	-0.134646
H111	H	1.102439	0.002838	0.555526
H112	H	0.986727	-0.695640	-0.146438
H113	H	0.553967	0.024257	0.134771
H114	H	0.880447	0.129525	0.444360
C115	C	0.528387	0.165381	0.000107
C116	C	0.497883	0.199568	0.077384
C117	C	0.518112	0.252480	0.077425
C118	C	0.568846	0.271206	0.000191
C119	C	0.599354	0.237019	-0.077092
C120	C	0.579124	0.184106	-0.077133
H121	H	0.460324	0.185707	0.134562
H122	H	0.495528	0.277788	0.134635
H123	H	0.583821	0.310375	0.000222
H124	H	0.636913	0.250880	-0.134271
H125	H	0.601708	0.158799	-0.134343
H126	H	0.997669	-0.080545	-0.146373
C127	C	0.989019	-0.562386	0.250226
C128	C	0.916168	-0.549956	0.316805
C129	C	0.915662	-0.577678	0.405600
C130	C	0.988007	-0.617829	0.427815
C131	C	1.060864	-0.630261	0.361234
C132	C	1.061370	-0.602539	0.272439
H133	H	0.862608	-0.520231	0.300362
H134	H	0.861728	-0.568475	0.454888
H135	H	0.987633	-0.638350	0.493547
H136	H	1.114423	-0.659985	0.377678
H137	H	1.115303	-0.611742	0.223152
H138	H	0.996021	-0.172001	-0.146390
H139	H	0.985097	-0.787112	-0.146437
H140	H	0.985066	-0.787112	0.146436
H141	H	0.995994	-0.172024	0.146497
C142	C	0.991692	-0.411122	0.250258
C143	C	0.918109	-0.440288	0.272475
C144	C	0.917601	-0.467997	0.361283
C145	C	0.990676	-0.466541	0.427874
C146	C	1.064265	-0.437374	0.405660
C147	C	1.064773	-0.409664	0.316852
H148	H	0.864009	-0.441368	0.223178
H149	H	0.863125	-0.489589	0.377727
H150	H	0.990300	-0.487053	0.493615
H151	H	1.118365	-0.436294	0.454956
H152	H	1.119249	-0.388073	0.300407
C153	C	0.993569	-0.305262	0.250251
C154	C	0.921217	-0.265110	0.272448
C155	C	0.921695	-0.237387	0.361240
C156	C	0.994525	-0.249816	0.427834
C157	C	1.066883	-0.289969	0.405638
C158	C	1.066405	-0.317693	0.316846
H159	H	0.867298	-0.255908	0.223150
H160	H	0.868130	-0.207662	0.377670
H161	H	0.994879	-0.229293	0.493563
H162	H	1.120801	-0.299172	0.454937
H163	H	1.119969	-0.347418	0.300416
C164	C	0.990969	-0.456505	-0.250190
C165	C	1.063816	-0.468933	-0.316775
C166	C	1.064316	-0.441210	-0.405569
C167	C	0.991968	-0.401059	-0.427779
C168	C	0.919115	-0.388629	-0.361193
C169	C	0.918615	-0.416352	-0.272398
H170	H	1.117378	-0.498657	-0.300335
H171	H	1.118247	-0.450412	-0.454860
H172	H	0.992338	-0.380537	-0.493509
H173	H	0.865554	-0.358905	-0.377632
H174	H	0.864684	-0.407150	-0.223107
H175	H	0.986677	-0.695655	0.146448
H176	H	0.989215	-0.555177	-0.227125
H177	H	0.997622	-0.080550	0.146499
H178	H	0.990776	-0.463728	0.227168
