data_functionalizedCrystal
_audit_creation_method	'MofGen! by Chris Wilmer'
_symmetry_space_group_name_H-M	'P1'
_symmetry_Int_Tables_number	1
_symmetry_cell_setting	triclinic
loop_
_symmetry_equiv_pos_as_xyz
  x,y,z
_cell_length_a	17.077404
_cell_length_b	19.076808
_cell_length_c	19.076919
_cell_angle_alpha	89.878360
_cell_angle_beta	92.279190
_cell_angle_gamma	92.321597
loop_
_atom_site_label
_atom_site_type_symbol
_atom_site_fract_x
_atom_site_fract_y
_atom_site_fract_z
Zn1	Zn	1.169468	-0.295776	-0.386088
Zn2	Zn	1.169798	-0.408571	-0.263858
Zn3	Zn	1.043681	-0.291072	-0.268593
Zn4	Zn	1.033112	-0.413249	-0.381321
O5	O	1.104015	-0.352167	-0.324965
O6	O	1.279357	-0.310749	-0.369888
O7	O	1.157630	-0.389058	-0.166155
O8	O	1.064652	-0.193359	-0.288156
O9	O	1.279600	-0.393619	-0.280086
O10	O	1.157067	-0.196815	-0.374479
O11	O	1.064973	-0.302731	-0.169634
O12	O	0.932433	-0.307267	-0.283533
O13	O	1.046638	-0.401592	-0.480284
O14	O	0.924668	-0.397030	-0.366354
O15	O	1.146818	-0.315285	-0.483787
O16	O	1.147382	-0.507528	-0.275463
O17	O	1.046959	-0.510965	-0.361762
C18	C	0.900069	-0.352147	-0.324940
C19	C	0.812818	-0.352156	-0.324946
C20	C	0.436864	-0.309120	-0.371818
C21	C	0.518845	-0.309115	-0.371811
C22	C	0.559967	-0.352182	-0.324982
C23	C	0.519102	-0.395263	-0.278163
C24	C	0.437122	-0.395271	-0.278174
C25	C	0.689974	-0.395241	-0.278141
C26	C	0.771960	-0.395231	-0.278128
C27	C	0.771697	-0.309084	-0.371778
C28	C	0.689717	-0.309093	-0.371789
C29	C	0.648859	-0.352173	-0.324969
C30	C	1.096080	-0.534744	-0.317597
C31	C	1.092756	-0.612853	-0.314468
C32	C	1.139270	-0.651289	-0.357979
C33	C	1.136144	-0.724680	-0.355040
C34	C	1.086506	-0.759634	-0.308587
C35	C	1.039987	-0.721192	-0.265075
C36	C	1.043110	-0.647803	-0.268017
C37	C	1.072008	-0.978939	-0.294967
C38	C	1.068890	-1.052334	-0.292026
C39	C	1.165047	-1.055816	-0.381992
C40	C	1.168169	-0.982425	-0.384928
C41	C	1.121646	-0.943990	-0.341418
N42	N	1.083311	-0.834651	-0.305581
N43	N	1.124837	-0.868974	-0.344429
C44	C	1.308757	-0.352187	-0.324990
C45	C	1.396006	-0.352196	-0.325001
C46	C	1.095512	-0.359485	-0.508245
C47	C	1.091889	-0.362604	-0.586348
C48	C	1.112001	-0.168877	-0.332378
C49	C	1.115405	-0.090770	-0.335536
C50	C	1.142342	-0.319136	-0.624865
C51	C	1.138928	-0.322064	-0.698251
C52	C	1.085064	-0.368464	-0.733118
C53	C	1.034605	-0.411933	-0.694595
C54	C	1.038016	-0.409002	-0.621211
C55	C	1.069267	-0.382047	-0.952399
C56	C	1.065862	-0.384977	-1.025789
C57	C	1.170184	-0.295106	-1.029439
C58	C	1.173593	-0.292181	-0.956053
C59	C	1.123132	-0.335649	-0.917537
N60	N	1.081575	-0.371459	-0.808130
N61	N	1.126618	-0.332649	-0.842526
C62	C	1.112531	-0.344826	-0.142401
C63	C	1.116315	-0.341509	-0.064306
H64	H	0.656709	-0.430324	-0.240018
Cl65	Cl	1.241312	-0.233848	-0.912226
Cl66	Cl	1.210065	-0.260805	-0.581040
H67	H	1.028189	-0.417451	-0.921047
H68	H	0.552589	-0.430332	-0.240037
H69	H	0.552109	-0.274041	-0.409937
H70	H	1.174027	-0.755971	-0.390466
Cl71	Cl	0.823062	-0.254923	-0.430634
Cl72	Cl	0.385756	-0.449432	-0.219321
H73	H	1.034129	-0.947651	-0.259538
Cl74	Cl	1.223525	-1.104138	-0.436690
Cl75	Cl	0.977577	-0.765135	-0.206683
Cl76	Cl	1.230571	-0.938488	-0.443329
Cl77	Cl	1.202392	-0.267447	-0.746669
H78	H	1.028466	-1.080791	-0.254198
Cl79	Cl	1.233615	-0.240463	-1.077864
H80	H	0.805438	-0.430302	-0.239998
H81	H	1.179694	-0.622834	-0.395803
H82	H	1.021997	-0.422763	-1.054175
H83	H	1.005231	-0.616509	-0.232587
Cl84	Cl	0.966887	-0.470263	-0.738428
H85	H	0.403390	-0.274046	-0.409948
Cl86	Cl	0.638023	-0.254948	-0.430658
Cl87	Cl	0.974584	-0.463647	-0.572788
