data_functionalizedCrystal
_audit_creation_method	'MofGen! by Chris Wilmer'
_symmetry_space_group_name_H-M	'P1'
_symmetry_Int_Tables_number	1
_symmetry_cell_setting	triclinic
loop_
_symmetry_equiv_pos_as_xyz
  x,y,z
_cell_length_a	14.044220
_cell_length_b	14.044202
_cell_length_c	9.730217
_cell_angle_alpha	90.001047
_cell_angle_beta	90.004421
_cell_angle_gamma	86.809211
loop_
_atom_site_label
_atom_site_type_symbol
_atom_site_fract_x
_atom_site_fract_y
_atom_site_fract_z
O1	O	0.230208	-1.277168	0.114227
O2	O	0.221893	-1.000495	0.114245
O3	O	0.087715	-1.134679	0.114222
O4	O	0.364387	-1.142984	0.114249
O5	O	0.087713	-1.134674	-0.114358
O6	O	0.221892	-1.000491	-0.114336
O7	O	0.230207	-1.277163	-0.114353
Zn8	Zn	0.226049	-1.138826	-0.150636
Zn9	Zn	0.226051	-1.138832	0.150528
O10	O	0.364385	-1.142980	-0.114331
C11	C	0.218256	-0.964871	-0.000043
C12	C	0.207407	-0.858728	-0.000037
C13	C	0.264506	-0.613270	-0.000045
C14	C	0.187590	-0.664395	-0.000050
C15	C	0.198619	-0.772532	-0.000043
C16	C	0.253478	-0.505123	-0.000052
C17	C	0.052092	-1.131041	-0.000068
C18	C	-0.054051	-1.120196	-0.000069
C19	C	-0.248389	-1.100370	-0.000048
C20	C	-0.299517	-1.177284	-0.000049
C21	C	-0.407653	-1.166253	-0.000037
C22	C	-0.140243	-1.111400	-0.000060
C23	C	0.400008	-1.146618	-0.000038
C24	C	0.506151	-1.157462	-0.000028
N25	N	0.226047	-1.138829	-0.356173
C26	C	0.233842	-0.312788	-0.000062
C27	C	0.244684	-0.418931	-0.000057
C28	C	0.107274	-1.257704	-0.356183
C29	C	0.047891	-1.317148	-0.428128
C30	C	0.047891	-1.317158	-0.572008
C31	C	0.107279	-1.257715	-0.643946
C32	C	0.166662	-1.198271	-0.572001
C33	C	0.166658	-1.198270	-0.428118
C34	C	0.285429	-1.079392	-0.571991
C35	C	0.285435	-1.079386	-0.428111
C36	C	0.344817	-1.019949	-0.643929
C37	C	0.404207	-0.960509	-0.571984
C38	C	0.404205	-0.960502	-0.428095
C39	C	0.344818	-1.019942	-0.356166
N40	N	0.226046	-1.138836	0.356064
H41	H	0.338633	-0.650711	-0.000033
O42	O	0.107278	-1.257693	-0.200998
H43	H	0.056003	-1.309007	-0.163063
H44	H	0.452551	-0.912110	-0.630565
O45	O	-0.297974	-1.002174	-0.000045
H46	H	-0.276969	-0.962852	-0.093211
O47	O	0.089389	-0.614808	-0.000064
H48	H	0.050065	-0.635819	0.093095
O49	O	-0.249933	-1.275488	-0.000080
H50	H	-0.171548	-1.268858	-0.000103
H51	H	-0.000464	-1.365545	-0.369544
H52	H	-0.000468	-1.365559	-0.630586
H53	H	0.344815	-1.019946	-0.239011
O54	O	0.107283	-1.257721	-0.799131
H55	H	0.056016	-1.309044	-0.837073
O56	O	0.344829	-1.019960	-0.799114
H57	H	0.293570	-1.071290	-0.837059
H58	H	0.452558	-0.912092	-0.369525
