data_functionalizedCrystal
_audit_creation_method	'MofGen! by Chris Wilmer'
_symmetry_space_group_name_H-M	'P1'
_symmetry_Int_Tables_number	1
_symmetry_cell_setting	triclinic
loop_
_symmetry_equiv_pos_as_xyz
  x,y,z
_cell_length_a	10.654550
_cell_length_b	10.723024
_cell_length_c	9.130313
_cell_angle_alpha	89.996649
_cell_angle_beta	89.999724
_cell_angle_gamma	84.476400
loop_
_atom_site_label
_atom_site_type_symbol
_atom_site_fract_x
_atom_site_fract_y
_atom_site_fract_z
O1	O	1.667813	0.175275	-0.121686
O2	O	1.302332	0.191974	-0.121712
O3	O	1.493503	0.002049	-0.121693
O4	O	1.476642	0.365199	-0.121705
O5	O	1.493490	0.002044	0.121906
O6	O	1.302319	0.191968	0.121886
O7	O	1.667800	0.175269	0.121913
Cu8	Cu	1.485058	0.183618	0.144142
Cu9	Cu	1.485074	0.183625	-0.143942
O10	O	1.476629	0.365194	0.121894
C11	C	1.255528	0.190745	0.000084
C12	C	1.116085	0.187077	0.000073
C13	C	1.036583	0.298901	0.000074
C14	C	0.905562	0.295447	0.000100
C15	C	0.933560	0.068334	0.000118
C16	C	1.064577	0.071789	0.000103
C17	C	1.492269	-0.044453	0.000104
C18	C	1.488598	-0.183008	0.000099
C19	C	1.595567	-0.257975	0.000105
C20	C	1.591776	-0.401179	0.000099
C21	C	1.714604	0.176498	0.000114
C22	C	1.854047	0.180167	0.000114
C23	C	1.477863	0.411696	0.000093
C24	C	1.481534	0.550251	0.000089
N25	N	1.485056	0.183613	0.346765
N26	N	1.485085	0.183620	-0.346564
C27	C	1.569736	0.099550	0.423425
C28	C	1.569748	0.099550	0.576762
C29	C	1.400397	0.267687	0.576765
C30	C	1.400380	0.267680	0.423431
H31	H	1.129312	-0.019278	0.000107
H32	H	1.689955	-0.216138	0.000121
H33	H	1.331457	0.336135	0.639201
H34	H	1.078515	0.392775	0.000061
H35	H	1.683350	-0.465598	0.000111
O36	O	0.883668	-0.043726	-0.000065
C37	C	0.924167	-0.111946	-0.126246
H38	H	1.015313	-0.077149	-0.168314
H39	H	0.848484	-0.098144	-0.214585
C40	C	0.835571	-0.294853	-0.036252
C41	C	0.947524	-0.252122	-0.087913
H42	H	0.849973	-0.381321	-0.012611
H43	H	0.808281	-0.248891	0.048756
H44	H	0.772513	-0.283341	-0.109877
H45	H	1.010575	-0.263620	-0.014283
H46	H	0.974825	-0.298089	-0.172909
O47	O	1.372241	-0.372967	0.000340
C48	C	1.301808	-0.396271	0.126473
H49	H	1.367673	-0.440267	0.214660
H50	H	1.228454	-0.463078	0.097938
C51	C	1.154091	-0.218015	0.075365
C52	C	1.234990	-0.272042	0.183681
H53	H	1.112869	-0.141387	0.110651
H54	H	1.201539	-0.202316	-0.009618
H55	H	1.092974	-0.273699	0.051595
H56	H	1.296114	-0.216365	0.207436
H57	H	1.187550	-0.287728	0.268669
O58	O	1.376066	-0.233052	-0.000109
C59	C	1.367324	-0.307509	-0.126295
H60	H	1.466065	-0.338939	-0.168350
H61	H	1.312192	-0.250541	-0.214639
C62	C	1.177592	-0.384738	-0.036332
C63	C	1.298868	-0.423349	-0.087978
H64	H	1.135360	-0.456191	-0.012700
H65	H	1.183477	-0.334572	0.048680
H66	H	1.131665	-0.337263	-0.109961
H67	H	1.344797	-0.470809	-0.014343
H68	H	1.292988	-0.473526	-0.172977
O69	O	1.652025	0.017763	0.349178
C70	C	1.726786	-0.056412	0.449729
H71	H	1.675295	-0.058290	0.559039
H72	H	1.820428	-0.015030	0.466017
C73	C	1.814754	-0.188495	0.255649
C74	C	1.751507	-0.190810	0.389902
H75	H	1.830009	-0.271396	0.218744
H76	H	1.764390	-0.138519	0.187904
H77	H	1.892782	-0.154003	0.269240
H78	H	1.673474	-0.225286	0.376306
H79	H	1.801859	-0.240795	0.457643
H80	H	0.840836	0.386506	0.000103
H81	H	1.638700	0.031097	0.639175
H82	H	1.331418	0.336135	0.361009
