data_functionalizedCrystal
_audit_creation_method	'MofGen! by Chris Wilmer'
_symmetry_space_group_name_H-M	'P1'
_symmetry_Int_Tables_number	1
_symmetry_cell_setting	triclinic
loop_
_symmetry_equiv_pos_as_xyz
  x,y,z
_cell_length_a	31.640172
_cell_length_b	21.606444
_cell_length_c	21.606444
_cell_angle_alpha	60.001331
_cell_angle_beta	90.005700
_cell_angle_gamma	59.997094
loop_
_atom_site_label
_atom_site_type_symbol
_atom_site_fract_x
_atom_site_fract_y
_atom_site_fract_z
Zr1	Zr	0.407174	0.677376	-0.081121
O2	O	0.339680	0.806511	-0.179957
O3	O	0.427865	0.548252	-0.050826
O4	O	0.427860	0.677376	-0.179944
O5	O	0.339689	0.677383	0.051015
O6	O	0.497417	0.677363	-0.179931
O7	O	0.339686	0.677387	-0.050839
O8	O	0.497427	0.446384	0.051039
O9	O	0.339680	0.908362	-0.179954
O10	O	0.488599	0.601349	-0.037891
O11	O	0.436692	0.601355	0.038111
O12	O	0.436686	0.753382	-0.113909
O13	O	0.384779	0.753388	-0.037907
Zr14	Zr	0.518115	0.677348	0.081346
Zr15	Zr	0.518110	0.677355	-0.081100
Zr16	Zr	0.407180	0.677369	0.081324
Zr17	Zr	0.407173	0.839816	-0.081116
Zr18	Zr	0.518117	0.514908	0.081341
O19	O	0.497424	0.806472	0.051050
O20	O	0.497416	0.806482	-0.179926
O21	O	0.339688	0.806501	0.051020
O22	O	0.585609	0.548213	0.180182
O23	O	0.585601	0.548223	-0.050795
O24	O	0.427873	0.548242	0.180151
O25	O	0.585600	0.677342	-0.050791
O26	O	0.497430	0.677348	0.180169
O27	O	0.427873	0.677361	0.180155
O28	O	0.585604	0.677337	0.051063
O29	O	0.427858	0.908345	-0.179937
O30	O	0.497431	0.446379	0.180161
O31	O	0.585610	0.446363	0.180178
O32	O	0.585606	0.446368	0.051056
O33	O	0.339684	0.908356	-0.050831
O34	O	0.427863	0.908340	-0.050814
O35	O	0.488604	0.601342	0.114134
O36	O	0.540511	0.601336	0.038131
O37	O	0.488598	0.753369	-0.037887
O38	O	0.436691	0.753375	0.038116
C39	C	0.462646	0.474174	0.000106
C40	C	0.462647	0.405214	0.000103
C41	C	0.489741	0.372813	-0.039570
C42	C	0.489742	0.308013	-0.039565
C43	C	0.462647	0.275620	0.000110
C44	C	0.435553	0.308023	0.039788
C45	C	0.435554	0.372818	0.039787
C46	C	0.435546	0.046714	0.039794
C47	C	0.435546	-0.018083	0.039791
C48	C	0.489735	-0.018091	-0.039558
C49	C	0.489736	0.046704	-0.039559
C50	C	0.462644	0.079098	0.000123
C51	C	0.462643	0.149361	0.000118
C52	C	0.462645	0.205363	0.000111
C53	C	0.323881	0.677388	0.000085
C54	C	0.276786	0.677396	0.000076
C55	C	0.011879	0.597994	0.039808
C56	C	-0.165106	0.597979	0.039823
O57	O	-0.164946	0.530486	0.073598
N58	N	-0.214334	0.677338	0.000142
C59	C	-0.219315	0.756707	-0.039542
O60	O	-0.265248	0.824206	-0.073287
C61	C	-0.042331	0.756721	-0.039553
C62	C	0.006897	0.677357	0.000125
C63	C	0.061104	0.518636	0.079483
C64	C	0.105347	0.518641	0.079476
C65	C	0.100365	0.598003	0.039793
C66	C	0.051140	0.677361	0.000118
C67	C	-0.047312	0.836089	-0.079232
C68	C	-0.003061	0.836085	-0.079229
C69	C	0.046167	0.756721	-0.039551
C70	C	0.090402	0.756728	-0.039573
N71	N	0.139629	0.677369	0.000109
C72	C	0.144611	0.598007	0.039792
C73	C	-0.312233	0.756694	-0.039536
C74	C	-0.356479	0.756690	-0.039534
C75	C	-0.302267	0.597962	0.039833
C76	C	-0.258020	0.597967	0.039826
C77	C	-0.263005	0.677335	0.000146
C78	C	0.237524	0.598022	0.039772
C79	C	0.281768	0.598034	0.039759
C80	C	0.227553	0.756761	-0.039604
C81	C	0.183312	0.756750	-0.039594
C82	C	0.188300	0.677374	0.000100
O83	O	0.090281	0.824186	-0.073322
O84	O	0.190548	0.530517	0.073545
C85	C	-0.032365	0.597990	0.039816
C86	C	-0.081590	0.677347	0.000140
C87	C	-0.086572	0.756710	-0.039542
C88	C	-0.125836	0.677344	0.000142
C89	C	-0.120854	0.597982	0.039824
C90	C	-0.071626	0.518623	0.079506
C91	C	-0.027383	0.518627	0.079498
C92	C	-0.135800	0.836069	-0.079224
C93	C	-0.180041	0.836058	-0.079214
C94	C	-0.175059	0.756695	-0.039531
C95	C	0.601408	0.677337	0.000139
C96	C	0.648503	0.677328	0.000149
C97	C	0.462638	0.677371	-0.203082
C98	C	0.462635	0.677374	-0.272045
C99	C	0.462643	0.880550	0.000119
C100	C	0.462643	0.949510	0.000121
C101	C	0.435537	0.756733	-0.344124
C102	C	0.435541	0.756731	-0.408919
C103	C	0.462642	0.677368	-0.401633
C104	C	0.489743	0.598003	-0.329546
C105	C	0.489742	0.598006	-0.264753
C106	C	0.489752	0.597988	-0.590849
C107	C	0.489750	0.597990	-0.655650
C108	C	0.435551	0.756712	-0.735015
C109	C	0.435550	0.756715	-0.670222
C110	C	0.462653	0.677351	-0.598141
C111	C	0.462649	0.677354	-0.527883
C112	C	0.462643	0.677364	-0.471889
C113	C	0.462652	0.677353	0.203307
C114	C	0.462654	0.677350	0.272269
C115	C	0.601410	0.474149	0.000133
C116	C	0.648505	0.405180	0.000140
C117	C	0.462653	0.474165	0.203300
C118	C	0.462656	0.405202	0.272260
C119	C	0.601417	0.474140	0.203327
C120	C	0.648515	0.405168	0.272297
C121	C	0.323873	0.880585	-0.203103
C122	C	0.276775	0.949556	-0.272072
C123	C	0.323880	0.880576	0.000092
C124	C	0.276785	0.949545	0.000085
C125	C	0.462636	0.880559	-0.203076
C126	C	0.462633	0.949522	-0.272036
C127	C	0.643524	0.372798	-0.039547
C128	C	0.687771	0.308003	-0.039556
C129	C	0.736999	0.275587	0.000127
C130	C	0.741979	0.307975	0.039815
C131	C	0.697732	0.372773	0.039819
C132	C	0.489755	0.372810	0.344335
C133	C	0.489756	0.308021	0.409136
C134	C	0.462660	0.275621	0.401862
C135	C	0.435558	0.308020	0.329780
C136	C	0.435555	0.372812	0.264980
C137	C	0.697732	0.372775	0.265013
C138	C	0.741989	0.307977	0.329811
C139	C	0.737029	0.275570	0.401892
C140	C	0.687806	0.307970	0.409174
C141	C	0.643550	0.372770	0.344377
C142	C	0.227558	0.981957	-0.264788
C143	C	0.183300	1.046775	-0.329586
C144	C	0.188261	1.079186	-0.401667
C145	C	0.237483	1.046782	-0.408949
C146	C	0.281740	0.981970	-0.344152
C147	C	0.281766	0.981933	0.039765
C148	C	0.237519	1.046746	0.039755
C149	C	0.188291	1.079164	0.000070
C150	C	0.183311	1.046773	-0.039614
C151	C	0.227557	0.981966	-0.039609
C152	C	0.489734	0.981901	-0.264737
C153	C	0.489742	1.046691	-0.329526
C154	C	0.462645	1.079104	-0.401614
C155	C	0.435543	1.046719	-0.408911
C156	C	0.435539	0.981926	-0.344122
H157	H	0.511797	-0.044476	-0.071866
H158	H	0.462652	1.131863	-0.454362
H159	H	0.321852	0.533403	0.072072
H160	H	-0.217940	0.533341	0.072142
H161	H	0.413468	0.955570	-0.350076
H162	H	0.241516	1.073179	-0.467645
H163	H	0.413482	1.073120	-0.467613
H164	H	0.511802	0.399187	-0.071882
H165	H	0.321845	0.955543	0.072086
H166	H	0.413483	0.821335	-0.793713
H167	H	0.223505	0.821376	-0.071916
O168	O	0.516024	0.520986	-0.322599
C169	C	0.510197	0.537993	-0.395241
H170	H	0.473586	0.606190	-0.438185
H171	H	0.545192	0.534248	-0.411782
C172	C	0.550978	0.385747	-0.341491
C173	C	0.506010	0.469505	-0.394235
H174	H	0.548398	0.343499	-0.340871
H175	H	0.554906	0.374288	-0.292551
H176	H	0.580136	0.382639	-0.355282
H177	H	0.476854	0.472615	-0.380438
H178	H	0.502077	0.480963	-0.443174
H179	H	0.773070	0.222805	0.454647
O180	O	0.516066	0.276667	-0.078175
C181	C	0.539988	0.319143	-0.113183
H182	H	0.518735	0.384822	-0.121040
H183	H	0.582049	0.276642	-0.075997
C184	C	0.564114	0.253562	-0.181392
C185	C	0.538008	0.334233	-0.191048
H186	H	0.562895	0.262867	-0.229422
H187	H	0.547999	0.224942	-0.157805
H188	H	0.599162	0.218153	-0.150402
H189	H	0.502959	0.369636	-0.222030
H190	H	0.554117	0.362859	-0.214643
O191	O	0.329510	0.950560	-0.351369
C192	C	0.324391	0.993084	-0.428886
H193	H	0.284896	1.019801	-0.463437
H194	H	0.328020	1.049355	-0.447974
C195	C	0.415756	0.894618	-0.398666
C196	C	0.367250	0.927426	-0.441102
H197	H	0.442194	0.854119	-0.406202
H198	H	0.419206	0.865970	-0.346441
H199	H	0.418773	0.941518	-0.414577
H200	H	0.364231	0.880528	-0.425184
H201	H	0.363801	0.956064	-0.493325
H202	H	0.603477	0.399136	0.350318
O203	O	0.683084	0.276357	0.479252
C204	C	0.732704	0.212229	0.534873
H205	H	0.762027	0.183909	0.509608
H206	H	0.743977	0.243221	0.555148
C207	C	0.696051	0.173353	0.633402
C208	C	0.732065	0.138565	0.602373
H209	H	0.695657	0.127915	0.675042
H210	H	0.662621	0.216559	0.595930
H211	H	0.705449	0.199179	0.650292
H212	H	0.722663	0.112750	0.585476
H213	H	0.765494	0.095353	0.639844
H214	H	0.782066	0.281573	0.072123
O215	O	0.409217	0.833886	-0.677435
C216	C	0.385289	0.903932	-0.754950
H217	H	0.406543	0.880663	-0.789501
H218	H	0.343230	0.928343	-0.774052
C219	C	0.361153	1.007486	-0.724712
C220	C	0.387260	0.978908	-0.767147
H221	H	0.362366	1.053737	-0.732236
H222	H	0.377272	0.960296	-0.672488
H223	H	0.326106	1.027822	-0.740635
H224	H	0.422307	0.958562	-0.751217
H225	H	0.371147	1.026097	-0.819369
O226	O	0.242466	0.520839	0.078340
C227	C	0.295405	0.450806	0.113368
H228	H	0.318990	0.474089	0.082236
H229	H	0.308453	0.426400	0.174954
C230	C	0.274780	0.347226	0.148726
C231	C	0.303747	0.375821	0.110485
H232	H	0.279926	0.300970	0.146952
H233	H	0.239113	0.394408	0.125130
H234	H	0.285657	0.326894	0.200045
H235	H	0.292866	0.396163	0.059166
H236	H	0.339412	0.328641	0.134073
H237	H	0.462667	0.222863	0.454632
H238	H	-0.396559	0.821317	-0.071854
O239	O	0.409339	0.276404	0.078488
C240	C	0.429297	0.238920	0.155935
H241	H	0.470583	0.219547	0.169925
H242	H	0.404162	0.288544	0.168659
C243	C	0.378572	0.180903	0.187262
C244	C	0.429282	0.157103	0.204447
H245	H	0.378560	0.130437	0.217187
H246	H	0.365124	0.206160	0.135084
H247	H	0.357632	0.222258	0.197866
H248	H	0.450219	0.115758	0.193833
H249	H	0.442733	0.131837	0.256624
H250	H	0.701795	0.399130	0.072141
O251	O	0.135479	1.078375	-0.322541
C252	C	0.108251	1.169174	-0.357646
H253	H	0.136961	1.186911	-0.360633
H254	H	0.081984	1.206248	-0.417415
C255	C	0.039951	1.172533	-0.307549
C256	C	0.075212	1.194316	-0.311212
H257	H	0.019569	1.188043	-0.278909
H258	H	0.058293	1.111360	-0.283900
H259	H	0.018066	1.203430	-0.357360
H260	H	0.097100	1.163410	-0.261403
H261	H	0.056873	1.255484	-0.334852
H262	H	0.511820	0.533360	-0.649709
H263	H	0.511820	0.399183	0.350272
H264	H	0.413490	0.399200	0.072091
H265	H	0.511808	0.533384	-0.206063
O266	O	0.409235	-0.049625	0.078272
C267	C	0.415054	-0.113774	0.069775
H268	H	0.425026	-0.103127	0.016183
H269	H	0.447501	-0.181555	0.121041
C270	C	0.351863	-0.119744	0.129457
C271	C	0.364106	-0.106662	0.063631
H272	H	0.320437	-0.115361	0.125671
H273	H	0.347944	-0.076528	0.135185
H274	H	0.378906	-0.176227	0.172172
H275	H	0.337066	-0.050176	0.020919
H276	H	0.368019	-0.149869	0.057896
O277	O	0.145352	1.142198	0.000047
C278	C	0.145434	1.217156	-0.031513
H279	H	0.186759	1.197572	-0.026121
H280	H	0.120444	1.266002	-0.093928
C281	C	0.072704	1.283562	0.004420
C282	C	0.123460	1.259507	0.011048
H283	H	0.059147	1.309689	0.030671
H284	H	0.072647	1.233063	0.025680
H285	H	0.051886	1.324263	-0.047594
H286	H	0.144279	1.218798	0.063061
H287	H	0.123520	1.310000	-0.010202
O288	O	-0.140577	0.913109	-0.117829
C289	C	-0.116626	0.917877	-0.173536
H290	H	-0.086464	0.848974	-0.156858
H291	H	-0.147059	0.957035	-0.230446
C292	C	-0.127144	1.047892	-0.200527
C293	C	-0.090094	0.963264	-0.180039
H294	H	-0.110780	1.075893	-0.204542
H295	H	-0.143282	1.044683	-0.162998
H296	H	-0.152502	1.080513	-0.247951
H297	H	-0.064741	0.930642	-0.132613
H298	H	-0.073951	0.966469	-0.217561
O299	O	0.779961	0.212528	0.000211
C300	C	0.779864	0.137587	0.031735
H301	H	0.754847	0.137671	0.069699
H302	H	0.763526	0.138164	-0.015727
C303	C	0.866350	0.054729	0.032373
C304	C	0.835627	0.054828	0.079006
H305	H	0.900746	0.003679	0.061529
H306	H	0.866415	0.105219	0.011132
H307	H	0.852728	0.055213	-0.007176
H308	H	0.849245	0.054355	0.118548
H309	H	0.835565	0.004336	0.100255
O310	O	0.682834	0.276612	-0.078116
C311	C	0.629896	0.319129	-0.113143
H312	H	0.606309	0.345825	-0.082013
H313	H	0.616847	0.375415	-0.174731
C314	C	0.650528	0.220692	-0.148493
C315	C	0.621558	0.253473	-0.110256
H316	H	0.645385	0.180194	-0.146716
H317	H	0.686194	0.192049	-0.124898
H318	H	0.639651	0.267604	-0.199813
H319	H	0.632440	0.206563	-0.058935
H320	H	0.585894	0.282107	-0.133843
H321	H	0.152220	1.131959	-0.454423
O322	O	0.516134	0.276620	0.479094
C323	C	0.540041	0.319122	0.471610
H324	H	0.545399	0.345815	0.413786
H325	H	0.514651	0.375407	0.476911
C326	C	0.586638	0.220673	0.605406
C327	C	0.593221	0.253452	0.534388
H328	H	0.619441	0.180167	0.644132
H329	H	0.570529	0.192040	0.610449
H330	H	0.565478	0.267585	0.609813
H331	H	0.614376	0.206542	0.529979
H332	H	0.609335	0.282075	0.529346
O333	O	0.409294	0.276405	0.322855
C334	C	0.415109	0.212279	0.395510
H335	H	0.451701	0.183966	0.438457
H336	H	0.380095	0.243271	0.412010
C337	C	0.374385	0.173388	0.341824
C338	C	0.419330	0.138608	0.394570
H339	H	0.376987	0.127945	0.341244
H340	H	0.370465	0.216592	0.292874
H341	H	0.345211	0.199214	0.355580
H342	H	0.448502	0.112792	0.380808
H343	H	0.423255	0.095397	0.443518
O344	O	0.020395	0.441454	0.118113
C345	C	0.015294	0.371415	0.153119
H346	H	-0.024193	0.394690	0.160970
H347	H	0.018915	0.347015	0.115935
C348	C	0.106666	0.267844	0.221339
C349	C	0.058170	0.296428	0.230988
H350	H	0.133115	0.221586	0.269371
H351	H	0.110104	0.315029	0.197753
H352	H	0.109677	0.247516	0.190350
H353	H	0.055157	0.316766	0.261968
H354	H	0.054733	0.249244	0.254581
O355	O	0.153125	0.441468	0.118091
C356	C	0.148024	0.371429	0.153099
H357	H	0.108537	0.394705	0.160948
H358	H	0.151647	0.347026	0.115917
C359	C	0.239396	0.267858	0.221322
C360	C	0.190899	0.296444	0.230969
H361	H	0.265844	0.221601	0.269355
H362	H	0.242833	0.315043	0.197735
H363	H	0.242407	0.247528	0.190335
H364	H	0.187885	0.316783	0.261948
H365	H	0.187461	0.249260	0.254563
O366	O	0.135451	1.078333	-0.078092
C367	C	0.097472	1.142488	-0.069593
H368	H	0.114731	1.131836	-0.016003
H369	H	0.083627	1.210265	-0.120860
C370	C	0.030177	1.148486	-0.129266
C371	C	0.051374	1.135398	-0.063442
H372	H	0.001740	1.144116	-0.125475
H373	H	0.055764	1.105265	-0.134995
H374	H	0.018644	1.204966	-0.171982
H375	H	0.062913	1.078914	-0.020729
H376	H	0.025788	1.178609	-0.057706
H377	H	0.223494	0.955597	-0.071919
H378	H	0.511810	1.073052	-0.323570
O379	O	0.516102	0.078046	-0.078110
C380	C	0.540007	0.035567	-0.113142
H381	H	0.545372	-0.030110	-0.082021
H382	H	0.514612	0.078067	-0.174732
C383	C	0.586589	0.101137	-0.148471
C384	C	0.593182	0.020468	-0.110244
H385	H	0.619389	0.091827	-0.146687
H386	H	0.570483	0.129759	-0.124872
H387	H	0.565424	0.136546	-0.199793
H388	H	0.614341	-0.014934	-0.058921
H389	H	0.609294	-0.008160	-0.133834
O390	O	-0.007839	0.913130	-0.117832
C391	C	0.016111	0.917903	-0.173541
H392	H	0.046272	0.849002	-0.156868
H393	H	-0.014323	0.957068	-0.230452
C394	C	0.005598	1.047911	-0.200519
C395	C	0.042646	0.963285	-0.180037
H396	H	0.021964	1.075908	-0.204529
H397	H	-0.010539	1.044698	-0.162989
H398	H	-0.019761	1.080537	-0.247943
H399	H	0.068000	0.930657	-0.132609
H400	H	0.058788	0.966493	-0.217559
O401	O	-0.095153	0.913127	-0.117659
C402	C	-0.122354	0.917877	-0.066709
H403	H	-0.105452	0.848968	-0.014487
H404	H	-0.118665	0.957026	-0.048950
C405	C	-0.200645	1.047899	-0.169726
C406	C	-0.179887	0.963264	-0.105589
H407	H	-0.236134	1.075900	-0.193709
H408	H	-0.182319	1.044702	-0.204052
H409	H	-0.197565	1.080513	-0.154917
H410	H	-0.182961	0.930649	-0.120399
H411	H	-0.198215	0.966457	-0.071266
H412	H	0.241584	1.073108	0.072074
H413	H	0.413465	0.821359	-0.350065
H414	H	0.511822	0.533364	-0.532166
O415	O	0.409183	0.078111	0.078348
C416	C	0.385278	0.035610	0.113377
H417	H	0.379910	0.008917	0.082251
H418	H	0.410675	-0.020676	0.174966
C419	C	0.338702	0.134059	0.148721
C420	C	0.332105	0.101281	0.110487
H421	H	0.305903	0.174566	0.146942
H422	H	0.354808	0.162692	0.125124
H423	H	0.359868	0.087148	0.200041
H424	H	0.310944	0.148191	0.059166
H425	H	0.315993	0.072658	0.134076
O426	O	-0.297523	0.520946	0.078374
C427	C	-0.347134	0.537972	0.069847
H428	H	-0.376466	0.606184	0.055221
H429	H	-0.358409	0.534202	0.022349
C430	C	-0.310448	0.385743	0.162418
C431	C	-0.346474	0.469519	0.144460
H432	H	-0.310041	0.343516	0.208440
H433	H	-0.277024	0.374271	0.168161
H434	H	-0.319848	0.382614	0.122830
H435	H	-0.337070	0.472650	0.184042
H436	H	-0.379896	0.480989	0.138725
O437	O	-0.317172	0.833876	-0.078156
C438	C	-0.370111	0.903909	-0.113161
H439	H	-0.393701	0.880627	-0.121006
H440	H	-0.383150	0.928312	-0.075979
C441	C	-0.349489	1.007489	-0.181392
C442	C	-0.378461	0.978896	-0.191033
H443	H	-0.354640	1.053747	-0.229426
H444	H	-0.313823	0.960307	-0.157807
H445	H	-0.360357	1.027819	-0.150405
H446	H	-0.367589	0.958556	-0.222012
H447	H	-0.414126	1.026076	-0.214626
H448	H	0.413489	0.399178	0.206296
O449	O	0.789770	0.276666	0.322624
C450	C	0.795430	0.345823	0.282652
H451	H	0.755590	0.410642	0.246899
H452	H	0.816587	0.346688	0.324611
C453	C	0.875784	0.253026	0.274518
C454	C	0.826851	0.332637	0.230601
H455	H	0.895167	0.244892	0.242413
H456	H	0.871972	0.206432	0.301451
H457	H	0.893408	0.253757	0.309482
H458	H	0.809225	0.331901	0.195645
H459	H	0.830661	0.379231	0.203661
H460	H	0.511800	0.955520	-0.206046
H461	H	0.065169	0.454006	0.111802
H462	H	0.223509	0.955572	-0.206102
H463	H	0.143227	0.821375	-0.071913
H464	H	-0.067577	0.454003	0.111812
H465	H	-0.220123	0.900691	-0.111532
H466	H	0.413476	0.821353	-0.467607
H467	H	0.603444	0.399190	-0.071871
H468	H	0.701781	0.399151	0.206327
