data_functionalizedCrystal
_audit_creation_method	'MofGen! by Chris Wilmer'
_symmetry_space_group_name_H-M	'P1'
_symmetry_Int_Tables_number	1
_symmetry_cell_setting	triclinic
loop_
_symmetry_equiv_pos_as_xyz
  x,y,z
_cell_length_a	12.827893
_cell_length_b	18.050589
_cell_length_c	18.050582
_cell_angle_alpha	89.981088
_cell_angle_beta	89.986177
_cell_angle_gamma	90.028191
loop_
_atom_site_label
_atom_site_type_symbol
_atom_site_fract_x
_atom_site_fract_y
_atom_site_fract_z
Zn1	Zn	1.597520	-0.295702	-0.419896
Zn2	Zn	1.597392	-0.419887	-0.295715
Zn3	Zn	1.422778	-0.295715	-0.295724
Zn4	Zn	1.422708	-0.419855	-0.419868
O5	O	1.510100	-0.357790	-0.357801
O6	O	1.743739	-0.312183	-0.403431
O7	O	1.574205	-0.403434	-0.191792
O8	O	1.446041	-0.191789	-0.312211
O9	O	1.743645	-0.403421	-0.312196
O10	O	1.574424	-0.191779	-0.403439
O11	O	1.445917	-0.312206	-0.191798
O12	O	1.276533	-0.312175	-0.312184
O13	O	1.445921	-0.403367	-0.523796
O14	O	1.276481	-0.403379	-0.403392
O15	O	1.574355	-0.312152	-0.523817
O16	O	1.574136	-0.523807	-0.312169
O17	O	1.445797	-0.523784	-0.403383
C18	C	1.238590	-0.357775	-0.357786
C19	C	1.122436	-0.357787	-0.357798
C20	C	1.070654	-0.402989	-0.402861
C21	C	0.950603	-0.403002	-0.402874
C22	C	1.509973	-0.550742	-0.357788
C23	C	1.510015	-0.633288	-0.357808
C24	C	1.440293	-0.832752	-0.407393
C25	C	1.414825	-0.882187	-0.339626
C26	C	1.510118	-0.784418	-0.357818
C27	C	1.535637	-0.882065	-0.425592
C28	C	1.510215	-0.930403	-0.357833
C29	C	1.484600	-0.832766	-0.290015
C30	C	1.605456	-0.832639	-0.376026
C31	C	1.580025	-0.882051	-0.308213
C32	C	1.510059	-0.700320	-0.357810
C33	C	1.510274	-1.014500	-0.357833
C34	C	1.782670	-0.357805	-0.357815
C35	C	1.898823	-0.357811	-0.357821
C36	C	1.510145	-0.357754	-0.551506
C37	C	1.510164	-0.357739	-0.634052
C38	C	1.510255	-0.164084	-0.357829
C39	C	1.510321	-0.081538	-0.357841
C40	C	1.440387	-0.407261	-0.882867
C41	C	1.414861	-0.339524	-0.833474
C42	C	1.510252	-0.357630	-0.931173
C43	C	1.535685	-0.425418	-0.833483
C44	C	1.510206	-0.357687	-0.785187
C45	C	1.484678	-0.289857	-0.882868
C46	C	1.605546	-0.375796	-0.882881
C47	C	1.580056	-0.308012	-0.833511
C48	C	1.510276	-0.357598	-1.015271
C49	C	1.510183	-0.357712	-0.701091
C50	C	1.510115	-0.357771	-0.164849
C51	C	1.510298	-0.357577	-0.082303
H52	H	0.906071	-0.441703	-0.441452
H53	H	1.334246	-0.903967	-0.324239
O54	O	0.952049	-0.311743	-0.311754
C55	C	1.015116	-0.353995	-0.263737
H56	H	1.031346	-0.410320	-0.289843
H57	H	0.973080	-0.362056	-0.208665
C58	C	1.098933	-0.243994	-0.218351
C59	C	1.118875	-0.313171	-0.250418
H60	H	1.162935	-0.218811	-0.210132
H61	H	1.056441	-0.215527	-0.250699
H62	H	1.063901	-0.250721	-0.172462
H63	H	1.153894	-0.306443	-0.296310
H64	H	1.161375	-0.341636	-0.218077
O65	O	1.701599	-0.394211	-0.908887
C66	C	1.693971	-0.458473	-0.952941
H67	H	1.610883	-0.464256	-0.974576
H68	H	1.714686	-0.509125	-0.918202
C69	C	1.871948	-0.445330	-0.992191
C70	C	1.769899	-0.452430	-1.018768
H71	H	1.918786	-0.441606	-1.032795
H72	H	1.877089	-0.402038	-0.962509
H73	H	1.889195	-0.487542	-0.963241
H74	H	1.752649	-0.410214	-1.047709
H75	H	1.764757	-0.495715	-1.048456
O76	O	1.458635	-0.807134	-0.221619
C77	C	1.358459	-0.832979	-0.202440
H78	H	1.340018	-0.885128	-0.235556
H79	H	1.298250	-0.788427	-0.215536
C80	C	1.377924	-0.786900	-0.078393
C81	C	1.355278	-0.850953	-0.119062
H82	H	1.375958	-0.797984	-0.026961
H83	H	1.445412	-0.769485	-0.091314
H84	H	1.327747	-0.749779	-0.089314
H85	H	1.405462	-0.888069	-0.108147
H86	H	1.287797	-0.868375	-0.106137
O87	O	1.561472	-0.907988	-0.493903
C88	C	1.653043	-0.950861	-0.488857
H89	H	1.662370	-0.972175	-0.429774
H90	H	1.723272	-0.915272	-0.504154
C91	C	1.634149	-0.990797	-0.615062
C92	C	1.645599	-1.016981	-0.542496
H93	H	1.629561	-1.031581	-0.648151
H94	H	1.572458	-0.961911	-0.618463
H95	H	1.692675	-0.961140	-0.627799
H96	H	1.587068	-1.046629	-0.529757
H97	H	1.707281	-1.045873	-0.539094
O98	O	1.123900	-0.449043	-0.448914
C99	C	1.187062	-0.406778	-0.496918
H100	H	1.203316	-0.350449	-0.470809
H101	H	1.145095	-0.398728	-0.551999
C102	C	1.270825	-0.516762	-0.542282
C103	C	1.290796	-0.447579	-0.510213
H104	H	1.334812	-0.541931	-0.550487
H105	H	1.228270	-0.545238	-0.509944
H106	H	1.235851	-0.510043	-0.588180
H107	H	1.325758	-0.454299	-0.464312
H108	H	1.333360	-0.419106	-0.542544
H109	H	1.381278	-0.449154	-0.904539
H110	H	1.381157	-0.811105	-0.449258
O111	O	1.701514	-0.806528	-0.394372
C112	C	1.700330	-0.728428	-0.393455
H113	H	1.634276	-0.708354	-0.356287
H114	H	1.687894	-0.706757	-0.452120
C115	C	1.886190	-0.724161	-0.409065
C116	C	1.805067	-0.699506	-0.363409
H117	H	1.950797	-0.706320	-0.390534
H118	H	1.886988	-0.776778	-0.409685
H119	H	1.875813	-0.706100	-0.457949
H120	H	1.815437	-0.717575	-0.314528
H121	H	1.804273	-0.646891	-0.362779
H122	H	1.639115	-0.903562	-0.266247
O123	O	1.318639	-0.321341	-0.807607
C124	C	1.245233	-0.373765	-0.832762
H125	H	1.286756	-0.427835	-0.846631
H126	H	1.204690	-0.351656	-0.884428
C127	C	1.112724	-0.321448	-0.754675
C128	C	1.163723	-0.387860	-0.771704
H129	H	1.062442	-0.330141	-0.717014
H130	H	1.162177	-0.286127	-0.737729
H131	H	1.078948	-0.303031	-0.797735
H132	H	1.197509	-0.406271	-0.728646
H133	H	1.114273	-0.423185	-0.788640
O134	O	1.458840	-0.221528	-0.908756
C135	C	1.459156	-0.222326	-0.986861
H136	H	1.447502	-0.281499	-1.007309
H137	H	1.536955	-0.200259	-1.008009
C138	C	1.384466	-0.100397	-0.990879
C139	C	1.370143	-0.173074	-1.015992
H140	H	1.329562	-0.070014	-1.008849
H141	H	1.384257	-0.099858	-0.938257
H142	H	1.449302	-0.082018	-1.008503
H143	H	1.305315	-0.191455	-0.998360
H144	H	1.370340	-0.173615	-1.068612
O145	O	1.561260	-0.493834	-0.807695
C146	C	1.487401	-0.545946	-0.832830
H147	H	1.447625	-0.523917	-0.884827
H148	H	1.426521	-0.555678	-0.787841
C149	C	1.591547	-0.646535	-0.786956
C150	C	1.542699	-0.619482	-0.850823
H151	H	1.625655	-0.691897	-0.798052
H152	H	1.641305	-0.611427	-0.770019
H153	H	1.540804	-0.654639	-0.749471
H154	H	1.593443	-0.611370	-0.888303
H155	H	1.492950	-0.654591	-0.867767
O156	O	1.069347	-0.311526	-0.311860
C157	C	1.095999	-0.237509	-0.328177
H158	H	1.126111	-0.233812	-0.387488
H159	H	1.159254	-0.217994	-0.288342
C160	C	0.962005	-0.192554	-0.246846
C161	C	0.998980	-0.188012	-0.319695
H162	H	0.902161	-0.162020	-0.241611
H163	H	0.944051	-0.242420	-0.235850
H164	H	1.014726	-0.176292	-0.213659
H165	H	0.946264	-0.204282	-0.352880
H166	H	1.016923	-0.138147	-0.330696
H167	H	1.639120	-0.266017	-0.811977
