data_functionalizedCrystal
_audit_creation_method	'MofGen! by Chris Wilmer'
_symmetry_space_group_name_H-M	'P1'
_symmetry_Int_Tables_number	1
_symmetry_cell_setting	triclinic
loop_
_symmetry_equiv_pos_as_xyz
  x,y,z
_cell_length_a	6.817900
_cell_length_b	9.582889
_cell_length_c	10.773894
_cell_angle_alpha	94.946176
_cell_angle_beta	96.645922
_cell_angle_gamma	111.207298
loop_
_atom_site_label
_atom_site_type_symbol
_atom_site_fract_x
_atom_site_fract_y
_atom_site_fract_z
V1	V	-3.987872	-0.201560	-0.388722
V2	V	-3.654539	0.131774	-0.055388
V3	V	-3.321205	0.465107	0.277945
O4	O	-3.934976	0.015345	-0.381557
O5	O	-3.601642	0.348678	-0.048224
O6	O	-3.268309	0.682011	0.285110
O7	O	-3.979231	-0.405101	-0.385837
O8	O	-3.645898	-0.071768	-0.052504
O9	O	-3.312565	0.261565	0.280830
O10	O	-3.904454	-0.195976	-0.558360
O11	O	-3.571121	0.137357	-0.225027
O12	O	-3.237788	0.470691	0.108307
O13	O	-4.010270	-0.195228	-0.207840
O14	O	-3.676937	0.138105	0.125493
O15	O	-3.343604	0.471438	0.458827
V16	V	-4.470885	-0.175909	-0.367114
V17	V	-4.137552	0.157425	-0.033781
V18	V	-3.804219	0.490758	0.299552
O19	O	-4.250248	-0.257827	-0.436119
O20	O	-3.916915	0.075506	-0.102786
O21	O	-3.583581	0.408840	0.230547
O22	O	-4.658707	-0.119641	-0.319717
O23	O	-4.325373	0.213692	0.013617
O24	O	-3.992040	0.547025	0.346950
O25	O	-4.256319	0.027633	-0.369999
O26	O	-3.922986	0.360966	-0.036666
O27	O	-3.589653	0.694300	0.296668
O28	O	-4.641179	-0.392813	-0.374279
O29	O	-4.307845	-0.059480	-0.040946
O30	O	-3.974512	0.273854	0.292388
O31	O	-4.565884	-0.182240	-0.547996
O32	O	-4.232550	0.151093	-0.214663
O33	O	-3.899217	0.484427	0.118671
O34	O	-4.331097	-0.181492	-0.197476
O35	O	-3.997763	0.151841	0.135857
O36	O	-3.664430	0.485174	0.469190
C37	C	-3.835038	-0.454798	-0.379647
C38	C	-3.501704	-0.121465	-0.046313
C39	C	-3.168371	0.211869	0.287020
C40	C	-3.909026	-0.621180	-0.378419
C41	C	-3.575693	-0.287847	-0.045085
C42	C	-3.242360	0.045487	0.288248
C43	C	-3.739651	-0.188036	-0.599715
C44	C	-3.406317	0.145297	-0.266382
C45	C	-3.072984	0.478631	0.066952
C46	C	-3.752994	-0.184818	-0.738393
C47	C	-3.419661	0.148516	-0.405060
C48	C	-3.086328	0.481849	-0.071727
C49	C	-3.932159	-0.190395	-0.806250
C50	C	-3.598825	0.142938	-0.472916
C51	C	-3.265492	0.476271	-0.139583
C52	C	-3.945954	-0.187069	-0.949581
C53	C	-3.612620	0.146264	-0.616248
C54	C	-3.279287	0.479597	-0.282915
C55	C	-4.063857	0.077322	-0.376186
C56	C	-3.730524	0.410655	-0.042853
C57	C	-3.397191	0.743989	0.290481
C58	C	-3.969105	0.243703	-0.377422
C59	C	-3.635772	0.577036	-0.044089
C60	C	-3.302439	0.910369	0.289245
C61	C	-4.159244	-0.189437	-0.156115
C62	C	-3.825911	0.143896	0.177219
C63	C	-3.492578	0.477230	0.510552
C64	C	-4.125138	-0.192648	-0.017435
C65	C	-3.791805	0.140685	0.315898
C66	C	-3.458472	0.474019	0.649232
H67	H	-4.075330	-0.197623	-0.758230
H68	H	-3.741996	0.135710	-0.424897
H69	H	-3.408663	0.469044	-0.091563
H70	H	-3.802760	-0.179821	-0.997593
H71	H	-3.469426	0.153512	-0.664260
H72	H	-3.136093	0.486846	-0.330927
H73	H	-4.268332	-0.199892	-0.969424
H74	H	-3.934999	0.133442	-0.636091
H75	H	-3.601665	0.466775	-0.302757
H76	H	-3.609814	-0.177570	-0.786411
H77	H	-3.276480	0.155763	-0.453077
H78	H	-2.943147	0.489097	-0.119744
