data_functionalizedCrystal
_audit_creation_method	'MofGen! by Chris Wilmer'
_symmetry_space_group_name_H-M	'P1'
_symmetry_Int_Tables_number	1
_symmetry_cell_setting	triclinic
loop_
_symmetry_equiv_pos_as_xyz
  x,y,z
_cell_length_a	18.215407
_cell_length_b	18.215405
_cell_length_c	18.215399
_cell_angle_alpha	89.969449
_cell_angle_beta	89.980167
_cell_angle_gamma	90.025333
loop_
_atom_site_label
_atom_site_type_symbol
_atom_site_fract_x
_atom_site_fract_y
_atom_site_fract_z
Zn1	Zn	-1.125072	0.292983	0.416103
Zn2	Zn	-0.791739	0.626316	0.749436
Zn3	Zn	-0.458405	0.959650	1.082769
Zn4	Zn	-1.124980	0.416054	0.293031
Zn5	Zn	-0.791647	0.749388	0.626364
Zn6	Zn	-0.458314	1.082721	0.959697
Zn7	Zn	-1.002005	0.293007	0.293050
Zn8	Zn	-0.668671	0.626340	0.626383
Zn9	Zn	-0.335338	0.959674	0.959717
Zn10	Zn	-1.001970	0.416013	0.416056
Zn11	Zn	-0.668637	0.749347	0.749389
Zn12	Zn	-0.335304	1.082680	1.082722
O13	O	-1.063507	0.354514	0.354560
O14	O	-0.730173	0.687848	0.687893
O15	O	-0.396840	1.021181	1.021226
O16	O	-1.228044	0.309316	0.399788
O17	O	-0.894711	0.642649	0.733122
O18	O	-0.561377	0.975982	1.066455
O19	O	-1.108643	0.399759	0.190049
O20	O	-0.775310	0.733092	0.523382
O21	O	-0.441977	1.066426	0.856716
O22	O	-1.018382	0.190020	0.309401
O23	O	-0.685049	0.523353	0.642734
O24	O	-0.351716	0.856686	0.976067
O25	O	-1.227977	0.399736	0.309368
O26	O	-0.894643	0.733069	0.642701
O27	O	-0.561310	1.066402	0.976035
O28	O	-1.108799	0.190002	0.399807
O29	O	-0.775466	0.523335	0.733140
O30	O	-0.442133	0.856669	1.066474
O31	O	-1.018293	0.309357	0.190063
O32	O	-0.684960	0.642690	0.523396
O33	O	-0.351627	0.976023	0.856730
O34	O	-0.899016	0.309317	0.309355
O35	O	-0.565682	0.642650	0.642689
O36	O	-0.232349	0.975984	0.976022
O37	O	-1.018324	0.399666	0.519046
O38	O	-0.684991	0.732999	0.852379
O39	O	-0.351657	1.066333	1.185713
O40	O	-0.898991	0.399689	0.399727
O41	O	-0.565657	0.733023	0.733060
O42	O	-0.232324	1.066356	1.066394
O43	O	-1.108766	0.309276	0.519081
O44	O	-0.775433	0.642609	0.852414
O45	O	-0.442100	0.975943	1.185747
O46	O	-1.108610	0.519033	0.309322
O47	O	-0.775277	0.852366	0.642656
O48	O	-0.441944	1.185700	0.975989
O49	O	-1.018235	0.519003	0.399708
O50	O	-0.684902	0.852336	0.733042
O51	O	-0.351569	1.185670	1.066375
C52	C	-0.872301	0.354502	0.354539
C53	C	-0.538967	0.687835	0.687872
C54	C	-0.205634	1.021169	1.021205
C55	C	-0.790502	0.354514	0.354547
C56	C	-0.457168	0.687848	0.687880
C57	C	-0.123835	1.021181	1.021214
C58	C	-1.063429	0.545721	0.354524
C59	C	-0.730096	0.879054	0.687858
C60	C	-0.396762	1.212387	1.021191
C61	C	-1.063463	0.627520	0.354534
C62	C	-0.730130	0.960853	0.687867
C63	C	-0.396797	1.294186	1.021200
C64	C	-1.063552	0.354464	0.546513
C65	C	-0.730218	0.687797	0.879846
C66	C	-0.396885	1.021130	1.213179
C67	C	-1.063571	0.354442	0.628312
C68	C	-0.730237	0.687775	0.961645
C69	C	-0.396904	1.021109	1.294978
C70	C	-1.255460	0.354528	0.354581
C71	C	-0.922126	0.687861	0.687915
C72	C	-0.588793	1.021194	1.021248
C73	C	-1.337259	0.354533	0.354591
C74	C	-1.003925	0.687867	0.687924
C75	C	-0.670592	1.021200	1.021257
C76	C	-0.602314	0.401645	0.401544
C77	C	-0.268981	0.734978	0.734878
C78	C	0.064353	1.068312	1.068211
C79	C	-0.525455	0.401647	0.401554
C80	C	-0.192122	0.734981	0.734887
C81	C	0.141211	1.068314	1.068220
C82	C	-0.525452	0.307397	0.307591
C83	C	-0.192118	0.640731	0.640924
C84	C	0.141215	0.974064	0.974258
C85	C	-0.602309	0.307392	0.307586
C86	C	-0.268976	0.640725	0.640919
C87	C	0.064358	0.974058	0.974253
C88	C	-0.640738	0.354520	0.354562
C89	C	-0.307405	0.687853	0.687895
C90	C	0.025929	1.021186	1.021228
C91	C	-0.487022	0.354528	0.354576
C92	C	-0.153689	0.687861	0.687909
C93	C	0.179645	1.021194	1.021242
C94	C	-0.403688	0.354530	0.354585
C95	C	-0.070355	0.687863	0.687919
C96	C	0.262978	1.021196	1.021252
C97	C	-0.724077	0.354517	0.354553
C98	C	-0.390744	0.687850	0.687887
C99	C	-0.057410	1.021184	1.021220
C100	C	-1.063605	0.162561	0.354611
C101	C	-0.730272	0.495895	0.687945
C102	C	-0.396938	0.829228	1.021278
C103	C	-1.063647	0.080763	0.354633
C104	C	-0.730313	0.414096	0.687967
C105	C	-0.396980	0.747429	1.021300
C106	C	-1.110632	0.815705	0.307556
C107	C	-0.777299	1.149038	0.640890
C108	C	-0.443965	1.482371	0.974223
C109	C	-1.110665	0.892563	0.307574
C110	C	-0.777331	1.225897	0.640908
C111	C	-0.443998	1.559230	0.974241
C112	C	-1.016476	0.892572	0.401616
C113	C	-0.683143	1.225905	0.734949
C114	C	-0.349809	1.559239	1.068283
C115	C	-1.016447	0.815715	0.401601
C116	C	-0.683114	1.149048	0.734935
C117	C	-0.349781	1.482381	1.068268
C118	C	-1.063524	0.777283	0.354567
C119	C	-0.730191	1.110616	0.687901
C120	C	-0.396857	1.443950	1.021234
C121	C	-1.063586	0.930999	0.354600
C122	C	-0.730252	1.264332	0.687933
C123	C	-0.396919	1.597666	1.021266
C124	C	-1.063621	1.014333	0.354619
C125	C	-0.730288	1.347666	0.687953
C126	C	-0.396954	1.680999	1.021286
C127	C	-1.063490	0.693944	0.354548
C128	C	-0.730157	1.027277	0.687882
C129	C	-0.396823	1.360611	1.021215
C130	C	-1.063504	0.354512	0.163353
C131	C	-0.730171	0.687845	0.496687
C132	C	-0.396838	1.021179	0.830020
C133	C	-1.063628	0.354326	0.081555
C134	C	-0.730295	0.687660	0.414888
C135	C	-0.396961	1.020993	0.748222
C136	C	-1.110681	0.307332	0.816525
C137	C	-0.777348	0.640665	1.149858
C138	C	-0.444014	0.973999	1.483191
C139	C	-1.110690	0.307311	0.893384
C140	C	-0.777356	0.640644	1.226717
C141	C	-0.444023	0.973977	1.560050
C142	C	-1.016513	0.401438	0.893336
C143	C	-0.683179	0.734772	1.226670
C144	C	-0.349846	1.068105	1.560003
C145	C	-1.016501	0.401455	0.816479
C146	C	-0.683167	0.734789	1.149812
C147	C	-0.349834	1.068122	1.483146
C148	C	-1.063589	0.354403	0.778075
C149	C	-0.730256	0.687737	1.111409
C150	C	-0.396922	1.021070	1.444742
C151	C	-1.063610	0.354365	0.931791
C152	C	-0.730276	0.687698	1.265125
C153	C	-0.396943	1.021031	1.598458
C154	C	-1.063619	0.354342	1.015125
C155	C	-0.730286	0.687675	1.348458
C156	C	-0.396952	1.021009	1.681792
C157	C	-1.063579	0.354425	0.694736
C158	C	-0.730246	0.687759	1.028070
C159	C	-0.396912	1.021092	1.361403
H160	H	-0.633601	0.440018	0.439797
H161	H	-0.300267	0.773351	0.773130
H162	H	0.033066	1.106684	1.106464
H163	H	-1.149026	0.923843	0.269294
H164	H	-0.815692	1.257176	0.602628
H165	H	-0.482359	1.590510	0.935961
Br166	Br	-0.952588	0.944734	0.465444
Br167	Br	-0.619255	1.278067	0.798777
Br168	Br	-0.285921	1.611401	1.132110
H169	H	-0.978177	0.439748	0.924614
H170	H	-0.644843	0.773081	1.257947
H171	H	-0.311510	1.106415	1.591281
H172	H	-1.149021	0.269017	0.785259
H173	H	-0.815688	0.602351	1.118592
H174	H	-0.482355	0.935684	1.451925
Br175	Br	-0.473310	0.465602	0.465322
Br176	Br	-0.139977	0.798936	0.798656
Br177	Br	0.193356	1.132269	1.131989
Br178	Br	-0.654461	0.243424	0.243826
Br179	Br	-0.321128	0.576758	0.577159
Br180	Br	0.012205	0.910091	0.910493
H181	H	-1.148966	0.784415	0.269260
H182	H	-0.815632	1.117749	0.602593
H183	H	-0.482299	1.451082	0.935926
Br184	Br	-0.952517	0.763566	0.465413
Br185	Br	-0.619184	1.096899	0.798746
Br186	Br	-0.285850	1.430233	1.132079
H187	H	-0.978148	0.439786	0.785173
H188	H	-0.644814	0.773119	1.118506
H189	H	-0.311481	1.106453	1.451839
Br190	Br	-0.473293	0.243441	0.243841
Br191	Br	-0.139960	0.576775	0.577175
Br192	Br	0.193373	0.910108	0.910508
Br193	Br	-1.174608	0.243431	0.945563
Br194	Br	-0.841275	0.576764	1.278896
Br195	Br	-0.507942	0.910097	1.612229
