data_functionalizedCrystal
_audit_creation_method	'MofGen! by Chris Wilmer'
_symmetry_space_group_name_H-M	'P1'
_symmetry_Int_Tables_number	1
_symmetry_cell_setting	triclinic
loop_
_symmetry_equiv_pos_as_xyz
  x,y,z
_cell_length_a	11.169417
_cell_length_b	12.827892
_cell_length_c	12.827885
_cell_angle_alpha	89.970024
_cell_angle_beta	89.982092
_cell_angle_gamma	90.016270
loop_
_atom_site_label
_atom_site_type_symbol
_atom_site_fract_x
_atom_site_fract_y
_atom_site_fract_z
Zn1	Zn	1.834897	-0.415958	-0.590809
Zn2	Zn	2.334897	0.084042	-0.090809
Zn3	Zn	1.834776	-0.590735	-0.416069
Zn4	Zn	2.334776	-0.090735	0.083931
Zn5	Zn	1.634190	-0.416012	-0.416087
Zn6	Zn	2.134190	0.083988	0.083913
Zn7	Zn	1.634173	-0.590660	-0.590773
Zn8	Zn	2.134173	-0.090660	-0.090773
O9	O	1.734509	-0.503341	-0.503435
O10	O	2.234509	-0.003341	-0.003435
O11	O	2.002831	-0.439151	-0.567637
O12	O	2.502831	0.060849	-0.067637
O13	O	1.808124	-0.567612	-0.269835
O14	O	2.308124	-0.067612	0.230165
O15	O	1.660872	-0.269768	-0.439287
O16	O	2.160872	0.230232	0.060713
O17	O	2.002742	-0.567560	-0.439256
O18	O	2.502742	-0.067560	0.060744
O19	O	1.808331	-0.269729	-0.567655
O20	O	2.308331	0.230271	-0.067655
O21	O	1.660754	-0.439243	-0.269849
O22	O	2.160754	0.060757	0.230151
O23	O	1.466238	-0.439170	-0.439252
O24	O	1.966238	0.060830	0.060748
O25	O	1.660844	-0.567432	-0.737014
O26	O	2.160844	-0.067432	-0.237014
O27	O	1.466226	-0.567484	-0.567593
O28	O	1.966226	-0.067484	-0.067593
O29	O	1.808315	-0.439079	-0.737041
O30	O	2.308315	0.060921	-0.237041
O31	O	1.808108	-0.736961	-0.439221
O32	O	2.308108	-0.236961	0.060779
O33	O	1.660726	-0.736906	-0.567576
O34	O	2.160726	-0.236906	-0.067576
C35	C	1.422684	-0.503325	-0.503421
C36	C	1.922684	-0.003325	-0.003421
C37	C	1.289284	-0.503344	-0.503440
C38	C	1.789284	-0.003344	-0.003440
C39	C	1.734434	-0.774851	-0.503415
C40	C	2.234434	-0.274851	-0.003415
C41	C	1.734512	-0.891004	-0.503442
C42	C	2.234512	-0.391004	-0.003442
C43	C	1.807447	-0.942686	-0.567019
C44	C	2.307447	-0.442686	-0.067019
C45	C	1.807529	-1.062736	-0.567048
C46	C	2.307529	-0.562736	-0.067048
C47	C	2.047551	-0.503358	-0.503449
C48	C	2.547551	-0.003358	-0.003449
C49	C	2.180951	-0.503365	-0.503455
C50	C	2.680951	-0.003365	-0.003455
C51	C	1.734591	-0.503241	-0.776005
C52	C	2.234591	-0.003241	-0.276005
C53	C	1.734626	-0.503198	-0.892158
C54	C	2.234626	-0.003198	-0.392158
C55	C	1.734617	-0.230771	-0.503477
C56	C	2.234617	0.269229	-0.003477
C57	C	1.734663	-0.114618	-0.503495
C58	C	2.234663	0.385382	-0.003495
C59	C	1.807607	-0.439673	-0.943956
C60	C	2.307607	0.060327	-0.443956
C61	C	1.807645	-0.439627	-1.064006
C62	C	2.307645	0.060373	-0.564006
C63	C	1.734497	-0.503366	-0.231925
C64	C	2.234497	-0.003366	0.268075
C65	C	1.734695	-0.503114	-0.115772
C66	C	2.234695	-0.003114	0.384228
H67	H	1.869825	-0.898059	-0.621434
H68	H	2.369825	-0.398059	-0.121434
Cl69	Cl	1.903947	-1.131351	-0.651085
Cl70	Cl	2.403947	-0.631351	-0.151085
H71	H	1.672222	-1.070180	-0.449057
H72	H	2.172222	-0.570180	0.050943
Cl73	Cl	1.638188	-0.959901	-0.419439
Cl74	Cl	2.138188	-0.459901	0.080561
Cl75	Cl	1.904007	-0.355725	-0.875213
Cl76	Cl	2.404007	0.144275	-0.375213
Cl77	Cl	1.904124	-0.355659	-1.132774
Cl78	Cl	2.404124	0.144341	-0.632774
H79	H	1.672214	-0.557508	-1.071234
H80	H	2.172214	-0.057508	-0.571234
H81	H	1.672164	-0.557544	-0.936689
H82	H	2.172164	-0.057544	-0.436689
