data_functionalizedCrystal
_audit_creation_method	'MofGen! by Chris Wilmer'
_symmetry_space_group_name_H-M	'P1'
_symmetry_Int_Tables_number	1
_symmetry_cell_setting	triclinic
loop_
_symmetry_equiv_pos_as_xyz
  x,y,z
_cell_length_a	19.121241
_cell_length_b	29.839131
_cell_length_c	19.120904
_cell_angle_alpha	87.590850
_cell_angle_beta	90.124528
_cell_angle_gamma	92.475545
loop_
_atom_site_label
_atom_site_type_symbol
_atom_site_fract_x
_atom_site_fract_y
_atom_site_fract_z
Zn1	Zn	1.054797	-0.162207	0.442177
Zn2	Zn	1.304797	0.087793	0.692177
Zn3	Zn	1.554797	0.337793	0.942177
Zn4	Zn	1.804797	0.587793	1.192177
Zn5	Zn	1.059685	-0.234002	0.324933
Zn6	Zn	1.309685	0.015998	0.574933
Zn7	Zn	1.559685	0.265998	0.824933
Zn8	Zn	1.809685	0.515998	1.074933
Zn9	Zn	0.942563	-0.161940	0.319947
Zn10	Zn	1.192563	0.088060	0.569947
Zn11	Zn	1.442563	0.338060	0.819947
Zn12	Zn	1.692563	0.588060	1.069947
Zn13	Zn	0.937491	-0.240367	0.437119
Zn14	Zn	1.187491	0.009633	0.687119
Zn15	Zn	1.437491	0.259633	0.937119
Zn16	Zn	1.687491	0.509633	1.187119
O17	O	0.998634	-0.199629	0.381044
O18	O	1.248634	0.050371	0.631044
O19	O	1.498634	0.300371	0.881044
O20	O	1.748634	0.550371	1.131044
O21	O	1.153554	-0.169178	0.430828
O22	O	1.403554	0.080822	0.680828
O23	O	1.653554	0.330822	0.930828
O24	O	1.903554	0.580822	1.180828
O25	O	1.048317	-0.221668	0.226167
O26	O	1.298317	0.028332	0.476167
O27	O	1.548317	0.278332	0.726167
O28	O	1.798317	0.528332	0.976167
O29	O	0.957529	-0.099107	0.336191
O30	O	1.207529	0.150893	0.586191
O31	O	1.457529	0.400893	0.836191
O32	O	1.707529	0.650893	1.086191
O33	O	1.157145	-0.221926	0.344689
O34	O	1.407145	0.028074	0.594689
O35	O	1.657145	0.278074	0.844689
O36	O	1.907145	0.528074	1.094689
O37	O	1.039986	-0.099303	0.425993
O38	O	1.289986	0.150697	0.675993
O39	O	1.539986	0.400697	0.925993
O40	O	1.789986	0.650697	1.175993
O41	O	0.962268	-0.168724	0.222504
O42	O	1.212268	0.081276	0.472504
O43	O	1.462268	0.331276	0.722504
O44	O	1.712268	0.581276	0.972504
O45	O	0.843782	-0.174895	0.331286
O46	O	1.093782	0.075105	0.581286
O47	O	1.343782	0.325105	0.831286
O48	O	1.593782	0.575105	1.081286
O49	O	0.948883	-0.232774	0.535894
O50	O	1.198883	0.017226	0.785894
O51	O	1.448883	0.267226	1.035894
O52	O	1.698883	0.517226	1.285894
O53	O	0.840055	-0.232515	0.417372
O54	O	1.090055	0.017485	0.667372
O55	O	1.340055	0.267485	0.917372
O56	O	1.590055	0.517485	1.167372
O57	O	1.035067	-0.175350	0.539610
O58	O	1.285067	0.074650	0.789610
O59	O	1.535067	0.324650	1.039610
O60	O	1.785067	0.574650	1.289610
O61	O	1.043398	-0.297715	0.339784
O62	O	1.293398	-0.047715	0.589784
O63	O	1.543398	0.202285	0.839784
O64	O	1.793398	0.452285	1.089784
O65	O	0.953623	-0.302391	0.422207
O66	O	1.203623	-0.052391	0.672207
O67	O	1.453623	0.197609	0.922207
O68	O	1.703623	0.447609	1.172207
C69	C	0.816480	-0.204367	0.373240
C70	C	1.066480	0.045633	0.623240
C71	C	1.316480	0.295633	0.873240
C72	C	1.566480	0.545633	1.123240
C73	C	0.738553	-0.206406	0.369918
C74	C	0.988553	0.043594	0.619918
C75	C	1.238553	0.293594	0.869918
C76	C	1.488553	0.543594	1.119918
C77	C	0.700071	-0.179948	0.413273
C78	C	0.950071	0.070052	0.663273
C79	C	1.200071	0.320052	0.913273
C80	C	1.450071	0.570052	1.163273
C81	C	0.626850	-0.181861	0.410146
C82	C	0.876850	0.068139	0.660146
C83	C	1.126850	0.318139	0.910146
C84	C	1.376850	0.568139	1.160146
C85	C	0.592113	-0.210235	0.363666
C86	C	0.842113	0.039765	0.613666
C87	C	1.092113	0.289765	0.863666
C88	C	1.342113	0.539765	1.113666
C89	C	0.630601	-0.236693	0.320305
C90	C	0.880601	0.013307	0.570305
C91	C	1.130601	0.263307	0.820305
C92	C	1.380601	0.513307	1.070305
C93	C	0.703820	-0.234778	0.323430
C94	C	0.953820	0.015222	0.573430
C95	C	1.203820	0.265222	0.823430
C96	C	1.453820	0.515222	1.073430
C97	C	0.371132	-0.217388	0.351982
C98	C	0.621132	0.032612	0.601982
C99	C	0.871132	0.282612	0.851982
C100	C	1.121132	0.532612	1.101982
C101	C	0.297908	-0.219303	0.348862
C102	C	0.547908	0.030697	0.598862
C103	C	0.797908	0.280697	0.848862
C104	C	1.047908	0.530697	1.098862
C105	C	0.294162	-0.164470	0.438702
C106	C	0.544162	0.085530	0.688702
C107	C	0.794162	0.335530	0.938702
C108	C	1.044162	0.585530	1.188702
C109	C	0.367383	-0.162559	0.441825
C110	C	0.617383	0.087441	0.691825
C111	C	0.867383	0.337441	0.941825
C112	C	1.117383	0.587441	1.191825
C113	C	0.405864	-0.189016	0.398462
C114	C	0.655864	0.060984	0.648462
C115	C	0.905864	0.310984	0.898462
C116	C	1.155864	0.560984	1.148462
C117	C	0.517270	-0.212192	0.360470
C118	C	0.767270	0.037808	0.610470
C119	C	1.017270	0.287808	0.860470
C120	C	1.267270	0.537808	1.110470
C121	C	0.480706	-0.187056	0.401656
C122	C	0.730706	0.062944	0.651656
C123	C	0.980706	0.312944	0.901656
C124	C	1.230706	0.562944	1.151656
C125	C	0.998509	-0.316354	0.381004
C126	C	1.248509	-0.066354	0.631004
C127	C	1.498509	0.183646	0.881004
C128	C	1.748509	0.433646	1.131004
C129	C	0.998518	-0.366288	0.381013
C130	C	1.248518	-0.116288	0.631013
C131	C	1.498518	0.133712	0.881013
C132	C	1.748518	0.383712	1.131013
C133	C	1.045459	-0.673481	0.338195
C134	C	1.295459	-0.423481	0.588195
C135	C	1.545459	-0.173481	0.838195
C136	C	1.795459	0.076519	1.088195
C137	C	1.045544	-0.861153	0.338226
C138	C	1.295544	-0.611153	0.588226
C139	C	1.545544	-0.361153	0.838226
C140	C	1.795544	-0.111153	1.088226
O141	O	1.085355	-0.883337	0.301791
O142	O	1.335355	-0.633337	0.551791
O143	O	1.585355	-0.383337	0.801791
O144	O	1.835355	-0.133337	1.051791
N145	N	0.998777	-0.887069	0.381103
N146	N	1.248777	-0.637069	0.631103
N147	N	1.498777	-0.387069	0.881103
N148	N	1.748777	-0.137069	1.131103
C149	C	0.951988	-0.866063	0.423978
C150	C	1.201988	-0.616063	0.673978
C151	C	1.451988	-0.366063	0.923978
C152	C	1.701988	-0.116063	1.173978
O153	O	0.912217	-0.892412	0.460454
O154	O	1.162217	-0.642412	0.710454
O155	O	1.412217	-0.392412	0.960454
O156	O	1.662217	-0.142412	1.210454
C157	C	0.951907	-0.678393	0.423951
C158	C	1.201907	-0.428393	0.673951
C159	C	1.451907	-0.178393	0.923951
C160	C	1.701907	0.071607	1.173951
C161	C	0.998672	-0.652479	0.381066
C162	C	1.248672	-0.402479	0.631066
C163	C	1.498672	-0.152479	0.881066
C164	C	1.748672	0.097521	1.131066
C165	C	1.092221	-0.647568	0.295315
C166	C	1.342221	-0.397568	0.545315
C167	C	1.592221	-0.147568	0.795315
C168	C	1.842221	0.102432	1.045315
C169	C	1.092196	-0.600653	0.295305
C170	C	1.342196	-0.350653	0.545305
C171	C	1.592196	-0.100653	0.795305
C172	C	1.842196	0.149347	1.045305
C173	C	1.045410	-0.579651	0.338175
C174	C	1.295410	-0.329651	0.588175
C175	C	1.545410	-0.079651	0.838175
C176	C	1.795410	0.170349	1.088175
C177	C	0.998648	-0.605564	0.381056
C178	C	1.248648	-0.355564	0.631056
C179	C	1.498648	-0.105564	0.881056
C180	C	1.748648	0.144436	1.131056
C181	C	0.905122	-0.657389	0.466829
C182	C	1.155122	-0.407389	0.716829
C183	C	1.405122	-0.157389	0.966829
C184	C	1.655122	0.092611	1.216829
C185	C	0.905107	-0.610468	0.466820
C186	C	1.155107	-0.360468	0.716820
C187	C	1.405107	-0.110468	0.966820
C188	C	1.655107	0.139532	1.216820
C189	C	0.951873	-0.584554	0.423935
C190	C	1.201873	-0.334554	0.673935
C191	C	1.451873	-0.084554	0.923935
C192	C	1.701873	0.165446	1.173935
C193	C	0.951837	-0.537647	0.423916
C194	C	1.201837	-0.287647	0.673916
C195	C	1.451837	-0.037647	0.923916
C196	C	1.701837	0.212353	1.173916
N197	N	0.998604	-0.511732	0.381040
N198	N	1.248604	-0.261732	0.631040
N199	N	1.498604	-0.011732	0.881040
N200	N	1.748604	0.238268	1.131040
C201	C	1.045391	-0.532734	0.338169
C202	C	1.295391	-0.282734	0.588169
C203	C	1.545391	-0.032734	0.838169
C204	C	1.795391	0.217266	1.088169
C205	C	0.952034	-0.964593	0.423989
C206	C	1.202034	-0.714593	0.673989
C207	C	1.452034	-0.464593	0.923989
C208	C	1.702034	-0.214593	1.173989
C209	C	0.952053	-1.011511	0.423995
C210	C	1.202053	-0.761511	0.673995
C211	C	1.452053	-0.511511	0.923995
C212	C	1.702053	-0.261511	1.173995
C213	C	1.045610	-1.006597	0.338244
C214	C	1.295610	-0.756597	0.588244
C215	C	1.545610	-0.506597	0.838244
C216	C	1.795610	-0.256597	1.088244
C217	C	1.045586	-0.959679	0.338234
C218	C	1.295586	-0.709679	0.588234
C219	C	1.545586	-0.459679	0.838234
C220	C	1.795586	-0.209679	1.088234
C221	C	0.998801	-0.938678	0.381112
C222	C	1.248801	-0.688678	0.631112
C223	C	1.498801	-0.438678	0.881112
C224	C	1.748801	-0.188678	1.131112
C225	C	1.045335	-0.434209	0.338151
C226	C	1.295335	-0.184209	0.588151
C227	C	1.545335	0.065791	0.838151
C228	C	1.795335	0.315791	1.088151
C229	C	1.045305	-0.387290	0.338142
C230	C	1.295305	-0.137290	0.588142
C231	C	1.545305	0.112710	0.838142
C232	C	1.795305	0.362710	1.088142
C233	C	0.951751	-0.392208	0.423896
C234	C	1.201751	-0.142208	0.673896
C235	C	1.451751	0.107792	0.923896
C236	C	1.701751	0.357792	1.173896
C237	C	0.951779	-0.439123	0.423902
C238	C	1.201779	-0.189123	0.673902
C239	C	1.451779	0.060877	0.923902
C240	C	1.701779	0.310877	1.173902
C241	C	0.998577	-0.460122	0.381027
C242	C	1.248577	-0.210122	0.631027
C243	C	1.498577	0.039878	0.881027
C244	C	1.748577	0.289878	1.131027
O245	O	0.912052	-0.515434	0.460339
O246	O	1.162052	-0.265434	0.710339
O247	O	1.412052	-0.015434	0.960339
O248	O	1.662052	0.234566	1.210339
O249	O	1.085167	-0.506377	0.301711
O250	O	1.335167	-0.256377	0.551711
O251	O	1.585167	-0.006377	0.801711
O252	O	1.835167	0.243623	1.051711
C253	C	1.045483	-0.720396	0.338206
C254	C	1.295483	-0.470396	0.588206
C255	C	1.545483	-0.220396	0.838206
C256	C	1.795483	0.029604	1.088206
C257	C	0.998721	-0.746310	0.381086
C258	C	1.248721	-0.496310	0.631086
C259	C	1.498721	-0.246310	0.881086
C260	C	1.748721	0.003690	1.131086
C261	C	0.951935	-0.725308	0.423957
C262	C	1.201935	-0.475308	0.673957
C263	C	1.451935	-0.225308	0.923957
C264	C	1.701935	0.024692	1.173957
C265	C	0.998741	-0.793227	0.381092
C266	C	1.248741	-0.543227	0.631092
C267	C	1.498741	-0.293227	0.881092
C268	C	1.748741	-0.043227	1.131092
C269	C	1.045527	-0.814229	0.338222
C270	C	1.295527	-0.564229	0.588222
C271	C	1.545527	-0.314229	0.838222
C272	C	1.795527	-0.064229	1.088222
C273	C	1.092294	-0.788313	0.295345
C274	C	1.342294	-0.538313	0.545345
C275	C	1.592294	-0.288313	0.795345
C276	C	1.842294	-0.038313	1.045345
C277	C	1.092270	-0.741398	0.295335
C278	C	1.342270	-0.491398	0.545335
C279	C	1.592270	-0.241398	0.795335
C280	C	1.842270	0.008602	1.045335
C281	C	0.905168	-0.751223	0.466833
C282	C	1.155168	-0.501223	0.716833
C283	C	1.405168	-0.251223	0.966833
C284	C	1.655168	-0.001223	1.216833
C285	C	0.905195	-0.798138	0.466839
C286	C	1.155195	-0.548138	0.716839
C287	C	1.405195	-0.298138	0.966839
C288	C	1.655195	-0.048138	1.216839
C289	C	0.951982	-0.819140	0.423969
C290	C	1.201982	-0.569140	0.673969
C291	C	1.451982	-0.319140	0.923969
C292	C	1.701982	-0.069140	1.173969
C293	C	1.181499	-0.194872	0.388879
C294	C	1.431499	0.055128	0.638879
C295	C	1.681499	0.305128	0.888879
C296	C	1.931499	0.555128	1.138879
C297	C	1.259425	-0.192845	0.392218
C298	C	1.509425	0.057155	0.642218
C299	C	1.759425	0.307155	0.892218
C300	C	2.009425	0.557155	1.142218
C301	C	0.990864	-0.204801	0.563901
C302	C	1.240864	0.045199	0.813901
C303	C	1.490864	0.295199	1.063901
C304	C	1.740864	0.545199	1.313901
C305	C	0.987553	-0.207006	0.641823
C306	C	1.237553	0.042994	0.891823
C307	C	1.487553	0.292994	1.141823
C308	C	1.737553	0.542994	1.391823
C309	C	0.998778	-0.082448	0.381100
C310	C	1.248778	0.167552	0.631100
C311	C	1.498778	0.417552	0.881100
C312	C	1.748778	0.667552	1.131100
C313	C	0.998839	-0.032513	0.381124
C314	C	1.248839	0.217487	0.631124
C315	C	1.498839	0.467487	0.881124
C316	C	1.748839	0.717487	1.131124
C317	C	1.006414	-0.194443	0.198900
C318	C	1.256414	0.055557	0.448900
C319	C	1.506414	0.305557	0.698900
C320	C	1.756414	0.555557	0.948900
C321	C	1.009861	-0.192108	0.120984
C322	C	1.259861	0.057892	0.370984
C323	C	1.509861	0.307892	0.620984
C324	C	1.759861	0.557892	0.870984
C325	C	1.030867	-0.178145	0.680367
C326	C	1.280867	0.071855	0.930367
C327	C	1.530867	0.321855	1.180367
C328	C	1.780867	0.571855	1.430367
C329	C	1.027747	-0.180215	0.753584
C330	C	1.277747	0.069785	1.003584
C331	C	1.527747	0.319785	1.253584
C332	C	1.777747	0.569785	1.503584
C333	C	0.981317	-0.211148	0.788254
C334	C	1.231317	0.038852	1.038254
C335	C	1.481317	0.288852	1.288254
C336	C	1.731317	0.538852	1.538254
C337	C	0.937999	-0.240009	0.749705
C338	C	1.187999	0.009991	0.999705
C339	C	1.437999	0.259991	1.249705
C340	C	1.687999	0.509991	1.499705
C341	C	0.941115	-0.237937	0.676490
C342	C	1.191115	0.012063	0.926490
C343	C	1.441115	0.262063	1.176490
C344	C	1.691115	0.512063	1.426490
C345	C	0.969659	-0.218898	1.009219
C346	C	1.219659	0.031102	1.259219
C347	C	1.469659	0.281102	1.509219
C348	C	1.719659	0.531102	1.759219
C349	C	0.966547	-0.220969	1.082440
C350	C	1.216547	0.029031	1.332440
C351	C	1.466547	0.279031	1.582440
C352	C	1.716547	0.529031	1.832440
C353	C	1.056295	-0.161174	1.086313
C354	C	1.306295	0.088826	1.336313
C355	C	1.556295	0.338826	1.586313
C356	C	1.806295	0.588826	1.836313
C357	C	1.059411	-0.159106	1.013097
C358	C	1.309411	0.090894	1.263097
C359	C	1.559411	0.340894	1.513097
C360	C	1.809411	0.590894	1.763097
C361	C	1.016090	-0.187966	0.974554
C362	C	1.266090	0.062034	1.224554
C363	C	1.516090	0.312034	1.474554
C364	C	1.766090	0.562034	1.724554
C365	C	0.978129	-0.213265	0.863093
C366	C	1.228129	0.036735	1.113093
C367	C	1.478129	0.286735	1.363093
C368	C	1.728129	0.536735	1.613093
C369	C	1.019275	-0.185846	0.899716
C370	C	1.269275	0.064154	1.149716
C371	C	1.519275	0.314154	1.399716
C372	C	1.769275	0.564154	1.649716
H373	H	0.735152	-0.256322	0.288124
H374	H	0.985152	-0.006322	0.538124
H375	H	1.235152	0.243678	0.788124
H376	H	1.485152	0.493678	1.038124
H377	H	1.083387	-0.366192	0.303218
H378	H	1.333387	-0.116192	0.553218
H379	H	1.583387	0.133808	0.803218
H380	H	1.833387	0.383808	1.053218
H381	H	0.402455	-0.238932	0.316673
H382	H	0.652455	0.011068	0.566673
H383	H	0.902455	0.261068	0.816673
H384	H	1.152455	0.511068	1.066673
H385	H	1.083705	-1.023704	0.303337
H386	H	1.333705	-0.773704	0.553337
H387	H	1.583705	-0.523704	0.803337
H388	H	1.833705	-0.273704	1.053337
H389	H	0.602312	-0.259793	0.282457
H390	H	0.852312	-0.009793	0.532457
H391	H	1.102312	0.240207	0.782457
H392	H	1.352312	0.490207	1.032457
H393	H	0.269627	-0.242410	0.311012
H394	H	0.519627	0.007590	0.561012
H395	H	0.769627	0.257590	0.811012
H396	H	1.019627	0.507590	1.061012
H397	H	1.063020	-0.156715	0.784963
H398	H	1.313020	0.093285	1.034963
H399	H	1.563020	0.343285	1.284963
H400	H	1.813020	0.593285	1.534963
H401	H	0.488979	-0.235293	0.322625
H402	H	0.738979	0.014707	0.572625
H403	H	0.988979	0.264707	0.822625
H404	H	1.238979	0.514707	1.072625
H405	H	0.867069	-0.734127	0.501745
H406	H	1.117069	-0.484127	0.751745
H407	H	1.367069	-0.234127	1.001745
H408	H	1.617069	0.015873	1.251745
H409	H	0.913966	-1.032606	0.458909
H410	H	1.163966	-0.782606	0.708909
H411	H	1.413966	-0.532606	0.958909
H412	H	1.663966	-0.282606	1.208909
H413	H	1.068678	-0.152958	0.652144
H414	H	1.318678	0.097042	0.902144
H415	H	1.568678	0.347042	1.152144
H416	H	1.818678	0.597042	1.402144
H417	H	0.913701	-0.460223	0.458824
H418	H	1.163701	-0.210223	0.708824
H419	H	1.413701	0.039777	0.958824
H420	H	1.663701	0.289777	1.208824
H421	H	0.867009	-0.593371	0.501738
H422	H	1.117009	-0.343371	0.751738
H423	H	1.367009	-0.093371	1.001738
H424	H	1.617009	0.156629	1.251738
H425	H	0.913656	-0.375101	0.458798
H426	H	1.163656	-0.125101	0.708798
H427	H	1.413656	0.124899	0.958798
H428	H	1.663656	0.374899	1.208798
H429	H	1.097221	-0.133918	0.984873
H430	H	1.347221	0.116082	1.234873
H431	H	1.597221	0.366082	1.484873
H432	H	1.847221	0.616082	1.734873
H433	H	0.508992	-0.163952	0.439497
H434	H	0.758992	0.086048	0.689497
H435	H	1.008992	0.336048	0.939497
H436	H	1.258992	0.586048	1.189497
H437	H	0.940328	-0.238452	0.891331
H438	H	1.190328	0.011548	1.141331
H439	H	1.440328	0.261548	1.391331
H440	H	1.690328	0.511548	1.641331
H441	H	0.395660	-0.139456	0.479677
H442	H	0.645660	0.110544	0.729677
H443	H	0.895660	0.360544	0.979677
H444	H	1.145660	0.610544	1.229677
H445	H	1.083444	-0.451301	0.303240
H446	H	1.333444	-0.201301	0.553240
H447	H	1.583444	0.048699	0.803240
H448	H	1.833444	0.298699	1.053240
H449	H	1.057075	-0.160659	0.871484
H450	H	1.307075	0.089341	1.121484
H451	H	1.557075	0.339341	1.371484
H452	H	1.807075	0.589341	1.621484
H453	H	1.130387	-0.805421	0.260436
H454	H	1.380387	-0.555421	0.510436
H455	H	1.630387	-0.305421	0.760436
H456	H	1.880387	-0.055421	1.010436
H457	H	0.728348	-0.156845	0.451124
H458	H	0.978348	0.093155	0.701124
H459	H	1.228348	0.343155	0.951124
H460	H	1.478348	0.593155	1.201124
H461	H	1.130279	-0.579557	0.260387
H462	H	1.380279	-0.329557	0.510387
H463	H	1.630279	-0.079557	0.760387
H464	H	1.880279	0.170443	1.010387
H465	H	0.928736	-0.246159	1.110666
H466	H	1.178736	0.003841	1.360666
H467	H	1.428736	0.253841	1.610666
H468	H	1.678736	0.503841	1.860666
H469	H	1.130324	-0.664663	0.260404
H470	H	1.380324	-0.414663	0.510404
H471	H	1.630324	-0.164663	0.760404
H472	H	1.880324	0.085337	1.010404
H473	H	1.091564	-0.137677	1.117703
H474	H	1.341564	0.112323	1.367703
H475	H	1.591564	0.362323	1.617703
H476	H	1.841564	0.612323	1.867703
H477	H	0.934394	-0.242404	0.977847
H478	H	1.184394	0.007596	1.227847
H479	H	1.434394	0.257596	1.477847
H480	H	1.684394	0.507596	1.727847
H481	H	1.083667	-0.938582	0.303315
H482	H	1.333667	-0.688582	0.553315
H483	H	1.583667	-0.438582	0.803315
H484	H	1.833667	-0.188582	1.053315
H485	H	0.913933	-0.947498	0.458906
H486	H	1.163933	-0.697498	0.708906
H487	H	1.413933	-0.447498	0.958906
H488	H	1.663933	-0.197498	1.208906
H489	H	0.867038	-0.678479	0.501747
H490	H	1.117038	-0.428479	0.751747
H491	H	1.367038	-0.178479	1.001747
H492	H	1.617038	0.071521	1.251747
H493	H	1.130350	-0.720303	0.260415
H494	H	1.380350	-0.470303	0.510415
H495	H	1.630350	-0.220303	0.760415
H496	H	1.880350	0.029697	1.010415
H497	H	0.867107	-0.819233	0.501760
H498	H	1.117107	-0.569233	0.751760
H499	H	1.367107	-0.319233	1.001760
H500	H	1.617107	-0.069233	1.251760
H501	H	0.900192	-0.265194	0.777940
H502	H	1.150192	-0.015194	1.027940
H503	H	1.400192	0.234806	1.277940
H504	H	1.650192	0.484806	1.527940
H505	H	0.905837	-0.261434	0.645108
H506	H	1.155837	-0.011434	0.895108
H507	H	1.405837	0.238566	1.145108
H508	H	1.655837	0.488566	1.395108
H509	H	0.595521	-0.160317	0.445452
H510	H	0.845521	0.089683	0.695452
H511	H	1.095521	0.339683	0.945452
H512	H	1.345521	0.589683	1.195452
H513	H	0.262823	-0.142929	0.474005
H514	H	0.512823	0.107071	0.724005
H515	H	0.762823	0.357071	0.974005
H516	H	1.012823	0.607071	1.224005
