data_functionalizedCrystal
_audit_creation_method	'MofGen! by Chris Wilmer'
_symmetry_space_group_name_H-M	'P1'
_symmetry_Int_Tables_number	1
_symmetry_cell_setting	triclinic
loop_
_symmetry_equiv_pos_as_xyz
  x,y,z
_cell_length_a	10.654559
_cell_length_b	13.339071
_cell_length_c	9.730223
_cell_angle_alpha	89.992773
_cell_angle_beta	89.999563
_cell_angle_gamma	100.058982
loop_
_atom_site_label
_atom_site_type_symbol
_atom_site_fract_x
_atom_site_fract_y
_atom_site_fract_z
O1	O	1.715935	0.142476	-0.114318
O2	O	1.355036	0.156036	-0.114321
O3	O	1.494066	0.001701	-0.114289
O4	O	1.576905	0.296811	-0.114350
O5	O	1.494065	0.001705	0.114291
O6	O	1.355036	0.156040	0.114259
O7	O	1.715934	0.142480	0.114262
Zn8	Zn	1.535484	0.149261	0.150552
Zn9	Zn	1.535486	0.149256	-0.150612
O10	O	1.576904	0.296815	0.114230
C11	C	1.307901	0.155041	-0.000031
C12	C	1.167451	0.152056	-0.000031
C13	C	1.480073	-0.036085	0.000006
C14	C	1.438362	-0.148680	0.000020
C15	C	1.084281	0.058380	-0.000008
C16	C	0.952314	0.055582	-0.000018
C17	C	0.986700	0.240143	-0.000067
C18	C	1.118664	0.242941	-0.000068
C19	C	1.064428	-0.048175	0.000027
C20	C	0.932461	-0.050974	0.000017
C21	C	1.308292	-0.190294	-0.000006
C22	C	1.269099	-0.296083	-0.000035
C23	C	1.359973	-0.360268	-0.000050
C24	C	1.490046	-0.318654	-0.000034
C25	C	1.529243	-0.212855	0.000006
C26	C	1.580924	-0.382829	-0.000037
C27	C	1.710997	-0.341216	-0.000022
C28	C	1.750187	-0.235427	0.000018
C29	C	1.659313	-0.171241	0.000032
C30	C	1.541727	-0.488628	-0.000078
C31	C	1.762678	-0.511189	-0.000066
C32	C	1.801871	-0.405401	-0.000036
C33	C	1.763069	0.143475	-0.000031
C34	C	1.903519	0.146460	-0.000040
C35	C	1.590898	0.334601	-0.000068
C36	C	1.632608	0.447197	-0.000091
N37	N	1.535493	0.149264	0.356089
N38	N	1.535485	0.149245	-0.356148
C39	C	1.597085	0.080947	0.428029
C40	C	1.597077	0.080935	0.571912
C41	C	1.473884	0.217564	0.571902
C42	C	1.473885	0.217571	0.428021
C43	C	1.668214	0.002068	0.428036
C44	C	1.668207	0.002056	0.571919
H45	H	0.946961	0.314138	-0.000098
O46	O	1.928184	-0.364850	-0.000196
C47	C	2.100684	-0.258507	-0.118611
C48	C	1.957612	-0.304344	-0.118584
H49	H	2.124527	-0.209595	-0.214332
H50	H	2.124581	-0.209500	-0.022998
H51	H	2.158884	-0.322561	-0.118560
H52	H	1.899316	-0.240356	-0.118683
H53	H	1.933816	-0.353377	-0.214188
O54	O	1.321969	-0.463038	0.000152
C55	C	1.326392	-0.621097	0.118453
C56	C	1.369500	-0.504714	0.118423
H57	H	1.364825	-0.654830	0.214049
H58	H	1.217819	-0.639875	0.118528
H59	H	1.364692	-0.654755	0.022733
H60	H	1.331290	-0.470976	0.214126
H61	H	1.478075	-0.486007	0.118276
O62	O	1.142792	-0.336620	-0.000244
C63	C	0.970313	-0.442876	-0.118765
C64	C	1.113390	-0.397057	-0.118678
H65	H	0.946491	-0.491732	-0.214523
H66	H	0.946376	-0.491936	-0.023189
H67	H	0.912128	-0.378813	-0.118687
H68	H	1.171672	-0.461055	-0.118805
H69	H	1.137227	-0.347971	-0.214246
H70	H	1.092618	-0.088332	-0.095620
H71	H	1.836676	-0.563449	-0.000076
O72	O	1.611429	-0.090948	0.381375
C73	C	1.634214	-0.238912	0.248005
C74	C	1.698694	-0.133606	0.300786
H75	H	1.704731	-0.273423	0.182815
H76	H	1.602395	-0.290958	0.339071
H77	H	1.547737	-0.230281	0.182974
H78	H	1.785215	-0.142141	0.365795
H79	H	1.730421	-0.081599	0.209659
H80	H	1.423718	0.273191	0.369449
H81	H	1.099199	-0.080365	0.098730
H82	H	1.856101	-0.201548	0.000046
O83	O	1.413837	0.283814	0.641720
C84	C	1.215620	0.341618	0.685674
C85	C	1.283460	0.266516	0.606547
H86	H	1.110204	0.327674	0.657244
H87	H	1.226085	0.329876	0.800884
H88	H	1.260380	0.422963	0.657401
H89	H	1.238746	0.185142	0.634706
H90	H	1.273003	0.278347	0.491358
H91	H	1.767738	0.026770	0.383405
O92	O	1.602174	-0.085911	0.624949
C93	C	1.477954	-0.251143	0.577209
C94	C	1.552700	-0.151580	0.516967
H95	H	1.437911	-0.304255	0.489935
H96	H	1.544277	-0.289584	0.643089
H97	H	1.396256	-0.233263	0.643217
H98	H	1.634400	-0.169372	0.450897
H99	H	1.486293	-0.113168	0.451165
H100	H	1.770585	0.019434	0.610966
H101	H	1.186378	0.319220	-0.000109
O102	O	0.876443	-0.091362	-0.117847
C103	C	0.864771	-0.077967	-0.364318
C104	C	0.928334	-0.032140	-0.230950
H105	H	0.906679	-0.030095	-0.455794
H106	H	0.882710	-0.159243	-0.377052
H107	H	0.757785	-0.078453	-0.358825
H108	H	1.035333	-0.031583	-0.236348
H109	H	0.910292	0.049111	-0.218265
H110	H	0.889022	-0.092638	0.095687
O111	O	1.415369	-0.528997	-0.000347
C112	C	1.214541	-0.541984	-0.118755
C113	C	1.357634	-0.496220	-0.118632
H114	H	1.167814	-0.515485	-0.214364
H115	H	1.202053	-0.628626	-0.118875
H116	H	1.167801	-0.515664	-0.023048
H117	H	1.404466	-0.522462	-0.214323
H118	H	1.370031	-0.409584	-0.118440
H119	H	1.234317	-0.138026	0.000015
H120	H	1.691218	-0.085099	0.000045
