data_functionalizedCrystal
_audit_creation_method	'MofGen! by Chris Wilmer'
_symmetry_space_group_name_H-M	'P1'
_symmetry_Int_Tables_number	1
_symmetry_cell_setting	triclinic
loop_
_symmetry_equiv_pos_as_xyz
  x,y,z
_cell_length_a	10.489716
_cell_length_b	27.732048
_cell_length_c	8.965430
_cell_angle_alpha	89.995481
_cell_angle_beta	89.996523
_cell_angle_gamma	83.585895
loop_
_atom_site_label
_atom_site_type_symbol
_atom_site_fract_x
_atom_site_fract_y
_atom_site_fract_z
O1	O	1.691077	0.068131	-0.124046
O2	O	1.319596	0.074544	-0.124053
O3	O	1.516874	0.001013	-0.124021
O4	O	1.493799	0.141662	-0.124078
O5	O	1.516857	0.001018	0.124058
O6	O	1.319579	0.074549	0.124026
O7	O	1.691060	0.068136	0.124033
Cu8	Cu	1.505318	0.071343	0.146681
Cu9	Cu	1.505338	0.071337	-0.146701
O10	O	1.493782	0.141666	0.124001
C11	C	1.272076	0.074064	-0.000014
C12	C	1.130509	0.072623	-0.000015
C13	C	1.030853	0.117714	-0.000037
C14	C	0.954546	0.093889	0.122295
C15	C	0.954569	0.093874	-0.122291
C16	C	1.056066	0.048817	0.122418
C17	C	1.056095	0.048808	-0.122278
C18	C	0.979838	0.024950	0.000084
C19	C	1.516381	-0.016995	0.000023
C20	C	1.514923	-0.070659	0.000035
C21	C	1.622319	-0.408799	-0.000039
C22	C	1.616907	-0.610493	-0.000060
O23	O	1.715114	-0.641132	-0.000123
N24	N	1.499929	-0.630351	-0.000061
C25	C	1.384296	-0.599782	-0.000066
O26	O	1.284675	-0.621301	-0.000083
C27	C	1.389709	-0.398090	-0.000056
C28	C	1.506695	-0.378235	-0.000040
C29	C	1.739295	-0.388944	-0.000025
C30	C	1.740646	-0.338523	-0.000012
C31	C	1.625022	-0.307958	-0.000013
C32	C	1.508046	-0.327814	-0.000027
C33	C	1.274077	-0.367522	-0.000072
C34	C	1.275441	-0.317096	-0.000074
C35	C	1.392426	-0.297241	-0.000058
C36	C	1.393774	-0.246829	-0.000015
N37	N	1.510751	-0.226971	-0.000014
C38	C	1.626376	-0.257536	-0.000013
C39	C	1.381463	-0.705674	-0.000069
C40	C	1.380109	-0.756097	-0.000069
C41	C	1.612721	-0.766804	-0.000065
C42	C	1.614073	-0.716380	-0.000055
C43	C	1.498441	-0.685816	-0.000068
C44	C	1.629205	-0.151649	0.000017
C45	C	1.630547	-0.101223	0.000036
C46	C	1.397936	-0.090521	0.000025
C47	C	1.396594	-0.140942	0.000013
C48	C	1.512239	-0.171505	0.000004
O49	O	1.295620	-0.216161	0.000032
O50	O	1.725982	-0.236008	-0.000029
C51	C	1.620967	-0.459220	-0.000053
C52	C	1.503991	-0.479075	-0.000067
C53	C	1.388367	-0.448511	-0.000068
C54	C	1.502638	-0.529498	-0.000067
C55	C	1.618262	-0.560063	-0.000066
C56	C	1.735240	-0.540205	-0.000065
C57	C	1.736591	-0.489785	-0.000052
C58	C	1.271389	-0.468369	-0.000069
C59	C	1.270047	-0.518790	-0.000081
C60	C	1.385671	-0.549355	-0.000080
C61	C	1.738580	0.068615	-0.000009
C62	C	1.880147	0.070057	-0.000017
C63	C	1.494275	0.159674	-0.000046
C64	C	1.495733	0.213338	-0.000068
N65	N	1.505314	0.071346	0.353030
N66	N	1.505353	0.071329	-0.353050
C67	C	1.414052	0.105341	0.450321
C68	C	1.529120	0.115117	0.549733
C69	C	1.390294	0.061575	0.549746
C70	C	1.620439	0.081144	0.450253
C71	C	1.481538	0.027583	0.450258
C72	C	1.596690	0.037341	0.549624
H73	H	1.100212	0.029795	0.225942
H74	H	1.174777	-0.534951	-0.000081
F75	F	1.258382	-0.673151	-0.000084
F76	F	1.555441	0.163480	0.606846
H77	H	1.303798	-0.065626	0.000029
H78	H	1.706866	-0.791699	-0.000064
F79	F	1.858296	-0.572743	-0.000056
H80	H	1.177232	-0.443488	-0.000073
H81	H	1.284848	-0.772259	-0.000056
H82	H	1.723375	-0.176528	0.000004
H83	H	1.293008	0.053317	0.593453
F84	F	1.747629	0.091994	0.393376
H85	H	1.673968	0.008584	0.592952
F86	F	1.060856	0.168979	0.000092
F87	F	0.896606	0.118771	0.257452
H88	H	0.957133	-0.014301	0.000170
F89	F	1.114067	0.023948	-0.257443
H90	H	0.910256	0.112916	-0.225698
H91	H	1.725814	-0.085060	0.000053
H92	H	1.835908	-0.322362	-0.000005
H93	H	1.833455	-0.413825	-0.000030
H94	H	1.181277	-0.292213	-0.000087
F95	F	1.455172	-0.020767	0.393098
H96	H	1.709333	-0.700218	-0.000043
F97	F	1.313267	0.142950	0.393324
F98	F	1.149564	-0.388642	-0.000096
H99	H	1.831853	-0.473623	-0.000039
F100	F	1.272086	-0.162074	0.000023
