data_functionalizedCrystal
_audit_creation_method	'MofGen! by Chris Wilmer'
_symmetry_space_group_name_H-M	'P1'
_symmetry_Int_Tables_number	1
_symmetry_cell_setting	triclinic
loop_
_symmetry_equiv_pos_as_xyz
  x,y,z
_cell_length_a	18.050590
_cell_length_b	18.050589
_cell_length_c	21.395356
_cell_angle_alpha	89.977927
_cell_angle_beta	89.992092
_cell_angle_gamma	90.017386
loop_
_atom_site_label
_atom_site_type_symbol
_atom_site_fract_x
_atom_site_fract_y
_atom_site_fract_z
Zn1	Zn	1.135356	-0.295893	-0.354024
Zn2	Zn	1.135248	-0.420085	-0.249256
Zn3	Zn	1.011156	-0.295890	-0.249289
Zn4	Zn	1.011123	-0.420022	-0.354025
O5	O	1.073221	-0.357972	-0.301649
O6	O	1.239266	-0.312395	-0.340112
O7	O	1.118756	-0.403635	-0.161583
O8	O	1.027691	-0.191965	-0.263195
O9	O	1.239187	-0.403638	-0.263140
O10	O	1.118940	-0.191968	-0.340143
O11	O	1.027586	-0.312389	-0.161607
O12	O	0.907227	-0.312328	-0.263197
O13	O	1.027634	-0.403532	-0.441703
O14	O	0.907203	-0.403528	-0.340146
O15	O	1.118908	-0.312334	-0.441702
O16	O	1.118723	-0.524001	-0.263141
O17	O	1.027529	-0.523955	-0.340114
C18	C	0.880269	-0.357922	-0.301676
C19	C	0.797723	-0.357918	-0.301702
C20	C	0.598281	-0.407654	-0.343448
C21	C	0.548890	-0.339938	-0.358861
C22	C	0.646593	-0.357959	-0.301671
C23	C	0.548901	-0.425714	-0.286257
C24	C	0.500607	-0.358005	-0.301643
C25	C	0.598290	-0.290207	-0.317115
C26	C	0.598305	-0.376029	-0.244484
C27	C	0.548937	-0.308266	-0.259876
C28	C	0.730691	-0.357934	-0.301689
C29	C	0.416511	-0.358023	-0.301625
C30	C	1.073131	-0.550925	-0.301638
C31	C	1.073161	-0.633470	-0.301655
C32	C	1.023618	-0.832923	-0.343498
C33	C	1.005510	-0.882358	-0.286329
C34	C	1.073234	-0.784601	-0.301663
C35	C	1.091378	-0.882247	-0.358838
C36	C	1.073303	-0.930586	-0.301676
C37	C	1.055090	-0.832949	-0.244464
C38	C	1.140990	-0.832833	-0.317011
C39	C	1.122907	-0.882246	-0.259803
C40	C	1.073192	-0.700502	-0.301656
C41	C	1.073345	-1.014682	-0.301676
C42	C	1.266926	-0.358024	-0.301622
C43	C	1.349472	-0.358046	-0.301610
C44	C	1.073279	-0.357926	-0.465072
C45	C	1.073304	-0.357907	-0.534713
C46	C	1.073331	-0.164267	-0.301673
C47	C	1.073378	-0.081721	-0.301683
C48	C	1.025845	-0.310390	-0.567429
C49	C	1.025842	-0.310376	-0.632864
C50	C	1.073312	-0.357871	-0.665582
C51	C	1.120775	-0.405398	-0.632858
C52	C	1.120771	-0.405415	-0.567424
C53	C	1.140225	-0.363723	-0.769253
C54	C	1.140231	-0.363700	-0.834686
C55	C	1.073325	-0.357821	-0.867402
C56	C	1.006411	-0.351950	-0.834678
C57	C	1.006407	-0.351968	-0.769244
C58	C	1.073322	-0.357858	-0.736534
C59	C	1.025859	-0.310287	-0.971071
C60	C	1.025855	-0.310278	-1.036507
C61	C	1.120794	-0.405296	-1.036500
C62	C	1.120791	-0.405308	-0.971064
C63	C	1.073324	-0.357800	-0.938354
C64	C	1.073205	-0.357965	-0.138861
C65	C	1.073324	-0.357775	-0.069220
H66	H	0.981598	-0.811265	-0.378827
H67	H	1.039705	-0.811383	-0.196103
N68	N	0.626899	-0.214313	-0.334452
H69	H	0.583727	-0.179958	-0.342273
H70	H	0.658104	-0.194218	-0.299135
H71	H	0.527407	-0.266212	-0.224535
H72	H	1.106698	-0.903902	-0.407186
N73	N	1.171987	-0.456547	-0.935768
H74	H	1.141784	-0.490961	-0.908613
H75	H	1.202053	-0.486587	-0.966458
N76	N	1.171980	-0.456619	-0.668143
H77	H	1.202046	-0.486725	-0.637486
H78	H	1.141733	-0.490971	-0.695288
H79	H	1.164895	-0.903767	-0.224389
H80	H	1.159421	-0.444109	-0.540787
N81	N	0.627092	-0.396271	-0.180459
H82	H	0.608360	-0.359289	-0.148769
H83	H	0.609156	-0.447484	-0.168914
N84	N	0.520165	-0.501585	-0.268996
H85	H	0.538116	-0.539063	-0.300593
H86	H	0.538922	-0.515533	-0.226106
N87	N	0.974656	-0.259055	-0.935789
H88	H	0.940224	-0.289233	-0.908632
H89	H	1.004906	-0.224660	-0.908686
H90	H	1.198243	-0.811065	-0.330009
N91	N	0.929652	-0.911167	-0.269126
H92	H	0.892180	-0.893229	-0.300745
H93	H	0.930425	-0.967112	-0.268847
H94	H	0.527185	-0.324669	-0.407212
H95	H	0.987191	-0.271707	-0.540800
H96	H	0.951924	-0.347188	-0.742602
H97	H	0.987197	-0.271678	-0.659507
N98	N	0.934238	-0.345649	-0.869954
H99	H	0.944389	-0.346546	-0.916372
H100	H	0.901040	-0.388606	-0.858490
H101	H	1.194715	-0.368477	-0.861325
N102	N	1.212391	-0.370077	-0.733968
H103	H	1.254779	-0.373790	-0.764626
H104	H	1.219317	-0.324841	-0.706823
N105	N	0.974658	-0.259026	-1.071791
H106	H	0.986228	-0.205971	-1.060414
H107	H	0.981879	-0.266287	-1.118197
N108	N	0.626981	-0.463231	-0.390290
H109	H	0.609004	-0.449499	-0.433467
H110	H	0.682927	-0.463134	-0.389635
N111	N	1.171989	-0.456531	-1.071778
H112	H	1.164790	-0.449312	-1.118195
H113	H	1.225036	-0.444991	-1.060347
