data_functionalizedCrystal
_audit_creation_method	'MofGen! by Chris Wilmer'
_symmetry_space_group_name_H-M	'P1'
_symmetry_Int_Tables_number	1
_symmetry_cell_setting	triclinic
loop_
_symmetry_equiv_pos_as_xyz
  x,y,z
_cell_length_a	7.088906
_cell_length_b	8.559649
_cell_length_c	8.559649
_cell_angle_alpha	110.221336
_cell_angle_beta	84.656454
_cell_angle_gamma	84.676309
loop_
_atom_site_label
_atom_site_type_symbol
_atom_site_fract_x
_atom_site_fract_y
_atom_site_fract_z
O1	O	-0.158989	-2.108184	-0.036317
O2	O	0.341011	-1.608184	0.463683
O3	O	-0.158989	-1.632699	0.047464
O4	O	0.341011	-1.132699	0.547464
O5	O	-0.158987	-1.912332	-0.232169
O6	O	0.341013	-1.412332	0.267831
O7	O	-0.158991	-1.828550	0.243316
O8	O	0.341009	-1.328550	0.743316
O9	O	0.158988	-1.949707	-0.269610
O10	O	0.658988	-1.449707	0.230390
O11	O	0.158986	-1.670074	0.010023
O12	O	0.658986	-1.170074	0.510023
O13	O	0.158986	-2.145558	-0.073758
O14	O	0.658986	-1.645558	0.426242
Cu15	Cu	0.188020	-1.911229	-0.035286
Cu16	Cu	0.688020	-1.411229	0.464714
Cu17	Cu	-0.188023	-1.867029	0.008992
Cu18	Cu	0.311977	-1.367029	0.508992
O19	O	0.158984	-1.865925	0.205875
O20	O	0.658984	-1.365925	0.705875
C21	C	-0.000002	-1.591077	0.035093
C22	C	0.499998	-1.091077	0.535093
C23	C	-0.000002	-1.411378	0.053992
C24	C	0.499998	-0.911378	0.553992
N25	N	0.452508	-1.942329	-0.066431
N26	N	0.952508	-1.442329	0.433569
N27	N	0.547489	-1.835929	0.040138
N28	N	1.047489	-1.335929	0.540138
C29	C	-0.000003	-1.937368	-0.311198
C30	C	0.499997	-1.437368	0.188802
C31	C	-0.000014	-1.956266	-0.490896
C32	C	0.499986	-1.456266	0.009104
C33	C	-0.000002	-1.187180	-0.061387
C34	C	0.499998	-0.687180	0.438613
C35	C	-0.000003	-1.366879	-0.080286
C36	C	0.499997	-0.866879	0.419714
C37	C	-0.000004	-1.840888	0.284905
C38	C	0.499996	-1.340888	0.784905
C39	C	-0.000006	-1.821989	0.464604
C40	C	0.499994	-1.321989	0.964604
H41	H	0.465842	-1.725661	0.150572
H42	H	0.965842	-1.225661	0.650572
H43	H	0.000002	-2.085696	-0.590286
H44	H	0.500002	-1.585696	-0.090286
H45	H	-0.000012	-1.466256	-0.209704
H46	H	0.499988	-0.966256	0.290296
O47	O	0.560647	-2.088411	-0.212726
O48	O	1.060647	-1.588411	0.287274
H49	H	0.716605	-2.085837	-0.210146
H50	H	1.216605	-1.585837	0.289854
H51	H	-0.000012	-1.311988	0.183421
H52	H	0.499988	-0.811988	0.683421
H53	H	-0.000000	-1.692570	-0.436018
H54	H	0.500000	-1.192570	0.063982
