data_functionalizedCrystal
_audit_creation_method	'MofGen! by Chris Wilmer'
_symmetry_space_group_name_H-M	'P1'
_symmetry_Int_Tables_number	1
_symmetry_cell_setting	triclinic
loop_
_symmetry_equiv_pos_as_xyz
  x,y,z
_cell_length_a	29.839134
_cell_length_b	29.839131
_cell_length_c	29.839125
_cell_angle_alpha	90.017709
_cell_angle_beta	90.024313
_cell_angle_gamma	90.034165
loop_
_atom_site_label
_atom_site_type_symbol
_atom_site_fract_x
_atom_site_fract_y
_atom_site_fract_z
Zn1	Zn	0.686720	-0.179003	0.254153
Zn2	Zn	0.686652	-0.254115	0.179023
Zn3	Zn	0.611602	-0.178991	0.179019
Zn4	Zn	0.611550	-0.254097	0.254108
O5	O	0.649131	-0.216552	0.216576
O6	O	0.749578	-0.188980	0.244207
O7	O	0.676690	-0.244152	0.116155
O8	O	0.621617	-0.116125	0.189003
O9	O	0.749528	-0.244164	0.189009
O10	O	0.676805	-0.116134	0.244204
O11	O	0.621551	-0.188958	0.116153
O12	O	0.548728	-0.188941	0.188960
O13	O	0.621528	-0.244134	0.316981
O14	O	0.548690	-0.244122	0.244127
O15	O	0.676755	-0.188962	0.317014
O16	O	0.676639	-0.316980	0.188966
O17	O	0.621462	-0.316967	0.244131
C18	C	0.532408	-0.216528	0.216539
C19	C	0.482474	-0.216529	0.216534
C20	C	0.125894	-0.187777	0.187909
C21	C	0.313567	-0.187764	0.187882
O22	O	0.337838	-0.163279	0.163502
N23	N	0.337029	-0.216536	0.216556
C24	C	0.313569	-0.245312	0.245242
O25	O	0.337831	-0.269781	0.269634
C26	C	0.125897	-0.245322	0.245271
C27	C	0.102438	-0.216551	0.216591
C28	C	0.102435	-0.159007	0.159232
C29	C	0.055520	-0.159013	0.159237
C30	C	0.032063	-0.187787	0.187920
C31	C	0.055522	-0.216556	0.216597
C32	C	0.102438	-0.274095	0.273958
C33	C	0.055517	-0.274094	0.273964
C34	C	0.032058	-0.245323	0.245284
C35	C	-0.014849	-0.245336	0.245284
N36	N	-0.038311	-0.216563	0.216610
C37	C	-0.014854	-0.187789	0.187927
C38	C	0.412100	-0.245305	0.245224
C39	C	0.459018	-0.245303	0.245216
C40	C	0.459013	-0.187755	0.187856
C41	C	0.412094	-0.187759	0.187862
C42	C	0.388638	-0.216533	0.216549
C43	C	-0.113380	-0.187802	0.187941
C44	C	-0.160300	-0.187811	0.187947
C45	C	-0.160291	-0.245358	0.245308
C46	C	-0.113375	-0.245351	0.245300
C47	C	-0.089921	-0.216569	0.216615
O48	O	-0.039149	-0.269804	0.269654
O49	O	-0.039124	-0.163316	0.163546
C50	C	0.172810	-0.187771	0.187904
C51	C	0.196269	-0.216541	0.216580
C52	C	0.172812	-0.245315	0.245263
C53	C	0.243187	-0.216539	0.216573
C54	C	0.266643	-0.187764	0.187890
C55	C	0.243182	-0.158992	0.159216
C56	C	0.196266	-0.158997	0.159221
C57	C	0.196274	-0.274087	0.273937
C58	C	0.243189	-0.274080	0.273929
C59	C	0.266646	-0.245306	0.245247
C60	C	0.649050	-0.333274	0.216554
C61	C	0.649056	-0.383209	0.216559
C62	C	0.677914	-0.692846	0.187894
C63	C	0.677969	-0.880519	0.187911
O64	O	0.702441	-0.904779	0.163521
N65	N	0.649224	-0.903994	0.216610
C66	C	0.620465	-0.880547	0.245308
O67	O	0.596020	-0.904820	0.269722
C68	C	0.620412	-0.692875	0.245293
C69	C	0.649156	-0.669403	0.216589
C70	C	0.706656	-0.669374	0.159192
C71	C	0.706640	-0.622459	0.159187
C72	C	0.677882	-0.599015	0.187882
C73	C	0.649140	-0.622487	0.216583
C74	C	0.591656	-0.669429	0.273993
C75	C	0.591646	-0.622508	0.273988
C76	C	0.620390	-0.599036	0.245284
C77	C	0.620367	-0.552128	0.245273
N78	N	0.649112	-0.528654	0.216574
C79	C	0.677869	-0.552097	0.187879
C80	C	0.620494	-0.979078	0.245314
C81	C	0.620507	-1.025995	0.245317
C82	C	0.678012	-1.025964	0.187920
C83	C	0.677996	-0.979046	0.187915
C84	C	0.649239	-0.955603	0.216615
C85	C	0.677834	-0.453572	0.187868
C86	C	0.677814	-0.406652	0.187864
C87	C	0.620311	-0.406687	0.245262
C88	C	0.620329	-0.453603	0.245265
C89	C	0.649094	-0.477044	0.216567
O90	O	0.595912	-0.527840	0.269653
O91	O	0.702318	-0.527817	0.163475
C92	C	0.677930	-0.739762	0.187899
C93	C	0.649188	-0.763234	0.216601
C94	C	0.620430	-0.739790	0.245296
C95	C	0.649200	-0.810152	0.216604
C96	C	0.677958	-0.833595	0.187909
C97	C	0.706703	-0.810120	0.159210
C98	C	0.706687	-0.763205	0.159204
C99	C	0.591685	-0.763265	0.273995
C100	C	0.591703	-0.810180	0.273998
C101	C	0.620461	-0.833624	0.245302
C102	C	0.766309	-0.216575	0.216613
C103	C	0.816244	-0.216586	0.216629
C104	C	0.649143	-0.216548	0.333754
C105	C	0.649148	-0.216546	0.383689
C106	C	0.649225	-0.099373	0.216608
C107	C	0.649265	-0.049439	0.216622
C108	C	0.649145	-0.216523	0.099853
C109	C	0.649227	-0.216398	0.049919
C110	C	0.677935	-0.187743	0.693352
C111	C	0.677957	-0.187705	0.881026
O112	O	0.702399	-0.163258	0.905307
N113	N	0.649208	-0.216426	0.904474
C114	C	0.620449	-0.245156	0.881001
O115	O	0.595993	-0.269581	0.905252
C116	C	0.620424	-0.245192	0.693329
C117	C	0.649179	-0.216472	0.669883
C118	C	0.706687	-0.159025	0.669906
C119	C	0.706683	-0.159037	0.622991
C120	C	0.677927	-0.187766	0.599521
C121	C	0.649175	-0.216484	0.622968
C122	C	0.591663	-0.273920	0.669857
C123	C	0.591659	-0.273925	0.622936
C124	C	0.620414	-0.245206	0.599490
C125	C	0.620415	-0.245225	0.552583
N126	N	0.649164	-0.216504	0.529134
C127	C	0.677920	-0.187774	0.552604
C128	C	0.620464	-0.245136	0.979532
C129	C	0.620471	-0.245128	1.026450
C130	C	0.677979	-0.187675	1.026471
C131	C	0.677974	-0.187686	0.979552
C132	C	0.649214	-0.216415	0.956084
C133	C	0.677910	-0.187801	0.454078
C134	C	0.677904	-0.187817	0.407158
C135	C	0.620395	-0.245267	0.407141
C136	C	0.620401	-0.245253	0.454057
C137	C	0.649161	-0.216517	0.477524
O138	O	0.595982	-0.269655	0.528272
O139	O	0.702366	-0.163346	0.528345
C140	C	0.677939	-0.187731	0.740268
C141	C	0.649187	-0.216449	0.763714
C142	C	0.620431	-0.245178	0.740245
C143	C	0.649194	-0.216441	0.810632
C144	C	0.677950	-0.187711	0.834101
C145	C	0.706699	-0.158990	0.810653
C146	C	0.706695	-0.159002	0.763737
C147	C	0.591682	-0.273899	0.763693
C148	C	0.591689	-0.273886	0.810609
C149	C	0.620445	-0.245156	0.834078
H150	H	-0.094274	-0.268782	0.268650
H151	H	0.392997	-0.164329	0.164510
N152	N	0.562332	-0.834153	0.303314
N153	N	0.520878	-0.828951	0.300288
H154	H	0.500137	-0.845881	0.320993
N155	N	0.591115	-0.955142	0.274636
N156	N	0.565454	-0.976112	0.300255
H157	H	0.544704	-0.959210	0.320963
H158	H	0.730104	-0.135628	0.689010
N159	N	0.707177	-0.382684	0.158537
N160	N	0.732851	-0.403624	0.132919
H161	H	0.753588	-0.386699	0.112207
H162	H	0.701427	-1.045060	0.164556
H163	H	0.597097	-1.045102	0.268687
H164	H	0.568274	-0.297277	0.829695
H165	H	0.121528	-0.135573	0.135875
H166	H	0.262286	-0.297513	0.297283
H167	H	-0.179397	-0.268787	0.268659
H168	H	0.730115	-0.135600	0.829770
N169	N	0.172325	-0.303482	0.303242
N170	N	0.193283	-0.329166	0.328841
H171	H	0.176371	-0.349930	0.349538
H172	H	0.701258	-0.472652	0.164500
N173	N	0.172314	-0.129606	0.129921
N174	N	0.193270	-0.103920	0.104316
H175	H	0.176357	-0.083160	0.083622
H176	H	0.568229	-0.603423	0.297360
H177	H	0.596925	-0.472715	0.268640
H178	H	0.596895	-0.387592	0.268624
N179	N	0.707353	-0.955073	0.158590
N180	N	0.704401	-0.960334	0.117133
H181	H	0.725135	-0.943405	0.096421
H182	H	0.597044	-0.268533	0.960428
H183	H	0.568248	-0.688532	0.297365
N184	N	0.562302	-0.303248	0.739731
N185	N	0.536637	-0.328887	0.760677
H186	H	0.515886	-0.349618	0.743756
N187	N	0.736058	-0.129698	0.599052
N188	N	0.761729	-0.104051	0.620020
H189	H	0.782477	-0.083328	0.603116
H190	H	0.701321	-0.164429	0.388070
N191	N	0.736005	-0.598493	0.129864
N192	N	0.761677	-0.619438	0.104248
H193	H	0.782419	-0.602516	0.083538
H194	H	0.701388	-0.164300	0.960465
H195	H	0.478119	-0.164326	0.164502
H196	H	0.262288	-0.135564	0.135860
N197	N	0.736039	-0.693309	0.129877
N198	N	0.761697	-0.672338	0.104257
H199	H	0.782449	-0.689238	0.083550
H200	H	0.730093	-0.744097	0.135831
N201	N	0.591095	-0.274467	1.050390
N202	N	0.549643	-0.271477	1.045132
H203	H	0.528894	-0.292197	1.062038
N204	N	-0.184255	-0.158420	0.158645
N205	N	-0.163303	-0.132731	0.133039
H206	H	-0.180219	-0.111974	0.112345
H207	H	-0.094290	-0.164363	0.164584
H208	H	0.478114	-0.268737	0.268565
H209	H	0.393007	-0.268738	0.268585
H210	H	0.568248	-0.297306	0.688939
N211	N	0.736073	-0.834079	0.129897
N212	N	0.736077	-0.875970	0.129910
H213	H	0.756819	-0.892893	0.109211
H214	H	0.701327	-0.164400	0.473179
N215	N	0.031568	-0.129621	0.129939
N216	N	0.052524	-0.103933	0.104334
H217	H	0.035611	-0.083173	0.083640
N218	N	0.562307	-0.739329	0.303313
N219	N	0.536647	-0.760299	0.328933
H220	H	0.515895	-0.743396	0.349640
H221	H	0.701393	-0.164283	1.045587
H222	H	0.568233	-0.297315	0.603831
H223	H	0.596991	-0.268643	0.473148
N224	N	0.126386	-0.303488	0.303256
N225	N	0.105428	-0.329172	0.328863
H226	H	0.122341	-0.349932	0.349558
N227	N	0.736065	-0.129669	0.739784
N228	N	0.764679	-0.145482	0.713610
H229	H	0.785422	-0.124764	0.696695
H230	H	0.596984	-0.268659	0.388024
N231	N	0.031566	-0.303488	0.303273
N232	N	0.052521	-0.329171	0.328875
H233	H	0.035606	-0.349930	0.349574
