data_functionalizedCrystal
_audit_creation_method	'MofGen! by Chris Wilmer'
_symmetry_space_group_name_H-M	'P1'
_symmetry_Int_Tables_number	1
_symmetry_cell_setting	triclinic
loop_
_symmetry_equiv_pos_as_xyz
  x,y,z
_cell_length_a	9.065215
_cell_length_b	15.944564
_cell_length_c	7.540329
_cell_angle_alpha	90.004771
_cell_angle_beta	89.997574
_cell_angle_gamma	95.740684
loop_
_atom_site_label
_atom_site_type_symbol
_atom_site_fract_x
_atom_site_fract_y
_atom_site_fract_z
O1	O	1.957532	-0.123148	-0.147467
O2	O	1.528011	-0.133253	-0.147476
O3	O	1.754491	-0.006015	-0.147454
O4	O	1.731052	-0.250386	-0.147489
O5	O	1.754478	-0.006014	0.147511
O6	O	1.527998	-0.133251	0.147489
O7	O	1.957519	-0.123147	0.147498
Cu8	Cu	1.742757	-0.128199	0.174426
Cu9	Cu	1.742773	-0.128201	-0.174404
O10	O	1.731039	-0.250385	0.147476
C11	C	1.473041	-0.132282	0.000006
C12	C	1.309265	-0.129380	0.000003
C13	C	1.753508	0.025287	0.000029
C14	C	1.750581	0.118554	0.000030
C15	C	1.603196	0.334525	0.000005
C16	C	1.671617	0.395025	0.145442
C17	C	1.745286	0.289319	0.000018
C18	C	1.671664	0.395007	-0.145370
C19	C	1.740160	0.454270	-0.000002
C20	C	1.813746	0.348590	0.145576
C21	C	1.813773	0.348566	-0.145368
C22	C	1.882297	0.409047	0.000105
C23	C	1.748234	0.194295	0.000031
C24	C	1.737222	0.549292	-0.000002
C25	C	2.012490	-0.124118	0.000012
C26	C	2.176265	-0.127020	0.000003
C27	C	1.732002	0.718312	-0.000009
C28	C	1.734869	0.625041	-0.000016
N29	N	1.742757	-0.128197	0.419774
N30	N	1.742785	-0.128196	-0.419753
H31	H	1.611513	0.415589	0.268395
H32	H	2.000336	0.441312	0.000190
H33	H	1.873788	0.328146	0.268666
H34	H	1.873825	0.327980	-0.268327
C35	C	1.542026	0.351773	-0.412946
C36	C	1.590525	0.422737	-0.311360
H37	H	1.491937	0.368892	-0.515420
H38	H	1.476300	0.314616	-0.344450
H39	H	1.624959	0.323692	-0.447888
H40	H	1.507590	0.450814	-0.276407
H41	H	1.656254	0.459907	-0.379869
C42	C	1.369935	0.314060	0.152681
C43	C	1.443995	0.290758	0.000190
H44	H	1.271659	0.287034	0.152803
H45	H	1.366986	0.373437	0.153723
H46	H	1.420925	0.297497	0.254938
H47	H	1.393011	0.307326	-0.102067
H48	H	1.446937	0.231368	-0.000869
