data_functionalizedCrystal
_audit_creation_method	'MofGen! by Chris Wilmer'
_symmetry_space_group_name_H-M	'P1'
_symmetry_Int_Tables_number	1
_symmetry_cell_setting	triclinic
loop_
_symmetry_equiv_pos_as_xyz
  x,y,z
_cell_length_a	16.793024
_cell_length_b	16.793047
_cell_length_c	33.586455
_cell_angle_alpha	113.253857
_cell_angle_beta	66.219990
_cell_angle_gamma	112.758327
loop_
_atom_site_label
_atom_site_type_symbol
_atom_site_fract_x
_atom_site_fract_y
_atom_site_fract_z
O1	O	0.005016	-0.570216	-0.583573
O2	O	-0.034529	-0.474528	-0.453458
O3	O	0.114723	-0.474535	-0.528082
O4	O	-0.144235	-0.570209	-0.508949
O5	O	0.108729	-0.346329	-0.530229
O6	O	-0.040523	-0.346322	-0.455605
O7	O	-0.000977	-0.442010	-0.585721
Cu8	Cu	-0.021297	-0.382459	-0.520859
Cu9	Cu	-0.014209	-0.534079	-0.518320
O10	O	-0.150229	-0.442003	-0.511097
C11	C	0.005100	-0.790970	-0.238461
C12	C	0.009223	-0.693065	-0.217557
C13	C	0.003804	-0.645758	-0.241627
C14	C	-0.075059	-0.538459	-0.266316
C15	C	0.049838	-0.422849	-0.250165
C16	C	-0.040584	-0.395375	-0.435637
C17	C	-0.044693	-0.353446	-0.386631
C18	C	-0.039275	-0.401741	-0.363054
C19	C	-0.040566	-0.125547	-0.300731
C20	C	-0.044689	-0.223451	-0.321635
C21	C	-0.039266	-0.270752	-0.297563
C22	C	0.039597	-0.378051	-0.272874
C23	C	-0.085304	-0.493667	-0.289026
C24	C	0.005118	-0.521142	-0.103554
C25	C	0.009231	-0.563064	-0.152559
C26	C	0.003809	-0.514775	-0.176138
C27	C	0.010758	-0.652581	-0.172822
C28	C	0.001010	-0.556371	-0.220792
C29	C	-0.008251	-0.506059	-0.245823
C30	C	-0.046224	-0.263935	-0.366370
C31	C	-0.036476	-0.360146	-0.318399
C32	C	-0.027211	-0.410451	-0.293367
C33	C	0.815184	-0.521162	-0.508596
C34	C	0.717729	-0.563083	-0.506815
C35	C	0.669923	-0.514793	-0.509201
C36	C	0.564072	-0.463272	-0.548285
C37	C	0.445555	-0.498966	-0.486078
C38	C	0.415541	-0.125553	-0.528781
C39	C	0.375032	-0.223457	-0.531493
C40	C	0.423813	-0.270761	-0.529101
C41	C	0.149318	-0.395376	-0.530584
C42	C	0.246774	-0.353455	-0.532364
C43	C	0.294574	-0.401748	-0.529976
C44	C	0.400424	-0.453269	-0.490892
C45	C	0.518948	-0.417572	-0.553101
C46	C	0.548961	-0.790984	-0.510398
C47	C	0.589464	-0.693083	-0.507684
C48	C	0.540690	-0.645776	-0.510078
C49	C	0.678399	-0.652598	-0.506649
C50	C	0.581167	-0.556389	-0.510877
C51	C	0.530434	-0.506073	-0.515170
C52	C	0.286104	-0.263940	-0.532530
C53	C	0.383336	-0.360149	-0.528302
C54	C	0.434062	-0.410467	-0.524008
C55	C	-0.040530	-0.395407	-0.935652
C56	C	-0.044651	-0.353482	-0.886645
C57	C	-0.039242	-0.401770	-0.863061
C58	C	0.039602	-0.453292	-0.810474
C59	C	-0.085288	-0.417587	-0.750981
C60	C	0.005063	-0.791004	-0.738448
C61	C	0.009186	-0.693099	-0.717543
C62	C	0.003779	-0.645796	-0.741620
C63	C	0.005077	-0.521171	-0.603544
C64	C	0.009198	-0.563096	-0.652550
C65	C	0.003786	-0.514804	-0.676131
C66	C	-0.075058	-0.463283	-0.728717
C67	C	0.049835	-0.498991	-0.788214
C68	C	-0.040516	-0.125574	-0.800747
C69	C	-0.044642	-0.223476	-0.821649
C70	C	-0.039232	-0.270782	-0.797575
C71	C	-0.046172	-0.263965	-0.866386
C72	C	-0.036447	-0.360171	-0.818406
C73	C	-0.027197	-0.410486	-0.793373
C74	C	0.010719	-0.652613	-0.672809
C75	C	0.000994	-0.556406	-0.720789
C76	C	-0.008259	-0.506089	-0.745819
O77	O	-0.000965	0.173549	-0.277957
O78	O	-0.040516	-0.085616	-0.325254
O79	O	0.108737	0.059592	-0.327284
O80	O	-0.150219	0.028341	-0.275927
O81	O	0.114753	0.055151	-0.263265
O82	O	-0.034500	-0.090057	-0.261234
O83	O	0.005051	0.169108	-0.213937
Cu84	Cu	-0.014175	0.039120	-0.231740
Cu85	Cu	-0.021290	0.044372	-0.307451
O86	O	-0.144202	0.023900	-0.211907
O87	O	-0.034458	-0.474571	0.046517
O88	O	0.005076	-0.570190	-0.083599
O89	O	-0.144170	-0.570237	-0.008972
O90	O	0.114787	-0.474523	-0.028110
O91	O	-0.150200	-0.442024	-0.011093
O92	O	-0.000954	-0.441976	-0.085720
O93	O	-0.040488	-0.346357	0.044396
Cu94	Cu	-0.021272	-0.382460	-0.020856
Cu95	Cu	-0.014141	-0.534087	-0.018347
O96	O	0.108757	-0.346309	-0.030231
C97	C	-0.850734	0.086244	-0.289716
C98	C	-0.753280	0.087165	-0.312001
C99	C	-0.705462	0.081107	-0.288506
C100	C	-0.599592	0.000085	-0.264184
C101	C	-0.481080	0.121287	-0.283645
C102	C	-0.450996	0.035117	-0.097351
C103	C	-0.410501	0.028587	-0.146852
C104	C	-0.459292	0.034683	-0.169840
C105	C	-0.184802	0.024283	-0.235878
C106	C	-0.282257	0.023363	-0.213592
C107	C	-0.330068	0.029423	-0.237088
C108	C	-0.435938	0.110445	-0.261411
C109	C	-0.554456	-0.010759	-0.241948
C110	C	-0.584541	0.075410	-0.428242
C111	C	-0.625029	0.081943	-0.378743
C112	C	-0.576244	0.075844	-0.355753
C113	C	-0.713963	0.086424	-0.357292
C114	C	-0.616708	0.075351	-0.310510
C115	C	-0.565963	0.065400	-0.286043
C116	C	-0.321573	0.024104	-0.168302
C117	C	-0.418828	0.035176	-0.215083
C118	C	-0.469568	0.045131	-0.239552
O119	O	0.585213	0.169090	-0.504004
O120	O	0.494056	-0.090076	-0.525516
O121	O	0.488081	0.055124	-0.449918
O122	O	0.591189	0.023889	-0.579602
O123	O	0.359978	0.059584	-0.452885
O124	O	0.365953	-0.085616	-0.528483
O125	O	0.457110	0.173550	-0.506971
Cu126	Cu	0.399835	0.044374	-0.517998
Cu127	Cu	0.551332	0.039099	-0.514489
O128	O	0.463086	0.028349	-0.582569
C129	C	0.815354	-0.521094	-0.008709
C130	C	0.717898	-0.563028	-0.006927
C131	C	0.670072	-0.514739	-0.009298
C132	C	0.564182	-0.463204	-0.048354
C133	C	0.445681	-0.498945	0.013847
C134	C	0.415547	-0.125494	-0.028771
C135	C	0.375059	-0.223405	-0.031498
C136	C	0.423859	-0.270708	-0.029121
C137	C	0.149365	-0.395355	-0.030599
C138	C	0.246820	-0.353421	-0.032381
C139	C	0.294640	-0.401713	-0.030008
C140	C	0.400530	-0.453248	0.009048
C141	C	0.519038	-0.417504	-0.053155
C142	C	0.549171	-0.790955	-0.010537
C143	C	0.589653	-0.693047	-0.007809
C144	C	0.540859	-0.645741	-0.010187
C145	C	0.678588	-0.652551	-0.006775
C146	C	0.581317	-0.556344	-0.010973
C147	C	0.530562	-0.506029	-0.015250
C148	C	0.286131	-0.263897	-0.032533
C149	C	0.383402	-0.360104	-0.028335
C150	C	0.434150	-0.410423	-0.024057
O151	O	-0.620614	0.089309	0.052274
O152	O	-0.529507	0.043784	-0.078544
O153	O	-0.523494	0.194833	-0.006033
O154	O	-0.626628	-0.061740	-0.020236
O155	O	-0.395386	0.185419	-0.005549
O156	O	-0.401400	0.034370	-0.078059
O157	O	-0.492507	0.079895	0.052758
Cu158	Cu	-0.435256	0.056273	-0.012607
Cu159	Cu	-0.586758	0.067406	-0.013179
O160	O	-0.498521	-0.071154	-0.019752
C161	C	-0.437537	0.048335	0.402491
C162	C	-0.397043	0.041789	0.352989
C163	C	-0.445822	0.047883	0.329994
C164	C	-0.496646	0.126653	0.277022
C165	C	-0.465894	-0.000633	0.218811
C166	C	-0.837226	0.099430	0.210091
C167	C	-0.739773	0.100339	0.187806
C168	C	-0.691967	0.094287	0.211308
C169	C	-0.571027	0.088563	0.071568
C170	C	-0.611521	0.095108	0.121070
C171	C	-0.562739	0.089011	0.144061
C172	C	-0.511915	0.010241	0.197033
C173	C	-0.542670	0.137531	0.255247
C174	C	-0.171338	0.037467	0.263967
C175	C	-0.268788	0.036555	0.286249
C176	C	-0.316597	0.042611	0.262750
C177	C	-0.308112	0.037305	0.331542
C178	C	-0.405351	0.048369	0.284750
C179	C	-0.456092	0.058317	0.260279
C180	C	-0.700452	0.099593	0.142516
C181	C	-0.603213	0.088528	0.189308
C182	C	-0.552469	0.078578	0.213776
O183	O	-0.040608	-1.085661	-0.825229
O184	O	-0.001018	-0.826491	-0.777938
O185	O	-0.150287	-0.971682	-0.775894
O186	O	0.108661	-0.940470	-0.827272
O187	O	-0.144253	-0.976123	-0.711878
O188	O	0.005016	-0.830932	-0.713922
O189	O	-0.034575	-1.090102	-0.761213
Cu190	Cu	-0.014228	-0.960923	-0.731722
Cu191	Cu	-0.021364	-0.955670	-0.807428
O192	O	0.114695	-0.944911	-0.763256
C193	C	-0.036361	-0.225035	-0.248202
H194	H	-0.032687	-0.266607	-0.236773
H195	H	-0.089641	-0.205912	-0.230148
H196	H	0.015049	-0.174386	-0.247235
C197	C	-0.267019	0.019804	-0.142089
H198	H	-0.207992	0.016916	-0.161598
H199	H	-0.296437	-0.032220	-0.131534
H200	H	-0.262957	0.072080	-0.116965
C201	C	0.000910	-0.415974	-0.153242
H202	H	-0.002773	-0.393018	-0.173976
H203	H	0.054194	-0.381306	-0.144405
H204	H	-0.050496	-0.412647	-0.127219
C205	C	0.305941	-0.447306	0.041846
H206	H	0.283789	-0.413206	0.033912
H207	H	0.309598	-0.418854	0.071986
H208	H	0.266072	-0.506201	0.039866
C209	C	0.732950	-0.706533	-0.505261
H210	H	0.696313	-0.766088	-0.505273
H211	H	0.751469	-0.678304	-0.478533
H212	H	0.784722	-0.708499	-0.531137
H213	H	0.261638	-0.474883	-0.529387
H214	H	0.001639	-0.441666	-0.659178
C215	C	0.231566	-0.210026	-0.533947
H216	H	0.268167	-0.150441	-0.533885
H217	H	0.179708	-0.208156	-0.508117
H218	H	0.213190	-0.238215	-0.560719
H219	H	-0.738384	0.080845	-0.251490
C220	C	0.658662	-0.469252	-0.581078
H221	H	0.680789	-0.503359	-0.573134
H222	H	0.698543	-0.410371	-0.579112
H223	H	0.655003	-0.497732	-0.611220
C224	C	0.714533	-0.415928	-0.010074
H225	H	0.672741	-0.392963	-0.011742
H226	H	0.766528	-0.412578	-0.035752
H227	H	0.731746	-0.381277	0.016802
H228	H	0.496488	-0.236853	-0.027824
H229	H	-0.586315	-0.066836	-0.224702
H230	H	0.550810	-0.383955	-0.581575
H231	H	-0.123560	-0.607102	-0.263443
C232	C	0.105104	-0.285319	-0.276747
H233	H	0.088757	-0.263195	-0.293573
H234	H	0.165005	-0.290977	-0.291793
H235	H	0.101951	-0.244567	-0.247261
C236	C	-0.557408	0.040839	-0.145650
H237	H	-0.574331	0.039635	-0.115233
H238	H	-0.596499	-0.008742	-0.161041
H239	H	-0.561918	0.095433	-0.145745
C240	C	0.733160	-0.706484	-0.005403
H241	H	0.696536	-0.766046	-0.005424
H242	H	0.751683	-0.678267	0.021324
H243	H	0.784932	-0.708432	-0.031281
H244	H	0.496441	-0.236915	-0.527803
C245	C	-0.140572	-0.469245	-0.681465
H246	H	-0.183852	-0.437600	-0.672876
H247	H	-0.107621	-0.443234	-0.660008
H248	H	-0.170677	-0.530588	-0.682363
H249	H	0.634201	-0.467612	-0.072637
C250	C	0.562055	-0.372059	-0.091607
H251	H	0.619800	-0.382341	-0.108764
H252	H	0.568507	-0.309150	-0.078982
H253	H	0.524399	-0.396663	-0.110802
H254	H	0.468064	-0.679625	-0.511379
C255	C	0.014261	-0.706522	-0.645895
H256	H	0.015049	-0.669105	-0.616131
H257	H	0.067353	-0.726834	-0.660740
H258	H	-0.037452	-0.756881	-0.644203
H259	H	-0.142686	-0.383972	-0.734830
C260	C	-0.478132	0.069677	-0.379944
H261	H	-0.454712	0.065925	-0.359477
H262	H	-0.442282	0.121729	-0.389992
H263	H	-0.476879	0.017555	-0.405284
C264	C	0.250183	-0.500527	-0.029237
H265	H	0.190111	-0.518206	-0.030594
H266	H	0.249113	-0.506526	-0.002048
H267	H	0.283896	-0.537815	-0.054602
C268	C	-0.341290	0.173383	-0.259774
H269	H	-0.319127	0.156874	-0.243045
H270	H	-0.344830	0.233802	-0.245510
H271	H	-0.301495	0.168264	-0.289780
C272	C	-0.464629	0.082837	0.119872
H273	H	-0.447700	0.084041	0.089454
H274	H	-0.460123	0.028252	0.119975
H275	H	-0.425531	0.132427	0.135260
C276	C	-0.694184	-0.062942	-0.265887
H277	H	-0.716319	-0.046461	-0.282639
H278	H	-0.734059	-0.057926	-0.235905
H279	H	-0.690524	-0.123325	-0.280175
H280	H	0.330406	-0.448859	-0.466617
C281	C	0.714408	-0.415991	-0.509990
H282	H	0.774481	-0.398327	-0.508637
H283	H	0.680708	-0.378681	-0.484636
H284	H	0.715493	-0.410014	-0.537190
C285	C	-0.036335	-0.225060	-0.748213
H286	H	-0.038817	-0.164688	-0.739345
H287	H	0.018136	-0.225376	-0.745961
H288	H	-0.086554	-0.256905	-0.728879
H289	H	0.413699	-0.532573	-0.457601
H290	H	0.245737	-0.223998	-0.033572
H291	H	-0.518563	-0.039000	0.162804
H292	H	-0.449229	0.177371	-0.300885
H293	H	-0.724884	0.094041	0.248327
H294	H	-0.574318	0.196197	0.271049
H295	H	-0.048809	-0.224052	-0.886301
H296	H	-0.434254	-0.059305	0.203012
C297	C	-0.285605	0.029791	-0.287092
H298	H	-0.327391	0.034285	-0.298003
H299	H	-0.268389	-0.024419	-0.304657
H300	H	-0.233609	0.079748	-0.289465
C301	C	-0.036353	-0.500575	-0.885959
H302	H	-0.038822	-0.518241	-0.916114
H303	H	-0.086567	-0.537880	-0.869357
H304	H	0.018123	-0.506555	-0.886540
H305	H	0.001632	-0.679646	-0.778160
C306	C	-0.768508	0.090726	-0.383508
H307	H	-0.731874	0.089720	-0.413781
H308	H	-0.786998	0.144700	-0.369131
H309	H	-0.820299	0.040393	-0.383795
C310	C	0.105111	-0.447316	-0.857728
H311	H	0.088774	-0.413209	-0.868566
H312	H	0.101963	-0.506198	-0.878061
H313	H	0.165015	-0.418839	-0.855708
C314	C	0.127378	-0.381310	-0.228511
H315	H	0.161541	-0.324627	-0.234118
H316	H	0.165437	-0.420323	-0.241329
H317	H	0.102987	-0.373341	-0.196723
H318	H	0.413839	-0.532573	0.042316
H319	H	0.468233	-0.679598	-0.011487
H320	H	0.107227	-0.532615	-0.804368
C321	C	-0.272111	0.043014	0.212752
H322	H	-0.212039	0.038676	0.203103
H323	H	-0.271038	0.097389	0.209764
H324	H	-0.305802	-0.006777	0.194543
C325	C	-0.253567	0.033003	0.357759
H326	H	-0.194541	0.030108	0.338251
H327	H	-0.282993	-0.019019	0.368316
H328	H	-0.249502	0.085280	0.382881
C329	C	-0.543932	0.054056	0.354186
H330	H	-0.560852	0.052864	0.384605
H331	H	-0.583032	0.004475	0.338799
H332	H	-0.548435	0.108649	0.354086
C333	C	-0.487639	0.193172	0.323262
H334	H	-0.453678	0.176212	0.333862
H335	H	-0.546057	0.192163	0.344432
H336	H	-0.457609	0.252181	0.320017
C337	C	-0.754991	0.103887	0.116294
H338	H	-0.718355	0.102874	0.086021
H339	H	-0.773479	0.157862	0.130667
H340	H	-0.806783	0.053556	0.116010
H341	H	0.013390	-0.692483	-0.152899
H342	H	0.001650	-0.679613	-0.278166
H343	H	-0.142704	-0.524425	-0.305055
C344	C	-0.036379	-0.500544	-0.385949
H345	H	-0.032712	-0.523503	-0.365211
H346	H	0.015018	-0.503878	-0.411971
H347	H	-0.089671	-0.535210	-0.394782
C348	C	-0.049764	-0.210013	-0.393278
H349	H	-0.050544	-0.150461	-0.374562
H350	H	-0.102857	-0.238261	-0.402715
H351	H	0.001949	-0.208036	-0.419158
