data_functionalizedCrystal
_audit_creation_method	'MofGen! by Chris Wilmer'
_symmetry_space_group_name_H-M	'P1'
_symmetry_Int_Tables_number	1
_symmetry_cell_setting	triclinic
loop_
_symmetry_equiv_pos_as_xyz
  x,y,z
_cell_length_a	20.875621
_cell_length_b	20.875641
_cell_length_c	14.560438
_cell_angle_alpha	62.431772
_cell_angle_beta	87.028020
_cell_angle_gamma	55.988987
loop_
_atom_site_label
_atom_site_type_symbol
_atom_site_fract_x
_atom_site_fract_y
_atom_site_fract_z
Zr1	Zr	0.592012	0.702273	-0.127852
O2	O	0.484649	0.836123	-0.259530
O3	O	0.628351	0.568423	-0.092588
O4	O	0.623410	0.702275	-0.276834
O5	O	0.489591	0.702270	0.075857
O6	O	0.728969	0.702275	-0.284680
O7	O	0.489590	0.702272	-0.075284
O8	O	0.737808	0.462839	0.044903
O9	O	0.480752	0.941706	-0.253727
O10	O	0.718487	0.623478	-0.077239
O11	O	0.639710	0.623476	0.041411
O12	O	0.633892	0.781069	-0.175516
O13	O	0.555115	0.781067	-0.056866
Zr14	Zr	0.760367	0.702271	0.100686
Zr15	Zr	0.760367	0.702274	-0.140366
Zr16	Zr	0.592013	0.702270	0.113200
Zr17	Zr	0.585796	0.870665	-0.118596
Zr18	Zr	0.766584	0.533879	0.091430
O19	O	0.724029	0.836120	0.065422
O20	O	0.724028	0.836124	-0.277323
O21	O	0.484650	0.836119	0.083214
O22	O	0.867731	0.568420	0.232365
O23	O	0.867730	0.568424	-0.110380
O24	O	0.628352	0.568419	0.250157
O25	O	0.862789	0.702273	-0.103023
O26	O	0.728970	0.702269	0.249669
O27	O	0.623411	0.702268	0.257515
O28	O	0.862789	0.702272	0.048118
O29	O	0.614571	0.941706	-0.263673
O30	O	0.737808	0.462837	0.236507
O31	O	0.871628	0.462838	0.226561
O32	O	0.871628	0.462840	0.034957
O33	O	0.480752	0.941703	-0.062122
O34	O	0.614571	0.941704	-0.072069
O35	O	0.718488	0.623475	0.148350
O36	O	0.797265	0.623477	0.029700
O37	O	0.712670	0.781068	-0.068577
O38	O	0.633892	0.781066	0.050073
C39	C	0.683965	0.491639	-0.025161
C40	C	0.686604	0.420152	-0.029091
C41	C	0.646708	0.386581	0.030975
C42	C	0.649152	0.319449	0.027230
C43	C	0.691496	0.285885	-0.036576
C44	C	0.731393	0.319463	-0.096649
C45	C	0.728945	0.386598	-0.092910
C46	C	0.703224	0.085104	-0.054408
C47	C	0.705672	0.017962	-0.058141
C48	C	0.623428	0.017954	0.065737
C49	C	0.620987	0.085087	0.069477
C50	C	0.660881	0.118662	0.009399
N51	N	0.693997	0.217264	-0.040403
N52	N	0.658375	0.187287	0.013221
C53	C	0.465604	0.702271	0.002069
C54	C	0.394132	0.702270	0.007382
C55	C	0.360555	0.702274	-0.073389
C56	C	0.293402	0.702269	-0.068393
C57	C	0.259826	0.702267	0.017372
C58	C	0.293410	0.702261	0.098150
C59	C	0.360564	0.702259	0.093157
C60	C	0.058986	0.702265	0.041238
C61	C	-0.008175	0.702270	0.046224
C62	C	-0.008177	0.702276	-0.120319
C63	C	0.058976	0.702280	-0.125308
C64	C	0.092557	0.702269	-0.044527
N65	N	0.191184	0.702265	0.022479
N66	N	0.161201	0.702265	-0.049631
C67	C	0.886776	0.702273	-0.029235
C68	C	0.958247	0.702273	-0.034547
C69	C	0.676190	0.702275	-0.315102
C70	C	0.676189	0.702277	-0.417435
C71	C	0.668414	0.912904	-0.002005
C72	C	0.665775	0.984391	0.001925
C73	C	0.632028	0.784536	-0.516811
C74	C	0.632031	0.784532	-0.612960
C75	C	0.720357	0.620001	-0.510345
C76	C	0.720358	0.620006	-0.414198
C77	C	0.581031	0.879526	-0.576055
C78	C	0.581034	0.879522	-0.672204
C79	C	0.676190	0.702268	0.287936
C80	C	0.676190	0.702267	0.390269
C81	C	0.894552	0.491640	-0.040814
C82	C	0.968662	0.420154	-0.050055
C83	C	0.683966	0.491636	0.276358
C84	C	0.686605	0.420148	0.374761
C85	C	0.894552	0.491637	0.260706
C86	C	0.968662	0.420149	0.353797
C87	C	0.457828	0.912907	-0.287872
C88	C	0.383718	0.984395	-0.380963
C89	C	0.457828	0.912903	0.013648
C90	C	0.383718	0.984390	0.022890
C91	C	0.668414	0.912908	-0.303524
C92	C	0.665775	0.984396	-0.401927
C93	C	0.962343	0.386583	-0.110227
C94	C	1.031971	0.319424	-0.118932
C95	C	1.107916	0.285831	-0.067459
C96	C	1.114233	0.319408	-0.007285
C97	C	1.044606	0.386571	0.001413
C98	C	0.728965	0.386576	0.476804
C99	C	0.731442	0.319414	0.569274
C100	C	0.691562	0.285822	0.559699
C101	C	0.649196	0.319400	0.457646
C102	C	0.646715	0.386565	0.365179
C103	C	1.044593	0.386578	0.335579
C104	C	1.114234	0.319418	0.423038
C105	C	1.107941	0.285824	0.528715
C106	C	1.032002	0.319401	0.546932
C107	C	0.962363	0.386565	0.459473
C108	C	0.307786	1.017973	-0.362744
C109	C	0.238145	1.085155	-0.450203
C110	C	0.244437	1.118752	-0.555879
C111	C	0.320376	1.085171	-0.574096
C112	C	0.390016	1.017995	-0.486638
C113	C	0.390036	1.017967	0.083051
C114	C	0.320408	1.085145	0.091731
C115	C	0.244463	1.118741	0.040255
C116	C	0.238146	1.085161	-0.019915
C117	C	0.307773	1.017988	-0.028600
C118	C	0.705664	1.017967	-0.392318
C119	C	0.703200	1.085129	-0.484770
C120	C	0.660842	1.118722	-0.586831
C121	C	0.620952	1.085145	-0.596439
C122	C	0.623421	1.017980	-0.503987
H123	H	0.616664	0.292118	0.076143
H124	H	0.761441	0.413919	0.484621
H125	H	1.176060	0.292086	0.408187
H126	H	0.756328	0.553023	-0.333286
F127	F	0.658219	1.190208	-0.685217
F128	F	0.580956	0.982264	-0.514230
H129	H	0.519146	0.909003	-0.561188
F130	F	0.776455	0.283745	-0.164564
F131	F	0.327060	1.120935	-0.686573
H132	H	-0.035523	0.702283	-0.186087
H133	H	-0.035510	0.702269	0.116067
H134	H	0.187726	1.173451	-0.627083
H135	H	0.586512	0.112404	0.121443
H136	H	1.164652	0.231134	0.599920
H137	H	1.026812	0.292093	-0.167931
H138	H	0.693588	0.231132	0.635001
H139	H	1.176077	0.292047	0.034621
H140	H	0.451841	0.990656	-0.501485
F141	F	1.182013	0.214348	-0.076725
H142	H	0.590948	-0.009389	0.114647
F143	F	1.025318	0.283638	0.659409
H144	H	0.611277	0.908997	-0.723836
F145	F	0.750758	-0.017773	-0.126036
F146	F	0.745682	0.120829	-0.118349
H147	H	0.451868	0.990619	0.124978
H148	H	0.616727	0.292039	0.449866
F149	F	0.575868	1.120913	-0.705067
F150	F	0.881554	0.422282	0.478879
F151	F	0.767361	0.532449	-0.506911
H152	H	0.761431	0.413933	-0.141823
H153	H	0.187774	1.173437	0.047335
F154	F	0.396280	0.702282	-0.164677
H155	H	1.049762	0.413895	0.050417
F156	F	0.601643	0.422293	0.098893
F157	F	1.051308	0.422323	0.223117
H158	H	0.765943	0.292083	0.652361
F159	F	0.601631	0.422284	0.256579
H160	H	0.606096	0.916003	-0.576036
F161	F	0.301071	0.982227	-0.250282
F162	F	0.157333	1.120880	-0.430793
H163	H	0.325567	1.112475	0.140730
F164	F	0.157313	1.120922	-0.074692
F165	F	0.301037	0.982255	-0.092628
F166	F	0.497090	0.927186	-0.731702
H167	H	0.740156	0.990625	-0.309223
F168	F	0.745654	1.120857	-0.474522
H169	H	0.266064	0.702271	-0.134162
H170	H	0.086313	0.702281	-0.195145
H171	H	0.086321	0.702259	0.107012
F172	F	0.881523	0.422326	-0.165021
H173	H	0.387904	0.702255	0.158930
F174	F	0.257678	0.702252	0.189433
