data_functionalizedCrystal
_audit_creation_method	'MofGen! by Chris Wilmer'
_symmetry_space_group_name_H-M	'P1'
_symmetry_Int_Tables_number	1
_symmetry_cell_setting	triclinic
loop_
_symmetry_equiv_pos_as_xyz
  x,y,z
_cell_length_a	10.654553
_cell_length_b	19.188924
_cell_length_c	9.730223
_cell_angle_alpha	89.996615
_cell_angle_beta	89.999314
_cell_angle_gamma	83.814071
loop_
_atom_site_label
_atom_site_type_symbol
_atom_site_fract_x
_atom_site_fract_y
_atom_site_fract_z
O1	O	1.665752	0.098069	-0.114312
O2	O	1.300076	0.107410	-0.114312
O3	O	1.493471	0.001153	-0.114296
O4	O	1.472357	0.204327	-0.114329
O5	O	1.493469	0.001155	0.114284
O6	O	1.300074	0.107413	0.114268
O7	O	1.665750	0.098072	0.114268
Zn8	Zn	1.482912	0.102743	0.150560
Zn9	Zn	1.482915	0.102739	-0.150604
O10	O	1.472355	0.204329	0.114251
C11	C	1.253292	0.106725	-0.000022
C12	C	1.113892	0.104672	-0.000022
C13	C	0.917412	0.101775	0.124568
C14	C	1.048392	0.103708	0.124576
C15	C	1.048404	0.103709	-0.124635
C16	C	0.917426	0.101781	-0.124641
C17	C	0.917407	0.101771	0.268448
C18	C	1.048387	0.103704	0.268456
C19	C	1.492788	-0.024861	-0.000005
C20	C	1.490740	-0.102380	-0.000001
C21	C	1.489785	-0.138786	-0.124600
C22	C	1.487843	-0.211622	-0.124611
C23	C	1.486880	-0.248049	-0.000015
C24	C	1.487828	-0.211633	0.124601
C25	C	1.489758	-0.138799	0.124608
N26	N	1.555312	-0.367264	0.092719
N27	N	1.553482	-0.436454	0.092704
C28	C	1.481064	-0.467497	-0.000028
N29	N	1.410561	-0.426736	-0.092766
N30	N	1.412397	-0.357540	-0.092755
C31	C	1.484787	-0.327027	-0.000009
C32	C	1.478001	-0.582880	-0.124647
C33	C	1.476051	-0.655716	-0.124653
C34	C	1.476049	-0.655727	0.124562
C35	C	1.477986	-0.582891	0.124564
C36	C	1.478968	-0.546472	-0.000045
C37	C	1.712534	0.098757	-0.000026
C38	C	1.851934	0.100810	-0.000035
C39	C	1.473038	0.230343	-0.000043
C40	C	1.475086	0.307862	-0.000056
N41	N	1.482919	0.102745	0.356096
N42	N	1.482917	0.102732	-0.356141
C43	C	1.568576	0.055710	0.428029
C44	C	1.568573	0.055702	0.571912
C45	C	1.397251	0.149769	0.571916
C46	C	1.397249	0.149773	0.428036
C47	C	1.667490	0.001403	0.428028
C48	C	1.667487	0.001395	0.571911
H49	H	1.101743	0.104501	-0.226084
H50	H	1.763745	0.013358	0.610960
H51	H	1.475256	-0.685385	0.226011
H52	H	1.490530	-0.109156	0.226074
H53	H	1.478793	-0.553225	-0.226111
H54	H	1.758313	0.018408	0.383399
H55	H	1.475267	-0.685356	-0.226121
H56	H	1.647185	-0.052260	0.388983
H57	H	0.870099	0.150019	0.323686
H58	H	1.076871	0.154627	0.313094
H59	H	0.888913	0.050852	0.313095
H60	H	1.095694	0.055453	0.323700
H61	H	1.487041	-0.241297	0.226047
H62	H	1.478774	-0.553250	0.226027
H63	H	1.490581	-0.109138	-0.226067
H64	H	1.487057	-0.241269	-0.226078
H65	H	1.327490	0.188066	0.369469
H66	H	1.327501	0.188057	0.630505
H67	H	0.864116	0.101004	-0.226105
H68	H	1.638050	-0.049317	0.616535
