data_functionalizedCrystal
_audit_creation_method	'MofGen! by Chris Wilmer'
_symmetry_space_group_name_H-M	'P1'
_symmetry_Int_Tables_number	1
_symmetry_cell_setting	triclinic
loop_
_symmetry_equiv_pos_as_xyz
  x,y,z
_cell_length_a	11.792254
_cell_length_b	11.792254
_cell_length_c	14.048226
_cell_angle_alpha	89.993407
_cell_angle_beta	89.993605
_cell_angle_gamma	84.198598
loop_
_atom_site_label
_atom_site_type_symbol
_atom_site_fract_x
_atom_site_fract_y
_atom_site_fract_z
O1	O	1.506910	0.155638	-0.079160
O2	O	1.176572	0.171656	-0.079162
O3	O	1.349750	-0.001522	-0.079155
O4	O	1.333732	0.328816	-0.079168
O5	O	1.349729	-0.001533	0.079167
O6	O	1.176551	0.171645	0.079159
O7	O	1.506889	0.155628	0.079161
Zn8	Zn	1.341717	0.163635	0.104297
Zn9	Zn	1.341744	0.163648	-0.104298
O10	O	1.333711	0.328806	0.079153
C11	C	1.134271	0.170642	-0.000002
C12	C	1.008257	0.167621	-0.000003
C13	C	1.348730	-0.043818	0.000006
C14	C	1.345710	-0.169832	0.000005
C15	C	0.905921	0.165168	-0.000007
C16	C	0.777534	0.162099	-0.000007
C17	C	1.343256	-0.272168	0.000002
C18	C	1.340188	-0.400555	-0.000007
C19	C	1.549190	0.156642	-0.000001
C20	C	1.675204	0.159662	-0.000007
C21	C	1.334731	0.371102	-0.000009
C22	C	1.337751	0.497115	-0.000015
N23	N	1.341706	0.163625	0.246658
N24	N	1.341764	0.163649	-0.246659
C25	C	1.418414	0.086973	0.296479
C26	C	1.418421	0.086973	0.396137
C27	C	1.341726	0.163630	0.445971
C28	C	1.265010	0.240285	0.396143
C29	C	1.264998	0.240279	0.296487
C30	C	1.265043	0.240293	0.603857
C31	C	1.265056	0.240301	0.703520
C32	C	1.418466	0.086987	0.703507
C33	C	1.418454	0.086981	0.603851
C34	C	1.341739	0.163638	0.554029
H35	H	1.480873	0.024555	0.255911
Cl36	Cl	1.514854	-0.009392	0.458771
H37	H	1.480930	0.024571	0.744077
H38	H	1.480911	0.024567	0.563276
Cl39	Cl	1.168632	0.336672	0.766161
Cl40	Cl	1.168596	0.336662	0.541228
H41	H	1.202557	0.302697	0.436723
Cl42	Cl	1.168556	0.336641	0.233855
