data_functionalizedCrystal
_audit_creation_method	'MofGen! by Chris Wilmer'
_symmetry_space_group_name_H-M	'P1'
_symmetry_Int_Tables_number	1
_symmetry_cell_setting	triclinic
loop_
_symmetry_equiv_pos_as_xyz
  x,y,z
_cell_length_a	27.732048
_cell_length_b	27.732048
_cell_length_c	12.996460
_cell_angle_alpha	90.005247
_cell_angle_beta	90.000676
_cell_angle_gamma	82.642655
loop_
_atom_site_label
_atom_site_type_symbol
_atom_site_fract_x
_atom_site_fract_y
_atom_site_fract_z
O1	O	0.640929	0.057514	0.085445
O2	O	1.140929	0.557514	0.585445
O3	O	0.500135	0.066259	0.085478
O4	O	1.000135	0.566259	0.585478
O5	O	0.574905	-0.008510	0.085441
O6	O	1.074905	0.491490	0.585441
O7	O	0.566159	0.132283	0.085482
O8	O	1.066159	0.632283	0.585482
O9	O	0.574895	-0.008506	-0.085693
O10	O	1.074895	0.491494	0.414307
O11	O	0.500126	0.066264	-0.085656
O12	O	1.000126	0.566264	0.414344
O13	O	0.640919	0.057518	-0.085689
O14	O	1.140919	0.557518	0.414311
Cu15	Cu	0.570522	0.061891	-0.101298
Cu16	Cu	1.070522	0.561891	0.398702
Cu17	Cu	0.570533	0.061886	0.101087
Cu18	Cu	1.070533	0.561886	0.601087
O19	O	0.566150	0.132288	-0.085652
O20	O	1.066150	0.632288	0.414348
C21	C	0.482124	0.066078	-0.000085
C22	C	0.982124	0.566078	0.499915
C23	C	0.428469	0.065525	-0.000073
C24	C	0.928469	0.565525	0.499927
C25	C	0.089654	0.106229	-0.000106
C26	C	0.589654	0.606229	0.499894
C27	C	-0.112006	0.104178	-0.000116
C28	C	0.387994	0.604178	0.499884
O29	O	-0.143262	0.141398	-0.000150
O30	O	0.356738	0.641398	0.499850
N31	N	-0.131130	0.059843	-0.000127
N32	N	0.368870	0.559843	0.499873
C33	C	-0.099835	0.016017	-0.000143
C34	C	0.400165	0.516017	0.499857
O35	O	-0.120728	-0.021740	-0.000163
O36	O	0.379272	0.478260	0.499837
C37	C	0.101824	0.018068	-0.000140
C38	C	0.601824	0.518068	0.499860
C39	C	0.120944	0.062407	-0.000119
C40	C	0.620944	0.562407	0.499881
C41	C	0.108775	0.150563	-0.000086
C42	C	0.608775	0.650563	0.499914
C43	C	0.159187	0.151075	-0.000078
C44	C	0.659187	0.651075	0.499922
C45	C	0.190477	0.107253	-0.000090
C46	C	0.690477	0.607253	0.499910
C47	C	0.171356	0.062919	-0.000110
C48	C	0.671356	0.562919	0.499890
C49	C	0.133117	-0.025757	-0.000163
C50	C	0.633117	0.474243	0.499837
C51	C	0.183535	-0.025240	-0.000165
C52	C	0.683535	0.474760	0.499835
C53	C	0.202655	0.019098	-0.000143
C54	C	0.702655	0.519098	0.499857
C55	C	0.253059	0.019609	-0.000115
C56	C	0.753059	0.519609	0.499885
N57	N	0.272183	0.063944	-0.000104
N58	N	0.772183	0.563944	0.499896
C59	C	0.240892	0.107766	-0.000091
C60	C	0.740892	0.607766	0.499909
C61	C	-0.205709	0.014943	-0.000142
C62	C	0.294291	0.514943	0.499858
C63	C	-0.256124	0.014430	-0.000141
C64	C	0.243876	0.514430	0.499859
C65	C	-0.268291	0.102591	-0.000116
C66	C	0.231709	0.602591	0.499884
C67	C	-0.217876	0.103104	-0.000110
C68	C	0.282124	0.603104	0.499890
C69	C	-0.186585	0.059278	-0.000131
C70	C	0.313415	0.559278	0.499869
C71	C	0.346761	0.108839	-0.000073
C72	C	0.846761	0.608839	0.499927
C73	C	0.397178	0.109347	-0.000061
C74	C	0.897178	0.609347	0.499939
C75	C	0.409341	0.021186	-0.000091
C76	C	0.909341	0.521186	0.499909
C77	C	0.358929	0.020678	-0.000098
C78	C	0.858929	0.520678	0.499902
C79	C	0.327639	0.064508	-0.000093
C80	C	0.827639	0.564508	0.499907
O81	O	0.284343	-0.017592	-0.000093
O82	O	0.784343	0.482408	0.499907
O83	O	0.261794	0.145518	-0.000094
O84	O	0.761794	0.645518	0.499906
C85	C	0.039242	0.105716	-0.000114
C86	C	0.539242	0.605716	0.499886
C87	C	0.020120	0.061382	-0.000135
C88	C	0.520120	0.561382	0.499865
C89	C	0.051411	0.017560	-0.000147
C90	C	0.551411	0.517560	0.499853
C91	C	-0.030294	0.060869	-0.000133
C92	C	0.469706	0.560869	0.499867
C93	C	-0.061585	0.104691	-0.000121
C94	C	0.438415	0.604691	0.499879
C95	C	-0.042461	0.149026	-0.000110
C96	C	0.457539	0.649026	0.499890
C97	C	0.007951	0.149539	-0.000102
C98	C	0.507951	0.649539	0.499898
C99	C	0.032287	-0.026775	-0.000158
C100	C	0.532287	0.473225	0.499842
C101	C	-0.018125	-0.027284	-0.000165
C102	C	0.481875	0.472716	0.499835
C103	C	-0.049416	0.016538	-0.000153
C104	C	0.450584	0.516538	0.499847
C105	C	0.574716	-0.026515	-0.000129
C106	C	1.074716	0.473485	0.499871
C107	C	0.574164	-0.080170	-0.000137
C108	C	1.074164	0.419830	0.499863
C109	C	0.614867	-0.418985	-0.000094
C110	C	1.114867	0.081015	0.499906
C111	C	0.612816	-0.620645	-0.000079
C112	C	1.112816	-0.120645	0.499921
O113	O	0.650037	-0.651900	-0.000042
O114	O	1.150037	-0.151900	0.499958
N115	N	0.568481	-0.639768	-0.000070
N116	N	1.068481	-0.139768	0.499930
C117	C	0.524656	-0.608474	-0.000057
C118	C	1.024656	-0.108474	0.499943
O119	O	0.486899	-0.629367	-0.000038
O120	O	0.986899	-0.129367	0.499962
C121	C	0.526707	-0.406815	-0.000065
C122	C	1.026707	0.093185	0.499935
C123	C	0.571045	-0.387694	-0.000084
C124	C	1.071045	0.112306	0.499916
C125	C	0.659202	-0.399864	-0.000112
C126	C	1.159202	0.100136	0.499888
C127	C	0.659714	-0.349452	-0.000122
C128	C	1.159714	0.150548	0.499878
C129	C	0.615892	-0.318161	-0.000112
C130	C	1.115892	0.181839	0.499888
C131	C	0.571557	-0.337282	-0.000094
C132	C	1.071557	0.162718	0.499906
C133	C	0.482882	-0.375521	-0.000045
C134	C	0.982882	0.124479	0.499955
C135	C	0.483399	-0.325104	-0.000044
C136	C	0.983399	0.174896	0.499956
C137	C	0.527737	-0.305983	-0.000064
C138	C	1.027737	0.194017	0.499936
C139	C	0.528247	-0.255580	-0.000094
C140	C	1.028247	0.244420	0.499906
N141	N	0.572583	-0.236456	-0.000103
N142	N	1.072583	0.263544	0.499897
C143	C	0.616405	-0.267747	-0.000112
C144	C	1.116405	0.232253	0.499888
C145	C	0.523582	-0.714348	-0.000055
C146	C	1.023582	-0.214348	0.499945
C147	C	0.523069	-0.764762	-0.000055
C148	C	1.023069	-0.264762	0.499945
C149	C	0.611230	-0.776930	-0.000075
C150	C	1.111230	-0.276930	0.499925
C151	C	0.611742	-0.726514	-0.000082
C152	C	1.111742	-0.226514	0.499918
C153	C	0.567917	-0.695224	-0.000065
C154	C	1.067917	-0.195224	0.499935
C155	C	0.617477	-0.161878	-0.000133
C156	C	1.117477	0.338122	0.499867
C157	C	0.617986	-0.111461	-0.000146
C158	C	1.117986	0.388539	0.499854
C159	C	0.529825	-0.099298	-0.000121
C160	C	1.029825	0.400702	0.499879
C161	C	0.529316	-0.149710	-0.000113
C162	C	1.029316	0.350290	0.499887
C163	C	0.573147	-0.180999	-0.000115
C164	C	1.073147	0.319001	0.499885
O165	O	0.491047	-0.224296	-0.000119
O166	O	0.991047	0.275704	0.499881
O167	O	0.654156	-0.246844	-0.000108
O168	O	1.154156	0.253156	0.499892
C169	C	0.614355	-0.469397	-0.000084
C170	C	1.114355	0.030603	0.499916
C171	C	0.570021	-0.488518	-0.000066
C172	C	1.070021	0.011482	0.499934
C173	C	0.526198	-0.457228	-0.000056
C174	C	1.026198	0.042772	0.499944
C175	C	0.569508	-0.538933	-0.000066
C176	C	1.069508	-0.038933	0.499934
C177	C	0.613330	-0.570223	-0.000075
C178	C	1.113330	-0.070223	0.499925
C179	C	0.657665	-0.551100	-0.000084
C180	C	1.157665	-0.051100	0.499916
C181	C	0.658177	-0.500688	-0.000094
C182	C	1.158177	-0.000688	0.499906
C183	C	0.481863	-0.476351	-0.000047
C184	C	0.981863	0.023649	0.499953
C185	C	0.481355	-0.526764	-0.000039
C186	C	0.981355	-0.026764	0.499961
C187	C	0.525177	-0.558054	-0.000048
C188	C	1.025177	-0.058054	0.499952
C189	C	0.658931	0.057699	-0.000123
C190	C	1.158931	0.557699	0.499877
C191	C	0.712586	0.058252	-0.000128
C192	C	1.212586	0.558252	0.499872
C193	C	0.566338	0.150292	-0.000080
C194	C	1.066338	0.650292	0.499920
C195	C	0.566891	0.203947	-0.000065
C196	C	1.066891	0.703947	0.499935
N197	N	0.570517	0.061895	-0.243645
N198	N	1.070517	0.561895	0.256355
C199	C	0.570519	0.061896	-0.336751
C200	C	1.070519	0.561896	0.163249
C201	C	0.570524	0.061892	-0.453556
C202	C	1.070524	0.561892	0.046444
C203	C	0.570530	0.061887	-0.546655
C204	C	1.070530	0.561887	-0.046655
C205	C	0.570535	0.061884	-0.663467
C206	C	1.070535	0.561884	-0.163467
N207	N	0.570541	0.061879	0.243435
N208	N	1.070541	0.561879	0.743435
H209	H	0.117558	-0.061861	-0.000181
H210	H	0.617558	0.438139	0.499819
F211	F	0.476933	-0.681052	-0.000036
F212	F	0.976933	-0.181052	0.499964
F213	F	-0.197531	0.150294	-0.000089
F214	F	0.302469	0.650294	0.499911
H215	H	0.647846	-0.710950	-0.000098
H216	H	1.147846	-0.210950	0.499902
F217	F	-0.075772	0.195665	-0.000091
F218	F	0.424228	0.695665	0.499909
F219	F	0.216833	-0.071886	-0.000190
F220	F	0.716833	0.428114	0.499810
F221	F	0.705848	-0.433159	-0.000121
F222	F	1.205848	0.066841	0.499879
H223	H	0.646911	-0.802415	-0.000083
H224	H	1.146911	-0.302415	0.499917
H225	H	0.694282	-0.485125	-0.000109
H226	H	1.194282	0.014875	0.499891
F227	F	0.435691	-0.395860	-0.000019
F228	F	0.935691	0.104140	0.499981
H229	H	0.447710	-0.299629	-0.000028
H230	H	0.947710	0.200371	0.499972
H231	H	0.174750	0.187180	-0.000060
H232	H	0.674750	0.687180	0.499940
F233	F	-0.038469	-0.074478	-0.000175
F234	F	0.461531	0.425522	0.499825
F235	F	0.065583	-0.073420	-0.000173
F236	F	0.565583	0.426580	0.499827
H237	H	0.321291	0.144530	-0.000072
H238	H	0.821291	0.644530	0.499928
H239	H	0.486964	-0.780325	-0.000057
H240	H	0.986964	-0.280325	0.499943
F241	F	0.338578	-0.026511	-0.000122
F242	F	0.838578	0.473489	0.499878
H243	H	0.083302	0.186251	-0.000079
H244	H	0.583302	0.686251	0.499921
H245	H	0.493213	-0.165279	-0.000126
H246	H	0.993213	0.334721	0.499874
F247	F	-0.276468	-0.032761	-0.000140
F248	F	0.223532	0.467239	0.499860
H249	H	0.695819	-0.333889	-0.000134
H250	H	1.195819	0.166111	0.499866
H251	H	0.494146	-0.073812	-0.000117
H252	H	0.994146	0.426188	0.499883
F253	F	0.028294	0.196730	-0.000079
F254	F	0.528294	0.696730	0.499921
F255	F	-0.301601	0.149230	-0.000104
F256	F	0.198399	0.649230	0.499896
F257	F	-0.172413	-0.031705	-0.000163
F258	F	0.327587	0.468295	0.499837
H259	H	0.693347	-0.576585	-0.000096
H260	H	1.193347	-0.076585	0.499904
F261	F	0.434160	-0.547107	-0.000025
F262	F	0.934160	-0.047107	0.499975
H263	H	0.654093	-0.095896	-0.000165
H264	H	1.154093	0.404104	0.499835
H265	H	0.434827	-0.014492	-0.000097
H266	H	0.934827	0.485508	0.499903
F267	F	0.435219	-0.443055	-0.000034
F268	F	0.935219	0.056945	0.499966
H269	H	0.412743	0.145454	-0.000043
H270	H	0.912743	0.645454	0.499957
F271	F	0.664126	-0.195171	-0.000135
F272	F	1.164126	0.304829	0.499865
