data_functionalizedCrystal
_audit_creation_method	'MofGen! by Chris Wilmer'
_symmetry_space_group_name_H-M	'P1'
_symmetry_Int_Tables_number	1
_symmetry_cell_setting	triclinic
loop_
_symmetry_equiv_pos_as_xyz
  x,y,z
_cell_length_a	10.723023
_cell_length_b	27.731996
_cell_length_c	26.210047
_cell_angle_alpha	89.974253
_cell_angle_beta	89.979213
_cell_angle_gamma	83.544468
loop_
_atom_site_label
_atom_site_type_symbol
_atom_site_fract_x
_atom_site_fract_y
_atom_site_fract_z
O1	O	1.654379	0.067799	-0.042431
O2	O	1.290954	0.074289	-0.042434
O3	O	1.483988	0.000716	-0.042422
O4	O	1.461345	0.141372	-0.042444
O5	O	1.483916	0.000695	0.042437
O6	O	1.290883	0.074268	0.042424
O7	O	1.654307	0.067778	0.042427
Cu8	Cu	1.472588	0.071021	0.050174
Cu9	Cu	1.472673	0.071046	-0.050181
O10	O	1.461274	0.141351	0.042414
C11	C	1.244439	0.073806	-0.000005
C12	C	1.105944	0.072393	-0.000006
C13	C	1.044161	0.071753	0.043953
C14	C	0.901019	0.070292	0.043953
C15	C	1.483487	-0.017305	0.000009
C16	C	1.482086	-0.070970	0.000014
C17	C	1.473310	-0.403730	-0.046267
C18	C	1.467991	-0.605421	-0.046276
O19	O	1.467282	-0.631486	-0.085615
N20	N	1.467291	-0.630654	-0.000020
C21	C	1.467913	-0.605460	0.046241
O22	O	1.467182	-0.631549	0.085584
C23	C	1.473224	-0.403769	0.046250
C24	C	1.473936	-0.378540	-0.000009
C25	C	1.474022	-0.378500	-0.092522
C26	C	1.475358	-0.328081	-0.092519
C27	C	1.475984	-0.302891	-0.046261
C28	C	1.475273	-0.328120	-0.000006
C29	C	1.473837	-0.378576	0.092510
C30	C	1.475161	-0.328150	0.092508
C31	C	1.475874	-0.302921	0.046250
C32	C	1.477235	-0.252511	0.046254
N33	N	1.477935	-0.227278	-0.000002
C34	C	1.477309	-0.252468	-0.046259
C35	C	1.465127	-0.711351	0.046233
C36	C	1.463801	-0.761773	0.046231
C37	C	1.463877	-0.761731	-0.046286
C38	C	1.465211	-0.711308	-0.046283
C39	C	1.465827	-0.686118	-0.000022
C40	C	1.480118	-0.146584	-0.046250
C41	C	1.481460	-0.096160	-0.046243
C42	C	1.481378	-0.096207	0.046274
C43	C	1.480042	-0.146626	0.046267
C44	C	1.479408	-0.171813	0.000001
O45	O	1.477930	-0.226414	0.085573
O46	O	1.478012	-0.226369	-0.085597
C47	C	1.471974	-0.454149	-0.046269
C48	C	1.471263	-0.479379	-0.000014
C49	C	1.471888	-0.454189	0.046243
C50	C	1.469937	-0.529801	-0.000016
C51	C	1.469311	-0.554991	-0.046274
C52	C	1.470011	-0.529758	-0.092530
C53	C	1.471348	-0.479339	-0.092527
C54	C	1.471188	-0.479421	0.092499
C55	C	1.469853	-0.529841	0.092492
C56	C	1.469227	-0.555031	0.046235
C57	C	1.700823	0.068261	-0.000003
C58	C	1.839318	0.069674	-0.000006
C59	C	1.461775	0.159372	-0.000018
C60	C	1.463176	0.213037	-0.000026
N61	N	1.472538	0.071003	0.120758
C62	C	1.397551	0.041441	0.526739
C63	C	1.397500	0.041428	0.313081
O64	O	1.333675	0.016253	0.285474
N65	N	1.472581	0.071010	0.286341
C66	C	1.547686	0.100595	0.313020
O67	O	1.611556	0.125752	0.285374
C68	C	1.547743	0.100605	0.526677
C69	C	1.472647	0.071024	0.553414
C70	C	1.322463	0.011862	0.553476
C71	C	1.322471	0.011868	0.606887
C72	C	1.397567	0.041452	0.633562
C73	C	1.472656	0.071030	0.606825
C74	C	1.622854	0.130187	0.553355
C75	C	1.622863	0.130186	0.606773
C76	C	1.547768	0.100605	0.633509
C77	C	1.547760	0.100619	0.686912
N78	N	1.472679	0.071037	0.713651
C79	C	1.397583	0.041453	0.686976
C80	C	1.547650	0.100589	0.200846
C81	C	1.547634	0.100587	0.147432
C82	C	1.397450	0.041419	0.147497
C83	C	1.397459	0.041424	0.200912
C84	C	1.472569	0.071007	0.227586
C85	C	1.397605	0.041467	0.799144
C86	C	1.397616	0.041477	0.852560
C87	C	1.547805	0.100642	0.852491
C88	C	1.547790	0.100635	0.799080
C89	C	1.472686	0.071043	0.772407
O90	O	1.611563	0.125776	0.714551
O91	O	1.333744	0.016292	0.714632
C92	C	1.397543	0.041435	0.473328
C93	C	1.472631	0.071014	0.446591
C94	C	1.547727	0.100597	0.473266
C95	C	1.472615	0.071012	0.393177
C96	C	1.397519	0.041428	0.366502
C97	C	1.322438	0.011846	0.393242
C98	C	1.322446	0.011852	0.446653
C99	C	1.622808	0.130179	0.446527
C100	C	1.622793	0.130172	0.393115
C101	C	1.547696	0.100588	0.366440
N102	N	1.472713	0.071060	0.879235
H103	H	1.482043	-0.075621	-0.083914
N104	N	0.830729	0.069357	0.093808
H105	H	0.738473	0.068348	0.086741
H106	H	0.864344	0.039605	0.113869
H107	H	1.052866	0.071859	-0.037640
H108	H	0.892440	0.070227	-0.037642
H109	H	1.261310	-0.012231	0.531763
H110	H	1.479595	-0.167085	-0.083924
H111	H	1.475934	-0.307543	-0.130188
H112	H	1.463369	-0.782249	-0.083950
N113	N	1.479306	-0.173844	0.096158
H114	H	1.401378	-0.191100	0.098222
H115	H	1.556182	-0.198404	0.098182
N116	N	1.114452	0.072456	0.093807
H117	H	1.206744	0.073400	0.086740
H118	H	1.081046	0.102132	0.114013
H119	H	1.473508	-0.399004	-0.130192
H120	H	1.261325	-0.012221	0.628652
H121	H	1.465790	-0.690769	-0.083951
N122	N	1.463060	-0.788984	0.096124
H123	H	1.463655	-0.765370	0.125426
H124	H	1.385130	-0.806241	0.098141
H125	H	1.471700	-0.458917	0.130168
N126	N	1.465799	-0.684186	0.096132
H127	H	1.465160	-0.707826	0.125430
H128	H	1.543729	-0.666932	0.098149
H129	H	1.473258	-0.399109	0.130179
N130	N	1.628615	0.132496	0.118598
H131	H	1.676190	0.151235	0.143606
H132	H	1.690023	0.111636	0.096436
N133	N	1.475820	-0.300981	0.142405
H134	H	1.475168	-0.324619	0.171706
H135	H	1.553751	-0.283728	0.144426
N136	N	1.316629	0.009567	0.881398
H137	H	1.269064	-0.009177	0.856391
H138	H	1.371511	-0.013867	0.903561
H139	H	1.608943	0.124730	0.874219
H140	H	1.481893	-0.075688	0.083935
H141	H	1.336310	0.017337	0.222677
H142	H	1.471928	-0.458802	-0.130196
N143	N	1.469345	-0.556933	-0.142423
H144	H	1.468392	-0.592702	-0.135400
H145	H	1.392215	-0.544448	-0.162624
N146	N	1.469097	-0.557051	0.142389
H147	H	1.469694	-0.533437	0.171691
H148	H	1.391160	-0.574304	0.144403
H149	H	1.336449	0.017371	0.777434
H150	H	1.336300	0.017332	0.125769
H151	H	1.261296	-0.012236	0.468417
N152	N	1.628702	0.132484	0.229613
H153	H	1.676266	0.151217	0.204564
H154	H	1.573879	0.155928	0.251781
H155	H	1.684007	0.154273	0.531595
N156	N	1.703890	0.162088	0.635542
H157	H	1.751459	0.180823	0.610496
H158	H	1.649042	0.185530	0.657703
N159	N	1.628762	0.132546	0.770238
H160	H	1.676330	0.151290	0.795244
H161	H	1.690175	0.111685	0.748079
N162	N	1.241442	-0.020063	0.364466
H163	H	1.252842	-0.015576	0.326572
H164	H	1.266801	-0.055129	0.373817
N165	N	1.703792	0.162079	0.364281
H166	H	1.751366	0.180818	0.389289
H167	H	1.765200	0.141215	0.342123
N168	N	1.703847	0.162075	0.475293
H169	H	1.751415	0.180807	0.450244
H170	H	1.649017	0.185519	0.497458
