data_functionalizedCrystal
_audit_creation_method	'MofGen! by Chris Wilmer'
_symmetry_space_group_name_H-M	'P1'
_symmetry_Int_Tables_number	1
_symmetry_cell_setting	triclinic
loop_
_symmetry_equiv_pos_as_xyz
  x,y,z
_cell_length_a	14.044220
_cell_length_b	18.266242
_cell_length_c	14.044190
_cell_angle_alpha	90.010750
_cell_angle_beta	93.190328
_cell_angle_gamma	90.003954
loop_
_atom_site_label
_atom_site_type_symbol
_atom_site_fract_x
_atom_site_fract_y
_atom_site_fract_z
O1	O	1.277180	0.060818	0.230170
O2	O	1.777180	0.560818	0.730170
O3	O	1.000508	0.060836	0.221865
O4	O	1.500508	0.560836	0.721865
O5	O	1.134688	0.060813	0.087681
O6	O	1.634688	0.560813	0.587681
O7	O	1.143001	0.060841	0.364354
O8	O	1.643001	0.560841	0.864354
O9	O	1.134662	-0.060949	0.087672
O10	O	1.634662	0.439051	0.587672
O11	O	1.000483	-0.060926	0.221855
O12	O	1.500483	0.439074	0.721855
O13	O	1.277155	-0.060944	0.230161
O14	O	1.777155	0.439056	0.730161
Zn15	Zn	1.138815	-0.080267	0.226006
Zn16	Zn	1.638815	0.419733	0.726006
Zn17	Zn	1.138848	0.080159	0.226019
Zn18	Zn	1.638848	0.580159	0.726019
O19	O	1.142975	-0.060921	0.364344
O20	O	1.642975	0.439079	0.864344
C21	C	0.964874	-0.000043	0.218224
C22	C	1.464874	0.499957	0.718224
C23	C	0.858731	-0.000037	0.207380
C24	C	1.358731	0.499963	0.707380
N25	N	1.138799	-0.189754	0.225998
N26	N	1.638799	0.310246	0.725998
C27	C	0.664392	-0.000053	0.187553
C28	C	1.164392	0.499947	0.687553
C29	C	0.613264	-0.000048	0.264468
C30	C	1.113264	0.499952	0.764468
C31	C	0.505128	-0.000058	0.253436
C32	C	1.005128	0.499942	0.753436
C33	C	0.772539	-0.000044	0.198583
C34	C	1.272539	0.499956	0.698583
C35	C	1.198237	-0.228073	0.166615
C36	C	1.698237	0.271927	0.666615
C37	C	1.198243	-0.304718	0.166611
C38	C	1.698243	0.195282	0.666611
C39	C	1.138821	-0.343041	0.226007
C40	C	1.638821	0.156959	0.726007
C41	C	1.079370	-0.304713	0.285394
C42	C	1.579370	0.195287	0.785394
C43	C	1.079359	-0.228069	0.285389
C44	C	1.579359	0.271931	0.785389
N45	N	1.133814	-0.463365	0.309457
N46	N	1.633814	0.036635	0.809457
N47	N	1.133829	-0.536173	0.309459
N48	N	1.633829	-0.036173	0.809459
C49	C	1.138848	-0.573964	0.226023
C50	C	1.638848	-0.073964	0.726023
N51	N	1.143870	-0.536196	0.142584
N52	N	1.643870	-0.036196	0.642584
N53	N	1.143859	-0.463381	0.142584
N54	N	1.643859	0.036619	0.642584
C55	C	1.138825	-0.426148	0.226018
C56	C	1.638825	0.073852	0.726018
C57	C	1.198296	-0.695390	0.166631
C58	C	1.698296	-0.195390	0.666631
C59	C	1.198295	-0.772036	0.166625
C60	C	1.698295	-0.272036	0.666625
C61	C	1.079428	-0.772029	0.285417
C62	C	1.579428	-0.272029	0.785417
C63	C	1.079424	-0.695384	0.285414
C64	C	1.579424	-0.195384	0.785414
C65	C	1.138863	-0.657069	0.226022
C66	C	1.638863	-0.157069	0.726022
C67	C	1.312789	-0.000064	0.233801
C68	C	1.812789	0.499936	0.733801
C69	C	1.418932	-0.000065	0.244646
C70	C	1.918932	0.499935	0.744646
C71	C	1.131039	-0.000070	0.052054
C72	C	1.631039	0.499930	0.552054
C73	C	1.120191	-0.000076	-0.054089
C74	C	1.620191	0.499924	0.445911
N75	N	1.138871	0.189646	0.226021
N76	N	1.638871	0.689646	0.726021
C77	C	1.177292	-0.000051	-0.299547
C78	C	1.677292	0.499949	0.200453
C79	C	1.100375	-0.000051	-0.248422
C80	C	1.600375	0.499949	0.251578
C81	C	1.111404	-0.000065	-0.140285
C82	C	1.611404	0.499935	0.359715
C83	C	1.166265	-0.000037	-0.407694
C84	C	1.666265	0.499963	0.092306
C85	C	1.146624	-0.000036	0.399971
C86	C	1.646624	0.499964	0.899971
C87	C	1.157472	-0.000026	0.506114
C88	C	1.657472	0.499974	1.006114
H89	H	0.650706	-0.000037	0.338602
H90	H	1.150706	0.499963	0.838602
H91	H	1.026243	-0.000042	-0.285865
H92	H	1.526243	0.499958	0.214135
H93	H	1.251418	-0.000063	-0.262106
H94	H	1.751418	0.499937	0.237894
H95	H	1.246694	-0.803236	0.118263
H96	H	1.746694	-0.303236	0.618263
F97	F	1.261493	-0.187297	0.103403
F98	F	1.761493	0.312703	0.603403
H99	H	0.626954	-0.000065	0.113425
H100	H	1.126954	0.499935	0.613425
H101	H	1.246693	-0.664192	0.118268
H102	H	1.746693	-0.164192	0.618268
H103	H	1.030986	-0.335919	0.333753
H104	H	1.530986	0.164081	0.833753
F105	F	1.261509	-0.345507	0.103404
F106	F	1.761509	0.154493	0.603404
H107	H	1.030956	-0.196869	0.333746
H108	H	1.530956	0.303131	0.833746
H109	H	1.031041	-0.803231	0.333774
H110	H	1.531041	-0.303231	0.833774
F111	F	1.016165	-0.654599	0.348622
F112	F	1.516165	-0.154599	0.848622
