data_functionalizedCrystal
_audit_creation_method	'MofGen! by Chris Wilmer'
_symmetry_space_group_name_H-M	'P1'
_symmetry_Int_Tables_number	1
_symmetry_cell_setting	triclinic
loop_
_symmetry_equiv_pos_as_xyz
  x,y,z
_cell_length_a	14.908571
_cell_length_b	25.639239
_cell_length_c	14.908694
_cell_angle_alpha	93.266315
_cell_angle_beta	83.592472
_cell_angle_gamma	86.734636
loop_
_atom_site_label
_atom_site_type_symbol
_atom_site_fract_x
_atom_site_fract_y
_atom_site_fract_z
Zn1	Zn	1.413187	-0.275253	-0.591468
Zn2	Zn	1.913187	0.224747	-0.091468
Zn3	Zn	1.404309	-0.357334	-0.440091
Zn4	Zn	1.904309	0.142666	0.059909
Zn5	Zn	1.253095	-0.264559	-0.431405
Zn6	Zn	1.753095	0.235441	0.068595
Zn7	Zn	1.261741	-0.357293	-0.582690
Zn8	Zn	1.761741	0.142707	-0.082690
O9	O	1.333083	-0.313610	-0.511414
O10	O	1.833083	0.186390	-0.011414
O11	O	1.538674	-0.290634	-0.578697
O12	O	2.038674	0.209366	-0.078697
O13	O	1.376916	-0.340569	-0.312274
O14	O	1.876916	0.159431	0.187726
O15	O	1.274428	-0.192817	-0.452676
O16	O	1.774428	0.307183	0.047324
O17	O	1.532151	-0.350938	-0.467481
O18	O	2.032151	0.149062	0.032519
O19	O	1.392047	-0.200674	-0.570274
O20	O	1.892047	0.299326	-0.070274
O21	O	1.265820	-0.272407	-0.305892
O22	O	1.765820	0.227593	0.194108
O23	O	1.127577	-0.272368	-0.444164
O24	O	1.627577	0.227632	0.055836
O25	O	1.289164	-0.350869	-0.710519
O26	O	1.789164	0.149131	-0.210519
O27	O	1.133929	-0.340499	-0.555312
O28	O	1.633929	0.159501	-0.055312
O29	O	1.400431	-0.290594	-0.716969
O30	O	1.900431	0.209406	-0.216969
O31	O	1.385300	-0.430489	-0.458969
O32	O	1.885300	0.069511	0.041031
O33	O	1.280555	-0.430459	-0.563735
O34	O	1.780555	0.069541	-0.063735
C35	C	1.097911	-0.305269	-0.497844
C36	C	1.597911	0.194731	0.002156
C37	C	0.997304	-0.301715	-0.492060
C38	C	1.497304	0.198285	0.007940
C39	C	0.814908	-0.366078	-0.596774
C40	C	1.314908	0.133922	-0.096774
C41	C	0.720379	-0.362740	-0.591343
C42	C	1.220379	0.137260	-0.091343
C43	C	0.713717	-0.291698	-0.475771
C44	C	1.213717	0.208302	0.024229
C45	C	0.808246	-0.295036	-0.481202
C46	C	1.308246	0.204964	0.018798
C47	C	0.858838	-0.332228	-0.541705
C48	C	1.358838	0.167772	-0.041705
C49	C	0.953368	-0.335568	-0.547131
C50	C	1.453368	0.164432	-0.047131
C51	C	0.946704	-0.264524	-0.431564
C52	C	1.446704	0.235476	0.068436
C53	C	0.852176	-0.261186	-0.426133
C54	C	1.352176	0.238814	0.073867
C55	C	1.332928	-0.449446	-0.511363
C56	C	1.832928	0.050554	-0.011363
C57	C	1.332947	-0.507561	-0.511377
C58	C	1.832947	-0.007561	-0.011377
C59	C	1.387780	-0.867941	-0.456969
C60	C	1.887780	-0.367941	0.043031
C61	C	1.387816	-0.922547	-0.456983
C62	C	1.887816	-0.422547	0.043017
O63	O	1.434276	-0.950792	-0.410669
O64	O	1.934276	-0.450792	0.089331
N65	N	1.333245	-0.949857	-0.511483
N66	N	1.833245	-0.449857	-0.011483
C67	C	1.278643	-0.922558	-0.565979
C68	C	1.778643	-0.422558	-0.065979
O69	O	1.232230	-0.950801	-0.612337
O70	O	1.732230	-0.450801	-0.112337
C71	C	1.278612	-0.867953	-0.565969
C72	C	1.778612	-0.367953	-0.065969
C73	C	1.333179	-0.840646	-0.511459
C74	C	1.833179	-0.340646	-0.011459
C75	C	1.442343	-0.840634	-0.402464
C76	C	1.942343	-0.340634	0.097536
C77	C	1.442306	-0.786032	-0.402449
C78	C	1.942306	-0.286032	0.097551
C79	C	1.387705	-0.758737	-0.456939
C80	C	1.887705	-0.258737	0.043061
C81	C	1.333142	-0.786044	-0.511443
C82	C	1.833142	-0.286044	-0.011443
C83	C	1.224015	-0.840655	-0.620469
C84	C	1.724015	-0.340655	-0.120469
C85	C	1.223990	-0.786047	-0.620454
C86	C	1.723990	-0.286047	-0.120454
C87	C	1.278557	-0.758740	-0.565945
C88	C	1.778557	-0.258740	-0.065945
C89	C	1.278504	-0.704146	-0.565918
C90	C	1.778504	-0.204146	-0.065918
N91	N	1.333074	-0.676837	-0.511418
N92	N	1.833074	-0.176837	-0.011418
C93	C	1.387675	-0.704132	-0.456929
C94	C	1.887675	-0.204132	0.043071
C95	C	1.278712	-1.037231	-0.565996
C96	C	1.778712	-0.537231	-0.065996
C97	C	1.278736	-1.091834	-0.566002
C98	C	1.778736	-0.591834	-0.066002
C99	C	1.387911	-1.091820	-0.457008
C100	C	1.887911	-0.591820	0.042992
C101	C	1.387881	-1.037216	-0.456998
C102	C	1.887881	-0.537216	0.043002
C103	C	1.333282	-1.009922	-0.511497
C104	C	1.833282	-0.509922	-0.011497
C105	C	1.387592	-0.589463	-0.456900
C106	C	1.887592	-0.089463	0.043100
C107	C	1.387547	-0.534856	-0.456887
C108	C	1.887547	-0.034856	0.043113
C109	C	1.278377	-0.534875	-0.565885
C110	C	1.778377	-0.034875	-0.065885
C111	C	1.278417	-0.589477	-0.565895
C112	C	1.778417	-0.089477	-0.065895
C113	C	1.333032	-0.616770	-0.511400
C114	C	1.833032	-0.116770	-0.011400
O115	O	1.232070	-0.675867	-0.612211
O116	O	1.732070	-0.175867	-0.112211
O117	O	1.434088	-0.675883	-0.410587
O118	O	1.934088	-0.175883	0.089413
C119	C	1.569173	-0.321983	-0.525037
C120	C	2.069173	0.178017	-0.025037
C121	C	1.669781	-0.325552	-0.530843
C122	C	2.169781	0.174448	-0.030843
C123	C	1.346752	-0.321920	-0.747505
C124	C	1.846752	0.178080	-0.247505
C125	C	1.352577	-0.325461	-0.848113
C126	C	1.852577	0.174539	-0.348113
C127	C	1.333264	-0.177245	-0.511485
C128	C	1.833264	0.322755	-0.011485
C129	C	1.333341	-0.119135	-0.511516
C130	C	1.833341	0.380865	-0.011516
C131	C	1.247818	-0.261140	-1.030521
C132	C	1.747818	0.238860	-0.530521
C133	C	1.253288	-0.264466	-1.125051
C134	C	1.753288	0.235534	-0.625051
C135	C	1.368982	-0.335440	-1.131705
C136	C	1.868982	0.164560	-0.631705
C137	C	1.363512	-0.332114	-1.037175
C138	C	1.863512	0.167886	-0.537175
C139	C	1.302929	-0.294963	-0.986586
C140	C	1.802929	0.205037	-0.486586
C141	C	1.297464	-0.291635	-0.892055
C142	C	1.797464	0.208365	-0.392055
C143	C	1.413153	-0.362612	-0.898709
C144	C	1.913153	0.137388	-0.398709
C145	C	1.418624	-0.365937	-0.993240
C146	C	1.918624	0.134063	-0.493240
C147	C	1.319519	-0.305296	-0.276244
C148	C	1.819519	0.194704	0.223756
C149	C	1.313869	-0.301614	-0.175646
C150	C	1.813869	0.198386	0.324354
H151	H	1.431982	-0.512624	-0.412496
H152	H	1.931982	-0.012624	0.087504
N153	N	1.185949	-0.223181	-0.978856
N154	N	1.685949	0.276819	-0.478856
N155	N	1.136758	-0.192978	-1.018096
N156	N	1.636758	0.307022	-0.518096
H157	H	1.093065	-0.166166	-0.981609
H158	H	1.593065	0.333834	-0.481609
H159	H	1.234293	-1.114063	-0.610381
H160	H	1.734293	-0.614063	-0.110381
N161	N	0.662042	-0.253701	-0.413983
N162	N	1.162042	0.246299	0.086017
N163	N	0.673001	-0.206053	-0.420749
N164	N	1.173001	0.293947	0.079251
H165	H	0.636505	-0.179215	-0.377112
H166	H	1.136505	0.320785	0.122888
N167	N	1.196982	-0.229915	-1.169916
N168	N	1.696982	0.270085	-0.669916
N169	N	1.142894	-0.196750	-1.124733
N170	N	1.642894	0.303250	-0.624733
H171	H	1.103124	-0.172347	-1.156417
H172	H	1.603124	0.327653	-0.656417
H173	H	0.982482	-0.236962	-0.386721
H174	H	1.482482	0.263038	0.113279
N175	N	0.866591	-0.404061	-0.658583
N176	N	1.366591	0.095939	-0.158583
N177	N	0.922709	-0.389612	-0.719354
N178	N	1.422709	0.110388	-0.219354
H179	H	0.959209	-0.416438	-0.763009
H180	H	1.459209	0.083562	-0.263009
N181	N	1.443369	-0.617329	-0.401217
N182	N	1.943369	-0.117329	0.098783
N183	N	1.432579	-0.608093	-0.317347
N184	N	1.932579	-0.108093	0.182653
H185	H	1.471966	-0.627773	-0.278014
H186	H	1.971966	-0.127773	0.221986
H187	H	0.684616	-0.390304	-0.636188
H188	H	1.184616	0.109696	-0.136188
N189	N	1.430845	-0.373390	-1.183401
N190	N	1.930845	0.126610	-0.683401
N191	N	1.435709	-0.376355	-1.267801
N192	N	1.935709	0.123645	-0.767801
H193	H	1.479399	-0.403158	-1.304313
H194	H	1.979399	0.096842	-0.804313
N195	N	1.480508	-0.403874	-1.044939
N196	N	1.980508	0.096126	-0.544939
N197	N	1.541253	-0.389371	-1.101028
N198	N	2.041253	0.110629	-0.601028
H199	H	1.584962	-0.416163	-1.137543
H200	H	2.084962	0.083837	-0.637543
H201	H	1.458032	-0.390151	-0.862928
H202	H	1.958032	0.109849	-0.362928
H203	H	0.810971	-0.230904	-0.376876
H204	H	1.310971	0.269096	0.123124
N205	N	1.005048	-0.373564	-0.608918
N206	N	1.505048	0.126436	-0.108918
N207	N	0.994090	-0.421213	-0.602158
N208	N	1.494090	0.078787	-0.102158
H209	H	1.030588	-0.448048	-0.645797
H210	H	1.530588	0.051952	-0.145797
N211	N	1.498052	-0.758151	-0.346764
N212	N	1.998052	-0.258151	0.153236
N213	N	1.546796	-0.782537	-0.298123
N214	N	2.046796	-0.282537	0.201877
H215	H	1.586172	-0.762850	-0.258794
H216	H	2.086172	-0.262850	0.241206
N217	N	1.168217	-0.758176	-0.676137
N218	N	1.668217	-0.258176	-0.176137
N219	N	1.119508	-0.782569	-0.724800
N220	N	1.619508	-0.282569	-0.224800
H221	H	1.080117	-0.762886	-0.764125
H222	H	1.580117	-0.262886	-0.264125
N223	N	1.235598	-0.253680	-0.840376
N224	N	1.735598	0.246320	-0.340376
N225	N	1.242275	-0.206022	-0.851303
N226	N	1.742275	0.293978	-0.351303
H227	H	1.198581	-0.179215	-0.814806
H228	H	1.698581	0.320785	-0.314806
N229	N	1.498132	-0.868502	-0.346799
N230	N	1.998132	-0.368502	0.153201
N231	N	1.546842	-0.844104	-0.298146
N232	N	2.046842	-0.344104	0.201854
H233	H	1.586243	-0.863782	-0.258824
H234	H	2.086243	-0.363782	0.241176
H235	H	1.234243	-1.015011	-0.610373
H236	H	1.734243	-0.515011	-0.110373
N237	N	1.443610	-1.009325	-0.401307
N238	N	1.943610	-0.509325	0.098693
N239	N	1.432834	-1.012296	-0.317439
N240	N	1.932834	-0.512296	0.182561
H241	H	1.472195	-0.992601	-0.278104
H242	H	1.972195	-0.492601	0.221896
N243	N	1.443679	-1.119716	-0.401349
N244	N	1.943679	-0.619716	0.098651
N245	N	1.443693	-1.168469	-0.401374
N246	N	1.943693	-0.668469	0.098626
H247	H	1.483075	-1.188172	-0.362067
H248	H	1.983075	-0.688172	0.137933
H249	H	1.179576	-0.862879	-0.664852
H250	H	1.679576	-0.362879	-0.164852
N251	N	1.222659	-0.617365	-0.621563
N252	N	1.722659	-0.117365	-0.121563
N253	N	1.173905	-0.592984	-0.670202
N254	N	1.673905	-0.092984	-0.170202
H255	H	1.134527	-0.612676	-0.709523
H256	H	1.634527	-0.112676	-0.209523
H257	H	1.233918	-0.512643	-0.610247
H258	H	1.733918	-0.012643	-0.110247
