data_functionalizedCrystal
_audit_creation_method	'MofGen! by Chris Wilmer'
_symmetry_space_group_name_H-M	'P1'
_symmetry_Int_Tables_number	1
_symmetry_cell_setting	triclinic
loop_
_symmetry_equiv_pos_as_xyz
  x,y,z
_cell_length_a	27.732048
_cell_length_b	27.731996
_cell_length_c	15.500227
_cell_angle_alpha	92.797931
_cell_angle_beta	87.184618
_cell_angle_gamma	82.632022
loop_
_atom_site_label
_atom_site_type_symbol
_atom_site_fract_x
_atom_site_fract_y
_atom_site_fract_z
O1	O	0.643179	0.055261	-0.071843
O2	O	0.502385	0.064006	-0.071871
O3	O	0.577167	-0.010765	-0.071837
O4	O	0.568397	0.130031	-0.071876
O5	O	0.572629	-0.006245	0.072050
O6	O	0.497847	0.068525	0.072016
O7	O	0.638641	0.059780	0.072044
Cu8	Cu	0.567830	0.064565	0.085168
Cu9	Cu	0.573196	0.059220	-0.084995
O10	O	0.563859	0.134551	0.072010
C11	C	0.482109	0.066082	0.000069
C12	C	0.428455	0.065529	0.000060
C13	C	0.089631	0.106234	0.000086
C14	C	-0.112028	0.104183	0.000094
O15	O	-0.143292	0.141406	0.000121
N16	N	-0.131144	0.059847	0.000105
C17	C	-0.099842	0.016021	0.000119
O18	O	-0.120728	-0.021736	0.000138
C19	C	0.101816	0.018073	0.000117
C20	C	0.120930	0.062411	0.000098
C21	C	0.108745	0.150569	0.000067
C22	C	0.159157	0.151081	0.000060
C23	C	0.190455	0.107258	0.000072
C24	C	0.171342	0.062923	0.000091
C25	C	0.133118	-0.025753	0.000138
C26	C	0.183535	-0.025236	0.000139
C27	C	0.202648	0.019103	0.000120
C28	C	0.253052	0.019612	0.000096
N29	N	0.272168	0.063948	0.000085
C30	C	0.240869	0.107771	0.000073
C31	C	-0.205716	0.014947	0.000119
C32	C	-0.256130	0.014434	0.000118
C33	C	-0.268313	0.102597	0.000094
C34	C	-0.217898	0.103109	0.000089
C35	C	-0.186600	0.059283	0.000108
C36	C	0.346739	0.108843	0.000058
C37	C	0.397156	0.109352	0.000048
C38	C	0.409335	0.021189	0.000076
C39	C	0.358922	0.020681	0.000082
C40	C	0.327625	0.064512	0.000076
O41	O	0.284344	-0.017590	0.000078
O42	O	0.261765	0.145524	0.000074
C43	C	0.039219	0.105722	0.000093
C44	C	0.020105	0.061387	0.000111
C45	C	0.051404	0.017564	0.000123
C46	C	-0.030309	0.060874	0.000110
C47	C	-0.061607	0.104697	0.000098
C48	C	-0.042492	0.149033	0.000088
C49	C	0.007920	0.149545	0.000081
C50	C	0.032288	-0.026772	0.000134
C51	C	-0.018124	-0.027280	0.000140
C52	C	-0.049423	0.016543	0.000128
C53	C	0.574718	-0.026512	0.000109
C54	C	0.574175	-0.080168	0.000118
C55	C	0.573235	-0.415350	-0.078358
C56	C	0.571175	-0.617008	-0.078373
O57	O	0.572991	-0.645174	-0.145078
N58	N	0.568445	-0.639762	0.000058
C59	C	0.566227	-0.612097	0.078500
O60	O	0.563853	-0.636077	0.145211
C61	C	0.568284	-0.410439	0.078514
C62	C	0.571019	-0.387689	0.000078
C63	C	0.575969	-0.392599	-0.156788
C64	C	0.576487	-0.342188	-0.156784
C65	C	0.574271	-0.314527	-0.078348
C66	C	0.571537	-0.337277	0.000082
C67	C	0.566063	-0.382774	0.156955
C68	C	0.566576	-0.332357	0.156952
C69	C	0.569311	-0.309607	0.078515
C70	C	0.569838	-0.259205	0.078522
N71	N	0.572568	-0.236452	0.000090
C72	C	0.574784	-0.264112	-0.078345
C73	C	0.565148	-0.717971	0.078487
C74	C	0.564635	-0.768385	0.078483
C75	C	0.569581	-0.773293	-0.078390
C76	C	0.570098	-0.722878	-0.078386
C77	C	0.567878	-0.695217	0.000055
C78	C	0.575871	-0.158245	-0.078329
C79	C	0.576391	-0.107829	-0.078317
C80	C	0.571442	-0.102926	0.078555
C81	C	0.570925	-0.153337	0.078544
C82	C	0.573138	-0.180996	0.000095
O83	O	0.568018	-0.231008	0.145192
O84	O	0.577147	-0.240122	-0.145046
C85	C	0.572717	-0.465761	-0.078362
C86	C	0.569983	-0.488511	0.000068
C87	C	0.567767	-0.460850	0.078503
C88	C	0.569470	-0.538926	0.000065
C89	C	0.571686	-0.566587	-0.078371
C90	C	0.574416	-0.543833	-0.156802
C91	C	0.574933	-0.493422	-0.156798
C92	C	0.565038	-0.483604	0.156935
C93	C	0.564521	-0.534016	0.156924
C94	C	0.566737	-0.561676	0.078489
C95	C	0.658917	0.057704	0.000102
C96	C	0.712571	0.058257	0.000106
C97	C	0.566308	0.150298	0.000062
C98	C	0.566851	0.203954	0.000048
N99	N	0.564059	0.068324	0.204851
N100	N	0.576971	0.055458	-0.204678
C101	C	0.595757	0.036653	0.250142
C102	C	0.592910	0.039500	0.340714
C103	C	0.558365	0.074022	0.385993
C104	C	0.526663	0.105694	0.340696
C105	C	0.529509	0.102844	0.250126
C106	C	0.548115	0.084280	0.659455
C107	C	0.545272	0.087129	0.750031
C108	C	0.611518	0.020934	0.750043
C109	C	0.614363	0.018089	0.659471
C110	C	0.582659	0.049760	0.614182
C111	C	0.555455	0.076934	0.478571
C112	C	0.585568	0.046845	0.521605
H113	H	-0.271687	-0.021671	0.000120
Br114	Br	0.505090	0.127262	0.597996
H115	H	0.503696	0.128634	0.213251
Br116	Br	0.107192	-0.085931	0.000145
Br117	Br	0.479777	0.152542	0.402142
H118	H	0.564761	-0.309836	0.220829
H119	H	-0.033681	-0.063389	0.000149
H120	H	0.412715	0.145459	0.000031
H121	H	0.613692	0.018736	0.484736
Br122	Br	0.567225	-0.184215	0.184995
Br123	Br	0.451820	-0.038282	0.000094
H124	H	0.209016	-0.060925	0.000156
H125	H	0.642492	-0.010021	0.622607
Br126	Br	0.568436	-0.065376	0.184998
Br127	Br	0.332982	-0.039493	0.000111
H128	H	0.577160	-0.474903	-0.220669
Br129	Br	0.033851	0.209722	0.000053
H130	H	0.571386	-0.795823	-0.142256
H131	H	-0.067984	0.184715	0.000075
H132	H	0.563837	-0.401289	0.220827
Br133	Br	0.654542	-0.022047	0.811510
H134	H	0.321262	0.144535	0.000056
Br135	Br	0.578875	-0.195774	-0.184797
H136	H	0.576222	-0.566364	-0.220667
H137	H	0.527329	0.105043	0.515445
Br138	Br	0.580195	-0.311320	-0.263240
H139	H	0.083266	0.186257	0.000061
Br140	Br	0.185087	0.211258	0.000038
Br141	Br	0.560813	-0.564885	0.263385
Br142	Br	0.580105	-0.076958	-0.184775
H143	H	-0.202340	0.139213	0.000078
H144	H	-0.180237	-0.020743	0.000134
Br145	Br	-0.310799	0.162070	0.000079
Br146	Br	0.573809	-0.692008	-0.184840
Br147	Br	0.578977	-0.430130	-0.263251
H148	H	0.057767	-0.062459	0.000146
H149	H	0.562416	-0.786905	0.142354
Br150	Br	0.562131	-0.680437	0.184953
Br151	Br	0.562024	-0.446071	0.263394
H152	H	0.623889	0.008544	0.213282
Br153	Br	0.635928	-0.003484	0.402183
H154	H	0.517141	0.115242	0.786893
