data_functionalizedCrystal
_audit_creation_method	'MofGen! by Chris Wilmer'
_symmetry_space_group_name_H-M	'P1'
_symmetry_Int_Tables_number	1
_symmetry_cell_setting	triclinic
loop_
_symmetry_equiv_pos_as_xyz
  x,y,z
_cell_length_a	19.805407
_cell_length_b	19.121063
_cell_length_c	19.805398
_cell_angle_alpha	92.409806
_cell_angle_beta	89.986879
_cell_angle_gamma	92.469032
loop_
_atom_site_label
_atom_site_type_symbol
_atom_site_fract_x
_atom_site_fract_y
_atom_site_fract_z
Zn1	Zn	1.023190	-0.279623	-0.394203
Zn2	Zn	1.523190	0.220377	0.105797
Zn3	Zn	1.018285	-0.397078	-0.285838
Zn4	Zn	1.518285	0.102922	0.214162
Zn5	Zn	0.910016	-0.279645	-0.281028
Zn6	Zn	1.410016	0.220355	0.218972
Zn7	Zn	0.905138	-0.397038	-0.398983
Zn8	Zn	1.405138	0.102962	0.101017
O9	O	0.964157	-0.338346	-0.340013
O10	O	1.464157	0.161654	0.159987
O11	O	1.117255	-0.295211	-0.379840
O12	O	1.617255	0.204789	0.120160
O13	O	1.003913	-0.381526	-0.190484
O14	O	1.503913	0.118474	0.309516
O15	O	0.929123	-0.181357	-0.292027
O16	O	1.429123	0.318643	0.207973
O17	O	1.113652	-0.381505	-0.300225
O18	O	1.613652	0.118495	0.199775
O19	O	1.012271	-0.181342	-0.375176
O20	O	1.512271	0.318658	0.124824
O21	O	0.924368	-0.295248	-0.186950
O22	O	1.424368	0.204752	0.313050
O23	O	0.814653	-0.295210	-0.296663
O24	O	1.314653	0.204790	0.203337
O25	O	0.920808	-0.381437	-0.493064
O26	O	1.420808	0.118563	0.006936
O27	O	0.811069	-0.381458	-0.383323
O28	O	1.311069	0.118542	0.116677
O29	O	1.007541	-0.295173	-0.489552
O30	O	1.507541	0.204827	0.010448
O31	O	0.999182	-0.495357	-0.304860
O32	O	1.499182	0.004643	0.195140
O33	O	0.916053	-0.495328	-0.387987
O34	O	1.416053	0.004672	0.112013
C35	C	0.788302	-0.338333	-0.339990
C36	C	1.288302	0.161667	0.160010
C37	C	0.713069	-0.338344	-0.339997
C38	C	1.213069	0.161656	0.160003
C39	C	0.675874	-0.383321	-0.385054
C40	C	1.175874	0.116679	0.114946
C41	C	0.605185	-0.383322	-0.385064
C42	C	1.105185	0.116678	0.114936
C43	C	0.571694	-0.338349	-0.340013
C44	C	1.071694	0.161651	0.159987
C45	C	0.608894	-0.293367	-0.294954
C46	C	1.108894	0.206633	0.205046
C47	C	0.679582	-0.293363	-0.294948
C48	C	1.179582	0.206637	0.205052
C49	C	0.323820	-0.293383	-0.294977
C50	C	0.823820	0.206617	0.205023
C51	C	0.253128	-0.293392	-0.294985
C52	C	0.753128	0.206608	0.205015
C53	C	0.249424	-0.383342	-0.385093
C54	C	0.749424	0.116658	0.114907
C55	C	0.320111	-0.383338	-0.385087
C56	C	0.820111	0.116662	0.114913
C57	C	0.357306	-0.338353	-0.340031
C58	C	0.857306	0.161647	0.159969
C59	C	0.433954	-0.338352	-0.340022
C60	C	0.933954	0.161648	0.159978
C61	C	0.495046	-0.338354	-0.340018
C62	C	0.995046	0.161646	0.159982
C63	C	0.956574	-0.520827	-0.347479
C64	C	1.456574	-0.020827	0.152521
C65	C	0.953392	-0.598893	-0.350696
C66	C	1.453392	-0.098893	0.149304
C67	C	0.995212	-0.635560	-0.308963
C68	C	1.495212	-0.135560	0.191037
C69	C	0.992223	-0.708912	-0.311992
C70	C	1.492223	-0.208912	0.188008
C71	C	0.947411	-0.745594	-0.356751
C72	C	1.447411	-0.245594	0.143249
C73	C	0.905590	-0.708922	-0.398489
C74	C	1.405590	-0.208922	0.101511
C75	C	0.908582	-0.635572	-0.395462
C76	C	1.408582	-0.135572	0.104538
C77	C	0.936211	-0.967064	-0.368055
C78	C	1.436211	-0.467064	0.131945
C79	C	0.933220	-1.040419	-0.371077
C80	C	1.433220	-0.540419	0.128923
C81	C	1.019855	-1.040404	-0.284581
C82	C	1.519855	-0.540404	0.215419
C83	C	1.022841	-0.967053	-0.281556
C84	C	1.522841	-0.467053	0.218444
C85	C	0.981022	-0.930387	-0.323296
C86	C	1.481022	-0.430387	0.176704
C87	C	0.944353	-0.820571	-0.359847
C88	C	1.444353	-0.320571	0.140153
C89	C	0.984084	-0.855411	-0.320203
C90	C	1.484084	-0.355411	0.179797
C91	C	1.140699	-0.338360	-0.340036
C92	C	1.640699	0.161640	0.159964
C93	C	1.215931	-0.338366	-0.340045
C94	C	1.715931	0.161634	0.159955
C95	C	0.964177	-0.338299	-0.516554
C96	C	1.464177	0.161701	-0.016554
C97	C	0.964186	-0.338278	-0.591785
C98	C	1.464186	0.161722	-0.091785
C99	C	0.971788	-0.155153	-0.332532
C100	C	1.471788	0.344847	0.167468
C101	C	0.975040	-0.077087	-0.329344
C102	C	1.475040	0.422913	0.170656
C103	C	1.005716	-0.383091	-1.055409
C104	C	1.505716	0.116909	-0.555409
C105	C	1.005697	-0.383110	-0.984721
C106	C	1.505697	0.116890	-0.484721
C107	C	0.964273	-0.338199	-0.947543
C108	C	1.464273	0.161801	-0.447543
C109	C	0.922861	-0.293271	-0.981057
C110	C	1.422861	0.206729	-0.481057
C111	C	0.922878	-0.293256	-1.051744
C112	C	1.422878	0.206744	-0.551744
C113	C	0.922793	-0.293331	-0.695986
C114	C	1.422793	0.206669	-0.195986
C115	C	0.922782	-0.293348	-0.625295
C116	C	1.422782	0.206652	-0.125295
C117	C	1.005612	-0.383186	-0.628964
C118	C	1.505612	0.116814	-0.128964
C119	C	1.005629	-0.383171	-0.699650
C120	C	1.505629	0.116829	-0.199650
C121	C	0.964215	-0.338245	-0.733158
C122	C	1.464215	0.161755	-0.233158
C123	C	0.964235	-0.338226	-0.809806
C124	C	1.464235	0.161774	-0.309806
C125	C	0.964256	-0.338214	-0.870897
C126	C	1.464256	0.161786	-0.370897
C127	C	0.964178	-0.338343	-0.164157
C128	C	1.464178	0.161657	0.335843
C129	C	0.964309	-0.338165	-0.088918
C130	C	1.464309	0.161835	0.411082
H131	H	0.225861	-0.256765	-0.258298
H132	H	0.725861	0.243235	0.241702
Cl133	Cl	1.040420	-0.809295	-0.263939
Cl134	Cl	1.540420	-0.309295	0.236061
H135	H	1.039406	-0.419702	-0.957442
H136	H	1.539406	0.080298	-0.457442
H137	H	0.889130	-0.256707	-0.950781
H138	H	1.389130	0.243293	-0.450781
Cl139	Cl	1.079188	-0.920943	-0.225294
Cl140	Cl	1.579188	-0.420943	0.274706
H141	H	0.896737	-1.070284	-0.407537
H142	H	1.396737	-0.570284	0.092463
Cl143	Cl	0.870701	-0.236885	-0.578557
Cl144	Cl	1.370701	0.263115	-0.078557
H145	H	0.574904	-0.419948	-0.421753
H146	H	1.074904	0.080052	0.078247
H147	H	1.039332	-0.419768	-0.601673
H148	H	1.539332	0.080232	-0.101673
H149	H	0.219132	-0.419968	-0.421782
H150	H	0.719132	0.080032	0.078218
Cl151	Cl	0.362211	-0.439880	-0.441723
Cl152	Cl	0.862211	0.060120	0.058277
Cl153	Cl	1.057707	-0.439632	-0.746384
Cl154	Cl	1.557707	0.060368	-0.246384
H155	H	0.709866	-0.256734	-0.258261
H156	H	1.209866	0.243266	0.241739
Cl157	Cl	0.870824	-0.236771	-1.093869
Cl158	Cl	1.370824	0.263229	-0.593869
H159	H	0.354095	-0.256759	-0.258284
H160	H	0.854095	0.243241	0.241716
Cl161	Cl	1.057799	-0.439551	-1.102140
Cl162	Cl	1.557799	0.060449	-0.602140
Cl163	Cl	1.051546	-0.589452	-0.252687
Cl164	Cl	1.551546	-0.089452	0.247313
Cl165	Cl	0.717971	-0.439865	-0.441691
Cl166	Cl	1.217971	0.060135	0.058309
Cl167	Cl	0.566790	-0.236825	-0.238322
Cl168	Cl	1.066790	0.263175	0.261678
H169	H	1.026277	-0.738763	-0.278008
H170	H	1.526277	-0.238763	0.221992
Cl171	Cl	1.072428	-1.086503	-0.232116
Cl172	Cl	1.572428	-0.586503	0.267884
Cl173	Cl	0.883637	-0.920979	-0.420528
Cl174	Cl	1.383637	-0.420979	0.079472
Cl175	Cl	0.856009	-0.589475	-0.447931
Cl176	Cl	1.356009	-0.089475	0.052069
Cl177	Cl	0.849258	-0.755037	-0.454762
Cl178	Cl	1.349258	-0.255037	0.045238
Cl179	Cl	0.888019	-0.866692	-0.416114
Cl180	Cl	1.388019	-0.366692	0.083886
H181	H	0.889070	-0.256751	-0.723259
H182	H	1.389070	0.243249	-0.223259
