data_functionalizedCrystal
_audit_creation_method	'MofGen! by Chris Wilmer'
_symmetry_space_group_name_H-M	'P1'
_symmetry_Int_Tables_number	1
_symmetry_cell_setting	triclinic
loop_
_symmetry_equiv_pos_as_xyz
  x,y,z
_cell_length_a	14.519709
_cell_length_b	17.699083
_cell_length_c	16.776229
_cell_angle_alpha	90.007545
_cell_angle_beta	90.001522
_cell_angle_gamma	83.481580
loop_
_atom_site_label
_atom_site_type_symbol
_atom_site_fract_x
_atom_site_fract_y
_atom_site_fract_z
O1	O	-1.223449	-0.099215	-0.066186
O2	O	-0.954923	-0.110899	-0.066211
O3	O	-1.096772	0.005110	-0.066191
O4	O	-1.081599	-0.215225	-0.066206
O5	O	-1.096754	0.005117	0.066386
O6	O	-0.954904	-0.110892	0.066366
O7	O	-1.223430	-0.099208	0.066390
Zn8	Zn	-1.089164	-0.105049	0.087428
Zn9	Zn	-1.089189	-0.105058	-0.087248
O10	O	-1.081580	-0.215218	0.066370
C11	C	-1.096219	0.033312	0.000098
C12	C	-1.094588	0.117335	0.000098
C13	C	-0.920556	-0.110351	0.000075
C14	C	-0.818181	-0.108719	0.000065
C15	C	-1.257797	-0.099756	0.000104
C16	C	-1.360171	-0.101388	0.000107
C17	C	-0.443311	-0.102712	0.000102
C18	C	-0.547612	-0.104380	0.000092
C19	C	-0.630743	-0.105716	0.000083
C20	C	-0.735050	-0.107384	0.000074
C21	C	-1.082134	-0.243420	0.000080
C22	C	-1.083765	-0.327442	0.000075
N23	N	-1.089154	-0.105042	0.206639
C24	C	-1.177851	0.165718	0.000107
C25	C	-1.176313	0.244665	0.000099
C26	C	-1.091511	0.275229	0.000089
C27	C	-1.008242	0.226840	0.000078
C28	C	-1.009781	0.147894	0.000080
C29	C	-1.002033	0.545221	0.000071
C30	C	-1.000501	0.624173	0.000072
C31	C	-1.168566	0.641992	0.000091
C32	C	-1.170105	0.563046	0.000092
C33	C	-1.086836	0.514664	0.000077
C34	C	-1.088505	0.429060	0.000083
C35	C	-1.089841	0.360831	0.000089
N36	N	-1.089206	-0.105059	-0.206459
C37	C	-1.151984	-0.053694	0.248365
C38	C	-1.151989	-0.053694	0.331817
C39	C	-1.089168	-0.105045	0.373542
C40	C	-1.026331	-0.156395	0.331810
C41	C	-1.026322	-0.156392	0.248359
C42	C	-1.026364	-0.156410	0.668357
C43	C	-1.026380	-0.156411	0.751814
C44	C	-1.152031	-0.053712	0.751815
C45	C	-1.152022	-0.053709	0.668364
C46	C	-1.089183	-0.105056	0.626640
C47	C	-1.089177	-0.105055	0.536151
C48	C	-1.089177	-0.105050	0.464028
H49	H	-1.246907	0.140840	0.000120
C50	C	-1.263388	0.529427	0.000099
C51	C	-1.354978	0.582647	0.000101
C52	C	-1.448263	0.549029	0.000103
C53	C	-1.449958	0.462192	0.000103
C54	C	-1.358364	0.408967	0.000101
C55	C	-1.265079	0.442584	0.000099
H56	H	-1.353727	0.646934	0.000102
H57	H	-1.516067	0.588430	0.000105
H58	H	-1.519013	0.437306	0.000105
H59	H	-1.359615	0.344680	0.000101
H60	H	-1.197275	0.403183	0.000098
H61	H	-0.941980	0.108501	0.000072
H62	H	-0.975158	-0.198203	0.214387
H63	H	-0.975200	-0.198220	0.634392
C64	C	-1.221105	0.002786	0.377720
C65	C	-1.290235	0.059253	0.331831
C66	C	-1.359353	0.115734	0.377736
C67	C	-1.359340	0.115748	0.469528
C68	C	-1.290208	0.059279	0.515422
C69	C	-1.221090	0.002797	0.469517
H70	H	-1.290247	0.059244	0.263877
H71	H	-1.410529	0.157537	0.343762
H72	H	-1.410505	0.157559	0.503509
H73	H	-1.290196	0.059287	0.583376
H74	H	-1.169913	-0.039005	0.503491
C75	C	-1.260165	0.695215	0.000098
C76	C	-1.282208	0.751951	0.068940
C77	C	-1.373805	0.805171	0.068950
C78	C	-1.443358	0.801655	0.000117
C79	C	-1.421316	0.744916	-0.068730
C80	C	-1.329720	0.691696	-0.068740
H81	H	-1.230719	0.754557	0.119899
H82	H	-1.390121	0.847173	0.119915
H83	H	-1.511163	0.841051	0.000124
H84	H	-1.472805	0.742311	-0.119689
H85	H	-1.313404	0.649694	-0.119706
C86	C	-0.957225	-0.212884	0.377703
C87	C	-0.957273	-0.212931	0.469495
C88	C	-0.888167	-0.269423	0.515385
C89	C	-0.819013	-0.325869	0.469483
C90	C	-0.818962	-0.325825	0.377685
C91	C	-0.888068	-0.269332	0.331795
H92	H	-1.008468	-0.171144	0.503480
H93	H	-0.888205	-0.269456	0.583340
H94	H	-0.767857	-0.367688	0.503453
H95	H	-0.767768	-0.367611	0.343701
H96	H	-0.888030	-0.269300	0.263840
H97	H	-1.203180	-0.011896	0.634394
C98	C	-0.907213	0.657794	0.000054
C99	C	-0.838075	0.639596	0.068883
C100	C	-0.744793	0.673218	0.068866
C101	C	-0.720648	0.725038	0.000020
C102	C	-0.789787	0.743239	-0.068814
C103	C	-0.883069	0.709618	-0.068797
H104	H	-0.855948	0.601233	0.119851
H105	H	-0.693612	0.659743	0.119821
H106	H	-0.651595	0.749927	0.000007
H107	H	-0.771914	0.781602	-0.119783
H108	H	-0.934250	0.723092	-0.119753
H109	H	-1.244114	0.284056	0.000108
H110	H	-0.939195	0.251731	0.000065
C111	C	-0.910440	0.492008	0.000071
C112	C	-0.817163	0.525629	0.000073
C113	C	-0.725565	0.472412	0.000079
C114	C	-0.727244	0.385573	0.000083
C115	C	-0.820525	0.351947	0.000081
C116	C	-0.912123	0.405164	0.000075
H117	H	-0.815916	0.589917	0.000070
H118	H	-0.656512	0.497305	0.000081
H119	H	-0.659437	0.346178	0.000088
H120	H	-0.821771	0.287659	0.000084
H121	H	-0.981176	0.380271	0.000074
C122	C	-1.221151	0.002779	0.797713
C123	C	-1.219809	0.088970	0.786248
C124	C	-1.288929	0.145458	0.832144
C125	C	-1.359390	0.115753	0.889503
C126	C	-1.360735	0.029557	0.900970
C127	C	-1.291615	-0.026930	0.855075
H128	H	-1.167647	0.110963	0.743785
H129	H	-1.287933	0.209266	0.823655
H130	H	-1.410557	0.157568	0.923477
H131	H	-1.412897	0.007564	0.943433
H132	H	-1.292611	-0.090738	0.863564
H133	H	-1.203144	-0.011881	0.214398
H134	H	-0.975220	-0.198229	0.785785
