data_functionalizedCrystal
_audit_creation_method	'MofGen! by Chris Wilmer'
_symmetry_space_group_name_H-M	'P1'
_symmetry_Int_Tables_number	1
_symmetry_cell_setting	triclinic
loop_
_symmetry_equiv_pos_as_xyz
  x,y,z
_cell_length_a	20.919309
_cell_length_b	20.919309
_cell_length_c	20.919292
_cell_angle_alpha	124.240686
_cell_angle_beta	93.152155
_cell_angle_gamma	60.099716
loop_
_atom_site_label
_atom_site_type_symbol
_atom_site_fract_x
_atom_site_fract_y
_atom_site_fract_z
Zr1	Zr	0.672827	0.648320	0.083068
O2	O	0.578563	0.789228	0.194456
O3	O	0.697782	0.512813	0.045478
O4	O	0.711088	0.645336	0.183686
O5	O	0.559245	0.657175	-0.048856
O6	O	0.820110	0.636838	0.179108
O7	O	0.565257	0.656705	0.056248
O8	O	0.796309	0.399779	-0.068121
O9	O	0.583047	0.894234	0.198373
O10	O	0.794550	0.560207	0.030190
O11	O	0.708701	0.566899	-0.044831
O12	O	0.724367	0.722928	0.117891
O13	O	0.638518	0.729621	0.042870
Zr14	Zr	0.837116	0.635517	-0.091862
Zr15	Zr	0.846705	0.634767	0.075767
Zr16	Zr	0.663238	0.649070	-0.084561
Zr17	Zr	0.679978	0.815793	0.089315
Zr18	Zr	0.829965	0.468043	-0.098109
O19	O	0.812161	0.771024	-0.054272
O20	O	0.825795	0.769957	0.184074
O21	O	0.564929	0.790294	-0.043891
O22	O	0.931381	0.494609	-0.203250
O23	O	0.945014	0.493543	0.035097
O24	O	0.684149	0.513879	-0.192868
O25	O	0.950699	0.626662	0.040062
O26	O	0.798855	0.638501	-0.192480
O27	O	0.689833	0.646999	-0.187902
O28	O	0.944687	0.627132	-0.065042
O29	O	0.721256	0.883462	0.192569
O30	O	0.788687	0.400375	-0.201363
O31	O	0.926897	0.389602	-0.207167
O32	O	0.934518	0.389006	-0.073924
O33	O	0.575425	0.894831	0.065130
O34	O	0.713635	0.884058	0.059326
O35	O	0.785576	0.560909	-0.126685
O36	O	0.871425	0.554216	-0.051664
O37	O	0.801242	0.716937	0.036037
O38	O	0.715393	0.723630	-0.038985
C39	C	0.746027	0.432434	-0.012211
C40	C	0.742991	0.361337	-0.014863
C41	C	0.786374	0.324443	0.023051
C42	C	0.783523	0.257634	0.020552
C43	C	0.737284	0.227727	-0.019858
C44	C	0.693899	0.264625	-0.057777
C45	C	0.696754	0.331427	-0.055282
C46	C	0.726423	0.026199	-0.029355
C47	C	0.723569	-0.040606	-0.031845
C48	C	0.813195	-0.047593	0.046483
C49	C	0.816043	0.019215	0.048978
C50	C	0.772661	0.056103	0.011055
C51	C	0.734367	0.159441	-0.022412
C52	C	0.775583	0.124383	0.013605
C53	C	0.537477	0.658871	0.004736
C54	C	0.463661	0.664624	0.007836
C55	C	0.465615	0.582391	-0.036483
C56	C	0.396255	0.587802	-0.033568
C57	C	0.324942	0.675448	0.013670
C58	C	0.322990	0.757688	0.057990
C59	C	0.392349	0.752276	0.055070
C60	C	0.113689	0.696040	0.024771
C61	C	0.044328	0.701446	0.027689
C62	C	0.117598	0.531559	-0.063871
C63	C	0.186956	0.526155	-0.066782
C64	C	0.184997	0.608395	-0.022466
C65	C	0.254044	0.680982	0.016652
C66	C	0.255894	0.602860	-0.025453
C67	C	0.972466	0.624966	-0.013530
C68	C	1.046282	0.619213	-0.016630
C69	C	0.766965	0.640980	0.205281
C70	C	0.771036	0.640662	0.276443
C71	C	0.763917	0.851403	0.003417
C72	C	0.766953	0.922500	0.006069
C73	C	0.797065	0.638639	0.678806
C74	C	0.793237	0.638941	0.611943
C75	C	0.731264	0.643767	0.581030
C76	C	0.673109	0.648300	0.616989
C77	C	0.676934	0.648004	0.683854
C78	C	0.716707	0.644899	0.379268
C79	C	0.712887	0.645192	0.312396
C80	C	0.833015	0.635835	0.307356
C81	C	0.836837	0.635534	0.374220
C82	C	0.778681	0.640072	0.410176
C83	C	0.727351	0.644073	0.512683
C84	C	0.782591	0.639772	0.478525
C85	C	0.742980	0.642855	0.785924
C86	C	0.738916	0.643169	0.714759
C87	C	0.963521	0.415482	-0.021344
C88	C	1.034301	0.338631	-0.027096
C89	C	0.734033	0.433373	-0.221889
C90	C	0.726926	0.362594	-0.295704
C91	C	0.951528	0.416420	-0.231022
C92	C	1.018237	0.339888	-0.307936
C93	C	0.558416	0.867417	0.222228
C94	C	0.491706	0.943949	0.299142
C95	C	0.546422	0.868355	0.012550
C96	C	0.475642	0.945205	0.018302
C97	C	0.775911	0.850464	0.213095
C98	C	0.783017	0.921243	0.286910
C99	C	1.027412	0.305669	0.012937
C100	C	1.093912	0.233469	0.007549
C101	C	1.167300	0.194229	-0.037877
C102	C	1.174187	0.227199	-0.077911
C103	C	1.107688	0.299401	-0.072518
C104	C	0.763717	0.326229	-0.373102
C105	C	0.757036	0.259735	-0.442465
C106	C	0.713570	0.229602	-0.434428
C107	C	0.676775	0.265974	-0.357021
C108	C	0.683451	0.332472	-0.287660
C109	C	1.094384	0.300454	-0.304896
C110	C	1.157072	0.228553	-0.377159
C111	C	1.143611	0.196083	-0.452461
C112	C	1.067456	0.235524	-0.455499
C113	C	1.004770	0.307429	-0.383237
C114	C	0.415560	0.983391	0.296102
C115	C	0.352873	1.055313	0.368366
C116	C	0.366334	1.087786	0.443668
C117	C	0.442488	1.048341	0.446706
C118	C	0.505174	0.976425	0.374444
C119	C	0.482532	0.978175	-0.021724
C120	C	0.416034	1.050393	-0.016317
C121	C	0.342646	1.089635	0.029112
C122	C	0.335759	1.056663	0.069143
C123	C	0.402256	0.984451	0.063740
C124	C	0.826490	0.951354	0.278846
C125	C	0.833182	1.017847	0.348196
C126	C	0.796397	1.054234	0.425608
C127	C	0.752923	1.024117	0.433670
C128	C	0.746235	0.957619	0.364321
H129	H	0.853695	0.043563	0.081883
H130	H	0.710832	0.933111	0.370897
H131	H	0.523678	0.511019	-0.074953
H132	H	0.840586	0.635253	0.582671
H133	H	0.641384	0.241430	-0.350489
Br134	Br	1.260415	0.175038	-0.373017
Br135	Br	0.892181	1.058710	0.337236
Br136	Br	0.631159	0.224021	-0.112637
H137	H	0.453440	1.074790	0.508026
H138	H	0.397853	0.520839	-0.069659
Br139	Br	1.084547	0.188739	0.061884
Br140	Br	0.608514	0.922899	0.378584
Br141	Br	0.249530	1.108830	0.364224
H142	H	1.221441	0.135437	-0.042263
H143	H	0.315284	1.146345	0.502503
Br144	Br	0.283736	0.407202	-0.130891
Br145	Br	1.273790	0.173932	-0.139561
H146	H	0.661425	0.361469	-0.086154
Br147	Br	0.805479	1.144483	0.519718
Br148	Br	0.120250	0.419955	-0.124014
H149	H	0.542281	0.946229	-0.058722
H150	H	0.824024	0.348792	0.055961
Br151	Br	0.842387	0.207584	0.072029
Br152	Br	0.702997	1.073516	0.538736
H153	H	0.696718	0.135083	-0.055313
H154	H	0.662418	0.649121	0.287229
Br155	Br	0.872069	-0.097660	0.097945
Br156	Br	0.598011	0.654162	0.732652
H157	H	0.813235	0.148732	0.046503
H158	H	0.787003	0.230128	-0.505486
Br159	Br	0.352675	0.483915	-0.089570
H160	H	0.887301	0.631604	0.399388
Br161	Br	0.157257	0.799927	0.080757
H162	H	0.847533	0.634703	0.703968
Br163	Br	0.911936	0.629679	0.258558
Br164	Br	0.633518	0.381814	-0.182622
Br165	Br	0.425399	1.095124	-0.070652
H166	H	0.404585	0.956956	0.234794
Br167	Br	0.660806	-0.081188	-0.086685
H168	H	0.856446	0.921737	0.215820
Br169	Br	0.252406	1.187638	0.036436
Br170	Br	0.667553	0.076247	-0.080829
H171	H	0.275998	1.088625	0.106130
Br172	Br	1.117051	0.344123	-0.126860
Br173	Br	1.228694	0.098496	-0.550525
H174	H	0.708140	0.175455	-0.490913
Br175	Br	0.822716	0.367103	-0.384033
H176	H	0.676892	0.647999	0.487507
Br177	Br	0.637784	0.651055	0.428060
H178	H	1.105359	0.326880	-0.243588
H179	H	1.056507	0.209076	-0.516820
Br180	Br	0.392892	0.939711	0.118063
Br181	Br	-0.052457	0.820403	0.091814
Br182	Br	0.226207	0.876638	0.122091
Br183	Br	0.901429	0.360935	-0.387378
Br184	Br	0.866692	0.633232	0.520483
Br185	Br	0.389695	0.863883	0.115213
H186	H	0.967664	0.337617	0.049938
H187	H	0.112085	0.763005	0.060870
H188	H	0.622646	0.652235	0.591818
