data_functionalizedCrystal
_audit_creation_method	'MofGen! by Chris Wilmer'
_symmetry_space_group_name_H-M	'P1'
_symmetry_Int_Tables_number	1
_symmetry_cell_setting	triclinic
loop_
_symmetry_equiv_pos_as_xyz
  x,y,z
_cell_length_a	18.627263
_cell_length_b	18.627226
_cell_length_c	18.627297
_cell_angle_alpha	89.996209
_cell_angle_beta	120.000334
_cell_angle_gamma	119.999686
loop_
_atom_site_label
_atom_site_type_symbol
_atom_site_fract_x
_atom_site_fract_y
_atom_site_fract_z
O1	O	0.513834	-0.611892	0.021362
O2	O	0.366829	-0.507493	-0.021249
O3	O	0.513829	-0.507493	0.125751
O4	O	0.366834	-0.611892	-0.125638
O5	O	0.633223	-0.388096	0.125738
O6	O	0.486222	-0.388096	-0.021261
O7	O	0.633228	-0.492495	0.021349
Cu8	Cu	0.570626	-0.429394	0.000042
Cu9	Cu	0.429430	-0.570594	0.000058
O10	O	0.486227	-0.492495	-0.125651
C11	C	0.356041	-0.256984	-0.030930
C12	C	0.406441	-0.162286	-0.024827
C13	C	0.398834	-0.300588	-0.031543
C14	C	0.226036	-0.386987	-0.030937
C15	C	0.137435	-0.431289	-0.024841
C16	C	0.269027	-0.430393	-0.031550
C17	C	0.356034	-0.386989	-0.030942
C18	C	0.406427	-0.431292	-0.024851
C19	C	0.269034	-0.300586	-0.031538
O20	O	-0.104369	-0.492497	0.021359
O21	O	0.104434	-0.388089	-0.021237
O22	O	0.104424	-0.388113	0.125757
O23	O	-0.104359	-0.492472	-0.125635
O24	O	0.104419	-0.507518	0.125746
O25	O	0.104429	-0.507494	-0.021248
O26	O	-0.104374	-0.611902	0.021349
Cu27	Cu	0.000027	-0.570600	0.000049
Cu28	Cu	0.000033	-0.429390	0.000062
O29	O	-0.104364	-0.611878	-0.125646
C30	C	0.356039	-0.612990	-0.386938
C31	C	0.406434	-0.568691	-0.431241
C32	C	0.269039	-0.699386	-0.430335
C33	C	0.356038	-0.612992	-0.256938
C34	C	0.406431	-0.568694	-0.162245
C35	C	0.269037	-0.699387	-0.300532
C36	C	0.226046	-0.742987	-0.386927
C37	C	0.137452	-0.837681	-0.431219
C38	C	0.398833	-0.569588	-0.300543
C39	C	0.644038	-0.742992	0.031070
C40	C	0.593647	-0.837686	0.024984
C41	C	0.731041	-0.699393	0.031673
C42	C	0.644031	-0.612995	0.031057
C43	C	0.593632	-0.568695	0.024956
C44	C	0.731033	-0.569593	0.031659
C45	C	0.774030	-0.612997	0.031056
C46	C	0.862627	-0.568700	0.024955
C47	C	0.601239	-0.699390	0.031673
O48	O	0.633249	0.125713	0.021386
O49	O	0.486241	-0.125685	-0.021229
O50	O	0.633235	0.021293	0.125773
O51	O	0.486254	-0.021265	-0.125615
O52	O	0.513837	0.021295	0.125778
O53	O	0.366843	-0.125683	-0.021224
O54	O	0.513850	0.125715	0.021391
Cu55	Cu	0.429444	0.000016	0.000084
Cu56	Cu	0.570647	0.000014	0.000078
O57	O	0.366856	-0.021263	-0.125611
O58	O	-0.104335	-1.125673	-0.492399
O59	O	0.104449	-0.874283	-0.388017
O60	O	0.104458	-1.021278	-0.388005
O61	O	-0.104344	-0.978678	-0.492411
O62	O	0.104461	-1.021275	-0.507406
O63	O	0.104452	-0.874279	-0.507418
O64	O	-0.104332	-1.125670	-0.611799
Cu65	Cu	0.000060	-0.999974	-0.570511
Cu66	Cu	0.000057	-0.999978	-0.429306
O67	O	-0.104341	-0.978675	-0.611811
O68	O	0.513828	-0.507494	-0.611849
O69	O	0.366836	-0.611889	-0.507439
O70	O	0.513835	-0.611890	-0.507439
O71	O	0.366830	-0.507492	-0.611849
O72	O	0.633230	-0.492493	-0.388049
O73	O	0.486231	-0.492491	-0.388049
O74	O	0.633223	-0.388096	-0.492459
Cu75	Cu	0.570629	-0.429391	-0.429352
Cu76	Cu	0.429431	-0.570593	-0.570546
O77	O	0.486225	-0.388094	-0.492459
C78	C	0.774012	-0.256999	0.387027
C79	C	0.862606	-0.162306	0.431318
C80	C	0.731020	-0.300600	0.430435
C81	C	0.644019	-0.386995	0.257038
C82	C	0.593625	-0.431294	0.162345
C83	C	0.601225	-0.430398	0.300644
C84	C	0.644019	-0.386995	0.387039
C85	C	0.593625	-0.431294	0.431343
C86	C	0.731020	-0.300600	0.300632
C87	C	0.356026	-0.387047	0.387029
C88	C	0.406419	-0.431355	0.431320
C89	C	0.398827	-0.300652	0.430436
C90	C	0.226027	-0.387029	0.257043
C91	C	0.137425	-0.431318	0.162351
C92	C	0.269025	-0.300634	0.300647
C93	C	0.356032	-0.257043	0.387041
C94	C	0.406433	-0.162349	0.431343
C95	C	0.269019	-0.430441	0.300636
C96	C	-0.355972	-0.742948	-0.386929
C97	C	-0.406372	-0.837641	-0.431232
C98	C	-0.398766	-0.699339	-0.430325
C99	C	-0.225967	-0.612961	-0.256932
C100	C	-0.137365	-0.568672	-0.162240
C101	C	-0.268959	-0.569550	-0.300525
C102	C	-0.355966	-0.612944	-0.386918
C103	C	-0.406360	-0.568636	-0.431208
C104	C	-0.268965	-0.699356	-0.300536
C105	C	0.644011	0.030946	0.387063
C106	C	0.593611	0.024843	0.431362
C107	C	0.731012	0.031545	0.430464
C108	C	0.644021	0.030967	0.257068
C109	C	0.593633	0.024886	0.162376
C110	C	0.731022	0.031566	0.300666
C111	C	0.774009	0.030944	0.387060
C112	C	0.862604	0.024839	0.431356
C113	C	0.601222	0.031568	0.300669
O114	O	0.513872	0.125659	0.492541
O115	O	0.366846	-0.125736	0.388144
O116	O	0.513868	0.021249	0.388153
O117	O	0.366850	-0.021327	0.492532
O118	O	0.633244	0.021224	0.507557
O119	O	0.486222	-0.125762	0.507548
O120	O	0.633248	0.125633	0.611945
Cu121	Cu	0.570635	-0.000067	0.570649
Cu122	Cu	0.429459	-0.000036	0.429440
O123	O	0.486226	-0.021352	0.611935
C124	C	0.226084	-0.030914	-0.386898
C125	C	0.137489	-0.024809	-0.431195
C126	C	0.269082	-0.031515	-0.430301
C127	C	0.356071	-0.030937	-0.256906
C128	C	0.406458	-0.024857	-0.162213
C129	C	0.398871	-0.031538	-0.300506
C130	C	0.356083	-0.030916	-0.386900
C131	C	0.406484	-0.024813	-0.431198
C132	C	0.269070	-0.031536	-0.300504
H133	H	0.233052	-0.265578	-0.032518
H134	H	0.766977	0.032498	0.501445
H135	H	0.767021	-0.734403	0.032652
H136	H	0.767006	-0.498608	0.032624
C137	C	0.506663	-0.746668	0.032999
C138	C	0.510938	-0.708734	0.109591
C139	C	0.416366	-0.756006	0.110917
C140	C	0.317519	-0.841212	0.035650
C141	C	0.313240	-0.879151	-0.040948
C142	C	0.407812	-0.831879	-0.042273
H143	H	0.584114	-0.645655	0.165313
H144	H	0.419534	-0.727921	0.167620
H145	H	0.247511	-0.876206	0.036632
H146	H	0.240065	-0.942230	-0.096669
H147	H	0.404645	-0.859965	-0.098976
H148	H	0.233046	-0.265623	0.265643
H149	H	-0.233002	-0.734379	-0.265534
C150	C	0.220406	-0.526299	-0.032887
C151	C	0.181736	-0.598607	-0.109492
C152	C	0.133113	-0.694510	-0.110834
C153	C	0.123159	-0.718105	-0.035570
C154	C	0.161830	-0.645795	0.041040
C155	C	0.210453	-0.549892	0.042382
H156	H	0.189104	-0.581142	-0.165212
H157	H	0.104486	-0.748038	-0.167547
H158	H	0.087165	-0.789098	-0.036564
H159	H	0.154462	-0.663260	0.096760
H160	H	0.239080	-0.496364	0.099095
H161	H	0.468838	-0.265582	-0.032532
H162	H	0.468879	-0.032522	-0.265499
H163	H	0.767006	-0.265592	0.501421
H164	H	0.233101	-0.032483	-0.501287
H165	H	0.468833	-0.265661	0.501424
C166	C	0.779612	-0.253318	0.253325
C167	C	0.789531	-0.168114	0.239675
C168	C	0.838113	-0.120838	0.192364
C169	C	0.876776	-0.158766	0.158702
C170	C	0.866858	-0.243975	0.172351
C171	C	0.818276	-0.291251	0.219662
H172	H	0.760910	-0.140034	0.264594
H173	H	0.845455	-0.057761	0.182260
H174	H	0.912739	-0.123770	0.123679
H175	H	0.895479	-0.272056	0.147432
H176	H	0.810934	-0.354328	0.229766
C177	C	0.779642	0.032890	0.253385
C178	C	0.889895	0.109478	0.291318
C179	C	0.938516	0.110800	0.244042
C180	C	0.876884	0.035535	0.158832
C181	C	0.766624	-0.041058	0.120894
C182	C	0.718003	-0.042381	0.168171
H183	H	0.935525	0.165199	0.354399
H184	H	1.020138	0.167500	0.272126
H185	H	0.912876	0.036514	0.123836
H186	H	0.720994	-0.096779	0.057813
H187	H	0.636382	-0.099081	0.140086
H188	H	0.233060	-0.734390	-0.265520
C189	C	0.220437	-0.032884	-0.253228
C190	C	0.181754	-0.109501	-0.219597
C191	C	0.133115	-0.110858	-0.172329
C192	C	0.123159	-0.035597	-0.158691
C193	C	0.161843	0.041026	-0.192323
C194	C	0.210482	0.042382	-0.239591
H195	H	0.189123	-0.165219	-0.229692
H196	H	0.104479	-0.167580	-0.147432
H197	H	0.087153	-0.036601	-0.123700
H198	H	0.154474	0.096743	-0.182228
H199	H	0.239119	0.099104	-0.264487
C200	C	0.493380	-0.473678	-0.253251
C201	C	0.489068	-0.401372	-0.291198
C202	C	0.583598	-0.305460	-0.243904
C203	C	0.682438	-0.281855	-0.158663
C204	C	0.686753	-0.354162	-0.120712
C205	C	0.592224	-0.450074	-0.168006
H206	H	0.415897	-0.418845	-0.354303
H207	H	0.580403	-0.251933	-0.271999
H208	H	0.752415	-0.210855	-0.123653
H209	H	0.759925	-0.336690	-0.057607
H210	H	0.595419	-0.503601	-0.139911
C211	C	0.220422	-0.746681	-0.526231
C212	C	0.210464	-0.831905	-0.549793
C213	C	0.161844	-0.879202	-0.645686
C214	C	0.123183	-0.841275	-0.718017
C215	C	0.133141	-0.756045	-0.694457
C216	C	0.181760	-0.708749	-0.598564
H217	H	0.239084	-0.859986	-0.496248
H218	H	0.154474	-0.942295	-0.663127
H219	H	0.087193	-0.876286	-0.789003
H220	H	0.104520	-0.727965	-0.748002
H221	H	0.189131	-0.645656	-0.581124
H222	H	0.233039	-0.501426	0.265630
H223	H	-0.232972	-0.498565	-0.265512
H224	H	0.531212	0.032550	0.265669
H225	H	-0.468774	-0.734337	-0.501312
H226	H	0.531208	-0.501380	0.265637
