data_functionalizedCrystal
_audit_creation_method	'MofGen! by Chris Wilmer'
_symmetry_space_group_name_H-M	'P1'
_symmetry_Int_Tables_number	1
_symmetry_cell_setting	triclinic
loop_
_symmetry_equiv_pos_as_xyz
  x,y,z
_cell_length_a	10.540539
_cell_length_b	10.654550
_cell_length_c	9.730223
_cell_angle_alpha	90.000193
_cell_angle_beta	89.998168
_cell_angle_gamma	84.505197
loop_
_atom_site_label
_atom_site_type_symbol
_atom_site_fract_x
_atom_site_fract_y
_atom_site_fract_z
O1	O	-1.685816	-0.176987	-0.114221
O2	O	-1.316397	-0.193663	-0.114238
O3	O	-1.509600	-0.002588	-0.114224
O4	O	-1.492613	-0.368061	-0.114235
O5	O	-1.509598	-0.002593	0.114356
O6	O	-1.316395	-0.193668	0.114342
O7	O	-1.685814	-0.176991	0.114359
Zn8	Zn	-1.501104	-0.185330	0.150642
Zn9	Zn	-1.501107	-0.185324	-0.150522
O10	O	-1.492611	-0.368066	0.114345
C11	C	-1.269094	-0.192415	0.000050
C12	C	-1.128147	-0.188673	0.000044
C13	C	-1.508352	0.044208	0.000064
C14	C	-1.504620	0.183652	0.000059
C15	C	-1.733118	-0.178240	0.000068
C16	C	-1.874064	-0.181981	0.000065
C17	C	-0.944772	-0.045302	0.000581
C18	C	-1.091388	-0.049095	0.000052
C19	C	-1.066451	-0.255841	-0.130484
C20	C	-0.919909	-0.251078	-0.130579
C21	C	-0.919417	-0.253923	0.129359
C22	C	-1.066398	-0.255208	0.131070
C23	C	-1.493859	-0.414862	0.000054
C24	C	-1.497591	-0.554306	0.000050
N25	N	-1.501111	-0.185334	0.356179
C26	C	-1.618375	0.263098	0.000068
C27	C	-1.614861	0.394120	0.000059
C28	C	-1.383827	0.366238	0.000036
C29	C	-1.387343	0.235218	0.000036
C30	C	-1.735653	0.211532	0.000092
C31	C	-1.849417	0.290979	0.000102
C32	C	-1.845903	0.422001	0.000093
C33	C	-1.728625	0.473576	0.000072
N34	N	-1.501110	-0.185310	-0.356058
C35	C	-1.586684	-0.100755	0.428111
C36	C	-1.586681	-0.100740	0.571994
C37	C	-1.415528	-0.269893	0.572000
C38	C	-1.415526	-0.269901	0.428119
C39	C	-1.672269	-0.016188	0.356170
C40	C	-1.757850	0.068397	0.428102
C41	C	-1.757846	0.068412	0.571985
C42	C	-1.672262	-0.016157	0.643936
H43	H	-1.134020	0.003756	0.093620
H44	H	-1.294713	0.170531	0.000030
H45	H	-1.672282	-0.016195	0.239013
C46	C	-1.978416	0.234243	0.000123
N47	N	-2.075581	0.191511	0.000142
C48	C	-1.672264	-0.016135	0.802213
N49	N	-1.672272	-0.016124	0.921425
C50	C	-1.147817	0.022808	-0.126573
N51	N	-1.190317	0.076966	-0.221955
C52	C	-0.906166	0.029192	0.127040
N53	N	-0.877078	0.085302	0.222291
H54	H	-0.914585	0.009608	-0.092503
C55	C	-0.881822	-0.183993	-0.262380
N56	N	-0.853142	-0.133457	-0.361653
H57	H	-1.090588	-0.356970	0.138948
C58	C	-1.971044	0.509389	0.000105
N59	N	-2.065306	0.575207	0.000125
C60	C	-1.851970	0.161434	0.348954
N61	N	-1.922860	0.231516	0.289341
C62	C	-1.321394	-0.362914	0.651151
N63	N	-1.250493	-0.432981	0.710768
C64	C	-1.254830	0.422977	0.000035
N65	N	-1.157667	0.465712	0.000044
C66	C	-1.096605	-0.394316	-0.137059
N67	N	-1.119321	-0.498616	-0.142009
C68	C	-0.855053	-0.386686	-0.138615
N69	N	-0.806209	-0.488824	-0.144683
H70	H	-1.109058	-0.209178	-0.227622
C71	C	-0.855562	-0.390119	0.130551
N72	N	-0.807459	-0.492697	0.131439
H73	H	-0.887886	-0.208754	0.228298
H74	H	-1.738527	0.104849	0.000104
C75	C	-1.121710	-0.188880	0.261526
N76	N	-1.163369	-0.138911	0.359782
H77	H	-1.827520	0.137292	0.630551
C78	C	-1.724766	0.617706	0.000053
N79	N	-1.721862	0.726263	0.000046
C80	C	-1.321364	-0.362915	0.348990
N81	N	-1.250425	-0.432962	0.289389
