data_functionalizedCrystal
_audit_creation_method	'MofGen! by Chris Wilmer'
_symmetry_space_group_name_H-M	'P1'
_symmetry_Int_Tables_number	1
_symmetry_cell_setting	triclinic
loop_
_symmetry_equiv_pos_as_xyz
  x,y,z
_cell_length_a	10.489741
_cell_length_b	10.654541
_cell_length_c	9.565339
_cell_angle_alpha	89.995932
_cell_angle_beta	89.999424
_cell_angle_gamma	95.488449
loop_
_atom_site_label
_atom_site_type_symbol
_atom_site_fract_x
_atom_site_fract_y
_atom_site_fract_z
O1	O	0.179142	-1.667915	-0.116216
O2	O	0.196214	-1.302444	-0.116228
O3	O	0.002076	-1.493496	-0.116214
O4	O	0.373280	-1.476864	-0.116231
O5	O	0.002082	-1.493504	0.116306
O6	O	0.196220	-1.302453	0.116292
O7	O	0.179147	-1.667924	0.116304
Zn8	Zn	0.187684	-1.485189	0.153215
Zn9	Zn	0.187677	-1.485178	-0.153140
O10	O	0.373285	-1.476872	0.116289
C11	C	0.194964	-1.255650	0.000030
C12	C	0.191216	-1.116205	0.000026
C13	C	-0.045452	-1.492244	0.000045
C14	C	-0.187080	-1.488486	0.000043
N15	N	0.187689	-1.485206	0.362295
C16	C	-0.255160	-1.366925	0.000029
C17	C	-0.347308	-1.424353	0.114675
C18	C	-0.347288	-1.424374	-0.114572
C19	C	-0.277363	-1.545964	0.114784
C20	C	-0.277333	-1.545967	-0.114566
C21	C	-0.369454	-1.603484	0.000109
C22	C	0.420814	-1.478124	0.000027
C23	C	0.562441	-1.481882	0.000020
C24	C	0.180397	-1.714718	0.000042
C25	C	0.184146	-1.854163	0.000037
C26	C	0.423360	-1.088342	-0.000003
C27	C	0.537667	-1.008902	-0.000022
C28	C	0.534137	-0.877882	-0.000023
C29	C	0.416288	-0.826301	-0.000001
C30	C	0.301982	-0.905742	0.000019
C31	C	0.305524	-1.036763	0.000016
C32	C	0.069840	-0.933604	0.000057
C33	C	0.073367	-1.064624	0.000048
C34	C	-0.048009	-0.882024	0.000080
C35	C	-0.162318	-0.961465	0.000090
C36	C	-0.158783	-1.092492	0.000089
C37	C	-0.040939	-1.144065	0.000068
N38	N	0.187662	-1.485171	-0.362219
C39	C	0.097913	-1.573590	0.453467
C40	C	0.072134	-1.459875	0.546635
C41	C	0.213385	-1.598875	0.546682
C42	C	0.161852	-1.371434	0.453411
C43	C	0.303154	-1.510509	0.453450
C44	C	0.277423	-1.396713	0.546576
H45	H	-0.205460	-1.266979	0.000141
F46	F	-0.434122	-1.734237	0.000192
F47	F	-0.387758	-1.357112	-0.241253
H48	H	-0.258261	-0.919457	0.000107
H49	H	-0.378292	-1.372922	0.211597
F50	F	-0.237098	-1.613144	0.241612
F51	F	0.133282	-1.245738	0.400091
F52	F	0.376650	-1.298896	0.599677
H53	H	0.627215	-0.813200	-0.000030
F54	F	0.412537	-0.686858	0.000019
H55	H	-0.246316	-1.597355	-0.211493
F56	F	0.427127	-1.227784	-0.000024
H57	H	0.633617	-1.050913	-0.000037
F58	F	-0.037167	-1.283506	0.000059
F59	F	-0.280446	-1.177030	0.000120
F60	F	-0.001369	-1.671191	0.400027
F61	F	0.430759	-1.538561	0.399901
F62	F	0.241806	-1.724539	0.600240
F63	F	-0.051763	-0.742580	0.000086
F64	F	-0.055512	-1.431861	0.600127
