data_functionalizedCrystal
_audit_creation_method	'MofGen! by Chris Wilmer'
_symmetry_space_group_name_H-M	'P1'
_symmetry_Int_Tables_number	1
_symmetry_cell_setting	triclinic
loop_
_symmetry_equiv_pos_as_xyz
  x,y,z
_cell_length_a	21.395362
_cell_length_b	12.827892
_cell_length_c	21.395355
_cell_angle_alpha	90.010431
_cell_angle_beta	89.956060
_cell_angle_gamma	89.966979
loop_
_atom_site_label
_atom_site_type_symbol
_atom_site_fract_x
_atom_site_fract_y
_atom_site_fract_z
Zn1	Zn	0.957919	0.415711	-0.354621
Zn2	Zn	1.457919	0.915711	0.145379
Zn3	Zn	0.957846	0.590438	-0.249858
Zn4	Zn	1.457846	1.090438	0.250142
Zn5	Zn	0.853133	0.415760	-0.249822
Zn6	Zn	1.353133	0.915760	0.250178
Zn7	Zn	0.853127	0.590459	-0.354563
Zn8	Zn	1.353127	1.090459	0.145437
O9	O	0.905506	0.503092	-0.302216
O10	O	1.405506	1.003092	0.197784
O11	O	1.045587	0.438860	-0.340763
O12	O	1.545587	0.938860	0.159237
O13	O	0.943928	0.567278	-0.162175
O14	O	1.443928	1.067278	0.337825
O15	O	0.867066	0.269517	-0.263733
O16	O	1.367066	0.769517	0.236267
O17	O	1.045533	0.567231	-0.263794
O18	O	1.545533	1.067231	0.236206
O19	O	0.944052	0.269482	-0.340728
O20	O	1.444052	0.769482	0.159272
O21	O	0.866996	0.438943	-0.162149
O22	O	1.366996	0.938943	0.337851
O23	O	0.765455	0.438963	-0.263677
O24	O	1.265455	0.938963	0.236323
O25	O	0.867056	0.567267	-0.442248
O26	O	1.367056	1.067267	0.057752
O27	O	0.765450	0.567314	-0.340629
O28	O	1.265450	1.067314	0.159371
O29	O	0.944046	0.438881	-0.442291
O30	O	1.444046	0.938881	0.057709
O31	O	0.943922	0.736677	-0.263738
O32	O	1.443922	1.236677	0.236262
O33	O	0.866986	0.736693	-0.340664
O34	O	1.366986	1.236693	0.159336
C35	C	0.742719	0.503147	-0.302143
C36	C	1.242719	1.003147	0.197857
C37	C	0.673077	0.503196	-0.302127
C38	C	1.173077	1.003196	0.197873
C39	C	0.640378	0.570117	-0.342136
C40	C	1.140378	1.070117	0.157864
C41	C	0.574943	0.570091	-0.342164
C42	C	1.074943	1.070091	0.157836
C43	C	0.542209	0.503156	-0.302172
C44	C	1.042209	1.003156	0.197828
C45	C	0.574916	0.436222	-0.262160
C46	C	1.074916	0.936222	0.237840
C47	C	0.640350	0.436242	-0.262137
C48	C	1.140350	0.936242	0.237863
C49	C	0.438483	0.494737	-0.245766
C50	C	0.938483	0.994737	0.254234
C51	C	0.373050	0.494724	-0.245787
C52	C	0.873050	0.994724	0.254213
C53	C	0.340388	0.503088	-0.302241
C54	C	0.840388	1.003088	0.197759
C55	C	0.373168	0.511486	-0.358675
C56	C	0.873168	1.011486	0.141325
C57	C	0.438602	0.511506	-0.358653
C58	C	0.938602	1.011506	0.141347
C59	C	0.471257	0.503126	-0.302192
C60	C	0.971257	1.003126	0.197808
C61	C	0.236737	0.569984	-0.342284
C62	C	0.736737	1.069984	0.157716
C63	C	0.171300	0.569951	-0.342313
C64	C	0.671300	1.069951	0.157687
C65	C	0.171275	0.436087	-0.262303
C66	C	0.671275	0.936087	0.237697
C67	C	0.236710	0.436115	-0.262279
C68	C	0.736710	0.936115	0.237721
C69	C	0.269437	0.503069	-0.302269
C70	C	0.769437	1.003069	0.197731
C71	C	0.905462	0.774602	-0.302213
C72	C	1.405462	1.274602	0.197787
C73	C	0.905501	0.890755	-0.302232
C74	C	1.405501	1.390755	0.197768
C75	C	0.943654	1.062542	-0.264232
C76	C	1.443654	1.562542	0.235768
C77	C	0.943615	0.942491	-0.264211
C78	C	1.443615	1.442491	0.235789
C79	C	1.068930	0.503037	-0.302289
C80	C	1.568930	1.003037	0.197711
C81	C	1.138571	0.503014	-0.302321
C82	C	1.638571	1.003014	0.197679
C83	C	0.905558	0.503071	-0.465639
C84	C	1.405558	1.003071	0.034361
C85	C	0.905581	0.503062	-0.535281
C86	C	1.405581	1.003062	-0.035281
C87	C	0.905563	1.230522	-0.302241
C88	C	1.405563	1.730522	0.197759
C89	C	0.905574	1.114369	-0.302271
C90	C	1.405574	1.614369	0.197729
C91	C	0.945667	0.436208	-0.568017
C92	C	1.445667	0.936208	-0.068017
C93	C	0.945666	0.436163	-0.633452
C94	C	1.445666	0.936163	-0.133452
C95	C	0.905585	0.502991	-0.666149
C96	C	1.405585	1.002991	-0.166149
C97	C	0.865491	0.569849	-0.633405
C98	C	1.365491	1.069849	-0.133405
C99	C	0.865488	0.569885	-0.567971
C100	C	1.365488	1.069885	-0.067971
C101	C	0.900623	0.597087	-0.769821
C102	C	1.400623	1.097087	-0.269821
C103	C	0.900630	0.597053	-0.835254
C104	C	1.400630	1.097053	-0.335254
C105	C	0.905589	0.502880	-0.867970
C106	C	1.405589	1.002880	-0.367970
C107	C	0.910555	0.408738	-0.835245
C108	C	1.410555	0.908738	-0.335245
C109	C	0.910553	0.408774	-0.769811
C110	C	1.410553	0.908774	-0.269811
C111	C	0.905583	0.502959	-0.737101
C112	C	1.405583	1.002959	-0.237101
C113	C	0.945677	0.435972	-0.971659
C114	C	1.445677	0.935972	-0.471659
C115	C	0.945672	0.435925	-1.037095
C116	C	1.445672	0.935925	-0.537095
C117	C	0.865500	0.569621	-1.037047
C118	C	1.365500	1.069621	-0.537047
C119	C	0.865502	0.569658	-0.971611
C120	C	1.365502	1.069658	-0.471611
C121	C	0.905594	0.502835	-0.938921
C122	C	1.405594	1.002835	-0.438921
C123	C	0.905491	0.503038	-0.139428
C124	C	1.405491	1.003038	0.360572
C125	C	0.905590	0.502752	-0.069787
C126	C	1.405590	1.002752	0.430213
H127	H	0.666973	0.381744	-0.229557
H128	H	1.166973	0.881744	0.270443
C129	C	0.987661	0.882294	-0.220214
C130	C	1.487661	1.382294	0.279786
H131	H	1.011582	0.930327	-0.196365
H132	H	1.511582	1.430327	0.303635
H133	H	0.963672	0.839778	-0.192900
H134	H	1.463672	1.339778	0.307100
H135	H	1.014915	0.839650	-0.244236
H136	H	1.514915	1.339650	0.255764
H137	H	0.872899	0.935318	-0.334803
H138	H	1.372899	1.435318	0.165197
H139	H	0.346576	0.518294	-0.404646
H140	H	0.846576	1.018294	0.095354
H141	H	0.872940	1.069864	-0.334820
H142	H	1.372940	1.569864	0.165180
H143	H	0.465071	0.487923	-0.199791
H144	H	0.965071	0.987923	0.300209
H145	H	0.832855	0.624257	-0.660031
H146	H	1.332855	1.124257	-0.160031
C147	C	0.989762	0.362698	-0.532061
C148	C	1.489762	0.862698	-0.032061
H149	H	1.013632	0.322869	-0.560934
H150	H	1.513632	0.822869	-0.060934
H151	H	1.017050	0.402675	-0.506557
H152	H	1.517050	0.902675	-0.006557
H153	H	0.965800	0.317180	-0.506517
H154	H	1.465800	0.817180	-0.006517
C155	C	0.989768	0.362629	-0.669470
C156	C	1.489768	0.862629	-0.169470
H157	H	1.013648	0.322844	-0.640629
H158	H	1.513648	0.822844	-0.140629
H159	H	0.965818	0.317089	-0.694978
H160	H	1.465818	0.817089	-0.194978
H161	H	1.017058	0.402601	-0.695015
H162	H	1.517058	0.902601	-0.195015
C163	C	0.538966	0.643646	-0.386212
C164	C	1.038966	1.143646	0.113788
H165	H	0.567829	0.683508	-0.410034
H166	H	1.067829	1.183508	0.089966
H167	H	0.513507	0.603675	-0.413548
H168	H	1.013507	1.103675	0.086452
H169	H	0.513375	0.689133	-0.362236
H170	H	1.013375	1.189133	0.137764
C171	C	0.916007	0.305230	-0.733812
C172	C	1.416007	0.805230	-0.233812
H173	H	0.915299	0.318744	-0.690158
H174	H	1.415299	0.818744	-0.190158
H175	H	0.881934	0.261278	-0.744506
H176	H	1.381934	0.761278	-0.244506
H177	H	0.954162	0.271795	-0.744558
H178	H	1.454162	0.771795	-0.244558
H179	H	0.832842	0.624324	-0.541317
H180	H	1.332842	1.124324	-0.041317
C181	C	0.916418	0.305205	-0.871223
C182	C	1.416418	0.805205	-0.371223
H183	H	0.915826	0.318680	-0.914879
H184	H	1.415826	0.818680	-0.414879
H185	H	0.954669	0.272241	-0.860373
H186	H	1.454669	0.772241	-0.360373
H187	H	0.882489	0.260845	-0.860620
H188	H	1.382489	0.760845	-0.360620
H189	H	0.144623	0.381582	-0.229743
H190	H	0.644623	0.881582	0.270257
C191	C	0.676375	0.643752	-0.386130
C192	C	1.176375	1.143752	0.113870
H193	H	0.647525	0.683597	-0.409967
H194	H	1.147525	1.183597	0.090033
H195	H	0.701856	0.689233	-0.362112
H196	H	1.201856	1.189233	0.137888
H197	H	0.701946	0.603842	-0.413464
H198	H	1.201946	1.103842	0.086536
H199	H	0.263385	0.624497	-0.374849
H200	H	0.763385	1.124497	0.125151
C201	C	0.987739	1.122655	-0.220258
C202	C	1.487739	1.622655	0.279742
H203	H	0.981986	1.195456	-0.226045
H204	H	1.481986	1.695456	0.273955
H205	H	0.978599	1.104870	-0.178136
H206	H	1.478599	1.604870	0.321864
H207	H	1.029838	1.104732	-0.229475
H208	H	1.529838	1.604732	0.270525
H209	H	0.978319	0.381555	-0.945041
H210	H	1.478319	0.881555	-0.445041
H211	H	0.978314	0.381479	-1.063748
H212	H	1.478314	0.881479	-0.563748
H213	H	0.832859	0.624022	-1.063667
H214	H	1.332859	1.124022	-0.563667
H215	H	0.832862	0.624104	-0.944957
H216	H	1.332862	1.124104	-0.444957
H217	H	0.896590	0.673709	-0.861893
H218	H	1.396590	1.173709	-0.361893
C219	C	0.895030	0.700663	-0.733839
C220	C	1.395030	1.200663	-0.233839
H221	H	0.892041	0.756718	-0.762699
H222	H	1.392041	1.256718	-0.262699
H223	H	0.858678	0.699182	-0.708337
H224	H	1.358678	1.199182	-0.208337
H225	H	0.930891	0.709989	-0.708291
H226	H	1.430891	1.209989	-0.208291
H227	H	0.465288	0.518341	-0.404604
H228	H	0.965288	1.018341	0.095396
H229	H	0.263334	0.381626	-0.229696
H230	H	0.763334	0.881626	0.270304
C231	C	0.135331	0.643583	-0.386316
C232	C	0.635331	1.143583	0.113684
H233	H	0.164196	0.683469	-0.410121
H234	H	0.664196	1.183469	0.089879
H235	H	0.109850	0.603686	-0.413671
H236	H	0.609850	1.103686	0.086329
H237	H	0.109762	0.689042	-0.362298
H238	H	0.609762	1.189042	0.137702
H239	H	0.346366	0.487893	-0.199835
H240	H	0.846366	0.987893	0.300165
H241	H	0.548260	0.381721	-0.229599
H242	H	1.048260	0.881721	0.270401
