data_functionalizedCrystal
_audit_creation_method	'MofGen! by Chris Wilmer'
_symmetry_space_group_name_H-M	'P1'
_symmetry_Int_Tables_number	1
_symmetry_cell_setting	triclinic
loop_
_symmetry_equiv_pos_as_xyz
  x,y,z
_cell_length_a	16.974800
_cell_length_b	14.853567
_cell_length_c	15.455313
_cell_angle_alpha	92.672621
_cell_angle_beta	90.973911
_cell_angle_gamma	83.511964
loop_
_atom_site_label
_atom_site_type_symbol
_atom_site_fract_x
_atom_site_fract_y
_atom_site_fract_z
O1	O	1.049200	0.114925	0.001555
O2	O	0.819782	0.128693	-0.014556
O3	O	0.940619	-0.009414	-0.006073
O4	O	0.928363	0.253032	-0.006929
O5	O	0.933709	-0.001549	0.137704
O6	O	0.812872	0.136558	0.129221
O7	O	1.042290	0.122790	0.145332
Cu8	Cu	0.926950	0.130392	0.150404
Cu9	Cu	0.935122	0.121091	-0.019629
O10	O	0.921453	0.260897	0.136848
C11	C	0.786967	0.131958	0.055270
C12	C	0.699483	0.129957	0.049126
C13	C	0.654621	0.133302	0.124614
C14	C	0.572423	0.131409	0.118844
C15	C	0.535087	0.126176	0.037584
C16	C	0.579955	0.122828	-0.037910
C17	C	0.662153	0.124715	-0.032139
C18	C	0.289656	0.120065	0.011919
C19	C	0.207451	0.118180	0.006153
C20	C	0.199925	0.126760	0.162908
C21	C	0.282124	0.128652	0.168672
C22	C	0.326986	0.125299	0.093178
N23	N	0.451066	0.124243	0.031684
N24	N	0.411005	0.127226	0.099079
C25	C	0.936609	-0.039071	0.065774
C26	C	0.934945	-0.139157	0.065650
C27	C	0.856130	-0.551777	0.060131
C28	C	0.999687	-0.572899	0.070213
C29	C	1.001252	-0.478864	0.070317
C30	C	0.930255	-0.421281	0.065330
C31	C	0.857693	-0.457733	0.060238
C32	C	1.073813	-0.442405	0.075418
C33	C	1.075380	-0.348364	0.075524
C34	C	1.004383	-0.290779	0.070531
C35	C	0.931818	-0.327236	0.065438
C36	C	0.860821	-0.269653	0.060450
C37	C	0.788255	-0.306109	0.055351
C38	C	0.786695	-0.400148	0.055245
C39	C	1.005942	-0.196740	0.070637
C40	C	0.862383	-0.175609	0.060558
C41	C	1.075105	0.119525	0.075503
C42	C	1.162589	0.121525	0.081642
C43	C	0.925463	0.290554	0.065000
C44	C	0.927127	0.390640	0.065118
N45	N	0.921208	0.136934	0.269997
N46	N	0.940870	0.114542	-0.139221
C47	C	0.972562	0.078283	0.318996
C48	C	0.968227	0.083238	0.409500
C49	C	0.912541	0.146849	0.451002
C50	C	0.861182	0.205503	0.401996
C51	C	0.865514	0.200543	0.311494
C52	C	0.893843	0.168236	0.721271
C53	C	0.889517	0.173193	0.811780
C54	C	0.996561	0.050927	0.819277
C55	C	1.000891	0.045976	0.728773
C56	C	0.949529	0.104626	0.679775
N57	N	0.908110	0.151918	0.543511
N58	N	0.953957	0.099552	0.587267
H59	H	0.685013	0.137571	0.190785
H60	H	0.535901	0.134118	0.180315
O61	O	0.793368	-0.119773	0.055593
C62	C	0.752911	-0.140386	-0.021976
H63	H	0.773381	-0.213026	-0.045449
H64	H	0.766249	-0.091776	-0.073356
C65	C	0.637908	-0.041224	0.023233
C66	C	0.663045	-0.130445	-0.005592
H67	H	0.582474	-0.035088	0.033338
H68	H	0.665165	-0.027334	0.075492
H69	H	0.649030	-0.000726	-0.019588
H70	H	0.651933	-0.170940	0.037233
H71	H	0.635784	-0.144342	-0.057843
O72	O	0.716199	-0.435528	0.050143
C73	C	0.676481	-0.410190	-0.027352
H74	H	0.721408	-0.393366	-0.076421
H75	H	0.631819	-0.348100	-0.013600
C76	C	0.577560	-0.509774	-0.004027
C77	C	0.632740	-0.489119	-0.064297
H78	H	0.550575	-0.558459	-0.026816
H79	H	0.604317	-0.526843	0.048184
H80	H	0.540349	-0.458026	0.007427
H81	H	0.669956	-0.540863	-0.075743
H82	H	0.605989	-0.472060	-0.116511
O83	O	1.018142	0.026399	0.457199
C84	C	1.064307	0.077714	0.512936
H85	H	1.032340	0.148901	0.524292
H86	H	1.124223	0.082119	0.482137
C87	C	1.116241	-0.055780	0.586140
C88	C	1.076977	0.031651	0.600092
H89	H	1.124060	-0.084194	0.639900
H90	H	1.085142	-0.090352	0.548587
H91	H	1.166167	-0.052096	0.560471
H92	H	1.027048	0.027966	0.625750
H93	H	1.108068	0.066222	0.637652
O94	O	0.705785	0.121311	-0.105443
C95	C	0.762414	0.044151	-0.106165
H96	H	0.741688	-0.008508	-0.062995
H97	H	0.821700	0.064369	-0.080877
C98	C	0.797640	0.068361	-0.252455
C99	C	0.772181	0.003682	-0.199438
H100	H	0.803668	0.043400	-0.309990
H101	H	0.759490	0.120348	-0.251968
H102	H	0.847042	0.085204	-0.231371
H103	H	0.722775	-0.013151	-0.220516
H104	H	0.810322	-0.048309	-0.199931
H105	H	0.312517	0.132909	0.234842
H106	H	0.730449	-0.259212	0.051297
O107	O	1.145937	-0.313107	0.080438
C108	C	1.208263	-0.384097	0.084841
H109	H	1.187413	-0.449526	0.056071
H110	H	1.226853	-0.393565	0.155357
C111	C	1.305006	-0.280106	0.068592
C112	C	1.279399	-0.360466	0.033250
H113	H	1.348888	-0.265530	0.036772
H114	H	1.263016	-0.232278	0.065629
H115	H	1.320492	-0.288007	0.127354
H116	H	1.263904	-0.352561	-0.025507
H117	H	1.321388	-0.408293	0.036202
H118	H	0.797049	-0.581464	0.055976
O119	O	1.068578	-0.628962	0.075017
C120	C	1.051638	-0.719779	0.073858
H121	H	0.991045	-0.725035	0.042292
H122	H	1.051280	-0.743184	0.143046
C123	C	1.189888	-0.773810	0.060542
C124	C	1.115470	-0.780267	0.021765
H125	H	1.229264	-0.811124	0.028412
H126	H	1.201302	-0.712625	0.061326
H127	H	1.189579	-0.793313	0.118197
H128	H	1.115777	-0.760754	-0.035885
H129	H	1.104057	-0.841450	0.020970
O130	O	1.026575	0.016351	0.278737
C131	C	1.012601	-0.071707	0.300003
H132	H	0.948313	-0.070961	0.320452
H133	H	1.053719	-0.095155	0.355611
C134	C	1.107596	-0.138146	0.195374
C135	C	1.028634	-0.137231	0.220484
H136	H	1.117488	-0.178566	0.146325
H137	H	1.117012	-0.078820	0.181049
H138	H	1.141852	-0.157684	0.241721
H139	H	0.994379	-0.117683	0.174141
H140	H	1.019211	-0.196555	0.234799
O141	O	0.156331	0.129845	0.236214
C142	C	0.117389	0.051012	0.238174
H143	H	0.150478	-0.005373	0.195867
H144	H	0.054104	0.066066	0.212607
C145	C	0.075002	0.089983	0.383964
C146	C	0.115646	0.020727	0.332008
H147	H	0.073923	0.071303	0.441845
H148	H	0.101235	0.143096	0.382643
H149	H	0.022268	0.102521	0.362648
H150	H	0.168382	0.008198	0.353318
H151	H	0.089422	-0.032389	0.333335
H152	H	0.549550	0.118561	-0.104073
H153	H	0.177055	0.113922	-0.060021
O154	O	0.843920	0.225305	0.673814
C155	C	0.793833	0.282499	0.729855
H156	H	0.823059	0.287154	0.796626
H157	H	0.734804	0.253566	0.735389
C158	C	0.743486	0.372052	0.611388
C159	C	0.779385	0.377776	0.693397
H160	H	0.734569	0.430823	0.588898
H161	H	0.777228	0.333518	0.573631
H162	H	0.694299	0.347938	0.616011
H163	H	0.828575	0.401879	0.688771
H164	H	0.745651	0.416316	0.731152
H165	H	1.131614	-0.489295	0.079486
H166	H	1.065024	-0.167062	0.074794
O167	O	1.046413	-0.006179	0.866779
C168	C	1.034546	-0.096674	0.843781
H169	H	1.007319	-0.100256	0.775943
H170	H	0.992848	-0.121884	0.891969
C171	C	1.148129	-0.152236	0.928523
C172	C	1.114695	-0.156636	0.845200
H173	H	1.197567	-0.189225	0.929401
H174	H	1.156123	-0.091269	0.944020
H175	H	1.113373	-0.173242	0.968670
H176	H	1.149446	-0.135620	0.805056
H177	H	1.106709	-0.217602	0.829696
O178	O	0.333104	0.116842	-0.061499
C179	C	0.282524	0.111798	-0.134454
H180	H	0.219596	0.140232	-0.115815
H181	H	0.283126	0.038018	-0.158587
C182	C	0.388754	0.132619	-0.229619
C183	C	0.311465	0.167550	-0.206727
H184	H	0.406607	0.167005	-0.274203
H185	H	0.422832	0.136014	-0.180468
H186	H	0.389245	0.071136	-0.249725
H187	H	0.310977	0.229027	-0.186612
H188	H	0.277387	0.164166	-0.255877
O189	O	0.806980	0.267200	0.442265
C190	C	0.730019	0.251092	0.414677
H191	H	0.730751	0.177547	0.389772
H192	H	0.709436	0.298110	0.360525
C193	C	0.671863	0.359661	0.521925
C194	C	0.672762	0.269329	0.491343
H195	H	0.636543	0.370914	0.569214
H196	H	0.723713	0.370516	0.540510
H197	H	0.654713	0.398832	0.476791
H198	H	0.689921	0.230160	0.536473
H199	H	0.620913	0.258467	0.472768
O200	O	0.815708	0.257645	0.263937
C201	C	0.827537	0.348146	0.286959
H202	H	0.889437	0.350154	0.316252
H203	H	0.781373	0.377365	0.336435
C204	C	0.743176	0.402353	0.169725
C205	C	0.819205	0.404821	0.205697
H206	H	0.738034	0.437315	0.119601
H207	H	0.735204	0.341382	0.154216
H208	H	0.704715	0.426701	0.210963
H209	H	0.857665	0.380463	0.164464
H210	H	0.827184	0.465790	0.221197
H211	H	1.046235	-0.005822	0.694984
H212	H	0.844168	0.224997	0.845567
