data_functionalizedCrystal
_audit_creation_method	'MofGen! by Chris Wilmer'
_symmetry_space_group_name_H-M	'P1'
_symmetry_Int_Tables_number	1
_symmetry_cell_setting	triclinic
loop_
_symmetry_equiv_pos_as_xyz
  x,y,z
_cell_length_a	16.992694
_cell_length_b	22.610064
_cell_length_c	16.992695
_cell_angle_alpha	89.995894
_cell_angle_beta	90.668223
_cell_angle_gamma	90.003118
loop_
_atom_site_label
_atom_site_type_symbol
_atom_site_fract_x
_atom_site_fract_y
_atom_site_fract_z
O1	O	1.050855	0.049111	0.166906
O2	O	0.822455	0.049128	0.165075
O3	O	0.935740	0.049115	0.051791
O4	O	0.937571	0.049124	0.280191
O5	O	0.935719	-0.049254	0.051807
O6	O	0.822435	-0.049241	0.165091
O7	O	1.050835	-0.049258	0.166923
Zn8	Zn	0.936632	-0.064868	0.166010
Zn9	Zn	0.936659	0.064738	0.165988
O10	O	0.937551	-0.049245	0.280207
C11	C	0.793085	-0.000054	0.162727
C12	C	0.705600	-0.000047	0.155699
N13	N	0.936619	-0.153320	0.166024
C14	C	0.659610	-0.000045	0.223517
C15	C	0.577409	-0.000054	0.216908
C16	C	0.541201	-0.000060	0.142480
C17	C	0.587198	-0.000064	0.074657
C18	C	0.669397	-0.000060	0.081267
C19	C	0.295886	-0.000077	0.115086
C20	C	0.213681	-0.000079	0.108481
C21	C	0.203898	-0.000070	0.250732
C22	C	0.286099	-0.000062	0.257336
C23	C	0.332089	-0.000069	0.189512
N24	N	0.457178	-0.000067	0.135723
N25	N	0.416110	-0.000067	0.196270
C26	C	0.986824	-0.561967	0.115834
C27	C	0.986827	-0.623887	0.115829
O28	O	1.029480	-0.655911	0.073165
N29	N	0.936657	-0.654857	0.165972
C30	C	0.886474	-0.623904	0.216118
O31	O	0.843800	-0.655932	0.258767
C32	C	0.886467	-0.561985	0.216119
C33	C	0.936646	-0.531019	0.165978
C34	C	1.036999	-0.531001	0.065697
C35	C	1.036996	-0.469085	0.065704
C36	C	0.986818	-0.438136	0.115847
C37	C	0.936643	-0.469103	0.165985
C38	C	0.836280	-0.531033	0.266260
C39	C	0.836277	-0.469110	0.266256
C40	C	0.886456	-0.438144	0.216116
C41	C	0.886463	-0.376239	0.216135
N42	N	0.936634	-0.345269	0.165992
C43	C	0.986811	-0.376217	0.115848
C44	C	0.886491	-0.753938	0.216111
C45	C	0.886502	-0.815855	0.216115
C46	C	0.986855	-0.815834	0.115825
C47	C	0.986848	-0.753916	0.115825
C48	C	0.936662	-0.722968	0.165968
C49	C	0.986802	-0.246190	0.115867
C50	C	0.986797	-0.184269	0.115880
C51	C	0.886441	-0.184295	0.216167
C52	C	0.886449	-0.246211	0.216157
C53	C	0.936632	-0.277157	0.166000
O54	O	0.843830	-0.344175	0.258775
O55	O	1.029471	-0.344182	0.073199
C56	C	1.080205	-0.000075	0.169270
C57	C	1.167690	-0.000077	0.176299
C58	C	0.933374	-0.000069	0.022439
C59	C	0.926345	-0.000069	-0.065046
N60	N	0.936677	0.153190	0.165968
C61	C	0.994163	-0.000074	-0.111037
C62	C	0.987554	-0.000068	-0.193238
C63	C	0.913127	-0.000061	-0.229446
C64	C	0.845303	-0.000053	-0.183449
C65	C	0.851913	-0.000055	-0.101250
C66	C	0.885732	-0.000050	-0.474760
C67	C	0.879127	-0.000050	-0.556966
C68	C	1.021379	-0.000064	-0.566749
C69	C	1.027982	-0.000070	-0.484547
C70	C	0.960159	-0.000059	-0.438558
N71	N	0.906369	-0.000056	-0.313468
N72	N	0.966917	-0.000059	-0.354537
C73	C	0.939917	-0.000059	0.309559
C74	C	0.946945	-0.000056	0.397044
H75	H	0.689084	-0.000039	0.284124
C76	C	0.325923	-0.000064	0.339206
H77	H	0.286758	-0.000070	0.378650
H78	H	0.357788	0.034240	0.344739
H79	H	0.357782	-0.034372	0.344741
C80	C	1.042047	-0.849883	0.060661
H81	H	1.071935	-0.822576	0.030799
H82	H	1.011677	-0.874038	0.026104
H83	H	1.076591	-0.874037	0.091056
H84	H	0.784703	-0.000043	-0.212936
C85	C	0.153308	-0.000070	0.325330
H86	H	0.099167	-0.000078	0.310738
H87	H	0.164768	0.034234	0.355634
H88	H	0.164772	-0.034377	0.355639
H89	H	0.818516	-0.000054	-0.586443
C90	C	0.811129	-0.000049	-0.424182
H91	H	0.765859	-0.000052	-0.457521
H92	H	0.810750	0.034253	-0.391912
H93	H	0.810747	-0.034359	-0.391913
H94	H	0.845590	-0.159087	0.256996
H95	H	0.796688	-0.000050	-0.063804
C96	C	0.831295	-0.719900	0.271283
H97	H	0.801425	-0.747217	0.301148
H98	H	0.796747	-0.695745	0.240902
H99	H	0.861667	-0.695748	0.305849
C100	C	0.526822	-0.000049	0.291508
H101	H	0.560159	-0.000037	0.336780
H102	H	0.494554	-0.034355	0.291897
H103	H	0.494552	0.034257	0.291877
C104	C	1.109850	-0.000082	-0.444720
H105	H	1.104073	-0.000090	-0.389178
H106	H	1.138007	0.034216	-0.460200
H107	H	1.137975	-0.034395	-0.460202
H108	H	0.184203	-0.000084	0.047870
C109	C	0.781075	-0.435071	0.321419
H110	H	0.751199	-0.462386	0.351281
H111	H	0.746533	-0.410915	0.291034
H112	H	0.811446	-0.410921	0.355987
H113	H	0.333322	-0.000083	0.059859
C114	C	0.781079	-0.565086	0.321410
H115	H	0.788263	-0.606397	0.314239
H116	H	0.728011	-0.554936	0.309531
H117	H	0.792916	-0.554939	0.374492
H118	H	1.042779	-0.000074	-0.230680
H119	H	0.845596	-0.271425	0.256994
H120	H	0.557710	-0.000078	0.014056
C121	C	0.831314	-0.849915	0.271276
H122	H	0.838501	-0.891225	0.264100
H123	H	0.778243	-0.839767	0.259406
H124	H	0.843159	-0.839769	0.324356
H125	H	1.054770	-0.000084	-0.081563
H126	H	1.077859	-0.556194	0.024860
H127	H	1.027664	-0.271379	0.075024
H128	H	0.706842	-0.000061	0.026042
C129	C	1.041993	-0.150209	0.060720
H130	H	1.071870	-0.177513	0.030850
H131	H	1.076535	-0.126054	0.091108
H132	H	1.011618	-0.126055	0.026158
C133	C	1.092210	-0.435027	0.010568
H134	H	1.085040	-0.393716	0.017755
H135	H	1.080393	-0.445166	-0.042516
H136	H	1.145276	-0.445183	0.022467
C137	C	1.095979	-0.000070	-0.617335
H138	H	1.141251	-0.000078	-0.583997
H139	H	1.096366	0.034234	-0.649607
H140	H	1.096352	-0.034377	-0.649601
H141	H	1.027708	-0.728706	0.074996
