data_functionalizedCrystal
_audit_creation_method	'MofGen! by Chris Wilmer'
_symmetry_space_group_name_H-M	'P1'
_symmetry_Int_Tables_number	1
_symmetry_cell_setting	triclinic
loop_
_symmetry_equiv_pos_as_xyz
  x,y,z
_cell_length_a	14.971491
_cell_length_b	10.967829
_cell_length_c	14.048226
_cell_angle_alpha	77.865708
_cell_angle_beta	89.991693
_cell_angle_gamma	84.175069
loop_
_atom_site_label
_atom_site_type_symbol
_atom_site_fract_x
_atom_site_fract_y
_atom_site_fract_z
O1	O	1.187820	0.162650	-0.105880
O2	O	1.687820	0.662650	0.394120
O3	O	0.927525	0.182118	-0.109067
O4	O	1.427525	0.682118	0.390933
O5	O	1.063674	-0.009258	-0.077673
O6	O	1.563674	0.490742	0.422327
O7	O	1.051671	0.354026	-0.137274
O8	O	1.551671	0.854026	0.362726
O9	O	1.063657	-0.009270	0.080650
O10	O	1.563657	0.490730	0.580650
O11	O	0.927509	0.182106	0.049257
O12	O	1.427509	0.682106	0.549257
O13	O	1.187803	0.162639	0.052443
O14	O	1.687803	0.662639	0.552443
Zn15	Zn	1.057653	0.172371	0.075987
Zn16	Zn	1.557653	0.672371	0.575987
Zn17	Zn	1.057675	0.172386	-0.132611
Zn18	Zn	1.557675	0.672386	0.367389
O19	O	1.051655	0.354015	0.021049
O20	O	1.551655	0.854015	0.521049
C21	C	0.894188	0.181240	-0.029761
C22	C	1.394188	0.681240	0.470239
C23	C	0.794877	0.178628	-0.029330
C24	C	1.294877	0.678628	0.470670
C25	C	0.367120	0.167361	-0.113804
C26	C	0.867120	0.667361	0.386196
C27	C	0.460433	0.169812	-0.114203
C28	C	0.960433	0.669812	0.385797
C29	C	0.507076	0.171040	-0.028100
C30	C	1.007076	0.671040	0.471900
C31	C	0.460403	0.169803	0.058409
C32	C	0.960403	0.669803	0.558409
C33	C	0.367092	0.167344	0.058808
C34	C	0.867092	0.667344	0.558808
C35	C	0.654892	0.174933	0.057571
C36	C	1.154892	0.674933	0.557571
C37	C	0.748209	0.177396	0.057172
C38	C	1.248209	0.677396	0.557172
C39	C	0.748233	0.177402	-0.115440
C40	C	1.248233	0.677402	0.384560
C41	C	0.654922	0.174942	-0.115041
C42	C	1.154922	0.674942	0.384959
C43	C	0.608255	0.173708	-0.028532
C44	C	1.108255	0.673708	0.471468
C45	C	1.062791	-0.055756	0.009114
C46	C	1.562791	0.444244	0.509114
C47	C	1.060174	-0.194285	0.031835
C48	C	1.560174	0.305715	0.531835
C49	C	1.059017	-0.256034	-0.040052
C50	C	1.559017	0.243966	0.459948
C51	C	1.056312	-0.399212	-0.016570
C52	C	1.556312	0.100788	0.483430
C53	C	1.221141	0.163516	-0.026865
C54	C	1.721141	0.663516	0.473135
C55	C	1.320452	0.166129	-0.027302
C56	C	1.820452	0.666129	0.472698
C57	C	1.052538	0.400512	-0.065740
C58	C	1.552538	0.900512	0.434260
C59	C	1.055154	0.539042	-0.088467
C60	C	1.555154	1.039042	0.411533
N61	N	1.057645	0.172360	0.218349
N62	N	1.557645	0.672360	0.718349
N63	N	1.057691	0.172387	-0.274972
N64	N	1.557691	0.672387	0.225028
C65	C	1.117951	0.087654	0.282063
C66	C	1.617951	0.587654	0.782063
C67	C	1.117957	0.087653	0.381720
C68	C	1.617957	0.587653	0.881720
C69	C	1.057661	0.172366	0.417662
C70	C	1.557661	0.672366	0.917662
C71	C	0.997348	0.257076	0.353941
C72	C	1.497348	0.757076	0.853941
C73	C	0.997339	0.257070	0.254286
C74	C	1.497339	0.757070	0.754286
C75	C	0.997374	0.257085	0.561654
C76	C	1.497374	0.757085	1.061654
C77	C	0.997385	0.257093	0.661315
C78	C	1.497385	0.757093	1.161315
C79	C	1.117993	0.087668	0.689088
C80	C	1.617993	0.587668	1.189088
C81	C	1.117983	0.087662	0.589433
C82	C	1.617983	0.587662	1.089433
C83	C	1.057671	0.172374	0.525719
C84	C	1.557671	0.672374	1.025719
H85	H	0.329148	0.166371	-0.183921
H86	H	0.829148	0.666371	0.316079
Cl87	Cl	0.806846	0.178929	0.165419
Cl88	Cl	1.306846	0.678929	0.665419
H89	H	0.329095	0.166353	0.129245
H90	H	0.829095	0.666353	0.629245
Cl91	Cl	0.596227	0.173368	0.166330
Cl92	Cl	1.096227	0.673368	0.666330
H93	H	1.055296	-0.452339	0.062365
H94	H	1.555296	0.047661	0.562365
Cl95	Cl	0.519040	0.171344	0.166654
Cl96	Cl	1.019040	0.671344	0.666654
H97	H	1.056154	-0.407829	-0.167403
H98	H	1.556154	0.092171	0.332597
Cl99	Cl	1.193761	-0.018843	0.236890
Cl100	Cl	1.693761	0.481157	0.736890
H101	H	1.059158	-0.247417	0.110765
H102	H	1.559158	0.252583	0.610765
Cl103	Cl	0.921578	0.363591	0.706491
Cl104	Cl	1.421578	0.863591	1.206491
H105	H	0.948249	0.326046	0.383211
H106	H	1.448249	0.826046	0.883211
H107	H	1.167062	0.018678	0.433597
H108	H	1.667062	0.518678	0.933597
H109	H	1.167085	0.018689	0.560170
H110	H	1.667085	0.518689	1.060170
H111	H	1.060023	-0.202901	-0.118981
H112	H	1.560023	0.297099	0.381019
H113	H	1.167100	0.018693	0.740971
H114	H	1.667100	0.518693	1.240971
H115	H	0.948259	0.326063	0.509780
H116	H	1.448259	0.826063	1.009780
Cl117	Cl	0.806899	0.178968	-0.224197
Cl118	Cl	1.306899	0.678968	0.275803
Cl119	Cl	0.519098	0.171355	-0.222952
Cl120	Cl	1.019098	0.671355	0.277048
Cl121	Cl	0.596285	0.173410	-0.223288
Cl122	Cl	1.096285	0.673410	0.276712
H123	H	0.948230	0.326044	0.202411
H124	H	1.448230	0.826044	0.702411
