data_functionalizedCrystal
_audit_creation_method	'MofGen! by Chris Wilmer'
_symmetry_space_group_name_H-M	'P1'
_symmetry_Int_Tables_number	1
_symmetry_cell_setting	triclinic
loop_
_symmetry_equiv_pos_as_xyz
  x,y,z
_cell_length_a	16.109301
_cell_length_b	10.654545
_cell_length_c	15.186229
_cell_angle_alpha	89.998599
_cell_angle_beta	89.999006
_cell_angle_gamma	83.973505
loop_
_atom_site_label
_atom_site_type_symbol
_atom_site_fract_x
_atom_site_fract_y
_atom_site_fract_z
O1	O	1.104091	0.161420	-0.073176
O2	O	0.862148	0.181508	-0.073187
O3	O	0.988682	-0.011350	-0.073181
O4	O	0.977557	0.354279	-0.073182
O5	O	0.988673	-0.011353	0.073277
O6	O	0.862140	0.181506	0.073270
O7	O	1.104082	0.161418	0.073282
Zn8	Zn	0.983110	0.171461	0.096529
Zn9	Zn	0.983121	0.171465	-0.096435
O10	O	0.977549	0.354276	0.073275
C11	C	0.831164	0.180693	0.000040
C12	C	0.738854	0.178254	0.000035
C13	C	0.430489	0.284717	0.000050
C14	C	0.517223	0.287021	0.000045
C15	C	0.535736	0.058200	0.000034
C16	C	0.449003	0.055898	0.000033
C17	C	0.396382	0.169160	0.000045
C18	C	0.569848	0.173766	0.000041
C19	C	0.663889	0.176264	0.000036
C20	C	0.302335	0.166663	0.000049
C21	C	0.987860	-0.058139	0.000046
C22	C	0.985416	-0.197549	0.000041
C23	C	0.985435	-0.197554	-0.159631
C24	C	0.984300	-0.263052	-0.239467
C25	C	0.982003	-0.394039	-0.239468
C26	C	0.980840	-0.459532	-0.159625
C27	C	0.981975	-0.394035	-0.079789
C28	C	0.984274	-0.263045	-0.079797
C29	C	0.981950	-0.394028	0.079881
C30	C	0.984253	-0.263042	0.079884
C31	C	0.980787	-0.459521	0.159725
C32	C	0.981928	-0.394025	0.239562
C33	C	0.984226	-0.263030	0.239560
C34	C	0.985388	-0.197544	0.159720
C35	C	1.135066	0.162233	0.000053
C36	C	1.227376	0.164673	0.000052
C37	C	0.978370	0.401065	0.000046
C38	C	0.980814	0.540475	0.000046
N39	N	0.983108	0.171458	0.228222
N40	N	0.983129	0.171458	-0.228127
C41	C	1.039156	0.086089	0.453948
C42	C	1.039159	0.086086	0.546137
C43	C	0.927075	0.256831	0.546140
C44	C	0.927069	0.256827	0.453952
C45	C	0.983114	0.171458	0.407858
C46	C	0.983123	0.171459	0.592236
C47	C	0.983125	0.171456	0.692192
C48	C	0.983111	0.171458	0.307896
H49	H	0.387647	0.376942	0.000059
H50	H	0.578590	-0.034013	0.000026
H51	H	0.978960	-0.566187	-0.159633
H52	H	0.978912	-0.566177	0.159718
C53	C	0.554742	0.414136	0.000053
C54	C	0.496857	0.538713	0.000065
C55	C	0.534375	0.665835	0.000072
C56	C	0.629776	0.668378	0.000067
C57	C	0.687666	0.543796	0.000055
C58	C	0.650149	0.416675	0.000048
H59	H	0.426230	0.536835	0.000069
H60	H	0.491520	0.758058	0.000081
H61	H	0.657549	0.762481	0.000072
H62	H	0.758293	0.545675	0.000051
H63	H	0.693003	0.324451	0.000039
H64	H	0.421233	-0.038208	0.000026
H65	H	0.987263	-0.090888	0.159711
C66	C	0.865432	0.350745	0.596844
C67	C	0.865480	0.350829	0.698247
C68	C	0.803838	0.444749	0.748948
C69	C	0.742149	0.538585	0.698245
C70	C	0.742098	0.538504	0.596837
C71	C	0.803740	0.444584	0.546136
H72	H	0.911149	0.281363	0.735785
H73	H	0.803876	0.444808	0.824018
H74	H	0.696518	0.608110	0.735777
H75	H	0.696430	0.607970	0.559298
H76	H	0.803703	0.444525	0.471066
H77	H	0.987315	-0.090899	-0.159638
H78	H	0.985246	-0.209712	-0.304474
C79	C	1.100798	-0.007825	0.403244
C80	C	1.164663	0.041262	0.339861
C81	C	1.226305	-0.052658	0.289160
C82	C	1.224082	-0.195664	0.301843
C83	C	1.160216	-0.244759	0.365228
C84	C	1.098574	-0.150839	0.415929
H85	H	1.166310	0.147131	0.330470
H86	H	1.273583	-0.016314	0.242238
H87	H	1.269713	-0.265190	0.264311
H88	H	1.158568	-0.350627	0.374619
H89	H	1.051295	-0.187182	0.462851
C90	C	0.980638	-0.466071	0.327378
C91	C	0.908873	-0.433766	0.393225
C92	C	0.907580	-0.505820	0.481042
C93	C	0.978053	-0.610179	0.503011
C94	C	1.049824	-0.642488	0.437163
C95	C	1.051117	-0.570434	0.349346
H96	H	0.856700	-0.356510	0.376964
H97	H	0.854450	-0.481902	0.529787
H98	H	0.977096	-0.663517	0.568018
H99	H	1.101997	-0.719745	0.453424
H100	H	1.104247	-0.594352	0.300601
C101	C	1.100809	-0.007817	0.596837
C102	C	1.162461	-0.101706	0.546133
C103	C	1.224112	-0.195614	0.596832
C104	C	1.224111	-0.195634	0.698236
C105	C	1.162456	-0.101741	0.748945
C106	C	1.100805	-0.007833	0.698245
H107	H	1.162464	-0.101695	0.471063
H108	H	1.269753	-0.265120	0.559293
H109	H	1.269749	-0.265150	0.735766
H110	H	1.162453	-0.101752	0.824015
H111	H	1.055164	0.061673	0.735784
H112	H	0.981071	-0.447365	-0.304477
H113	H	0.985138	-0.209707	0.304572
H114	H	0.881428	0.326345	0.416424
