data_functionalizedCrystal
_audit_creation_method	'MofGen! by Chris Wilmer'
_symmetry_space_group_name_H-M	'P1'
_symmetry_Int_Tables_number	1
_symmetry_cell_setting	triclinic
loop_
_symmetry_equiv_pos_as_xyz
  x,y,z
_cell_length_a	19.805407
_cell_length_b	21.395361
_cell_length_c	21.395364
_cell_angle_alpha	90.006881
_cell_angle_beta	90.016178
_cell_angle_gamma	90.028024
loop_
_atom_site_label
_atom_site_type_symbol
_atom_site_fract_x
_atom_site_fract_y
_atom_site_fract_z
Zn1	Zn	1.034704	-0.249646	0.354234
Zn2	Zn	1.368038	0.083687	0.687568
Zn3	Zn	1.701371	0.417020	1.020901
Zn4	Zn	1.034614	-0.354380	0.249451
Zn5	Zn	1.367947	-0.021046	0.582785
Zn6	Zn	1.701281	0.312287	0.916118
Zn7	Zn	0.921522	-0.249615	0.249473
Zn8	Zn	1.254856	0.083718	0.582806
Zn9	Zn	1.588189	0.417052	0.916139
Zn10	Zn	0.921474	-0.354385	0.354193
Zn11	Zn	1.254807	-0.021052	0.687526
Zn12	Zn	1.588141	0.312281	1.020860
O13	O	0.978079	-0.302007	0.301838
O14	O	1.311412	0.031327	0.635171
O15	O	1.644745	0.364660	0.968504
O16	O	1.129409	-0.263550	0.340343
O17	O	1.462742	0.069783	0.673676
O18	O	1.796076	0.403116	1.007010
O19	O	1.019595	-0.340467	0.161776
O20	O	1.352928	-0.007133	0.495110
O21	O	1.686261	0.326200	0.828443
O22	O	0.936594	-0.161941	0.263396
O23	O	1.269928	0.171392	0.596729
O24	O	1.603261	0.504725	0.930062
O25	O	1.129343	-0.340497	0.263359
O26	O	1.462676	-0.007164	0.596693
O27	O	1.796009	0.326169	0.930026
O28	O	1.019749	-0.161964	0.340364
O29	O	1.353082	0.171369	0.673697
O30	O	1.686415	0.504702	1.007030
O31	O	0.936507	-0.263497	0.161792
O32	O	1.269840	0.069837	0.495125
O33	O	1.603173	0.403170	0.828459
O34	O	0.826799	-0.263502	0.263356
O35	O	1.160133	0.069831	0.596689
O36	O	1.493466	0.403165	0.930022
O37	O	0.936512	-0.340507	0.441876
O38	O	1.269845	-0.007174	0.775210
O39	O	1.603179	0.326160	1.108543
O40	O	0.826764	-0.340476	0.340293
O41	O	1.160097	-0.007143	0.673627
O42	O	1.493431	0.326190	1.006960
O43	O	1.019702	-0.263556	0.441907
O44	O	1.353035	0.069777	0.775240
O45	O	1.686369	0.403111	1.108573
O46	O	1.019548	-0.442058	0.263319
O47	O	1.352881	-0.108725	0.596653
O48	O	1.686214	0.224609	0.929986
O49	O	0.936424	-0.442062	0.340273
O50	O	1.269758	-0.108729	0.673606
O51	O	1.603091	0.224604	1.006939
C52	C	0.977989	-0.464794	0.301803
C53	C	1.311323	-0.131461	0.635136
C54	C	1.644656	0.201873	0.968470
C55	C	0.978013	-0.534435	0.301809
C56	C	1.311346	-0.201102	0.635142
C57	C	1.644680	0.132231	0.968476
C58	C	0.802223	-0.301987	0.301823
C59	C	1.135556	0.031346	0.635156
C60	C	1.468889	0.364680	0.968489
C61	C	0.726991	-0.301994	0.301831
C62	C	1.060324	0.031340	0.635164
C63	C	1.393657	0.364673	0.968498
C64	C	1.021334	-0.567126	0.261780
C65	C	1.354667	-0.233792	0.595114
C66	C	1.688000	0.099541	0.928447
C67	C	1.021365	-0.632561	0.261794
C68	C	1.354699	-0.299228	0.595128
C69	C	1.688032	0.034106	0.928461
C70	C	0.978064	-0.665304	0.301830
C71	C	1.311397	-0.331970	0.635164
C72	C	1.644731	0.001363	0.968497
C73	C	0.934740	-0.632606	0.341867
C74	C	1.268074	-0.299272	0.675200
C75	C	1.601407	0.034061	1.008533
C76	C	0.934715	-0.567172	0.341856
C77	C	1.268048	-0.233838	0.675189
C78	C	1.601381	0.099495	1.008523
C79	C	0.917120	-0.769017	0.306741
C80	C	1.250453	-0.435684	0.640075
C81	C	1.583786	-0.102351	0.973408
C82	C	0.917144	-0.834450	0.306748
C83	C	1.250477	-0.501117	0.640081
C84	C	1.583811	-0.167784	0.973414
C85	C	0.978143	-0.867124	0.301867
C86	C	1.311476	-0.533791	0.635201
C87	C	1.644809	-0.200458	0.968534
C88	C	1.039119	-0.834357	0.296967
C89	C	1.372453	-0.501024	0.630301
C90	C	1.705786	-0.167691	0.963634
C91	C	1.039094	-0.768923	0.296957
C92	C	1.372427	-0.435590	0.630290
C93	C	1.705760	-0.102257	0.963623
C94	C	0.978087	-0.736256	0.301847
C95	C	1.311420	-0.402923	0.635180
C96	C	1.644754	-0.069589	0.968513
C97	C	1.021501	-0.970767	0.261852
C98	C	1.354835	-0.637434	0.595185
C99	C	1.688168	-0.304100	0.928518
C100	C	1.021534	-1.036204	0.261870
C101	C	1.354867	-0.702870	0.595203
C102	C	1.688201	-0.369537	0.928537
C103	C	0.934903	-1.036247	0.341939
C104	C	1.268236	-0.702914	0.675272
C105	C	1.601570	-0.369581	1.008606
C106	C	0.934876	-0.970812	0.341924
C107	C	1.268210	-0.637479	0.675257
C108	C	1.601543	-0.304145	1.008591
C109	C	0.978175	-0.938076	0.301877
C110	C	1.311508	-0.604742	0.635210
C111	C	1.644841	-0.271409	0.968544
C112	C	0.691682	-0.261998	0.341977
C113	C	1.025015	0.071335	0.675311
C114	C	1.358349	0.404668	1.008644
C115	C	0.620993	-0.262002	0.341980
C116	C	0.954327	0.071332	0.675313
C117	C	1.287660	0.404665	1.008646
C118	C	0.585615	-0.302004	0.301838
C119	C	0.918949	0.031330	0.635172
C120	C	1.252282	0.364663	0.968505
C121	C	0.620929	-0.342001	0.261688
C122	C	0.954262	-0.008668	0.595021
C123	C	1.287596	0.324666	0.928354
C124	C	0.691616	-0.341994	0.261683
C125	C	1.024950	-0.008661	0.595016
C126	C	1.358283	0.324673	0.928349
C127	C	0.335856	-0.342029	0.261707
C128	C	0.669189	-0.008696	0.595040
C129	C	1.002522	0.324638	0.928374
C130	C	0.265164	-0.342034	0.261717
C131	C	0.598497	-0.008701	0.595050
C132	C	0.931830	0.324632	0.928383
C133	C	0.265233	-0.262037	0.342004
C134	C	0.598566	0.071297	0.675337
C135	C	0.931900	0.404630	1.008671
C136	C	0.335920	-0.262030	0.341999
C137	C	0.669253	0.071304	0.675332
C138	C	1.002587	0.404637	1.008665
C139	C	0.371228	-0.302024	0.301846
C140	C	0.704561	0.031309	0.635179
C141	C	1.037894	0.364642	0.968513
C142	C	0.447876	-0.302019	0.301843
C143	C	0.781210	0.031314	0.635176
C144	C	1.114543	0.364647	0.968510
C145	C	0.508968	-0.302012	0.301844
C146	C	0.842301	0.031321	0.635177
C147	C	1.175635	0.364654	0.968511
C148	C	1.154621	-0.302027	0.301853
C149	C	1.487955	0.031307	0.635187
C150	C	1.821288	0.364640	0.968520
C151	C	1.229853	-0.302035	0.301860
C152	C	1.563187	0.031298	0.635193
C153	C	1.896520	0.364631	0.968527
C154	C	0.978112	-0.302036	0.465261
C155	C	1.311445	0.031298	0.798594
C156	C	1.644778	0.364631	1.131928
C157	C	0.978126	-0.302048	0.534902
C158	C	1.311459	0.031285	0.868236
C159	C	1.644792	0.364619	1.201569
C160	C	0.978187	-0.138583	0.301887
C161	C	1.311520	0.194750	0.635220
C162	C	1.644854	0.528083	0.968553
C163	C	0.978233	-0.068942	0.301907
C164	C	1.311566	0.264391	0.635241
C165	C	1.644900	0.597725	0.968574
C166	C	1.021436	-0.261986	0.567632
C167	C	1.354769	0.071347	0.900966
C168	C	1.688103	0.404680	1.234299
C169	C	1.021426	-0.261976	0.633068
C170	C	1.354759	0.071357	0.966401
C171	C	1.688093	0.404691	1.299734
C172	C	0.978112	-0.302039	0.665771
C173	C	1.311446	0.031295	0.999104
C174	C	1.644779	0.364628	1.332437
C175	C	0.934794	-0.342103	0.633033
C176	C	1.268127	-0.008770	0.966366
C177	C	1.601460	0.324563	1.299700
C178	C	0.934800	-0.342108	0.567599
C179	C	1.268134	-0.008775	0.900932
C180	C	1.601467	0.324559	1.234265
C181	C	0.972722	-0.358480	0.769433
C182	C	1.306056	-0.025147	1.102767
C183	C	1.639389	0.308186	1.436100
C184	C	0.972720	-0.358477	0.834866
C185	C	1.306054	-0.025143	1.168200
C186	C	1.639387	0.308190	1.501533
C187	C	0.978088	-0.302024	0.867591
C188	C	1.311421	0.031309	1.200925
C189	C	1.644755	0.364643	1.534258
C190	C	0.983472	-0.245573	0.834876
C191	C	1.316805	0.087760	1.168209
C192	C	1.650138	0.421093	1.501542
C193	C	0.983478	-0.245578	0.769441
C194	C	1.316812	0.087755	1.102775
C195	C	1.650145	0.421089	1.436108
C196	C	0.978100	-0.302038	0.736723
C197	C	1.311433	0.031295	1.070056
C198	C	1.644767	0.364629	1.403390
C199	C	1.021389	-0.261948	0.971274
C200	C	1.354723	0.071386	1.304607
C201	C	1.688056	0.404719	1.637940
C202	C	1.021374	-0.261936	1.036710
C203	C	1.354708	0.071397	1.370044
C204	C	1.688041	0.404730	1.703377
C205	C	0.934746	-0.342069	1.036674
C206	C	1.268079	-0.008736	1.370008
C207	C	1.601412	0.324597	1.703341
C208	C	0.934757	-0.342075	0.971239
C209	C	1.268090	-0.008742	1.304572
C210	C	1.601424	0.324592	1.637906
C211	C	0.978083	-0.302015	0.938543
C212	C	1.311416	0.031318	1.271876
C213	C	1.644749	0.364652	1.605209
C214	C	0.978049	-0.301997	1.139050
C215	C	1.311382	0.031337	1.472384
C216	C	1.644716	0.364670	1.805717
C217	C	0.978060	-0.301999	1.069409
C218	C	1.311393	0.031334	1.402742
C219	C	1.644726	0.364668	1.736076
H220	H	1.056591	-0.540474	0.229173
H221	H	1.389925	-0.207140	0.562507
H222	H	1.723258	0.126193	0.895840
Br223	Br	0.383930	-0.207743	0.396482
Br224	Br	0.717263	0.125590	0.729816
Br225	Br	1.050597	0.458923	1.063149
H226	H	1.088742	-0.742246	0.292969
H227	H	1.422075	-0.408913	0.626302
H228	H	1.755409	-0.075579	0.959635
H229	H	0.867443	-0.742421	0.310718
H230	H	1.200776	-0.409087	0.644051
H231	H	1.534110	-0.075754	0.977384
Br232	Br	0.875979	-0.677040	0.396207
Br233	Br	1.209312	-0.343707	0.729540
Br234	Br	1.542646	-0.010374	1.062873
H235	H	0.236477	-0.229469	0.374696
H236	H	0.569810	0.103864	0.708029
H237	H	0.903144	0.437198	1.041363
Br238	Br	0.573076	-0.207720	0.396467
Br239	Br	0.906410	0.125613	0.729800
Br240	Br	1.239743	0.458946	1.063133
H241	H	0.592119	-0.374568	0.229001
H242	H	0.925452	-0.041235	0.562334
H243	H	1.258785	0.292098	0.895668
H244	H	0.720482	-0.229425	0.374667
H245	H	1.053815	0.103908	0.708000
H246	H	1.387148	0.437241	1.041333
H247	H	0.720364	-0.374562	0.228991
H248	H	1.053697	-0.041229	0.562324
H249	H	1.387031	0.292105	0.895658
Br250	Br	0.217150	-0.396327	0.207235
Br251	Br	0.550484	-0.062993	0.540569
Br252	Br	0.883817	0.270340	0.873902
Br253	Br	1.080232	-0.207617	0.523261
Br254	Br	1.413565	0.125716	0.856595
Br255	Br	1.746899	0.459050	1.189928
Br256	Br	1.080192	-0.207587	0.677497
Br257	Br	1.413525	0.125746	1.010830
Br258	Br	1.746858	0.459080	1.344163
H259	H	1.056642	-0.229310	1.063358
H260	H	1.389975	0.104024	1.396691
H261	H	1.723309	0.437357	1.730025
Br262	Br	0.875919	-0.522803	0.396186
Br263	Br	1.209252	-0.189470	0.729519
Br264	Br	1.542585	0.143864	1.062852
H265	H	1.056645	-0.659182	0.229199
H266	H	1.389978	-0.325849	0.562532
H267	H	1.723311	0.007484	0.895865
H268	H	0.364595	-0.374596	0.229013
H269	H	0.697928	-0.041262	0.562346
H270	H	1.031261	0.292071	0.895679
Br271	Br	0.876006	-0.396470	0.677414
Br272	Br	1.209339	-0.063137	1.010747
Br273	Br	1.542672	0.270196	1.344080
H274	H	0.899493	-0.374702	0.944590
H275	H	1.232826	-0.041368	1.277923
H276	H	1.566160	0.291965	1.611257
Br277	Br	0.990781	-0.168970	0.725043
Br278	Br	1.324114	0.164363	1.058376
Br279	Br	1.657448	0.497696	1.391709
H280	H	0.987843	-0.199604	0.861519
H281	H	1.321177	0.133729	1.194852
H282	H	1.654510	0.467063	1.528186
H283	H	1.056664	-0.229325	0.944651
H284	H	1.389997	0.104008	1.277984
H285	H	1.723331	0.437342	1.611318
Br286	Br	0.965423	-0.435088	0.879260
Br287	Br	1.298757	-0.101754	1.212593
Br288	Br	1.632090	0.231579	1.545926
Br289	Br	0.875953	-0.396434	1.081050
Br290	Br	1.209286	-0.063100	1.414383
Br291	Br	1.542620	0.270233	1.747717
Br292	Br	0.965457	-0.435103	0.725027
Br293	Br	1.298791	-0.101770	1.058361
Br294	Br	1.632124	0.231563	1.391694
Br295	Br	0.834392	-0.878913	0.313394
Br296	Br	1.167725	-0.545580	0.646727
Br297	Br	1.501058	-0.212247	0.980060
Br298	Br	1.121909	-0.878692	0.290334
Br299	Br	1.455242	-0.545359	0.623667
Br300	Br	1.788575	-0.212025	0.957001
Br301	Br	1.080259	-0.926336	0.207502
Br302	Br	1.413593	-0.593002	0.540835
Br303	Br	1.746926	-0.259669	0.874168
Br304	Br	0.876016	-0.396481	0.523176
Br305	Br	1.209349	-0.063148	0.856510
Br306	Br	1.542683	0.270186	1.189843
H307	H	1.056815	-1.062819	0.229275
H308	H	1.390148	-0.729486	0.562609
H309	H	1.723482	-0.396152	0.895942
Br310	Br	0.876079	-0.926443	0.396250
Br311	Br	1.209412	-0.593110	0.729583
Br312	Br	1.542746	-0.259777	1.062917
Br313	Br	0.876142	-1.080677	0.396281
Br314	Br	1.209476	-0.747343	0.729615
Br315	Br	1.542809	-0.414010	1.062948
