data_functionalizedCrystal
_audit_creation_method	'MofGen! by Chris Wilmer'
_symmetry_space_group_name_H-M	'P1'
_symmetry_Int_Tables_number	1
_symmetry_cell_setting	triclinic
loop_
_symmetry_equiv_pos_as_xyz
  x,y,z
_cell_length_a	19.805399
_cell_length_b	19.805407
_cell_length_c	19.805404
_cell_angle_alpha	90.030762
_cell_angle_beta	90.025147
_cell_angle_gamma	90.019573
loop_
_atom_site_label
_atom_site_type_symbol
_atom_site_fract_x
_atom_site_fract_y
_atom_site_fract_z
Zn1	Zn	-0.382731	-1.034715	0.269479
Zn2	Zn	0.117269	-0.534715	0.769479
Zn3	Zn	-0.269548	-1.034621	0.382667
Zn4	Zn	0.230452	-0.534621	0.882667
Zn5	Zn	-0.269556	-0.921530	0.269498
Zn6	Zn	0.230444	-0.421530	0.769498
Zn7	Zn	-0.382694	-0.921485	0.382631
Zn8	Zn	0.117306	-0.421485	0.882631
O9	O	-0.326132	-0.978088	0.326069
O10	O	0.173868	-0.478088	0.826069
O11	O	-0.367729	-1.129419	0.284501
O12	O	0.132271	-0.629419	0.784501
O13	O	-0.174832	-1.019599	0.367678
O14	O	0.325168	-0.519599	0.867678
O15	O	-0.284587	-0.936602	0.174778
O16	O	0.215413	-0.436602	0.674778
O17	O	-0.284574	-1.129350	0.367660
O18	O	0.215426	-0.629350	0.867660
O19	O	-0.367737	-1.019759	0.174765
O20	O	0.132263	-0.519759	0.674765
O21	O	-0.174838	-0.936511	0.284533
O22	O	0.325162	-0.436511	0.784533
O23	O	-0.284552	-0.826807	0.284498
O24	O	0.215448	-0.326807	0.784498
O25	O	-0.477416	-0.936525	0.367598
O26	O	0.022584	-0.436525	0.867598
O27	O	-0.367674	-0.826774	0.367617
O28	O	0.132326	-0.326774	0.867617
O29	O	-0.477443	-1.019715	0.284466
O30	O	0.022557	-0.519715	0.784466
O31	O	-0.284538	-1.019556	0.477379
O32	O	0.215462	-0.519556	0.977379
O33	O	-0.367667	-0.936434	0.477353
O34	O	0.132333	-0.436434	0.977353
C35	C	-0.326110	-0.802232	0.326056
C36	C	0.173890	-0.302232	0.826056
C37	C	-0.326117	-0.727000	0.326067
C38	C	0.173883	-0.227000	0.826067
C39	C	-0.326112	-0.977998	0.501925
C40	C	0.173888	-0.477998	1.001925
C41	C	-0.326126	-0.978022	0.577157
C42	C	0.173874	-0.478022	1.077157
C43	C	-0.502675	-0.978126	0.326026
C44	C	-0.002675	-0.478126	0.826026
C45	C	-0.577907	-0.978142	0.326008
C46	C	-0.077907	-0.478142	0.826008
C47	C	-0.613266	-1.021460	0.282719
C48	C	-0.113266	-0.521460	0.782719
C49	C	-0.683955	-1.021467	0.282699
C50	C	-0.183955	-0.521467	0.782699
C51	C	-0.719283	-0.978159	0.325973
C52	C	-0.219283	-0.478159	0.825973
C53	C	-0.683918	-0.934836	0.369264
C54	C	-0.183918	-0.434836	0.869264
C55	C	-0.613231	-0.934826	0.369280
C56	C	-0.113231	-0.434826	0.869280
C57	C	-0.968992	-0.934874	0.369201
C58	C	-0.468992	-0.434874	0.869201
C59	C	-1.039684	-0.934889	0.369183
C60	C	-0.539684	-0.434889	0.869183
C61	C	-1.039715	-1.021515	0.282620
C62	C	-0.539715	-0.521515	0.782620
C63	C	-0.969028	-1.021505	0.282636
C64	C	-0.469028	-0.521505	0.782636
C65	C	-0.933670	-0.978180	0.325924
C66	C	-0.433670	-0.478180	0.825924
C67	C	-0.857022	-0.978172	0.325944
C68	C	-0.357022	-0.478172	0.825944
C69	C	-0.795930	-0.978170	0.325957
C70	C	-0.295930	-0.478170	0.825957
C71	C	-0.150276	-0.978089	0.326062
C72	C	0.349724	-0.478089	0.826062
C73	C	-0.075045	-0.978204	0.325890
C74	C	0.424955	-0.478204	0.825890
C75	C	-0.326155	-1.154631	0.326082
C76	C	0.173845	-0.654631	0.826082
C77	C	-0.326164	-1.229862	0.326088
C78	C	0.173836	-0.729862	0.826088
C79	C	-0.369329	-0.691656	0.369412
C80	C	0.130671	-0.191656	0.869412
C81	C	-0.369338	-0.620968	0.369413
C82	C	0.130662	-0.120968	0.869413
C83	C	-0.326132	-0.585624	0.326072
C84	C	0.173868	-0.085624	0.826072
C85	C	-0.282918	-0.620973	0.282722
C86	C	0.217082	-0.120973	0.782722
C87	C	-0.282913	-0.691660	0.282718
C88	C	0.217087	-0.191660	0.782718
C89	C	-0.282941	-0.335900	0.282737
C90	C	0.217059	0.164100	0.782737
C91	C	-0.282948	-0.265207	0.282746
C92	C	0.217052	0.234793	0.782746
C93	C	-0.369366	-0.265207	0.369432
C94	C	0.130634	0.234793	0.869432
C95	C	-0.369361	-0.335894	0.369428
C96	C	0.130639	0.164106	0.869428
C97	C	-0.326150	-0.371237	0.326076
C98	C	0.173850	0.128763	0.826076
C99	C	-0.326141	-0.447885	0.326074
C100	C	0.173859	0.052115	0.826074
C101	C	-0.326137	-0.508977	0.326076
C102	C	0.173863	-0.008977	0.826076
C103	C	-0.282966	-1.021521	1.038939
C104	C	0.217034	-0.521521	1.538939
C105	C	-0.282951	-1.021490	0.968251
C106	C	0.217049	-0.521490	1.468251
C107	C	-0.326189	-0.978164	0.932918
C108	C	0.173811	-0.478164	1.432918
C109	C	-0.369441	-0.934861	0.968278
C110	C	0.130559	-0.434861	1.468278
C111	C	-0.369452	-0.934888	1.038966
C112	C	0.130548	-0.434888	1.538966
C113	C	-0.369394	-0.934749	0.683205
C114	C	0.130606	-0.434749	1.183205
C115	C	-0.369380	-0.934726	0.612513
C116	C	0.130620	-0.434726	1.112513
C117	C	-0.282892	-1.021351	0.612490
C118	C	0.217108	-0.521351	1.112490
C119	C	-0.282904	-1.021378	0.683177
C120	C	0.217096	-0.521378	1.183177
C121	C	-0.326153	-0.978073	0.718531
C122	C	0.173847	-0.478073	1.218531
C123	C	-0.326168	-0.978105	0.795179
C124	C	0.173832	-0.478105	1.295179
C125	C	-0.326177	-0.978135	0.856271
C126	C	0.173823	-0.478135	1.356271
C127	C	-0.326176	-0.978191	1.149526
C128	C	0.173824	-0.478191	1.649526
C129	C	-0.326216	-0.978222	1.074294
C130	C	0.173784	-0.478222	1.574294
H131	H	-0.584507	-1.056729	0.247482
H132	H	-0.084507	-0.556729	0.747482
H133	H	-0.404643	-0.899580	0.939507
H134	H	0.095357	-0.399580	1.439507
C135	C	-0.574333	-0.887178	0.416897
C136	C	-0.074333	-0.387178	0.916897
H137	H	-0.527175	-0.893369	0.410704
H138	H	-0.027175	-0.393369	0.910704
H139	H	-0.585908	-0.897054	0.462373
H140	H	-0.085908	-0.397054	0.962373
H141	H	-0.585912	-0.841707	0.406978
H142	H	-0.085912	-0.341707	0.906978
H143	H	-0.247697	-1.056661	0.711941
H144	H	0.252303	-0.556661	1.211941
H145	H	-0.404591	-0.899442	0.583747
H146	H	0.095409	-0.399442	1.083747
C147	C	-0.416830	-0.582092	0.417134
C148	C	0.083170	-0.082092	0.917134
H149	H	-0.442543	-0.613266	0.442963
H150	H	0.057457	-0.113266	0.942963
H151	H	-0.446385	-0.554522	0.391323
H152	H	0.053615	-0.054522	0.891323
H153	H	-0.390846	-0.554513	0.446580
H154	H	0.109154	-0.054513	0.946580
H155	H	-0.404604	-0.899481	0.711982
H156	H	0.095396	-0.399481	1.211982
C157	C	-0.235381	-0.730541	0.235040
C158	C	0.264619	-0.230541	0.735040
H159	H	-0.241570	-0.777701	0.241239
H160	H	0.258430	-0.277701	0.741239
H161	H	-0.189887	-0.718935	0.244883
H162	H	0.310113	-0.218935	0.744883
H163	H	-0.245374	-0.718981	0.189575
H164	H	0.254626	-0.218981	0.689575
H165	H	-0.247674	-1.056611	0.583698
H166	H	0.252326	-0.556611	1.083698
H167	H	-0.404674	-0.899633	1.067751
H168	H	0.095326	-0.399633	1.567751
H169	H	-0.247733	-1.056747	0.939465
H170	H	0.252267	-0.556747	1.439465
C171	C	-0.722847	-1.069120	0.235084
C172	C	-0.222847	-0.569120	0.735084
H173	H	-0.691683	-1.094917	0.209321
H174	H	-0.191683	-0.594917	0.709321
H175	H	-0.750423	-1.043254	0.205582
H176	H	-0.250423	-0.543254	0.705582
H177	H	-0.750422	-1.098599	0.260978
H178	H	-0.250422	-0.598599	0.760978
C179	C	-0.416876	-0.374772	0.417112
C180	C	0.083124	0.125228	0.917112
H181	H	-0.410676	-0.421933	0.410908
H182	H	0.089324	0.078067	0.910908
H183	H	-0.462375	-0.363217	0.407277
H184	H	0.037625	0.136783	0.907277
H185	H	-0.406877	-0.363157	0.462576
H186	H	0.093123	0.136843	0.962576
C187	C	-0.930171	-1.069141	0.235033
C188	C	-0.430171	-0.569141	0.735033
H189	H	-0.961355	-1.094937	0.209243
H190	H	-0.461355	-0.594937	0.709243
H191	H	-0.902594	-1.098613	0.260930
H192	H	-0.402594	-0.598613	0.760930
H193	H	-0.902600	-1.043256	0.205545
H194	H	-0.402600	-0.543256	0.705545
C195	C	-0.416905	-0.226329	0.417112
C196	C	0.083095	0.273671	0.917112
H197	H	-0.410729	-0.179168	0.410904
H198	H	0.089271	0.320832	0.910904
H199	H	-0.406919	-0.237887	0.462576
H200	H	0.093081	0.262113	0.962576
H201	H	-0.462400	-0.237941	0.407262
H202	H	0.037600	0.262059	0.907262
H203	H	-1.068512	-1.056790	0.247370
H204	H	-0.568512	-0.556790	0.747370
H205	H	-1.068446	-0.899619	0.404423
H206	H	-0.568446	-0.399619	0.904423
C207	C	-0.235404	-1.069177	1.077801
C208	C	0.264596	-0.569177	1.577801
H209	H	-0.241607	-1.062998	1.124964
H210	H	0.258393	-0.562998	1.624964
H211	H	-0.189916	-1.059294	1.066252
H212	H	0.310084	-0.559294	1.566252
H213	H	-0.245353	-1.114647	1.066169
H214	H	0.254647	-0.614647	1.566169
C215	C	-0.930104	-0.887225	0.416819
C216	C	-0.430104	-0.387225	0.916819
H217	H	-0.882945	-0.893414	0.410629
H218	H	-0.382945	-0.393414	0.910629
H219	H	-0.941681	-0.897105	0.462294
H220	H	-0.441681	-0.397105	0.962294
H221	H	-0.941684	-0.841754	0.406903
H222	H	-0.441684	-0.341754	0.906903
C223	C	-0.722777	-0.887199	0.416864
C224	C	-0.222777	-0.387199	0.916864
H225	H	-0.769940	-0.893413	0.410661
H226	H	-0.269940	-0.393413	0.910661
H227	H	-0.711187	-0.841726	0.406959
H228	H	-0.211187	-0.341726	0.906959
H229	H	-0.711183	-0.897080	0.462347
H230	H	-0.211183	-0.397080	0.962347
H231	H	-0.404510	-0.720428	0.404707
H232	H	0.095490	-0.220428	0.904707
H233	H	-0.247765	-0.236433	0.247448
H234	H	0.252235	0.263567	0.747448
C235	C	-0.235399	-0.374768	0.235063
C236	C	0.264601	0.125232	0.735063
H237	H	-0.209662	-0.343592	0.209261
H238	H	0.290338	0.156408	0.709261
H239	H	-0.261331	-0.402371	0.205600
H240	H	0.238669	0.097629	0.705600
H241	H	-0.205860	-0.402314	0.260925
H242	H	0.294140	0.097686	0.760925
H243	H	-0.247742	-0.592191	0.247430
H244	H	0.252258	-0.092191	0.747430
