data_functionalizedCrystal
_audit_creation_method	'MofGen! by Chris Wilmer'
_symmetry_space_group_name_H-M	'P1'
_symmetry_Int_Tables_number	1
_symmetry_cell_setting	triclinic
loop_
_symmetry_equiv_pos_as_xyz
  x,y,z
_cell_length_a	12.759401
_cell_length_b	12.759399
_cell_length_c	12.759393
_cell_angle_alpha	89.973195
_cell_angle_beta	89.979434
_cell_angle_gamma	90.012458
loop_
_atom_site_label
_atom_site_type_symbol
_atom_site_fract_x
_atom_site_fract_y
_atom_site_fract_z
Zn1	Zn	-1.606270	0.418266	0.594037
Zn2	Zn	-1.606162	0.593981	0.418368
Zn3	Zn	-1.430568	0.418311	0.418373
Zn4	Zn	-1.430562	0.593898	0.594006
O5	O	-1.518390	0.506114	0.506196
O6	O	-1.753276	0.441591	0.570744
O7	O	-1.582827	0.570732	0.271348
O8	O	-1.453923	0.271284	0.441690
O9	O	-1.753197	0.570688	0.441681
O10	O	-1.583010	0.271251	0.570749
O11	O	-1.453819	0.441669	0.271351
O12	O	-1.283546	0.441587	0.441660
O13	O	-1.453912	0.570546	0.741032
O14	O	-1.283542	0.570590	0.570698
O15	O	-1.583004	0.441510	0.741054
O16	O	-1.582821	0.740991	0.441652
O17	O	-1.453808	0.740930	0.570693
C18	C	-1.245423	0.506085	0.506177
C19	C	-1.128646	0.506098	0.506194
C20	C	-1.073826	0.438997	0.573500
C21	C	-0.964102	0.439003	0.573505
C22	C	-0.964028	0.573222	0.438895
C23	C	-1.073750	0.573210	0.438886
C24	C	-1.518330	0.779081	0.506192
C25	C	-1.518401	0.895858	0.506225
C26	C	-1.518469	0.506013	0.780229
C27	C	-1.518503	0.505970	0.897006
C28	C	-0.792424	0.506134	0.506212
C29	C	-0.909200	0.506117	0.506209
C30	C	-1.585655	0.950717	0.439114
C31	C	-1.585724	1.060441	0.439157
C32	C	-1.451275	1.060437	0.573425
C33	C	-1.451212	0.950715	0.573387
C34	C	-1.518483	1.232081	0.506241
C35	C	-1.518533	1.115304	0.506307
C36	C	-1.518373	0.506139	0.233229
C37	C	-1.518543	0.505886	0.116452
C38	C	-1.585726	0.438770	0.951881
C39	C	-1.585743	0.438725	1.061606
C40	C	-1.451312	0.573088	1.061570
C41	C	-1.451290	0.573128	0.951847
H42	H	-0.919472	0.384361	0.628310
H43	H	-1.118386	0.627853	0.384071
C44	C	-1.391562	0.632842	0.783632
C45	C	-1.377392	0.646998	0.891519
H46	H	-1.345936	0.678439	0.746389
H47	H	-1.462135	0.648238	0.765666
H48	H	-1.376208	0.562251	0.765671
H49	H	-1.392754	0.717588	0.909481
H50	H	-1.306803	0.631611	0.909491
C51	C	-1.718563	0.961746	0.306406
C52	C	-1.659515	0.890417	0.365299
H53	H	-1.764167	0.924519	0.260841
H54	H	-1.672834	1.004608	0.266196
H55	H	-1.758749	1.004473	0.352244
H56	H	-1.619323	0.847694	0.319460
H57	H	-1.705250	0.847536	0.405512
C58	C	-1.318428	0.705902	1.050512
C59	C	-1.377441	0.646913	1.121854
H60	H	-1.272820	0.751476	1.087730
H61	H	-1.364180	0.746107	1.007720
H62	H	-1.278249	0.660125	1.007715
H63	H	-1.417627	0.692690	1.164646
H64	H	-1.331683	0.606705	1.164664
C65	C	-1.636999	0.260819	1.095393
C66	C	-1.659642	0.364856	1.121919
H67	H	-1.682628	0.215215	1.132623
H68	H	-1.566428	0.245431	1.113372
H69	H	-1.646605	0.251252	1.022195
H70	H	-1.650029	0.374425	1.195117
H71	H	-1.730230	0.380249	1.103947
C72	C	-1.727199	1.183635	0.424812
C73	C	-1.659722	1.120702	0.365423
H74	H	-1.772909	1.220819	0.379300
H75	H	-1.687198	1.232039	0.464765
H76	H	-1.767266	1.140720	0.470636
H77	H	-1.619650	1.163617	0.319604
H78	H	-1.699728	1.072293	0.325452
H79	H	-1.118520	0.384347	0.628303
H80	H	-0.919318	0.627863	0.384097
H81	H	-1.396571	1.105116	0.628104
H82	H	-1.396445	0.906046	0.628042
H83	H	-1.640452	0.384083	0.907233
