data_functionalizedCrystal
_audit_creation_method	'MofGen! by Chris Wilmer'
_symmetry_space_group_name_H-M	'P1'
_symmetry_Int_Tables_number	1
_symmetry_cell_setting	triclinic
loop_
_symmetry_equiv_pos_as_xyz
  x,y,z
_cell_length_a	16.120530
_cell_length_b	12.759400
_cell_length_c	12.759393
_cell_angle_alpha	90.025341
_cell_angle_beta	92.919000
_cell_angle_gamma	87.099054
loop_
_atom_site_label
_atom_site_type_symbol
_atom_site_fract_x
_atom_site_fract_y
_atom_site_fract_z
Zn1	Zn	1.274707	-0.499760	0.675485
Zn2	Zn	1.274651	-0.675475	0.499821
Zn3	Zn	1.135282	-0.490894	0.490915
Zn4	Zn	1.135301	-0.666478	0.666557
O5	O	1.204985	-0.583152	0.583195
O6	O	1.391367	-0.530545	0.659647
O7	O	1.256132	-0.651045	0.351616
O8	O	1.153792	-0.345050	0.515408
O9	O	1.391327	-0.659642	0.530587
O10	O	1.256227	-0.351564	0.651011
O11	O	1.153738	-0.515434	0.345073
O12	O	1.018616	-0.506710	0.506751
O13	O	1.153825	-0.644308	0.814765
O14	O	1.018631	-0.635711	0.635795
O15	O	1.256245	-0.521821	0.821324
O16	O	1.256151	-0.821302	0.521930
O17	O	1.153771	-0.814692	0.644430
C18	C	0.988373	-0.569273	0.569338
C19	C	0.895705	-0.563361	0.563435
C20	C	1.204980	-0.856119	0.583202
C21	C	1.205054	-0.972900	0.583245
C22	C	1.205044	-0.583050	0.857232
C23	C	1.205068	-0.583006	0.974010
C24	C	0.726040	-0.552542	0.552667
C25	C	0.684771	-0.613839	0.613799
C26	C	0.590363	-0.607819	0.607808
C27	C	0.820456	-0.558560	0.558657
C28	C	1.422443	-0.597086	0.597106
C29	C	1.515111	-0.603024	0.603034
C30	C	1.205013	-0.309120	0.583212
C31	C	1.205025	-0.192344	0.583219
C32	C	1.151704	-0.134090	0.512622
C33	C	1.151715	-0.024367	0.512637
C34	C	1.258378	-0.031162	0.653850
C35	C	1.258361	-0.140883	0.653839
C36	C	1.090125	-0.130166	0.431091
C37	C	1.090137	-0.020443	0.431106
C38	C	1.204975	-0.583181	0.310227
C39	C	1.205112	-0.582939	0.193459
C40	C	1.258406	-0.519221	1.032290
C41	C	1.258426	-0.519184	1.142015
C42	C	1.151768	-0.646727	1.135172
C43	C	1.151745	-0.646757	1.025448
C44	C	1.319987	-0.445589	1.036242
C45	C	1.320007	-0.445552	1.145967
H46	H	0.720342	-0.670836	0.670637
H47	H	1.108309	-0.698693	0.978000
Cl48	Cl	1.325379	-0.214113	0.742615
Cl49	Cl	1.293296	-0.318266	0.988573
Cl50	Cl	0.671125	-0.464547	0.464918
H51	H	1.025554	-0.155792	0.448748
Cl52	Cl	1.325423	0.033539	0.742626
Cl53	Cl	1.419704	-0.485561	1.198326
H54	H	1.113235	-0.165708	0.355274
H55	H	1.381310	-0.478681	1.006128
H56	H	1.108352	-0.698628	1.177065
Cl57	Cl	0.995454	0.038195	0.470050
Cl58	Cl	1.116798	0.023788	0.307185
H59	H	1.296891	-0.366764	1.178530
