data_functionalizedCrystal
_audit_creation_method	'MofGen! by Chris Wilmer'
_symmetry_space_group_name_H-M	'P1'
_symmetry_Int_Tables_number	1
_symmetry_cell_setting	triclinic
loop_
_symmetry_equiv_pos_as_xyz
  x,y,z
_cell_length_a	19.077105
_cell_length_b	14.908520
_cell_length_c	19.076919
_cell_angle_alpha	84.570994
_cell_angle_beta	89.923776
_cell_angle_gamma	91.150228
loop_
_atom_site_label
_atom_site_type_symbol
_atom_site_fract_x
_atom_site_fract_y
_atom_site_fract_z
Zn1	Zn	1.037881	-0.436364	0.459234
Zn2	Zn	1.371214	-0.103030	0.792567
Zn3	Zn	1.704547	0.230303	1.125900
Zn4	Zn	1.035744	-0.581390	0.347980
Zn5	Zn	1.369077	-0.248057	0.681314
Zn6	Zn	1.702411	0.085276	1.014647
Zn7	Zn	0.925663	-0.424281	0.336506
Zn8	Zn	1.258996	-0.090947	0.669839
Zn9	Zn	1.592330	0.242386	1.003173
Zn10	Zn	0.913591	-0.580846	0.460710
Zn11	Zn	1.246924	-0.247513	0.794043
Zn12	Zn	1.580258	0.085820	1.127376
O13	O	0.978220	-0.505720	0.401107
O14	O	1.311553	-0.172387	0.734441
O15	O	1.644886	0.160946	1.067774
O16	O	1.135682	-0.460886	0.448660
O17	O	1.469015	-0.127553	0.781993
O18	O	1.802349	0.205780	1.115327
O19	O	1.025299	-0.555720	0.247919
O20	O	1.358633	-0.222387	0.581252
O21	O	1.691966	0.110946	0.914585
O22	O	0.946495	-0.299666	0.347366
O23	O	1.279829	0.033667	0.680700
O24	O	1.613162	0.367001	1.014033
O25	O	1.134112	-0.567437	0.366923
O26	O	1.467445	-0.234103	0.700256
O27	O	1.800779	0.099230	1.033589
O28	O	1.028941	-0.308543	0.437534
O29	O	1.362274	0.024790	0.770867
O30	O	1.695608	0.358123	1.104201
O31	O	0.944423	-0.440292	0.239489
O32	O	1.277757	-0.106959	0.572822
O33	O	1.611090	0.226374	0.906155
O34	O	0.825977	-0.439765	0.348797
O35	O	1.159310	-0.106432	0.682131
O36	O	1.492643	0.226902	1.015464
O37	O	0.925920	-0.566510	0.559053
O38	O	1.259254	-0.233176	0.892387
O39	O	1.592587	0.100157	1.225720
O40	O	0.817107	-0.554793	0.440049
O41	O	1.150441	-0.221460	0.773383
O42	O	1.483774	0.111873	1.106716
O43	O	1.017235	-0.460359	0.557969
O44	O	1.350569	-0.127025	0.891302
O45	O	1.683902	0.206308	1.224636
O46	O	1.013594	-0.707536	0.368354
O47	O	1.346927	-0.374202	0.701687
O48	O	1.680260	-0.040869	1.035021
O49	O	0.923848	-0.707136	0.451175
O50	O	1.257182	-0.373803	0.784509
O51	O	1.590515	-0.040469	1.117842
C52	C	0.796110	-0.495910	0.393339
C53	C	1.129443	-0.162576	0.726672
C54	C	1.462776	0.170757	1.060005
C55	C	0.718201	-0.491735	0.390033
C56	C	1.051534	-0.158402	0.723366
C57	C	1.384867	0.174932	1.056700
C58	C	0.967198	-0.740065	0.411186
C59	C	1.300531	-0.406731	0.744519
C60	C	1.633864	-0.073398	1.077853
C61	C	0.962545	-0.840323	0.415524
C62	C	1.295879	-0.506989	0.748857
C63	C	1.629212	-0.173656	1.082191
C64	C	0.676998	-0.549746	0.435923
C65	C	1.010332	-0.216413	0.769256
C66	C	1.343665	0.116920	1.102590
C67	C	0.603795	-0.545812	0.432820
C68	C	0.937128	-0.212479	0.766153
C69	C	1.270462	0.120854	1.099486
C70	C	0.571795	-0.483870	0.383823
C71	C	0.905128	-0.150537	0.717156
C72	C	1.238462	0.182796	1.050489
C73	C	0.613003	-0.425853	0.337931
C74	C	0.946336	-0.092520	0.671264
C75	C	1.279669	0.240814	1.004597
C76	C	0.686205	-0.429783	0.341038
C77	C	1.019538	-0.096450	0.674371
C78	C	1.352872	0.236883	1.007705
C79	C	0.353358	-0.465680	0.369446
C80	C	0.686691	-0.132347	0.702779
C81	C	1.020024	0.200986	1.036112
C82	C	0.280150	-0.461756	0.366341
C83	C	0.613483	-0.128423	0.699674
C84	C	0.946817	0.204911	1.033007
C85	C	0.270947	-0.581715	0.461231
C86	C	0.604281	-0.248381	0.794564
C87	C	0.937614	0.084952	1.127897
C88	C	0.344151	-0.585643	0.464331
C89	C	0.677484	-0.252310	0.797664
C90	C	1.010818	0.081023	1.130997
C91	C	0.385353	-0.527623	0.418441
C92	C	0.718686	-0.194289	0.751775
C93	C	1.052019	0.139044	1.085108
N94	N	0.496969	-0.479850	0.380648
N95	N	0.830303	-0.146516	0.713981
N96	N	1.163636	0.186817	1.047315
N97	N	0.460177	-0.531640	0.421620
N98	N	0.793510	-0.198306	0.754953
N99	N	1.126844	0.135027	1.088287
C100	C	1.047344	-1.029082	0.337510
C101	C	1.380678	-0.695748	0.670843
C102	C	1.714011	-0.362415	1.004177
C103	C	1.042976	-1.123283	0.341584
C104	C	1.376309	-0.789950	0.674917
C105	C	1.709642	-0.456617	1.008250
C106	C	0.949443	-1.122929	0.427749
C107	C	1.282777	-0.789596	0.761082
C108	C	1.616110	-0.456262	1.094415
C109	C	0.953812	-1.028727	0.423675
C110	C	1.287145	-0.695394	0.757008
C111	C	1.620479	-0.362061	1.090342
C112	C	1.002763	-0.981807	0.378553
C113	C	1.336097	-0.648474	0.711887
C114	C	1.669430	-0.315140	1.045220
C115	C	1.007128	-0.887604	0.374476
C116	C	1.340462	-0.554270	0.707810
C117	C	1.673795	-0.220937	1.041143
C118	C	0.913600	-0.887251	0.460644
C119	C	1.246933	-0.553918	0.793978
C120	C	1.580266	-0.220585	1.127311
C121	C	0.909231	-0.981453	0.464718
C122	C	1.242564	-0.648120	0.798051
C123	C	1.575898	-0.314786	1.131385
C124	C	1.161040	-0.515570	0.408907
C125	C	1.494374	-0.182237	0.742240
C126	C	1.827707	0.151097	1.075573
C127	C	1.238948	-0.519767	0.412230
C128	C	1.572281	-0.186434	0.745564
C129	C	1.905614	0.146899	1.078897
C130	C	0.970470	-0.514721	0.584776
C131	C	1.303803	-0.181388	0.918109
C132	C	1.637136	0.151945	1.251442
C133	C	0.967167	-0.518557	0.663044
C134	C	1.300500	-0.185224	0.996378
C135	C	1.633834	0.148110	1.329711
C136	C	0.989303	-0.270463	0.391006
C137	C	1.322636	0.062871	0.724339
C138	C	1.655970	0.396204	1.057672
C139	C	0.994026	-0.170210	0.386701
C140	C	1.327360	0.163123	0.720034
C141	C	1.660693	0.496457	1.053367
C142	C	0.985983	-0.496691	0.218153
C143	C	1.319316	-0.163358	0.551486
C144	C	1.652649	0.169975	0.884819
C145	C	0.989433	-0.492609	0.139879
C146	C	1.322766	-0.159275	0.473213
C147	C	1.656100	0.174058	0.806546
C148	C	1.013156	-0.465095	0.699251
C149	C	1.346489	-0.131761	1.032585
C150	C	1.679822	0.201572	1.365918
C151	C	1.010044	-0.468695	0.772793
C152	C	1.343378	-0.135361	1.106126
C153	C	1.676711	0.197972	1.439459
C154	C	0.960947	-0.525763	0.810125
C155	C	1.294280	-0.192429	1.143459
C156	C	1.627613	0.140904	1.476792
C157	C	0.914953	-0.579227	0.773913
C158	C	1.248286	-0.245894	1.107246
C159	C	1.581620	0.087439	1.440579
C160	C	0.918062	-0.575622	0.700373
C161	C	1.251395	-0.242289	1.033706
C162	C	1.584728	0.091045	1.367039
C163	C	0.946548	-0.542468	1.030127
C164	C	1.279881	-0.209134	1.363460
C165	C	1.613215	0.124199	1.696793
C166	C	0.943444	-0.546071	1.103672
C167	C	1.276778	-0.212738	1.437005
C168	C	1.610111	0.120595	1.770339
C169	C	1.038535	-0.435537	1.102547
C170	C	1.371868	-0.102204	1.435880
C171	C	1.705202	0.231130	1.769213
C172	C	1.041642	-0.431941	1.029006
C173	C	1.374976	-0.098607	1.362339
C174	C	1.708309	0.234726	1.695672
C175	C	0.995646	-0.485402	0.992799
C176	C	1.328979	-0.152068	1.326132
C177	C	1.662313	0.181265	1.659466
N178	N	0.957767	-0.529446	0.885296
N179	N	1.291100	-0.196113	1.218630
N180	N	1.624433	0.137220	1.551963
N181	N	0.998824	-0.481713	0.917629
N182	N	1.332157	-0.148379	1.250962
N183	N	1.665490	0.184954	1.584296
H184	H	0.703047	-0.600189	0.475819
H185	H	1.036380	-0.266856	0.809153
H186	H	1.369714	0.066478	1.142486
F187	F	0.227093	-0.643461	0.510065
F188	F	0.560426	-0.310128	0.843398
F189	F	0.893760	0.023205	1.176731
F190	F	1.059015	-0.411825	0.811326
F191	F	1.392348	-0.078491	1.144660
F192	F	1.725681	0.254842	1.477993
H193	H	0.254099	-0.411305	0.326445
H194	H	0.587432	-0.077972	0.659778
H195	H	0.920765	0.255361	0.993112
H196	H	1.075982	-0.392011	1.132034
H197	H	1.409315	-0.058678	1.465367
H198	H	1.742648	0.274656	1.798700
F199	F	0.862697	-0.639960	0.813647
F200	F	1.196030	-0.306627	1.146980
F201	F	1.529363	0.026707	1.480313
F202	F	0.897358	-1.172881	0.475774
F203	F	1.230691	-0.839547	0.809108
F204	F	1.564025	-0.506214	1.142441
F205	F	1.093899	-0.371201	0.989278
F206	F	1.427232	-0.037868	1.322612
F207	F	1.760566	0.295465	1.655945
H208	H	0.386895	-0.418442	0.332074
H209	H	0.720229	-0.085109	0.665408
H210	H	1.053562	0.248224	0.998741
F211	F	0.869112	-0.632522	0.661838
F212	F	1.202446	-0.299188	0.995172
F213	F	1.535779	0.034145	1.328505
H214	H	1.046985	-0.849402	0.337734
H215	H	1.380318	-0.516068	0.671067
H216	H	1.713652	-0.182735	1.004401
F217	F	0.730055	-0.368038	0.292197
F218	F	1.063389	-0.034705	0.625530
F219	F	1.396722	0.298629	0.958864
F220	F	0.891183	-0.606810	1.143403
F221	F	1.224516	-0.273477	1.476736
F222	F	1.557849	0.059857	1.810069
H223	H	0.370200	-0.636085	0.504228
H224	H	0.703533	-0.302751	0.837561
H225	H	1.036867	0.030582	1.170894
F226	F	0.559947	-0.607556	0.481662
F227	F	0.893281	-0.274223	0.814996
F228	F	1.226614	0.059111	1.148329
F229	F	1.065416	-0.404359	0.659526
F230	F	1.398749	-0.071026	0.992859
F231	F	1.732083	0.262308	1.326193
H232	H	0.586943	-0.375415	0.298039
H233	H	0.920276	-0.042082	0.631373
H234	H	1.253609	0.291252	0.964706
F235	F	1.099432	-0.979143	0.289480
F236	F	1.432766	-0.645809	0.622813
F237	F	1.766099	-0.312476	0.956146
H238	H	1.079279	-1.161771	0.308163
H239	H	1.412613	-0.828437	0.641497
H240	H	1.745946	-0.495104	0.974830
H241	H	0.877297	-0.848750	0.494062
H242	H	1.210630	-0.515416	0.827396
H243	H	1.543964	-0.182083	1.160729
F244	F	0.857139	-1.031399	0.512739
F245	F	1.190472	-0.698065	0.846073
F246	F	1.523805	-0.364732	1.179406
F247	F	0.897595	-0.599366	0.991602
F248	F	1.230928	-0.266033	1.324936
F249	F	1.564261	0.067300	1.658269
