data_functionalizedCrystal
_audit_creation_method	'MofGen! by Chris Wilmer'
_symmetry_space_group_name_H-M	'P1'
_symmetry_Int_Tables_number	1
_symmetry_cell_setting	triclinic
loop_
_symmetry_equiv_pos_as_xyz
  x,y,z
_cell_length_a	10.654550
_cell_length_b	16.109301
_cell_length_c	9.130313
_cell_angle_alpha	89.994060
_cell_angle_beta	89.999724
_cell_angle_gamma	83.973206
loop_
_atom_site_label
_atom_site_type_symbol
_atom_site_fract_x
_atom_site_fract_y
_atom_site_fract_z
O1	O	1.666255	0.116774	-0.121695
O2	O	1.300626	0.127899	-0.121723
O3	O	1.493485	0.001365	-0.121693
O4	O	1.473396	0.243308	-0.121725
O5	O	1.493472	0.001362	0.121906
O6	O	1.300613	0.127896	0.121876
O7	O	1.666242	0.116770	0.121904
Cu8	Cu	1.483426	0.122333	0.144132
Cu9	Cu	1.483442	0.122337	-0.143951
O10	O	1.473383	0.243304	0.121874
C11	C	1.253832	0.127081	0.000073
C12	C	1.114422	0.124637	0.000063
C13	C	1.033926	0.199138	0.000058
C14	C	0.902936	0.196836	0.000084
C15	C	0.932952	0.045526	0.000114
C16	C	1.063939	0.047828	0.000099
C17	C	1.492664	-0.029616	0.000107
C18	C	1.490225	-0.121926	0.000109
C19	C	1.598991	-0.343552	0.000094
C20	C	1.596689	-0.430286	0.000081
C21	C	1.367868	-0.411772	0.000070
C22	C	1.370172	-0.325039	0.000072
C23	C	1.485737	-0.290932	0.000091
C24	C	1.481131	-0.464398	0.000077
C25	C	1.478634	-0.558439	0.000064
C26	C	1.488234	-0.196885	0.000101
C27	C	1.713036	0.117589	0.000104
C28	C	1.852446	0.120033	0.000105
C29	C	1.474203	0.274286	0.000071
C30	C	1.476643	0.366596	0.000059
N31	N	1.483424	0.122329	0.346755
N32	N	1.483453	0.122334	-0.346574
C33	C	1.568851	0.066324	0.423420
C34	C	1.568863	0.066324	0.576757
C35	C	1.398018	0.178342	0.576750
C36	C	1.398001	0.178337	0.423416
H37	H	1.129483	-0.012843	0.000108
H38	H	1.273779	-0.439553	0.000057
O39	O	1.314998	0.232635	0.651387
C40	C	1.237543	0.187633	0.740084
H41	H	1.287594	0.122883	0.763064
H42	H	1.217676	0.222217	0.847903
H43	H	1.144728	0.181411	0.681013
H44	H	0.891833	-0.017009	0.000152
O45	O	1.651622	0.011845	0.348822
C46	C	1.584340	-0.039875	0.260229
H47	H	1.486084	-0.007335	0.237228
H48	H	1.636749	-0.052763	0.152413
H49	H	1.575783	-0.101347	0.319402
O50	O	1.711355	-0.310556	0.000029
C51	C	1.810821	-0.375603	0.000061
H52	H	1.775634	-0.434712	-0.046055
H53	H	1.891500	-0.357015	-0.070668
H54	H	1.845759	-0.387680	0.116925
H55	H	1.277941	-0.282194	0.000065
O56	O	1.706672	-0.481434	-0.000173
C57	C	1.712180	-0.532160	-0.126322
H58	H	1.647952	-0.500763	-0.214503
H59	H	1.813344	-0.541324	-0.168665
H60	H	1.679702	-0.595410	-0.097809
H61	H	1.638423	0.020718	0.639173
O62	O	1.315138	0.232862	0.349002
C63	C	1.335489	0.315293	0.386466
H64	H	1.436032	0.316323	0.428601
H65	H	1.321013	0.356925	0.285614
H66	H	1.265882	0.339288	0.475471
O67	O	1.082817	0.273797	-0.000159
C68	C	1.041690	0.319252	-0.126341
H69	H	0.950850	0.296066	-0.168388
H70	H	1.023476	0.388382	-0.097975
H71	H	1.117484	0.310064	-0.214693
O72	O	0.824617	0.269152	-0.000126
C73	C	0.747960	0.272354	-0.126296
H74	H	0.741358	0.206323	-0.168334
H75	H	0.649502	0.302759	-0.097918
H76	H	0.791030	0.310570	-0.214658
