data_functionalizedCrystal
_audit_creation_method	'MofGen! by Chris Wilmer'
_symmetry_space_group_name_H-M	'P1'
_symmetry_Int_Tables_number	1
_symmetry_cell_setting	triclinic
loop_
_symmetry_equiv_pos_as_xyz
  x,y,z
_cell_length_a	20.016444
_cell_length_b	23.196402
_cell_length_c	23.196401
_cell_angle_alpha	90.011299
_cell_angle_beta	119.989703
_cell_angle_gamma	120.003150
loop_
_atom_site_label
_atom_site_type_symbol
_atom_site_fract_x
_atom_site_fract_y
_atom_site_fract_z
Zr1	Zr	-0.731231	0.555353	-0.075627
O2	O	-0.870608	0.463279	-0.167669
O3	O	-0.591858	0.583579	-0.047416
O4	O	-0.731232	0.583550	-0.167679
O5	O	-0.731232	0.463331	0.047465
O6	O	-0.731229	0.678422	-0.167681
O7	O	-0.731234	0.463308	-0.047406
O8	O	-0.481914	0.678474	0.047447
O9	O	-0.980547	0.463279	-0.167663
O10	O	-0.649181	0.666419	-0.035380
O11	O	-0.649182	0.595634	0.035423
O12	O	-0.813277	0.595600	-0.106171
O13	O	-0.813278	0.524815	-0.035368
Zr14	Zr	-0.731224	0.706699	0.075679
Zr15	Zr	-0.731227	0.706663	-0.075630
Zr16	Zr	-0.731229	0.555390	0.075682
Zr17	Zr	-0.906572	0.555353	-0.075617
Zr18	Zr	-0.555884	0.706700	0.075669
O19	O	-0.870598	0.678473	0.047468
O20	O	-0.870602	0.678422	-0.167674
O21	O	-0.870604	0.463330	0.047473
O22	O	-0.591848	0.798774	0.167721
O23	O	-0.591851	0.798722	-0.047421
O24	O	-0.591854	0.583631	0.167726
O25	O	-0.731224	0.798722	-0.047413
O26	O	-0.731223	0.678502	0.167731
O27	O	-0.731226	0.583631	0.167733
O28	O	-0.731222	0.798745	0.047458
O29	O	-0.980544	0.583550	-0.167666
O30	O	-0.481912	0.678503	0.167718
O31	O	-0.481908	0.798774	0.167715
O32	O	-0.481911	0.798745	0.047445
O33	O	-0.980545	0.463308	-0.047393
O34	O	-0.980541	0.583579	-0.047395
O35	O	-0.649178	0.666453	0.106223
O36	O	-0.649178	0.737238	0.035420
O37	O	-0.813274	0.666419	-0.035371
O38	O	-0.813275	0.595634	0.035432
C39	C	-0.511904	0.631027	0.000014
C40	C	-0.437467	0.631027	0.000010
C41	C	-0.266197	0.667979	-0.036938
C42	C	-0.196250	0.667982	-0.036934
C43	C	-0.196265	0.594077	0.036984
C44	C	-0.266206	0.594079	0.036983
C45	C	-0.301174	0.631029	0.000018
C46	C	-0.161285	0.631029	0.000024
C47	C	-0.085445	0.631031	0.000029
C48	C	-0.377017	0.631027	0.000013
C49	C	-0.731233	0.441761	0.000030
C50	C	-0.731235	0.377526	0.000031
C51	C	0.049447	0.631027	0.000035
C52	C	-0.024992	0.631030	0.000031
C53	C	-0.731231	0.630981	-0.189238
C54	C	-0.731232	0.630966	-0.253473
C55	C	-0.731243	0.347341	-0.052237
C56	C	-0.731235	0.286990	-0.052237
C57	C	-0.731237	0.256818	0.000026
C58	C	-0.731224	0.287012	0.052304
C59	C	-0.731223	0.347366	0.052307
C60	C	-0.786290	0.137447	0.016315
C61	C	-0.786297	0.077091	0.016308
C62	C	-0.731236	0.070668	0.000023
C63	C	-0.676181	0.124602	-0.016271
C64	C	-0.676180	0.184956	-0.016268
C65	C	-0.731238	0.191374	0.000030
C66	C	-0.731233	-0.024956	-0.052249
C67	C	-0.731219	-0.085306	-0.052244
C68	C	-0.731218	-0.085287	0.052295
C69	C	-0.731223	-0.024934	0.052293
C70	C	-0.731235	0.005226	0.000017
C71	C	-0.731222	0.820292	0.000022
C72	C	-0.731220	0.884527	0.000021
C73	C	-0.816886	0.594002	-0.320598
C74	C	-0.816887	0.594020	-0.380954
C75	C	-0.731230	0.630992	-0.374179
C76	C	-0.645565	0.667964	-0.307042
C77	C	-0.645566	0.667950	-0.246689
C78	C	-0.665605	0.625742	-0.441500
C79	C	-0.665608	0.625750	-0.501853
C80	C	-0.731223	0.631037	-0.560327
C81	C	-0.796851	0.636301	-0.558446
C82	C	-0.796852	0.636288	-0.498093
C83	C	-0.731219	0.631011	-0.439618
C84	C	-0.816884	0.594091	-0.692899
C85	C	-0.816882	0.594114	-0.753254
C86	C	-0.645556	0.668052	-0.679340
C87	C	-0.645561	0.668034	-0.618987
C88	C	-0.731228	0.631050	-0.625772
C89	C	-0.731224	0.631072	0.189290
C90	C	-0.731223	0.631087	0.253525
C91	C	-0.511898	0.820292	0.000010
C92	C	-0.437460	0.884527	0.000005
C93	C	-0.511900	0.631072	0.189279
C94	C	-0.437463	0.631088	0.253509
C95	C	-0.511895	0.820338	0.189274
C96	C	-0.437455	0.884588	0.253504
C97	C	-0.950561	0.441715	-0.189223
C98	C	-1.025000	0.377465	-0.253452
C99	C	-0.950557	0.441761	0.000042
C100	C	-1.024996	0.377525	0.000047
C101	C	-0.950555	0.630981	-0.189227
C102	C	-1.024993	0.630965	-0.253457
C103	C	-0.402504	0.877726	-0.036961
C104	C	-0.332571	0.938076	-0.036980
C105	C	-0.297590	1.005226	-0.000029
C106	C	-0.332552	1.012026	0.036938
C107	C	-0.402489	0.951677	0.036952
C108	C	-0.402504	0.668062	0.320636
C109	C	-0.332572	0.668074	0.380993
C110	C	-0.297594	0.631115	0.374222
C111	C	-0.332560	0.594137	0.307088
C112	C	-0.402496	0.594121	0.246733
C113	C	-0.402497	0.951716	0.246708
C114	C	-0.332563	1.012092	0.307052
C115	C	-0.297583	1.005338	0.374192
C116	C	-0.332548	0.938203	0.380986
C117	C	-0.402486	0.877829	0.320642
C118	C	-1.059967	0.310337	-0.246656
C119	C	-1.129923	0.249961	-0.307000
C120	C	-1.164906	0.256715	-0.374140
C121	C	-1.129937	0.323850	-0.380934
C122	C	-1.059987	0.384224	-0.320590
C123	C	-1.059959	0.384327	0.037007
C124	C	-1.129911	0.323977	0.037009
C125	C	-1.164895	0.256826	0.000056
C126	C	-1.129929	0.250027	-0.036908
C127	C	-1.059983	0.310376	-0.036914
C128	C	-1.059948	0.667931	-0.246664
C129	C	-1.129881	0.667930	-0.307009
C130	C	-1.164862	0.630959	-0.374148
C131	C	-1.129900	0.593992	-0.380940
C132	C	-1.059964	0.593998	-0.320595
H133	H	-0.731250	0.371897	-0.094802
H134	H	-0.631349	0.119373	-0.029536
C135	C	-0.220642	1.071759	0.440565
N136	N	-0.162687	1.121790	0.490555
C137	C	-0.294114	0.708762	0.454833
N138	N	-0.265147	0.739412	0.510448
H139	H	-0.294683	0.563989	0.067080
H140	H	-1.221809	0.630960	-0.423279
H141	H	-0.304113	0.932526	-0.067083
H142	H	-1.221864	0.207548	-0.423270
C143	C	-0.157790	0.708621	-0.077597
N144	N	-0.128825	0.739230	-0.108230
C145	C	-0.593421	0.619924	-0.377182
N146	N	-0.539054	0.615541	-0.328739
H147	H	-0.304101	1.066751	0.301508
H148	H	-1.158368	0.329527	0.067112
C149	C	-1.168331	0.708594	-0.299522
N150	N	-1.197290	0.739221	-0.293881
C151	C	-1.168356	0.553356	-0.454799
N152	N	-1.197314	0.522757	-0.510432
C153	C	-0.294053	0.930786	0.454846
N154	N	-0.265050	0.925201	0.510480
C155	C	-0.551332	0.708723	-0.671884
N156	N	-0.480359	0.739359	-0.666270
C157	C	-1.168375	0.176119	-0.299511
N158	N	-1.197335	0.120503	-0.293868
C159	C	-0.294055	1.085899	0.077587
N160	N	-0.265052	1.141541	0.108208
C161	C	-1.168420	0.331267	-0.454794
N162	N	-1.197402	0.336851	-0.510428
C163	C	-0.440923	0.959170	0.077628
N164	N	-0.469867	0.964820	0.108268
C165	C	-1.021520	0.458064	-0.328078
N166	N	-0.992549	0.513679	-0.333722
H167	H	-0.850284	0.640602	-0.606058
H168	H	-0.294665	0.698067	-0.067037
H169	H	-0.430940	0.823172	0.326185
C170	C	-0.440976	0.803866	-0.077618
N171	N	-0.469953	0.748236	-0.108247
H172	H	-0.430950	0.564015	0.192077
C173	C	-0.157801	0.553428	0.077637
N174	N	-0.128834	0.522808	0.108256
H175	H	-0.304071	0.564046	0.301586
C176	C	-0.731234	0.008227	-0.109747
N177	N	-0.731232	0.033220	-0.153054
H178	H	-0.240642	1.054361	-0.000046
H179	H	-1.031480	0.438998	0.067103
C180	C	-0.220654	0.631147	0.440623
N181	N	-0.162697	0.631177	0.490638
H182	H	-0.731241	0.262409	-0.094802
H183	H	-1.031477	0.698037	-0.192002
H184	H	-0.631350	0.228868	-0.029532
H185	H	-1.221850	0.207692	0.000067
H186	H	-1.031518	0.304828	-0.067009
H187	H	-1.031487	0.304824	-0.191993
H188	H	-1.158424	0.195345	-0.066994
H189	H	-1.031511	0.563893	-0.326136
H190	H	-0.731220	-0.109880	-0.094806
C191	C	-0.731228	-0.118476	0.109783
N192	N	-0.731236	-0.143477	0.153084
H193	H	-0.430975	0.698158	0.326162
H194	H	-0.731222	-0.000358	0.094852
H195	H	-0.575822	0.698067	-0.301530
H196	H	-0.831130	0.033180	0.029571
H197	H	-0.831069	0.142694	0.029635
H198	H	-0.731224	0.262444	0.094859
H199	H	-0.430967	0.957228	0.192045
H200	H	-0.575812	0.698131	-0.564330
H201	H	-0.886643	0.563890	-0.326129
H202	H	-0.731216	0.371944	0.094871
H203	H	-0.850288	0.640575	-0.496565
C204	C	-0.911118	0.553415	-0.700360
N205	N	-0.982095	0.522780	-0.705981
C206	C	-0.911117	0.553356	-0.454802
N207	N	-0.982091	0.522727	-0.510424
H208	H	-0.886634	0.564017	-0.807912
H209	H	-0.612173	0.621460	-0.503380
H210	H	-0.575814	0.698051	-0.192030
