data_functionalizedCrystal
_audit_creation_method	'MofGen! by Chris Wilmer'
_symmetry_space_group_name_H-M	'P1'
_symmetry_Int_Tables_number	1
_symmetry_cell_setting	triclinic
loop_
_symmetry_equiv_pos_as_xyz
  x,y,z
_cell_length_a	10.489711
_cell_length_b	10.489741
_cell_length_c	13.101039
_cell_angle_alpha	93.396862
_cell_angle_beta	86.606839
_cell_angle_gamma	84.533091
loop_
_atom_site_label
_atom_site_type_symbol
_atom_site_fract_x
_atom_site_fract_y
_atom_site_fract_z
O1	O	1.701031	0.172808	-0.085251
O2	O	1.329830	0.189741	-0.085245
O3	O	1.523877	-0.004324	-0.085242
O4	O	1.506985	0.366872	-0.085254
O5	O	1.509955	0.009623	0.085187
O6	O	1.315908	0.203688	0.085185
O7	O	1.687109	0.186755	0.085178
Zn8	Zn	1.499298	0.197436	0.112241
Zn9	Zn	1.517641	0.179060	-0.112308
O10	O	1.493062	0.380820	0.085175
C11	C	1.275337	0.195443	-0.000029
C12	C	1.133705	0.191642	-0.000027
C13	C	0.951320	0.308345	-0.000043
C14	C	1.050330	0.243173	-0.084070
C15	C	1.036576	0.256892	0.083960
C16	C	0.980385	0.119624	-0.084145
C17	C	0.966616	0.133367	0.083960
C18	C	1.065600	0.068104	-0.000087
C19	C	1.515640	-0.044882	-0.000028
C20	C	1.511823	-0.186511	-0.000030
C21	C	1.388357	-0.254639	-0.000035
C22	C	1.439817	-0.339891	0.083994
C23	C	1.453573	-0.353616	-0.084036
C24	C	1.563328	-0.269892	0.084069
C25	C	1.577073	-0.283615	-0.084036
C26	C	1.628620	-0.368838	0.000014
C27	C	1.741603	0.181052	-0.000040
C28	C	1.883235	0.184853	-0.000049
C29	C	1.501300	0.421377	-0.000041
C30	C	1.505117	0.563006	-0.000046
N31	N	1.486788	0.209976	0.265489
N32	N	1.530161	0.166509	-0.265556
C33	C	1.469769	0.227049	0.474532
C34	C	1.547176	0.149440	0.525408
C35	C	1.537707	0.158940	0.641727
C36	C	1.479237	0.217551	0.358203
H37	H	1.061729	0.314979	0.155000
N38	N	1.377718	0.319367	0.529454
N39	N	1.304936	0.392349	0.481693
H40	H	1.239926	0.457549	0.520491
H41	H	1.609714	-0.233246	0.155189
H42	H	0.901637	0.409839	-0.000129
N43	N	1.260998	-0.192340	0.000075
N44	N	1.180597	-0.205121	0.072119
H45	H	1.090650	-0.161123	0.072201
H46	H	1.635073	-0.258390	-0.155083
H47	H	1.087128	0.289615	-0.155109
H48	H	1.620560	0.075863	0.481607
N49	N	1.366991	-0.371488	0.173113
N50	N	1.251503	-0.329135	0.188087
H51	H	1.200061	-0.351447	0.251024
N52	N	1.756071	-0.430857	0.000088
N53	N	1.786627	-0.498976	0.071605
H54	H	1.876638	-0.542778	0.071663
N55	N	0.949016	0.046822	-0.173357
N56	N	0.834447	0.032139	-0.187780
H57	H	0.812288	-0.019276	-0.250784
H58	H	1.115061	-0.033495	-0.000127
H59	H	0.929789	0.086972	0.155006
N60	N	1.395276	-0.399767	-0.173145
N61	N	1.282230	-0.359848	-0.188090
H62	H	1.241047	-0.392438	-0.251019
