data_functionalizedCrystal
_audit_creation_method	'MofGen! by Chris Wilmer'
_symmetry_space_group_name_H-M	'P1'
_symmetry_Int_Tables_number	1
_symmetry_cell_setting	triclinic
loop_
_symmetry_equiv_pos_as_xyz
  x,y,z
_cell_length_a	10.686220
_cell_length_b	10.686285
_cell_length_c	18.215399
_cell_angle_alpha	94.390852
_cell_angle_beta	85.648888
_cell_angle_gamma	90.345431
loop_
_atom_site_label
_atom_site_type_symbol
_atom_site_fract_x
_atom_site_fract_y
_atom_site_fract_z
Zn1	Zn	1.956157	-0.352094	0.312989
Zn2	Zn	2.289491	-0.018761	0.646322
Zn3	Zn	2.622824	0.314572	0.979656
Zn4	Zn	1.972159	-0.561881	0.179848
Zn5	Zn	2.305492	-0.228548	0.513181
Zn6	Zn	2.638826	0.104786	0.846515
Zn7	Zn	1.746391	-0.368247	0.198590
Zn8	Zn	2.079725	-0.034914	0.531923
Zn9	Zn	2.413058	0.298419	0.865257
Zn10	Zn	1.762483	-0.577916	0.311528
Zn11	Zn	2.095816	-0.244582	0.644861
Zn12	Zn	2.429149	0.088751	0.978194
O13	O	1.859298	-0.465034	0.250739
O14	O	2.192631	-0.131701	0.584072
O15	O	2.525964	0.201632	0.917405
O16	O	2.133818	-0.366452	0.288096
O17	O	2.467151	-0.033119	0.621429
O18	O	2.800485	0.300215	0.954762
O19	O	1.942173	-0.536245	0.079349
O20	O	2.275506	-0.202911	0.412683
O21	O	2.608840	0.130422	0.746016
O22	O	1.760786	-0.190561	0.222220
O23	O	2.094119	0.142772	0.555554
O24	O	2.427453	0.476106	0.888887
O25	O	2.145575	-0.520582	0.190277
O26	O	2.478908	-0.187248	0.523611
O27	O	2.812241	0.146085	0.856944
O28	O	1.914900	-0.178694	0.306269
O29	O	2.248233	0.154640	0.639602
O30	O	2.581567	0.487973	0.972935
O31	O	1.776302	-0.393983	0.093119
O32	O	2.109636	-0.060649	0.426452
O33	O	2.442969	0.272684	0.759786
O34	O	1.572988	-0.409531	0.220803
O35	O	1.906321	-0.076198	0.554137
O36	O	2.239654	0.257136	0.887470
O37	O	1.788211	-0.547910	0.414706
O38	O	2.121545	-0.214577	0.748040
O39	O	2.454878	0.118756	1.081373
O40	O	1.584810	-0.563573	0.303778
O41	O	1.918143	-0.230240	0.637112
O42	O	2.251477	0.103093	0.970445
O43	O	1.930503	-0.382000	0.415780
O44	O	2.263837	-0.048667	0.749113
O45	O	2.597170	0.284666	1.082447
O46	O	1.957776	-0.739551	0.188861
O47	O	2.291110	-0.406218	0.522194
O48	O	2.624443	-0.072885	0.855527
O49	O	1.803728	-0.751332	0.285605
O50	O	2.137061	-0.417999	0.618938
O51	O	2.470394	-0.084665	0.952272
C52	C	1.533384	-0.490046	0.264166
C53	C	1.866717	-0.156712	0.597500
C54	C	2.200050	0.176621	0.930833
C55	C	1.393959	-0.500776	0.269927
C56	C	1.727292	-0.167443	0.603260
C57	C	2.060625	0.165891	0.936593
C58	C	1.884269	-0.790955	0.235055
C59	C	2.217602	-0.457622	0.568388
C60	C	2.550935	-0.124289	0.901722
C61	C	1.895066	-0.930377	0.228366
C62	C	2.228399	-0.597044	0.561699
C63	C	2.561733	-0.263710	0.895032
C64	C	2.186484	-0.439926	0.237259
C65	C	2.519817	-0.106593	0.570592
C66	C	2.853151	0.226740	0.903926
C67	C	2.325911	-0.429227	0.231515
C68	C	2.659245	-0.095893	0.564848
C69	C	2.992578	0.237440	0.898181
C70	C	1.859367	-0.464942	0.442693
C71	C	2.192701	-0.131609	0.776026
C72	C	2.526034	0.201725	1.109359
C73	C	1.859397	-0.464903	0.524492
C74	C	2.192730	-0.131569	0.857825
C75	C	2.526064	0.201764	1.191159
C76	C	1.834263	-0.137838	0.266498
C77	C	2.167596	0.195495	0.599831
C78	C	2.500930	0.528828	0.933165
C79	C	1.823595	0.001593	0.273214
C80	C	2.156928	0.334927	0.606547
C81	C	2.490262	0.668260	0.939881
C82	C	1.859293	-0.465030	0.059533
C83	C	2.192627	-0.131697	0.392866
C84	C	2.525960	0.201636	0.726199
C85	C	1.859479	-0.464698	-0.022259
C86	C	2.192813	-0.131364	0.311074
C87	C	2.526146	0.201969	0.644407
C88	C	1.933511	-0.378436	0.713249
C89	C	2.266845	-0.045103	1.046582
C90	C	2.600178	0.288230	1.379915
C91	C	1.933524	-0.378398	0.790109
C92	C	2.266857	-0.045065	1.123442
C93	C	2.600190	0.288268	1.456775
C94	C	1.785356	-0.551169	0.788979
C95	C	2.118690	-0.217835	1.122312
C96	C	2.452023	0.115498	1.455646
C97	C	1.785338	-0.551199	0.712121
C98	C	2.118672	-0.217866	1.045454
C99	C	2.452005	0.115467	1.378788
C100	C	1.859423	-0.464835	0.674257
C101	C	2.192756	-0.131501	1.007591
C102	C	2.526090	0.201832	1.340924
C103	C	1.859453	-0.464766	0.827975
C104	C	2.192787	-0.131433	1.161309
C105	C	2.526120	0.201901	1.494642
C106	C	1.859466	-0.464726	0.911310
C107	C	2.192799	-0.131392	1.244644
C108	C	2.526133	0.201941	1.577977
C109	C	1.859409	-0.464873	0.590917
C110	C	2.192742	-0.131540	0.924251
C111	C	2.526076	0.201794	1.257584
H112	H	1.374318	-0.359763	0.194221
H113	H	1.707651	-0.026429	0.527554
H114	H	2.040984	0.306904	0.860887
H115	H	1.725042	-0.621486	0.819817
H116	H	2.058375	-0.288153	1.153150
H117	H	2.391709	0.045180	1.486483
H118	H	1.993832	-0.308109	0.682423
H119	H	2.327166	0.025224	1.015756
H120	H	2.660499	0.358558	1.349089
C121	C	1.328561	-0.594633	0.320309
C122	C	1.661895	-0.261299	0.653643
C123	C	1.995228	0.072034	0.986976
N124	N	1.279303	-0.665323	0.358258
N125	N	1.612636	-0.331990	0.691591
N126	N	1.945969	0.001344	1.024925
H127	H	1.754146	-0.949989	0.316729
H128	H	2.087479	-0.616656	0.650063
H129	H	2.420813	-0.283323	0.983396
H130	H	1.993852	-0.308042	0.821852
H131	H	2.327185	0.025291	1.155185
H132	H	2.660518	0.358624	1.488519
C133	C	1.988886	-0.995792	0.169569
C134	C	2.322219	-0.662459	0.502902
C135	C	2.655553	-0.329126	0.836235
N136	N	2.059551	-1.045064	0.125284
N137	N	2.392884	-0.711731	0.458617
N138	N	2.726217	-0.378398	0.791950
H139	H	1.724998	-0.621555	0.680374
H140	H	2.058331	-0.288222	1.013707
H141	H	2.391664	0.045112	1.347041
