data_functionalizedCrystal
_audit_creation_method	'MofGen! by Chris Wilmer'
_symmetry_space_group_name_H-M	'P1'
_symmetry_Int_Tables_number	1
_symmetry_cell_setting	triclinic
loop_
_symmetry_equiv_pos_as_xyz
  x,y,z
_cell_length_a	15.944493
_cell_length_b	15.944551
_cell_length_c	15.021413
_cell_angle_alpha	89.990496
_cell_angle_beta	89.995554
_cell_angle_gamma	83.486891
loop_
_atom_site_label
_atom_site_type_symbol
_atom_site_fract_x
_atom_site_fract_y
_atom_site_fract_z
O1	O	1.114555	0.108105	-0.074022
O2	O	1.614555	0.608105	0.425978
O3	O	0.869998	0.121512	-0.074027
O4	O	1.369998	0.621512	0.425973
O5	O	0.998955	-0.007468	-0.074016
O6	O	1.498955	0.492532	0.425984
O7	O	0.985598	0.237084	-0.074033
O8	O	1.485598	0.737084	0.425967
O9	O	0.998943	-0.007481	0.074048
O10	O	1.498943	0.492519	0.574048
O11	O	0.869987	0.121499	0.074037
O12	O	1.369987	0.621499	0.574037
O13	O	1.114543	0.108092	0.074042
O14	O	1.614543	0.608092	0.574042
Zn15	Zn	0.992263	0.114793	0.097548
Zn16	Zn	1.492263	0.614793	0.597548
Zn17	Zn	0.992278	0.114810	-0.097533
Zn18	Zn	1.492278	0.614810	0.402467
O19	O	0.985587	0.237071	0.074032
O20	O	1.485587	0.737071	0.574032
C21	C	0.838698	0.120957	0.000005
C22	C	1.338698	0.620957	0.500005
C23	C	0.745449	0.119314	0.000003
C24	C	1.245449	0.619314	0.500003
C25	C	0.509689	0.195235	-0.000002
C26	C	1.009689	0.695235	0.499998
C27	C	0.459125	0.154287	0.073008
C28	C	0.959125	0.654287	0.573008
C29	C	0.574728	0.116270	0.000005
C30	C	1.074728	0.616270	0.500005
C31	C	0.459141	0.154282	-0.072972
C32	C	0.959141	0.654282	0.427028
C33	C	0.409819	0.113336	0.000003
C34	C	0.909819	0.613336	0.500003
C35	C	0.525393	0.075344	0.073075
C36	C	1.025393	0.575344	0.573075
C37	C	0.525412	0.075350	-0.072970
C38	C	1.025412	0.575350	0.427030
C39	C	0.474880	0.034345	0.000058
C40	C	0.974880	0.534345	0.500058
C41	C	0.669728	0.117963	0.000007
C42	C	1.169728	0.617963	0.500007
C43	C	0.314821	0.111637	0.000008
C44	C	0.814821	0.611637	0.500008
C45	C	0.998395	-0.038768	0.000016
C46	C	1.498395	0.461232	0.500016
C47	C	0.996732	-0.132014	0.000016
C48	C	1.496732	0.367986	0.500016
C49	C	0.912826	-0.346853	0.000003
C50	C	1.412826	0.153147	0.500003
C51	C	0.951783	-0.407885	0.073008
C52	C	1.451783	0.092115	0.573008
C53	C	0.993725	-0.302739	0.000010
C54	C	1.493725	0.197261	0.500010
C55	C	0.951814	-0.407856	-0.072972
C56	C	1.451814	0.092144	0.427028
C57	C	0.990814	-0.467651	-0.000001
C58	C	1.490814	0.032349	0.499999
C59	C	1.032705	-0.362543	0.073075
C60	C	1.532705	0.137457	0.573075
C61	C	1.032724	-0.362507	-0.072970
C62	C	1.532724	0.137493	0.427030
C63	C	1.071741	-0.423521	0.000053
C64	C	1.571741	0.076479	0.500053
C65	C	0.995399	-0.207737	0.000016
C66	C	1.495399	0.292263	0.500016
C67	C	0.989146	-0.562652	-0.000001
C68	C	1.489146	-0.062652	0.499999
C69	C	1.145844	0.108646	0.000009
C70	C	1.645844	0.608646	0.500009
C71	C	1.239092	0.110289	0.000004
C72	C	1.739092	0.610289	0.500004
C73	C	0.986147	0.268372	-0.000003
C74	C	1.486147	0.768372	0.499997
C75	C	0.987809	0.361617	-0.000009
C76	C	1.487809	0.861617	0.499991
N77	N	0.992259	0.114781	0.230686
N78	N	1.492259	0.614781	0.730686
N79	N	0.992289	0.114816	-0.230670
N80	N	1.492289	0.614816	0.269330
C81	C	1.051442	0.054667	0.529682
C82	C	1.551442	0.554667	1.029682
C83	C	1.068430	0.130334	0.470310
C84	C	1.568430	0.630334	0.970310
C85	C	0.992279	0.114806	0.587723
C86	C	1.492279	0.614806	1.087723
C87	C	0.975321	0.039129	0.470352
C88	C	1.475321	0.539129	0.970352
C89	C	0.992272	0.114789	0.412299
C90	C	1.492272	0.614789	0.912299
C91	C	1.009305	0.190511	0.529658
C92	C	1.509305	0.690511	1.029658
C93	C	0.916163	0.099256	0.529705
C94	C	1.416163	0.599256	1.029705
C95	C	0.933119	0.174978	0.470360
C96	C	1.433119	0.674978	0.970360
C97	C	0.992286	0.114814	0.688780
C98	C	1.492286	0.614814	1.188780
C99	C	0.992265	0.114790	0.311243
C100	C	1.492265	0.614790	0.811243
H101	H	0.525313	0.263254	0.000061
H102	H	1.025313	0.763254	0.500061
F103	F	1.077388	-0.336434	0.153836
F104	F	1.577388	0.163566	0.653836
F105	F	1.116884	-0.011724	0.563730
F106	F	1.616884	0.488276	1.063730
H107	H	0.960981	-0.024864	0.444301
H108	H	1.460981	0.475136	0.944301
H109	H	0.554362	0.042033	-0.134692
H110	H	1.054362	0.542033	0.365308
F111	F	0.421294	0.197867	0.153678
F112	F	0.921294	0.697867	0.653678
H113	H	0.459415	-0.033726	0.000105
H114	H	0.959415	0.466274	0.500105
F115	F	1.152557	0.147513	0.436191
F116	F	1.652557	0.647513	0.936191
F117	F	0.907055	-0.434167	0.153680
F118	F	1.407055	0.065833	0.653680
H119	H	0.430207	0.187651	-0.134688
H120	H	0.930207	0.687651	0.365312
H121	H	1.138950	-0.456694	0.000096
H122	H	1.638950	0.043306	0.500096
F123	F	1.077417	-0.336195	-0.153646
F124	F	1.577417	0.163805	0.346354
F125	F	0.563063	0.031776	0.153835
F126	F	1.063063	0.531776	0.653835
H127	H	1.023714	0.254519	0.555599
H128	H	1.523714	0.754519	1.055599
F129	F	0.907077	-0.434099	-0.153638
F130	F	1.407077	0.065901	0.346362
H131	H	0.883081	0.225884	0.444478
H132	H	1.383081	0.725884	0.944478
H133	H	0.845675	-0.313532	0.000074
H134	H	1.345675	0.186468	0.500074
F135	F	0.832057	0.082036	0.563832
F136	F	1.332057	0.582036	1.063832
