data_functionalizedCrystal
_audit_creation_method	'MofGen! by Chris Wilmer'
_symmetry_space_group_name_H-M	'P1'
_symmetry_Int_Tables_number	1
_symmetry_cell_setting	triclinic
loop_
_symmetry_equiv_pos_as_xyz
  x,y,z
_cell_length_a	14.853566
_cell_length_b	17.038272
_cell_length_c	13.330367
_cell_angle_alpha	89.995338
_cell_angle_beta	89.995295
_cell_angle_gamma	87.372985
loop_
_atom_site_label
_atom_site_type_symbol
_atom_site_fract_x
_atom_site_fract_y
_atom_site_fract_z
O1	O	1.204051	0.102081	-0.083358
O2	O	0.942507	0.114243	-0.083375
O3	O	1.071725	-0.005655	-0.083358
O4	O	1.074834	0.221980	-0.083374
O5	O	1.071705	-0.005658	0.083489
O6	O	0.942487	0.114241	0.083473
O7	O	1.204031	0.102079	0.083489
Cu8	Cu	1.073257	0.108159	0.098715
Cu9	Cu	1.073281	0.108162	-0.098601
O10	O	1.074813	0.221977	0.083473
C11	C	0.908867	0.113691	0.000047
C12	C	0.808659	0.112040	0.000041
C13	C	0.384959	0.105059	-0.090890
C14	C	0.384959	0.105057	0.091014
C15	C	0.479109	0.106607	0.091011
C16	C	0.526189	0.107385	0.000056
C17	C	0.479119	0.106612	-0.090896
C18	C	0.526187	0.107388	0.181960
C19	C	0.620343	0.108939	0.181961
C20	C	0.667425	0.109711	0.091005
C21	C	0.620349	0.108937	0.000050
C22	C	0.667429	0.109715	-0.090905
C23	C	0.620354	0.108936	-0.181861
C24	C	0.526201	0.107384	-0.181851
C25	C	0.761579	0.111263	0.090995
C26	C	0.761588	0.111268	-0.090911
C27	C	1.068887	-0.034788	0.000065
C28	C	1.060451	-0.121592	0.000064
C29	C	1.137904	-0.171605	0.000070
C30	C	1.129972	-0.253166	0.000060
C31	C	1.044586	-0.284713	0.000051
C32	C	0.967127	-0.234694	0.000042
C33	C	0.975060	-0.153134	0.000045
C34	C	1.016561	-0.530507	0.000036
C35	C	1.008634	-0.612073	0.000036
C36	C	1.171480	-0.630540	0.000052
C37	C	1.179405	-0.548978	0.000061
C38	C	1.101946	-0.498966	0.000046
C39	C	1.036476	-0.368081	0.000044
C40	C	1.110057	-0.415600	0.000046
C41	C	1.237671	0.102631	0.000065
C42	C	1.337879	0.104282	0.000065
C43	C	1.077651	0.251110	0.000048
C44	C	1.086087	0.337914	0.000042
N45	N	1.073247	0.108157	0.237497
N46	N	1.073298	0.108159	-0.237382
C47	C	1.016059	0.161233	0.710113
C48	C	1.130527	0.055086	0.710095
C49	C	1.130516	0.055084	0.605077
C50	C	1.073278	0.108157	0.552571
C51	C	1.016049	0.161233	0.605084
C52	C	1.187750	0.002014	0.552556
C53	C	1.187743	0.002010	0.447531
C54	C	1.130499	0.055081	0.395024
C55	C	1.073267	0.108158	0.447543
C56	C	1.016028	0.161232	0.395038
C57	C	0.958792	0.214306	0.447556
C58	C	0.958805	0.214304	0.552577
C59	C	1.130486	0.055083	0.290002
C60	C	1.016018	0.161233	0.290010
H61	H	0.346620	0.104429	0.165065
H62	H	0.912206	0.257516	0.595344
H63	H	1.234347	-0.041206	0.404777
F64	F	1.253911	-0.683771	0.000066
F65	F	0.897881	0.270794	0.391665
H66	H	0.487865	0.106749	-0.255903
F67	F	0.934121	-0.477291	0.000018
F68	F	0.876252	-0.268270	0.000021
H69	H	1.177091	0.011874	0.247247
F70	F	0.670471	0.109768	-0.278658
F71	F	0.892623	-0.099907	0.000036
F72	F	1.212409	-0.306390	0.000068
F73	F	1.200928	-0.382024	0.000050
H74	H	0.966955	-0.393775	0.000039
H75	H	1.248935	-0.523300	0.000068
H76	H	0.969404	0.204449	0.247267
H77	H	0.969455	0.204443	0.752875
H78	H	0.487847	0.106760	0.256010
F79	F	1.191448	-0.001391	0.765974
F80	F	0.670435	0.109767	0.278763
H81	H	0.799914	0.111898	-0.164978
F82	F	0.811674	0.112097	0.187790
F83	F	0.334862	0.104211	-0.187687
F84	F	1.228784	-0.138039	0.000089
F85	F	1.248671	-0.054463	0.608435
F86	F	0.917750	-0.645645	0.000031
