data_functionalizedCrystal
_audit_creation_method	'MofGen! by Chris Wilmer'
_symmetry_space_group_name_H-M	'P1'
_symmetry_Int_Tables_number	1
_symmetry_cell_setting	triclinic
loop_
_symmetry_equiv_pos_as_xyz
  x,y,z
_cell_length_a	10.489746
_cell_length_b	14.044220
_cell_length_c	13.101039
_cell_angle_alpha	86.332523
_cell_angle_beta	86.610823
_cell_angle_gamma	91.134911
loop_
_atom_site_label
_atom_site_type_symbol
_atom_site_fract_x
_atom_site_fract_y
_atom_site_fract_z
O1	O	1.714048	-0.128676	-0.085148
O2	O	1.344128	-0.141232	-0.085165
O3	O	1.523535	0.003068	-0.085147
O4	O	1.534641	-0.272976	-0.085167
O5	O	1.510664	-0.007303	0.085282
O6	O	1.331258	-0.151603	0.085263
O7	O	1.701178	-0.139046	0.085281
Zn8	Zn	1.514174	-0.146971	0.112331
Zn9	Zn	1.531131	-0.133307	-0.112216
O10	O	1.521771	-0.283347	0.085262
C11	C	1.290065	-0.145468	0.000047
C12	C	1.148148	-0.142627	0.000040
C13	C	0.985806	-0.049132	0.000061
C14	C	1.061596	-0.100989	0.084085
C15	C	1.074243	-0.090786	-0.083944
C16	C	0.971073	-0.189476	0.084159
C17	C	0.983719	-0.179256	-0.083946
C18	C	1.059464	-0.231179	0.000099
C19	C	1.512239	0.033230	0.000068
C20	C	1.497739	0.138555	0.000068
C21	C	1.755241	-0.134811	0.000066
C22	C	1.897158	-0.137651	0.000066
C23	C	1.533067	-0.313509	0.000045
C24	C	1.547568	-0.418833	0.000038
N25	N	1.502611	-0.156296	0.265578
C26	C	1.471232	0.331399	0.000052
C27	C	1.574069	0.388329	0.000054
C28	C	1.559320	0.495633	0.000045
C29	C	1.485979	0.224084	0.000061
N30	N	1.542704	-0.123975	-0.265463
C31	C	1.486879	-0.168991	0.474619
C32	C	1.558432	-0.111283	0.525502
C33	C	1.549679	-0.118347	0.641820
C34	C	1.495631	-0.161929	0.358291
H35	H	1.095917	-0.067944	0.155129
H36	H	1.673193	0.356483	-0.000010
H37	H	0.953272	0.027833	0.000152
C38	C	0.910470	-0.245766	0.180241
N39	N	0.864821	-0.288158	0.252612
C40	C	1.135052	-0.034444	-0.179915
N41	N	1.180848	0.008000	-0.252198
C42	C	1.395244	-0.242896	0.533782
N43	N	1.326226	-0.298562	0.578355
H44	H	1.626265	-0.056574	0.481707
H45	H	1.091750	-0.308210	0.000139
H46	H	0.949370	-0.212267	-0.154992
C47	C	1.337333	0.374423	0.000059
N48	N	1.236481	0.406840	0.000073
