data_functionalizedCrystal
_audit_creation_method	'MofGen! by Chris Wilmer'
_symmetry_space_group_name_H-M	'P1'
_symmetry_Int_Tables_number	1
_symmetry_cell_setting	triclinic
loop_
_symmetry_equiv_pos_as_xyz
  x,y,z
_cell_length_a	16.109301
_cell_length_b	16.109304
_cell_length_c	17.766277
_cell_angle_alpha	89.996447
_cell_angle_beta	89.993359
_cell_angle_gamma	83.462059
loop_
_atom_site_label
_atom_site_type_symbol
_atom_site_fract_x
_atom_site_fract_y
_atom_site_fract_z
O1	O	1.103139	0.106868	-0.062542
O2	O	1.603139	0.606868	0.437458
O3	O	0.861077	0.120168	-0.062553
O4	O	1.361077	0.620168	0.437447
O5	O	0.988756	-0.007513	-0.062548
O6	O	1.488756	0.492487	0.437452
O7	O	0.975459	0.234549	-0.062547
O8	O	1.475459	0.734549	0.437453
O9	O	0.988734	-0.007519	0.062641
O10	O	1.488734	0.492481	0.562641
O11	O	0.861054	0.120161	0.062635
O12	O	1.361054	0.620161	0.562635
O13	O	1.103116	0.106862	0.062647
O14	O	1.603116	0.606862	0.562647
Cu15	Cu	0.982083	0.113511	0.074072
Cu16	Cu	1.482083	0.613511	0.574072
Cu17	Cu	0.982110	0.113519	-0.073978
Cu18	Cu	1.482110	0.613519	0.426022
O19	O	0.975437	0.234542	0.062641
O20	O	1.475437	0.734542	0.562641
C21	C	0.988206	-0.038491	0.000045
C22	C	1.488206	0.461509	0.500045
C23	C	0.986590	-0.130786	0.000040
C24	C	1.486590	0.369214	0.500040
C25	C	0.830091	0.119626	0.000040
C26	C	1.330091	0.619626	0.500040
C27	C	0.737795	0.118010	0.000035
C28	C	1.237795	0.618010	0.500035
C29	C	0.982869	-0.343120	-0.068198
C30	C	1.482869	0.156880	0.431802
C31	C	0.981342	-0.429840	-0.068197
C32	C	1.481342	0.070160	0.431803
C33	C	0.981322	-0.429844	0.068290
C34	C	1.481322	0.070156	0.568290
C35	C	0.982842	-0.343125	0.068289
C36	C	1.482842	0.156875	0.568289
C37	C	0.983620	-0.299766	0.000042
C38	C	1.483620	0.200234	0.500042
C39	C	0.980573	-0.473205	0.000044
C40	C	1.480573	0.026795	0.500044
C41	C	0.978919	-0.567231	0.000046
C42	C	1.478919	-0.067231	0.500046
C43	C	0.985273	-0.205734	0.000041
C44	C	1.485273	0.294266	0.500041
C45	C	0.515524	0.190018	0.000044
C46	C	1.015524	0.690018	0.500044
C47	C	0.428803	0.188494	0.000049
C48	C	0.928803	0.688494	0.500049
C49	C	0.448676	0.037005	0.000045
C50	C	0.948676	0.537005	0.500045
C51	C	0.535395	0.038530	0.000046
C52	C	1.035395	0.538530	0.500046
C53	C	0.568816	0.115039	0.000041
C54	C	1.068816	0.615039	0.500041
C55	C	0.395377	0.111990	0.000046
C56	C	0.895377	0.611990	0.500046
C57	C	0.301351	0.110337	0.000051
C58	C	0.801351	0.610337	0.500051
C59	C	0.662848	0.116693	0.000037
C60	C	1.162848	0.616693	0.500037
C61	C	1.134102	0.107404	0.000052
C62	C	1.634102	0.607404	0.500052
C63	C	1.226398	0.109019	0.000052
C64	C	1.726398	0.609019	0.500052
C65	C	0.975987	0.265520	0.000047
C66	C	1.475987	0.765520	0.500047
C67	C	0.977603	0.357816	0.000047
C68	C	1.477603	0.857816	0.500047
N69	N	0.982071	0.113505	0.178202
N70	N	1.482071	0.613505	0.678202
N71	N	0.982129	0.113518	-0.178109
N72	N	1.482129	0.613518	0.321891
C73	C	1.038625	0.056996	0.217591
C74	C	1.538625	0.556996	0.717591
C75	C	1.038630	0.056992	0.296393
C76	C	1.538630	0.556992	0.796393
C77	C	0.982088	0.113512	0.335803
C78	C	1.482088	0.613512	0.835803
C79	C	0.925523	0.170025	0.296404
C80	C	1.425523	0.670025	0.796404
C81	C	0.925514	0.170022	0.217603
C82	C	1.425514	0.670022	0.717603
C83	C	0.971175	0.189234	0.460640
C84	C	1.471175	0.689234	0.960640
C85	C	0.971190	0.189238	0.539439
C86	C	1.471190	0.689238	1.039439
C87	C	0.982110	0.113522	0.578849
C88	C	1.482110	0.613522	1.078849
C89	C	0.993034	0.037797	0.539450
C90	C	1.493034	0.537797	1.039450
C91	C	0.993026	0.037794	0.460650
C92	C	1.493026	0.537794	0.960650
C93	C	0.982091	0.113521	0.421248
C94	C	1.482091	0.613521	0.921248
C95	C	1.038673	0.057004	0.703684
C96	C	1.538673	0.557004	1.203684
C97	C	1.038672	0.056999	0.782487
C98	C	1.538672	0.556999	1.282487
C99	C	0.925569	0.170039	0.782496
C100	C	1.425569	0.670039	1.282496
C101	C	0.925566	0.170037	0.703695
C102	C	1.425566	0.670037	1.203695
C103	C	0.982123	0.113520	0.664293
C104	C	1.482123	0.613520	1.164293
H105	H	0.983499	-0.307819	-0.123768
H106	H	1.483499	0.192181	0.376232
Cl107	Cl	0.602396	-0.055737	0.000049
Cl108	Cl	1.102396	0.444263	0.500049
Cl109	Cl	0.406654	-0.059172	0.000046
Cl110	Cl	0.906654	0.440828	0.500046
H111	H	1.001918	-0.023863	0.428575
H112	H	1.501918	0.476137	0.928575
Cl113	Cl	1.109719	-0.014056	0.168059
Cl114	Cl	1.609719	0.485944	0.668059
H115	H	0.980691	-0.465158	0.123854
H116	H	1.480691	0.034842	0.623854
H117	H	0.962267	0.250895	0.428559
H118	H	1.462267	0.750895	0.928559
Cl119	Cl	0.361810	0.282758	0.000053
Cl120	Cl	0.861810	0.782758	0.500053
Cl121	Cl	0.983777	-0.288617	0.154084
Cl122	Cl	1.483777	0.211383	0.654084
H123	H	0.542732	0.252316	0.000046
H124	H	1.042732	0.752316	0.500046
H125	H	1.084685	0.010974	0.328470
H126	H	1.584685	0.510974	0.828470
H127	H	0.879459	0.216039	0.185532
H128	H	1.379459	0.716039	0.685532
H129	H	1.001927	-0.023858	0.571536
H130	H	1.501927	0.476142	1.071536
Cl131	Cl	0.980396	-0.484339	-0.153989
Cl132	Cl	1.480396	0.015661	0.346011
H133	H	1.084723	0.010981	0.671602
H134	H	1.584723	0.510981	1.171602
Cl135	Cl	1.109771	-0.014052	0.832009
Cl136	Cl	1.609771	0.485948	1.332009
H137	H	0.879528	0.216055	0.814583
H138	H	1.379528	0.716055	1.314583
Cl139	Cl	0.854470	0.241085	0.654172
Cl140	Cl	1.354470	0.741085	1.154172
Cl141	Cl	0.957463	0.284433	0.588961
Cl142	Cl	1.457463	0.784433	1.088961
H143	H	0.879484	0.216043	0.328495
H144	H	1.379484	0.716043	0.828495
