data_functionalizedCrystal
_audit_creation_method	'MofGen! by Chris Wilmer'
_symmetry_space_group_name_H-M	'P1'
_symmetry_Int_Tables_number	1
_symmetry_cell_setting	triclinic
loop_
_symmetry_equiv_pos_as_xyz
  x,y,z
_cell_length_a	17.038272
_cell_length_b	14.519731
_cell_length_c	12.996460
_cell_angle_alpha	89.993791
_cell_angle_beta	89.993896
_cell_angle_gamma	87.400204
loop_
_atom_site_label
_atom_site_type_symbol
_atom_site_fract_x
_atom_site_fract_y
_atom_site_fract_z
O1	O	0.102582	1.231706	-0.085570
O2	O	0.114636	0.964154	-0.085572
O3	O	-0.005209	1.096340	-0.085563
O4	O	0.222427	1.099520	-0.085579
O5	O	-0.005215	1.096323	0.085571
O6	O	0.114630	0.964137	0.085562
O7	O	0.102576	1.231689	0.085564
Cu8	Cu	0.108602	1.097912	0.101189
Cu9	Cu	0.108609	1.097932	-0.101197
O10	O	0.222421	1.099503	0.085555
C11	C	0.114068	0.929743	-0.000005
C12	C	0.112375	0.827233	-0.000006
C13	C	0.111000	0.743984	-0.000010
C14	C	0.109282	0.639544	-0.000010
C15	C	0.107918	0.556300	-0.000010
C16	C	0.106200	0.451854	-0.000012
C17	C	-0.034345	1.093439	0.000004
C18	C	-0.121153	1.084809	0.000003
C19	C	-0.171133	1.164041	0.000005
C20	C	-0.252698	1.155927	-0.000005
C21	C	-0.284280	1.068580	-0.000009
C22	C	-0.234293	0.989342	-0.000013
C23	C	-0.152730	0.997457	-0.000011
C24	C	-0.530086	1.039911	-0.000023
C25	C	-0.611655	1.031802	-0.000022
C26	C	-0.630054	1.198388	-0.000016
C27	C	-0.548489	1.206496	-0.000007
C28	C	-0.498509	1.127257	-0.000017
C29	C	-0.367651	1.060284	-0.000016
C30	C	-0.415140	1.135554	-0.000018
C31	C	0.251557	1.102404	-0.000014
C32	C	0.338364	1.111034	-0.000021
C33	C	0.103144	1.266100	-0.000005
C34	C	0.104836	1.368610	-0.000012
N35	N	0.108597	1.097905	0.243536
C36	C	0.108613	1.097924	0.663350
C37	C	0.108611	1.097916	0.546545
C38	C	0.108605	1.097915	0.453447
C39	C	0.108602	1.097906	0.336634
N40	N	0.108612	1.097937	0.756456
H41	H	-0.145426	1.235169	0.000015
O42	O	-0.642369	0.946966	0.000151
C43	C	-0.689017	0.937283	0.088771
H44	H	-0.669661	0.986983	0.150724
H45	H	-0.681807	0.863519	0.118514
H46	H	-0.753303	0.953515	0.068738
H47	H	-0.112036	0.932937	-0.000013
H48	H	-0.260013	0.918222	-0.000023
O49	O	-0.481654	0.962848	0.000026
C50	C	-0.527023	0.884017	0.000005
H51	H	-0.587864	0.902654	0.032399
H52	H	-0.497030	0.828104	0.049695
H53	H	-0.532861	0.857546	-0.082095
O54	O	-0.384371	1.220351	-0.000151
C55	C	-0.337751	1.230046	-0.088794
H56	H	-0.317548	1.158947	-0.118351
H57	H	-0.284287	1.270991	-0.068856
H58	H	-0.373717	1.268038	-0.150854
O59	O	-0.301331	1.232824	0.000133
C60	C	-0.349061	1.233114	0.088771
H61	H	-0.353292	1.159578	0.118317
H62	H	-0.410309	1.262658	0.068830
H63	H	-0.322180	1.277339	0.150839
O64	O	-0.517943	1.291416	-0.000045
C65	C	-0.579549	1.359611	-0.000016
H66	H	-0.634988	1.329417	-0.032426
H67	H	-0.562410	1.420219	-0.049689
H68	H	-0.591063	1.384340	0.082089
O69	O	-0.678716	1.275261	-0.000061
C70	C	-0.757479	1.249374	-0.000038
H71	H	-0.760709	1.176687	-0.032436
H72	H	-0.794347	1.299489	-0.049726
H73	H	-0.781069	1.251015	0.082062
O74	O	-0.398426	0.975488	-0.000147
C75	C	-0.445030	0.965813	-0.088794
H76	H	-0.465225	1.036918	-0.118349
H77	H	-0.498499	0.924865	-0.068861
H78	H	-0.409053	0.927833	-0.150853
