data_functionalizedCrystal
_audit_creation_method	'MofGen! by Chris Wilmer'
_symmetry_space_group_name_H-M	'P1'
_symmetry_Int_Tables_number	1
_symmetry_cell_setting	triclinic
loop_
_symmetry_equiv_pos_as_xyz
  x,y,z
_cell_length_a	10.540539
_cell_length_b	14.044220
_cell_length_c	9.616153
_cell_angle_alpha	90.006831
_cell_angle_beta	90.000753
_cell_angle_gamma	88.857185
loop_
_atom_site_label
_atom_site_type_symbol
_atom_site_fract_x
_atom_site_fract_y
_atom_site_fract_z
O1	O	-1.699399	-0.133685	-0.115584
O2	O	-1.331260	-0.146281	-0.115601
O3	O	-1.509804	-0.001961	-0.115579
O4	O	-1.520855	-0.278005	-0.115606
O5	O	-1.509793	-0.001953	0.115712
O6	O	-1.331249	-0.146273	0.115690
O7	O	-1.699388	-0.133677	0.115707
Zn8	Zn	-1.515317	-0.139974	0.152421
Zn9	Zn	-1.515331	-0.139984	-0.152315
O10	O	-1.520844	-0.277997	0.115685
C11	C	-1.283856	-0.145332	0.000042
C12	C	-1.142622	-0.142506	0.000036
C13	C	-1.504960	0.033390	0.000067
C14	C	-1.490531	0.138714	0.000068
C15	C	-1.746792	-0.134626	0.000061
C16	C	-1.888026	-0.137452	0.000058
C17	C	-0.948247	-0.034217	0.000586
C18	C	-1.095155	-0.037081	0.000051
C19	C	-1.086085	-0.193245	-0.132043
C20	C	-0.939176	-0.189647	-0.132139
C21	C	-0.938892	-0.191783	0.130883
C22	C	-1.085972	-0.192754	0.132614
C23	C	-1.525687	-0.313348	0.000036
C24	C	-1.540117	-0.418672	0.000026
N25	N	-1.515316	-0.139966	0.360396
C26	C	-1.464150	0.331554	0.000047
C27	C	-1.566492	0.388494	0.000047
C28	C	-1.551814	0.495797	0.000035
C29	C	-1.478827	0.224241	0.000058
N30	N	-1.515341	-0.139984	-0.360290
C31	C	-1.610884	-0.062774	0.419406
C32	C	-1.611291	-0.062988	0.580574
C33	C	-1.554958	-0.239276	0.581167
C34	C	-1.555641	-0.238814	0.419949
C35	C	-1.379922	-0.118758	0.419826
C36	C	-1.380574	-0.116526	0.581055
H37	H	-1.133728	0.002842	0.094731
N38	N	-1.697163	0.346337	0.000070
H39	H	-1.707821	0.305721	-0.085661
H40	H	-1.707712	0.305795	0.085875
H41	H	-1.365516	0.363391	0.000039
H42	H	-1.585985	0.011237	0.380628
N43	N	-1.578012	0.034732	0.633022
H44	H	-1.562938	0.078335	0.551413
H45	H	-1.650259	0.061220	0.691206
N46	N	-1.332994	-0.024797	0.366009
H47	H	-1.317032	0.019321	0.446817
H48	H	-1.251521	-0.035808	0.312585
N49	N	-1.686871	-0.263299	0.370130
H50	H	-1.722830	-0.209028	0.312517
H51	H	-1.681884	-0.323001	0.311665
N52	N	-1.742899	-0.080588	0.365640
H53	H	-1.741071	-0.138450	0.303236
H54	H	-1.801767	-0.091859	0.446592
N55	N	-1.126073	-0.295794	-0.138584
H56	H	-1.088657	-0.327010	-0.224296
H57	H	-1.094668	-0.330606	-0.052971
H58	H	-1.711549	-0.076676	0.619135
H59	H	-1.125115	-0.158005	-0.230331
H60	H	-1.117969	-0.269615	0.140581
H61	H	-1.489011	-0.297906	0.380910
N62	N	-1.465818	-0.317274	0.631925
H63	H	-1.515139	-0.365510	0.686633
H64	H	-1.423870	-0.349572	0.549591
N65	N	-1.684780	-0.264345	0.634633
H66	H	-1.718119	-0.211531	0.696761
H67	H	-1.744395	-0.272673	0.553507
H68	H	-1.350759	-0.043476	0.619320
H69	H	-0.898873	-0.265467	-0.138141
N70	N	-1.280856	-0.186036	0.634380
H71	H	-1.321812	-0.233936	0.697592
H72	H	-1.239599	-0.220247	0.553262
N73	N	-1.285535	-0.193292	0.369278
H74	H	-1.312340	-0.258233	0.401849
H75	H	-1.282345	-0.192201	0.264322
N76	N	-0.904795	0.020950	0.126062
H77	H	-0.809340	0.025830	0.124252
H78	H	-0.944610	0.086948	0.124325
N79	N	-0.902660	0.020734	-0.124140
H80	H	-0.843171	-0.020954	-0.180987
H81	H	-0.977841	0.040905	-0.183033
H82	H	-0.903892	-0.157662	0.230997
H83	H	-1.132841	0.003117	-0.094786
H84	H	-1.123183	-0.155687	0.230325
N85	N	-0.896780	-0.139981	-0.262901
H86	H	-0.973510	-0.120626	-0.319937
H87	H	-0.847782	-0.081472	-0.237178
H88	H	-0.899364	-0.267930	0.131768
