data_functionalizedCrystal
_audit_creation_method	'MofGen! by Chris Wilmer'
_symmetry_space_group_name_H-M	'P1'
_symmetry_Int_Tables_number	1
_symmetry_cell_setting	triclinic
loop_
_symmetry_equiv_pos_as_xyz
  x,y,z
_cell_length_a	19.188930
_cell_length_b	19.188929
_cell_length_c	17.666332
_cell_angle_alpha	90.033034
_cell_angle_beta	89.984429
_cell_angle_gamma	96.855224
loop_
_atom_site_label
_atom_site_type_symbol
_atom_site_fract_x
_atom_site_fract_y
_atom_site_fract_z
O1	O	-0.926141	0.087175	0.063228
O2	O	-0.722830	0.098909	0.063181
O3	O	-0.830353	-0.008614	0.063159
O4	O	-0.818618	0.194697	0.063250
O5	O	-0.830351	-0.008631	-0.062738
O6	O	-0.722828	0.098892	-0.062716
O7	O	-0.926139	0.087157	-0.062669
Cu8	Cu	-0.824483	0.093023	-0.074188
Cu9	Cu	-0.824486	0.093043	0.074699
O10	O	-0.818616	0.194680	-0.062647
C11	C	-0.696818	0.098520	0.000225
C12	C	-0.619313	0.097380	0.000205
C13	C	-0.829972	-0.034634	0.000200
C14	C	-0.828831	-0.112138	0.000169
C15	C	-0.952151	0.087546	0.000288
C16	C	-1.029656	0.088687	0.000313
C17	C	-0.574389	0.160470	0.000245
C18	C	-0.501566	0.159399	0.000253
C19	C	-0.473669	0.095233	0.000236
C20	C	-0.518603	0.032133	0.000192
C21	C	-0.591425	0.033207	0.000176
N22	N	-0.365690	0.046192	0.043093
N23	N	-0.296511	0.045176	0.043109
C24	C	-0.254260	0.091995	0.000281
N25	N	-0.283800	0.139877	-0.042555
N26	N	-0.352985	0.140895	-0.042568
C27	C	-0.394707	0.094062	0.000252
C28	C	-0.130372	0.153928	0.000328
C29	C	-0.057547	0.152853	0.000331
C30	C	-0.074586	0.025586	0.000278
C31	C	-0.147409	0.026662	0.000267
C32	C	-0.175298	0.090835	0.000296
C33	C	-0.818997	0.220700	0.000313
C34	C	-0.820138	0.298204	0.000350
C35	C	-0.757047	0.343128	0.000320
C36	C	-0.758119	0.415952	0.000303
C37	C	-0.822285	0.443849	0.000301
C38	C	-0.885384	0.398915	0.000335
C39	C	-0.884311	0.326093	0.000359
N40	N	-0.871331	0.551811	-0.042581
N41	N	-0.872347	0.620990	-0.042606
C42	C	-0.825523	0.663257	0.000229
N43	N	-0.777635	0.633734	0.043080
N44	N	-0.776618	0.564549	0.043101
C45	C	-0.823456	0.522811	0.000275
C46	C	-0.763590	0.787146	0.000182
C47	C	-0.764664	0.859970	0.000169
C48	C	-0.891931	0.842932	0.000194
C49	C	-0.890855	0.770108	0.000214
C50	C	-0.826683	0.742220	0.000204
N51	N	-0.824488	0.093053	0.179419
N52	N	-0.824487	0.093008	-0.178907
C53	C	-0.866601	0.135347	0.781518
C54	C	-0.866607	0.135350	0.702270
C55	C	-0.824484	0.093022	0.662600
C56	C	-0.782367	0.050674	0.702185
C57	C	-0.782369	0.050667	0.781431
N58	N	-0.763344	0.091191	0.538158
N59	N	-0.763345	0.091202	0.462877
C60	C	-0.824479	0.093040	0.423836
N61	N	-0.885613	0.094880	0.462920
N62	N	-0.885612	0.094873	0.538207
C63	C	-0.824479	0.093025	0.576671
C64	C	-0.866603	0.135384	0.298332
C65	C	-0.866610	0.135382	0.219083
C66	C	-0.782364	0.050710	0.218999
C67	C	-0.782363	0.050708	0.298247
C68	C	-0.824482	0.093049	0.337909
H69	H	-0.597091	0.212725	0.000270
H70	H	-0.900909	0.169858	0.186863
O71	O	-0.907535	0.176547	0.663933
C72	C	-0.991117	0.260506	0.672374
C73	C	-0.944787	0.213897	0.715881
H74	H	-1.021258	0.290705	0.714354
H75	H	-0.956617	0.299140	0.635313
H76	H	-1.029811	0.226134	0.635237
H77	H	-0.906086	0.248213	0.753059
H78	H	-0.979331	0.175259	0.752894
H79	H	-0.495885	-0.020111	0.000188
H80	H	-0.748072	0.016210	0.669881
H81	H	-0.464982	0.210777	0.000283
H82	H	-0.935689	0.289515	0.000384
H83	H	-0.900900	0.169822	0.813805
H84	H	-0.900899	0.169860	0.330626
O85	O	-0.696875	0.459671	0.000168
C86	C	-0.624218	0.551692	-0.065135
C87	C	-0.693609	0.502236	-0.065067
H88	H	-0.621549	0.586108	-0.117880
H89	H	-0.621525	0.586306	-0.012498
H90	H	-0.578182	0.519234	-0.065100
H91	H	-0.739685	0.534639	-0.065129
H92	H	-0.696241	0.467620	-0.117700
H93	H	-0.937629	0.421633	0.000347
H94	H	-0.711337	0.764438	0.000169
H95	H	-0.748066	0.016234	0.330469
O96	O	-0.703310	0.903513	0.000107
C97	C	-0.576967	0.912724	0.000115
C98	C	-0.646400	0.863332	0.000169
H99	H	-0.530938	0.880258	0.000181
H100	H	-0.574244	0.947190	-0.052595
H101	H	-0.574323	0.947299	0.052780
H102	H	-0.649090	0.828714	-0.052461
H103	H	-0.649094	0.828914	0.052914
H104	H	-0.153080	0.206181	0.000341
H105	H	-0.944177	0.865644	0.000247
H106	H	-0.020970	0.204232	0.000360
H107	H	-0.628003	-0.018171	0.000144
H108	H	-0.183988	-0.024713	0.000238
H109	H	-0.051874	-0.026659	0.000311
O110	O	-0.694651	0.316155	0.000350
C111	C	-0.568536	0.340743	0.000271
C112	C	-0.639149	0.371386	0.000253
H113	H	-0.523644	0.385382	0.000177
H114	H	-0.564801	0.307146	0.052982
H115	H	-0.564889	0.307008	-0.052393
H116	H	-0.642843	0.405153	0.052882
H117	H	-0.642853	0.404943	-0.052493
H118	H	-0.942231	0.733530	0.000233
H119	H	-0.748072	0.016189	0.813652
H120	H	-0.748068	0.016245	0.186701
