data_functionalizedCrystal
_audit_creation_method	'MofGen! by Chris Wilmer'
_symmetry_space_group_name_H-M	'P1'
_symmetry_Int_Tables_number	1
_symmetry_cell_setting	triclinic
loop_
_symmetry_equiv_pos_as_xyz
  x,y,z
_cell_length_a	10.654541
_cell_length_b	9.730223
_cell_length_c	10.654551
_cell_angle_alpha	89.998531
_cell_angle_beta	95.515355
_cell_angle_gamma	90.001121
loop_
_atom_site_label
_atom_site_type_symbol
_atom_site_fract_x
_atom_site_fract_y
_atom_site_fract_z
O1	O	1.667837	-0.114238	-0.176379
O2	O	1.302358	-0.114249	-0.193188
O3	O	1.493500	-0.114244	-0.002044
O4	O	1.476695	-0.114243	-0.367523
O5	O	1.493498	0.114336	-0.002049
O6	O	1.302356	0.114330	-0.193193
O7	O	1.667835	0.114342	-0.176384
Zn8	Zn	1.485095	0.150628	-0.184789
Zn9	Zn	1.485098	-0.150536	-0.184783
O10	O	1.476693	0.114336	-0.367528
C11	C	1.255559	0.000039	-0.191957
C12	C	1.116116	0.000034	-0.188266
N13	N	1.485102	0.356164	-0.184793
N14	N	1.485101	-0.356072	-0.184769
C15	C	1.088146	0.000018	-0.416831
C16	C	1.008652	0.000004	-0.529374
C17	C	0.877634	0.000003	-0.525898
C18	C	0.826108	0.000019	-0.409867
C19	C	0.905602	0.000033	-0.297324
C20	C	1.036621	0.000030	-0.300812
C21	C	0.933572	0.000060	-0.068762
C22	C	1.064590	0.000051	-0.072235
C23	C	0.882046	0.000076	0.047269
C24	C	0.961540	0.000080	0.159814
C25	C	1.092566	0.000080	0.156334
C26	C	1.144084	0.000065	0.040308
C27	C	1.714634	0.000050	-0.177615
C28	C	1.854078	0.000046	-0.181306
C29	C	1.492265	0.000042	0.044751
C30	C	1.488572	0.000033	0.184194
C31	C	1.569762	0.428093	-0.100183
C32	C	1.569759	0.571976	-0.100168
C33	C	1.400432	0.571989	-0.269383
C34	C	1.400430	0.428109	-0.269391
C35	C	1.654434	0.356148	-0.015585
C36	C	1.739101	0.428077	0.069031
C37	C	1.739098	0.571959	0.069046
C38	C	1.654427	0.643914	-0.015554
C39	C	1.477929	0.000047	-0.414323
C40	C	1.481621	0.000047	-0.553766
C41	C	1.486841	-0.124563	0.249709
C42	C	1.483361	-0.124557	0.380729
C43	C	1.483348	0.124653	0.380710
C44	C	1.486820	0.124645	0.249691
C45	C	1.488594	-0.249176	0.184213
C46	C	1.486865	-0.373783	0.249728
C47	C	1.483384	-0.373776	0.380748
C48	C	1.481634	-0.249163	0.446254
H49	H	1.194826	-0.000011	-0.419672
H50	H	1.481963	-0.475237	0.434085
C51	C	1.481430	0.261718	0.452772
N52	N	1.479990	0.364957	0.507049
H53	H	0.812909	0.000001	-0.617541
C54	C	0.681984	0.000033	-0.406051
N55	N	0.573428	0.000042	-0.403175
H56	H	0.775363	0.000083	0.050090
C57	C	1.488731	0.261708	0.177621
N58	N	1.490168	0.364948	0.123338
C59	C	1.180000	0.000096	0.280143
N60	N	1.245851	0.000106	0.373400
H61	H	1.808031	0.369484	0.137917
H62	H	1.050619	-0.000006	-0.623844
C63	C	1.288205	0.000069	0.036469
N64	N	1.396759	0.000078	0.033572
C65	C	1.832215	0.651077	0.162141
N66	N	1.902355	0.710665	0.232263
H67	H	1.478782	-0.249168	0.552937
C68	C	1.654443	0.197874	-0.015591
N69	N	1.654448	0.078662	-0.015597
H70	H	1.331492	0.369544	-0.338287
H71	H	1.488278	-0.475238	0.196383
C72	C	1.654429	0.802191	-0.015533
N73	N	1.654437	0.921403	-0.015521
C74	C	1.307303	0.651145	-0.362438
N75	N	1.237157	0.710765	-0.432530
C76	C	1.492303	-0.249194	0.040074
N77	N	1.495054	-0.249206	-0.068498
H78	H	0.919576	0.000093	0.254278
