data_functionalizedCrystal
_audit_creation_method	'MofGen! by Chris Wilmer'
_symmetry_space_group_name_H-M	'P1'
_symmetry_Int_Tables_number	1
_symmetry_cell_setting	triclinic
loop_
_symmetry_equiv_pos_as_xyz
  x,y,z
_cell_length_a	16.625548
_cell_length_b	19.121063
_cell_length_c	19.121226
_cell_angle_alpha	90.121486
_cell_angle_beta	87.565351
_cell_angle_gamma	92.470058
loop_
_atom_site_label
_atom_site_type_symbol
_atom_site_fract_x
_atom_site_fract_y
_atom_site_fract_z
Zn1	Zn	1.199700	-0.262290	0.408296
Zn2	Zn	1.533033	0.071044	0.741629
Zn3	Zn	1.866367	0.404377	1.074962
Zn4	Zn	1.199133	-0.384504	0.296052
Zn5	Zn	1.532467	-0.051171	0.629385
Zn6	Zn	1.865800	0.282163	0.962718
Zn7	Zn	1.070390	-0.267284	0.291072
Zn8	Zn	1.403723	0.066049	0.624405
Zn9	Zn	1.737056	0.399382	0.957738
Zn10	Zn	1.058836	-0.379497	0.413249
Zn11	Zn	1.392169	-0.046163	0.746583
Zn12	Zn	1.725503	0.287170	1.079916
O13	O	1.132015	-0.323394	0.352167
O14	O	1.465348	0.009940	0.685500
O15	O	1.798681	0.343273	1.018834
O16	O	1.312456	-0.278507	0.393417
O17	O	1.645790	0.054827	0.726751
O18	O	1.979123	0.388160	1.060084
O19	O	1.186653	-0.373140	0.197285
O20	O	1.519986	-0.039807	0.530618
O21	O	1.853320	0.293527	0.863951
O22	O	1.092616	-0.168513	0.302465
O23	O	1.425949	0.164820	0.635798
O24	O	1.759282	0.498153	0.969131
O25	O	1.312040	-0.368297	0.310952
O26	O	1.645373	-0.034964	0.644285
O27	O	1.978707	0.298370	0.977619
O28	O	1.187619	-0.164844	0.388589
O29	O	1.520953	0.168490	0.721922
O30	O	1.854286	0.501823	1.055255
O31	O	1.092066	-0.287019	0.193626
O32	O	1.425399	0.046314	0.526959
O33	O	1.758733	0.379647	0.860293
O34	O	0.956026	-0.282164	0.307268
O35	O	1.289359	0.051169	0.640601
O36	O	1.622692	0.384502	0.973935
O37	O	1.072924	-0.359763	0.510698
O38	O	1.406257	-0.026430	0.844032
O39	O	1.739591	0.306903	1.177365
O40	O	0.947537	-0.364606	0.397031
O41	O	1.280870	-0.031273	0.730364
O42	O	1.614204	0.302060	1.063698
O43	O	1.176416	-0.273652	0.507059
O44	O	1.509749	0.059682	0.840392
O45	O	1.843083	0.393015	1.173726
O46	O	1.175450	-0.481948	0.315755
O47	O	1.508783	-0.148615	0.649089
O48	O	1.842117	0.184719	0.982422
O49	O	1.072374	-0.478269	0.401860
O50	O	1.405708	-0.144936	0.735193
O51	O	1.739041	0.188397	1.068526
C52	C	0.922525	-0.323384	0.352147
C53	C	1.255859	0.009949	0.685480
C54	C	1.589192	0.343282	1.018814
C55	C	0.832903	-0.323397	0.352156
C56	C	1.166237	0.009937	0.685489
C57	C	1.499570	0.343270	1.018822
C58	C	1.122618	-0.505547	0.359901
C59	C	1.455951	-0.172213	0.693234
C60	C	1.789285	0.161120	1.026567
C61	C	1.118671	-0.583471	0.363233
C62	C	1.452004	-0.250138	0.696566
C63	C	1.785337	0.083195	1.029899
C64	C	0.504726	-0.323400	0.352186
C65	C	0.838059	0.009933	0.685519
C66	C	1.171393	0.343267	1.018853
C67	C	0.596035	-0.323397	0.352175
C68	C	0.929368	0.009936	0.685509
C69	C	1.262702	0.343269	1.018842
C70	C	0.668812	-0.323399	0.352170
C71	C	1.002145	0.009935	0.685504
C72	C	1.335478	0.343268	1.018837
C73	C	0.760127	-0.323395	0.352161
C74	C	1.093460	0.009938	0.685494
C75	C	1.426793	0.343272	1.018827
C76	C	1.170521	-0.621971	0.320005
C77	C	1.503854	-0.288638	0.653338
C78	C	1.837187	0.044696	0.986672
C79	C	1.166813	-0.695189	0.323143
C80	C	1.500146	-0.361856	0.656476
C81	C	1.833479	-0.028523	0.989810
C82	C	1.111251	-0.729907	0.369505
C83	C	1.444584	-0.396573	0.702838
C84	C	1.777917	-0.063240	1.036172
C85	C	1.059399	-0.691402	0.412737
C86	C	1.392732	-0.358069	0.746071
C87	C	1.726065	-0.024735	1.079404
C88	C	1.063111	-0.618185	0.409603
C89	C	1.396444	-0.284851	0.742936
C90	C	1.729777	0.048482	1.076269
C91	C	1.097359	-0.950880	0.381214
C92	C	1.430692	-0.617547	0.714548
C93	C	1.764025	-0.284214	1.047881
C94	C	1.093649	-1.024103	0.384344
C95	C	1.426982	-0.690770	0.717678
C96	C	1.760315	-0.357436	1.051011
C97	C	1.201064	-1.027885	0.294750
C98	C	1.534398	-0.694552	0.628084
C99	C	1.867731	-0.361219	0.961417
C100	C	1.204768	-0.954667	0.291617
C101	C	1.538102	-0.621333	0.624950
C102	C	1.871435	-0.288000	0.958283
C103	C	1.152919	-0.916168	0.334851
C104	C	1.486253	-0.582835	0.668185
C105	C	1.819586	-0.249501	1.001518
C106	C	1.107458	-0.804748	0.372712
C107	C	1.440791	-0.471414	0.706045
C108	C	1.774124	-0.138081	1.039379
C109	C	1.156717	-0.841328	0.331648
C110	C	1.490050	-0.507995	0.664981
C111	C	1.823383	-0.174662	0.998314
C112	C	1.342322	-0.323403	0.352188
C113	C	1.675655	0.009930	0.685521
C114	C	2.008989	0.343263	1.018854
C115	C	1.431943	-0.323407	0.352196
C116	C	1.765276	0.009926	0.685530
C117	C	2.098609	0.343259	1.018863
C118	C	1.123444	-0.315592	0.535028
C119	C	1.456778	0.017742	0.868361
C120	C	1.790111	0.351075	1.201694
C121	C	1.119792	-0.312267	0.612952
C122	C	1.453126	0.021066	0.946286
C123	C	1.786459	0.354400	1.279619
C124	C	1.141469	-0.140529	0.344419
C125	C	1.474803	0.192805	0.677752
C126	C	1.808136	0.526138	1.011085
C127	C	1.145498	-0.062603	0.341117
C128	C	1.478832	0.270731	0.674450
C129	C	1.812165	0.604064	1.007783
C130	C	1.096669	-0.291221	1.053582
C131	C	1.430002	0.042112	1.386915
C132	C	1.763336	0.375446	1.720248
C133	C	1.100105	-0.294342	0.980363
C134	C	1.433438	0.038991	1.313697
C135	C	1.766771	0.372324	1.647030
C136	C	1.151064	-0.340745	0.945658
C137	C	1.484398	-0.007412	1.278992
C138	C	1.817731	0.325922	1.612325
C139	C	1.198598	-0.384024	0.984176
C140	C	1.531931	-0.050691	1.317509
C141	C	1.865264	0.282643	1.650842
C142	C	1.195166	-0.380899	1.057392
C143	C	1.528499	-0.047566	1.390726
C144	C	1.861832	0.285768	1.724059
C145	C	1.163894	-0.352421	0.724686
C146	C	1.497227	-0.019088	1.058019
C147	C	1.830560	0.314246	1.391353
C148	C	1.167320	-0.355545	0.651464
C149	C	1.500653	-0.022211	0.984797
C150	C	1.833987	0.311122	1.318131
C151	C	1.068828	-0.265861	0.647657
C152	C	1.402161	0.067472	0.980990
C153	C	1.735495	0.400805	1.314324
C154	C	1.065397	-0.262743	0.720875
C155	C	1.398730	0.070590	1.054209
C156	C	1.732064	0.403923	1.387542
C157	C	1.112933	-0.306020	0.759386
C158	C	1.446267	0.027314	1.092719
C159	C	1.779600	0.360647	1.426053
C160	C	1.154575	-0.343938	0.870818
C161	C	1.487909	-0.010605	1.204151
C162	C	1.821242	0.322729	1.537484
C163	C	1.109426	-0.302823	0.834225
C164	C	1.442759	0.030511	1.167559
C165	C	1.776093	0.363844	1.500892
C166	C	1.140545	-0.331179	1.170018
C167	C	1.473878	0.002154	1.503352
C168	C	1.807212	0.335488	1.836685
C169	C	1.144197	-0.334498	1.092094
C170	C	1.477530	-0.001165	1.425427
C171	C	1.810864	0.332168	1.758760
H172	H	1.215762	-0.593709	0.282249
H173	H	1.549095	-0.260376	0.615582
H174	H	1.882429	0.072957	0.948916
H175	H	1.055139	-0.919541	0.416416
H176	H	1.388473	-0.586207	0.749750
H177	H	1.721806	-0.252874	1.083083
H178	H	1.014162	-0.719674	0.450490
H179	H	1.347495	-0.386341	0.783823
H180	H	1.680829	-0.053008	1.117156
O181	O	1.033707	-1.061547	0.434346
O182	O	1.367041	-0.728214	0.767679
O183	O	1.700374	-0.394881	1.101012
H184	H	1.039828	-1.118928	0.429250
H185	H	1.373162	-0.785594	0.762583
H186	H	1.706495	-0.452261	1.095917
H187	H	1.196065	-0.381721	0.842553
H188	H	1.529399	-0.048387	1.175886
H189	H	1.862732	0.284946	1.509219
H190	H	1.233869	-0.416139	1.088748
H191	H	1.567203	-0.082806	1.422081
H192	H	1.900536	0.250528	1.755415
O193	O	1.222294	-0.405590	0.614030
O194	O	1.555627	-0.072257	0.947363
O195	O	1.888961	0.261076	1.280696
H196	H	1.204970	-0.460015	0.630417
H197	H	1.538303	-0.126681	0.963751
H198	H	1.871637	0.206652	1.297084
O199	O	1.007179	-0.576663	0.456226
O200	O	1.340512	-0.243330	0.789559
O201	O	1.673846	0.090004	1.122892
H202	H	1.043252	-0.541746	0.490500
H203	H	1.376586	-0.208412	0.823833
H204	H	1.709919	0.124921	1.157166
O205	O	1.222731	-0.736717	0.276515
O206	O	1.556065	-0.403384	0.609849
O207	O	1.889398	-0.070050	0.943182
H208	H	1.261982	-0.700275	0.243743
H209	H	1.595315	-0.366942	0.577076
H210	H	1.928649	-0.033609	0.910410
H211	H	1.243278	-1.059239	0.259552
H212	H	1.576611	-0.725905	0.592885
H213	H	1.909945	-0.392572	0.926219
H214	H	1.055170	-0.253436	1.081833
H215	H	1.388504	0.079897	1.415166
H216	H	1.721837	0.413230	1.748500
H217	H	1.250012	-0.926401	0.253865
H218	H	1.583345	-0.593068	0.587198
H219	H	1.916678	-0.259735	0.920531
H220	H	1.201959	-0.813059	0.293902
H221	H	1.535292	-0.479726	0.627235
H222	H	1.868625	-0.146393	0.960569
H223	H	1.062217	-0.833023	0.410459
H224	H	1.395550	-0.499690	0.743792
H225	H	1.728884	-0.166356	1.077126
H226	H	1.061401	-0.259102	0.949010
H227	H	1.394735	0.074231	1.282343
H228	H	1.728068	0.407565	1.615677
H229	H	1.202599	-0.387662	0.756033
H230	H	1.535932	-0.054328	1.089366
H231	H	1.869266	0.279005	1.422699
O232	O	1.010441	-0.212688	0.758308
O233	O	1.343775	0.120645	1.091641
O234	O	1.677108	0.453978	1.424974
H235	H	0.977975	-0.183113	0.719226
H236	H	1.311308	0.150221	1.052560
H237	H	1.644641	0.483554	1.385893
O238	O	1.253563	-0.434076	0.946749
O239	O	1.586896	-0.100742	1.280083
O240	O	1.920229	0.232591	1.613416
H241	H	1.247959	-0.428985	0.889367
H242	H	1.581292	-0.095651	1.222700
H243	H	1.914625	0.237682	1.556033
O244	O	1.017568	-0.219177	0.606122
O245	O	1.350902	0.114156	0.939456
O246	O	1.684235	0.447490	1.272789
H247	H	1.028520	-0.229138	0.549379
H248	H	1.361853	0.104195	0.882713
H249	H	1.695186	0.437529	1.216046
O250	O	1.054477	-0.252766	0.871657
O251	O	1.387811	0.080568	1.204990
O252	O	1.721144	0.413901	1.538323
H253	H	1.010267	-0.282714	0.906343
H254	H	1.343601	0.050619	1.239676
H255	H	1.676934	0.383952	1.573010
