data_functionalizedCrystal
_audit_creation_method	'MofGen! by Chris Wilmer'
_symmetry_space_group_name_H-M	'P1'
_symmetry_Int_Tables_number	1
_symmetry_cell_setting	triclinic
loop_
_symmetry_equiv_pos_as_xyz
  x,y,z
_cell_length_a	13.262529
_cell_length_b	13.339070
_cell_length_c	12.376211
_cell_angle_alpha	80.958078
_cell_angle_beta	61.846955
_cell_angle_gamma	99.429032
loop_
_atom_site_label
_atom_site_type_symbol
_atom_site_fract_x
_atom_site_fract_y
_atom_site_fract_z
O1	O	-1.573769	-0.243690	0.577867
O2	O	-1.248004	-0.239933	0.477711
O3	O	-1.373498	-0.092268	0.516290
O4	O	-1.448275	-0.391355	0.539287
O5	O	-1.323746	-0.054521	0.312973
O6	O	-1.198251	-0.202186	0.274394
O7	O	-1.524017	-0.205943	0.374549
Zn8	Zn	-1.353235	-0.198071	0.292190
Zn9	Zn	-1.418786	-0.247804	0.560070
O10	O	-1.398522	-0.353608	0.335970
C11	C	-1.180581	-0.217800	0.362971
C12	C	-1.053803	-0.208076	0.323994
C13	C	-0.967129	-0.182932	0.194847
C14	C	-0.848011	-0.173784	0.158216
C15	C	-0.815556	-0.189787	0.250727
C16	C	-0.902233	-0.214939	0.379877
C17	C	-1.021361	-0.224080	0.416512
C18	C	-0.869789	-0.230935	0.472392
C19	C	-0.956465	-0.256086	0.601541
C20	C	-1.075582	-0.265227	0.638170
C21	C	-1.108036	-0.249223	0.545658
C22	C	-0.750660	-0.221794	0.435757
C23	C	-0.804893	-0.262941	0.657421
C24	C	-0.924011	-0.272089	0.694053
N25	N	-1.308506	-0.164129	0.109372
C26	C	-1.335991	-0.034936	0.410750
C27	C	-1.298343	0.079661	0.399180
C28	C	-0.591440	-0.228075	0.489291
C29	C	-0.718219	-0.237797	0.528275
C30	C	-1.436030	-0.410941	0.441513
C31	C	-1.473680	-0.525538	0.453091
C32	C	-1.591087	0.426608	0.489183
C33	C	-1.626462	0.318940	0.500048
C34	C	-1.544435	0.259115	0.474832
C35	C	-1.427028	0.306968	0.438749
C36	C	-1.391647	0.414647	0.427873
C37	C	-1.344995	0.247155	0.413522
C38	C	-1.227588	0.295007	0.377439
C39	C	-1.192214	0.402676	0.366566
C40	C	-1.274240	0.462502	0.391781
C41	C	-1.380376	0.139475	0.424398
C42	C	-1.180936	0.127515	0.363088
C43	C	-1.145561	0.235182	0.352223
N44	N	-1.463521	-0.281739	0.742890
C45	C	-1.567342	-0.360510	0.834012
C46	C	-1.598627	-0.384255	0.961976
C47	C	-1.526100	-0.329226	0.998832
C48	C	-1.422281	-0.250447	0.907710
C49	C	-1.390988	-0.226705	0.779732
C50	C	-1.349746	-0.195421	0.944552
C51	C	-1.245927	-0.116642	0.853430
C52	C	-1.214640	-0.092904	0.725466
C53	C	-1.287167	-0.147934	0.688610
C54	C	-1.381039	-0.219163	1.072530
C55	C	-1.204685	-0.085358	1.018250
C56	C	-1.173400	-0.061613	0.890286
H57	H	-1.475969	0.100524	0.453777
N58	N	-1.710602	-0.469206	1.060254
H59	H	-1.689604	-0.526407	1.102903
H60	H	-1.751750	-0.500376	1.017403
H61	H	-0.680100	-0.201323	0.330603
H62	H	-1.130098	-0.028765	0.651273
H63	H	-1.146150	-0.285693	0.743331
H64	H	-1.261701	-0.128602	0.584414
H65	H	-1.096611	0.441636	0.337175
H66	H	-1.626378	-0.405311	0.803989
N67	N	-1.061428	0.023355	0.792002
H68	H	-1.052617	0.030041	0.705344
H69	H	-0.990470	0.004058	0.790856
H70	H	-1.049966	0.274159	0.322842
N71	N	-1.092449	0.063006	0.335873
H72	H	-1.132677	-0.012466	0.348239
H73	H	-1.061159	0.065216	0.395952
N74	N	-0.769896	-0.280204	0.757205
H75	H	-0.813029	-0.354101	0.815285
H76	H	-0.791923	-0.227413	0.808691
H77	H	-1.145624	-0.040551	1.048255
N78	N	-0.754526	-0.146655	0.018931
H79	H	-0.793034	-0.137190	-0.034154
H80	H	-0.715031	-0.205613	0.001982
N81	N	-1.753082	0.267330	0.538957
H82	H	-1.799678	0.321564	0.553283
H83	H	-1.790554	0.208918	0.620176
N84	N	-0.687081	-0.179920	0.211224
H85	H	-0.637097	-0.161560	0.115372
H86	H	-0.679685	-0.249132	0.249240
N87	N	-1.017495	-0.299209	0.833348
H88	H	-1.078675	-0.367232	0.856732
H89	H	-1.057487	-0.240542	0.850142
H90	H	-1.465567	-0.283306	1.146710
N91	N	-1.559843	-0.354826	1.136850
H92	H	-1.636618	-0.413078	1.188983
H93	H	-1.570616	-0.289857	1.168559
N94	N	-1.582585	0.142987	0.486557
H95	H	-1.669408	0.121749	0.513246
H96	H	-1.570328	0.100791	0.552497
N97	N	-1.679536	0.491142	0.516357
H98	H	-1.687747	0.522093	0.588578
H99	H	-1.759231	0.444439	0.540810
N100	N	-1.002131	-0.165667	0.095078
H101	H	-1.090746	-0.175273	0.137885
H102	H	-0.980023	-0.218403	0.043524
N103	N	-1.236516	-0.259090	0.585164
H104	H	-1.265314	-0.206056	0.634254
H105	H	-1.286307	-0.332716	0.640698
H106	H	-1.245445	0.550173	0.382941
