data_functionalizedCrystal
_audit_creation_method	'MofGen! by Chris Wilmer'
_symmetry_space_group_name_H-M	'P1'
_symmetry_Int_Tables_number	1
_symmetry_cell_setting	triclinic
loop_
_symmetry_equiv_pos_as_xyz
  x,y,z
_cell_length_a	18.050590
_cell_length_b	12.594516
_cell_length_c	12.594509
_cell_angle_alpha	89.973801
_cell_angle_beta	89.994662
_cell_angle_gamma	90.005218
loop_
_atom_site_label
_atom_site_type_symbol
_atom_site_fract_x
_atom_site_fract_y
_atom_site_fract_z
Zn1	Zn	1.135400	-0.424018	-0.601421
Zn2	Zn	1.135324	-0.602028	-0.423449
Zn3	Zn	1.011206	-0.424030	-0.423499
Zn4	Zn	1.011194	-0.601921	-0.601428
O5	O	1.073281	-0.512999	-0.512449
O6	O	1.239314	-0.447671	-0.577788
O7	O	1.118833	-0.578466	-0.274509
O8	O	1.027718	-0.275083	-0.447119
O9	O	1.239259	-0.578454	-0.447033
O10	O	1.118962	-0.275074	-0.577837
O11	O	1.027644	-0.447692	-0.274547
O12	O	0.907280	-0.447588	-0.447126
O13	O	1.027696	-0.578272	-0.750373
O14	O	0.907271	-0.578284	-0.577850
O15	O	1.118950	-0.447567	-0.750368
O16	O	1.118821	-0.750960	-0.447040
O17	O	1.027623	-0.750881	-0.577801
C18	C	0.880329	-0.512927	-0.512495
C19	C	0.797783	-0.512921	-0.512540
C20	C	1.073232	-0.789540	-0.512439
C21	C	1.073279	-0.907846	-0.512470
C22	C	1.023672	-0.977095	-0.583541
C23	C	1.005577	-1.047955	-0.486425
C24	C	1.091442	-1.047784	-0.609603
C25	C	1.055149	-0.977148	-0.415303
C26	C	1.141045	-0.976971	-0.538546
C27	C	1.122976	-1.047799	-0.441363
C28	C	0.598349	-0.584197	-0.583459
C29	C	0.548943	-0.487143	-0.609641
C30	C	0.646653	-0.512981	-0.512488
C31	C	0.548976	-0.610090	-0.486305
C32	C	0.500667	-0.513047	-0.512440
C33	C	0.598334	-0.415875	-0.538721
C34	C	0.598372	-0.538888	-0.415340
C35	C	0.548988	-0.441767	-0.441485
C36	C	0.730751	-0.512944	-0.512519
C37	C	0.416571	-0.513072	-0.512409
C38	C	1.266986	-0.513073	-0.512404
C39	C	1.349532	-0.513105	-0.512385
C40	C	1.073331	-0.512906	-0.790070
C41	C	1.073352	-0.512867	-0.908376
C42	C	1.073350	-0.235379	-0.512483
C43	C	1.073379	-0.117073	-0.512497
C44	C	1.023734	-0.583916	-0.977632
C45	C	1.091499	-0.609941	-1.048396
C46	C	1.005640	-0.486778	-1.048411
C47	C	1.141152	-0.538942	-0.977582
C48	C	1.055247	-0.415734	-0.977590
C49	C	1.123059	-0.441721	-1.048322
C50	C	1.073274	-0.513015	-0.235908
C51	C	1.073397	-0.512755	-0.117603
H52	H	0.981646	-0.946049	-0.643556
C53	C	1.179834	-0.360485	-1.089994
N54	N	1.222599	-0.299302	-1.121383
C55	C	0.519886	-0.360351	-0.360381
N56	N	0.497964	-0.299025	-0.299299
C57	C	0.928255	-0.457025	-1.090436
N58	N	0.869967	-0.434622	-1.122085
H59	H	1.164970	-1.078649	-0.381203
H60	H	0.527292	-0.692186	-0.464182
C61	C	1.218558	-0.568826	-0.935731
N62	N	1.276858	-0.591340	-0.904207
H63	H	0.620099	-0.560808	-0.333227
C64	C	0.967104	-0.665215	-0.935674
N65	N	0.924456	-0.726453	-0.904062
H66	H	1.106836	-0.692037	-1.079498
H67	H	1.106763	-1.078812	-0.691735
C68	C	0.627629	-0.665421	-0.664627
N69	N	0.649683	-0.726595	-0.725764
H70	H	1.039890	-0.333662	-0.946465
C71	C	1.218378	-0.934798	-0.568384
N72	N	1.276624	-0.903024	-0.590872
H73	H	0.948316	-1.079159	-0.464392
H74	H	0.527232	-0.465252	-0.691777
C75	C	1.034357	-0.935408	-0.304315
N76	N	1.018694	-0.903966	-0.220722
C77	C	0.627499	-0.304935	-0.568748
N78	N	0.649468	-0.221378	-0.591369
