data_functionalizedCrystal
_audit_creation_method	'MofGen! by Chris Wilmer'
_symmetry_space_group_name_H-M	'P1'
_symmetry_Int_Tables_number	1
_symmetry_cell_setting	triclinic
loop_
_symmetry_equiv_pos_as_xyz
  x,y,z
_cell_length_a	19.188905
_cell_length_b	18.266242
_cell_length_c	19.188930
_cell_angle_alpha	89.989745
_cell_angle_beta	96.860332
_cell_angle_gamma	90.016065
loop_
_atom_site_label
_atom_site_type_symbol
_atom_site_fract_x
_atom_site_fract_y
_atom_site_fract_z
O1	O	0.926160	0.061010	-0.087084
O2	O	1.176160	0.311010	0.162916
O3	O	1.426160	0.561010	0.412916
O4	O	1.676160	0.811010	0.662916
O5	O	0.722847	0.060986	-0.098837
O6	O	0.972847	0.310986	0.151163
O7	O	1.222847	0.560986	0.401163
O8	O	1.472847	0.810986	0.651163
O9	O	0.830371	0.060984	0.008696
O10	O	1.080371	0.310984	0.258696
O11	O	1.330371	0.560984	0.508696
O12	O	1.580371	0.810984	0.758696
O13	O	0.818636	0.061011	-0.194617
O14	O	1.068636	0.311011	0.055383
O15	O	1.318636	0.561011	0.305383
O16	O	1.568636	0.811011	0.555383
O17	O	0.830353	-0.060778	0.008699
O18	O	1.080353	0.189222	0.258699
O19	O	1.330353	0.439222	0.508699
O20	O	1.580353	0.689222	0.758699
O21	O	0.722828	-0.060776	-0.098834
O22	O	0.972828	0.189224	0.151166
O23	O	1.222828	0.439224	0.401166
O24	O	1.472828	0.689224	0.651166
O25	O	0.926142	-0.060752	-0.087081
O26	O	1.176142	0.189248	0.162919
O27	O	1.426142	0.439248	0.412919
O28	O	1.676142	0.689248	0.662919
Zn29	Zn	0.824482	-0.080097	-0.092957
Zn30	Zn	1.074482	0.169903	0.157043
Zn31	Zn	1.324482	0.419903	0.407043
Zn32	Zn	1.574482	0.669903	0.657043
Zn33	Zn	0.824506	0.080330	-0.092961
Zn34	Zn	1.074506	0.330330	0.157039
Zn35	Zn	1.324506	0.580330	0.407039
Zn36	Zn	1.574506	0.830330	0.657039
O37	O	0.818618	-0.060751	-0.194614
O38	O	1.068618	0.189249	0.055386
O39	O	1.318618	0.439249	0.305386
O40	O	1.568618	0.689249	0.555386
C41	C	0.696826	0.000102	-0.098458
C42	C	0.946826	0.250102	0.151542
C43	C	1.196826	0.500102	0.401542
C44	C	1.446826	0.750102	0.651542
C45	C	0.619321	0.000092	-0.097324
C46	C	0.869321	0.250092	0.152676
C47	C	1.119321	0.500092	0.402676
C48	C	1.369321	0.750092	0.652676
C49	C	0.582939	0.066466	-0.096781
C50	C	0.832939	0.316466	0.153219
C51	C	1.082939	0.566466	0.403219
C52	C	1.332939	0.816466	0.653219
C53	C	0.510115	0.066475	-0.095708
C54	C	0.760115	0.316475	0.154292
C55	C	1.010115	0.566475	0.404292
C56	C	1.260115	0.816475	0.654292
C57	C	0.473678	0.000106	-0.095164
C58	C	0.723678	0.250106	0.154836
C59	C	0.973678	0.500106	0.404836
C60	C	1.223678	0.750106	0.654836
C61	C	0.510068	-0.066277	-0.095711
C62	C	0.760068	0.183723	0.154289
C63	C	1.010068	0.433723	0.404289
C64	C	1.260068	0.683723	0.654289
C65	C	0.582890	-0.066284	-0.096791
C66	C	0.832890	0.183716	0.153209
C67	C	1.082890	0.433716	0.403209
C68	C	1.332890	0.683716	0.653209
N69	N	0.364651	-0.049292	-0.053734
N70	N	0.614651	0.200708	0.196266
N71	N	0.864651	0.450708	0.446266
N72	N	1.114651	0.700708	0.696266
N73	N	0.295474	-0.049280	-0.052706
N74	N	0.545474	0.200720	0.197294
N75	N	0.795474	0.450720	0.447294
N76	N	1.045474	0.700720	0.697294
C77	C	0.254272	0.000123	-0.091911
C78	C	0.504272	0.250123	0.158089
C79	C	0.754272	0.500123	0.408089
C80	C	1.004272	0.750123	0.658089
N81	N	0.284861	0.049526	-0.132173
N82	N	0.534861	0.299526	0.117827
N83	N	0.784861	0.549526	0.367827
N84	N	1.034861	0.799526	0.617827
N85	N	0.354045	0.049517	-0.133198
N86	N	0.604045	0.299517	0.116802
N87	N	0.854045	0.549517	0.366802
N88	N	1.104045	0.799517	0.616802
C89	C	0.394716	0.000106	-0.093993
C90	C	0.644716	0.250106	0.156007
C91	C	0.894716	0.500106	0.406007
C92	C	1.144716	0.750106	0.656007
C93	C	0.138926	0.066512	-0.090206
C94	C	0.388926	0.316512	0.159794
C95	C	0.638926	0.566512	0.409794
C96	C	0.888926	0.816512	0.659794
C97	C	0.066100	0.066518	-0.089137
C98	C	0.316100	0.316518	0.160863
C99	C	0.566100	0.566518	0.410863
C100	C	0.816100	0.816518	0.660863
C101	C	0.066056	-0.066236	-0.089133
C102	C	0.316056	0.183764	0.160867
C103	C	0.566056	0.433764	0.410867
C104	C	0.816056	0.683764	0.660867
C105	C	0.138879	-0.066240	-0.090209
C106	C	0.388879	0.183760	0.159791
C107	C	0.638879	0.433760	0.409791
C108	C	0.888879	0.683760	0.659791
C109	C	0.175310	0.000136	-0.090742
C110	C	0.425310	0.250136	0.159258
C111	C	0.675310	0.500136	0.409258
C112	C	0.925310	0.750136	0.659258
N113	N	0.824471	-0.189583	-0.092954
N114	N	1.074471	0.060417	0.157046
N115	N	1.324471	0.310417	0.407046
N116	N	1.574471	0.560417	0.657046
C117	C	0.866681	-0.227875	-0.135196
C118	C	1.116681	0.022125	0.114804
C119	C	1.366681	0.272125	0.364804
C120	C	1.616681	0.522125	0.614804
C121	C	0.866692	-0.304520	-0.135194
C122	C	1.116692	-0.054520	0.114806
C123	C	1.366692	0.195480	0.364806
C124	C	1.616692	0.445480	0.614806
C125	C	0.824481	-0.342870	-0.092958
C126	C	1.074481	-0.092870	0.157042
C127	C	1.324481	0.157130	0.407042
C128	C	1.574481	0.407130	0.657042
C129	C	0.782269	-0.304570	-0.050708
C130	C	1.032269	-0.054570	0.199292
C131	C	1.282269	0.195430	0.449292
C132	C	1.532269	0.445430	0.699292
C133	C	0.782264	-0.227926	-0.050706
C134	C	1.032264	0.022074	0.199294
C135	C	1.282264	0.272074	0.449294
C136	C	1.532264	0.522074	0.699294
N137	N	0.763333	-0.463231	-0.091244
N138	N	1.013333	-0.213231	0.158756
N139	N	1.263333	0.036769	0.408756
N140	N	1.513333	0.286769	0.658756
N141	N	0.763339	-0.536039	-0.091250
N142	N	1.013339	-0.286039	0.158750
N143	N	1.263339	-0.036039	0.408750
N144	N	1.513339	0.213961	0.658750
C145	C	0.824495	-0.573793	-0.092961
C146	C	1.074495	-0.323793	0.157039
C147	C	1.324495	-0.073793	0.407039
C148	C	1.574495	0.176207	0.657039
N149	N	0.885645	-0.535988	-0.094679
N150	N	1.135645	-0.285988	0.155321
N151	N	1.385645	-0.035988	0.405321
N152	N	1.635645	0.214012	0.655321
N153	N	0.885637	-0.463173	-0.094677
N154	N	1.135637	-0.213173	0.155323
N155	N	1.385637	0.036827	0.405323
N156	N	1.635637	0.286827	0.655323
C157	C	0.824482	-0.425977	-0.092955
C158	C	1.074482	-0.175977	0.157045
C159	C	1.324482	0.074023	0.407045
C160	C	1.574482	0.324023	0.657045
C161	C	0.866721	-0.695191	-0.135202
C162	C	1.116721	-0.445191	0.114798
C163	C	1.366721	-0.195191	0.364798
C164	C	1.616721	0.054809	0.614798
C165	C	0.866734	-0.771838	-0.135195
C166	C	1.116734	-0.521838	0.114805
C167	C	1.366734	-0.271838	0.364805
C168	C	1.616734	-0.021838	0.614805
C169	C	0.782304	-0.771886	-0.050714
C170	C	1.032304	-0.521886	0.199286
C171	C	1.282304	-0.271886	0.449286
C172	C	1.532304	-0.021886	0.699286
C173	C	0.782298	-0.695241	-0.050717
C174	C	1.032298	-0.445241	0.199283
C175	C	1.282298	-0.195241	0.449283
C176	C	1.532298	0.054759	0.699283
C177	C	0.824505	-0.656898	-0.092965
C178	C	1.074505	-0.406898	0.157035
C179	C	1.324505	-0.156898	0.407035
C180	C	1.574505	0.093102	0.657035
C181	C	0.952163	0.000134	-0.087460
C182	C	1.202163	0.250134	0.162540
C183	C	1.452163	0.500134	0.412540
C184	C	1.702163	0.750134	0.662540
C185	C	1.029668	0.000148	-0.088594
C186	C	1.279668	0.250148	0.161406
C187	C	1.529668	0.500148	0.411406
C188	C	1.779668	0.750148	0.661406
C189	C	0.829982	0.000101	0.034708
C190	C	1.079982	0.250101	0.284708
C191	C	1.329982	0.500101	0.534708
C192	C	1.579982	0.750101	0.784708
C193	C	0.828841	0.000095	0.112213
C194	C	1.078841	0.250095	0.362213
C195	C	1.328841	0.500095	0.612213
C196	C	1.578841	0.750095	0.862213
N197	N	0.824523	0.189817	-0.092959
N198	N	1.074523	0.439817	0.157041
N199	N	1.324523	0.689817	0.407041
N200	N	1.574523	0.939817	0.657041
C201	C	0.819007	0.000134	-0.220626
C202	C	1.069007	0.250134	0.029374
C203	C	1.319007	0.500134	0.279374
C204	C	1.569007	0.750134	0.529374
C205	C	0.820148	0.000145	-0.298131
C206	C	1.070148	0.250145	-0.048131
C207	C	1.320148	0.500145	0.201869
C208	C	1.570148	0.750145	0.451869
C209	C	0.891933	0.000099	0.157142
C210	C	1.141933	0.250099	0.407142
C211	C	1.391933	0.500099	0.657142
C212	C	1.641933	0.750099	0.907142
C213	C	0.890861	0.000110	0.229966
C214	C	1.140861	0.250110	0.479966
C215	C	1.390861	0.500110	0.729966
C216	C	1.640861	0.750110	0.979966
C217	C	0.826694	0.000103	0.257857
C218	C	1.076694	0.250103	0.507857
C219	C	1.326694	0.500103	0.757857
C220	C	1.576694	0.750103	1.007857
C221	C	0.763594	0.000103	0.212917
C222	C	1.013594	0.250103	0.462917
C223	C	1.263594	0.500103	0.712917
C224	C	1.513594	0.750103	0.962917
C225	C	0.764668	0.000099	0.140095
C226	C	1.014668	0.250099	0.390095
C227	C	1.264668	0.500099	0.640095
C228	C	1.514668	0.750099	0.890095
N229	N	0.777640	-0.041341	0.365858
N230	N	1.027640	0.208659	0.615858
N231	N	1.277640	0.458659	0.865858
N232	N	1.527640	0.708659	1.115858
N233	N	0.776624	-0.041338	0.435037
N234	N	1.026624	0.208662	0.685037
N235	N	1.276624	0.458662	0.935037
N236	N	1.526624	0.708662	1.185037
C237	C	0.823456	0.000118	0.477265
C238	C	1.073456	0.250118	0.727265
C239	C	1.323456	0.500118	0.977265
C240	C	1.573456	0.750118	1.227265
N241	N	0.871352	0.041561	0.447703
N242	N	1.121352	0.291561	0.697703
N243	N	1.371352	0.541561	0.947703
N244	N	1.621352	0.791561	1.197703
N245	N	0.872369	0.041556	0.378518
N246	N	1.122369	0.291556	0.628518
N247	N	1.372369	0.541556	0.878518
N248	N	1.622369	0.791556	1.128518
C249	C	0.825523	0.000108	0.336819
C250	C	1.075523	0.250108	0.586819
C251	C	1.325523	0.500108	0.836819
C252	C	1.575523	0.750108	1.086819
C253	C	0.885390	0.000135	0.601159
C254	C	1.135390	0.250135	0.851159
C255	C	1.385390	0.500135	1.101159
C256	C	1.635390	0.750135	1.351159
C257	C	0.884315	0.000151	0.673984
C258	C	1.134315	0.250151	0.923984
C259	C	1.384315	0.500151	1.173984
C260	C	1.634315	0.750151	1.423984
C261	C	0.757047	0.000137	0.656933
C262	C	1.007047	0.250137	0.906933
C263	C	1.257047	0.500137	1.156933
C264	C	1.507047	0.750137	1.406933
C265	C	0.758123	0.000128	0.584110
C266	C	1.008123	0.250128	0.834110
C267	C	1.258123	0.500128	1.084110
C268	C	1.508123	0.750128	1.334110
C269	C	0.822296	0.000124	0.556228
C270	C	1.072296	0.250124	0.806228
C271	C	1.322296	0.500124	1.056228
C272	C	1.572296	0.750124	1.306228
H273	H	0.168502	-0.120290	-0.090646
H274	H	0.418502	0.129710	0.159354
H275	H	0.668502	0.379710	0.409354
H276	H	0.918502	0.629710	0.659354
H277	H	0.480487	0.120527	-0.095267
H278	H	0.730487	0.370527	0.154733
H279	H	0.980487	0.620527	0.404733
H280	H	1.230487	0.870527	0.654733
H281	H	0.168589	0.120559	-0.090647
H282	H	0.418589	0.370559	0.159353
H283	H	0.668589	0.620559	0.409353
H284	H	0.918589	0.870559	0.659353
H285	H	0.704801	0.000135	0.679641
H286	H	0.954801	0.250135	0.929641
H287	H	1.204801	0.500135	1.179641
H288	H	1.454801	0.750135	1.429641
H289	H	0.901111	-0.803013	-0.169592
H290	H	1.151111	-0.553013	0.080408
H291	H	1.401111	-0.303013	0.330408
H292	H	1.651111	-0.053013	0.580408
F293	F	0.911620	-0.345281	-0.180154
F294	F	1.161620	-0.095281	0.069846
F295	F	1.411620	0.154719	0.319846
F296	F	1.661620	0.404719	0.569846
H297	H	0.747901	-0.335800	-0.016319
H298	H	0.997901	-0.085800	0.233681
H299	H	1.247901	0.164200	0.483681
H300	H	1.497901	0.414200	0.733681
F301	F	0.737333	-0.187172	-0.005747
F302	F	0.987333	0.062828	0.244253
F303	F	1.237333	0.312828	0.494253
F304	F	1.487333	0.562828	0.744253
F305	F	0.737386	-0.812696	-0.005756
F306	F	0.987386	-0.562696	0.244244
F307	F	1.237386	-0.312696	0.494244
F308	F	1.487386	-0.062696	0.744244
H309	H	0.935694	0.000158	0.710565
H310	H	1.185694	0.250158	0.960565
H311	H	1.435694	0.500158	1.210565
H312	H	1.685694	0.750158	1.460565
F313	F	0.958014	0.000115	0.277792
F314	F	1.208014	0.250115	0.527792
F315	F	1.458014	0.500115	0.777792
F316	F	1.708014	0.750115	1.027792
H317	H	0.706747	0.000121	0.547527
H318	H	0.956747	0.250121	0.797527
H319	H	1.206747	0.500121	1.047527
H320	H	1.456747	0.750121	1.297527
H321	H	0.901052	-0.196661	-0.169595
H322	H	1.151052	0.053339	0.080405
H323	H	1.401052	0.303339	0.330405
H324	H	1.651052	0.553339	0.580405
H325	H	0.612597	0.120515	-0.097215
H326	H	0.862597	0.370515	0.152785
H327	H	1.112597	0.620515	0.402785
H328	H	1.362597	0.870515	0.652785
F329	F	0.911653	-0.654382	-0.180154
F330	F	1.161653	-0.404382	0.069846
F331	F	1.411653	-0.154382	0.319846
F332	F	1.661653	0.095618	0.569846
F333	F	0.471288	-0.136912	-0.095135
F334	F	0.721288	0.113088	0.154865
F335	F	0.971288	0.363088	0.404865
F336	F	1.221288	0.613088	0.654865
F337	F	0.737360	-0.654487	-0.005768
F338	F	0.987360	-0.404487	0.244232
F339	F	1.237360	-0.154487	0.494232
F340	F	1.487360	0.095513	0.744232
F341	F	0.027281	-0.136872	-0.088560
F342	F	0.277281	0.113128	0.161440
F343	F	0.527281	0.363128	0.411440
F344	F	0.777281	0.613128	0.661440
F345	F	0.027380	0.137167	-0.088565
F346	F	0.277380	0.387167	0.161435
F347	F	0.527380	0.637167	0.411435
F348	F	0.777380	0.887167	0.661435
F349	F	0.960232	0.000110	0.127472
F350	F	1.210232	0.250110	0.377472
F351	F	1.460232	0.500110	0.627472
F352	F	1.710232	0.750110	0.877472
H353	H	0.711349	0.000099	0.235631
H354	H	0.961349	0.250099	0.485631
H355	H	1.211349	0.500099	0.735631
H356	H	1.461349	0.750099	0.985631
H357	H	0.937644	0.000135	0.578456
H358	H	1.187644	0.250135	0.828456
H359	H	1.437644	0.500135	1.078456
H360	H	1.687644	0.750135	1.328456
F361	F	0.621611	-0.136932	-0.097369
F362	F	0.871611	0.113068	0.152631
F363	F	1.121611	0.363068	0.402631
F364	F	1.371611	0.613068	0.652631
F365	F	0.697514	0.000095	0.092276
F366	F	0.947514	0.250095	0.342276
F367	F	1.197514	0.500095	0.592276
F368	F	1.447514	0.750095	0.842276
