data_functionalizedCrystal
_audit_creation_method	'MofGen! by Chris Wilmer'
_symmetry_space_group_name_H-M	'P1'
_symmetry_Int_Tables_number	1
_symmetry_cell_setting	triclinic
loop_
_symmetry_equiv_pos_as_xyz
  x,y,z
_cell_length_a	16.974829
_cell_length_b	10.489716
_cell_length_c	15.455313
_cell_angle_alpha	92.696181
_cell_angle_beta	83.671566
_cell_angle_gamma	83.962747
loop_
_atom_site_label
_atom_site_type_symbol
_atom_site_fract_x
_atom_site_fract_y
_atom_site_fract_z
O1	O	1.057029	0.151285	-0.146321
O2	O	0.826168	0.173235	-0.130117
O3	O	0.946862	-0.023455	-0.138591
O4	O	0.936335	0.347975	-0.137846
O5	O	0.939960	-0.012254	0.006155
O6	O	0.819266	0.184437	0.014630
O7	O	1.050127	0.162486	-0.001574
Cu8	Cu	0.934066	0.174484	0.019744
Cu9	Cu	0.942229	0.161237	-0.151435
O10	O	0.929433	0.359177	0.006900
C11	C	0.793156	0.178208	-0.055668
C12	C	0.705071	0.176320	-0.049486
C13	C	0.942620	-0.065370	-0.066165
C14	C	0.940254	-0.206949	-0.066007
C15	C	0.208843	0.166394	-0.006216
C16	C	0.291607	0.168167	-0.012027
C17	C	0.336753	0.162938	-0.093835
C18	C	0.299129	0.155948	-0.169837
C19	C	0.216365	0.154184	-0.164026
C20	C	0.584683	0.167567	-0.119677
C21	C	0.667453	0.169327	-0.125483
C22	C	0.659926	0.181548	0.032329
C23	C	0.577161	0.179776	0.038133
C24	C	0.539544	0.172793	-0.037869
N25	N	0.421352	0.164746	-0.099776
N26	N	0.454945	0.170994	-0.031927
C27	C	1.014267	-0.306244	-0.071194
C28	C	0.978560	-0.388271	-0.139814
C29	C	0.971738	-0.377191	0.002896
C30	C	0.904581	-0.287116	-0.134688
C31	C	0.897767	-0.276026	0.008085
C32	C	0.862006	-0.358003	-0.060549
C33	C	1.083140	0.157514	-0.076024
C34	C	1.171224	0.159401	-0.082213
C35	C	0.933675	0.401091	-0.065528
C36	C	0.936041	0.542670	-0.065692
N37	N	0.928331	0.183801	0.140143
N38	N	0.947970	0.151911	-0.271834
C39	C	0.979624	0.100270	0.181935
C40	C	0.975294	0.107328	0.273047
C41	C	0.919674	0.197923	0.322365
C42	C	0.868376	0.281457	0.280566
C43	C	0.872702	0.274393	0.189456
C44	C	0.900998	0.228381	0.595257
C45	C	0.896677	0.235441	0.686373
C46	C	1.003595	0.061309	0.678848
C47	C	1.007920	0.054258	0.587736
C48	C	0.956619	0.137788	0.545946
N49	N	0.915249	0.205141	0.415496
N50	N	0.961041	0.130562	0.452817
H51	H	0.172090	0.170657	0.060401
C52	C	1.101243	-0.274814	-0.077395
N53	N	1.166752	-0.251139	-0.082070
C54	C	1.069102	-0.045410	0.533494
N55	N	1.115186	-0.120481	0.492638
H56	H	1.012681	-0.437119	-0.202343
H57	H	0.322232	0.173858	0.049858
C58	C	0.174986	0.146487	-0.247628
N59	N	0.143820	0.140691	-0.310601
H60	H	0.859228	0.296396	0.561239
H61	H	0.554066	0.161876	-0.181563
H62	H	0.876234	-0.247802	-0.192897
H63	H	0.851382	0.309220	0.726524
H64	H	0.797580	-0.381025	-0.056065
H65	H	0.830933	0.342411	0.155430
C66	C	0.807186	0.381101	0.334819
N67	N	0.761096	0.456154	0.375682
H68	H	0.540411	0.184007	0.104750
H69	H	1.000121	-0.416679	0.061034
H70	H	0.863673	-0.227154	0.070614
H71	H	1.024919	0.026503	0.141786
H72	H	1.017061	0.039310	0.307074
H73	H	1.045362	-0.006698	0.712882
C74	C	0.717110	0.163594	-0.215482
N75	N	0.754512	0.159281	-0.283266
H76	H	0.335892	0.151698	-0.236447
C77	C	0.701308	0.189282	0.115926
N78	N	0.732475	0.195128	0.178894
