data_functionalizedCrystal
_audit_creation_method	'MofGen! by Chris Wilmer'
_symmetry_space_group_name_H-M	'P1'
_symmetry_Int_Tables_number	1
_symmetry_cell_setting	triclinic
loop_
_symmetry_equiv_pos_as_xyz
  x,y,z
_cell_length_a	21.295419
_cell_length_b	21.295416
_cell_length_c	21.295411
_cell_angle_alpha	90.019171
_cell_angle_beta	90.025287
_cell_angle_gamma	90.046890
loop_
_atom_site_label
_atom_site_type_symbol
_atom_site_fract_x
_atom_site_fract_y
_atom_site_fract_z
Zn1	Zn	-0.962356	0.250403	-0.355935
Zn2	Zn	-0.962259	0.355655	-0.250664
Zn3	Zn	-0.857080	0.250434	-0.250678
Zn4	Zn	-0.857049	0.355669	-0.355895
O5	O	-0.909686	0.303040	-0.303293
O6	O	-1.050433	0.264346	-0.341981
O7	O	-0.948279	0.341704	-0.162577
O8	O	-0.871098	0.162340	-0.264663
O9	O	-1.050361	0.341674	-0.264640
O10	O	-0.948444	0.162317	-0.341994
O11	O	-0.871004	0.264399	-0.162587
O12	O	-0.768986	0.264412	-0.264625
O13	O	-0.871046	0.341698	-0.443990
O14	O	-0.768964	0.341728	-0.341927
O15	O	-0.948415	0.264359	-0.444019
O16	O	-0.948249	0.443746	-0.264601
O17	O	-0.870952	0.443756	-0.341913
C18	C	-0.746134	0.303075	-0.303273
C19	C	-0.676166	0.303105	-0.303280
C20	C	-0.643359	0.262907	-0.343613
C21	C	-0.577617	0.262893	-0.343615
C22	C	-0.544684	0.303087	-0.303289
C23	C	-0.577499	0.343288	-0.262948
C24	C	-0.643240	0.343297	-0.262943
N25	N	-0.441409	0.358167	-0.298371
N26	N	-0.378957	0.358157	-0.298379
C27	C	-0.346609	0.303060	-0.303301
N28	N	-0.379072	0.247974	-0.308226
N29	N	-0.441529	0.247985	-0.308221
C30	C	-0.473398	0.303081	-0.303290
C31	C	-0.242517	0.262843	-0.343638
C32	C	-0.176773	0.262827	-0.343635
C33	C	-0.176656	0.343228	-0.262972
C34	C	-0.242398	0.343238	-0.262971
C35	C	-0.275325	0.303046	-0.303308
C36	C	-0.909604	0.466592	-0.303265
C37	C	-0.909627	0.536560	-0.303274
C38	C	-0.073876	0.303013	-0.303310
C39	C	-0.143844	0.303021	-0.303309
C40	C	-0.949911	0.569400	-0.263061
C41	C	-0.949941	0.635143	-0.263078
C42	C	-0.909675	0.668042	-0.303302
C43	C	-0.869387	0.635194	-0.343523
C44	C	-0.869363	0.569453	-0.343510
N45	N	-0.854608	0.771325	-0.308098
N46	N	-0.854633	0.833776	-0.308108
C47	C	-0.909746	0.866117	-0.303346
N48	N	-0.964835	0.833647	-0.298563
N49	N	-0.964809	0.771190	-0.298550
C50	C	-0.909697	0.739327	-0.303321
C51	C	-0.950066	0.970243	-0.263149
C52	C	-0.950097	1.035986	-0.263170
C53	C	-0.869538	1.036036	-0.343613
C54	C	-0.869513	0.970294	-0.343595
C55	C	-0.909776	0.937401	-0.303359
C56	C	-0.909738	0.303027	-0.467483
C57	C	-0.909761	0.303021	-0.537451
C58	C	-0.909786	1.138850	-0.303346
C59	C	-0.909831	1.068881	-0.303396
C60	C	-0.950045	0.262749	-0.570334
C61	C	-0.950044	0.262722	-0.636077
C62	C	-0.909765	0.302978	-0.668934
C63	C	-0.869473	0.343252	-0.636043
C64	C	-0.869471	0.343274	-0.570302
N65	N	-0.904909	0.358047	-0.772152
N66	N	-0.904915	0.358024	-0.834603
C67	C	-0.909769	0.302914	-0.867009
N68	N	-0.914630	0.247825	-0.834604
N69	N	-0.914627	0.247848	-0.772147
C70	C	-0.909763	0.302958	-0.740219
C71	C	-0.950055	0.262609	-0.971177
C72	C	-0.950049	0.262581	-1.036921
C73	C	-0.869482	0.343117	-1.036886
C74	C	-0.869484	0.343139	-0.971144
C75	C	-0.909774	0.302886	-0.938293
C76	C	-0.909670	0.303008	-0.139741
C77	C	-0.909770	0.302836	-0.069774
H78	H	-0.269327	0.230113	-0.376478
H79	H	-0.982857	0.229829	-0.944429
H80	H	-0.149843	0.375954	-0.230138
N81	N	-0.828202	0.535902	-0.384579
N82	N	-0.788085	0.499280	-0.362384
H83	H	-0.759013	0.475584	-0.391388
H84	H	-0.836604	0.661985	-0.376275
N85	N	-0.991200	0.221433	-1.070503
N86	N	-1.027166	0.185498	-1.041161
H87	H	-1.056230	0.156436	-1.064878
H88	H	-0.982697	0.542621	-0.230300
N89	N	-0.676755	0.384353	-0.221735
N90	N	-0.669391	0.380088	-0.163657
H91	H	-0.693062	0.409084	-0.134553
N92	N	-0.991194	0.221575	-0.669666
N93	N	-1.027159	0.185635	-0.640327
H94	H	-1.056221	0.156574	-0.664047
H95	H	-0.836681	0.375887	-1.063638
H96	H	-0.982853	0.943460	-0.230389
H97	H	-0.836677	0.376027	-0.662800
H98	H	-0.150063	0.230089	-0.376479
H99	H	-0.836684	0.375937	-0.944370
H100	H	-0.982905	1.062724	-0.230425
H101	H	-0.982747	0.661887	-0.230331
H102	H	-0.836755	1.062823	-0.376367
N103	N	-0.828357	0.936754	-0.384676
N104	N	-0.792410	0.966133	-0.420590
H105	H	-0.763343	0.942447	-0.449608
N106	N	-0.991194	0.221619	-0.536792
N107	N	-0.987055	0.163532	-0.544139
H108	H	-1.016117	0.134482	-0.520450
N109	N	-0.676982	0.221853	-0.384821
N110	N	-0.647676	0.185965	-0.420832
H111	H	-0.671423	0.156969	-0.449936
N112	N	-0.828314	0.384415	-0.536719
N113	N	-0.792348	0.420351	-0.566060
H114	H	-0.763280	0.449408	-0.542341
H115	H	-0.550900	0.230155	-0.376458
H116	H	-0.269110	0.375974	-0.230130
H117	H	-0.550680	0.376013	-0.230114
