data_functionalizedCrystal
_audit_creation_method	'MofGen! by Chris Wilmer'
_symmetry_space_group_name_H-M	'P1'
_symmetry_Int_Tables_number	1
_symmetry_cell_setting	triclinic
loop_
_symmetry_equiv_pos_as_xyz
  x,y,z
_cell_length_a	6.817900
_cell_length_b	17.982959
_cell_length_c	12.200875
_cell_angle_alpha	94.640534
_cell_angle_beta	107.143593
_cell_angle_gamma	102.451857
loop_
_atom_site_label
_atom_site_type_symbol
_atom_site_fract_x
_atom_site_fract_y
_atom_site_fract_z
V1	V	-4.063264	-0.105586	-0.358141
O2	O	-4.055274	0.004896	-0.350830
O3	O	-4.009540	-0.209188	-0.356165
O4	O	-4.033062	-0.104040	-0.514122
O5	O	-4.031589	-0.100980	-0.191780
V6	V	-4.545224	-0.092362	-0.338185
O7	O	-4.327951	-0.134594	-0.401915
O8	O	-4.730735	-0.063354	-0.294411
O9	O	-4.375743	0.011240	-0.340160
O10	O	-4.670612	-0.202843	-0.345496
O11	O	-4.694297	-0.096968	-0.504546
O12	O	-4.352221	-0.093908	-0.182204
C13	C	-3.852656	-0.234441	-0.350638
C14	C	-3.890138	-0.319137	-0.350063
C15	C	-4.090333	-0.362811	-0.355532
C16	C	-4.125543	-0.442393	-0.354998
C17	C	-3.960550	-0.478299	-0.348987
C18	C	-3.760340	-0.434619	-0.343520
C19	C	-3.725137	-0.355040	-0.344063
C20	C	-3.902305	-0.755554	-0.341335
C21	C	-3.937523	-0.835139	-0.340790
C22	C	-4.302711	-0.842907	-0.352271
C23	C	-4.267508	-0.763328	-0.352813
C24	C	-4.067305	-0.719656	-0.347353
C25	C	-4.029130	-0.633365	-0.347934
C26	C	-3.998718	-0.564587	-0.348397
C27	C	-3.882660	-0.100314	-0.552126
C28	C	-3.939214	-0.099735	-0.679644
C29	C	-4.042716	-0.098677	-0.913114
C30	C	-3.985112	-0.099265	-0.783195
C31	C	-4.195968	0.036490	-0.345685
C32	C	-4.137725	0.121185	-0.346268
C33	C	-4.165964	-0.097636	-0.144194
C34	C	-4.088648	-0.098211	-0.016674
H35	H	-3.739290	-0.720005	-0.336883
O36	O	-3.600271	-0.469612	-0.337636
C37	C	-3.492676	-0.588769	-0.331777
C38	C	-3.674134	-0.549238	-0.338422
H39	H	-3.552341	-0.653155	-0.332435
H40	H	-3.355826	-0.562866	-0.248344
H41	H	-3.435552	-0.579552	-0.409725
H42	H	-3.731438	-0.558441	-0.260534
H43	H	-3.810860	-0.575147	-0.421904
H44	H	-3.562122	-0.319482	-0.339614
O45	O	-3.777208	-0.870033	-0.334754
C46	C	-3.555743	-0.945023	-0.227632
C47	C	-3.737271	-0.905524	-0.234313
H48	H	-3.523427	-0.973742	-0.146445
H49	H	-3.406504	-0.900166	-0.223749
H50	H	-3.603016	-0.990452	-0.307818
H51	H	-3.690201	-0.860100	-0.154148
H52	H	-3.886463	-0.950427	-0.238254
O53	O	-4.250525	-0.327867	-0.361520
C54	C	-4.472187	-0.252965	-0.468720
C55	C	-4.290705	-0.292485	-0.462063
H56	H	-4.504759	-0.224363	-0.550016
H57	H	-4.425008	-0.207466	-0.388627
H58	H	-4.621262	-0.297863	-0.472482
H59	H	-4.141560	-0.247644	-0.458338
H60	H	-4.338062	-0.337999	-0.542155
O61	O	-4.497367	-0.885268	-0.357745
C62	C	-4.869617	-0.926682	-0.467306
C63	C	-4.649315	-0.878667	-0.461247
H64	H	-4.992519	-0.921374	-0.550992
H65	H	-4.913021	-0.904553	-0.389610
H66	H	-4.866369	-0.989717	-0.465833
H67	H	-4.652396	-0.815622	-0.462755
H68	H	-4.605997	-0.900859	-0.538938
H69	H	-4.401863	-0.734097	-0.357702
H70	H	-4.288559	-0.477949	-0.359453
