data_functionalizedCrystal
_audit_creation_method	'MofGen! by Chris Wilmer'
_symmetry_space_group_name_H-M	'P1'
_symmetry_Int_Tables_number	1
_symmetry_cell_setting	triclinic
loop_
_symmetry_equiv_pos_as_xyz
  x,y,z
_cell_length_a	10.654550
_cell_length_b	13.339070
_cell_length_c	9.130313
_cell_angle_alpha	89.997998
_cell_angle_beta	89.999724
_cell_angle_gamma	100.057112
loop_
_atom_site_label
_atom_site_type_symbol
_atom_site_fract_x
_atom_site_fract_y
_atom_site_fract_z
O1	O	1.715933	0.142435	-0.121681
O2	O	1.355037	0.156005	-0.121708
O3	O	1.494066	0.001665	-0.121693
O4	O	1.576904	0.296774	-0.121696
O5	O	1.494051	0.001661	0.121906
O6	O	1.355022	0.156000	0.121891
O7	O	1.715918	0.142430	0.121917
Cu8	Cu	1.535469	0.149215	0.144147
Cu9	Cu	1.535486	0.149220	-0.143937
O10	O	1.576889	0.296769	0.121903
C11	C	1.307895	0.155006	0.000088
C12	C	1.167445	0.152025	0.000078
C13	C	1.118643	0.242897	0.000082
C14	C	0.986674	0.240090	0.000107
C15	C	0.952320	0.055530	0.000120
C16	C	1.084286	0.058338	0.000105
C17	C	1.480065	-0.036124	0.000103
C18	C	1.438355	-0.148719	0.000094
C19	C	1.762670	-0.511236	0.000119
C20	C	1.801862	-0.405448	0.000135
C21	C	1.710989	-0.341261	0.000124
C22	C	1.580916	-0.382871	0.000098
C23	C	1.541720	-0.488669	0.000093
C24	C	1.490039	-0.318694	0.000099
C25	C	1.359966	-0.360304	0.000073
C26	C	1.320776	-0.466092	0.000066
C27	C	1.411650	-0.530280	0.000077
C28	C	1.529235	-0.212896	0.000104
C29	C	1.308285	-0.190329	0.000078
C30	C	1.269093	-0.296117	0.000062
C31	C	1.763060	0.143429	0.000118
C32	C	1.903510	0.146410	0.000119
C33	C	1.590890	0.334559	0.000103
C34	C	1.632600	0.447153	0.000103
N35	N	1.535465	0.149210	0.346770
N36	N	1.535497	0.149216	-0.346560
C37	C	1.597066	0.080898	0.423428
C38	C	1.597078	0.080898	0.576765
C39	C	1.473888	0.217532	0.576771
C40	C	1.473869	0.217526	0.423437
H41	H	1.635141	-0.179028	0.000126
O42	O	1.142795	-0.336711	0.000110
C43	C	0.984507	-0.489694	-0.000004
C44	C	1.127576	-0.443857	-0.000024
H45	H	0.972156	-0.576327	-0.000143
H46	H	0.937676	-0.463411	0.101961
H47	H	0.937766	-0.463265	-0.101930
H48	H	1.174427	-0.470264	0.101834
H49	H	1.174313	-0.470135	-0.102056
O50	O	1.749274	-0.238521	0.000066
C51	C	1.926752	-0.099090	0.000174
C52	C	1.883563	-0.215463	0.000216
H53	H	2.035327	-0.080411	0.000327
H54	H	1.888540	-0.065318	-0.101806
H55	H	1.888347	-0.065385	0.102085
H56	H	1.921952	-0.249256	-0.101626
H57	H	1.921759	-0.249162	0.102264
H58	H	0.946947	0.314088	0.000113
H59	H	1.647220	0.025270	0.361008
O60	O	1.657029	0.014504	0.651003
C61	C	1.779154	-0.121057	0.634804
C62	C	1.711334	-0.045899	0.550549
H63	H	1.823054	-0.169927	0.553624
H64	H	1.857377	-0.076851	0.706539
H65	H	1.707148	-0.172083	0.706643
H66	H	1.783243	0.005145	0.478631
H67	H	1.633089	-0.090169	0.478906
H68	H	1.907767	-0.371577	0.000159
O69	O	1.413854	0.283791	0.651188
C70	C	1.215648	0.341608	0.698073
C71	C	1.283471	0.266494	0.613734
H72	H	1.110228	0.327663	0.667799
H73	H	1.226137	0.329878	0.820850
H74	H	1.260404	0.422948	0.667929
H75	H	1.238762	0.185124	0.643755
H76	H	1.272991	0.278313	0.490977
H77	H	1.234288	-0.138067	0.000077
O78	O	1.414202	0.284032	0.349030
C79	C	1.401792	0.459810	0.302158
C80	C	1.469495	0.384613	0.386487
H81	H	1.446451	0.541146	0.332434
H82	H	1.412384	0.448157	0.179379
H83	H	1.296343	0.445787	0.332307
H84	H	1.574965	0.398591	0.356461
H85	H	1.458798	0.396284	0.509245
H86	H	1.186348	0.319183	0.000071
H87	H	1.124020	-0.015666	0.000106
H88	H	1.836644	-0.563506	0.000139
H89	H	0.884597	-0.020746	0.000150
H90	H	1.379745	-0.616422	0.000058
H91	H	1.214863	-0.499968	0.000056
