data_functionalizedCrystal
_audit_creation_method	'MofGen! by Chris Wilmer'
_symmetry_space_group_name_H-M	'P1'
_symmetry_Int_Tables_number	1
_symmetry_cell_setting	triclinic
loop_
_symmetry_equiv_pos_as_xyz
  x,y,z
_cell_length_a	10.654553
_cell_length_b	12.811415
_cell_length_c	9.130313
_cell_angle_alpha	84.567879
_cell_angle_beta	89.999282
_cell_angle_gamma	84.263719
loop_
_atom_site_label
_atom_site_type_symbol
_atom_site_fract_x
_atom_site_fract_y
_atom_site_fract_z
O1	O	1.667065	0.147437	-0.141396
O2	O	1.301514	0.161479	-0.143260
O3	O	1.493487	0.001733	-0.122036
O4	O	1.475093	0.307183	-0.162620
O5	O	1.493484	0.001737	0.121562
O6	O	1.301512	0.161483	0.100338
O7	O	1.667063	0.147441	0.102202
Cu8	Cu	1.484287	0.154463	0.123513
Cu9	Cu	1.484290	0.154457	-0.164570
O10	O	1.475090	0.307187	0.080978
C11	C	1.254720	0.160449	-0.021324
C12	C	1.115293	0.157363	-0.020913
C13	C	0.918775	0.153008	0.112441
C14	C	1.049780	0.155914	0.112063
C15	C	1.049793	0.155915	-0.153522
C16	C	0.918788	0.153016	-0.153144
C17	C	0.918769	0.153002	0.265775
C18	C	1.049775	0.155909	0.265397
C19	C	1.492455	-0.037376	0.004957
C20	C	1.489369	-0.153917	0.020432
C21	C	1.483550	-0.372901	-0.216091
C22	C	1.480651	-0.482401	-0.201558
C23	C	1.480661	-0.482417	0.064029
C24	C	1.483561	-0.372918	0.049496
C25	C	1.485007	-0.318164	-0.090568
C26	C	1.487916	-0.208663	-0.105100
C27	C	1.487917	-0.208680	0.160486
C28	C	1.485018	-0.318180	0.175019
C29	C	1.713857	0.148471	-0.019737
C30	C	1.853284	0.151557	-0.020157
C31	C	1.476122	0.346296	-0.046018
C32	C	1.479208	0.462837	-0.061502
N33	N	1.484294	0.154466	0.326135
N34	N	1.484293	0.154446	-0.367192
C35	C	1.569322	0.083754	0.412182
C36	C	1.569318	0.083742	0.565520
C37	C	1.399256	0.225161	0.546750
C38	C	1.399255	0.225168	0.393416
C39	C	1.667509	0.002110	0.423019
C40	C	1.667506	0.002097	0.576358
H41	H	0.889594	0.076450	0.323518
H42	H	1.646486	-0.078568	0.392118
H43	H	1.489109	-0.164101	0.262695
H44	H	1.758560	0.027675	0.372064
H45	H	1.489097	-0.164084	-0.219148
H46	H	1.330008	0.282737	0.323358
O47	O	1.316605	0.293696	0.612292
C48	C	1.238822	0.236868	0.708498
H49	H	1.288419	0.155120	0.742315
H50	H	1.219178	0.280516	0.810532
H51	H	1.145974	0.229016	0.650444
H52	H	1.479473	-0.527016	0.178063
O53	O	1.105610	0.069345	0.346918
C54	C	1.188002	0.010629	0.257459
H55	H	1.217280	0.064326	0.159325
H56	H	1.275330	-0.024037	0.324118
H57	H	1.138022	-0.055881	0.216598
O58	O	1.484903	-0.319864	-0.352250
C59	C	1.483037	-0.391664	-0.459927
H60	H	1.441256	-0.465667	-0.411182
H61	H	1.422981	-0.353799	-0.557827
H62	H	1.583363	-0.413584	-0.497843
H63	H	1.078941	0.232466	0.302806
O64	O	1.483449	-0.371473	0.310988
C65	C	1.373123	-0.423697	0.325901
H66	H	1.336454	-0.436392	0.212300
H67	H	1.395525	-0.503198	0.392646
H68	H	1.298178	-0.373734	0.384817
H69	H	0.872108	0.225538	0.315013
H70	H	1.479459	-0.526964	-0.303771
O71	O	1.631432	-0.088859	0.644988
C72	C	1.508273	-0.102436	0.598995
H73	H	1.487329	-0.055958	0.487486
H74	H	1.500369	-0.189601	0.589264
H75	H	1.437534	-0.072728	0.683041
H76	H	1.763924	0.020082	0.615584
H77	H	1.103142	0.157105	-0.261795
O78	O	0.855370	0.151572	-0.282075
C79	C	0.941278	0.153506	-0.399529
H80	H	1.039686	0.122399	-0.356465
H81	H	0.911138	0.101803	-0.485541
H82	H	0.942478	0.237875	-0.451558
