data_functionalizedCrystal
_audit_creation_method	'MofGen! by Chris Wilmer'
_symmetry_space_group_name_H-M	'P1'
_symmetry_Int_Tables_number	1
_symmetry_cell_setting	triclinic
loop_
_symmetry_equiv_pos_as_xyz
  x,y,z
_cell_length_a	14.908571
_cell_length_b	19.805405
_cell_length_c	19.805399
_cell_angle_alpha	90.029301
_cell_angle_beta	86.688856
_cell_angle_gamma	93.277652
loop_
_atom_site_label
_atom_site_type_symbol
_atom_site_fract_x
_atom_site_fract_y
_atom_site_fract_z
Zn1	Zn	1.379162	0.329282	-0.442290
Zn2	Zn	1.379049	0.442466	-0.329094
Zn3	Zn	1.228302	0.322759	-0.322598
Zn4	Zn	1.228253	0.435891	-0.435726
O5	O	1.303691	0.382600	-0.382427
O6	O	1.505391	0.349778	-0.432740
O7	O	1.359025	0.426608	-0.233514
O8	O	1.248381	0.228911	-0.338504
O9	O	1.505308	0.432933	-0.349575
O10	O	1.359218	0.233703	-0.426441
O11	O	1.248271	0.338660	-0.228742
O12	O	1.102051	0.332285	-0.332139
O13	O	1.248298	0.421727	-0.531315
O14	O	1.102015	0.415402	-0.415254
O15	O	1.359171	0.343402	-0.536137
O16	O	1.358977	0.536307	-0.343210
O17	O	1.248188	0.531477	-0.421553
C18	C	1.069299	0.372423	-0.372280
C19	C	0.969025	0.368085	-0.367954
C20	C	1.303590	0.558451	-0.382390
C21	C	1.303629	0.633685	-0.382400
C22	C	1.303742	0.382559	-0.558972
C23	C	1.303764	0.382542	-0.634205
C24	C	0.780611	0.446620	-0.446258
C25	C	0.686394	0.442546	-0.442197
C26	C	0.686374	0.355863	-0.355774
C27	C	0.780591	0.359936	-0.359835
C28	C	0.827706	0.405317	-0.405078
C29	C	0.921924	0.409393	-0.409136
C30	C	0.921902	0.322706	-0.322717
C31	C	0.827685	0.318633	-0.318656
C32	C	1.538999	0.392816	-0.392614
C33	C	1.639273	0.397170	-0.396956
C34	C	1.303818	0.206062	-0.382480
C35	C	1.303872	0.130833	-0.382503
C36	C	1.361373	0.671524	-0.341655
C37	C	1.361411	0.742214	-0.341672
C38	C	1.303700	0.775063	-0.382430
C39	C	1.245954	0.737219	-0.423180
C40	C	1.245921	0.666531	-0.423167
C41	C	1.246087	1.022298	-0.423236
C42	C	1.246123	1.092992	-0.423245
C43	C	1.361577	1.097982	-0.341741
C44	C	1.361544	1.027293	-0.341727
C45	C	1.303802	0.989455	-0.382480
C46	C	1.303762	0.912805	-0.382462
C47	C	1.303735	0.851712	-0.382445
C48	C	1.361496	0.341756	-0.672061
C49	C	1.361505	0.341737	-0.742750
C50	C	1.303786	0.382507	-0.775582
C51	C	1.246047	0.423295	-0.737720
C52	C	1.246034	0.423310	-0.667032
C53	C	1.246098	0.423234	-1.022796
C54	C	1.246117	0.423217	-1.093489
C55	C	1.361569	0.341661	-1.098514
C56	C	1.361556	0.341676	-1.027826
C57	C	1.303814	0.382460	-0.989970
C58	C	1.303804	0.382480	-0.913321
C59	C	1.303800	0.382492	-0.852229
C60	C	1.303693	0.382593	-0.206571
C61	C	1.303846	0.382427	-0.131346
H62	H	0.960283	0.446345	-0.445974
H63	H	1.198969	0.763971	-0.456370
H64	H	0.818972	0.483574	-0.483093
H65	H	0.648053	0.476178	-0.475731
Cl66	Cl	0.768447	0.261584	-0.261785
H67	H	1.199013	0.456515	-0.636210
Cl68	Cl	0.627129	0.298808	-0.298913
Cl69	Cl	1.173494	0.974739	-0.474466
H70	H	0.960256	0.289076	-0.289184
Cl71	Cl	1.434067	0.290502	-0.630795
Cl72	Cl	1.433922	0.630235	-0.290408
Cl73	Cl	1.434010	0.789781	-0.290449
Cl74	Cl	1.434098	0.986001	-0.290486
H75	H	1.408598	1.128798	-0.308561
Cl76	Cl	1.173328	0.618961	-0.474394
Cl77	Cl	1.173568	1.134287	-0.474490
H78	H	1.408519	0.308526	-0.773570
Cl79	Cl	1.434123	0.290421	-0.986556
Cl80	Cl	1.434157	0.290385	-1.146108
Cl81	Cl	1.173549	0.474475	-1.134761
Cl82	Cl	1.173508	0.474507	-0.975215
H83	H	1.199048	0.456489	-0.764457
