data_functionalizedCrystal
_audit_creation_method	'MofGen! by Chris Wilmer'
_symmetry_space_group_name_H-M	'P1'
_symmetry_Int_Tables_number	1
_symmetry_cell_setting	triclinic
loop_
_symmetry_equiv_pos_as_xyz
  x,y,z
_cell_length_a	15.944480
_cell_length_b	16.098687
_cell_length_c	15.944564
_cell_angle_alpha	87.267012
_cell_angle_beta	83.486891
_cell_angle_gamma	92.723061
loop_
_atom_site_label
_atom_site_type_symbol
_atom_site_fract_x
_atom_site_fract_y
_atom_site_fract_z
O1	O	-1.110815	0.069240	-0.111800
O2	O	-0.610815	0.569240	0.388200
O3	O	-0.866257	0.069245	-0.125219
O4	O	-0.366257	0.569245	0.374781
O5	O	-0.995209	0.069234	0.003767
O6	O	-0.495209	0.569234	0.503767
O7	O	-0.981863	0.069251	-0.240786
O8	O	-0.481863	0.569251	0.259214
O9	O	-1.002702	-0.069276	0.011276
O10	O	-0.502702	0.430724	0.511276
O11	O	-0.873750	-0.069265	-0.117710
O12	O	-0.373750	0.430735	0.382290
O13	O	-1.118308	-0.069271	-0.104291
O14	O	-0.618308	0.430729	0.395709
Zn15	Zn	-0.997219	-0.091260	-0.109808
Zn16	Zn	-0.497219	0.408740	0.390192
Zn17	Zn	-0.987346	0.091234	-0.119702
Zn18	Zn	-0.487346	0.591234	0.380298
O19	O	-0.989356	-0.069260	-0.233277
O20	O	-0.489356	0.430740	0.266723
C21	C	-0.838709	-0.000009	-0.120918
C22	C	-0.338709	0.499991	0.379082
C23	C	-0.745460	-0.000007	-0.119279
C24	C	-0.245460	0.499993	0.380721
C25	C	-0.509701	-0.000000	-0.195210
C26	C	-0.009701	0.500000	0.304790
C27	C	-0.462836	-0.068299	-0.150569
C28	C	0.037164	0.431701	0.349431
C29	C	-0.574737	-0.000008	-0.116243
C30	C	-0.074737	0.499992	0.383757
C31	C	-0.455453	0.068261	-0.157954
C32	C	0.044547	0.568261	0.342046
C33	C	-0.409826	-0.000005	-0.113316
C34	C	0.090174	0.499995	0.386684
C35	C	-0.529103	-0.068363	-0.071620
C36	C	-0.029103	0.431637	0.428380
C37	C	-0.521720	0.068259	-0.079020
C38	C	-0.021720	0.568259	0.420980
C39	C	-0.474888	-0.000057	-0.034320
C40	C	0.025112	0.499943	0.465680
C41	C	-0.669738	-0.000010	-0.117931
C42	C	-0.169738	0.499990	0.382069
C43	C	-0.314829	-0.000009	-0.111621
C44	C	0.185171	0.499991	0.388379
N45	N	-1.003962	-0.215807	-0.103056
N46	N	-0.503962	0.284193	0.396944
C47	C	-1.035352	-0.740617	-0.071722
C48	C	-0.535352	-0.240617	0.428278
C49	C	-1.030615	-0.653429	-0.076456
C50	C	-0.530615	-0.153429	0.423544
C51	C	-0.971130	-0.609845	-0.135913
C52	C	-0.471130	-0.109845	0.364087
C53	C	-0.916385	-0.653454	-0.190644
C54	C	-0.416385	-0.153454	0.309356
C55	C	-0.921127	-0.740640	-0.185914
C56	C	-0.421127	-0.240640	0.314086
C57	C	-0.953959	-0.346601	-0.153057
C58	C	-0.453959	0.153399	0.346943
C59	C	-0.949220	-0.259409	-0.157782
C60	C	-0.449220	0.240591	0.342218
C61	C	-1.063451	-0.259390	-0.043594
C62	C	-0.563451	0.240610	0.456406
C63	C	-1.068184	-0.346578	-0.038865
C64	C	-0.568184	0.153422	0.461135
C65	C	-1.013442	-0.390179	-0.093599
C66	C	-0.513442	0.109821	0.406401
C67	C	-0.966285	-0.520726	-0.140752
C68	C	-0.466285	-0.020726	0.359248
C69	C	-1.018292	-0.479297	-0.088764
C70	C	-0.518292	0.020703	0.411236
C71	C	-0.145855	-0.000013	-0.108604
C72	C	0.354145	0.499987	0.391396
C73	C	-0.239099	-0.000005	-0.110277
C74	C	0.260901	0.499995	0.389723
C75	C	-0.998400	-0.000021	0.038815
C76	C	-0.498400	0.499979	0.538815
C77	C	-0.996733	-0.000022	0.132060
C78	C	-0.496733	0.499978	0.632060
N79	N	-0.980609	0.215781	-0.126448
N80	N	-0.480609	0.715781	0.373552
C81	C	-0.912816	-0.000009	0.346893
C82	C	-0.412816	0.499991	0.846893
C83	C	-0.955471	-0.068305	0.411623
C84	C	-0.455471	0.431695	0.911623
C85	C	-0.993718	-0.000016	0.302784
C86	C	-0.493718	0.499984	0.802784
C87	C	-0.948103	0.068256	0.404203
C88	C	-0.448103	0.568256	0.904203
C89	C	-0.990799	-0.000007	0.467694
C90	C	-0.490799	0.499993	0.967694
C91	C	-1.036399	-0.068368	0.366288
C92	C	-0.536399	0.431632	0.866288
C93	C	-1.029016	0.068254	0.358858
C94	C	-0.529016	0.568254	0.858858
C95	C	-1.071731	-0.000058	0.423571
C96	C	-0.571731	0.499942	0.923571
C97	C	-0.995397	-0.000022	0.207783
C98	C	-0.495397	0.499978	0.707783
C99	C	-0.989126	-0.000007	0.562694
C100	C	-0.489126	0.499993	1.062694
C101	C	-0.986154	-0.000004	0.731674
C102	C	-0.486154	0.499996	1.231674
C103	C	-0.987786	-0.000000	0.638424
C104	C	-0.487786	0.500000	1.138424
H105	H	-0.525331	-0.000060	-0.263226
H106	H	-0.025331	0.499940	0.236774
O107	O	-0.852222	-0.606457	-0.254777
O108	O	-0.352222	-0.106457	0.245223
H109	H	-0.787660	-0.623224	-0.243135
H110	H	-0.287660	-0.123224	0.256865
O111	O	-0.914288	-0.144784	0.442399
O112	O	-0.414288	0.355216	0.942399
H113	H	-0.950340	-0.201410	0.426419
H114	H	-0.450340	0.298590	0.926419
O115	O	-0.571423	-0.144934	-0.023335
O116	O	-0.071423	0.355066	0.476665
H117	H	-0.547258	-0.201489	-0.052853
H118	H	-0.047258	0.298511	0.447147
O119	O	-0.428636	-0.144778	-0.190589
O120	O	0.071364	0.355222	0.309411
H121	H	-0.442265	-0.144634	-0.257332
H122	H	0.057735	0.355366	0.242668
O123	O	-0.454381	-0.000121	0.055843
O124	O	0.045619	0.499879	0.555843
H125	H	-0.414499	0.056592	0.064277
H126	H	0.085501	0.556592	0.564277
O127	O	-0.823880	-0.000102	0.302745
O128	O	-0.323880	0.499898	0.802745
H129	H	-0.825878	0.000481	0.233363
H130	H	-0.325878	0.500481	0.733363
H131	H	-0.423392	0.125995	-0.194449
H132	H	0.076608	0.625995	0.305551
O133	O	-1.070167	0.144731	0.328045
O134	O	-0.570167	0.644731	0.828045
H135	H	-1.033391	0.201342	0.342913
H136	H	-0.533391	0.701342	0.842913
O137	O	-0.555934	0.144737	-0.039023
O138	O	-0.055934	0.644737	0.460977
H139	H	-0.587364	0.181621	-0.085847
H140	H	-0.087364	0.681621	0.414153
H141	H	-1.073715	-0.126169	0.349440
H142	H	-0.573715	0.373831	0.849440
H143	H	-0.910750	0.125998	0.421141
H144	H	-0.410750	0.625998	0.921141
O145	O	-1.160765	-0.000041	0.467487
O146	O	-0.660765	0.499959	0.967487
H147	H	-1.158914	0.000527	0.536837
H148	H	-0.658914	0.500527	1.036837
H149	H	-1.083787	-0.776097	-0.023302
H150	H	-0.583787	-0.276097	0.476698
H151	H	-1.075191	-0.617929	-0.031894
H152	H	-0.575191	-0.117929	0.468106
H153	H	-1.108021	-0.223883	0.000968
H154	H	-0.608021	0.276117	0.500968
O155	O	-1.132359	-0.393587	0.025247
O156	O	-0.632359	0.106413	0.525247
H157	H	-1.169640	-0.348620	0.062498
H158	H	-0.669640	0.151380	0.562498
O159	O	-0.862094	-0.787674	-0.244948
O160	O	-0.362094	-0.287674	0.255052
H161	H	-0.819932	-0.742722	-0.287086
H162	H	-0.319932	-0.242722	0.212914
H163	H	-0.900777	-0.223927	-0.206201
H164	H	-0.400777	0.276073	0.293799
H165	H	-1.066728	-0.514785	-0.040357
H166	H	-0.566728	-0.014785	0.459643
O167	O	-0.894956	-0.393623	-0.212126
O168	O	-0.394956	0.106377	0.287874
H169	H	-0.852807	-0.348666	-0.254271
H170	H	-0.352807	0.151334	0.245729
H171	H	-0.917850	-0.485233	-0.189161
H172	H	-0.417850	0.014767	0.310839
