data_functionalizedCrystal
_audit_creation_method	'MofGen! by Chris Wilmer'
_symmetry_space_group_name_H-M	'P1'
_symmetry_Int_Tables_number	1
_symmetry_cell_setting	triclinic
loop_
_symmetry_equiv_pos_as_xyz
  x,y,z
_cell_length_a	17.019282
_cell_length_b	17.038272
_cell_length_c	8.140239
_cell_angle_alpha	89.996147
_cell_angle_beta	93.878502
_cell_angle_gamma	87.241387
loop_
_atom_site_label
_atom_site_type_symbol
_atom_site_fract_x
_atom_site_fract_y
_atom_site_fract_z
O1	O	1.053361	0.099546	0.012457
O2	O	0.824549	0.112258	-0.019928
O3	O	0.937595	-0.007912	-0.003915
O4	O	0.940315	0.219716	-0.003556
O5	O	0.937588	-0.007913	0.269311
O6	O	0.824542	0.112257	0.253298
O7	O	1.053355	0.099545	0.285683
Zn8	Zn	0.938947	0.105901	0.312871
Zn9	Zn	0.938956	0.105902	-0.047116
O10	O	0.940308	0.219715	0.269670
C11	C	0.795124	0.111778	0.112521
C12	C	0.707457	0.110338	0.100113
C13	C	0.666272	0.109659	0.243223
C14	C	0.583900	0.108293	0.231570
C15	C	0.542714	0.107613	0.076804
C16	C	0.583905	0.108289	-0.066317
C17	C	0.666276	0.109649	-0.054662
C18	C	0.294008	0.103502	0.034162
C19	C	0.211632	0.102144	0.022517
C20	C	0.211632	0.102147	0.320405
C21	C	0.294004	0.103511	0.332046
C22	C	0.335188	0.104184	0.188926
C23	C	0.458517	0.106219	0.064888
C24	C	0.419384	0.105571	0.200843
C25	C	0.935118	-0.037039	0.132348
C26	C	0.927738	-0.123825	0.131303
C27	C	0.995498	-0.174001	0.140895
C28	C	0.988559	-0.255545	0.139897
C29	C	0.913858	-0.286912	0.129319
C30	C	0.846093	-0.236729	0.119721
C31	C	0.853033	-0.155187	0.120707
C32	C	0.889341	-0.532647	0.125826
C33	C	0.882406	-0.614196	0.124846
C34	C	1.024872	-0.633006	0.145019
C35	C	1.031805	-0.551461	0.146014
C36	C	0.964040	-0.501286	0.136407
C37	C	0.906764	-0.370263	0.128304
C38	C	0.971135	-0.417937	0.137411
C39	C	1.082779	0.100025	0.153230
C40	C	1.170447	0.101465	0.165627
C41	C	0.942785	0.248842	0.133403
C42	C	0.950166	0.335628	0.134438
N43	N	0.938947	0.105899	0.558553
N44	N	0.938962	0.105898	-0.292798
H45	H	0.550366	0.107730	-0.192330
H46	H	1.092634	-0.525929	0.154628
Br47	Br	0.805387	-0.412839	0.113932
Br48	Br	0.761069	-0.087089	0.107675
Br49	Br	0.722172	0.110564	-0.248890
H50	H	0.785271	-0.262275	0.111097
Br51	Br	0.722158	0.110590	0.453273
Br52	Br	1.116833	-0.701104	0.158055
Br53	Br	0.349891	0.104414	-0.160075
H54	H	0.178101	0.101592	-0.103518
Br55	Br	0.781020	-0.656765	0.110505
Br56	Br	0.475280	0.106490	0.410875
H57	H	0.550371	0.107727	0.348105
Br58	Br	0.349892	0.104444	0.542093
Br59	Br	1.096882	-0.131440	0.155275
Br60	Br	1.072511	-0.375366	0.151752
H61	H	0.178091	0.101598	0.436925
H62	H	0.424975	0.105665	-0.061122
H63	H	1.043736	-0.296395	0.147712
H64	H	0.834161	-0.491804	0.118004
