data_functionalizedCrystal
_audit_creation_method	'MofGen! by Chris Wilmer'
_symmetry_space_group_name_H-M	'P1'
_symmetry_Int_Tables_number	1
_symmetry_cell_setting	triclinic
loop_
_symmetry_equiv_pos_as_xyz
  x,y,z
_cell_length_a	19.188933
_cell_length_b	19.188930
_cell_length_c	15.072220
_cell_angle_alpha	89.993728
_cell_angle_beta	89.988933
_cell_angle_gamma	83.145175
loop_
_atom_site_label
_atom_site_type_symbol
_atom_site_fract_x
_atom_site_fract_y
_atom_site_fract_z
O1	O	0.926153	0.087169	-0.073763
O2	O	0.722841	0.098902	-0.073772
O3	O	0.830364	-0.008620	-0.073750
O4	O	0.818630	0.194691	-0.073785
O5	O	0.830338	-0.008614	0.073815
O6	O	0.722815	0.098908	0.073793
O7	O	0.926126	0.087175	0.073802
Zn8	Zn	0.824466	0.093043	0.097227
Zn9	Zn	0.824501	0.093035	-0.097197
O10	O	0.818603	0.194697	0.073780
C11	C	0.696817	0.098525	0.000009
C12	C	0.619313	0.097384	0.000006
C13	C	0.829971	-0.034628	0.000035
C14	C	0.828830	-0.112132	0.000043
C15	C	0.066072	0.089235	-0.080421
C16	C	0.138896	0.090303	-0.080424
C17	C	0.175299	0.090844	0.000013
C18	C	0.138873	0.090298	0.080460
C19	C	0.066051	0.089223	0.080461
N20	N	0.284308	0.132265	0.059879
N21	N	0.353485	0.133288	0.059873
C22	C	0.394707	0.094082	0.000014
N23	N	0.364137	0.053823	-0.059851
N24	N	0.294953	0.052804	-0.059847
C25	C	0.254262	0.092009	0.000021
C26	C	0.510089	0.095781	-0.080432
C27	C	0.582915	0.096844	-0.080432
C28	C	0.582890	0.096847	0.080455
C29	C	0.510066	0.095776	0.080453
C30	C	0.473669	0.095246	0.000007
C31	C	0.891921	-0.157056	0.000050
C32	C	0.890849	-0.229880	0.000036
C33	C	0.826683	-0.257777	0.000032
C34	C	0.763584	-0.212843	0.000020
C35	C	0.764658	-0.140021	0.000025
N36	N	0.777627	-0.365780	0.050249
N37	N	0.776612	-0.434959	0.050246
C38	C	0.823445	-0.477185	0.000014
N39	N	0.871343	-0.447622	-0.050204
N40	N	0.872361	-0.378437	-0.050196
C41	C	0.825512	-0.336739	0.000026
C42	C	0.885378	-0.601073	0.000004
C43	C	0.884304	-0.673898	-0.000015
C44	C	0.757037	-0.656860	-0.000022
C45	C	0.758113	-0.584037	-0.000012
C46	C	0.822286	-0.556148	0.000006
C47	C	0.952150	0.087553	0.000019
C48	C	1.029655	0.088694	0.000016
C49	C	0.818997	0.220705	-0.000007
C50	C	0.820137	0.298210	-0.000021
N51	N	0.824448	0.093048	0.229915
N52	N	0.824525	0.093024	-0.229886
C53	C	0.824500	0.093032	0.589117
C54	C	0.766774	0.150373	0.551498
C55	C	0.766906	0.150582	0.448672
C56	C	0.824473	0.093040	0.410913
C57	C	0.897276	0.108730	0.448204
C58	C	0.896952	0.109137	0.551062
C59	C	0.810073	0.019830	0.551229
C60	C	0.808400	0.020324	0.448366
C61	C	0.824463	0.093043	0.310199
C62	C	0.824515	0.093031	0.689830
H63	H	0.036443	0.088801	-0.145926
O64	O	0.954317	-0.130082	0.000022
C65	C	1.009773	-0.185355	0.000049
H66	H	0.990359	-0.234765	-0.027894
H67	H	1.054597	-0.170269	-0.042786
H68	H	1.029208	-0.195726	0.070845
O69	O	0.949758	0.061281	0.580852
C70	C	0.996590	0.095479	0.632609
H71	H	0.968289	0.146808	0.659330
H72	H	1.016437	0.060251	0.690414
H73	H	1.042914	0.107031	0.589938
H74	H	0.168517	0.090737	0.145953
O75	O	0.174327	0.090711	-0.158542
C76	C	0.224560	0.030891	-0.163352
H77	H	0.208268	-0.011695	-0.117708
H78	H	0.228114	0.010620	-0.234499
H79	H	0.277916	0.045375	-0.141739
O80	O	0.952119	-0.273558	-0.000108
C81	C	0.955318	-0.316200	-0.076521
H82	H	0.919551	-0.289415	-0.129948
H83	H	1.011591	-0.324563	-0.102160
H84	H	0.937398	-0.369100	-0.059247
O85	O	0.777462	0.214870	0.582256
C86	C	0.725329	0.265743	0.547958
H87	H	0.677255	0.239549	0.528599
H88	H	0.710007	0.307461	0.600556
H89	H	0.746566	0.291356	0.486987
H90	H	0.711340	-0.235562	0.000015
O91	O	0.702330	0.139595	0.418496
C92	C	0.674209	0.197428	0.366755
H93	H	0.718703	0.226006	0.340359
H94	H	0.643544	0.178188	0.308727
H95	H	0.637640	0.234853	0.409337
H96	H	0.935682	-0.710475	-0.000014
O97	O	0.703304	-0.096478	0.000062
C98	C	0.646437	-0.136712	0.000028
H99	H	0.664318	-0.191124	0.027959
H100	H	0.602236	-0.109719	0.042869
H101	H	0.626771	-0.141826	-0.070769
H102	H	0.910333	0.161499	0.422426
H103	H	0.937631	-0.578365	0.000015
H104	H	0.480453	0.095347	-0.145935
O105	O	0.474583	0.095220	0.158510
C106	C	0.402501	0.094171	0.141264
H107	H	0.395524	0.071929	0.072132
H108	H	0.379356	0.059868	0.192637
H109	H	0.374335	0.149865	0.145077
O110	O	0.860199	-0.031152	0.580293
C111	C	0.828372	-0.081306	0.629442
H112	H	0.770979	-0.079509	0.609055
H113	H	0.856778	-0.135870	0.615768
H114	H	0.831623	-0.069096	0.703244
O115	O	0.696872	-0.540323	0.000109
C116	C	0.693664	-0.497710	0.076548
H117	H	0.749067	-0.494200	0.102033
H118	H	0.667494	-0.442894	0.059361
H119	H	0.661838	-0.521576	0.130059
O120	O	0.030659	0.088574	0.158579
C121	C	-0.003388	0.027508	0.163388
H122	H	0.024220	-0.014422	0.117742
H123	H	-0.001507	0.007200	0.234534
H124	H	-0.060405	0.040364	0.141777
O125	O	0.618331	0.097277	0.158537
C126	C	0.668532	0.037432	0.163366
H127	H	0.682151	0.017439	0.093527
H128	H	0.717916	0.051781	0.197412
H129	H	0.646126	-0.005315	0.203065
H130	H	0.704792	-0.679573	-0.000030
H131	H	0.712476	0.141215	0.576259
O132	O	0.777832	0.215360	0.419139
C133	C	0.778010	0.215801	0.325596
H134	H	0.747832	0.172234	0.299931
H135	H	0.751917	0.268674	0.300698
H136	H	0.834424	0.206851	0.300516
H137	H	0.758150	0.004688	0.577220
H138	H	0.612565	0.097280	-0.145936
O139	O	0.744560	0.006086	0.419145
C140	C	0.744568	0.003807	0.325645
H141	H	0.800799	-0.008072	0.300625
H142	H	0.712485	-0.039025	0.302270
H143	H	0.720429	0.056674	0.298434
O144	O	0.912254	0.172812	0.579558
C145	C	0.979048	0.184449	0.547928
H146	H	0.992497	0.150815	0.486538
H147	H	0.978660	0.242218	0.530032
H148	H	1.019995	0.169724	0.601635
H149	H	0.941248	0.068067	0.423744
H150	H	0.847730	-0.024329	0.422666
