data_functionalizedCrystal
_audit_creation_method	'MofGen! by Chris Wilmer'
_symmetry_space_group_name_H-M	'P1'
_symmetry_Int_Tables_number	1
_symmetry_cell_setting	triclinic
loop_
_symmetry_equiv_pos_as_xyz
  x,y,z
_cell_length_a	6.394989
_cell_length_b	10.723024
_cell_length_c	9.198806
_cell_angle_alpha	90.002012
_cell_angle_beta	90.003440
_cell_angle_gamma	85.482790
loop_
_atom_site_label
_atom_site_type_symbol
_atom_site_fract_x
_atom_site_fract_y
_atom_site_fract_z
O1	O	-2.774424	-0.204469	-0.120873
O2	O	-2.166443	-0.214770	-0.120879
O3	O	-2.484457	-0.028192	-0.120870
O4	O	-2.456409	-0.391047	-0.120881
O5	O	-2.484432	-0.028192	0.120915
O6	O	-2.166417	-0.214769	0.120906
O7	O	-2.774398	-0.204469	0.120912
Cu8	Cu	-2.470405	-0.209619	0.142986
Cu9	Cu	-2.470435	-0.209620	-0.142953
O10	O	-2.456384	-0.391046	0.120904
C11	C	-2.482403	0.018329	0.000020
C12	C	-2.476296	0.156948	0.000015
C13	C	-2.458438	-0.437568	0.000010
C14	C	-2.464544	-0.576187	0.000005
N15	N	-2.470400	-0.209618	0.344100
C16	C	-2.088579	-0.212733	0.000021
C17	C	-1.852255	-0.206509	0.000027
N18	N	-2.470458	-0.209611	-0.344067
C19	C	-2.654241	0.230042	0.000015
C20	C	-2.647933	0.373313	0.000010
C21	C	-2.603925	-0.130927	0.416300
C22	C	-2.603957	-0.130923	0.583713
H23	H	-2.811255	0.186554	0.000025
H24	H	-2.718211	-0.063555	0.354177
Br25	Br	-2.794520	-0.018639	0.687191
H26	H	-2.356143	-0.276990	0.593853
H27	H	-2.800267	0.436129	0.000016
Br28	Br	-2.210618	0.319131	0.000023
Br29	Br	-2.279877	-0.321897	0.447633
H30	H	-2.319282	0.200437	0.000004
