data_functionalizedCrystal
_audit_creation_method	'MofGen! by Chris Wilmer'
_symmetry_space_group_name_H-M	'P1'
_symmetry_Int_Tables_number	1
_symmetry_cell_setting	triclinic
loop_
_symmetry_equiv_pos_as_xyz
  x,y,z
_cell_length_a	25.639240
_cell_length_b	21.395362
_cell_length_c	21.395355
_cell_angle_alpha	90.043940
_cell_angle_beta	89.973484
_cell_angle_gamma	89.951367
loop_
_atom_site_label
_atom_site_type_symbol
_atom_site_fract_x
_atom_site_fract_y
_atom_site_fract_z
Zn1	Zn	-0.207990	-0.957851	-0.354551
Zn2	Zn	-0.295409	-0.957749	-0.249759
Zn3	Zn	-0.208014	-0.853066	-0.249752
Zn4	Zn	-0.295420	-0.853031	-0.354463
O5	O	-0.251708	-0.905424	-0.302131
O6	O	-0.219571	-1.045515	-0.340689
O7	O	-0.283822	-0.943835	-0.162080
O8	O	-0.134846	-0.867022	-0.263688
O9	O	-0.283798	-1.045441	-0.263699
O10	O	-0.134828	-0.944007	-0.340683
O11	O	-0.219613	-0.866924	-0.162075
O12	O	-0.219623	-0.765383	-0.263603
O13	O	-0.283817	-0.866963	-0.442153
O14	O	-0.283840	-0.765358	-0.340534
O15	O	-0.219582	-0.943974	-0.442217
O16	O	-0.368576	-0.943801	-0.263614
O17	O	-0.368584	-0.866865	-0.340540
C18	C	-0.251736	-0.742636	-0.302059
C19	C	-0.251760	-0.672995	-0.302042
C20	C	-0.387551	-0.905336	-0.302082
C21	C	-0.445665	-0.905355	-0.302082
C22	C	-0.251698	-0.905476	-0.465555
C23	C	-0.251693	-0.905498	-0.535196
C24	C	-0.805980	-0.945530	-0.342295
C25	C	-0.860585	-0.945549	-0.342308
O26	O	-0.888781	-0.979602	-0.376448
N27	N	-0.887947	-0.905511	-0.302192
C28	C	-0.860703	-0.865448	-0.262065
O29	O	-0.888991	-0.831394	-0.227945
C30	C	-0.806100	-0.865427	-0.262056
C31	C	-0.778740	-0.905471	-0.302170
C32	C	-0.778620	-0.985571	-0.382406
C33	C	-0.724020	-0.985553	-0.382392
C34	C	-0.696779	-0.945495	-0.342267
C35	C	-0.724139	-0.905454	-0.302156
C36	C	-0.778857	-0.825361	-0.221933
C37	C	-0.724250	-0.825343	-0.221928
C38	C	-0.696890	-0.865387	-0.262042
C39	C	-0.642298	-0.865377	-0.262018
N40	N	-0.614935	-0.905415	-0.302133
C41	C	-0.642176	-0.945473	-0.342258
C42	C	-0.975374	-0.865495	-0.262088
C43	C	-1.029976	-0.865518	-0.262094
C44	C	-1.029854	-0.945619	-0.342337
C45	C	-0.975250	-0.945597	-0.342328
C46	C	-0.948011	-0.905532	-0.302204
C47	C	-0.527511	-0.945433	-0.342226
C48	C	-0.472905	-0.945414	-0.342207
C49	C	-0.473033	-0.865312	-0.261966
C50	C	-0.527633	-0.865333	-0.261983
C51	C	-0.554871	-0.905396	-0.302118
O52	O	-0.614067	-0.831340	-0.227897
O53	O	-0.613881	-0.979516	-0.376378
C54	C	-0.115335	-0.905530	-0.302194
C55	C	-0.057221	-0.905575	-0.302221
C56	C	-0.251681	-1.068847	-0.302205
C57	C	-0.251669	-1.138489	-0.302236
C58	C	-0.285243	-0.640285	-0.342040
C59	C	-0.285230	-0.574850	-0.342068
C60	C	-0.251740	-0.542127	-0.302087
C61	C	-0.218252	-0.574845	-0.262086
C62	C	-0.218262	-0.640279	-0.262064
C63	C	-0.247528	-0.438402	-0.245682
C64	C	-0.247522	-0.372969	-0.245704
C65	C	-0.251706	-0.340306	-0.302156
C66	C	-0.255908	-0.373084	-0.358589
C67	C	-0.255918	-0.438518	-0.358567
C68	C	-0.251725	-0.471174	-0.302107
C69	C	-0.285176	-0.236644	-0.342188
C70	C	-0.285160	-0.171207	-0.342217
C71	C	-0.218184	-0.171203	-0.262229
C72	C	-0.218198	-0.236639	-0.262206
C73	C	-0.251697	-0.269355	-0.302184
C74	C	-0.218245	-0.945596	-0.567943
C75	C	-0.218222	-0.945595	-0.633379
C76	C	-0.251658	-0.905503	-0.666064
C77	C	-0.285108	-0.865398	-0.633309
C78	C	-0.285126	-0.865395	-0.567875
C79	C	-0.298736	-0.900525	-0.769720
C80	C	-0.298719	-0.900532	-0.835153
C81	C	-0.251602	-0.905507	-0.867885
C82	C	-0.204501	-0.910488	-0.835176
C83	C	-0.204519	-0.910486	-0.769742
C84	C	-0.251642	-0.905501	-0.737017
C85	C	-0.218127	-0.945606	-0.971585
C86	C	-0.218103	-0.945601	-1.037022
C87	C	-0.284994	-0.865407	-1.036951
C88	C	-0.285013	-0.865409	-0.971515
C89	C	-0.251580	-0.905512	-0.938836
C90	C	-0.251681	-0.905408	-0.139344
C91	C	-0.251538	-0.905508	-0.069703
H92	H	-0.450631	-0.978025	-0.374873
H93	H	-0.244119	-0.464991	-0.199709
N94	N	-0.183941	-0.986561	-1.070485
N95	N	-0.183927	-0.986557	-1.128907
H96	H	-0.159800	-1.015486	-1.152542
H97	H	-0.952977	-0.978205	-0.374993
H98	H	-0.312253	-0.832760	-0.944852
N99	N	-0.184081	-0.986544	-0.534567
N100	N	-0.150774	-0.964522	-0.498049
H101	H	-0.126644	-0.993440	-0.474475
N102	N	-0.260198	-0.339719	-0.416252
N103	N	-0.260194	-0.281296	-0.416266
H104	H	-0.263230	-0.257729	-0.456988
H105	H	-0.312450	-0.263283	-0.374744
N106	N	-0.184036	-0.541422	-0.221255
N107	N	-0.150741	-0.504976	-0.243392
H108	H	-0.126572	-0.481372	-0.214556
H109	H	-0.244104	-0.346287	-0.199753
H110	H	-0.801124	-0.792752	-0.189267
N111	N	-0.555600	-0.824450	-0.221004
N112	N	-0.586075	-0.846536	-0.181124
H113	H	-0.605828	-0.817662	-0.152185
N114	N	-0.319361	-0.137802	-0.383086
N115	N	-0.349264	-0.167024	-0.418776
H116	H	-0.373420	-0.143432	-0.447642
N117	N	-0.696426	-0.784426	-0.180930
N118	N	-0.665961	-0.806477	-0.141021
H119	H	-0.646311	-0.777582	-0.112065
H120	H	-0.337072	-0.896480	-0.861780
H121	H	-0.190914	-0.144561	-0.229679
N122	N	-1.057676	-0.986544	-0.383329
N123	N	-1.051527	-1.044359	-0.379250
H124	H	-1.071176	-1.073263	-0.408198
N125	N	-0.555328	-0.986369	-0.383210
N126	N	-0.585767	-1.026320	-0.361221
H127	H	-0.605413	-1.055234	-0.390162
H128	H	-0.190995	-0.666911	-0.229493
N129	N	-0.806431	-1.026505	-0.423394
N130	N	-0.800266	-1.084317	-0.419303
H131	H	-0.819903	-1.113234	-0.448250
N132	N	-0.445193	-0.824405	-0.220978
N133	N	-0.396441	-0.824401	-0.220976
H134	H	-0.376777	-0.795510	-0.192030
H135	H	-0.312330	-0.832753	-0.659925
N136	N	-0.319462	-0.673693	-0.382880
N137	N	-0.349354	-0.644475	-0.418592
H138	H	-0.373522	-0.668069	-0.447436
N139	N	-0.319435	-0.541438	-0.382932
N140	N	-0.349339	-0.570656	-0.418624
H141	H	-0.373497	-0.547061	-0.447484
N142	N	-0.319140	-0.824451	-1.070339
N143	N	-0.319118	-0.824454	-1.128762
H144	H	-0.343232	-0.795526	-1.152347
H145	H	-0.337094	-0.896306	-0.743075
N146	N	-0.947550	-0.824580	-0.221087
N147	N	-0.917081	-0.846630	-0.181181
H148	H	-0.897432	-0.817733	-0.152226
H149	H	-0.312363	-0.832740	-0.541212
N150	N	-0.184047	-0.986555	-0.666829
N151	N	-0.154197	-1.022353	-0.637644
H152	H	-0.130059	-1.051281	-0.661267
H153	H	-0.190936	-0.263271	-0.229632
N154	N	-0.156406	-0.915574	-0.736340
N155	N	-0.114339	-0.920019	-0.765565
H156	H	-0.080358	-0.923611	-0.741975
H157	H	-0.701746	-1.018159	-0.415058
N158	N	-0.260210	-0.471990	-0.416212
N159	N	-0.263948	-0.442826	-0.466614
H160	H	-0.266978	-0.466466	-0.507328
H161	H	-1.052248	-0.832917	-0.229422
H162	H	-0.166134	-0.914540	-0.861825
N163	N	-0.183972	-0.986569	-0.938210
N164	N	-0.154104	-1.022364	-0.967460
H165	H	-0.129981	-1.051294	-0.943891
