data_functionalizedCrystal
_audit_creation_method	'MofGen! by Chris Wilmer'
_symmetry_space_group_name_H-M	'P1'
_symmetry_Int_Tables_number	1
_symmetry_cell_setting	triclinic
loop_
_symmetry_equiv_pos_as_xyz
  x,y,z
_cell_length_a	23.096457
_cell_length_b	23.096457
_cell_length_c	14.560438
_cell_angle_alpha	60.001162
_cell_angle_beta	89.998156
_cell_angle_gamma	59.998275
loop_
_atom_site_label
_atom_site_type_symbol
_atom_site_fract_x
_atom_site_fract_y
_atom_site_fract_z
Zr1	Zr	0.557752	0.633761	-0.120539
O2	O	0.465301	0.754549	-0.267177
O3	O	0.586095	0.512971	-0.075588
O4	O	0.586093	0.633761	-0.267188
O5	O	0.465303	0.633759	0.075562
O6	O	0.681373	0.633763	-0.267193
O7	O	0.465303	0.633759	-0.075578
O8	O	0.681376	0.417691	0.075543
O9	O	0.465299	0.849830	-0.267174
O10	O	0.669287	0.562655	-0.056419
O11	O	0.598180	0.562654	0.056379
O12	O	0.598178	0.704869	-0.169204
O13	O	0.527071	0.704867	-0.056406
Zr14	Zr	0.709712	0.633763	0.120503
Zr15	Zr	0.709713	0.633763	-0.120547
Zr16	Zr	0.557751	0.633761	0.120512
Zr17	Zr	0.557749	0.785723	-0.120534
Zr18	Zr	0.709715	0.481801	0.120498
O19	O	0.681369	0.754553	0.075553
O20	O	0.681370	0.754553	-0.267189
O21	O	0.465300	0.754549	0.075565
O22	O	0.802163	0.512975	0.267141
O23	O	0.802164	0.512975	-0.075601
O24	O	0.586094	0.512971	0.267154
O25	O	0.802161	0.633765	-0.075597
O26	O	0.681371	0.633763	0.267152
O27	O	0.586091	0.633761	0.267157
O28	O	0.802161	0.633765	0.075542
O29	O	0.586088	0.849832	-0.267181
O30	O	0.681376	0.417691	0.267145
O31	O	0.802165	0.417694	0.267138
O32	O	0.802165	0.417693	0.075536
O33	O	0.465299	0.849830	-0.075571
O34	O	0.586087	0.849832	-0.075578
O35	O	0.669286	0.562655	0.169168
O36	O	0.740393	0.562656	0.056371
O37	O	0.669284	0.704870	-0.056415
O38	O	0.598177	0.704869	0.056383
C39	C	0.633736	0.443680	-0.000024
C40	C	0.633737	0.379168	-0.000025
C41	C	0.670850	-0.081350	-0.058878
C42	C	0.670849	-0.020730	-0.058889
C43	C	0.633733	0.009582	-0.000009
C44	C	0.596601	-0.020716	0.058861
C45	C	0.596598	-0.081329	0.058861
N46	N	0.638885	0.071976	0.095808
N47	N	0.638892	0.129555	0.095806
C48	C	0.633738	0.192208	-0.000006
N49	N	0.628591	0.195100	-0.095815
N50	N	0.628588	0.137513	-0.095811
C51	C	0.633731	0.075308	-0.000003
C52	C	0.670862	0.288234	-0.058891
C53	C	0.670855	0.348859	-0.058904
C54	C	0.596611	0.348866	0.058857
C55	C	0.596614	0.288248	0.058860
C56	C	0.633743	0.257933	-0.000012
C57	C	0.443652	0.633759	-0.000007
C58	C	0.379140	0.633758	-0.000003
C59	C	0.385953	0.559526	0.058859
C60	C	0.325337	0.559525	0.058864
C61	C	0.257910	0.633760	-0.000015
C62	C	0.251099	0.708001	-0.058880
C63	C	0.311715	0.708000	-0.058874
N64	N	0.135113	0.689017	-0.095840
N65	N	0.077533	0.689012	-0.095844
C66	C	0.075277	0.633767	-0.000035
N67	N	0.132781	0.578513	0.095776
N68	N	0.190367	0.578515	0.095777
C69	C	0.192178	0.633769	-0.000028
C70	C	0.016366	0.559529	0.058837
C71	C	-0.044252	0.559531	0.058845
C72	C	-0.118490	0.708009	-0.058909
C73	C	-0.057872	0.708005	-0.058906
C74	C	0.009553	0.633763	-0.000036
C75	C	0.823812	0.633765	-0.000029
C76	C	0.888324	0.633766	-0.000033
C77	C	0.633733	0.633762	-0.301535
C78	C	0.633733	0.633762	-0.403867
C79	C	0.633728	0.823844	-0.000012
C80	C	0.633727	0.888356	-0.000010
C81	C	0.670848	0.559527	-0.489224
C82	C	0.670852	0.559527	-0.393071
C83	C	0.596614	0.708002	-0.510824
C84	C	0.596616	0.708002	-0.606973
C85	C	0.707964	0.485287	-0.478419
C86	C	0.745084	0.411046	-0.371469
C87	C	0.745087	0.411046	-0.275316
C88	C	0.707970	0.485286	-0.286114
C89	C	0.633731	0.633762	0.301499
C90	C	0.633731	0.633762	0.403831
C91	C	0.823816	0.443683	-0.000035
C92	C	0.888329	0.379172	-0.000040
C93	C	0.633735	0.443680	0.301493
C94	C	0.633736	0.379168	0.403823
C95	C	0.823815	0.443683	0.301482
C96	C	0.888328	0.379172	0.403809
C97	C	0.443648	0.823841	-0.301518
C98	C	0.379136	0.888352	-0.403844
C99	C	0.443648	0.823841	-0.000001
C100	C	0.379135	0.888352	0.000004
C101	C	0.633729	0.823844	-0.301529
C102	C	0.633728	0.888356	-0.403859
C103	C	0.881508	0.348876	-0.058928
C104	C	0.942119	0.288270	-0.058956
C105	C	1.009550	0.257956	-0.000089
C106	C	1.016370	0.288257	0.058801
C107	C	0.955760	0.348867	0.058821
C108	C	0.670854	0.348873	0.510764
C109	C	0.670852	0.288265	0.606923
C110	C	0.633737	0.257950	0.596139
C111	C	0.596615	0.288251	0.489188
C112	C	0.596613	0.348861	0.393031
C113	C	0.955747	0.348878	0.392983
C114	C	1.016370	0.288271	0.489120
C115	C	1.009571	0.257956	0.596082
C116	C	0.942145	0.288256	0.606906
C117	C	0.881524	0.348866	0.510770
C118	C	0.311717	0.918654	-0.393019
C119	C	0.251094	0.979279	-0.489156
C120	C	0.257893	1.009597	-0.596118
C121	C	0.325319	0.979293	-0.606942
C122	C	0.385940	0.918673	-0.510805
C123	C	0.385956	0.918654	0.058882
C124	C	0.325345	0.979277	0.058884
C125	C	0.257914	1.009593	0.000013
C126	C	0.251094	0.979289	-0.058872
C127	C	0.311704	0.918671	-0.058879
C128	C	0.670850	0.918652	-0.393040
C129	C	0.670863	0.979260	-0.489180
C130	C	0.633749	1.009575	-0.596140
C131	C	0.596625	0.979273	-0.606957
C132	C	0.596617	0.918662	-0.510818
H133	H	0.701092	0.263553	-0.106831
N134	N	-0.191211	0.788075	-0.122410
H135	H	-0.196889	0.820533	-0.204775
H136	H	-0.196844	0.820463	-0.091431
N137	N	0.710892	0.885950	-0.277681
H138	H	0.676855	0.896498	-0.235153
H139	H	0.734412	0.914355	-0.285521
N140	N	0.304342	0.885990	-0.122386
H141	H	0.252427	0.914397	-0.159673
H142	H	0.327868	0.825144	-0.068329
N143	N	0.710894	1.011945	-0.477494
H144	H	0.705275	1.054940	-0.554622
H145	H	0.762800	0.965648	-0.434963
N146	N	0.808784	0.381563	-0.122423
H147	H	0.813671	0.353169	-0.159731
H148	H	0.782017	0.442411	-0.181607
H149	H	0.936553	0.263605	-0.106911
N150	N	0.458658	0.885975	-0.522482
H151	H	0.485477	0.896512	-0.485219
H152	H	0.453704	0.914392	-0.604851
H153	H	0.566379	0.003970	0.106799
H154	H	0.936620	0.263565	0.694007
N155	N	0.332644	1.011992	-0.722312
H156	H	0.384552	0.983601	-0.714596
H157	H	0.309108	1.072840	-0.764762
H158	H	0.196184	1.003981	-0.106803
H159	H	1.071266	0.263607	0.480287
H160	H	0.775307	0.350603	-0.362685
H161	H	0.701082	0.373528	-0.106848
N162	N	0.633769	1.074940	-0.699829
H163	H	0.662920	1.089528	-0.676734
H164	H	0.583482	1.125203	-0.746072
N165	N	0.556595	0.255538	0.477574
H166	H	0.576071	0.230381	0.435110
H167	H	0.504675	0.301808	0.435139
N168	N	0.556562	-0.114011	0.122371
H169	H	0.590606	-0.174857	0.181619
H170	H	0.519211	-0.103410	0.068301
H171	H	0.566408	1.003964	-0.694056
N172	N	0.556583	0.381555	0.122364
H173	H	0.576052	0.335310	0.204729
H174	H	0.504665	0.406718	0.091395
N175	N	0.556570	0.885996	-0.522506
H176	H	0.504648	0.932253	-0.564986
H177	H	0.562245	0.842987	-0.445344
H178	H	1.058897	0.208603	-0.000114
H179	H	0.701077	0.373549	0.519566
H180	H	0.701081	-0.106028	-0.106818
N181	N	0.458682	0.885964	0.122374
H182	H	0.464363	0.860822	0.204739
H183	H	0.464311	0.932251	0.091389
H184	H	0.330885	0.499074	0.106797
H185	H	0.208526	1.058958	-0.674389
N186	N	0.710890	0.011956	-0.122386
H187	H	0.734409	-0.016445	-0.159681
H188	H	0.748203	0.001403	-0.068317
N189	N	0.178377	0.788070	-0.122377
H190	H	0.141011	0.776807	-0.113451
H191	H	0.172765	0.820492	-0.204713
N192	N	1.089104	0.255544	0.122298
H193	H	1.094788	0.230386	0.204666
H194	H	1.094754	0.301814	0.091343
H195	H	0.440850	0.499072	0.106789
N196	N	0.556534	0.381576	0.277689
H197	H	0.533012	0.353183	0.285460
H198	H	0.590579	0.371053	0.235167
H199	H	0.330911	1.003941	0.106839
H200	H	0.961296	0.373551	0.305898
N201	N	1.074958	0.192584	0.699767
H202	H	1.118697	0.177996	0.676668
H203	H	1.074930	0.142325	0.746004
H204	H	0.566387	0.263579	0.106802
N205	N	0.192544	1.074974	0.000026
H206	H	0.207104	1.089564	0.046264
H207	H	0.163396	1.053834	0.033513
N208	N	0.963121	0.381537	0.122344
H209	H	1.015037	0.353131	0.159631
H210	H	0.939597	0.370980	0.181546
N211	N	0.808808	0.381534	0.522454
H212	H	0.813707	0.353127	0.604804
H213	H	0.782045	0.370976	0.485139
H214	H	0.306167	0.893972	-0.305934
N215	N	0.304370	0.788067	-0.122370
H216	H	0.252458	0.835097	-0.159670
H217	H	0.327904	0.791297	-0.181560
N218	N	0.710897	0.255582	0.722271
H219	H	0.691434	0.301831	0.731272
H220	H	0.762812	0.230420	0.731191
N221	N	0.089092	0.479459	0.122334
H222	H	0.084208	0.432431	0.159633
H223	H	0.115857	0.476225	0.181524
H224	H	-0.038699	0.499080	0.106786
H225	H	0.633744	0.208597	0.674446
H226	H	-0.063423	0.768453	-0.106846
H227	H	0.775317	0.350596	-0.188237
N228	N	0.708231	0.485135	-0.582003
H229	H	0.687194	0.455940	-0.582173
H230	H	0.758607	0.455950	-0.581615
H231	H	0.196199	1.003942	-0.480321
H232	H	0.707980	0.485280	-0.207816
H233	H	0.566395	0.768445	-0.519605
N234	N	0.556583	0.788067	-0.722328
H235	H	0.533066	0.835098	-0.714585
H236	H	0.519269	0.791298	-0.764783
