data_functionalizedCrystal
_audit_creation_method	'MofGen! by Chris Wilmer'
_symmetry_space_group_name_H-M	'P1'
_symmetry_Int_Tables_number	1
_symmetry_cell_setting	triclinic
loop_
_symmetry_equiv_pos_as_xyz
  x,y,z
_cell_length_a	11.792241
_cell_length_b	14.044220
_cell_length_c	10.868271
_cell_angle_alpha	89.993930
_cell_angle_beta	89.999893
_cell_angle_gamma	88.691147
loop_
_atom_site_label
_atom_site_type_symbol
_atom_site_fract_x
_atom_site_fract_y
_atom_site_fract_z
O1	O	1.519111	0.129987	-0.102206
O2	O	1.852445	0.463320	0.231128
O3	O	2.185778	0.796654	0.564461
O4	O	1.190028	0.143383	-0.102234
O5	O	1.523361	0.476717	0.231099
O6	O	1.856694	0.810050	0.564432
O7	O	1.349630	-0.001325	-0.102208
O8	O	1.682963	0.332008	0.231125
O9	O	2.016297	0.665342	0.564458
O10	O	1.359509	0.274695	-0.102232
O11	O	1.692842	0.608028	0.231102
O12	O	2.026176	0.941362	0.564435
O13	O	1.349615	-0.001331	0.102436
O14	O	1.682948	0.332003	0.435770
O15	O	2.016282	0.665336	0.769103
O16	O	1.190013	0.143378	0.102410
O17	O	1.523346	0.476711	0.435744
O18	O	1.856680	0.810044	0.769077
O19	O	1.519096	0.129981	0.102439
O20	O	1.852430	0.463315	0.435772
O21	O	2.185763	0.796648	0.769106
Zn22	Zn	1.354552	0.136679	0.134916
Zn23	Zn	1.687886	0.470012	0.468250
Zn24	Zn	2.021219	0.803345	0.801583
Zn25	Zn	1.354572	0.136686	-0.134712
Zn26	Zn	1.687905	0.470019	0.198622
Zn27	Zn	2.021238	0.803353	0.531955
O28	O	1.359494	0.274689	0.102413
O29	O	1.692827	0.608023	0.435746
O30	O	2.026161	0.941356	0.769080
C31	C	1.147650	0.142539	0.000084
C32	C	1.480984	0.475872	0.333418
C33	C	1.814317	0.809206	0.666751
C34	C	1.021400	0.140020	0.000074
C35	C	1.354734	0.473354	0.333407
C36	C	1.688067	0.806687	0.666740
C37	C	0.790253	0.135389	0.000109
C38	C	1.123587	0.468722	0.333443
C39	C	1.456920	0.802056	0.666776
C40	C	0.918880	0.137962	0.000090
C41	C	1.252213	0.471296	0.333423
C42	C	1.585547	0.804629	0.666756
C43	C	1.345298	-0.036664	0.000114
C44	C	1.678631	0.296669	0.333448
C45	C	2.011965	0.630002	0.666781
C46	C	1.332399	-0.141956	0.000115
C47	C	1.665732	0.191377	0.333448
C48	C	1.999066	0.524710	0.666781
C49	C	1.308817	-0.334739	0.000095
C50	C	1.642150	-0.001406	0.333428
C51	C	1.975484	0.331928	0.666761
C52	C	1.400302	-0.391902	0.000099
C53	C	1.733635	-0.058569	0.333432
C54	C	2.066969	0.274765	0.666766
C55	C	1.387181	-0.499173	0.000088
C56	C	1.720514	-0.165840	0.333421
C57	C	2.053847	0.167494	0.666755
C58	C	1.321937	-0.227458	0.000106
C59	C	1.655270	0.105875	0.333439
C60	C	1.988603	0.439209	0.666772
C61	C	1.561474	0.130826	0.000118
C62	C	1.894807	0.464159	0.333451
C63	C	2.228140	0.797492	0.666784
C64	C	1.687724	0.133344	0.000120
C65	C	2.021057	0.466678	0.333454
C66	C	2.354391	0.800011	0.666787
C67	C	1.363826	0.310029	0.000088
C68	C	1.697159	0.643362	0.333421
C69	C	2.030493	0.976696	0.666754
C70	C	1.376725	0.415321	0.000079
C71	C	1.710058	0.748654	0.333413
C72	C	2.043392	1.081988	0.666746
N73	N	1.354547	0.136673	0.318930
N74	N	1.687880	0.470006	0.652264
N75	N	2.021214	0.803340	0.985597
N76	N	1.354585	0.136684	-0.318726
N77	N	1.687919	0.470018	0.014607
N78	N	2.021252	0.803351	0.347941
C79	C	1.354566	0.136684	0.569937
C80	C	1.687899	0.470017	0.903270
C81	C	2.021232	0.803351	1.236603
C82	C	1.354552	0.136681	0.430259
C83	C	1.687885	0.470014	0.763592
C84	C	2.021219	0.803347	1.096926
H85	H	1.220647	-0.366361	0.000084
H86	H	1.553980	-0.033028	0.333417
H87	H	1.887314	0.300305	0.666751
H88	H	1.488479	-0.360278	0.000024
H89	H	1.821812	-0.026945	0.333358
H90	H	2.155146	0.306389	0.666691
