data_functionalizedCrystal
_audit_creation_method	'MofGen! by Chris Wilmer'
_symmetry_space_group_name_H-M	'P1'
_symmetry_Int_Tables_number	1
_symmetry_cell_setting	triclinic
loop_
_symmetry_equiv_pos_as_xyz
  x,y,z
_cell_length_a	15.944545
_cell_length_b	14.421503
_cell_length_c	14.853567
_cell_angle_alpha	89.994656
_cell_angle_beta	83.565551
_cell_angle_gamma	89.990135
loop_
_atom_site_label
_atom_site_type_symbol
_atom_site_fract_x
_atom_site_fract_y
_atom_site_fract_z
O1	O	1.114644	0.077044	0.116240
O2	O	0.870109	0.077058	0.130581
O3	O	0.998908	0.077053	-0.007828
O4	O	0.985845	0.077048	0.254649
O5	O	0.998924	-0.077170	-0.007819
O6	O	0.870125	-0.077166	0.130590
O7	O	1.114659	-0.077180	0.116249
Cu8	Cu	0.992393	-0.091254	0.123420
Cu9	Cu	0.992375	0.091133	0.123410
O10	O	0.985860	-0.077175	0.254658
C11	C	0.838822	-0.000052	0.129991
C12	C	0.745574	-0.000046	0.128209
C13	C	0.474840	-0.000054	0.037092
C14	C	0.525478	-0.076098	0.081026
C15	C	0.409923	-0.000062	0.121855
C16	C	0.525443	0.075955	0.081040
C17	C	0.574840	-0.000053	0.124972
C18	C	0.459333	-0.076168	0.165765
C19	C	0.459295	0.075952	0.165767
C20	C	0.509900	-0.000109	0.209763
C21	C	0.314919	-0.000068	0.120056
C22	C	0.669841	-0.000053	0.126777
N23	N	0.992413	-0.219536	0.123427
C24	C	1.051982	-0.469167	0.059413
C25	C	0.976063	-0.530959	0.041901
C26	C	0.992394	-0.408697	0.123416
C27	C	1.068295	-0.530999	0.140875
C28	C	0.992383	-0.591419	0.123403
C29	C	0.916436	-0.469128	0.105864
C30	C	1.008719	-0.469163	0.204873
C31	C	0.932745	-0.530927	0.187397
C32	C	0.992402	-0.303436	0.123421
C33	C	0.992366	-0.696678	0.123399
C34	C	1.145946	-0.000068	0.116839
C35	C	1.239194	-0.000067	0.118620
C36	C	0.998324	-0.000056	-0.041411
C37	C	0.996550	-0.000048	-0.141493
N38	N	0.992362	0.219414	0.123395
C39	C	0.912543	-0.000060	-0.553917
C40	C	1.065559	-0.000069	-0.575398
C41	C	1.067227	-0.000064	-0.481366
C42	C	0.991551	-0.000058	-0.423605
C43	C	0.914208	-0.000058	-0.459876
C44	C	1.144569	-0.000074	-0.445088
C45	C	1.146240	-0.000069	-0.351052
C46	C	1.070563	-0.000057	-0.293289
C47	C	0.993217	-0.000056	-0.329565
C48	C	0.917542	-0.000050	-0.271804
C49	C	0.840194	-0.000042	-0.308078
C50	C	0.838532	-0.000046	-0.402114
C51	C	1.072226	-0.000053	-0.199254
C52	C	0.919207	-0.000047	-0.177763
C53	C	0.986444	-0.000064	0.288241
C54	C	0.988218	-0.000066	0.388322
H55	H	0.430570	-0.140526	0.201540
C56	C	0.453573	-0.000141	-0.061518
C57	C	0.484635	0.079468	-0.125887
C58	C	0.463366	0.079380	-0.224495
C59	C	0.411036	-0.000317	-0.258734
C60	C	0.379971	-0.079932	-0.194363
C61	C	0.401240	-0.079844	-0.095756
H62	H	0.523375	0.138470	-0.100543
H63	H	0.486363	0.138317	-0.272146
H64	H	0.395291	-0.000382	-0.331729
H65	H	0.341230	-0.138934	-0.219708
H66	H	0.378243	-0.138781	-0.048105
C67	C	1.148800	-0.000078	-0.638929
C68	C	1.212139	0.080003	-0.634873
C69	C	1.295384	0.079995	-0.698407
C70	C	1.315291	-0.000095	-0.765997
C71	C	1.251950	-0.080182	-0.770056
C72	C	1.168704	-0.080174	-0.706521
H73	H	1.197405	0.139295	-0.584836
H74	H	1.342273	0.139281	-0.695403
H75	H	1.376914	-0.000101	-0.813029
H76	H	1.266684	-0.139475	-0.820092
H77	H	1.121815	-0.139461	-0.709526
H78	H	0.852228	-0.442066	0.091014
H79	H	0.849568	-0.000050	-0.583456
C80	C	0.957394	-0.567637	-0.051163
C81	C	1.022034	-0.630107	-0.107066
C82	C	1.003372	-0.666780	-0.200133
C83	C	0.920070	-0.640983	-0.237297
C84	C	0.855425	-0.578509	-0.181394
C85	C	0.874087	-0.541836	-0.088327
H86	H	1.083703	-0.649206	-0.079556
H87	H	1.051227	-0.713027	-0.241516
H88	H	0.906256	-0.668131	-0.306191
H89	H	0.793755	-0.559410	-0.208904
H90	H	0.826231	-0.495589	-0.046944
C91	C	1.119986	-0.432520	-0.013742
C92	C	1.132976	-0.327344	-0.026623
C93	C	1.200975	-0.290695	-0.099778
C94	C	1.255983	-0.359224	-0.160051
C95	C	1.242995	-0.464408	-0.147172
C96	C	1.174996	-0.501056	-0.074017
H97	H	1.092254	-0.276609	0.017997
H98	H	1.210589	-0.212831	-0.109312
H99	H	1.306320	-0.332095	-0.214205
H100	H	1.283717	-0.515143	-0.191791
H101	H	1.165382	-0.578920	-0.064483
C102	C	1.157297	-0.000063	-0.159349
C103	C	1.179486	-0.080147	-0.097645
C104	C	1.264561	-0.080155	-0.057740
C105	C	1.327448	-0.000080	-0.079541
C106	C	1.305261	0.080009	-0.141248
C107	C	1.220185	0.080018	-0.181152
H108	H	1.132932	-0.139429	-0.081504
H109	H	1.280986	-0.139443	-0.012060
H110	H	1.390426	-0.000087	-0.050001
H111	H	1.351815	0.139291	-0.157389
H112	H	1.203761	0.139306	-0.226832
H113	H	0.430382	0.140242	0.201529
H114	H	0.857582	-0.000039	-0.130740
H115	H	0.775560	-0.000040	-0.431657
C116	C	0.864593	-0.567341	0.260514
C117	C	0.889849	-0.628419	0.338144
C118	C	0.821697	-0.664834	0.411257
C119	C	0.728288	-0.640173	0.406740
C120	C	0.703028	-0.579092	0.329107
C121	C	0.771180	-0.542676	0.255994
H122	H	0.959000	-0.646678	0.341491
H123	H	0.840396	-0.710051	0.468726
H124	H	0.677837	-0.667130	0.460862
H125	H	0.633877	-0.560833	0.325760
H126	H	0.752481	-0.497460	0.198525
C127	C	0.756953	-0.000036	-0.244535
C128	C	0.693598	0.080054	-0.248596
C129	C	0.610360	0.080059	-0.185049
C130	C	0.590478	-0.000025	-0.117441
C131	C	0.653835	-0.080121	-0.113378
C132	C	0.737073	-0.080127	-0.176925
H133	H	0.708315	0.139342	-0.298646
H134	H	0.563460	0.139352	-0.188058
H135	H	0.528860	-0.000021	-0.070400
H136	H	0.639118	-0.139410	-0.063328
H137	H	0.783973	-0.139419	-0.173916
H138	H	1.206179	-0.000087	-0.492124
C139	C	1.027415	-0.432458	0.297912
C140	C	1.111412	-0.456834	0.334296
C141	C	1.130119	-0.420128	0.427336
C142	C	1.064828	-0.359045	0.483991
C143	C	0.980826	-0.334665	0.447608
C144	C	0.962119	-0.371371	0.354569
H145	H	1.159749	-0.502055	0.292356
H146	H	1.192303	-0.438176	0.454268
H147	H	1.078676	-0.331872	0.552865
H148	H	0.932489	-0.289444	0.489549
H149	H	0.899934	-0.353323	0.327636
H150	H	1.132488	-0.558176	0.155648
H151	H	0.554376	-0.140385	0.045232
H152	H	0.525474	-0.000155	0.282817
H153	H	0.554314	0.140239	0.045225
H154	H	1.209220	-0.000074	-0.321526
