data_functionalizedCrystal
_audit_creation_method	'MofGen! by Chris Wilmer'
_symmetry_space_group_name_H-M	'P1'
_symmetry_Int_Tables_number	1
_symmetry_cell_setting	triclinic
loop_
_symmetry_equiv_pos_as_xyz
  x,y,z
_cell_length_a	27.732048
_cell_length_b	14.519709
_cell_length_c	12.996460
_cell_angle_alpha	90.007090
_cell_angle_beta	90.000094
_cell_angle_gamma	83.161400
loop_
_atom_site_label
_atom_site_type_symbol
_atom_site_fract_x
_atom_site_fract_y
_atom_site_fract_z
O1	O	-0.641452	-0.109733	-0.085437
O2	O	-0.500739	-0.126418	-0.085468
O3	O	-0.574826	0.016228	-0.085442
O4	O	-0.567365	-0.252379	-0.085462
O5	O	-0.574818	0.016236	0.085692
O6	O	-0.500731	-0.126410	0.085666
O7	O	-0.641445	-0.109725	0.085697
Cu8	Cu	-0.571087	-0.118067	0.101307
Cu9	Cu	-0.571096	-0.118076	-0.101078
O10	O	-0.567357	-0.252371	0.085671
C11	C	-0.482726	-0.126064	0.000095
C12	C	-0.429066	-0.125009	0.000083
C13	C	-0.574475	0.050586	0.000125
C14	C	-0.573433	0.152949	0.000125
C15	C	-0.659457	-0.110079	0.000132
C16	C	-0.713117	-0.111134	0.000137
C17	C	-0.090622	-0.202664	0.000122
C18	C	0.111056	-0.198751	0.000131
O19	O	0.141972	-0.269761	0.000171
N20	N	0.130584	-0.114168	0.000136
C21	C	0.099689	-0.030557	0.000145
O22	O	0.120926	0.041476	0.000160
C23	C	-0.101988	-0.034471	0.000143
C24	C	-0.121513	-0.119060	0.000128
C25	C	-0.110148	-0.287246	0.000108
C26	C	-0.160564	-0.288223	0.000100
C27	C	-0.191455	-0.204619	0.000106
C28	C	-0.171930	-0.120037	0.000120
C29	C	-0.132882	0.049139	0.000159
C30	C	-0.183304	0.048153	0.000161
C31	C	-0.202829	-0.036436	0.000146
C32	C	-0.253238	-0.037410	0.000118
N33	N	-0.272766	-0.121993	0.000113
C34	C	-0.241875	-0.205597	0.000107
C35	C	0.205573	-0.028508	0.000144
C36	C	0.255992	-0.027530	0.000143
C37	C	0.267356	-0.195724	0.000131
C38	C	0.216936	-0.196702	0.000125
C39	C	0.186045	-0.113091	0.000139
C40	C	-0.347754	-0.207643	0.000090
C41	C	-0.398175	-0.208613	0.000077
C42	C	-0.409534	-0.040420	0.000094
C43	C	-0.359117	-0.039449	0.000101
C44	C	-0.328227	-0.123069	0.000102
O45	O	-0.284182	0.033562	0.000090
O46	O	-0.263121	-0.277620	0.000116
C47	C	-0.040206	-0.201687	0.000130
C48	C	-0.020680	-0.117105	0.000144
C49	C	-0.051571	-0.033501	0.000150
C50	C	0.029739	-0.116126	0.000142
C51	C	0.060630	-0.199731	0.000137
C52	C	0.041102	-0.284314	0.000132
C53	C	-0.009315	-0.285291	0.000124
C54	C	-0.032043	0.051082	0.000154
C55	C	0.018374	0.052053	0.000161
C56	C	0.049265	-0.031552	0.000155
C57	C	-0.567708	-0.286729	0.000102
C58	C	-0.568751	-0.389092	0.000095
N59	N	-0.571084	-0.118060	0.243654
C60	C	-0.569596	0.527778	0.000098
C61	C	-0.570662	0.423488	0.000106
C62	C	-0.571514	0.340367	0.000112
C63	C	-0.572580	0.236071	0.000118
N64	N	-0.571103	-0.118076	-0.243425
C65	C	-0.571095	-0.118077	0.663469
C66	C	-0.571091	-0.118075	0.546664
C67	C	-0.571090	-0.118069	0.453565
C68	C	-0.571085	-0.118066	0.336753
H69	H	-0.414069	-0.277498	0.000065
H70	H	0.271885	0.041351	0.000139
H71	H	0.180425	0.039581	0.000156
H72	H	-0.116994	0.118020	0.000172
H73	H	-0.343219	0.029430	0.000098
O74	O	-0.317821	-0.288954	0.000038
C75	C	-0.345876	-0.363808	0.000048
H76	H	-0.383481	-0.339838	-0.032348
H77	H	-0.349493	-0.389772	0.082144
C78	C	-0.274648	-0.472323	-0.027291
C79	C	-0.320834	-0.442884	-0.067088
H80	H	-0.259201	-0.521103	-0.068699
H81	H	-0.255747	-0.421893	-0.027293
H82	H	-0.277669	-0.493953	0.041122
H83	H	-0.317812	-0.421244	-0.135494
H84	H	-0.339735	-0.493312	-0.067099
O85	O	-0.080096	-0.368407	-0.000041
C86	C	-0.050603	-0.372891	-0.088692
H87	H	-0.047976	-0.299731	-0.118226
H88	H	-0.067239	-0.414754	-0.150762
C89	C	-0.002691	-0.509922	-0.025515
C90	C	0.000539	-0.420065	-0.061784
H91	H	0.028855	-0.539025	-0.008919
H92	H	-0.022562	-0.506904	0.034209
H93	H	-0.016556	-0.544796	-0.077246
H94	H	0.014398	-0.385190	-0.010049
H95	H	0.020413	-0.423079	-0.121499
O96	O	0.037257	0.134310	0.000219
C97	C	-0.000826	0.207885	0.000199
H98	H	-0.035100	0.182524	0.032583
H99	H	-0.007932	0.233641	-0.081899
C100	C	0.055569	0.318868	0.027559
C101	C	0.013474	0.287721	0.067342
H102	H	0.064390	0.368117	0.068971
H103	H	0.081227	0.269301	0.027569
H104	H	0.049641	0.340326	-0.040855
H105	H	0.019404	0.266254	0.135750
H106	H	-0.012183	0.337288	0.067345
O107	O	-0.213242	0.129459	0.000124
C108	C	-0.185192	0.204319	0.000162
H109	H	-0.147585	0.180357	-0.032233
H110	H	-0.181579	0.230283	0.082268
C111	C	-0.256423	0.312822	-0.027158
C112	C	-0.210234	0.283392	-0.066954
H113	H	-0.271870	0.361600	-0.068554
H114	H	-0.275321	0.262388	-0.027180
H115	H	-0.253406	0.334452	0.041262
H116	H	-0.213252	0.261752	-0.135368
H117	H	-0.191337	0.333825	-0.066945
H118	H	0.201042	-0.265581	0.000119
O119	O	-0.179447	-0.370474	0.000144
C120	C	-0.141362	-0.444045	0.000118
H121	H	-0.107091	-0.418678	0.032514
H122	H	-0.134251	-0.469808	-0.081983
C123	C	-0.197755	-0.555033	0.027444
C124	C	-0.155663	-0.523878	0.067242
H125	H	-0.206577	-0.604281	0.068845
H126	H	-0.223414	-0.505468	0.027457
H127	H	-0.191823	-0.576495	-0.040973
H128	H	-0.161597	-0.502406	0.135652
H129	H	-0.130005	-0.573442	0.067241
H130	H	0.066263	-0.352387	0.000123
O131	O	0.297437	-0.276854	0.000173
C132	C	0.346123	-0.257841	0.000148
H133	H	0.348119	-0.185427	0.032544
H134	H	0.360701	-0.261557	-0.081954
C135	C	0.374465	-0.418809	0.027474
C136	C	0.376917	-0.329872	0.067272
H137	H	0.393461	-0.463243	0.068875
H138	H	0.341664	-0.431620	0.027487
H139	H	0.386613	-0.421892	-0.040943
H140	H	0.364763	-0.326787	0.135682
H141	H	0.409716	-0.317062	0.067271
O142	O	-0.439616	0.040705	0.000149
C143	C	-0.488302	0.021693	0.000120
H144	H	-0.490298	-0.050717	0.032502
H145	H	-0.502880	0.025404	-0.081981
C146	C	-0.516643	0.182664	0.027476
C147	C	-0.519095	0.093731	0.067257
H148	H	-0.535638	0.227102	0.068885
H149	H	-0.483842	0.195474	0.027491
H150	H	-0.528790	0.185743	-0.040941
H151	H	-0.506942	0.090650	0.135667
H152	H	-0.551895	0.080922	0.067254
H153	H	-0.025207	-0.354171	0.000113
H154	H	-0.057190	0.119165	0.000161
