data_functionalizedCrystal
_audit_creation_method	'MofGen! by Chris Wilmer'
_symmetry_space_group_name_H-M	'P1'
_symmetry_Int_Tables_number	1
_symmetry_cell_setting	triclinic
loop_
_symmetry_equiv_pos_as_xyz
  x,y,z
_cell_length_a	15.698487
_cell_length_b	20.016444
_cell_length_c	20.016444
_cell_angle_alpha	90.003000
_cell_angle_beta	60.003646
_cell_angle_gamma	59.998798
loop_
_atom_site_label
_atom_site_type_symbol
_atom_site_fract_x
_atom_site_fract_y
_atom_site_fract_z
Zr1	Zr	0.932353	0.643610	-0.087623
O2	O	1.110064	0.536932	-0.194297
O3	O	0.754643	0.676312	-0.054924
O4	O	0.932345	0.676312	-0.194293
O5	O	0.932369	0.536933	0.055013
O6	O	0.932338	0.786257	-0.194288
O7	O	0.932362	0.536933	-0.054927
O8	O	0.614461	0.786258	0.055019
O9	O	1.250245	0.536932	-0.194295
O10	O	0.827733	0.772310	-0.040971
O11	O	0.827743	0.690260	0.041072
O12	O	1.036964	0.690259	-0.123018
O13	O	1.036974	0.608208	-0.040975
Zr14	Zr	0.932353	0.818960	0.087727
Zr15	Zr	0.932343	0.818960	-0.087614
Zr16	Zr	0.932364	0.643610	0.087719
Zr17	Zr	1.155926	0.643610	-0.087619
Zr18	Zr	0.708780	0.818960	0.087723
O19	O	1.110064	0.786258	0.055028
O20	O	1.110049	0.786257	-0.194285
O21	O	1.110079	0.536933	0.055016
O22	O	0.754643	0.925638	0.194401
O23	O	0.754627	0.925637	-0.054911
O24	O	0.754658	0.676313	0.194389
O25	O	0.932338	0.925637	-0.054908
O26	O	0.932362	0.786258	0.194398
O27	O	0.932369	0.676313	0.194392
O28	O	0.932345	0.925637	0.055032
O29	O	1.250237	0.676311	-0.194288
O30	O	0.614470	0.786259	0.194392
O31	O	0.614461	0.925638	0.194399
O32	O	0.614453	0.925638	0.055026
O33	O	1.250254	0.536932	-0.054921
O34	O	1.250245	0.676312	-0.054915
O35	O	0.827743	0.772311	0.123123
O36	O	0.827733	0.854361	0.041080
O37	O	1.036964	0.772310	-0.040967
O38	O	1.036974	0.690260	0.041076
C39	C	0.652698	0.731285	0.000047
C40	C	0.557785	0.731285	0.000046
C41	C	0.932367	0.731286	0.219378
C42	C	0.932371	0.731286	0.293815
C43	C	0.932340	0.950621	0.000063
C44	C	0.932335	1.025061	0.000066
C45	C	0.384002	0.731283	0.000060
C46	C	0.480707	0.731283	0.000054
C47	C	1.212009	0.731285	0.000057
C48	C	1.306922	0.731285	0.000059
C49	C	0.932367	0.511949	0.000042
C50	C	0.932371	0.437509	0.000038
C51	C	0.823133	1.239148	0.042881
C52	C	0.823138	1.309089	0.042875
C53	C	1.041582	1.223414	-0.042782
C54	C	1.041576	1.153475	-0.042780
C55	C	0.932348	1.161345	0.000056
C56	C	0.932359	1.301225	0.000048
C57	C	0.932365	1.377058	0.000041
C58	C	0.932341	1.085507	0.000062
C59	C	0.932340	0.731284	-0.219273
C60	C	0.932335	0.731284	-0.293710
C61	C	1.041574	0.688453	0.422254
C62	C	1.041569	0.688451	0.492199
C63	C	0.823124	0.774118	0.577849
C64	C	0.823131	0.774115	0.507904
C65	C	0.932359	0.731285	0.430107
C66	C	0.932348	0.731285	0.569997
C67	C	0.932341	0.731283	0.645835
C68	C	0.932366	0.731286	0.354264
C69	C	0.652684	0.950621	0.000058
C70	C	0.557767	1.025062	0.000060
C71	C	0.652711	0.731286	0.219373
C72	C	0.557803	0.731286	0.293808
C73	C	0.652698	0.950622	0.219383
C74	C	0.557785	1.025063	0.293822
C75	C	1.212009	0.511948	-0.219279
C76	C	1.306922	0.437507	-0.293718
C77	C	1.212022	0.511949	0.000047
C78	C	1.306940	0.437508	0.000045
C79	C	1.211996	0.731284	-0.219268
C80	C	1.306904	0.731283	-0.293703
C81	C	0.513193	1.017190	-0.042776
C82	C	0.424021	1.087128	-0.042791
C83	C	0.379418	1.164937	0.000036
C84	C	0.424001	1.172808	0.042873
C85	C	0.513178	1.102870	0.042883
C86	C	0.513233	0.774116	0.371601
C87	C	0.424069	0.774114	0.441547
C88	C	0.379471	0.731285	0.433699
C89	C	0.424050	0.688450	0.355898
C90	C	0.513218	0.688448	0.285954
C91	C	0.513208	1.102858	0.285954
C92	C	0.424040	1.172810	0.355891
C93	C	0.379444	1.164965	0.433695
C94	C	0.424030	1.087161	0.441561
C95	C	0.513203	1.017211	0.371625
C96	C	1.351510	0.359712	-0.285850
C97	C	1.440705	0.289760	-0.355786
C98	C	1.485305	0.297605	-0.433590
C99	C	1.440714	0.375408	-0.441457
C100	C	1.351526	0.445359	-0.371521
C101	C	1.351523	0.445380	0.042873
C102	C	1.440720	0.375442	0.042869
C103	C	1.485326	0.297633	0.000039
C104	C	1.440739	0.289762	-0.042795
C105	C	1.351549	0.359700	-0.042794
C106	C	1.351474	0.774120	-0.285829
C107	C	1.440638	0.774136	-0.355763
C108	C	1.485237	0.731310	-0.433569
C109	C	1.440658	0.688471	-0.441442
C110	C	1.351489	0.688461	-0.371509
H111	H	0.734192	1.245560	0.077759
H112	H	0.387672	1.236169	0.077741
H113	H	1.557928	0.240641	-0.490530
F114	F	0.284506	1.239365	0.000020
H115	H	1.130503	0.653571	0.485797
F116	F	0.706883	0.819701	0.516266
F117	F	1.488071	0.819728	-0.347367
H118	H	0.549486	0.953870	0.378043
F119	F	1.157824	1.215047	-0.088357
F120	F	1.488144	0.206964	-0.347397
F121	F	1.304069	0.528184	0.088459
F122	F	0.376600	1.255606	0.347501
F123	F	0.376572	0.642872	0.347559
H124	H	0.549495	0.653574	0.222614
H125	H	1.315210	0.653575	-0.377932
H126	H	0.734194	0.808991	0.641198
F127	F	0.284568	0.731295	0.508149
F128	F	1.488190	0.383745	-0.524268
H129	H	1.315223	0.508701	-0.377937
H130	H	1.477071	0.226401	-0.077665
F131	F	1.157824	1.070664	-0.088365
H132	H	1.130515	0.653576	0.358911
F133	F	1.580142	0.731326	-0.507991
H134	H	0.549508	0.953840	-0.077661
F135	F	0.284537	1.239420	0.508120
F136	F	1.488143	0.642889	-0.524256
H137	H	0.734204	1.372437	0.077747
H138	H	0.387732	1.080704	-0.077674
F139	F	0.560601	1.111260	0.088483
F140	F	1.580249	0.223205	0.000047
H141	H	0.549535	0.808993	0.378006
F142	F	0.560659	1.111226	0.203155
F143	F	0.376639	0.819709	0.524341
F144	F	0.376556	1.078825	0.524373
F145	F	1.304057	0.351344	-0.203051
F146	F	1.488153	0.383835	0.088463
H147	H	1.315252	0.353279	-0.077668
F148	F	1.304024	0.819706	-0.203028
