data_functionalizedCrystal
_audit_creation_method	'MofGen! by Chris Wilmer'
_symmetry_space_group_name_H-M	'P1'
_symmetry_Int_Tables_number	1
_symmetry_cell_setting	triclinic
loop_
_symmetry_equiv_pos_as_xyz
  x,y,z
_cell_length_a	17.038272
_cell_length_b	17.038272
_cell_length_c	16.098538
_cell_angle_alpha	87.079695
_cell_angle_beta	87.069734
_cell_angle_gamma	88.888444
loop_
_atom_site_label
_atom_site_type_symbol
_atom_site_fract_x
_atom_site_fract_y
_atom_site_fract_z
O1	O	1.052033	-0.167266	-0.069152
O2	O	0.824222	-0.164557	-0.069177
O3	O	0.936773	-0.052006	-0.069158
O4	O	0.939482	-0.279817	-0.069171
O5	O	0.930197	-0.058553	0.069354
O6	O	0.817646	-0.171104	0.069335
O7	O	1.045456	-0.173813	0.069359
Zn8	Zn	0.930507	-0.173498	0.091339
Zn9	Zn	0.939172	-0.164872	-0.091156
O10	O	0.932905	-0.286364	0.069341
C11	C	0.791641	-0.165367	0.000076
C12	C	0.704358	-0.158019	0.000067
C13	C	0.658749	-0.225482	0.000064
C14	C	0.576737	-0.218574	0.000075
C15	C	0.540335	-0.144201	0.000085
C16	C	0.585950	-0.076733	0.000090
C17	C	0.667961	-0.083642	0.000084
C18	C	0.292946	-0.119792	0.000108
C19	C	0.210929	-0.112887	0.000112
C20	C	0.201722	-0.254729	0.000098
C21	C	0.283734	-0.261632	0.000088
C22	C	0.329342	-0.194164	0.000098
C23	C	0.456505	-0.137138	0.000094
C24	C	0.413170	-0.201228	0.000094
C25	C	0.931022	-0.025987	0.000097
C26	C	0.923674	0.061297	0.000096
C27	C	1.078037	-0.173002	0.000105
C28	C	1.165320	-0.180351	0.000108
C29	C	0.938656	-0.312383	0.000083
C30	C	0.946005	-0.399666	0.000079
N31	N	0.924599	-0.179385	0.215887
C32	C	0.991137	0.106906	0.000104
C33	C	0.984229	0.188918	0.000096
C34	C	0.909856	0.225320	0.000085
C35	C	0.842388	0.179705	0.000074
C36	C	0.849297	0.097694	0.000077
C37	C	0.885446	0.472708	0.000071
C38	C	0.878541	0.554725	0.000071
C39	C	1.020383	0.563932	0.000091
C40	C	1.027286	0.481920	0.000098
C41	C	0.959818	0.436312	0.000083
C42	C	0.902792	0.309149	0.000079
C43	C	0.966882	0.352485	0.000084
N44	N	0.945085	-0.158979	-0.215705
C45	C	0.972390	-0.131633	0.259480
C46	C	0.968265	-0.135759	0.346668
C47	C	0.916352	-0.187642	0.390262
C48	C	0.868556	-0.235395	0.346663
C49	C	0.872678	-0.231265	0.259476
C50	C	0.901410	-0.202602	0.653510
C51	C	0.897294	-0.206731	0.740702
C52	C	0.997003	-0.107093	0.740702
C53	C	1.001123	-0.102971	0.653513
C54	C	0.953324	-0.150721	0.609922
C55	C	0.912136	-0.191862	0.479383
C56	C	0.957536	-0.146496	0.520803
H57	H	0.556305	-0.016177	0.000110
O58	O	0.818014	-0.285704	0.388972
C59	C	0.683262	-0.323846	0.415626
C60	C	0.740411	-0.266806	0.367675
H61	H	0.620510	-0.308598	0.398412
H62	H	0.688459	-0.318592	0.485438
H63	H	0.698523	-0.386618	0.398481
H64	H	0.725189	-0.204009	0.384750
H65	H	0.735205	-0.272128	0.297875
H66	H	0.833760	-0.270148	0.223984
O67	O	0.337272	-0.054287	0.000255
C68	C	0.431851	0.016822	0.071980
C69	C	0.381674	-0.057392	0.071931
H70	H	0.467775	0.014329	0.129915
H71	H	0.391783	0.071191	0.072035
H72	H	0.473186	0.019864	0.013984
H73	H	0.340334	-0.060510	0.129917
H74	H	0.421789	-0.111726	0.071832
H75	H	0.181294	-0.052321	0.000118
H76	H	0.869870	-0.234107	0.514884
H77	H	0.164579	-0.309658	0.000092
O78	O	0.783682	0.053502	0.000106
C79	C	0.642268	0.053022	0.000030
C80	C	0.716514	0.103161	0.000023
H81	H	0.587945	0.093151	-0.000055
H82	H	0.639145	0.011676	0.058009
H83	H	0.644758	0.017116	-0.057925
H84	H	0.714075	0.139115	0.057939
H85	H	0.719610	0.144458	-0.057994
O86	O	0.830499	0.344414	0.000184
C87	C	0.703766	0.358295	0.071955
C88	C	0.785601	0.318287	0.071934
H89	H	0.667448	0.337199	0.129968
H90	H	0.672847	0.342614	0.014026
H91	H	0.710441	0.424744	0.071911
H92	H	0.778996	0.251831	0.072008
H93	H	0.816491	0.334032	0.129858
H94	H	0.442811	-0.261782	0.000091
H95	H	1.014666	-0.089389	0.223992
H96	H	0.705095	-0.028706	0.000086
H97	H	0.426857	-0.076584	0.000125
H98	H	1.087848	0.452287	0.000107
H99	H	1.007180	-0.096876	0.382161
H100	H	1.051699	0.077274	0.000118
O101	O	1.049841	0.233103	0.000146
C102	C	1.191259	0.233583	0.000129
C103	C	1.117014	0.183449	0.000091
H104	H	1.245587	0.193460	0.000067
H105	H	1.188867	0.269455	0.058109
H106	H	1.194284	0.274962	-0.057825
H107	H	1.113941	0.142026	0.058007
H108	H	1.119436	0.147631	-0.057926
O109	O	1.085980	0.608159	-0.000015
C110	C	1.208479	0.644544	-0.071794
C111	C	1.134234	0.594402	-0.071763
H112	H	1.247505	0.633452	-0.129805
H113	H	1.242118	0.627945	-0.013863
H114	H	1.190748	0.709405	-0.071758
H115	H	1.151896	0.529528	-0.071828
H116	H	1.100613	0.611067	-0.129689
H117	H	0.539605	-0.273510	0.000072
H118	H	0.817975	0.584359	0.000075
H119	H	0.830508	0.435584	0.000059
H120	H	0.313367	-0.322194	0.000070
H121	H	0.781832	0.209350	0.000060
O122	O	1.051567	-0.052501	0.611298
C123	C	1.150061	0.045858	0.620502
C124	C	1.092952	-0.011248	0.668414
H125	H	1.183548	0.079214	0.666658
H126	H	1.115513	0.089349	0.579717
H127	H	1.193441	0.011240	0.579649
H128	H	1.049559	0.023304	0.709312
H129	H	1.127551	-0.054740	0.709145
O130	O	0.846787	-0.257142	0.782922
C131	C	0.748338	-0.355548	0.773727
C132	C	0.805488	-0.298486	0.725810
H133	H	0.714945	-0.389002	0.727573
H134	H	0.704882	-0.320967	0.814533
H135	H	0.782927	-0.398960	0.814558
H136	H	0.770965	-0.255061	0.684934
H137	H	0.848944	-0.333118	0.685057
O138	O	0.855103	-0.249033	0.611085
C139	C	0.850175	-0.350553	0.512690
C140	C	0.902709	-0.297996	0.560670
H141	H	0.888644	-0.390165	0.471931
H142	H	0.810627	-0.312134	0.471824
H143	H	0.812355	-0.388309	0.558848
H144	H	0.940577	-0.260232	0.514572
H145	H	0.942206	-0.336461	0.601548
O146	O	1.007841	-0.096028	0.478385
C147	C	1.022025	0.014836	0.380048
C148	C	0.964977	-0.042292	0.428018
H149	H	0.987391	0.058306	0.339328
H150	H	1.065443	-0.019689	0.339144
H151	H	1.055477	0.048219	0.426212
H152	H	0.931471	-0.075689	0.381914
H153	H	0.921610	-0.007723	0.468935
H154	H	0.688381	-0.286045	0.000056
H155	H	1.027437	0.322844	0.000074
H156	H	1.035918	-0.068216	0.776202
