data_functionalizedCrystal
_audit_creation_method	'MofGen! by Chris Wilmer'
_symmetry_space_group_name_H-M	'P1'
_symmetry_Int_Tables_number	1
_symmetry_cell_setting	triclinic
loop_
_symmetry_equiv_pos_as_xyz
  x,y,z
_cell_length_a	16.625539
_cell_length_b	11.169417
_cell_length_c	16.625546
_cell_angle_alpha	89.976283
_cell_angle_beta	90.030397
_cell_angle_gamma	89.983071
loop_
_atom_site_label
_atom_site_type_symbol
_atom_site_fract_x
_atom_site_fract_y
_atom_site_fract_z
Zn1	Zn	-0.455819	1.834831	0.320973
Zn2	Zn	-0.122486	2.168164	0.654307
Zn3	Zn	0.210847	2.501497	0.987640
Zn4	Zn	-0.320982	1.834686	0.455816
Zn5	Zn	0.012352	2.168020	0.789150
Zn6	Zn	0.345685	2.501353	1.122483
Zn7	Zn	-0.321008	1.634125	0.321004
Zn8	Zn	0.012325	1.967459	0.654338
Zn9	Zn	0.345658	2.300792	0.987671
Zn10	Zn	-0.455780	1.634081	0.455771
Zn11	Zn	-0.122447	1.967415	0.789104
Zn12	Zn	0.210887	2.300748	1.122437
O13	O	-0.388397	1.734431	0.388391
O14	O	-0.055064	2.067764	0.721725
O15	O	0.278269	2.401098	1.055058
O16	O	-0.437938	2.002761	0.338867
O17	O	-0.104605	2.336094	0.672200
O18	O	0.228729	2.669428	1.005533
O19	O	-0.208153	1.808040	0.437966
O20	O	0.125181	2.141373	0.771299
O21	O	0.458514	2.474706	1.104632
O22	O	-0.338919	1.660828	0.208168
O23	O	-0.005586	1.994161	0.541501
O24	O	0.327748	2.327495	0.874835
O25	O	-0.338873	2.002655	0.437935
O26	O	-0.005540	2.335989	0.771269
O27	O	0.327793	2.669322	1.104602
O28	O	-0.437964	1.808285	0.208145
O29	O	-0.104631	2.141619	0.541478
O30	O	0.228703	2.474952	0.874812
O31	O	-0.208172	1.660688	0.338920
O32	O	0.125161	1.994022	0.672253
O33	O	0.458494	2.327355	1.005586
O34	O	-0.338881	1.466170	0.338875
O35	O	-0.005548	1.799503	0.672209
O36	O	0.327786	2.132837	1.005542
O37	O	-0.568618	1.660753	0.437857
O38	O	-0.235284	1.994086	0.771191
O39	O	0.098049	2.327420	1.104524
O40	O	-0.437897	1.466138	0.437887
O41	O	-0.104564	1.799471	0.771221
O42	O	0.228770	2.132804	1.104554
O43	O	-0.568647	1.808243	0.338822
O44	O	-0.235313	2.141576	0.672156
O45	O	0.098020	2.474909	1.005489
O46	O	-0.338835	1.807997	0.568643
O47	O	-0.005502	2.141330	0.901976
O48	O	0.327831	2.474664	1.235309
O49	O	-0.437871	1.660613	0.568609
O50	O	-0.104538	1.993947	0.901942
O51	O	0.228796	2.327280	1.235276
C52	C	-0.388388	1.422606	0.388380
C53	C	-0.055055	1.755940	0.721714
C54	C	0.278279	2.089273	1.055047
C55	C	-0.388403	1.289206	0.388395
C56	C	-0.055070	1.622540	0.721728
C57	C	0.278263	1.955873	1.055062
C58	C	-0.598706	1.734509	0.388331
C59	C	-0.265373	2.067842	0.721664
C60	C	0.067960	2.401176	1.054998
C61	C	-0.688328	1.734542	0.388306
C62	C	-0.354994	2.067876	0.721639
C63	C	-0.021661	2.401209	1.054972
C64	C	-1.016503	1.734598	0.388215
C65	C	-0.683170	2.067931	0.721549
C66	C	-0.349837	2.401264	1.054882
C67	C	-0.925195	1.734579	0.388243
C68	C	-0.591862	2.067912	0.721576
C69	C	-0.258528	2.401246	1.054910
C70	C	-0.852418	1.734571	0.388261
C71	C	-0.519085	2.067904	0.721594
C72	C	-0.185752	2.401237	1.054928
C73	C	-0.761104	1.734551	0.388287
C74	C	-0.427771	2.067884	0.721621
C75	C	-0.094437	2.401217	1.054954
C76	C	-0.178907	1.734422	0.388393
C77	C	0.154427	2.067756	0.721726
C78	C	0.487760	2.401089	1.055060
C79	C	-0.089286	1.734622	0.388191
C80	C	0.244047	2.067955	0.721525
C81	C	0.577381	2.401288	1.054858
C82	C	-0.388364	1.734317	0.597882
C83	C	-0.055030	2.067651	0.931215
C84	C	0.278303	2.400984	1.264549
C85	C	-0.388376	1.734379	0.687503
C86	C	-0.055043	2.067712	1.020837
C87	C	0.278291	2.401045	1.354170
C88	C	-0.388407	2.047473	0.388403
C89	C	-0.055074	2.380807	0.721736
C90	C	0.278260	2.714140	1.055069
C91	C	-0.388411	2.180873	0.388408
C92	C	-0.055078	2.514207	0.721741
C93	C	0.278255	2.847540	1.055074
C94	C	-0.388449	1.734578	0.178082
C95	C	-0.055116	2.067911	0.511416
C96	C	0.278218	2.401244	0.844749
C97	C	-0.388471	1.734640	0.088461
C98	C	-0.055138	2.067974	0.421794
C99	C	0.278196	2.401307	0.755128
C100	C	-0.388460	1.734588	1.015679
C101	C	-0.055127	2.067921	1.349012
C102	C	0.278207	2.401255	1.682345
C103	C	-0.388439	1.734526	0.924370
C104	C	-0.055106	2.067859	1.257704
C105	C	0.278228	2.401193	1.591037
C106	C	-0.388418	1.734482	0.851594
C107	C	-0.055084	2.067816	1.184927
C108	C	0.278249	2.401149	1.518261
C109	C	-0.388397	1.734422	0.760280
C110	C	-0.055064	2.067755	1.093613
C111	C	0.278269	2.401089	1.426946
