data_functionalizedCrystal
_audit_creation_method	'MofGen! by Chris Wilmer'
_symmetry_space_group_name_H-M	'P1'
_symmetry_Int_Tables_number	1
_symmetry_cell_setting	triclinic
loop_
_symmetry_equiv_pos_as_xyz
  x,y,z
_cell_length_a	17.019383
_cell_length_b	17.000371
_cell_length_c	12.503572
_cell_angle_alpha	93.243058
_cell_angle_beta	82.619237
_cell_angle_gamma	79.508757
loop_
_atom_site_label
_atom_site_type_symbol
_atom_site_fract_x
_atom_site_fract_y
_atom_site_fract_z
O1	O	1.049784	0.091853	-0.186325
O2	O	0.818059	0.105877	-0.164915
O3	O	0.948309	-0.017085	-0.176942
O4	O	0.919534	0.214815	-0.174298
O5	O	0.938513	-0.007822	0.002605
O6	O	0.808262	0.115140	0.014631
O7	O	1.039987	0.101116	-0.006779
Cu8	Cu	0.923230	0.108973	0.020320
Cu9	Cu	0.934816	0.098019	-0.192014
O10	O	0.909737	0.224078	0.005248
C11	C	0.783657	0.110157	-0.072416
C12	C	0.695748	0.109101	-0.064293
C13	C	0.659780	0.103558	-0.158340
C14	C	0.577176	0.102579	-0.150692
C15	C	0.530543	0.107137	-0.048996
C16	C	0.566516	0.112683	0.045057
C17	C	0.649117	0.113667	0.037409
C18	C	0.280873	0.104422	-0.021005
C19	C	0.198267	0.103435	-0.013363
C20	C	0.208933	0.093332	-0.209114
C21	C	0.291536	0.094312	-0.216754
C22	C	0.327501	0.099862	-0.122700
C23	C	0.446109	0.106134	-0.041176
C24	C	0.411932	0.100871	-0.130521
C25	C	0.944957	-0.042117	-0.087312
C26	C	0.949553	-0.130502	-0.087738
C27	C	0.878824	-0.162114	-0.081207
C28	C	0.883148	-0.245162	-0.081604
C29	C	0.958200	-0.296597	-0.088538
C30	C	1.028934	-0.264980	-0.095066
C31	C	1.024609	-0.181933	-0.094662
C32	C	0.974903	-0.547841	-0.090089
C33	C	0.979222	-0.630893	-0.090496
C34	C	0.833435	-0.611070	-0.077032
C35	C	0.829118	-0.528023	-0.076635
C36	C	0.899851	-0.496412	-0.083157
C37	C	0.962621	-0.381486	-0.088947
C38	C	0.895429	-0.411524	-0.082740
C39	C	1.074389	0.096836	-0.099280
C40	C	1.162299	0.097892	-0.107410
C41	C	0.913090	0.249109	-0.084384
C42	C	0.908494	0.337494	-0.083966
N43	N	0.915087	0.116677	0.169664
N44	N	0.942966	0.090309	-0.341359
C45	C	0.903108	0.128017	0.389886
C46	C	0.954942	0.078972	0.438427
C47	C	0.948277	0.085281	0.560965
C48	C	0.909772	0.121709	0.267336
H49	H	0.160295	0.107169	0.069454
H50	H	0.528539	0.116399	0.127861
H51	H	0.853730	0.174742	0.440353
O52	O	0.683939	0.119016	0.128873
C53	C	0.625065	0.122847	0.220274
H54	H	0.572783	0.095452	0.196571
H55	H	0.652927	0.088001	0.285805
H56	H	0.601880	0.188184	0.252355
O57	O	0.457290	0.096554	-0.229242
C58	C	0.491596	0.165802	-0.238263
H59	H	0.494740	0.193333	-0.154009
H60	H	0.555040	0.148845	-0.285337
H61	H	0.452751	0.211223	-0.282738
O62	O	0.400801	0.110414	0.057580
C63	C	0.366458	0.041187	0.066571
H64	H	0.404008	-0.009589	0.007843
H65	H	0.365420	0.022489	0.152795
H66	H	0.302178	0.054680	0.046346
O67	O	0.705015	0.099271	-0.257150
C68	C	0.674282	0.164921	-0.313560
H69	H	0.638828	0.215809	-0.253300
H70	H	0.726396	0.186432	-0.362558
H71	H	0.632774	0.145609	-0.370434
O72	O	1.013698	0.023151	0.378071
C73	C	1.007250	0.029077	0.267397
H74	H	0.974323	0.091863	0.255141
H75	H	1.070188	0.017353	0.218631
H76	H	0.972027	-0.017191	0.238923
H77	H	0.329501	0.090594	-0.299565
O78	O	0.542166	0.097087	-0.241972
C79	C	0.508494	0.027236	-0.244678
H80	H	0.496086	0.008483	-0.158975
H81	H	0.449566	0.039919	-0.280435
H82	H	0.552602	-0.023176	-0.296810
H83	H	0.817709	-0.120241	-0.075566
O84	O	0.814366	-0.275740	-0.075301
C85	C	0.747195	-0.212534	-0.069073
H86	H	0.767339	-0.157994	-0.104756
H87	H	0.700309	-0.232285	-0.116606
H88	H	0.719622	-0.196212	0.019177
H89	H	0.768002	-0.486150	-0.070991
H90	H	0.775848	-0.636817	-0.071721
O91	O	0.315816	0.109942	0.070324
C92	C	0.349519	0.179773	0.073021
H93	H	0.318022	0.224823	0.020679
H94	H	0.341119	0.207395	0.159927
H95	H	0.416668	0.163570	0.040642
O96	O	0.174062	0.088055	-0.300545
C97	C	0.183697	0.154208	-0.360667
H98	H	0.237564	0.179349	-0.337965
H99	H	0.194496	0.134116	-0.450752
H100	H	0.126824	0.202651	-0.341902
O101	O	1.052196	-0.680744	-0.097191
C102	C	1.113702	-0.635038	-0.102889
H103	H	1.087400	-0.571183	-0.066628
H104	H	1.163086	-0.663285	-0.055591
H105	H	1.140356	-0.633686	-0.191053
H106	H	1.090043	-0.306864	-0.100705
O107	O	1.043576	-0.517090	-0.096243
C108	C	1.040359	-0.464840	-0.003437
H109	H	0.996755	-0.480896	0.065260
H110	H	1.103078	-0.471054	0.021819
H111	H	1.018645	-0.400321	-0.022342
O112	O	1.093396	-0.151357	-0.101067
C113	C	1.160567	-0.214560	-0.107251
H114	H	1.144135	-0.272605	-0.139556
H115	H	1.213141	-0.200180	-0.163972
H116	H	1.178740	-0.222000	-0.023227
O117	O	0.822487	-0.361653	-0.076146
C118	C	0.784286	-0.380691	-0.165158
H119	H	0.809838	-0.445406	-0.198365
H120	H	0.716608	-0.373382	-0.138107
H121	H	0.795522	-0.338683	-0.230978
O122	O	1.035517	-0.431496	-0.095881
C123	C	1.047434	-0.484932	-0.189489
H124	H	1.008314	-0.457626	-0.250538
H125	H	1.113654	-0.496257	-0.226667
H126	H	1.029971	-0.544121	-0.166957
