data_functionalizedCrystal
_audit_creation_method	'MofGen! by Chris Wilmer'
_symmetry_space_group_name_H-M	'P1'
_symmetry_Int_Tables_number	1
_symmetry_cell_setting	triclinic
loop_
_symmetry_equiv_pos_as_xyz
  x,y,z
_cell_length_a	14.908520
_cell_length_b	19.805407
_cell_length_c	19.805399
_cell_angle_alpha	90.016510
_cell_angle_beta	93.269050
_cell_angle_gamma	86.683092
loop_
_atom_site_label
_atom_site_type_symbol
_atom_site_fract_x
_atom_site_fract_y
_atom_site_fract_z
Zn1	Zn	-0.359259	-1.019181	-0.398266
Zn2	Zn	-0.510128	-1.012577	-0.291609
Zn3	Zn	-0.359278	-0.906001	-0.285092
Zn4	Zn	-0.510066	-0.899438	-0.404754
O5	O	-0.434683	-0.959299	-0.344930
O6	O	-0.379291	-1.113021	-0.384130
O7	O	-0.490151	-0.998422	-0.196030
O8	O	-0.233031	-0.926525	-0.294662
O9	O	-0.490133	-1.108169	-0.305770
O10	O	-0.233017	-1.009678	-0.377811
O11	O	-0.379322	-0.920121	-0.191242
O12	O	-0.379262	-0.810414	-0.300953
O13	O	-0.490028	-0.915340	-0.498609
O14	O	-0.490046	-0.805593	-0.388869
O15	O	-0.379231	-1.003315	-0.493842
O16	O	-0.636364	-0.992059	-0.312061
O17	O	-0.636319	-0.908936	-0.395188
C18	C	-0.434650	-0.783445	-0.344908
C19	C	-0.434657	-0.708212	-0.344916
C20	C	-0.669075	-0.949087	-0.355050
C21	C	-0.769350	-0.944780	-0.359402
C22	C	-0.377043	-0.675391	-0.385787
C23	C	-0.377046	-0.604702	-0.385788
C24	C	-0.434668	-0.566836	-0.344921
C25	C	-0.492285	-0.599663	-0.304045
C26	C	-0.492277	-0.670350	-0.304041
C27	C	-0.492318	-0.314588	-0.304060
C28	C	-0.492324	-0.243896	-0.304069
C29	C	-0.377087	-0.248940	-0.385808
C30	C	-0.377078	-0.319628	-0.385804
C31	C	-0.434692	-0.352448	-0.344925
C32	C	-0.434687	-0.429097	-0.344923
C33	C	-0.434678	-0.490189	-0.344926
C34	C	-0.957761	-1.023331	-0.281090
C35	C	-1.051978	-1.019287	-0.285177
C36	C	-1.052001	-0.932650	-0.371666
C37	C	-0.957784	-0.936695	-0.367579
C38	C	-0.910668	-0.982036	-0.322289
C39	C	-0.816450	-0.986077	-0.318199
C40	C	-0.816474	-0.899444	-0.404691
C41	C	-0.910691	-0.895399	-0.408778
C42	C	-0.199375	-0.969570	-0.334786
C43	C	-0.099101	-0.973947	-0.330463
C44	C	-0.434620	-0.959332	-0.521471
C45	C	-0.434594	-0.959346	-0.596701
C46	C	-0.434710	-0.135841	-0.344947
C47	C	-0.434704	-0.211073	-0.344937
C48	C	-0.376880	-0.918587	-0.629552
C49	C	-0.376862	-0.918597	-0.700239
C50	C	-0.434555	-0.959370	-0.738075
C51	C	-0.492275	-1.000130	-0.705220
C52	C	-0.492296	-1.000116	-0.634534
C53	C	-0.492191	-1.000188	-0.990290
C54	C	-0.492163	-1.000200	-1.060981
C55	C	-0.376756	-0.918668	-1.055995
C56	C	-0.376778	-0.918654	-0.985309
C57	C	-0.434501	-0.959412	-0.952461
C58	C	-0.434521	-0.959399	-0.875813
C59	C	-0.434531	-0.959386	-0.814721
C60	C	-0.434680	-0.959309	-0.169074
C61	C	-0.434453	-0.959437	-0.093833
H62	H	-0.330122	-0.706217	-0.419068
H63	H	-0.919399	-1.060246	-0.244208
H64	H	-0.949066	-0.858485	-0.445654
C65	C	-0.765180	-0.854686	-0.449393
C66	C	-0.672584	-0.867941	-0.436133
C67	C	-0.625304	-0.826729	-0.477302
H68	H	-0.780573	-0.808528	-0.440153
H69	H	-0.780518	-0.863908	-0.495561
H70	H	-0.657252	-0.858714	-0.389976
H71	H	-0.657165	-0.914091	-0.445377
H72	H	-0.640642	-0.835951	-0.523470
H73	H	-0.640704	-0.780574	-0.468059
H74	H	-0.562473	-0.835721	-0.468316
C75	C	-1.102975	-1.064248	-0.240478
C76	C	-1.079932	-1.132187	-0.254285
C77	C	-1.126875	-1.173633	-0.213115
H78	H	-1.165853	-1.055451	-0.249346
H79	H	-1.087556	-1.055080	-0.194312
H80	H	-1.095357	-1.141351	-0.300441
H81	H	-1.017062	-1.141005	-0.245414
H82	H	-1.111456	-1.164465	-0.166948
H83	H	-1.189750	-1.164830	-0.221986
H84	H	-1.111241	-1.219734	-0.222473
H85	H	-0.539147	-1.033404	-1.091786
H86	H	-0.329894	-0.885388	-0.598750
H87	H	-1.090379	-0.895740	-0.408544
H88	H	-0.329869	-0.885404	-0.726983
C89	C	-0.314106	-0.874312	-0.944351
C90	C	-0.263575	-0.838604	-0.988251
C91	C	-0.205843	-0.797740	-0.950547
H92	H	-0.274732	-0.901841	-0.915079
H93	H	-0.348602	-0.843275	-0.918275
H94	H	-0.229081	-0.869637	-1.014316
H95	H	-0.302925	-0.811063	-1.017524
H96	H	-0.240339	-0.766703	-0.924471
H97	H	-0.166475	-0.825274	-0.921276
H98	H	-0.171557	-0.773503	-0.980327
C99	C	-0.314458	-0.569191	-0.430237
C100	C	-0.264014	-0.617481	-0.466042
C101	C	-0.206353	-0.584794	-0.507001
H102	H	-0.275026	-0.543322	-0.402769
H103	H	-0.349001	-0.540137	-0.461214
H104	H	-0.229473	-0.646524	-0.435069
H105	H	-0.303422	-0.643354	-0.493523
H106	H	-0.240897	-0.555740	-0.537978
H107	H	-0.166927	-0.558925	-0.479528
H108	H	-0.172126	-0.617553	-0.531304
C109	C	-0.314190	-0.874429	-1.091788
C110	C	-0.326535	-0.883148	-1.161791
C111	C	-0.268924	-0.842402	-1.194782
H112	H	-0.253544	-0.886938	-1.077674
H113	H	-0.327397	-0.828359	-1.080803
H114	H	-0.313322	-0.929208	-1.172771
H115	H	-0.387169	-0.870635	-1.175924
H116	H	-0.282131	-0.796332	-1.183797
H117	H	-0.208282	-0.854914	-1.180663
H118	H	-0.277298	-0.848308	-1.242283
H119	H	-0.539202	-1.033367	-0.963554
H120	H	-0.330159	-0.350455	-0.419084
H121	H	-0.539249	-0.213067	-0.270787
C122	C	-0.554985	-0.705946	-0.259759
C123	C	-0.644274	-0.684890	-0.278255
C124	C	-0.702064	-0.717672	-0.237481
H125	H	-0.541826	-0.694948	-0.213705
H126	H	-0.546787	-0.753472	-0.265617
H127	H	-0.652468	-0.637375	-0.272391
H128	H	-0.657461	-0.695889	-0.324301
H129	H	-0.693866	-0.765198	-0.243339
H130	H	-0.688897	-0.706671	-0.191430
H131	H	-0.762653	-0.703395	-0.250029
C132	C	-0.314638	-0.213336	-0.430304
C133	C	-0.334418	-0.229681	-0.498101
C134	C	-0.276922	-0.196890	-0.539112
H135	H	-0.253972	-0.227528	-0.417946
H136	H	-0.322898	-0.165807	-0.424501
H137	H	-0.326150	-0.277199	-0.503902
H138	H	-0.395073	-0.215488	-0.510480
H139	H	-0.285182	-0.149361	-0.533308
H140	H	-0.216259	-0.211084	-0.526748
H141	H	-0.290340	-0.207970	-0.585117
H142	H	-0.539254	-1.033325	-0.736032
H143	H	-0.539287	-1.033312	-0.607788
C144	C	-0.554970	-0.350089	-0.259659
C145	C	-0.605450	-0.301795	-0.223887
C146	C	-0.663184	-0.334475	-0.182983
H147	H	-0.520505	-0.379152	-0.228659
H148	H	-0.594369	-0.375947	-0.287184
H149	H	-0.566056	-0.275947	-0.196365
H150	H	-0.639933	-0.272729	-0.254870
H151	H	-0.702584	-0.360334	-0.210508
H152	H	-0.628713	-0.363538	-0.151987
H153	H	-0.697448	-0.301713	-0.158712
C154	C	-0.765455	-1.035369	-0.269010
C155	C	-0.826868	-1.070681	-0.233818
C156	C	-0.779928	-1.116103	-0.188506
H157	H	-0.728751	-1.011151	-0.237839
H158	H	-0.728666	-1.066458	-0.293320
H159	H	-0.863642	-1.039597	-0.209509
H160	H	-0.863574	-1.094914	-0.264971
H161	H	-0.743139	-1.147192	-0.212816
H162	H	-0.743226	-1.091879	-0.157340
H163	H	-0.821589	-1.140072	-0.164628
C164	C	-0.554814	-0.558433	-0.259745
C165	C	-0.542510	-0.489501	-0.268510
C166	C	-0.600107	-0.451501	-0.227720
H167	H	-0.541589	-0.570494	-0.213685
H168	H	-0.615464	-0.567346	-0.272201
H169	H	-0.481874	-0.480592	-0.256050
H170	H	-0.555742	-0.477420	-0.314562
H171	H	-0.660757	-0.460415	-0.240176
H172	H	-0.586877	-0.463568	-0.181662
H173	H	-0.591772	-0.404727	-0.233666
