data_functionalizedCrystal
_audit_creation_method	'MofGen! by Chris Wilmer'
_symmetry_space_group_name_H-M	'P1'
_symmetry_Int_Tables_number	1
_symmetry_cell_setting	triclinic
loop_
_symmetry_equiv_pos_as_xyz
  x,y,z
_cell_length_a	23.532407
_cell_length_b	14.853569
_cell_length_c	22.610064
_cell_angle_alpha	89.990737
_cell_angle_beta	90.015293
_cell_angle_gamma	83.242121
loop_
_atom_site_label
_atom_site_type_symbol
_atom_site_fract_x
_atom_site_fract_y
_atom_site_fract_z
O1	O	0.074363	1.195534	0.049164
O2	O	0.083220	0.932978	0.049172
O3	O	-0.004106	1.072173	0.049157
O4	O	0.161689	1.056339	0.049179
O5	O	-0.004120	1.072195	-0.049213
O6	O	0.083205	0.932999	-0.049198
O7	O	0.074349	1.195555	-0.049205
Zn8	Zn	0.078774	1.064280	-0.064820
Zn9	Zn	0.078794	1.064253	0.064786
O10	O	0.161674	1.056360	-0.049190
C11	C	0.082811	0.899404	-0.000012
C12	C	0.081608	0.799334	-0.000010
C13	C	0.029170	0.763531	-0.000014
C14	C	0.132915	0.741106	-0.000007
C15	C	0.131787	0.647085	-0.000008
C16	C	0.079349	0.611282	-0.000013
C17	C	0.028040	0.669500	-0.000017
C18	C	0.183095	0.588859	-0.000010
C19	C	0.181968	0.494831	-0.000012
C20	C	0.129530	0.459026	-0.000012
C21	C	0.078219	0.517251	-0.000016
C22	C	0.025782	0.481448	-0.000021
C23	C	-0.025530	0.539672	-0.000020
C24	C	-0.024398	0.633696	-0.000018
C25	C	0.128398	0.365002	-0.000014
C26	C	0.024651	0.387418	-0.000023
C27	C	-0.025331	1.071781	-0.000029
C28	C	-0.088553	1.070568	-0.000034
C29	C	-0.487330	1.145337	-0.000004
C30	C	-0.546735	1.144211	0.000001
O31	O	-0.583177	1.213523	0.000020
N32	N	-0.569722	1.061459	0.000003
C33	C	-0.533301	0.979829	0.000006
O34	O	-0.558309	0.909339	0.000009
C35	C	-0.473897	0.980956	0.000006
C36	C	-0.450913	1.063713	-0.000002
C37	C	-0.464345	1.228088	-0.000011
C38	C	-0.404944	1.229213	-0.000017
C39	C	-0.368527	1.147589	-0.000015
C40	C	-0.391512	1.064839	-0.000008
C41	C	-0.437478	0.899326	0.000014
C42	C	-0.378070	0.900460	0.000014
C43	C	-0.355086	0.983217	0.000006
C44	C	-0.295695	0.984340	-0.000012
N45	N	-0.272707	1.067092	-0.000014
C46	C	-0.309123	1.148716	-0.000015
C47	C	-0.658054	0.977468	0.000008
C48	C	-0.717457	0.976340	0.000004
C49	C	-0.730886	1.140723	-0.000000
C50	C	-0.671482	1.141850	-0.000001
C51	C	-0.635067	1.060220	0.000006
C52	C	-0.184376	1.151074	-0.000028
C53	C	-0.124969	1.152193	-0.000036
C54	C	-0.111545	0.987811	-0.000028
C55	C	-0.170947	0.986691	-0.000023
C56	C	-0.207362	1.068331	-0.000021
O57	O	-0.259218	0.915065	-0.000029
O58	O	-0.284108	1.219195	-0.000010
C59	C	0.182899	1.056752	-0.000003
C60	C	0.246121	1.057965	0.000005
C61	C	0.074757	1.229129	-0.000020
C62	C	0.075960	1.329199	-0.000019
N63	N	0.078803	1.064234	0.153238
N64	N	0.078761	1.064306	-0.153272
C65	C	0.040192	1.126044	0.561873
C66	C	0.040189	1.126050	0.623793
O67	O	0.007384	1.178588	0.655806
N68	N	0.078775	1.064299	0.654776
C69	C	0.117369	1.002543	0.623835
O70	O	0.150190	0.950020	0.655874
C71	C	0.117374	1.002542	0.561916
C72	C	0.078783	1.064291	0.530937
C73	C	0.001604	1.187788	0.530894
C74	C	0.001606	1.187780	0.468978
C75	C	0.040196	1.126027	0.438042
C76	C	0.078785	1.064283	0.469021
C77	C	0.155971	0.940791	0.530977
C78	C	0.155973	0.940795	0.469054
C79	C	0.117381	1.002544	0.438074
C80	C	0.117377	1.002521	0.376169
N81	N	0.078792	1.064273	0.345187
C82	C	0.040201	1.126026	0.376123
C83	C	0.117357	1.002553	0.753868
C84	C	0.117349	1.002550	0.815786
C85	C	0.040170	1.126058	0.815740
C86	C	0.040175	1.126056	0.753821
C87	C	0.078771	1.064304	0.722886
C88	C	0.040209	1.126003	0.246096
C89	C	0.040213	1.125987	0.184175
C90	C	0.117394	1.002482	0.184226
C91	C	0.117388	1.002495	0.246142
C92	C	0.078793	1.064263	0.277075
O93	O	0.150167	0.950013	0.344117
O94	O	0.007392	1.178548	0.344077
H95	H	0.175607	0.770263	-0.000007
Br96	Br	-0.012170	1.209832	0.288067
Br97	Br	-0.012381	1.209589	0.857737
H98	H	-0.029821	1.238079	0.556077
Br99	Br	-0.373761	1.341533	-0.000011
Br100	Br	0.169716	0.918730	0.857822
Br101	Br	-0.012202	1.209861	0.711785
H102	H	0.148812	0.952201	0.159028
Br103	Br	-0.012168	1.209791	0.142134
H104	H	0.225787	0.618017	-0.000010
Br105	Br	0.251604	0.415822	-0.000009
H106	H	-0.066173	0.681109	-0.000018
Br107	Br	-0.513757	1.338880	-0.000013
H108	H	-0.029817	1.238064	0.443758
H109	H	-0.456180	0.831937	0.000024
H110	H	0.187397	0.890510	0.556191
Br111	Br	0.198029	0.285990	-0.000025
H112	H	-0.106260	1.219586	-0.000044
H113	H	-0.736165	0.908951	0.000000
H114	H	-0.018050	0.358275	-0.000024
H115	H	-0.214019	1.217553	-0.000024
H116	H	-0.652773	1.209238	-0.000007
Br117	Br	0.169757	0.918678	0.288184
H118	H	-0.760548	1.207186	0.000000
H119	H	-0.628407	0.910990	0.000008
Br120	Br	-0.328652	0.789670	0.000026
Br121	Br	-0.202141	0.874378	-0.000026
Br122	Br	-0.040464	0.842543	-0.000010
Br123	Br	0.169739	0.918733	0.711891
H124	H	-0.068225	0.510509	-0.000020
Br125	Br	0.208360	0.856986	0.427074
H126	H	-0.081885	0.921354	-0.000029
