data_functionalizedCrystal
_audit_creation_method	'MofGen! by Chris Wilmer'
_symmetry_space_group_name_H-M	'P1'
_symmetry_Int_Tables_number	1
_symmetry_cell_setting	triclinic
loop_
_symmetry_equiv_pos_as_xyz
  x,y,z
_cell_length_a	17.638336
_cell_length_b	17.640280
_cell_length_c	10.685880
_cell_angle_alpha	97.770433
_cell_angle_beta	104.591400
_cell_angle_gamma	65.685103
loop_
_atom_site_label
_atom_site_type_symbol
_atom_site_fract_x
_atom_site_fract_y
_atom_site_fract_z
Zn1	Zn	1.383912	-0.640602	0.952898
Zn2	Zn	1.396859	-0.763588	0.706420
Zn3	Zn	1.231237	-0.597898	0.706484
Zn4	Zn	1.269651	-0.746196	0.881975
O5	O	1.320415	-0.687071	0.811944
O6	O	1.502762	-0.682067	0.949857
O7	O	1.364230	-0.731016	0.529833
O8	O	1.229995	-0.490029	0.768880
O9	O	1.512274	-0.772425	0.768770
O10	O	1.342165	-0.521403	0.949919
O11	O	1.242548	-0.609284	0.529880
O12	O	1.119200	-0.592419	0.700109
O13	O	1.295466	-0.742781	1.067979
O14	O	1.147423	-0.701373	0.829041
O15	O	1.379414	-0.665202	1.120085
O16	O	1.401479	-0.874815	0.699999
O17	O	1.308020	-0.862036	0.828979
C18	C	1.102941	-0.640375	0.756886
C19	C	1.009910	-0.620420	0.733357
C20	C	0.864062	-0.535496	0.633211
C21	C	0.951480	-0.554253	0.655328
C22	C	0.980937	-0.667859	0.789294
C23	C	0.893520	-0.649114	0.767183
C24	C	0.835089	-0.582931	0.689141
C25	C	0.864547	-0.696549	0.823113
C26	C	0.777137	-0.677802	0.801009
C27	C	0.718700	-0.611620	0.722974
C28	C	0.747678	-0.564184	0.667037
C29	C	0.922979	-0.762728	0.901162
C30	C	0.894006	-0.810163	0.957092
C31	C	0.806595	-0.791420	0.934981
C32	C	0.748158	-0.725238	0.856946
C33	C	0.777616	-0.838856	0.990918
C34	C	0.690206	-0.820109	0.968813
C35	C	0.660748	-0.706491	0.834841
C36	C	1.360348	-0.897870	0.756819
C37	C	1.377510	-0.988070	0.733298
C38	C	1.190404	-1.251520	0.991177
C39	C	1.206530	-1.336274	0.969036
C40	C	1.303925	-1.349539	0.834909
C41	C	1.287810	-1.264785	0.857045
C42	C	1.231048	-1.215782	0.935178
C43	C	1.328455	-1.229047	0.801046
C44	C	1.312338	-1.144300	0.823174
C45	C	1.255576	-1.095290	0.901301
C46	C	1.214931	-1.131034	0.957307
C47	C	1.385212	-1.278051	0.722905
C48	C	1.425856	-1.242313	0.666906
C49	C	1.409744	-1.157565	0.689041
C50	C	1.352983	-1.108555	0.767169
C51	C	1.450389	-1.121821	0.633036
C52	C	1.434272	-1.037073	0.655164
C53	C	1.336866	-1.023808	0.789297
C54	C	1.538738	-0.733949	0.867218
C55	C	1.631775	-0.753926	0.890772
C56	C	1.340281	-0.706815	1.141102
C57	C	1.348747	-0.715228	1.281369
C58	C	1.280350	-0.475455	0.867318
C59	C	1.263277	-0.385277	0.890915
C60	C	1.300663	-0.667356	0.484095
C61	C	1.292316	-0.658748	0.343929
H62	H	0.975064	-0.515614	0.609791
H63	H	0.666616	-0.858733	1.014362
H64	H	1.237520	-0.603957	1.290179
Br65	Br	1.502889	-1.308824	0.560872
Br66	Br	1.440075	-0.806568	1.370950
H67	H	0.647525	-0.596355	0.704985
Br68	Br	0.581441	-0.616684	0.728899
Br69	Br	0.668372	-0.474377	0.561094
Br70	Br	1.527412	-1.188332	0.526988
Br71	Br	1.259842	-0.957298	0.895356
H72	H	1.242448	-1.026282	0.919306
Br73	Br	0.973312	-0.899984	1.062993
H74	H	0.816483	-0.481603	0.569662
Br75	Br	1.137907	-1.064525	1.063366
Br76	Br	1.041609	-0.788171	0.931160
Br77	Br	1.113380	-1.185011	1.097236
Br78	Br	0.856924	-0.928669	1.096834
H79	H	1.398335	-1.347058	0.704895
Br80	Br	1.151349	-1.384770	1.045021
H81	H	1.467369	-1.007975	0.609563
H82	H	1.028523	-0.721744	0.852839
Br83	Br	1.380957	-1.416051	0.728875
