data_functionalizedCrystal
_audit_creation_method	'MofGen! by Chris Wilmer'
_symmetry_space_group_name_H-M	'P1'
_symmetry_Int_Tables_number	1
_symmetry_cell_setting	triclinic
loop_
_symmetry_equiv_pos_as_xyz
  x,y,z
_cell_length_a	15.995350
_cell_length_b	14.519709
_cell_length_c	15.072220
_cell_angle_alpha	90.002063
_cell_angle_beta	89.991149
_cell_angle_gamma	96.413740
loop_
_atom_site_label
_atom_site_type_symbol
_atom_site_fract_x
_atom_site_fract_y
_atom_site_fract_z
O1	O	1.111174	-0.118867	-0.073709
O2	O	0.867421	-0.133546	-0.073728
O3	O	0.995760	0.008044	-0.073710
O4	O	0.982834	-0.260457	-0.073727
O5	O	0.995728	0.008036	0.073855
O6	O	0.867389	-0.133554	0.073837
O7	O	1.111142	-0.118875	0.073856
Zn8	Zn	0.989260	-0.126216	0.097276
Zn9	Zn	0.989302	-0.126205	-0.097148
O10	O	0.982803	-0.260465	0.073838
C11	C	0.836209	-0.132943	0.000053
C12	C	0.743256	-0.131124	0.000046
C13	C	0.405499	-0.124590	0.000065
C14	C	0.452782	-0.023752	0.000400
C15	C	0.549475	-0.025572	0.000061
C16	C	0.573064	-0.127831	0.000056
C17	C	0.532069	-0.177563	-0.084211
C18	C	0.435430	-0.175030	-0.084275
C19	C	0.435058	-0.177122	0.083534
C20	C	0.532003	-0.177098	0.084642
C21	C	0.667764	-0.129668	0.000048
C22	C	0.310798	-0.122756	0.000067
C23	C	0.995142	0.042398	0.000073
C24	C	0.993337	0.144776	0.000073
C25	C	1.142354	-0.119478	0.000074
C26	C	1.235307	-0.121297	0.000075
C27	C	0.983421	-0.294819	0.000054
C28	C	0.985226	-0.397197	0.000047
N29	N	0.989238	-0.126222	0.229965
C30	C	0.986691	0.519660	0.000049
C31	C	0.988537	0.415355	0.000056
C32	C	0.990014	0.332221	0.000062
C33	C	0.991859	0.227910	0.000067
N34	N	0.989331	-0.126192	-0.229836
C35	C	0.989301	-0.126202	0.589166
C36	C	0.920397	-0.201710	0.551550
C37	C	0.920556	-0.201985	0.448724
C38	C	0.989269	-0.126212	0.410962
C39	C	1.076665	-0.147229	0.448258
C40	C	1.076279	-0.147766	0.551116
C41	C	0.971586	-0.029453	0.551271
C42	C	0.969583	-0.030098	0.448407
C43	C	0.989256	-0.126216	0.310249
C44	C	0.989319	-0.126200	0.689879
H45	H	0.547479	-0.251669	0.089727
H46	H	1.129161	-0.094938	0.575998
H47	H	0.560406	-0.143015	-0.146920
N48	N	0.429455	0.026757	0.076246
N49	N	0.354329	0.039964	0.087781
H50	H	0.337856	0.075619	0.141364
H51	H	1.016497	0.028724	0.422706
N52	N	1.095830	-0.236272	0.581223
N53	N	1.159111	-0.241854	0.628732
H54	H	1.172917	-0.304364	0.649994
H55	H	1.021832	0.026737	0.575596
N56	N	0.395352	-0.270388	0.084235
N57	N	0.345489	-0.298155	0.023593
H58	H	0.317442	-0.364021	0.024081
N59	N	0.409211	-0.135767	0.163655
N60	N	0.368684	-0.067066	0.160208
H61	H	0.350428	-0.037850	0.216790
H62	H	0.559252	-0.140794	0.146982
N63	N	1.142525	-0.080067	0.417571
N64	N	1.125745	-0.015810	0.367750
H65	H	1.172257	0.031626	0.346076
N66	N	0.549916	-0.271813	-0.088148
N67	N	0.526455	-0.326558	-0.026746
H68	H	0.539060	-0.393123	-0.029524
H69	H	0.905292	-0.014149	0.424031
N70	N	0.839067	-0.186303	0.417070
N71	N	0.825241	-0.183833	0.335530
H72	H	0.767685	-0.172763	0.313177
N73	N	0.934776	-0.292053	0.417851
N74	N	0.997332	-0.301762	0.370466
H75	H	1.007377	-0.365378	0.348669
N76	N	0.585071	0.023480	0.075824
N77	N	0.662745	0.030531	0.088531
H78	H	0.687884	0.065180	0.142039
N79	N	0.838646	-0.186252	0.582610
N80	N	0.830208	-0.119409	0.632837
H81	H	0.772469	-0.108489	0.654778
N82	N	0.395103	-0.267898	-0.089070
N83	N	0.407450	-0.324898	-0.029658
H84	H	0.378970	-0.390484	-0.033048
H85	H	1.092622	-0.216983	0.422486
H86	H	0.909233	-0.009243	0.577258
N87	N	0.428128	0.026582	-0.074980
N88	N	0.375887	-0.011488	-0.128947
H89	H	0.358473	0.024059	-0.182186
N90	N	0.584359	0.023809	-0.075846
N91	N	0.537282	0.059719	-0.128742
H92	H	0.561917	0.094595	-0.182356
H93	H	0.417081	-0.138756	-0.147262
N94	N	0.934415	-0.291265	0.583965
N95	N	0.994931	-0.299722	0.634651
H96	H	1.004835	-0.362970	0.657546
