data_functionalizedCrystal
_audit_creation_method	'MofGen! by Chris Wilmer'
_symmetry_space_group_name_H-M	'P1'
_symmetry_Int_Tables_number	1
_symmetry_cell_setting	triclinic
loop_
_symmetry_equiv_pos_as_xyz
  x,y,z
_cell_length_a	13.185408
_cell_length_b	23.532407
_cell_length_c	12.376593
_cell_angle_alpha	102.742863
_cell_angle_beta	74.684537
_cell_angle_gamma	112.588915
loop_
_atom_site_label
_atom_site_type_symbol
_atom_site_fract_x
_atom_site_fract_y
_atom_site_fract_z
O1	O	1.467128	0.141721	-0.093885
O2	O	1.149011	0.083896	-0.093919
O3	O	1.317657	0.197184	-0.093876
O4	O	1.298481	0.028433	-0.093928
O5	O	1.280495	0.210983	0.094135
O6	O	1.111848	0.097694	0.094092
O7	O	1.429965	0.155520	0.094126
Zn8	Zn	1.265007	0.128798	0.123960
Zn9	Zn	1.313969	0.110617	-0.123753
O10	O	1.261319	0.042231	0.094084
C11	C	1.089738	0.084933	0.000083
C12	C	0.968491	0.067472	0.000071
C13	C	0.897952	0.005304	0.000050
C14	C	0.784031	-0.011102	0.000055
C15	C	0.740639	0.034657	0.000072
C16	C	0.811180	0.096826	0.000086
C17	C	0.925111	0.113235	0.000089
C18	C	0.767798	0.142588	0.000112
C19	C	0.838339	0.204757	0.000125
C20	C	0.952258	0.221162	0.000128
C21	C	0.995650	0.175403	0.000110
C22	C	0.653867	0.126180	0.000108
C23	C	0.681026	0.234111	0.000148
C24	C	0.794947	0.250517	0.000143
C25	C	1.298587	0.225226	0.000133
C26	C	1.297115	0.288223	0.000145
C27	C	1.387715	0.700942	0.000111
C28	C	1.386352	0.760136	0.000105
O29	O	1.470339	0.809502	0.000074
N30	N	1.286088	0.767690	0.000096
C31	C	1.187184	0.716044	0.000082
O32	O	1.101777	0.727905	0.000073
C33	C	1.188550	0.656850	0.000080
C34	C	1.288818	0.649302	0.000100
C35	C	1.487975	0.693391	0.000130
C36	C	1.489338	0.634200	0.000138
C37	C	1.390440	0.582560	0.000127
C38	C	1.290180	0.590111	0.000108
C39	C	1.089649	0.605205	0.000057
C40	C	1.091024	0.546009	0.000055
C41	C	1.191291	0.538460	0.000075
C42	C	1.192645	0.479280	0.000105
N43	N	1.292909	0.471727	0.000114
C44	C	1.391806	0.523367	0.000125
C45	C	1.184323	0.840357	0.000084
C46	C	1.182954	0.899550	0.000095
C47	C	1.382123	0.943638	0.000115
C48	C	1.383489	0.884444	0.000113
C49	C	1.284587	0.832803	0.000093
C50	C	1.394660	0.399061	0.000143
C51	C	1.396013	0.339863	0.000155
C52	C	1.196846	0.295780	0.000129
C53	C	1.195491	0.354973	0.000122
C54	C	1.294408	0.406613	0.000125
O55	O	1.108704	0.429886	0.000132
O56	O	1.477202	0.511494	0.000119
C57	C	1.489238	0.154482	0.000122
C58	C	1.610487	0.171943	0.000127
N59	N	1.231599	0.141207	0.293018
C60	C	1.280387	1.014190	0.000084
C61	C	1.281853	0.951195	0.000100
N62	N	1.347386	0.098214	-0.292811
C63	C	1.424944	0.069400	0.648006
C64	C	1.448316	0.060707	0.529667
C65	C	1.394139	0.080832	0.470499
C66	C	1.316585	0.109650	0.529682
C67	C	1.293204	0.118339	0.648033
C68	C	1.262399	0.129771	0.470526
C69	C	1.184845	0.158589	0.529709
C70	C	1.161469	0.167278	0.648048
C71	C	1.215646	0.147153	0.707216
C72	C	1.285780	0.121082	0.352174
C73	C	1.154041	0.170021	0.352201
C74	C	1.130668	0.178714	0.470541
H75	H	0.933291	-0.031946	0.000044
H76	H	1.103778	0.798311	0.000078
H77	H	0.645708	0.271368	0.000110
F78	F	1.088772	0.363008	0.000121
F79	F	1.487380	0.998608	0.000121
H80	H	0.852398	0.301136	0.000154
H81	H	0.726604	-0.061720	0.000044
F82	F	1.190776	0.156404	0.833168
F83	F	1.419018	0.071581	0.344551
H84	H	0.647878	0.021296	0.000078
H85	H	1.098311	0.190738	0.696232
H86	H	1.348923	0.097617	0.303999
F87	F	1.502736	0.331835	0.000176
H88	H	1.511461	0.037244	0.481488
F89	F	0.982929	0.613224	0.000031
H90	H	1.469041	0.053015	0.696192
H91	H	1.010483	0.503962	0.000036
H92	H	1.088412	0.188758	0.000110
F93	F	1.490206	0.876417	0.000135
H94	H	1.475209	0.441101	0.000141
F95	F	1.091598	0.240812	0.000118
F96	F	1.596062	0.626174	0.000135
H97	H	1.067522	0.202178	0.518744
H98	H	1.101302	0.905690	0.000098
F99	F	1.096373	0.191438	0.289236
F100	F	1.027327	0.287330	0.000161
H101	H	1.568515	0.735433	0.000134
H102	H	0.596443	0.075562	0.000099
