data_functionalizedCrystal
_audit_creation_method	'MofGen! by Chris Wilmer'
_symmetry_space_group_name_H-M	'P1'
_symmetry_Int_Tables_number	1
_symmetry_cell_setting	triclinic
loop_
_symmetry_equiv_pos_as_xyz
  x,y,z
_cell_length_a	15.995350
_cell_length_b	15.995350
_cell_length_c	14.472310
_cell_angle_alpha	90.001162
_cell_angle_beta	89.990621
_cell_angle_gamma	83.492375
loop_
_atom_site_label
_atom_site_type_symbol
_atom_site_fract_x
_atom_site_fract_y
_atom_site_fract_z
O1	O	1.110997	0.107921	-0.076758
O2	O	0.867221	0.121248	-0.076776
O3	O	0.995773	-0.007303	-0.076766
O4	O	0.982445	0.236472	-0.076769
O5	O	0.995740	-0.007296	0.076916
O6	O	0.867188	0.121256	0.076906
O7	O	1.110963	0.107928	0.076924
Cu8	Cu	0.989073	0.114593	0.090947
Cu9	Cu	0.989112	0.114584	-0.090800
O10	O	0.982412	0.236480	0.076913
C11	C	0.836010	0.120701	0.000062
C12	C	0.743060	0.119049	0.000055
C13	C	0.405312	0.113117	0.000074
C14	C	0.452746	0.021565	0.000418
C15	C	0.549436	0.023217	0.000065
C16	C	0.572873	0.116060	0.000065
C17	C	0.531804	0.161212	-0.087692
C18	C	0.435169	0.158912	-0.087759
C19	C	0.434792	0.160812	0.087007
C20	C	0.531737	0.160790	0.088160
C21	C	0.667570	0.117727	0.000057
C22	C	0.310614	0.111452	0.000076
C23	C	0.995205	-0.038494	0.000073
C24	C	0.993553	-0.131444	0.000068
C25	C	0.987621	-0.469192	0.000071
C26	C	0.896069	-0.421758	-0.000281
C27	C	0.897721	-0.325068	0.000066
C28	C	0.990564	-0.301631	0.000069
C29	C	1.035701	-0.342705	0.087831
C30	C	1.033401	-0.439340	0.087904
C31	C	1.035330	-0.439707	-0.086861
C32	C	1.035309	-0.342762	-0.088021
C33	C	0.992231	-0.206934	0.000071
C34	C	0.985956	-0.563890	0.000075
C35	C	1.142175	0.108476	0.000083
C36	C	1.235125	0.110127	0.000084
C37	C	0.982980	0.267671	0.000072
C38	C	0.984631	0.360621	0.000071
N39	N	0.989051	0.114598	0.218778
N40	N	0.989140	0.114572	-0.218631
C41	C	0.989111	0.114581	0.592869
C42	C	0.920095	0.183135	0.553698
C43	C	0.920254	0.183385	0.446610
C44	C	0.989081	0.114590	0.407278
C45	C	1.076445	0.133671	0.446122
C46	C	1.076057	0.134159	0.553243
C47	C	0.971542	0.026741	0.553398
C48	C	0.969538	0.027327	0.446270
C49	C	0.989069	0.114593	0.302390
C50	C	0.989128	0.114579	0.697757
H51	H	0.560193	0.129845	-0.153002
H52	H	1.000459	-0.457639	0.153505
H53	H	0.403031	0.228313	0.087600
F54	F	1.145179	0.070143	0.412824
H55	H	1.103909	-0.328579	0.091097
F56	F	0.996219	-0.466549	-0.173806
F57	F	0.586580	-0.023175	0.082289
H58	H	0.434210	-0.015027	0.063352
F59	F	0.427149	-0.026057	-0.081381
F60	F	0.551814	0.249287	0.095088
F61	F	0.890067	0.002771	0.588744
H62	H	0.861973	-0.297200	0.063079
H63	H	1.103014	-0.327400	-0.093317
F64	F	0.851343	-0.287919	-0.082164
F65	F	0.992506	-0.306761	-0.172894
F66	F	1.096293	0.217890	0.585892
H67	H	1.021872	-0.024275	0.578728
F68	F	0.834934	0.168511	0.587380
H69	H	1.016541	-0.026079	0.419500
H70	H	1.100617	-0.471588	0.091888
F71	F	0.848312	-0.447646	0.081291
F72	F	0.585845	-0.023306	-0.082433
F73	F	0.848255	-0.445982	-0.082544
F74	F	1.123558	-0.481221	-0.087631
F75	F	0.934891	0.268593	0.413100
H76	H	0.545930	0.229421	-0.090955
F77	F	0.411254	0.115865	-0.173502
H78	H	0.855314	0.172016	0.420349
F79	F	0.994690	-0.305607	0.173193
F80	F	0.934564	0.267860	0.588855
F81	F	0.393016	0.246766	-0.092965
H82	H	1.129018	0.086196	0.579154
F83	F	1.097168	0.216448	0.411046
F84	F	0.885537	0.008397	0.413090
H85	H	0.414242	0.130885	0.153524
F86	F	0.567340	0.117641	0.173018
