data_functionalizedCrystal
_audit_creation_method	'MofGen! by Chris Wilmer'
_symmetry_space_group_name_H-M	'P1'
_symmetry_Int_Tables_number	1
_symmetry_cell_setting	triclinic
loop_
_symmetry_equiv_pos_as_xyz
  x,y,z
_cell_length_a	16.109301
_cell_length_b	16.109301
_cell_length_c	14.586319
_cell_angle_alpha	90.004358
_cell_angle_beta	90.001418
_cell_angle_gamma	83.461532
loop_
_atom_site_label
_atom_site_type_symbol
_atom_site_fract_x
_atom_site_fract_y
_atom_site_fract_z
O1	O	1.103132	0.106867	0.076182
O2	O	1.436465	0.440200	0.409516
O3	O	1.769798	0.773533	0.742849
O4	O	0.861070	0.120166	0.076197
O5	O	1.194403	0.453499	0.409530
O6	O	1.527736	0.786833	0.742864
O7	O	0.988750	-0.007515	0.076183
O8	O	1.322083	0.325819	0.409517
O9	O	1.655417	0.659152	0.742850
O10	O	0.975451	0.234547	0.076196
O11	O	1.308784	0.567881	0.409529
O12	O	1.642118	0.901214	0.742863
O13	O	0.988740	-0.007518	-0.076298
O14	O	1.322073	0.325816	0.257036
O15	O	1.655407	0.659149	0.590369
O16	O	0.861059	0.120163	-0.076284
O17	O	1.194393	0.453496	0.257050
O18	O	1.527726	0.786830	0.590383
O19	O	1.103121	0.106864	-0.076298
O20	O	1.436455	0.440197	0.257035
O21	O	1.769788	0.773530	0.590368
Cu22	Cu	0.982089	0.113513	-0.090214
Cu23	Cu	1.315423	0.446846	0.243120
Cu24	Cu	1.648756	0.780180	0.576453
Cu25	Cu	0.982102	0.113517	0.090112
Cu26	Cu	1.315435	0.446850	0.423446
Cu27	Cu	1.648768	0.780183	0.756779
O28	O	0.975441	0.234544	-0.076285
O29	O	1.308774	0.567878	0.257049
O30	O	1.642107	0.901211	0.590382
C31	C	0.830090	0.119626	-0.000042
C32	C	1.163423	0.452959	0.333292
C33	C	1.496756	0.786292	0.666625
C34	C	0.737794	0.118011	-0.000036
C35	C	1.071128	0.451344	0.333297
C36	C	1.404461	0.784677	0.666630
C37	C	0.988206	-0.038491	-0.000057
C38	C	1.321540	0.294842	0.333277
C39	C	1.654873	0.628176	0.666610
C40	C	0.986591	-0.130786	-0.000055
C41	C	1.319924	0.202547	0.333278
C42	C	1.653258	0.535880	0.666611
C43	C	0.515522	0.190018	-0.000043
C44	C	0.848855	0.523352	0.333290
C45	C	1.182189	0.856685	0.666624
C46	C	0.428802	0.188494	-0.000049
C47	C	0.762135	0.521828	0.333284
C48	C	1.095468	0.855161	0.666618
C49	C	0.448676	0.037006	-0.000053
C50	C	0.782009	0.370339	0.333280
C51	C	1.115342	0.703672	0.666613
C52	C	0.535395	0.038530	-0.000054
C53	C	0.868728	0.371864	0.333280
C54	C	1.202061	0.705197	0.666613
C55	C	0.568815	0.115039	-0.000044
C56	C	0.902148	0.448373	0.333289
C57	C	1.235482	0.781706	0.666623
C58	C	0.395376	0.111990	-0.000049
C59	C	0.728709	0.445324	0.333284
C60	C	1.062043	0.778657	0.666617
C61	C	0.301350	0.110337	-0.000056
C62	C	0.634683	0.443671	0.333277
C63	C	0.968017	0.777004	0.666611
C64	C	0.662847	0.116693	-0.000039
C65	C	0.996180	0.450026	0.333294
C66	C	1.329514	0.783359	0.666627
C67	C	1.134101	0.107404	-0.000058
C68	C	1.467435	0.440737	0.333276
C69	C	1.800768	0.774070	0.666609
C70	C	1.226397	0.109019	-0.000057
C71	C	1.559730	0.442352	0.333276
C72	C	1.893063	0.775686	0.666609
C73	C	1.057074	-0.439785	-0.000044
C74	C	1.390408	-0.106451	0.333290
C75	C	1.723741	0.226882	0.666623
C76	C	1.058600	-0.353064	-0.000049
C77	C	1.391933	-0.019731	0.333284
C78	C	1.725266	0.313602	0.666617
C79	C	0.907111	-0.333191	-0.000052
C80	C	1.240444	0.000142	0.333281
C81	C	1.573777	0.333476	0.666614
C82	C	0.905586	-0.419910	-0.000053
C83	C	1.238920	-0.086577	0.333280
C84	C	1.572253	0.246757	0.666613
C85	C	0.980571	-0.473205	-0.000045
C86	C	1.313904	-0.139871	0.333289
C87	C	1.647237	0.193462	0.666622
C88	C	0.983620	-0.299766	-0.000049
C89	C	1.316954	0.033568	0.333285
C90	C	1.650287	0.366901	0.666618
C91	C	0.985274	-0.205740	-0.000055
C92	C	1.318607	0.127594	0.333279
C93	C	1.651940	0.460927	0.666612
C94	C	0.978917	-0.567237	-0.000041
C95	C	1.312251	-0.233903	0.333293
C96	C	1.645584	0.099430	0.666626
C97	C	0.975985	0.265521	-0.000043
C98	C	1.309318	0.598854	0.333291
C99	C	1.642651	0.932187	0.666624
C100	C	0.977600	0.357816	-0.000038
C101	C	1.310933	0.691149	0.333295
C102	C	1.644267	1.024483	0.666629
N103	N	0.982087	0.113510	-0.217046
N104	N	1.315420	0.446843	0.116288
N105	N	1.648754	0.780177	0.449621
C106	C	1.038646	0.056991	-0.548045
C107	C	1.371979	0.390325	-0.214712
C108	C	1.705313	0.723658	0.118621
C109	C	1.038644	0.056992	-0.452064
C110	C	1.371977	0.390325	-0.118731
C111	C	1.705311	0.723659	0.214602
C112	C	0.925549	0.170038	-0.452063
C113	C	1.258882	0.503371	-0.118729
C114	C	1.592216	0.836704	0.214604
C115	C	0.925556	0.170040	-0.548042
C116	C	1.258889	0.503374	-0.214709
C117	C	1.592222	0.836707	0.118624
C118	C	0.982103	0.113513	-0.596031
C119	C	1.315436	0.446846	-0.262698
C120	C	1.648770	0.780179	0.070636
C121	C	0.982094	0.113510	-0.404070
C122	C	1.315428	0.446844	-0.070737
C123	C	1.648761	0.780177	0.262596
C124	C	0.982092	0.113511	-0.300003
C125	C	1.315425	0.446844	0.033330
C126	C	1.648758	0.780178	0.366663
C127	C	0.982107	0.113513	-0.700105
C128	C	1.315440	0.446846	-0.366772
C129	C	1.648774	0.780179	-0.033438
N130	N	0.982111	0.113513	0.216944
N131	N	1.315444	0.446846	0.550277
N132	N	1.648777	0.780180	0.883611
H133	H	0.542730	0.252317	-0.000042
H134	H	0.876063	0.585650	0.333291
H135	H	1.209396	0.918983	0.666625
H136	H	0.879511	0.216071	-0.587115
H137	H	1.212845	0.549404	-0.253781
H138	H	1.546178	0.882738	0.079552
H139	H	0.385413	0.249550	-0.000050
H140	H	0.718747	0.582883	0.333283
H141	H	1.052080	0.916217	0.666617
H142	H	0.846062	-0.289788	-0.000057
H143	H	1.179395	0.043545	0.333276
H144	H	1.512728	0.376878	0.666609
Cl145	Cl	0.406655	-0.059172	-0.000059
Cl146	Cl	0.739988	0.274162	0.333274
Cl147	Cl	1.073322	0.607495	0.666607
Cl148	Cl	0.854461	0.241095	-0.391730
Cl149	Cl	1.187794	0.574428	-0.058396
Cl150	Cl	1.521127	0.907761	0.274937
H151	H	1.118131	-0.483175	-0.000037
H152	H	1.451465	-0.149842	0.333297
H153	H	1.784798	0.183491	0.666630
Cl154	Cl	0.602397	-0.055737	-0.000063
Cl155	Cl	0.935730	0.277596	0.333271
Cl156	Cl	1.269063	0.610930	0.666604
H157	H	1.120896	-0.325859	-0.000050
H158	H	1.454230	0.007475	0.333283
H159	H	1.787563	0.340808	0.666616
H160	H	1.084691	0.010964	-0.587116
H161	H	1.418025	0.344298	-0.253782
H162	H	1.751358	0.677631	0.079551
H163	H	1.084687	0.010968	-0.412997
H164	H	1.418020	0.344302	-0.079664
H165	H	1.751354	0.677635	0.253670
Cl166	Cl	0.809402	-0.461927	-0.000060
Cl167	Cl	1.142736	-0.128594	0.333273
Cl168	Cl	1.476069	0.204740	0.666607
