data_functionalizedCrystal
_audit_creation_method	'MofGen! by Chris Wilmer'
_symmetry_space_group_name_H-M	'P1'
_symmetry_Int_Tables_number	1
_symmetry_cell_setting	triclinic
loop_
_symmetry_equiv_pos_as_xyz
  x,y,z
_cell_length_a	16.120297
_cell_length_b	11.169417
_cell_length_c	11.169416
_cell_angle_alpha	89.988781
_cell_angle_beta	92.878536
_cell_angle_gamma	87.118439
loop_
_atom_site_label
_atom_site_type_symbol
_atom_site_fract_x
_atom_site_fract_y
_atom_site_fract_z
Zn1	Zn	-0.471348	-1.800522	-0.512217
Zn2	Zn	-0.331950	-1.810597	-0.702744
Zn3	Zn	-0.331958	-1.609993	-0.502077
Zn4	Zn	-0.471325	-1.599817	-0.712858
O5	O	-0.401645	-1.705232	-0.607474
O6	O	-0.452862	-1.969808	-0.537501
O7	O	-0.215287	-1.792461	-0.667649
O8	O	-0.350462	-1.635309	-0.335473
O9	O	-0.350447	-1.977210	-0.677481
O10	O	-0.452871	-1.775290	-0.342923
O11	O	-0.215294	-1.645078	-0.520220
O12	O	-0.350440	-1.440694	-0.530027
O13	O	-0.587992	-1.617967	-0.694719
O14	O	-0.452832	-1.433218	-0.684887
O15	O	-0.588009	-1.765424	-0.547309
O16	O	-0.350425	-1.782595	-0.872034
O17	O	-0.452823	-1.627736	-0.879465
C18	C	-0.401639	-1.705185	-0.919298
C19	C	-0.401664	-1.705273	-1.052700
C20	C	-0.401635	-1.393409	-0.607455
C21	C	-0.401650	-1.260007	-0.607477
C22	C	-0.619095	-1.689436	-0.623273
C23	C	-0.711760	-1.682705	-0.630005
C24	C	-0.881419	-1.670371	-0.642271
C25	C	-0.922724	-1.740331	-0.572317
C26	C	-1.017128	-1.733468	-0.579142
C27	C	-0.787006	-1.677232	-0.635448
C28	C	-0.185041	-1.721036	-0.591650
C29	C	-0.092377	-1.728000	-0.584579
C30	C	-0.401657	-2.018274	-0.607494
C31	C	-0.401661	-2.151674	-0.607502
C32	C	-0.401670	-1.705311	-0.294433
C33	C	-0.401680	-1.705345	-0.161034
H34	H	-0.916954	-1.605328	-0.707281
C35	C	-0.931259	-1.891517	-0.421194
C36	C	-0.874757	-1.828154	-0.484554
H37	H	-0.901642	-1.945729	-0.367013
H38	H	-0.965230	-1.934982	-0.475898
H39	H	-0.965215	-1.836809	-0.377684
H40	H	-0.840805	-1.882861	-0.528071
H41	H	-0.840772	-1.784686	-0.429842
