data_functionalizedCrystal
_audit_creation_method	'MofGen! by Chris Wilmer'
_symmetry_space_group_name_H-M	'P1'
_symmetry_Int_Tables_number	1
_symmetry_cell_setting	triclinic
loop_
_symmetry_equiv_pos_as_xyz
  x,y,z
_cell_length_a	19.288865
_cell_length_b	14.971486
_cell_length_c	14.048226
_cell_angle_alpha	90.006640
_cell_angle_beta	89.994985
_cell_angle_gamma	96.624812
loop_
_atom_site_label
_atom_site_type_symbol
_atom_site_fract_x
_atom_site_fract_y
_atom_site_fract_z
O1	O	0.921714	-0.111581	-0.079129
O2	O	1.421714	0.388419	0.420871
O3	O	0.719502	-0.126633	-0.079138
O4	O	1.219502	0.373367	0.420862
O5	O	0.826028	0.011122	-0.079126
O6	O	1.326028	0.511122	0.420874
O7	O	0.815188	-0.249337	-0.079140
O8	O	1.315188	0.250663	0.420860
O9	O	0.826015	0.011130	0.079195
O10	O	1.326015	0.511130	0.579195
O11	O	0.719489	-0.126625	0.079184
O12	O	1.219489	0.373375	0.579184
O13	O	0.921701	-0.111573	0.079193
O14	O	1.421701	0.388427	0.579193
Zn15	Zn	0.820593	-0.119098	0.104325
Zn16	Zn	1.320593	0.380902	0.604325
Zn17	Zn	0.820610	-0.119109	-0.104270
Zn18	Zn	1.320610	0.380891	0.395730
O19	O	0.815175	-0.249329	0.079181
O20	O	1.315175	0.250671	0.579181
C21	C	0.693618	-0.126145	0.000022
C22	C	1.193618	0.373855	0.500022
C23	C	0.616509	-0.124691	0.000019
C24	C	1.116509	0.375309	0.500019
C25	C	0.947585	-0.112062	0.000031
C26	C	1.447585	0.387938	0.500031
C27	C	1.024694	-0.113516	0.000028
C28	C	1.524694	0.386484	0.500028
C29	C	0.825537	0.044448	0.000034
C30	C	1.325537	0.544448	0.500034
C31	C	0.824084	0.143737	0.000033
C32	C	1.324084	0.643737	0.500033
C33	C	1.069126	-0.032687	0.000024
C34	C	1.569126	0.467313	0.500024
C35	C	1.141578	-0.034053	0.000030
C36	C	1.641578	0.465947	0.500030
C37	C	1.169594	-0.116252	0.000020
C38	C	1.669594	0.383748	0.500020
C39	C	1.125151	-0.197091	0.000029
C40	C	1.625151	0.302909	0.500029
C41	C	1.052701	-0.195723	0.000033
C42	C	1.552701	0.304277	0.500033
C43	C	1.278086	-0.180873	-0.055456
C44	C	1.778086	0.319127	0.444544
C45	C	1.350535	-0.182237	-0.055466
C46	C	1.850535	0.317763	0.444534
C47	C	1.393053	-0.120475	0.000012
C48	C	1.893053	0.379525	0.500012
C49	C	1.363115	-0.057333	0.055487
C50	C	1.863115	0.442667	0.555487
C51	C	1.290665	-0.055965	0.055491
C52	C	1.790665	0.444035	0.555491
C53	C	1.248152	-0.117745	0.000016
C54	C	1.748152	0.382255	0.500016
C55	C	1.516047	-0.041122	0.000015
C56	C	2.016047	0.458878	0.500015
C57	C	1.588499	-0.042491	0.000027
C58	C	2.088499	0.457509	0.500027
C59	C	1.572070	-0.205532	0.000017
C60	C	2.072070	0.294468	0.500017
C61	C	1.499619	-0.204160	0.000015
C62	C	1.999619	0.295840	0.500015
C63	C	1.471612	-0.121953	0.000010
C64	C	1.971612	0.378047	0.500010
C65	C	0.815667	-0.282655	0.000019
C66	C	1.315667	0.217345	0.500019
C67	C	0.817119	-0.381944	0.000013
C68	C	1.317119	0.118056	0.500013
N69	N	0.820587	-0.119090	0.246686
N70	N	1.320587	0.380910	0.746686
C71	C	0.886665	0.201301	0.000037
C72	C	1.386665	0.701301	0.500037
C73	C	0.885296	0.294593	0.000027
C74	C	1.385296	0.794593	0.500027
C75	C	0.821345	0.330320	0.000021
C76	C	1.321345	0.830320	0.500021
C77	C	0.758759	0.272749	0.000014
C78	C	1.258759	0.772749	0.500014
C79	C	0.760129	0.179458	0.000017
C80	C	1.260129	0.679458	0.500017
C81	C	0.755909	0.467196	0.000011
C82	C	1.255909	0.967196	0.500011
C83	C	0.754538	0.560492	0.000010
C84	C	1.254538	1.060492	0.500010
C85	C	0.881075	0.582330	0.000021
C86	C	1.381075	1.082330	0.500021
C87	C	0.882445	0.489040	0.000024
C88	C	1.382445	0.989040	0.500024
C89	C	0.819859	0.431475	0.000019
C90	C	1.319859	0.931475	0.500019
N91	N	0.820622	-0.119109	-0.246631
N92	N	1.320622	0.380891	0.253369
C93	C	0.867771	-0.058117	0.296509
C94	C	1.367771	0.441883	0.796509
C95	C	0.867776	-0.058117	0.396167
C96	C	1.367776	0.441883	0.896167
C97	C	0.820599	-0.119094	0.445999
C98	C	1.320599	0.380906	0.945999
C99	C	0.773409	-0.180070	0.396169
C100	C	1.273409	0.319930	0.896169
C101	C	0.773402	-0.180066	0.296513
C102	C	1.273402	0.319934	0.796513
C103	C	0.773430	-0.180077	0.603883
C104	C	1.273430	0.319923	1.103883
C105	C	0.773438	-0.180082	0.703546
C106	C	1.273438	0.319918	1.203546
C107	C	0.867803	-0.058128	0.703537
C108	C	1.367803	0.441872	1.203537
C109	C	0.867796	-0.058123	0.603881
C110	C	1.367796	0.441877	1.103881
C111	C	0.820607	-0.119100	0.554058
C112	C	1.320607	0.380900	1.054058
H113	H	1.046328	0.034253	0.000023
H114	H	1.546328	0.534253	0.500023
H115	H	1.594880	-0.272460	0.000015
H116	H	2.094880	0.227540	0.500015
H117	H	0.735001	-0.229728	0.563321
H118	H	1.235001	0.270272	1.063321
H119	H	0.906196	-0.008467	0.436732
H120	H	1.406196	0.491533	0.936732
H121	H	0.734979	-0.229715	0.255948
H122	H	1.234979	0.270285	0.755948
Cl123	Cl	1.160369	-0.300427	0.000021
Cl124	Cl	1.660369	0.199573	0.500021
H125	H	0.906191	-0.008466	0.255942
H126	H	1.406191	0.491534	0.755942
Cl127	Cl	1.197447	0.067568	0.000022
Cl128	Cl	1.697447	0.567568	0.500022
H129	H	0.932035	0.629204	0.000022
H130	H	1.432035	1.129204	0.500022
Cl131	Cl	0.996839	-0.297345	0.000035
Cl132	Cl	1.496839	0.202655	0.500035
Cl133	Cl	0.963973	0.366956	0.000034
Cl134	Cl	1.463973	0.866956	0.500034
H135	H	0.906214	-0.008475	0.563307
H136	H	1.406214	0.491525	1.063307
Cl137	Cl	0.967065	0.156398	0.000055
Cl138	Cl	1.467065	0.656398	0.500055
Cl139	Cl	0.678363	0.317662	-0.000005
Cl140	Cl	1.178363	0.817662	0.499995
H141	H	0.709169	0.132590	0.000014
H142	H	1.209169	0.632590	0.500014
H143	H	0.906226	-0.008478	0.744109
H144	H	1.406226	0.491522	1.244109
H145	H	0.735021	-0.229736	0.744115
H146	H	1.235021	0.270264	1.244115
H147	H	0.734994	-0.229716	0.436749
H148	H	1.234994	0.270284	0.936749
H149	H	1.266293	-0.004554	0.100663
H150	H	1.766293	0.495446	0.600663
H151	H	1.397733	-0.007036	0.100657
H152	H	1.897733	0.492964	0.600657
H153	H	1.493242	0.025816	0.000015
H154	H	1.993242	0.525816	0.500015
Cl155	Cl	1.644359	0.059132	0.000032
Cl156	Cl	2.144359	0.559132	0.500032
H157	H	1.463441	-0.269980	0.000012
H158	H	1.963441	0.230020	0.500012
H159	H	0.934519	0.459955	0.000036
H160	H	1.434519	0.959955	0.500036
H161	H	0.702464	0.589577	0.000020
H162	H	1.202464	1.089577	0.500020
H163	H	0.704944	0.420328	0.000005
H164	H	1.204944	0.920328	0.500005
H165	H	1.374905	-0.233645	-0.100645
H166	H	1.874905	0.266355	0.399355
H167	H	1.243472	-0.231174	-0.100631
H168	H	1.743472	0.268826	0.399369
