data_functionalizedCrystal
_audit_creation_method	'MofGen! by Chris Wilmer'
_symmetry_space_group_name_H-M	'P1'
_symmetry_Int_Tables_number	1
_symmetry_cell_setting	triclinic
loop_
_symmetry_equiv_pos_as_xyz
  x,y,z
_cell_length_a	9.065218
_cell_length_b	16.098538
_cell_length_c	9.065218
_cell_angle_alpha	87.234761
_cell_angle_beta	85.015885
_cell_angle_gamma	92.779205
loop_
_atom_site_label
_atom_site_type_symbol
_atom_site_fract_x
_atom_site_fract_y
_atom_site_fract_z
O1	O	1.966920	0.069255	0.209851
O2	O	1.537636	0.069256	0.227597
O3	O	1.761151	0.069253	0.004082
O4	O	1.743405	0.069257	0.433366
O5	O	1.748094	-0.069259	0.017087
O6	O	1.524578	-0.069257	0.240602
O7	O	1.953863	-0.069258	0.222856
Zn8	Zn	1.737147	-0.091249	0.233794
Zn9	Zn	1.754351	0.091247	0.216659
O10	O	1.730347	-0.069256	0.446371
C11	C	1.476120	-0.000001	0.232394
C12	C	1.312277	-0.000000	0.227294
N13	N	1.725417	-0.215799	0.245487
C14	C	1.820322	-0.259385	0.150652
C15	C	1.812130	-0.346573	0.158846
C16	C	1.709039	-0.390175	0.261883
C17	C	1.614125	-0.346583	0.356721
C18	C	1.622310	-0.259395	0.348519
C19	C	1.679364	-0.653424	0.291591
C20	C	1.671188	-0.740618	0.299789
C21	C	1.869193	-0.740603	0.101911
C22	C	1.877375	-0.653414	0.093724
C23	C	1.782455	-0.609829	0.188557
C24	C	1.700666	-0.479296	0.270264
C25	C	1.790822	-0.520710	0.180168
C26	C	2.015378	0.000000	0.218059
C27	C	2.179222	0.000005	0.223158
C28	C	1.752917	-0.000002	-0.044402
C29	C	1.747818	0.000002	-0.208246
N30	N	1.766093	0.215796	0.204955
C31	C	1.738582	0.000001	0.494855
C32	C	1.743682	0.000002	0.658698
H33	H	1.904275	-0.223890	0.066756
O34	O	1.600464	-0.521747	0.370163
C35	C	1.503631	-0.572180	0.294605
H36	H	1.559631	-0.585230	0.181181
H37	H	1.397593	-0.538598	0.279915
C38	C	1.396667	-0.638976	0.524439
C39	C	1.465453	-0.655011	0.385134
H40	H	1.373110	-0.690069	0.580283
H41	H	1.461901	-0.604997	0.575345
H42	H	1.308310	-0.610990	0.512177
H43	H	1.553816	-0.682987	0.397396
H44	H	1.400233	-0.688997	0.334231
O45	O	1.890740	-0.478284	0.079960
C46	C	1.815192	-0.427908	-0.016936
H47	H	1.701762	-0.414849	0.039033
H48	H	1.800514	-0.461544	-0.122935
C49	C	2.045039	-0.361124	-0.123936
C50	C	1.905727	-0.345078	-0.055190
H51	H	2.100887	-0.310032	-0.147540
H52	H	2.095938	-0.395065	-0.058660
H53	H	2.032787	-0.389156	-0.212261
H54	H	1.917980	-0.317057	0.033142
H55	H	1.854832	-0.311130	-0.120452
H56	H	1.889407	-0.382061	0.081624
H57	H	1.961320	-0.617915	0.009824
H58	H	1.587235	-0.776114	0.383700
H59	H	1.946470	-0.776097	0.024701
H60	H	1.530178	-0.382088	0.440611
O61	O	1.587315	-0.611136	0.383933
C62	C	1.611232	-0.632450	0.532335
H63	H	1.727132	-0.656394	0.536945
H64	H	1.525288	-0.683074	0.579289
C65	C	1.454543	-0.525593	0.619124
C66	C	1.596898	-0.554995	0.624787
H67	H	1.445695	-0.477817	0.676156
H68	H	1.438424	-0.511235	0.519143
H69	H	1.382938	-0.567787	0.658250
H70	H	1.668498	-0.512805	0.585645
H71	H	1.613028	-0.569344	0.724764
H72	H	1.545027	-0.223908	0.425742
