data_functionalizedCrystal
_audit_creation_method	'MofGen! by Chris Wilmer'
_symmetry_space_group_name_H-M	'P1'
_symmetry_Int_Tables_number	1
_symmetry_cell_setting	triclinic
loop_
_symmetry_equiv_pos_as_xyz
  x,y,z
_cell_length_a	8.497374
_cell_length_b	12.827893
_cell_length_c	12.827892
_cell_angle_alpha	89.984638
_cell_angle_beta	89.992687
_cell_angle_gamma	90.001575
loop_
_atom_site_label
_atom_site_type_symbol
_atom_site_fract_x
_atom_site_fract_y
_atom_site_fract_z
Zn1	Zn	0.891962	1.597487	0.416215
Zn2	Zn	0.628170	1.597435	0.590924
Zn3	Zn	0.628190	1.422782	0.416197
Zn4	Zn	0.891902	1.422714	0.590915
O5	O	0.760056	1.510105	0.503563
O6	O	0.856986	1.743716	0.439402
O7	O	0.407411	1.574274	0.567742
O8	O	0.663214	1.446008	0.269964
O9	O	0.663179	1.743678	0.567760
O10	O	0.857006	1.574363	0.269977
O11	O	0.407425	1.445958	0.439372
O12	O	0.663156	1.276537	0.439363
O13	O	1.112673	1.445891	0.567744
O14	O	0.856904	1.276487	0.567727
O15	O	1.112717	1.574296	0.439393
O16	O	0.663121	1.574207	0.737159
O17	O	0.856884	1.445840	0.737152
C18	C	0.760026	1.238595	0.503543
C19	C	0.760051	1.122442	0.503559
C20	C	0.855776	1.070659	0.567177
C21	C	0.855803	0.950609	0.567195
C22	C	0.760028	1.510039	0.775073
C23	C	0.760069	1.510107	0.891226
C24	C	1.171537	1.510097	0.503564
C25	C	1.350181	1.510099	0.503575
C26	C	0.760087	1.782675	0.503584
C27	C	0.760101	1.898828	0.503593
C28	C	0.760119	1.510199	0.230993
C29	C	0.760145	1.510239	0.114839
C30	C	0.664296	1.573702	0.942979
C31	C	0.664336	1.573774	1.063030
H32	H	0.937714	1.115204	0.621625
O33	O	0.566362	1.638766	1.115955
C34	C	0.477303	1.697846	1.044465
H35	H	0.471651	1.655071	0.966671
H36	H	0.535164	1.777182	1.032815
C37	C	0.316435	1.765529	1.182745
C38	C	0.309482	1.712988	1.087200
H39	H	0.212918	1.774874	1.209107
H40	H	0.376439	1.725729	1.230911
H41	H	0.364660	1.831637	1.173024
H42	H	0.261277	1.646877	1.096925
H43	H	0.249466	1.752777	1.039037
O44	O	0.858197	1.445332	1.061872
C45	C	1.015506	1.468093	1.088390
H46	H	1.018964	1.508237	1.167630
H47	H	1.068604	1.521811	1.026925
C48	C	1.106698	1.316858	0.996023
C49	C	1.110946	1.366156	1.093351
H50	H	1.165573	1.253980	0.999079
H51	H	1.000717	1.301525	0.978154
H52	H	1.150943	1.361634	0.944813
H53	H	1.066683	1.321386	1.144557
H54	H	1.216922	1.381480	1.111229
O55	O	0.953529	0.897331	0.632078
C56	C	0.931781	0.789329	0.617665
H57	H	0.880302	0.774529	0.536954
H58	H	0.847577	0.758337	0.679540
C59	C	1.154539	0.751386	0.726496
C60	C	1.091324	0.733208	0.627361
H61	H	1.252949	0.716767	0.732482
H62	H	1.169188	0.824149	0.736210
H63	H	1.084353	0.725560	0.778048
H64	H	1.161499	0.759046	0.575813
H65	H	1.076690	0.660448	0.617639
H66	H	0.678137	0.943352	0.449128
H67	H	0.678124	1.077897	0.449103
H68	H	0.582276	1.628101	0.898413
H69	H	0.842100	1.455718	0.935794
