data_functionalizedCrystal
_audit_creation_method	'MofGen! by Chris Wilmer'
_symmetry_space_group_name_H-M	'P1'
_symmetry_Int_Tables_number	1
_symmetry_cell_setting	triclinic
loop_
_symmetry_equiv_pos_as_xyz
  x,y,z
_cell_length_a	23.532407
_cell_length_b	22.010155
_cell_length_c	16.992695
_cell_angle_alpha	89.997759
_cell_angle_beta	86.758450
_cell_angle_gamma	90.009040
loop_
_atom_site_label
_atom_site_type_symbol
_atom_site_fract_x
_atom_site_fract_y
_atom_site_fract_z
O1	O	0.759990	0.050450	0.095140
O2	O	0.594809	0.050468	0.108907
O3	O	0.676737	0.050454	-0.012114
O4	O	0.678062	0.050463	0.216161
O5	O	0.676713	-0.050597	-0.012100
O6	O	0.594785	-0.050583	0.108922
O7	O	0.759965	-0.050601	0.095154
Cu8	Cu	0.677372	-0.059818	0.102039
Cu9	Cu	0.677402	0.059685	0.102022
O10	O	0.678037	-0.050587	0.216175
C11	C	0.573564	-0.000055	0.108564
C12	C	0.510294	-0.000049	0.107510
N13	N	0.677356	-0.143871	0.102051
C14	C	0.114417	-0.000074	0.172516
C15	C	0.054968	-0.000077	0.171537
O16	O	0.021214	-0.000097	0.231799
N17	N	0.028772	-0.000079	0.099590
C18	C	0.062027	-0.000084	0.028618
O19	O	0.034287	-0.000086	-0.032669
C20	C	0.121475	-0.000084	0.029598
C21	C	0.147668	-0.000076	0.101549
C22	C	0.140610	-0.000066	0.244462
C23	C	0.200055	-0.000061	0.245441
C24	C	0.233306	-0.000064	0.174474
C25	C	0.207113	-0.000071	0.102528
C26	C	0.154730	-0.000093	-0.041374
C27	C	0.214181	-0.000094	-0.040388
C28	C	0.240374	-0.000086	0.031564
C29	C	0.299809	-0.000069	0.032540
N30	N	0.326005	-0.000067	0.104487
C31	C	0.292754	-0.000064	0.175454
C32	C	-0.062817	-0.000083	0.026565
C33	C	-0.122263	-0.000079	0.025584
C34	C	-0.129319	-0.000073	0.168504
C35	C	-0.069871	-0.000074	0.169484
C36	C	-0.036621	-0.000082	0.098512
C37	C	0.417593	-0.000054	0.177504
C38	C	0.477043	-0.000046	0.178477
C39	C	0.484093	-0.000055	0.035557
C40	C	0.424648	-0.000059	0.034584
C41	C	0.391399	-0.000060	0.105564
O42	O	0.333599	-0.000052	-0.027690
O43	O	0.320503	-0.000070	0.236731
C44	C	0.640698	-0.436474	0.054718
C45	C	0.640693	-0.372866	0.054722
O46	O	0.609503	-0.339967	0.014479
N47	N	0.677377	-0.341055	0.102026
C48	C	0.714073	-0.372855	0.149324
O49	O	0.745276	-0.339956	0.189560
C50	C	0.714080	-0.436461	0.149316
C51	C	0.677389	-0.468269	0.102014
C52	C	0.604011	-0.468282	0.007420
C53	C	0.604015	-0.531885	0.007417
C54	C	0.640706	-0.563680	0.054713
C55	C	0.677394	-0.531872	0.102012
C56	C	0.750778	-0.468260	0.196609
C57	C	0.750783	-0.531870	0.196596
C58	C	0.714092	-0.563678	0.149295
C59	C	0.714089	-0.627271	0.149306
N60	N	0.677405	-0.659082	0.102001
C61	C	0.640714	-0.627287	0.054705
C62	C	0.714055	-0.239277	0.149337
C63	C	0.714046	-0.175672	0.149350
C64	C	0.640666	-0.175688	0.054746
C65	C	0.640674	-0.239294	0.054738
C66	C	0.677371	-0.271088	0.102033
C67	C	0.640725	-0.760858	0.054704
C68	C	0.640731	-0.824467	0.054709
C69	C	0.714112	-0.824445	0.149309
C70	C	0.714104	-0.760842	0.149308
C71	C	0.677409	-0.729050	0.102000
O72	O	0.745265	-0.660210	0.189525
O73	O	0.609521	-0.660193	0.014468
C74	C	0.781211	-0.000076	0.095498
C75	C	0.844480	-0.000079	0.096552
C76	C	0.675021	-0.000071	-0.041306
C77	C	0.669938	-0.000070	-0.128310
N78	N	0.677422	0.143738	0.102005
C79	C	0.718984	-0.000076	-0.178933
C80	C	0.714205	-0.000070	-0.260682
C81	C	0.660378	-0.000062	-0.291808
C82	C	0.611328	-0.000054	-0.241179
C83	C	0.616108	-0.000056	-0.159431
C84	C	0.640566	-0.000052	-0.535251
C85	C	0.635790	-0.000052	-0.617005
C86	C	0.738667	-0.000066	-0.636503
C87	C	0.743442	-0.000072	-0.554753
C88	C	0.694392	-0.000061	-0.504131
N89	N	0.655491	-0.000058	-0.375368
N90	N	0.699280	-0.000061	-0.420572
C91	C	0.679753	-0.000061	0.245368
C92	C	0.684836	-0.000057	0.332372
H93	H	0.498366	-0.000039	0.237071
O94	O	0.129204	-0.000076	-0.111200
C95	C	0.040761	-0.000124	-0.176077
C96	C	0.069594	-0.000130	-0.096939
H97	H	-0.007438	-0.000181	-0.164574
H98	H	0.054158	0.042172	-0.211142
H99	H	0.054225	-0.042407	-0.211107
H100	H	0.056145	0.042125	-0.061845
H101	H	0.056197	-0.042453	-0.061933
H102	H	0.743917	-0.149779	0.187877
O103	O	0.604942	-0.144827	0.008887
C104	C	0.507738	-0.125414	-0.021089
C105	C	0.548129	-0.160390	0.030908
H106	H	0.461797	-0.137994	-0.003316
H107	H	0.513986	-0.074482	-0.012953
H108	H	0.517536	-0.137905	-0.085539
H109	H	0.538356	-0.147950	0.095376
H110	H	0.541873	-0.211314	0.022704
O111	O	0.385276	-0.000158	0.246432
C112	C	0.314039	-0.052481	0.328282
C113	C	0.350612	-0.052452	0.250203
H114	H	0.285996	-0.094750	0.331348
H115	H	0.342953	-0.052513	0.379896
H116	H	0.286062	-0.010173	0.331381
H117	H	0.378594	-0.094753	0.247026
H118	H	0.321666	-0.052389	0.198625
H119	H	0.221376	-0.000054	0.304032
O120	O	0.786369	-0.000097	-0.685566
C121	C	0.888913	-0.000064	-0.696276
C122	C	0.834934	-0.000048	-0.640625
H123	H	0.928192	-0.000012	-0.659964
H124	H	0.889280	-0.042362	-0.735023
H125	H	0.889223	0.042217	-0.735051
H126	H	0.834588	-0.042301	-0.601800
H127	H	0.834588	0.042278	-0.601932
O128	O	0.749833	-0.855272	0.195202
C129	C	0.847044	-0.874751	0.225088
C130	C	0.806649	-0.839790	0.173080
H131	H	0.892989	-0.862257	0.207211
H132	H	0.837331	-0.862247	0.289553
H133	H	0.840713	-0.925672	0.216967
H134	H	0.812958	-0.788862	0.181133
H135	H	0.816372	-0.852345	0.108635
H136	H	0.241251	-0.000101	-0.098183
O137	O	-0.044404	0.000039	0.239358
C138	C	0.018644	0.052376	0.323392
C139	C	-0.010166	0.052332	0.244236
H140	H	0.046342	0.094644	0.327355
H141	H	-0.015316	0.052420	0.373971
H142	H	0.046266	0.010067	0.327427
H143	H	-0.037785	0.094634	0.240125
H144	H	0.023823	0.052257	0.193695
H145	H	0.576169	-0.000051	-0.118214
H146	H	0.591956	-0.000055	-0.642344
O147	O	0.771316	-0.000056	-0.148832
C148	C	0.872850	-0.000097	-0.176809
C149	C	0.813619	-0.000110	-0.211000
H150	H	0.907068	-0.000154	-0.227055
H151	H	0.877707	0.042202	-0.139056
H152	H	0.877623	-0.042377	-0.138995
H153	H	0.808806	0.042141	-0.248849
H154	H	0.808789	-0.042437	-0.248708
O155	O	0.108340	0.000047	0.313427
C156	C	0.084176	0.052397	0.435293
C157	C	0.120740	0.052345	0.357205
H158	H	0.094197	0.094669	0.470716
H159	H	0.037176	0.052437	0.422298
H160	H	0.094116	0.010092	0.470699
H161	H	0.110849	0.094643	0.321760
H162	H	0.167730	0.052273	0.370255
O163	O	0.399292	-0.000085	-0.035376
C164	C	0.412571	-0.000050	-0.177029
C165	C	0.441354	-0.000028	-0.097854
H166	H	0.446566	0.000010	-0.227563
H167	H	0.384933	-0.042353	-0.181113
H168	H	0.384899	0.042226	-0.181022
H169	H	0.469054	-0.042275	-0.093807
H170	H	0.468958	0.042303	-0.093804
H171	H	0.743937	-0.265160	0.187857
H172	H	0.511177	-0.000054	-0.022222
H173	H	-0.156403	-0.000074	0.226289
H174	H	0.610844	-0.734981	0.016181
H175	H	-0.143585	-0.000076	-0.033006
H176	H	-0.035747	-0.000084	-0.031232
O177	O	0.795700	0.000006	-0.524432
C178	C	0.860831	0.052368	-0.443502
C179	C	0.801626	0.052351	-0.477771
H180	H	0.865646	0.094690	-0.405783
H181	H	0.865644	0.010106	-0.405665
H182	H	0.895053	0.052336	-0.493743
H183	H	0.767369	0.052404	-0.427579
H184	H	0.796862	0.094609	-0.515629
H185	H	0.610850	-0.850362	0.016190
O186	O	0.568360	-0.562687	-0.038610
C187	C	0.495560	-0.555974	-0.132415
C188	C	0.535917	-0.521020	-0.080335
H189	H	0.469310	-0.522301	-0.166151
H190	H	0.521567	-0.585724	-0.175956
H191	H	0.465894	-0.585783	-0.093645
H192	H	0.565591	-0.491178	-0.119042
H193	H	0.509874	-0.491309	-0.036789
O194	O	0.749713	-0.730005	0.195372
C195	C	0.777921	-0.710509	0.327142
C196	C	0.737563	-0.745475	0.275073
H197	H	0.768104	-0.722994	0.391592
H198	H	0.823882	-0.723019	0.309405
H199	H	0.771628	-0.659590	0.318974
H200	H	0.743806	-0.796403	0.283214
H201	H	0.691617	-0.732915	0.292823
H202	H	0.780668	-0.557754	0.235109
H203	H	0.574131	-0.442401	-0.031099
O204	O	0.786477	-0.437466	0.242574
C205	C	0.859248	-0.444190	0.336422
C206	C	0.818853	-0.479139	0.284390
H207	H	0.885426	-0.477868	0.370256
H208	H	0.888974	-0.414420	0.297686
H209	H	0.833216	-0.414403	0.379888
H210	H	0.844839	-0.508959	0.240917
H211	H	0.789125	-0.508870	0.323175
O212	O	0.605096	-0.270163	0.008668
C213	C	0.576842	-0.289579	-0.123100
C214	C	0.617179	-0.254598	-0.071016
H215	H	0.586589	-0.276998	-0.187533
H216	H	0.583148	-0.340510	-0.115057
H217	H	0.530894	-0.277093	-0.105253
H218	H	0.663143	-0.267032	-0.088829
H219	H	0.610823	-0.203675	-0.079064
O220	O	0.761833	0.000032	-0.309886
C221	C	0.816146	0.052365	-0.413523
C222	C	0.762187	0.052329	-0.357835
H223	H	0.816443	0.094636	-0.452316
H224	H	0.855456	0.052395	-0.377270
H225	H	0.816465	0.010059	-0.452249
H226	H	0.761812	0.094628	-0.319097
H227	H	0.722901	0.052267	-0.394135
H228	H	0.600626	-0.000043	-0.494044
O229	O	0.559084	-0.000073	-0.271542
C230	C	0.506126	-0.000032	-0.388834
C231	C	0.565328	-0.000022	-0.354556
H232	H	0.511153	0.000022	-0.455955
H233	H	0.481678	-0.042329	-0.368005
H234	H	0.481714	0.042250	-0.367909
H235	H	0.589787	-0.042276	-0.375466
H236	H	0.589732	0.042302	-0.375381
