data_functionalizedCrystal
_audit_creation_method	'MofGen! by Chris Wilmer'
_symmetry_space_group_name_H-M	'P1'
_symmetry_Int_Tables_number	1
_symmetry_cell_setting	triclinic
loop_
_symmetry_equiv_pos_as_xyz
  x,y,z
_cell_length_a	12.759401
_cell_length_b	16.959454
_cell_length_c	12.759393
_cell_angle_alpha	89.970996
_cell_angle_beta	89.980804
_cell_angle_gamma	90.020501
loop_
_atom_site_label
_atom_site_type_symbol
_atom_site_fract_x
_atom_site_fract_y
_atom_site_fract_z
Zn1	Zn	1.606222	-0.314639	-0.593991
Zn2	Zn	1.606098	-0.446837	-0.418314
Zn3	Zn	1.430522	-0.314677	-0.418330
Zn4	Zn	1.430496	-0.446781	-0.593955
O5	O	1.518335	-0.380734	-0.506147
O6	O	1.753227	-0.332183	-0.570695
O7	O	1.582767	-0.429345	-0.271295
O8	O	1.453892	-0.204061	-0.441654
O9	O	1.753136	-0.429308	-0.441626
O10	O	1.582978	-0.204033	-0.570711
O11	O	1.453772	-0.332248	-0.271307
O12	O	1.283498	-0.332193	-0.441619
O13	O	1.453848	-0.429212	-0.740981
O14	O	1.283479	-0.429249	-0.570649
O15	O	1.582953	-0.332129	-0.741007
O16	O	1.582741	-0.557440	-0.441591
O17	O	1.453727	-0.557399	-0.570634
C18	C	1.245367	-0.380720	-0.506133
C19	C	1.128591	-0.380733	-0.506151
C20	C	1.073777	-0.330252	-0.573461
C21	C	0.964053	-0.330260	-0.573468
C22	C	0.963966	-0.431238	-0.438852
C23	C	1.073688	-0.431225	-0.438841
C24	C	0.814144	-0.237091	-0.611235
C25	C	0.759327	-0.186616	-0.678561
C26	C	0.794986	-0.174570	-0.781099
C27	C	0.885461	-0.213010	-0.816332
C28	C	0.940273	-0.263491	-0.749011
C29	C	0.904616	-0.275522	-0.646458
C30	C	1.223598	-0.524395	-0.401085
C31	C	1.278412	-0.574880	-0.333768
C32	C	1.242755	-0.586934	-0.231228
C33	C	1.152277	-0.548508	-0.196000
C34	C	1.097463	-0.498023	-0.263316
C35	C	1.133127	-0.485967	-0.365855
C36	C	1.518247	-0.586100	-0.506129
C37	C	1.518305	-0.673956	-0.506157
C38	C	1.451255	-1.045440	-0.573333
C39	C	1.585707	-1.045423	-0.439069
C40	C	1.585671	-0.962878	-0.439059
C41	C	1.518424	-0.921609	-0.506186
C42	C	1.451214	-0.962887	-0.573323
C43	C	1.652872	-0.921594	-0.371916
C44	C	1.652837	-0.839043	-0.371903
C45	C	1.585595	-0.797773	-0.439036
C46	C	1.518383	-0.839056	-0.506176
C47	C	1.451136	-0.797787	-0.573303
C48	C	1.383928	-0.839069	-0.640450
C49	C	1.383971	-0.921617	-0.640456
C50	C	1.585552	-0.715225	-0.439030
C51	C	1.451095	-0.715234	-0.573294
C52	C	1.792368	-0.380748	-0.506163
C53	C	1.909145	-0.380754	-0.506169
C54	C	1.518411	-0.380660	-0.780181
C55	C	1.518444	-0.380629	-0.896958
C56	C	1.518452	-0.174565	-0.506188
C57	C	1.518502	-0.086709	-0.506206
C58	C	1.585639	-0.431128	-1.061549
C59	C	1.585613	-0.431166	-0.951825
C60	C	1.451287	-0.330056	-0.951820
C61	C	1.451309	-0.330024	-1.061542
C62	C	1.623068	-0.524433	-0.801866
C63	C	1.690233	-0.574996	-0.747007
C64	C	1.792747	-0.587127	-0.782631
C65	C	1.828117	-0.548684	-0.873112
C66	C	1.760957	-0.498115	-0.927965
C67	C	1.658429	-0.485999	-0.892343
C68	C	1.413865	-0.236756	-1.211503
C69	C	1.346710	-0.186182	-1.266358
C70	C	1.244194	-0.174043	-1.230736
C71	C	1.208828	-0.212472	-1.140252
C72	C	1.275983	-0.263045	-1.085397
C73	C	1.378498	-0.275186	-1.121026
C74	C	1.518319	-0.380750	-0.233180
C75	C	1.518490	-0.380559	-0.116404
H76	H	1.118475	-0.289135	-0.628266
H77	H	1.789756	-0.466814	-1.001631
C78	C	1.170326	-0.118406	-1.291081
N79	N	1.114686	-0.076504	-1.336531
H80	H	1.396338	-0.681638	-0.627961
H81	H	1.329253	-0.955235	-0.695122
C82	C	1.377325	-1.090850	-0.647186
N83	N	1.321639	-1.125053	-0.702810
H84	H	1.375517	-0.154886	-1.340030
C85	C	1.659664	-1.090821	-0.365223
N86	N	1.715371	-1.125019	-0.309598
H87	H	1.707613	-0.955201	-0.317258
C88	C	1.309958	-0.793663	-0.714286
N89	N	1.254247	-0.759460	-0.769899
C90	C	1.262830	-0.511137	-0.513886
N91	N	1.292379	-0.501157	-0.598849
H92	H	0.914481	-0.203204	-0.899833
C93	C	0.734688	-0.119041	-0.855153
N94	N	0.689271	-0.077211	-0.910923
C95	C	1.726760	-0.793641	-0.298035
N96	N	1.782438	-0.759444	-0.242396
C97	C	0.659816	-0.144324	-0.639796
N98	N	0.584865	-0.112469	-0.610602
H99	H	1.125357	-0.202577	-1.111238
H100	H	1.497346	-0.246630	-1.240509
H101	H	0.785110	-0.246886	-0.527736
H102	H	0.919251	-0.472347	-0.384051
H103	H	1.013940	-0.294784	-0.777695
H104	H	1.640267	-0.681617	-0.384356
H105	H	1.023790	-0.466735	-0.234624
H106	H	1.640341	-0.472278	-1.106214
H107	H	1.911599	-0.558559	-0.902103
H108	H	1.847433	-0.628297	-0.737957
H109	H	1.123240	-0.558327	-0.112505
H110	H	1.287375	-0.628066	-0.176432
H111	H	1.661425	-0.606296	-0.673338
C112	C	1.510296	-0.511092	-0.762671
N113	N	1.425358	-0.501040	-0.733140
H114	H	1.352095	-0.606158	-0.362455
C115	C	1.377409	-0.274458	-0.891462
N116	N	1.321768	-0.232576	-0.846002
C117	C	1.237073	-0.305323	-0.985865
N118	N	1.207766	-0.337168	-0.910900
