data_functionalizedCrystal
_audit_creation_method	'MofGen! by Chris Wilmer'
_symmetry_space_group_name_H-M	'P1'
_symmetry_Int_Tables_number	1
_symmetry_cell_setting	triclinic
loop_
_symmetry_equiv_pos_as_xyz
  x,y,z
_cell_length_a	16.992694
_cell_length_b	19.288865
_cell_length_c	18.366186
_cell_angle_alpha	90.011479
_cell_angle_beta	90.003288
_cell_angle_gamma	86.902236
loop_
_atom_site_label
_atom_site_type_symbol
_atom_site_fract_x
_atom_site_fract_y
_atom_site_fract_z
O1	O	-1.039876	-0.147253	-0.060473
O2	O	-0.539876	0.352747	0.439527
O3	O	-0.811597	-0.145638	-0.060494
O4	O	-0.311597	0.354362	0.439506
O5	O	-0.932333	-0.045699	-0.060468
O6	O	-0.432333	0.454301	0.439532
O7	O	-0.919140	-0.247191	-0.060498
O8	O	-0.419140	0.252809	0.439502
O9	O	-0.932312	-0.045693	0.060631
O10	O	-0.432312	0.454307	0.560631
O11	O	-0.811576	-0.145631	0.060605
O12	O	-0.311576	0.354369	0.560605
O13	O	-1.039856	-0.147247	0.060627
O14	O	-0.539856	0.352753	0.560627
Zn15	Zn	-0.925713	-0.146438	0.079843
Zn16	Zn	-0.425713	0.353562	0.579843
Zn17	Zn	-0.925740	-0.146446	-0.079711
Zn18	Zn	-0.425740	0.353554	0.420289
O19	O	-0.919120	-0.247185	0.060601
O20	O	-0.419120	0.252815	0.560601
C21	C	-0.782381	-0.143556	0.000053
C22	C	-0.282381	0.356444	0.500053
C23	C	-0.695359	-0.137355	0.000046
C24	C	-0.195359	0.362645	0.500046
C25	C	-0.931898	-0.019795	0.000083
C26	C	-0.431898	0.480205	0.500083
C27	C	-0.930624	0.057383	0.000090
C28	C	-0.430624	0.557383	0.500090
C29	C	-1.069071	-0.149328	0.000078
C30	C	-0.569071	0.350672	0.500078
C31	C	-1.156093	-0.155529	0.000081
C32	C	-0.656093	0.344471	0.500081
C33	C	-0.644907	-0.197184	0.000037
C34	C	-0.144907	0.302816	0.500037
C35	C	-0.563141	-0.191353	0.000048
C36	C	-0.063141	0.308647	0.500048
C37	C	-0.531829	-0.125694	0.000062
C38	C	-0.031829	0.374306	0.500062
C39	C	-0.582287	-0.065862	0.000073
C40	C	-0.082287	0.434138	0.500073
C41	C	-0.664051	-0.071693	0.000067
C42	C	-0.164051	0.428307	0.500067
C43	C	-0.288316	-0.101527	0.000085
C44	C	0.211684	0.398473	0.500085
C45	C	-0.206545	-0.095701	0.000089
C46	C	0.293455	0.404299	0.500089
C47	C	-0.187405	-0.221193	0.000066
C48	C	0.312595	0.278807	0.500066
C49	C	-0.269172	-0.227018	0.000056
C50	C	0.230828	0.272982	0.500056
C51	C	-0.319623	-0.167186	0.000070
C52	C	0.180377	0.332814	0.500070
N53	N	-0.448251	-0.119733	0.000071
N54	N	0.051749	0.380267	0.500071
N55	N	-0.403199	-0.173147	0.000066
N56	N	0.096801	0.326853	0.500066
C57	C	-0.919555	-0.273089	0.000048
C58	C	-0.419555	0.226911	0.500048
C59	C	-0.920829	-0.350267	0.000036
C60	C	-0.420829	0.149733	0.500036
N61	N	-0.925700	-0.146432	0.188734
N62	N	-0.425700	0.353568	0.688734
C63	C	-1.001466	0.097950	0.000100
C64	C	-0.501466	0.597950	0.500100
C65	C	-1.000269	0.170467	0.000088
C66	C	-0.500269	0.670467	0.500088
C67	C	-0.928225	0.202413	0.000081
C68	C	-0.428225	0.702413	0.500081
C69	C	-0.857374	0.161837	0.000067
C70	C	-0.357374	0.661837	0.500067
C71	C	-0.858573	0.089321	0.000071
C72	C	-0.358573	0.589321	0.500071
C73	C	-0.871584	0.314004	0.042494
C74	C	-0.371584	0.814004	0.542494
C75	C	-0.870387	0.386518	0.042494
C76	C	-0.370387	0.886518	0.542494
C77	C	-0.924524	0.426075	0.000064
C78	C	-0.424524	0.926075	0.500064
C79	C	-0.979870	0.393109	-0.042356
C80	C	-0.479870	0.893109	0.457644
C81	C	-0.981069	0.320594	-0.042352
C82	C	-0.481069	0.820594	0.457648
C83	C	-0.926917	0.281044	0.000076
C84	C	-0.426917	0.781044	0.500076
C85	C	-0.994073	0.545274	0.000061
C86	C	-0.494073	1.045274	0.500061
C87	C	-0.992873	0.617792	0.000045
C88	C	-0.492873	1.117792	0.500045
C89	C	-0.849976	0.609160	0.000031
C90	C	-0.349976	1.109160	0.500031
C91	C	-0.851178	0.536643	0.000040
C92	C	-0.351178	1.036643	0.500040
C93	C	-0.923229	0.504705	0.000058
C94	C	-0.423229	1.004705	0.500058
N95	N	-0.925759	-0.146447	-0.188602
N96	N	-0.425759	0.353553	0.311398
C97	C	-0.979179	-0.102204	0.226846
C98	C	-0.479179	0.397796	0.726846
C99	C	-0.979184	-0.102201	0.303074
C100	C	-0.479184	0.397799	0.803074
C101	C	-0.925717	-0.146439	0.341187
C102	C	-0.425717	0.353561	0.841187
C103	C	-0.872228	-0.190670	0.303066
C104	C	-0.372228	0.309330	0.803066
C105	C	-0.872219	-0.190667	0.226840
C106	C	-0.372219	0.309333	0.726840
C107	C	-0.915223	-0.209115	0.461937
C108	C	-0.415223	0.290885	0.961937
C109	C	-0.915237	-0.209120	0.538162
C110	C	-0.415237	0.290880	1.038162
C111	C	-0.925740	-0.146449	0.576295
C112	C	-0.425740	0.353551	1.076295
C113	C	-0.936245	-0.083772	0.538192
C114	C	-0.436245	0.416228	1.038192
C115	C	-0.936236	-0.083768	0.461966
C116	C	-0.436236	0.416232	0.961966
C117	C	-0.925721	-0.146447	0.423842
C118	C	-0.425721	0.353553	0.923842
C119	C	-0.979227	-0.102214	0.697061
C120	C	-0.479227	0.397786	1.197061
C121	C	-0.979227	-0.102209	0.773290
C122	C	-0.479227	0.397791	1.273290
C123	C	-0.872274	-0.190685	0.773281
C124	C	-0.372274	0.309315	1.273281
C125	C	-0.872271	-0.190683	0.697053
C126	C	-0.372271	0.309317	1.197053
C127	C	-0.925752	-0.146448	0.658948
C128	C	-0.425752	0.353552	1.158948
H129	H	-0.670395	-0.250650	0.000025
H130	H	-0.170395	0.249350	0.500025
H131	H	-1.057959	0.203504	0.000094
H132	H	-0.557959	0.703504	0.500094
H133	H	-0.705129	-0.022974	0.000074
H134	H	-0.205129	0.477026	0.500074
Br135	Br	-1.056173	0.275856	-0.099923
Br136	Br	-0.556173	0.775856	0.400077
H137	H	-0.522066	-0.240072	0.000041
H138	H	-0.022066	0.259928	0.500041
Br139	Br	-0.539792	0.023249	0.000099
Br140	Br	-0.039792	0.523249	0.500099
H141	H	-0.800883	0.056291	0.000063
H142	H	-0.300883	0.556291	0.500063
Br143	Br	-0.799659	-0.250703	0.354788
Br144	Br	-0.299659	0.249297	0.854788
H145	H	-0.329384	-0.052807	0.000098
H146	H	0.170616	0.447193	0.500098
Br147	Br	-1.091854	0.501924	0.000094
Br148	Br	-0.591854	1.001924	0.500094
H149	H	-0.798715	0.187852	0.000059
H150	H	-0.298715	0.687852	0.500059
Br151	Br	-1.051769	-0.042170	0.354806
Br152	Br	-0.551769	0.457830	0.854806
H153	H	-1.050564	0.650821	0.000049
H154	H	-0.550564	1.150821	0.500049
H155	H	-1.022772	-0.066193	0.666035
H156	H	-0.522772	0.433807	1.166035
H157	H	-0.294660	-0.280485	0.000036
H158	H	0.205340	0.219515	0.500036
Br159	Br	-0.752200	0.652507	0.000014
Br160	Br	-0.252200	1.152507	0.500014
Br161	Br	-1.053347	0.446784	-0.099944
Br162	Br	-0.553347	0.946784	0.400056
H163	H	-0.828669	-0.226684	0.195808
H164	H	-0.328669	0.273316	0.695808
Br165	Br	-0.118933	-0.302390	0.000047
Br166	Br	0.381067	0.197610	0.500047
Br167	Br	-0.900990	-0.294180	0.589865
Br168	Br	-0.400990	0.205820	1.089865
H169	H	-1.060135	0.071951	0.000113
H170	H	-0.560135	0.571951	0.500113
Br171	Br	-0.164050	-0.006586	0.000124
Br172	Br	0.335950	0.493414	0.500124
H173	H	-0.944787	-0.032734	0.430946
H174	H	-0.444787	0.467266	0.930946
Br175	Br	-0.755029	0.481583	0.000026
Br176	Br	-0.255029	0.981583	0.500026
H177	H	-0.825318	0.413353	0.077032
H178	H	-0.325318	0.913353	0.577032
Br179	Br	-0.798106	0.260327	0.100084
Br180	Br	-0.298106	0.760327	0.600084
H181	H	-1.022725	-0.066183	0.195823
H182	H	-0.522725	0.433817	0.695823
H183	H	-0.944796	-0.032739	0.569238
H184	H	-0.444796	0.467261	1.069238
H185	H	-1.022774	-0.066190	0.804322
H186	H	-0.522774	0.433810	1.304322
Br187	Br	-0.799703	-0.250715	0.825000
Br188	Br	-0.299703	0.249285	1.325000
H189	H	-0.828726	-0.226701	0.666021
H190	H	-0.328726	0.273299	1.166021
Br191	Br	-0.901047	-0.294183	0.410194
Br192	Br	-0.401047	0.205817	0.910194
