data_functionalizedCrystal
_audit_creation_method	'MofGen! by Chris Wilmer'
_symmetry_space_group_name_H-M	'P1'
_symmetry_Int_Tables_number	1
_symmetry_cell_setting	triclinic
loop_
_symmetry_equiv_pos_as_xyz
  x,y,z
_cell_length_a	19.805407
_cell_length_b	16.625546
_cell_length_c	19.805399
_cell_angle_alpha	89.972133
_cell_angle_beta	89.980427
_cell_angle_gamma	90.022468
loop_
_atom_site_label
_atom_site_type_symbol
_atom_site_fract_x
_atom_site_fract_y
_atom_site_fract_z
Zn1	Zn	1.034754	-0.321020	-0.382718
Zn2	Zn	1.034677	-0.455857	-0.269529
Zn3	Zn	0.921569	-0.321043	-0.269543
Zn4	Zn	0.921540	-0.455815	-0.382676
O5	O	0.978135	-0.388434	-0.326117
O6	O	1.129461	-0.338915	-0.367716
O7	O	1.019652	-0.438001	-0.174815
O8	O	0.936628	-0.208207	-0.284579
O9	O	1.129404	-0.437980	-0.284556
O10	O	1.019784	-0.208191	-0.367729
O11	O	0.936553	-0.338953	-0.174825
O12	O	0.826848	-0.338912	-0.284538
O13	O	0.936579	-0.437907	-0.477398
O14	O	0.826827	-0.437928	-0.367657
O15	O	1.019756	-0.338874	-0.477429
O16	O	1.019625	-0.568684	-0.284515
O17	O	0.936504	-0.568653	-0.367644
C18	C	0.802279	-0.388418	-0.326095
C19	C	0.727047	-0.388431	-0.326102
C20	C	0.691710	-0.440067	-0.369311
C21	C	0.621021	-0.440068	-0.369321
C22	C	0.585671	-0.388437	-0.326117
C23	C	0.621014	-0.336796	-0.282905
C24	C	0.691701	-0.336791	-0.282899
C25	C	0.335941	-0.336814	-0.282927
C26	C	0.265248	-0.336825	-0.282935
C27	C	0.265261	-0.440091	-0.369349
C28	C	0.335948	-0.440086	-0.369343
C29	C	0.371284	-0.388442	-0.326134
C30	C	0.447932	-0.388440	-0.326125
C31	C	0.509024	-0.388443	-0.326122
C32	C	0.978071	-0.597925	-0.326088
C33	C	0.978105	-0.687546	-0.326099
C34	C	0.978224	-1.015721	-0.326169
C35	C	0.978189	-0.924413	-0.326152
C36	C	0.978164	-0.851636	-0.326134
C37	C	0.978130	-0.760322	-0.326117
C38	C	1.154678	-0.388450	-0.326139
C39	C	1.229910	-0.388457	-0.326149
C40	C	0.978173	-0.388383	-0.502660
C41	C	0.978189	-0.388361	-0.577892
C42	C	0.978218	-0.178125	-0.326160
C43	C	0.978253	-0.088504	-0.326178
C44	C	1.021501	-0.336792	-0.613253
C45	C	1.021508	-0.336769	-0.683941
C46	C	0.978206	-0.388319	-0.719267
C47	C	0.934889	-0.439890	-0.683901
C48	C	0.934880	-0.439909	-0.613214
C49	C	0.934928	-0.439815	-0.968974
C50	C	0.934942	-0.439794	-1.039667
C51	C	1.021556	-0.336675	-1.039702
C52	C	1.021546	-0.336694	-0.969015
C53	C	0.978227	-0.388262	-0.933655
C54	C	0.978219	-0.388285	-0.857006
C55	C	0.978217	-0.388300	-0.795914
C56	C	0.978136	-0.388426	-0.150261
C57	C	0.978251	-0.388221	-0.075029
H58	H	0.720472	-0.294740	-0.247717
O59	O	0.726075	-0.490307	-0.411184
C60	C	0.766946	-0.542311	-0.372571
H61	H	0.745621	-0.547212	-0.319256
H62	H	0.820525	-0.517374	-0.370274
C63	C	0.794211	-0.620162	-0.470997
C64	C	0.768017	-0.626187	-0.405516
H65	H	0.794875	-0.671900	-0.491320
H66	H	0.766678	-0.585124	-0.497013
H67	H	0.838858	-0.599378	-0.469074
H68	H	0.723368	-0.646960	-0.407441
H69	H	0.795543	-0.661230	-0.379502
H70	H	0.899665	-0.481817	-0.940193
O71	O	1.063587	-0.286640	-0.579045
C72	C	1.101827	-0.241133	-0.625418
H73	H	1.074111	-0.238326	-0.675801
H74	H	1.153222	-0.270661	-0.632940
C75	C	1.145654	-0.158771	-0.535971
C76	C	1.111609	-0.155319	-0.597851
H77	H	1.151691	-0.105839	-0.518966
H78	H	1.119893	-0.189432	-0.504728
H79	H	1.188479	-0.183382	-0.542248
H80	H	1.068781	-0.130718	-0.591572
H81	H	1.137363	-0.124652	-0.629092
H82	H	0.364726	-0.482132	-0.404522
H83	H	1.056826	-0.294683	-1.068501
O84	O	1.063482	-0.286582	-0.718316
C85	C	1.024971	-0.234497	-0.759213
H86	H	0.971660	-0.229528	-0.737901
H87	H	1.022640	-0.259400	-0.812784
C88	C	1.123542	-0.156778	-0.786484
C89	C	1.058067	-0.150670	-0.760306
H90	H	1.143958	-0.105071	-0.787162
H91	H	1.149489	-0.191870	-0.758934
H92	H	1.121590	-0.177534	-0.831124
H93	H	1.060020	-0.129925	-0.715664
H94	H	1.032121	-0.115572	-0.787849
H95	H	1.056809	-0.294719	-0.940256
H96	H	0.592253	-0.482116	-0.404506
H97	H	0.899678	-0.481774	-1.068427
O98	O	0.892888	-0.489939	-0.718319
C99	C	0.902172	-0.478853	-0.788292
H100	H	0.954419	-0.452450	-0.797963
H101	H	0.862045	-0.435904	-0.808354
C102	C	0.831769	-0.592853	-0.812686
C103	C	0.895942	-0.560432	-0.824564
H104	H	0.827923	-0.643174	-0.835061
H105	H	0.825511	-0.600321	-0.765544
H106	H	0.798337	-0.557055	-0.829404
H107	H	0.929372	-0.596225	-0.807839
H108	H	0.902205	-0.552972	-0.871705
H109	H	0.236481	-0.482139	-0.404534
H110	H	0.899604	-0.481894	-0.584423
H111	H	0.364703	-0.294769	-0.247739
O112	O	0.231013	-0.286587	-0.240946
C113	C	0.277359	-0.241016	-0.202796
H114	H	0.327760	-0.238262	-0.230518
H115	H	0.284847	-0.270455	-0.151342
C116	C	0.187880	-0.158572	-0.159132
C117	C	0.249783	-0.155184	-0.193183
H118	H	0.170870	-0.105627	-0.153199
H119	H	0.156656	-0.189276	-0.184832
H120	H	0.194129	-0.183108	-0.116258
H121	H	0.243532	-0.130658	-0.236060
H122	H	0.281006	-0.124474	-0.167490
H123	H	0.592226	-0.294754	-0.247730
