data_functionalizedCrystal
_audit_creation_method	'MofGen! by Chris Wilmer'
_symmetry_space_group_name_H-M	'P1'
_symmetry_Int_Tables_number	1
_symmetry_cell_setting	triclinic
loop_
_symmetry_equiv_pos_as_xyz
  x,y,z
_cell_length_a	12.376457
_cell_length_b	11.026607
_cell_length_c	11.026607
_cell_angle_alpha	71.413983
_cell_angle_beta	103.801422
_cell_angle_gamma	103.813714
loop_
_atom_site_label
_atom_site_type_symbol
_atom_site_fract_x
_atom_site_fract_y
_atom_site_fract_z
O1	O	-0.094003	-1.745836	0.514537
O2	O	-0.094004	-1.379256	0.453773
O3	O	-0.094000	-1.532163	0.300866
O4	O	-0.094007	-1.592928	0.667445
O5	O	0.094011	-1.493939	0.339030
O6	O	0.094006	-1.341032	0.491937
O7	O	0.094008	-1.707612	0.552701
Zn8	Zn	0.123858	-1.518253	0.528379
Zn9	Zn	-0.123854	-1.568615	0.478096
O10	O	0.094003	-1.554705	0.705608
C11	C	0.000001	-1.312485	0.461646
C12	C	0.000000	-1.170471	0.428228
N13	N	0.292915	-1.483892	0.562696
N14	N	-0.292912	-1.602984	0.443770
C15	C	0.647907	-1.682742	0.364082
C16	C	0.529568	-1.706785	0.340062
C17	C	0.470399	-1.651063	0.395718
C18	C	0.529581	-1.571296	0.475400
C19	C	0.647931	-1.547259	0.499431
C20	C	0.470423	-1.515580	0.531067
C21	C	0.529605	-1.435813	0.610749
C22	C	0.647944	-1.411779	0.634776
C23	C	0.707113	-1.467501	0.579119
C24	C	0.352073	-1.539617	0.507035
C25	C	0.352097	-1.404133	0.642384
C26	C	0.470436	-1.380091	0.666405
C27	C	0.000004	-1.501842	0.272288
C28	C	0.000000	-1.468426	0.130273
C29	C	0.000001	-1.774384	0.544829
C30	C	-0.000006	-1.916399	0.578244
C31	C	-0.000003	-1.116822	0.520497
C32	C	-0.000003	-0.970043	0.485962
C33	C	-0.000001	-1.560696	0.076624
C34	C	-0.000005	-1.526161	-0.070156
C35	C	-0.000003	-1.585026	0.734186
C36	C	-0.000006	-1.618444	0.876199
H37	H	0.303897	-1.604564	0.442159
Cl38	Cl	-0.000003	-1.213667	0.681940
Cl39	Cl	0.321627	-1.681285	0.365515
Cl40	Cl	0.000012	-1.073623	0.266788
Cl41	Cl	0.000008	-0.873200	0.324515
H42	H	0.000007	-1.665257	0.139359
H43	H	-0.000091	-1.723031	-0.061091
H44	H	0.481386	-1.771732	0.275187
Cl45	Cl	0.722291	-1.752797	0.294135
H46	H	0.803475	-1.447922	0.598672
H47	H	-0.000013	-1.421593	-0.132886
H48	H	-0.000008	-1.363864	0.067539
H49	H	0.518637	-1.315143	0.731285
Cl50	Cl	0.722346	-1.311519	0.734964
Cl51	Cl	0.000006	-1.013234	0.739697
Cl52	Cl	0.277721	-1.334085	0.712362
