data_functionalizedCrystal
_audit_creation_method	'MofGen! by Chris Wilmer'
_symmetry_space_group_name_H-M	'P1'
_symmetry_Int_Tables_number	1
_symmetry_cell_setting	triclinic
loop_
_symmetry_equiv_pos_as_xyz
  x,y,z
_cell_length_a	16.959455
_cell_length_b	29.839131
_cell_length_c	16.959447
_cell_angle_alpha	89.966085
_cell_angle_beta	89.985678
_cell_angle_gamma	90.038367
loop_
_atom_site_label
_atom_site_type_symbol
_atom_site_fract_x
_atom_site_fract_y
_atom_site_fract_z
Zn1	Zn	1.208267	-0.178881	-0.446889
Zn2	Zn	1.208140	-0.254014	-0.314702
Zn3	Zn	1.076095	-0.178895	-0.314726
Zn4	Zn	1.076010	-0.253981	-0.446841
O5	O	1.142128	-0.216443	-0.380790
O6	O	1.318861	-0.188856	-0.429364
O7	O	1.190606	-0.244070	-0.204094
O8	O	1.093716	-0.116026	-0.332288
O9	O	1.318767	-0.244056	-0.332247
O10	O	1.190822	-0.116016	-0.429388
O11	O	1.093593	-0.188880	-0.204112
O12	O	0.965473	-0.188847	-0.332242
O13	O	1.093572	-0.243999	-0.557458
O14	O	0.965411	-0.244012	-0.429305
O15	O	1.190740	-0.188823	-0.557493
O16	O	1.190524	-0.316877	-0.332200
O17	O	1.093449	-0.316852	-0.429282
C18	C	0.936762	-0.216428	-0.380771
C19	C	0.848905	-0.216433	-0.380782
C20	C	1.141985	-0.333165	-0.380750
C21	C	1.141996	-0.383100	-0.380760
C22	C	0.477437	-0.187695	-0.330354
C23	C	0.477421	-0.245228	-0.431270
C24	C	0.559967	-0.245221	-0.431265
C25	C	0.601252	-0.216452	-0.380803
C26	C	0.559991	-0.187688	-0.330346
C27	C	0.601235	-0.273987	-0.481716
C28	C	0.683786	-0.273982	-0.481713
C29	C	0.725072	-0.245210	-0.431254
C30	C	0.683806	-0.216445	-0.380795
C31	C	0.725090	-0.187676	-0.330333
C32	C	0.683826	-0.158908	-0.279878
C33	C	0.601277	-0.158916	-0.279887
C34	C	0.807620	-0.245202	-0.431245
C35	C	0.807644	-0.187669	-0.330325
C36	C	1.192767	-0.692743	-0.330313
C37	C	1.192864	-0.880416	-0.330344
O38	O	1.235918	-0.904681	-0.287422
N39	N	1.142292	-0.903885	-0.380849
C40	C	1.091695	-0.880432	-0.431354
O41	O	1.048688	-0.904700	-0.474319
C42	C	1.091602	-0.692760	-0.431327
C43	C	1.142172	-0.669294	-0.380812
C44	C	1.243333	-0.669277	-0.279803
C45	C	1.243305	-0.622362	-0.279793
C46	C	1.192711	-0.598913	-0.330293
C47	C	1.142144	-0.622379	-0.380802
C48	C	1.041010	-0.669308	-0.481835
C49	C	1.040992	-0.622387	-0.481826
C50	C	1.091563	-0.598921	-0.431311
C51	C	1.091522	-0.552014	-0.431292
N52	N	1.142094	-0.528545	-0.380786
C53	C	1.192689	-0.551995	-0.330287
C54	C	1.091746	-0.978963	-0.431364
C55	C	1.091768	-1.025881	-0.431370
C56	C	1.192939	-1.025862	-0.330360
C57	C	1.192912	-0.978943	-0.330351
C58	C	1.142319	-0.955494	-0.380858
C59	C	1.192626	-0.453469	-0.330268
C60	C	1.192591	-0.406549	-0.330260
C61	C	1.091424	-0.406572	-0.431273
C62	C	1.091455	-0.453488	-0.431278
C63	C	1.142063	-0.476935	-0.380773
O64	O	1.048497	-0.527720	-0.474197
O65	O	1.235702	-0.527719	-0.287341
C66	C	1.192795	-0.739659	-0.330323
C67	C	1.142228	-0.763125	-0.380833
C68	C	1.091633	-0.739675	-0.431332
C69	C	1.142250	-0.810043	-0.380839
C70	C	1.192845	-0.833492	-0.330339
C71	C	1.243417	-0.810024	-0.279834
C72	C	1.243389	-0.763108	-0.279824
C73	C	1.041061	-0.763144	-0.481838
C74	C	1.041092	-0.810059	-0.481843
C75	C	1.091687	-0.833509	-0.431344
C76	C	1.348296	-0.216458	-0.380808
C77	C	1.436153	-0.216465	-0.380816
C78	C	1.142161	-0.216406	-0.586958
C79	C	1.142175	-0.216390	-0.674814
C80	C	1.142293	-0.099264	-0.380846
C81	C	1.142363	-0.049330	-0.380870
C82	C	1.091678	-0.245070	-1.046274
C83	C	1.192860	-0.187615	-1.046306
C84	C	1.192839	-0.187625	-0.963760
C85	C	1.142238	-0.216358	-0.922468
C86	C	1.091657	-0.245081	-0.963721
C87	C	1.243424	-0.158905	-0.922501
C88	C	1.243406	-0.158914	-0.839950
C89	C	1.192800	-0.187645	-0.798656
C90	C	1.142217	-0.216369	-0.839914
C91	C	1.091615	-0.245102	-0.798621
C92	C	1.041028	-0.273824	-0.839878
C93	C	1.041051	-0.273812	-0.922426
C94	C	1.192776	-0.187657	-0.716107
C95	C	1.091594	-0.245113	-0.716068
C96	C	1.142141	-0.216447	-0.175423
C97	C	1.142280	-0.216337	-0.087567
H98	H	0.841252	-0.164238	-0.289237
O99	O	0.561315	-0.130935	-0.230848
C100	C	0.570039	-0.073891	-0.130711
C101	C	0.615397	-0.105547	-0.186222
H102	H	0.613744	-0.053363	-0.094604
H103	H	0.531443	-0.050399	-0.167039
H104	H	0.531340	-0.094501	-0.089354
H105	H	0.654139	-0.084972	-0.227590
H106	H	0.653943	-0.129039	-0.149845
H107	H	0.443836	-0.164272	-0.289277
H108	H	0.717450	-0.135486	-0.238788
O109	O	1.042355	-0.272962	-0.675926
C110	C	0.935637	-0.279018	-0.582687
C111	C	0.991338	-0.247427	-0.628109
H112	H	0.894387	-0.258386	-0.544004
H113	H	0.899433	-0.299534	-0.626323
H114	H	0.971901	-0.302528	-0.544064
H115	H	0.955135	-0.223890	-0.666733
H116	H	1.027545	-0.226943	-0.584431
H117	H	1.050228	-0.387473	-0.472387
H118	H	0.443803	-0.268653	-0.472350
O119	O	1.241680	-0.383805	-0.281080
C120	C	1.280100	-0.369466	-0.146654
C121	C	1.224472	-0.395258	-0.202259
H122	H	1.266196	-0.378710	-0.082915
H123	H	1.343845	-0.378659	-0.160531
H124	H	1.271407	-0.331906	-0.155357
H125	H	1.233095	-0.432824	-0.193587
H126	H	1.160748	-0.386028	-0.188368
H127	H	0.567615	-0.297413	-0.522794
O128	O	0.723744	-0.301937	-0.530801
C129	C	0.715009	-0.359021	-0.630867
C130	C	0.669657	-0.327380	-0.575326
H131	H	0.671300	-0.379606	-0.666868
H132	H	0.753665	-0.338442	-0.672315
H133	H	0.753648	-0.382464	-0.594489
H134	H	0.630976	-0.303931	-0.611641
H135	H	0.631052	-0.347987	-0.533876
H136	H	1.233837	-0.472554	-0.289144
O137	O	1.292512	-0.599640	-0.230706
C138	C	1.392839	-0.604590	-0.130499
C139	C	1.337158	-0.630375	-0.186061
H140	H	1.428938	-0.629428	-0.094377
H141	H	1.434189	-0.582603	-0.166787
H142	H	1.356564	-0.582647	-0.089158
H143	H	1.373369	-0.652343	-0.227413
H144	H	1.295805	-0.652334	-0.149723
O145	O	1.292614	-0.692057	-0.230880
C146	C	1.399423	-0.744940	-0.220406
C147	C	1.343646	-0.719177	-0.275894
H148	H	1.440685	-0.766880	-0.256777
H149	H	1.435610	-0.720105	-0.184358
H150	H	1.363220	-0.766933	-0.178992
H151	H	1.379788	-0.697183	-0.317356
H152	H	1.307456	-0.744036	-0.311886
O153	O	1.292649	-0.130981	-0.962489
C154	C	1.392974	-0.073975	-0.953820
C155	C	1.337280	-0.105586	-0.908431
H156	H	1.429061	-0.053428	-0.910134
H157	H	1.434334	-0.094577	-0.992437
H158	H	1.356710	-0.050496	-0.992499
H159	H	1.373481	-0.129072	-0.869709
H160	H	1.295918	-0.084956	-0.869864
O161	O	1.242113	-0.956219	-0.281259
C162	C	1.342422	-0.961166	-0.181034
C163	C	1.286753	-0.986952	-0.236604
H164	H	1.378517	-0.986002	-0.144904
H165	H	1.383777	-0.939177	-0.217316
H166	H	1.306138	-0.939222	-0.139700
H167	H	1.322973	-1.008920	-0.277949
H168	H	1.245396	-1.008912	-0.200273
O169	O	1.242086	-0.159691	-1.086293
C170	C	1.342404	-0.102682	-1.077619
C171	C	1.286709	-0.134293	-1.032233
H172	H	1.378485	-0.082132	-1.033932
H173	H	1.383771	-0.123283	-1.116230
H174	H	1.306142	-0.079205	-1.116305
H175	H	1.322908	-0.157776	-0.993504
H176	H	1.245340	-0.113663	-0.993672
O177	O	0.991901	-0.301693	-0.799640
C178	C	0.947078	-0.327191	-0.672445
C179	C	1.002737	-0.295601	-0.717919
H180	H	0.955831	-0.322283	-0.606366
H181	H	0.883337	-0.319294	-0.688612
H182	H	0.960899	-0.363410	-0.688701
H183	H	0.988987	-0.259371	-0.701688
H184	H	1.066461	-0.303537	-0.701748
O185	O	1.241887	-0.159803	-0.675909
C186	C	1.286668	-0.134339	-0.548753
C187	C	1.231020	-0.165916	-0.594178
H188	H	1.277889	-0.139263	-0.482666
H189	H	1.350413	-0.142236	-0.564918
H190	H	1.272858	-0.098115	-0.565055
H191	H	1.244758	-0.202150	-0.577901
H192	H	1.167291	-0.157980	-0.578009
O193	O	1.242110	-1.048714	-0.281426
C194	C	1.287049	-1.120992	-0.236763
C195	C	1.231306	-1.095165	-0.292194
H196	H	1.278322	-1.158552	-0.245438
H197	H	1.350766	-1.111743	-0.250771
H198	H	1.273288	-1.111795	-0.172996
H199	H	1.244996	-1.104348	-0.355980
H200	H	1.167606	-1.104416	-0.278119
O201	O	1.292500	-0.131046	-0.799755
C202	C	1.337237	-0.105555	-0.672601
C203	C	1.281624	-0.137152	-0.718024
H204	H	1.328452	-0.110475	-0.606513
H205	H	1.400992	-0.113436	-0.688753
H206	H	1.323399	-0.069337	-0.688917
H207	H	1.295391	-0.173381	-0.701732
H208	H	1.217886	-0.129233	-0.701868
O209	O	1.042613	-1.048603	-0.480508
C210	C	0.942235	-1.043657	-0.580664
C211	C	0.997873	-1.017871	-0.525063
H212	H	0.906036	-1.018821	-0.616690
H213	H	0.978468	-1.065575	-0.622087
H214	H	0.900969	-1.065672	-0.544332
H215	H	1.039150	-0.995832	-0.561332
H216	H	0.961591	-0.995982	-0.483638
H217	H	1.284568	-0.744006	-0.238690
O218	O	1.042704	-0.956169	-0.480511
C219	C	1.031949	-0.903151	-0.587192
C220	C	1.087583	-0.928942	-0.531599
H221	H	1.068210	-0.881125	-0.628499
H222	H	0.995825	-0.927969	-0.623340
H223	H	0.990612	-0.881242	-0.550847
H224	H	1.128967	-0.950851	-0.567883
H225	H	1.123651	-0.904100	-0.495448
H226	H	0.999826	-0.688406	-0.522966
H227	H	0.841214	-0.268625	-0.472322
H228	H	0.999905	-0.829161	-0.522978
O229	O	0.991772	-0.599679	-0.530918
C230	C	0.891477	-0.604654	-0.631154
C231	C	0.947163	-0.630425	-0.575586
H232	H	0.855408	-0.629500	-0.667295
H233	H	0.850098	-0.582737	-0.594870
H234	H	0.927745	-0.582641	-0.672477
H235	H	0.910959	-0.652463	-0.534252
H236	H	0.988544	-0.652313	-0.611920
H237	H	1.050279	-0.472595	-0.472414
H238	H	1.284611	-0.829124	-0.238713
O239	O	0.991832	-0.740438	-0.530917
C240	C	0.891512	-0.745420	-0.631127
C241	C	0.947220	-0.771187	-0.575574
H242	H	0.855440	-0.770269	-0.667259
H243	H	0.850138	-0.723507	-0.594831
H244	H	0.927763	-0.723403	-0.672459
H245	H	0.911032	-0.793228	-0.534232
H246	H	0.988596	-0.793071	-0.611920
H247	H	0.999868	-0.297198	-0.956025
O248	O	1.042614	-0.272955	-1.086468
C249	C	0.997757	-0.298381	-1.213620
C250	C	1.053375	-0.266786	-1.168199
H251	H	1.006426	-0.293398	-1.279708
H252	H	1.011584	-0.334620	-1.197427
H253	H	0.934039	-0.290494	-1.197341
H254	H	1.117113	-0.274633	-1.184453
H255	H	1.039481	-0.230557	-1.184396
