data_functionalizedCrystal
_audit_creation_method	'MofGen! by Chris Wilmer'
_symmetry_space_group_name_H-M	'P1'
_symmetry_Int_Tables_number	1
_symmetry_cell_setting	triclinic
loop_
_symmetry_equiv_pos_as_xyz
  x,y,z
_cell_length_a	18.627244
_cell_length_b	18.627297
_cell_length_c	18.627226
_cell_angle_alpha	59.997322
_cell_angle_beta	90.001859
_cell_angle_gamma	119.999538
loop_
_atom_site_label
_atom_site_type_symbol
_atom_site_fract_x
_atom_site_fract_y
_atom_site_fract_z
O1	O	0.492480	0.513843	-1.125730
O2	O	0.388084	0.366833	-0.874324
O3	O	0.388083	0.513840	-1.021327
O4	O	0.492481	0.366836	-0.978726
O5	O	0.507485	0.633240	-1.021327
O6	O	0.507486	0.486233	-0.874324
O7	O	0.611882	0.633243	-1.125729
Zn8	Zn	0.578642	0.578695	-1.000027
Zn9	Zn	0.421324	0.421381	-1.000027
O10	O	0.611883	0.486236	-0.978726
C11	C	0.386981	0.774038	-1.031022
C12	C	0.431281	0.862638	-1.024926
C13	C	0.300582	0.731044	-1.031630
C14	C	0.386981	0.644038	-1.031022
C15	C	0.431282	0.593641	-1.024926
C16	C	0.300583	0.601241	-1.031630
C17	C	0.256981	0.644038	-1.031022
C18	C	0.162284	0.593642	-1.024926
C19	C	0.430385	0.731043	-1.031630
O20	O	-0.125714	0.366838	-0.978727
O21	O	0.125684	0.513842	-1.021327
O22	O	-0.021312	0.366835	-0.874324
O23	O	0.021283	0.513845	-1.125730
O24	O	-0.021316	0.486235	-0.874324
O25	O	0.125681	0.633242	-1.021327
O26	O	-0.125717	0.486238	-0.978726
Zn27	Zn	-0.000019	0.578697	-1.000027
Zn28	Zn	-0.000014	0.421383	-1.000027
O29	O	0.021280	0.633244	-1.125729
C30	C	0.612976	0.644049	-1.387035
C31	C	0.568675	0.593655	-1.431336
C32	C	0.699375	0.731056	-1.430441
C33	C	0.612980	0.644044	-1.257032
C34	C	0.568681	0.593644	-1.162332
C35	C	0.699378	0.731051	-1.300635
C36	C	0.742978	0.774048	-1.387036
C37	C	0.837674	0.862649	-1.431337
C38	C	0.569574	0.601250	-1.300634
C39	C	0.742986	0.356040	-0.969031
C40	C	0.837683	0.406437	-0.975128
C41	C	0.699385	0.269034	-0.968423
C42	C	0.612985	0.356039	-0.969031
C43	C	0.568684	0.406436	-0.975128
C44	C	0.569582	0.269034	-0.968423
C45	C	0.612987	0.226040	-0.969031
C46	C	0.568688	0.137440	-0.975127
C47	C	0.699384	0.398836	-0.968424
O48	O	0.492486	1.104439	-0.978726
O49	O	0.388082	0.895642	-1.021327
O50	O	0.388086	0.895636	-0.874324
O51	O	0.492482	1.104445	-1.125729
O52	O	0.507487	0.895632	-0.874324
O53	O	0.507483	0.895639	-1.021327
O54	O	0.611887	1.104435	-0.978726
Zn55	Zn	0.578642	1.000037	-1.000027
Zn56	Zn	0.421327	1.000041	-1.000026
O57	O	0.611883	1.104442	-1.125729
O58	O	1.125679	1.104427	-1.492529
O59	O	0.874277	0.895650	-1.388137
O60	O	1.021264	0.895624	-1.388127
O61	O	0.978692	1.104453	-1.492539
O62	O	1.021261	0.895630	-1.507532
O63	O	0.874274	0.895655	-1.507542
O64	O	1.125676	1.104433	-1.611934
Zn65	Zn	0.999975	1.000045	-1.578696
Zn66	Zn	0.999979	1.000038	-1.421375
O67	O	0.978689	1.104458	-1.611944
O68	O	0.507482	0.486240	-1.611926
O69	O	0.611876	0.633252	-1.507537
O70	O	0.611871	0.486237	-1.507511
O71	O	0.507487	0.633255	-1.611952
O72	O	0.492464	0.366844	-1.388113
O73	O	0.492469	0.513859	-1.388139
O74	O	0.388075	0.366847	-1.492528
Zn75	Zn	0.421314	0.421397	-1.421377
Zn76	Zn	0.578637	0.578702	-1.578688
O77	O	0.388080	0.513862	-1.492554
C78	C	0.256977	0.226046	-0.613027
C79	C	0.162279	0.137448	-0.568728
C80	C	0.300578	0.269041	-0.569623
C81	C	0.386980	0.356041	-0.743026
C82	C	0.431282	0.406434	-0.837722
C83	C	0.430383	0.398838	-0.699424
C84	C	0.386977	0.356045	-0.613027
C85	C	0.431277	0.406443	-0.568728
C86	C	0.300580	0.269037	-0.699424
C87	C	-0.031008	0.356023	-0.613017
C88	C	-0.024913	0.406416	-0.568714
C89	C	-0.031612	0.269017	-0.569612
C90	C	-0.031007	0.356031	-0.743022
C91	C	-0.024912	0.406433	-0.837721
C92	C	-0.031612	0.269025	-0.699420
C93	C	-0.031003	0.226026	-0.613019
C94	C	-0.024904	0.137425	-0.568719
C95	C	-0.031616	0.398824	-0.699418
C96	C	0.030971	0.774047	-1.387037
C97	C	0.024872	0.862648	-1.431340
C98	C	0.031579	0.731054	-1.430441
C99	C	0.030975	0.644044	-1.257032
C100	C	0.024880	0.593646	-1.162332
C101	C	0.031583	0.601248	-1.300633
C102	C	0.030975	0.644047	-1.387034
C103	C	0.024879	0.593651	-1.431334
C104	C	0.031580	0.731051	-1.300636
C105	C	0.386993	0.644019	-0.613020
C106	C	0.431295	0.593620	-0.568720
C107	C	0.300596	0.601221	-0.569612
C108	C	0.386989	0.774025	-0.743022
C109	C	0.431286	0.862629	-0.837721
C110	C	0.300591	0.731029	-0.699417
C111	C	0.256992	0.644020	-0.613016
C112	C	0.162297	0.593622	-0.568713
C113	C	0.430395	0.731029	-0.699421
O114	O	0.021310	0.513817	-0.388115
O115	O	-0.021313	0.366812	-0.492510
O116	O	0.125695	0.513811	-0.492520
O117	O	-0.125698	0.366818	-0.388105
O118	O	0.125691	0.633217	-0.611923
O119	O	-0.021317	0.486218	-0.611913
O120	O	0.021305	0.633223	-0.507519
Zn121	Zn	-0.000006	0.578679	-0.578674
Zn122	Zn	-0.000001	0.421356	-0.421354
O123	O	-0.125702	0.486224	-0.507509
C124	C	0.742986	1.356058	-1.387033
C125	C	0.837676	1.406437	-1.431338
C126	C	0.699396	1.398881	-1.430430
C127	C	0.612989	1.226063	-1.257028
C128	C	0.568685	1.137451	-1.162331
C129	C	0.569596	1.269083	-1.300623
C130	C	0.613005	1.356099	-1.387020
C131	C	0.568720	1.406522	-1.431313
C132	C	0.699379	1.269042	-1.300635
H133	H	0.265576	0.531221	-1.032594
O134	O	0.258793	0.773896	-1.032648
C135	C	0.254420	0.774359	-0.957328
H136	H	0.260081	0.712789	-0.903696
H137	H	0.188977	0.759073	-0.932722
H138	H	0.310664	0.851586	-0.974659
O139	O	0.032640	0.517650	-1.258752
C140	C	-0.042702	0.437477	-1.182993
H141	H	-0.068655	0.469859	-1.161171
H142	H	-0.024864	0.391513	-1.128022
H143	H	-0.095509	0.386230	-1.198523
O144	O	0.515020	0.773925	-1.032630
C145	C	0.519783	0.774279	-0.957255
H146	H	0.461457	0.770194	-0.931353
H147	H	0.583590	0.847043	-0.975033
H148	H	0.518154	0.705891	-0.904429
H149	H	0.734390	0.233044	-0.967429
H150	H	0.734405	1.468894	-1.501422
H151	H	0.734383	0.767026	-1.265623
O152	O	0.741118	1.226122	-1.258784
C153	C	0.745466	1.225597	-1.182970
H154	H	0.739859	1.287194	-1.190901
H155	H	0.810878	1.240798	-1.173604
H156	H	0.689179	1.148376	-1.123102
H157	H	0.734376	0.767037	-1.501431
O158	O	-0.032930	0.226028	-0.741159
C159	C	-0.109044	0.196972	-0.765547
H160	H	-0.161287	0.186335	-0.721669
H161	H	-0.135267	0.122570	-0.757624
H162	H	-0.092126	0.258514	-0.837067
O163	O	0.484849	0.517806	-1.258821
C164	C	0.431405	0.540509	-1.234493
H165	H	0.473534	0.607201	-1.229836
H166	H	0.378549	0.471425	-1.167952
H167	H	0.398914	0.561257	-1.286018
O168	O	0.032863	0.773964	-1.258824
C169	C	0.109013	0.803082	-1.234499
H170	H	0.133576	0.756295	-1.229841
H171	H	0.092790	0.789397	-1.167957
H172	H	0.162247	0.887097	-1.286024
H173	H	0.498593	0.233055	-0.967448
O174	O	0.258841	0.226233	-0.484964
C175	C	0.254417	0.297132	-0.480091
H176	H	0.308632	0.377306	-0.538400
H177	H	0.263398	0.288246	-0.416268
H178	H	0.187646	0.283177	-0.481664
H179	H	0.734391	0.468846	-0.967443
O180	O	-0.032659	0.226071	-0.484960
C181	C	0.042680	0.225644	-0.480152
H182	H	0.068615	0.229780	-0.538498
H183	H	0.024845	0.152830	-0.416360
H184	H	0.095500	0.293975	-0.481711
O185	O	0.515034	0.482439	-0.741310
C186	C	0.519849	0.562601	-0.817071
H187	H	0.461511	0.530208	-0.838886
H188	H	0.583644	0.608564	-0.872045
H189	H	0.518287	0.613852	-0.801548
H190	H	0.265573	0.233047	-0.734425
H191	H	-0.032597	0.468836	-0.734420
H192	H	0.501387	0.767018	-0.734421
H193	H	0.032560	0.767044	-1.501433
O194	O	0.258874	0.773966	-0.741301
C195	C	0.254464	0.774378	-0.817058
H196	H	0.308669	0.770246	-0.838874
H197	H	0.263472	0.847185	-0.872033
H198	H	0.187687	0.706040	-0.801528
O199	O	0.258814	0.517589	-0.484973
C200	C	0.254451	0.437446	-0.480155
H201	H	0.260108	0.451060	-0.547389
H202	H	0.189013	0.362672	-0.429996
H203	H	0.310702	0.433800	-0.459183
H204	H	0.498636	1.233155	-1.265585
