data_functionalizedCrystal
_audit_creation_method	'MofGen! by Chris Wilmer'
_symmetry_space_group_name_H-M	'P1'
_symmetry_Int_Tables_number	1
_symmetry_cell_setting	triclinic
loop_
_symmetry_equiv_pos_as_xyz
  x,y,z
_cell_length_a	13.032721
_cell_length_b	11.169417
_cell_length_c	11.169409
_cell_angle_alpha	90.019824
_cell_angle_beta	97.146003
_cell_angle_gamma	82.795004
loop_
_atom_site_label
_atom_site_type_symbol
_atom_site_fract_x
_atom_site_fract_y
_atom_site_fract_z
Zn1	Zn	-0.415926	-1.774209	-0.739163
Zn2	Zn	-0.590714	-1.748568	-0.563955
Zn3	Zn	-0.415989	-1.573486	-0.538507
Zn4	Zn	-0.590629	-1.547984	-0.764588
O5	O	-0.503314	-1.661062	-0.651553
O6	O	-0.439121	-1.938756	-0.715931
O7	O	-0.567598	-1.725284	-0.392639
O8	O	-0.269744	-1.621516	-0.543834
O9	O	-0.567537	-1.919918	-0.587207
O10	O	-0.269697	-1.768986	-0.691255
O11	O	-0.439229	-1.596652	-0.373942
O12	O	-0.439147	-1.402155	-0.568487
O13	O	-0.567392	-1.578052	-0.929156
O14	O	-0.567453	-1.383419	-0.734588
O15	O	-0.439038	-1.744259	-0.910477
O16	O	-0.736939	-1.700556	-0.611860
O17	O	-0.736877	-1.553189	-0.759264
C18	C	-0.503298	-1.349239	-0.651535
C19	C	-0.503317	-1.215837	-0.651560
C20	C	-0.774825	-1.621355	-0.691108
C21	C	-0.890979	-1.604479	-0.708070
C22	C	-0.503198	-1.661171	-0.964579
C23	C	-0.503149	-1.661217	-1.097972
C24	C	-0.942760	-1.669934	-0.642755
C25	C	-1.062811	-1.652492	-0.660284
C26	C	-0.230743	-1.700956	-0.611870
C27	C	-0.114589	-1.717956	-0.594959
C28	C	-0.503331	-1.974102	-0.651572
C29	C	-0.503338	-2.107501	-0.651580
C30	C	-0.503355	-1.661033	-0.339734
C31	C	-0.503110	-1.661262	-0.206299
H32	H	-0.898217	-1.738890	-0.573862
C33	C	-0.950308	-1.512694	-0.800134
C34	C	-0.923750	-1.542617	-0.915055
C35	C	-0.978390	-1.458101	-0.999898
H36	H	-0.932593	-1.434575	-0.780091
H37	H	-1.023113	-1.513201	-0.799789
H38	H	-0.850961	-1.542098	-0.915396
H39	H	-0.941468	-1.620721	-0.935136
H40	H	-1.051195	-1.458607	-0.999553
H41	H	-0.960671	-1.379987	-0.979843
H42	H	-0.960385	-1.478398	-1.077882
H43	H	-1.107352	-1.583541	-0.729190
H44	H	-1.070049	-1.786917	-0.526062
