data_functionalizedCrystal
_audit_creation_method	'MofGen! by Chris Wilmer'
_symmetry_space_group_name_H-M	'P1'
_symmetry_Int_Tables_number	1
_symmetry_cell_setting	triclinic
loop_
_symmetry_equiv_pos_as_xyz
  x,y,z
_cell_length_a	18.050591
_cell_length_b	11.169416
_cell_length_c	11.169409
_cell_angle_alpha	90.030874
_cell_angle_beta	90.031003
_cell_angle_gamma	90.003774
loop_
_atom_site_label
_atom_site_type_symbol
_atom_site_fract_x
_atom_site_fract_y
_atom_site_fract_z
Zn1	Zn	-1.135445	0.477920	-0.678913
Zn2	Zn	-1.135377	0.678661	-0.478235
Zn3	Zn	-1.011247	0.477967	-0.478208
Zn4	Zn	-1.011251	0.678537	-0.678841
O5	O	-1.073330	0.578271	-0.578549
O6	O	-1.239361	0.504581	-0.652334
O7	O	-1.118880	0.652110	-0.310281
O8	O	-1.027749	0.310011	-0.504851
O9	O	-1.239311	0.652064	-0.504897
O10	O	-1.118997	0.309977	-0.652308
O11	O	-1.027682	0.504661	-0.310262
O12	O	-0.907323	0.504541	-0.504781
O13	O	-1.027757	0.651853	-0.846800
O14	O	-0.907326	0.651899	-0.652185
O15	O	-1.119001	0.504461	-0.846853
O16	O	-1.118885	0.846594	-0.504827
O17	O	-1.027690	0.846503	-0.652211
C18	C	-0.880378	0.578212	-0.578473
C19	C	-0.797832	0.578216	-0.578469
C20	C	-0.548983	0.497979	-0.498479
C21	C	-0.598419	0.468735	-0.608011
C22	C	-0.500712	0.578252	-0.578542
C23	C	-0.598357	0.607422	-0.468980
C24	C	-0.646697	0.578232	-0.578500
C25	C	-0.549061	0.548952	-0.688132
C26	C	-0.548994	0.687690	-0.549027
C27	C	-0.598408	0.658487	-0.658635
C28	C	-0.416614	0.578261	-0.578564
C29	C	-0.730793	0.578223	-0.578490
C30	C	-1.073301	0.890096	-0.578540
C31	C	-1.073356	1.023496	-0.578576
C32	C	-1.073387	0.578138	-0.891592
C33	C	-1.073411	0.578081	-1.024992
C34	C	-0.267036	0.578310	-0.578605
C35	C	-0.349581	0.578271	-0.578575
C36	C	-1.073380	0.265229	-0.578585
C37	C	-1.073401	0.131829	-0.578600
C38	C	-1.073316	0.578317	-0.266724
C39	C	-1.073436	0.578036	-0.133325
H40	H	-0.620116	0.376173	-0.632980
H41	H	-0.527496	0.524163	-0.780796
H42	H	-0.619971	0.726363	-0.726402
H43	H	-0.527269	0.780221	-0.524041
O44	O	-0.624104	0.636736	-0.358376
C45	C	-0.598934	0.551857	-0.274287
H46	H	-0.546948	0.506186	-0.309938
H47	H	-0.585585	0.598815	-0.186234
H48	H	-0.643914	0.481936	-0.258691
H49	H	-0.527284	0.430052	-0.430874
