data_functionalizedCrystal
_audit_creation_method	'MofGen! by Chris Wilmer'
_symmetry_space_group_name_H-M	'P1'
_symmetry_Int_Tables_number	1
_symmetry_cell_setting	triclinic
loop_
_symmetry_equiv_pos_as_xyz
  x,y,z
_cell_length_a	10.723022
_cell_length_b	10.654541
_cell_length_c	9.198806
_cell_angle_alpha	90.006602
_cell_angle_beta	90.000000
_cell_angle_gamma	84.475577
loop_
_atom_site_label
_atom_site_type_symbol
_atom_site_fract_x
_atom_site_fract_y
_atom_site_fract_z
O1	O	1.657206	0.176145	0.120882
O2	O	1.294056	0.193008	0.120887
O3	O	1.483982	0.001836	0.120876
O4	O	1.467280	0.367317	0.120894
O5	O	1.483982	0.001820	-0.120909
O6	O	1.294055	0.192993	-0.120898
O7	O	1.657206	0.176130	-0.120903
Cu8	Cu	1.475631	0.184560	-0.142977
Cu9	Cu	1.475631	0.184578	0.142962
O10	O	1.467279	0.367302	-0.120891
C11	C	1.247556	0.191774	-0.000005
C12	C	1.109001	0.188103	-0.000003
C13	C	1.482756	-0.044970	-0.000016
C14	C	1.479089	-0.184413	-0.000013
C15	C	0.890837	0.291277	0.000005
C16	C	1.034041	0.295073	0.000003
C17	C	1.706197	-0.212419	-0.000035
C18	C	1.818023	-0.291931	-0.000048
C19	C	1.814570	-0.422948	-0.000044
C20	C	1.699278	-0.474456	-0.000021
C21	C	1.587452	-0.394944	-0.000008
C22	C	1.590918	-0.263925	-0.000017
C23	C	1.360347	-0.366938	0.000024
C24	C	1.363797	-0.235920	0.000009
C25	C	1.245055	-0.418445	0.000047
C26	C	1.133226	-0.338933	0.000050
C27	C	1.136684	-0.207908	0.000044
C28	C	1.251971	-0.156408	0.000023
C29	C	1.703706	0.177364	-0.000008
C30	C	1.842261	0.181034	0.000000
C31	C	1.468505	0.414108	0.000004
C32	C	1.472173	0.553550	0.000011
N33	N	1.475639	0.184546	-0.344091
N34	N	1.475632	0.184581	0.344076
C35	C	1.555551	0.104134	0.416268
C36	C	1.555555	0.104115	0.583680
H37	H	0.826408	0.382849	0.000019
H38	H	0.906690	0.089462	0.000004
H39	H	1.075866	0.389462	-0.000001
H40	H	1.709021	-0.105739	-0.000058
H41	H	1.407218	0.253446	0.406208
H42	H	1.045621	-0.143176	0.000061
H43	H	1.911892	-0.249979	-0.000080
H44	H	1.623972	0.035236	0.645762
H45	H	1.067184	0.093710	0.000031
H46	H	1.905629	-0.487688	-0.000044
H47	H	1.696477	-0.581138	0.000000
H48	H	1.623975	0.035279	0.354137
H49	H	1.407209	0.253420	0.593836
H50	H	1.242251	-0.525127	0.000060
H51	H	1.039364	-0.380882	0.000078
H52	H	1.254798	-0.049729	0.000009
