data_functionalizedCrystal
_audit_creation_method	'MofGen! by Chris Wilmer'
_symmetry_space_group_name_H-M	'P1'
_symmetry_Int_Tables_number	1
_symmetry_cell_setting	triclinic
loop_
_symmetry_equiv_pos_as_xyz
  x,y,z
_cell_length_a	14.908783
_cell_length_b	14.908571
_cell_length_c	18.215399
_cell_angle_alpha	86.731625
_cell_angle_beta	86.680129
_cell_angle_gamma	83.202707
loop_
_atom_site_label
_atom_site_type_symbol
_atom_site_fract_x
_atom_site_fract_y
_atom_site_fract_z
Zn1	Zn	1.363021	0.280626	-0.493568
Zn2	Zn	1.696354	0.613959	-0.160235
Zn3	Zn	2.029688	0.947292	0.173098
Zn4	Zn	1.354164	0.432005	-0.377206
Zn5	Zn	1.687497	0.765339	-0.043873
Zn6	Zn	2.020831	1.098672	0.289460
Zn7	Zn	1.211646	0.289377	-0.363792
Zn8	Zn	1.544980	0.622710	-0.030459
Zn9	Zn	1.878313	0.956044	0.302875
Zn10	Zn	1.202865	0.440673	-0.493507
Zn11	Zn	1.536198	0.774006	-0.160174
Zn12	Zn	1.869531	1.107339	0.173160
O13	O	1.282924	0.360670	-0.432018
O14	O	1.616257	0.694004	-0.098685
O15	O	1.949591	1.027337	0.234648
O16	O	1.488516	0.293417	-0.483772
O17	O	1.821849	0.626750	-0.150439
O18	O	2.155183	0.960084	0.182894
O19	O	1.335227	0.413121	-0.272443
O20	O	1.668561	0.746454	0.060891
O21	O	2.001894	1.079787	0.394224
O22	O	1.239108	0.161546	-0.375419
O23	O	1.572442	0.494879	-0.042086
O24	O	1.905775	0.828212	0.291248
O25	O	1.482009	0.404635	-0.398282
O26	O	1.815342	0.737968	-0.064948
O27	O	2.148676	1.071302	0.268385
O28	O	1.350322	0.155116	-0.470765
O29	O	1.683656	0.488449	-0.137432
O30	O	2.016989	0.821783	0.195901
O31	O	1.230520	0.308332	-0.262587
O32	O	1.563853	0.641666	0.070746
O33	O	1.897187	0.974999	0.404079
O34	O	1.083811	0.316736	-0.375359
O35	O	1.417145	0.650070	-0.042026
O36	O	1.750478	0.983403	0.291307
O37	O	1.224141	0.419407	-0.596499
O38	O	1.557475	0.752740	-0.263166
O39	O	1.890808	1.086073	0.070167
O40	O	1.077360	0.427893	-0.470660
O41	O	1.410693	0.761226	-0.137327
O42	O	1.744026	1.094559	0.196006
O43	O	1.341807	0.301821	-0.596544
O44	O	1.675141	0.635154	-0.263211
O45	O	2.008474	0.968488	0.070122
O46	O	1.326712	0.559826	-0.398222
O47	O	1.660045	0.893159	-0.064889
O48	O	1.993379	1.226492	0.268445
O49	O	1.215553	0.566193	-0.483667
O50	O	1.548887	0.899527	-0.150334
O51	O	1.882220	1.232860	0.182999
C52	C	1.047741	0.374205	-0.421548
C53	C	1.381075	0.707539	-0.088215
C54	C	1.714408	1.040872	0.245119
C55	C	0.947128	0.380017	-0.417087
C56	C	1.280461	0.713351	-0.083754
C57	C	1.613795	1.046684	0.249580
C58	C	0.764829	0.275286	-0.497877
C59	C	1.098163	0.608620	-0.164544
C60	C	1.431496	0.941953	0.168790
C61	C	0.670294	0.280744	-0.493688
C62	C	1.003628	0.614077	-0.160354
C63	C	1.336961	0.947411	0.172979
C64	C	0.663521	0.396386	-0.404516
C65	C	0.996855	0.729719	-0.071183
C66	C	1.330188	1.063053	0.262151
C67	C	0.758056	0.390928	-0.408705
C68	C	1.091390	0.724261	-0.075372
C69	C	1.424723	1.057595	0.257961
C70	C	0.808707	0.330377	-0.455388
C71	C	1.142041	0.663710	-0.122055
C72	C	1.475374	0.997044	0.211279
C73	C	0.903244	0.324924	-0.459581
C74	C	1.236577	0.658258	-0.126247
C75	C	1.569910	0.991591	0.207086
C76	C	0.896469	0.440561	-0.370405
C77	C	1.229803	0.773894	-0.037072
C78	C	1.563136	1.107228	0.296261
C79	C	0.801934	0.446019	-0.366216
C80	C	1.135267	0.779352	-0.032883
C81	C	1.468601	1.112686	0.300450
C82	C	1.269243	0.595852	-0.442411
C83	C	1.602577	0.929186	-0.109077
C84	C	1.935910	1.262519	0.224256
C85	C	1.263473	0.696460	-0.446885
C86	C	1.596807	1.029793	-0.113552
C87	C	1.930140	1.363126	0.219782
C88	C	1.282983	0.360605	-0.623971
C89	C	1.616316	0.693938	-0.290638
C90	C	1.949649	1.027271	0.042696
C91	C	1.283008	0.360577	-0.705770
C92	C	1.616341	0.693910	-0.372437
C93	C	1.949674	1.027243	-0.039103
C94	C	1.519025	0.347083	-0.442530
C95	C	1.852358	0.680416	-0.109197
C96	C	2.185692	1.013750	0.224136
C97	C	1.619637	0.341293	-0.447010
C98	C	1.952970	0.674626	-0.113676
C99	C	2.286304	1.007960	0.219657
C100	C	1.197422	0.841611	-0.497632
C101	C	1.530755	1.174945	-0.164298
C102	C	1.864088	1.508278	0.169035
C103	C	1.202841	0.747082	-0.493433
C104	C	1.536174	1.080415	-0.160100
C105	C	1.869508	1.413749	0.173234
C106	C	1.318692	0.740373	-0.404534
C107	C	1.652026	1.073706	-0.071201
C108	C	1.985359	1.407039	0.262132
C109	C	1.313273	0.834902	-0.408733
C110	C	1.646606	1.168235	-0.075400
C111	C	1.979940	1.501569	0.257933
C112	C	1.252635	0.885518	-0.455283
C113	C	1.585968	1.218851	-0.121949
C114	C	1.919301	1.552185	0.211384
C115	C	1.247211	0.980049	-0.459477
C116	C	1.580545	1.313383	-0.126144
C117	C	1.913878	1.646716	0.207189
C118	C	1.363067	0.973338	-0.370583
C119	C	1.696400	1.306671	-0.037250
C120	C	2.029733	1.640005	0.296083
C121	C	1.368486	0.878809	-0.366384
C122	C	1.701819	1.212142	-0.033051
C123	C	2.035153	1.545475	0.300282
C124	C	1.296654	1.124570	-0.421593
C125	C	1.629987	1.457903	-0.088260
C126	C	1.963320	1.791237	0.245073
C127	C	1.302430	1.023962	-0.417127
C128	C	1.635764	1.357296	-0.083793
C129	C	1.969097	1.690629	0.249540
C130	C	1.344300	0.299294	-0.893987
C131	C	1.677634	0.632628	-0.560654
C132	C	2.010967	0.965961	-0.227321
C133	C	1.344313	0.299267	-0.970845
C134	C	1.677646	0.632601	-0.637512
C135	C	2.010979	0.965934	-0.304179
C136	C	1.221787	0.421715	-0.970787
C137	C	1.555121	0.755049	-0.637454
C138	C	1.888454	1.088382	-0.304121
C139	C	1.221771	0.421737	-0.893930
C140	C	1.555105	0.755070	-0.560597
C141	C	1.888438	1.088404	-0.227263
C142	C	1.283033	0.360528	-0.855532
C143	C	1.616366	0.693861	-0.522199
C144	C	1.949700	1.027195	-0.188866
C145	C	1.283061	0.360479	-1.009248
C146	C	1.616395	0.693812	-0.675914
C147	C	1.949728	1.027146	-0.342581
C148	C	1.283074	0.360450	-1.092581
C149	C	1.616407	0.693783	-0.759247
C150	C	1.949741	1.027117	-0.425914
C151	C	1.283019	0.360555	-0.772194
C152	C	1.616353	0.693889	-0.438861
C153	C	1.949686	1.027222	-0.105527
C154	C	1.282921	0.360667	-0.240812
C155	C	1.616255	0.694001	0.092521
C156	C	1.949588	1.027334	0.425855
C157	C	1.283086	0.360430	-0.159010
C158	C	1.616420	0.693763	0.174323
C159	C	1.949753	1.027097	0.507657
H160	H	0.634573	0.235881	-0.528285
H161	H	0.967906	0.569215	-0.194951
H162	H	1.301240	0.902548	0.138382
F163	F	1.409528	0.234100	-1.011769
F164	F	1.742861	0.567433	-0.678436
F165	F	2.076194	0.900767	-0.345102
F166	F	1.409498	0.234148	-0.853124
F167	F	1.742831	0.567481	-0.519790
F168	F	2.076165	0.900815	-0.186457
H169	H	1.171874	0.471600	-0.862619
H170	H	1.505207	0.804934	-0.529286
H171	H	1.838540	1.138267	-0.195952
H172	H	1.171912	0.471551	-1.002060
H173	H	1.505245	0.804885	-0.668727
H174	H	1.838579	1.138218	-0.335393
H175	H	0.944482	0.275622	-0.497593
H176	H	1.277816	0.608955	-0.164260
H177	H	1.611149	0.942288	0.169074
F178	F	0.748019	0.510455	-0.316534
F179	F	1.081352	0.843788	0.016800
F180	F	1.414685	1.177122	0.350133
F181	F	1.182672	1.033918	-0.509016
F182	F	1.516005	1.367251	-0.175682
F183	F	1.849339	1.700584	0.157651
F184	F	0.609601	0.460814	-0.354829
F185	F	0.942934	0.794147	-0.021496
F186	F	1.276268	1.127480	0.311837
F187	F	0.943173	0.499202	-0.325187
F188	F	1.276506	0.832535	0.008146
F189	F	1.609840	1.165868	0.341480
F190	F	0.818737	0.210852	-0.547566
F191	F	1.152071	0.544186	-0.214232
F192	F	1.485404	0.877519	0.119101
H193	H	1.368069	0.699148	-0.366641
H194	H	1.701402	1.032482	-0.033307
H195	H	2.034735	1.365815	0.300026
F196	F	1.132875	0.895483	-0.547162
F197	F	1.466209	1.228817	-0.213829
F198	F	1.799542	1.562150	0.119504
H199	H	1.157882	0.711336	-0.527918
H200	H	1.491216	1.044669	-0.194585
H201	H	1.824549	1.378003	0.138748
H202	H	1.408025	1.009097	-0.336099
H203	H	1.741359	1.342430	-0.002766
H204	H	2.074692	1.675763	0.330567
F205	F	1.433021	0.824930	-0.316849
F206	F	1.766355	1.158263	0.016485
F207	F	2.099688	1.491596	0.349818
