data_functionalizedCrystal
_audit_creation_method	'MofGen! by Chris Wilmer'
_symmetry_space_group_name_H-M	'P1'
_symmetry_Int_Tables_number	1
_symmetry_cell_setting	triclinic
loop_
_symmetry_equiv_pos_as_xyz
  x,y,z
_cell_length_a	15.944551
_cell_length_b	15.995350
_cell_length_c	15.072220
_cell_angle_alpha	90.008851
_cell_angle_beta	89.997918
_cell_angle_gamma	96.504443
loop_
_atom_site_label
_atom_site_type_symbol
_atom_site_fract_x
_atom_site_fract_y
_atom_site_fract_z
O1	O	0.108264	-1.111002	-0.073709
O2	O	0.358264	-0.861002	0.176291
O3	O	0.608264	-0.611002	0.426291
O4	O	0.858264	-0.361002	0.676291
O5	O	0.121634	-0.867227	-0.073728
O6	O	0.371634	-0.617227	0.176272
O7	O	0.621634	-0.367227	0.426272
O8	O	0.871634	-0.117227	0.676272
O9	O	-0.007326	-0.995772	-0.073710
O10	O	0.242674	-0.745772	0.176290
O11	O	0.492674	-0.495772	0.426290
O12	O	0.742674	-0.245772	0.676290
O13	O	0.237224	-0.982458	-0.073727
O14	O	0.487224	-0.732458	0.176273
O15	O	0.737224	-0.482458	0.426273
O16	O	0.987224	-0.232458	0.676273
O17	O	-0.007319	-0.995740	0.073855
O18	O	0.242681	-0.745740	0.323855
O19	O	0.492681	-0.495740	0.573855
O20	O	0.742681	-0.245740	0.823855
O21	O	0.121641	-0.867196	0.073837
O22	O	0.371641	-0.617196	0.323837
O23	O	0.621641	-0.367196	0.573837
O24	O	0.871641	-0.117196	0.823837
O25	O	0.108271	-1.110970	0.073856
O26	O	0.358271	-0.860970	0.323856
O27	O	0.608271	-0.610970	0.573856
O28	O	0.858271	-0.360970	0.823856
Zn29	Zn	0.114957	-0.989078	0.097276
Zn30	Zn	0.364957	-0.739078	0.347276
Zn31	Zn	0.614957	-0.489078	0.597276
Zn32	Zn	0.864957	-0.239078	0.847276
Zn33	Zn	0.114948	-0.989120	-0.097148
Zn34	Zn	0.364948	-0.739120	0.152852
Zn35	Zn	0.614948	-0.489120	0.402852
Zn36	Zn	0.864948	-0.239120	0.652852
O37	O	0.237232	-0.982426	0.073838
O38	O	0.487232	-0.732426	0.323838
O39	O	0.737232	-0.482426	0.573838
O40	O	0.987232	-0.232426	0.823838
C41	C	-0.038616	-0.995203	0.000073
C42	C	0.211384	-0.745203	0.250073
C43	C	0.461384	-0.495203	0.500073
C44	C	0.711384	-0.245203	0.750073
C45	C	-0.131862	-0.993546	0.000073
C46	C	0.118138	-0.743546	0.250073
C47	C	0.368138	-0.493546	0.500073
C48	C	0.618138	-0.243546	0.750073
C49	C	0.121085	-0.836017	0.000053
C50	C	0.371085	-0.586017	0.250053
C51	C	0.621085	-0.336017	0.500053
C52	C	0.871085	-0.086017	0.750053
C53	C	0.119428	-0.743066	0.000046
C54	C	0.369428	-0.493066	0.250046
C55	C	0.619428	-0.243066	0.500046
C56	C	0.869428	0.006934	0.750046
C57	C	0.108821	-1.142181	0.000074
C58	C	0.358821	-0.892181	0.250074
C59	C	0.608821	-0.642181	0.500074
C60	C	0.858821	-0.392181	0.750074
C61	C	0.110478	-1.235131	0.000075
C62	C	0.360478	-0.985131	0.250075
C63	C	0.610478	-0.735131	0.500075
C64	C	0.860478	-0.485131	0.750075
C65	C	-0.346714	-0.909908	0.000054
C66	C	-0.096714	-0.659908	0.250054
C67	C	0.153286	-0.409908	0.500054
C68	C	0.403286	-0.159908	0.750054
C69	C	-0.407730	-0.948731	0.072816
C70	C	-0.157730	-0.698731	0.322816
C71	C	0.092270	-0.448731	0.572816
C72	C	0.342270	-0.198731	0.822816
C73	C	-0.302588	-0.990548	0.000066
C74	C	-0.052588	-0.740548	0.250066
C75	C	0.197412	-0.490548	0.500066
C76	C	0.447412	-0.240548	0.750066
C77	C	-0.407721	-0.948781	-0.072672
C78	C	-0.157721	-0.698781	0.177328
C79	C	0.092279	-0.448781	0.427328
C80	C	0.342279	-0.198781	0.677328
C81	C	-0.467501	-0.987647	0.000055
C82	C	-0.217501	-0.737647	0.250055
C83	C	0.032499	-0.487647	0.500055
C84	C	0.282499	-0.237647	0.750055
C85	C	-0.362376	-1.029394	0.072888
C86	C	-0.112376	-0.779394	0.322888
C87	C	0.137624	-0.529394	0.572888
C88	C	0.387624	-0.279394	0.822888
C89	C	-0.362360	-1.029433	-0.072665
C90	C	-0.112360	-0.779433	0.177335
C91	C	0.137640	-0.529433	0.427335
C92	C	0.387640	-0.279433	0.677335
C93	C	-0.423358	-1.068315	0.000114
C94	C	-0.173358	-0.818315	0.250114
C95	C	0.076642	-0.568315	0.500114
C96	C	0.326642	-0.318315	0.750114
C97	C	-0.207586	-0.992217	0.000073
C98	C	0.042414	-0.742217	0.250073
C99	C	0.292414	-0.492217	0.500073
C100	C	0.542414	-0.242217	0.750073
C101	C	-0.562502	-0.985984	0.000055
C102	C	-0.312502	-0.735984	0.250055
C103	C	-0.062502	-0.485984	0.500055
C104	C	0.187498	-0.235984	0.750055
C105	C	0.268522	-0.982995	0.000053
C106	C	0.518522	-0.732995	0.250053
C107	C	0.768522	-0.482995	0.500053
C108	C	1.018522	-0.232995	0.750053
C109	C	0.361768	-0.984652	0.000047
C110	C	0.611768	-0.734652	0.250047
C111	C	0.861768	-0.484652	0.500047
C112	C	1.111768	-0.234652	0.750047
N113	N	0.114963	-0.989055	0.229965
N114	N	0.364963	-0.739055	0.479965
N115	N	0.614963	-0.489055	0.729965
N116	N	0.864963	-0.239055	0.979965
C117	C	0.113477	-0.405318	0.000065
C118	C	0.363477	-0.155318	0.250065
C119	C	0.613477	0.094682	0.500065
C120	C	0.863477	0.344682	0.750065
C121	C	0.021634	-0.452747	0.000400
C122	C	0.271634	-0.202747	0.250400
C123	C	0.521634	0.047253	0.500400
C124	C	0.771634	0.297253	0.750400
C125	C	0.023291	-0.549438	0.000061
C126	C	0.273291	-0.299438	0.250061
C127	C	0.523291	-0.049438	0.500061
C128	C	0.773291	0.200562	0.750061
C129	C	0.116429	-0.572879	0.000056
C130	C	0.366429	-0.322879	0.250056
C131	C	0.616429	-0.072879	0.500056
C132	C	0.866429	0.177121	0.750056
C133	C	0.161725	-0.531813	-0.084211
C134	C	0.411725	-0.281813	0.165789
C135	C	0.661725	-0.031813	0.415789
C136	C	0.911725	0.218187	0.665789
C137	C	0.159417	-0.435177	-0.084275
C138	C	0.409417	-0.185177	0.165725
C139	C	0.659417	0.064823	0.415725
C140	C	0.909417	0.314823	0.665725
C141	C	0.161323	-0.434802	0.083534
C142	C	0.411323	-0.184802	0.333534
C143	C	0.661323	0.065198	0.583534
C144	C	0.911323	0.315198	0.833534
C145	C	0.161301	-0.531747	0.084642
C146	C	0.411301	-0.281747	0.334642
C147	C	0.661301	-0.031747	0.584642
C148	C	0.911301	0.218253	0.834642
C149	C	0.118102	-0.667577	0.000048
C150	C	0.368102	-0.417577	0.250048
C151	C	0.618102	-0.167577	0.500048
C152	C	0.868102	0.082423	0.750048
C153	C	0.111806	-0.310620	0.000067
C154	C	0.361806	-0.060620	0.250067
C155	C	0.611806	0.189380	0.500067
C156	C	0.861806	0.439380	0.750067
N157	N	0.114935	-0.989149	-0.229836
N158	N	0.364935	-0.739149	0.020164
N159	N	0.614935	-0.489149	0.270164
N160	N	0.864935	-0.239149	0.520164
C161	C	0.114945	-0.989118	0.589166
C162	C	0.364945	-0.739118	0.839166
C163	C	0.614945	-0.489118	1.089166
C164	C	0.864945	-0.239118	1.339166
C165	C	0.183717	-0.920105	0.551550
C166	C	0.433717	-0.670105	0.801550
C167	C	0.683717	-0.420105	1.051550
C168	C	0.933717	-0.170105	1.301550
C169	C	0.183968	-0.920264	0.448724
C170	C	0.433968	-0.670264	0.698724
C171	C	0.683968	-0.420264	0.948724
C172	C	0.933968	-0.170264	1.198724
C173	C	0.114954	-0.989086	0.410962
C174	C	0.364954	-0.739086	0.660962
C175	C	0.614954	-0.489086	0.910962
C176	C	0.864954	-0.239086	1.160962
C177	C	0.134096	-1.076452	0.448258
C178	C	0.384096	-0.826452	0.698258
C179	C	0.634096	-0.576452	0.948258
C180	C	0.884096	-0.326452	1.198258
C181	C	0.134585	-1.076065	0.551116
C182	C	0.384585	-0.826065	0.801116
C183	C	0.634585	-0.576065	1.051116
C184	C	0.884585	-0.326065	1.301116
C185	C	0.026826	-0.971544	0.551271
C186	C	0.276826	-0.721544	0.801271
C187	C	0.526826	-0.471544	1.051271
C188	C	0.776826	-0.221544	1.301271
C189	C	0.027414	-0.969539	0.448407
C190	C	0.277414	-0.719539	0.698407
C191	C	0.527414	-0.469539	0.948407
C192	C	0.777414	-0.219539	1.198407
C193	C	0.114958	-0.989074	0.310249
C194	C	0.364958	-0.739074	0.560249
C195	C	0.614958	-0.489074	0.810249
C196	C	0.864958	-0.239074	1.060249
C197	C	0.114943	-0.989136	0.689879
C198	C	0.364943	-0.739136	0.939879
C199	C	0.614943	-0.489136	1.189879
C200	C	0.864943	-0.239136	1.439879
H201	H	-0.313403	-0.842972	0.000122
H202	H	-0.063403	-0.592972	0.250122
H203	H	0.186597	-0.342972	0.500122
H204	H	0.436597	-0.092972	0.750122
Br205	Br	0.292970	-0.938930	0.407685
Br206	Br	0.542970	-0.688930	0.657685
Br207	Br	0.792970	-0.438930	0.907685
Br208	Br	1.042970	-0.188930	1.157685
Br209	Br	-0.039553	-0.421848	0.101125
Br210	Br	0.210447	-0.171848	0.351125
Br211	Br	0.460447	0.078152	0.601125
Br212	Br	0.710447	0.328152	0.851125
Br213	Br	0.274509	-0.557353	0.093119
Br214	Br	0.524509	-0.307353	0.343119
Br215	Br	0.774509	-0.057353	0.593119
Br216	Br	1.024509	0.192647	0.843119
Br217	Br	-0.058475	-1.055425	0.591812
Br218	Br	0.191525	-0.805425	0.841812
Br219	Br	0.441525	-0.555425	1.091812
Br220	Br	0.691525	-0.305425	1.341812
Br221	Br	0.054181	-1.164144	0.592594
Br222	Br	0.304181	-0.914144	0.842594
Br223	Br	0.554181	-0.664144	1.092594
Br224	Br	0.804181	-0.414144	1.342594
Br225	Br	-0.003838	-0.867649	0.594552
Br226	Br	0.246162	-0.617649	0.844552
Br227	Br	0.496162	-0.367649	1.094552
Br228	Br	0.746162	-0.117649	1.344552
Br229	Br	0.111282	-0.400554	0.189993
Br230	Br	0.361282	-0.150554	0.439993
Br231	Br	0.611282	0.099446	0.689993
Br232	Br	0.861282	0.349446	0.939993
Br233	Br	-0.478634	-1.179974	0.000184
Br234	Br	-0.228634	-0.929974	0.250184
Br235	Br	0.021366	-0.679974	0.500184
Br236	Br	0.271366	-0.429974	0.750184
H237	H	0.172500	-0.854955	0.576307
H238	H	0.422500	-0.604955	0.826307
H239	H	0.672500	-0.354955	1.076307
H240	H	0.922500	-0.104955	1.326307
H241	H	0.085338	-1.129033	0.423796
H242	H	0.335338	-0.879033	0.673796
H243	H	0.585338	-0.629033	0.923796
H244	H	0.835338	-0.379033	1.173796
H245	H	0.198850	-1.091551	0.575095
H246	H	0.448850	-0.841551	0.825095
H247	H	0.698850	-0.591551	1.075095
H248	H	0.948850	-0.341551	1.325095
Br249	Br	-0.441237	-0.891864	0.175337
Br250	Br	-0.191237	-0.641864	0.425337
Br251	Br	0.058763	-0.391864	0.675337
Br252	Br	0.308763	-0.141864	0.925337
H253	H	-0.014912	-0.433164	-0.059693
H254	H	0.235088	-0.183164	0.190307
H255	H	0.485088	0.066836	0.440307
H256	H	0.735088	0.316836	0.690307
H257	H	-0.427799	-0.914676	-0.134190
H258	H	-0.177799	-0.664676	0.115810
H259	H	0.072201	-0.414676	0.365810
H260	H	0.322201	-0.164676	0.615810
H261	H	-0.012314	-0.577852	0.060467
H262	H	0.237686	-0.327852	0.310467
H263	H	0.487686	-0.077852	0.560467
H264	H	0.737686	0.172148	0.810467
Br265	Br	-0.328814	-1.086257	-0.175190
Br266	Br	-0.078814	-0.836257	0.074810
Br267	Br	0.171186	-0.586257	0.324810
Br268	Br	0.421186	-0.336257	0.574810
H269	H	-0.012561	-0.577307	-0.060445
H270	H	0.237439	-0.327307	0.189555
H271	H	0.487439	-0.077307	0.439555
H272	H	0.737439	0.172693	0.689555
H273	H	0.128236	-0.559048	0.146982
H274	H	0.378236	-0.309048	0.396982
H275	H	0.628236	-0.059048	0.646982
H276	H	0.878236	0.190952	0.896982
H277	H	0.012886	-0.905272	0.424031
H278	H	0.262886	-0.655272	0.674031
H279	H	0.512886	-0.405272	0.924031
H280	H	0.762886	-0.155272	1.174031
H281	H	-0.026161	-1.016539	0.422706
H282	H	0.223839	-0.766539	0.672706
H283	H	0.473839	-0.516539	0.922706
H284	H	0.723839	-0.266539	1.172706
H285	H	-0.342384	-1.063459	0.134469
H286	H	-0.092384	-0.813459	0.384469
H287	H	0.157616	-0.563459	0.634469
H288	H	0.407616	-0.313459	0.884469
H289	H	0.197628	-1.092308	0.422486
H290	H	0.447628	-0.842308	0.672486
H291	H	0.697628	-0.592308	0.922486
H292	H	0.947628	-0.342308	1.172486
H293	H	0.126380	-0.416880	-0.147262
H294	H	0.376380	-0.166880	0.102738
H295	H	0.626380	0.083120	0.352738
H296	H	0.876380	0.333120	0.602738
H297	H	0.226847	-0.402933	-0.088103
H298	H	0.476847	-0.152933	0.161897
H299	H	0.726847	0.097067	0.411897
H300	H	0.976847	0.347067	0.661897
H301	H	0.230150	-0.545942	-0.087348
H302	H	0.480150	-0.295942	0.162652
H303	H	0.730150	-0.045942	0.412652
H304	H	0.980150	0.204058	0.662652
H305	H	0.130258	-0.560199	-0.146920
H306	H	0.380258	-0.310199	0.103080
H307	H	0.630258	-0.060199	0.353080
H308	H	0.880258	0.189801	0.603080
Br309	Br	0.274186	-0.381874	0.084478
Br310	Br	0.524186	-0.131874	0.334478
Br311	Br	0.774186	0.118126	0.584478
Br312	Br	1.024186	0.368126	0.834478
Br313	Br	0.165018	-0.812009	0.406692
Br314	Br	0.415018	-0.562009	0.656692
Br315	Br	0.665018	-0.312009	0.906692
Br316	Br	0.915018	-0.062009	1.156692
H317	H	0.248741	-0.931174	0.577385
H318	H	0.498741	-0.681174	0.827385
H319	H	0.748741	-0.431174	1.077385
H320	H	0.998741	-0.181174	1.327385
