data_functionalizedCrystal
_audit_creation_method	'MofGen! by Chris Wilmer'
_symmetry_space_group_name_H-M	'P1'
_symmetry_Int_Tables_number	1
_symmetry_cell_setting	triclinic
loop_
_symmetry_equiv_pos_as_xyz
  x,y,z
_cell_length_a	12.645331
_cell_length_b	12.645330
_cell_length_c	19.805399
_cell_angle_alpha	90.021721
_cell_angle_beta	90.014153
_cell_angle_gamma	90.018103
loop_
_atom_site_label
_atom_site_type_symbol
_atom_site_fract_x
_atom_site_fract_y
_atom_site_fract_z
Zn1	Zn	1.620691	-0.422052	0.382649
Zn2	Zn	1.620584	-0.599331	0.269473
Zn3	Zn	1.443417	-0.422083	0.269485
Zn4	Zn	1.443387	-0.599275	0.382630
O5	O	1.532020	-0.510685	0.326059
O6	O	1.769024	-0.445579	0.367639
O7	O	1.597051	-0.575854	0.174758
O8	O	1.466990	-0.273732	0.284509
O9	O	1.768946	-0.575825	0.284489
O10	O	1.597232	-0.273709	0.367651
O11	O	1.466887	-0.445631	0.174766
O12	O	1.295066	-0.445578	0.284491
O13	O	1.466939	-0.575731	0.477349
O14	O	1.295044	-0.575760	0.367618
O15	O	1.597203	-0.445526	0.477363
O16	O	1.597022	-0.747671	0.284470
O17	O	1.466836	-0.747630	0.367606
C18	C	1.256590	-0.510667	0.326054
C19	C	1.138760	-0.510685	0.326068
C20	C	1.093900	-0.592722	0.378287
C21	C	0.971340	-0.593059	0.378132
C22	C	0.970814	-0.540517	0.254650
C23	C	1.093412	-0.541096	0.254952
C24	C	1.093612	-0.398641	0.344643
C25	C	0.971007	-0.399260	0.346215
C26	C	1.531943	-0.786115	0.326050
C27	C	1.532006	-0.903945	0.326068
C28	C	1.450444	-1.071528	0.378531
C29	C	1.450027	-0.948968	0.378362
C30	C	1.501769	-0.948533	0.254738
C31	C	1.501271	-1.071132	0.255056
C32	C	1.644306	-1.071035	0.344358
C33	C	1.643617	-0.948428	0.345918
C34	C	1.808525	-0.510704	0.326065
C35	C	1.926355	-0.510713	0.326067
C36	C	1.532079	-0.510619	0.502602
C37	C	1.532105	-0.510590	0.577834
C38	C	1.532126	-0.234180	0.326084
C39	C	1.532172	-0.116350	0.326094
C40	C	1.532022	-0.510675	0.150203
C41	C	1.532202	-0.510405	0.074972
C42	C	1.599935	-0.442789	0.613187
C43	C	1.599946	-0.442758	0.683875
C44	C	1.532131	-0.510535	0.719210
C45	C	1.464293	-0.578339	0.683852
C46	C	1.464278	-0.578363	0.613165
C47	C	1.464353	-0.578240	0.968926
C48	C	1.464376	-0.578212	1.039618
C49	C	1.600021	-0.442635	1.039636
C50	C	1.600006	-0.442659	0.968949
C51	C	1.532165	-0.510459	0.933597
C52	C	1.532152	-0.510490	0.856949
C53	C	1.532148	-0.510510	0.795857
H54	H	0.940086	-0.621515	0.238683
H55	H	0.941282	-0.574468	0.431078
H56	H	1.420653	-0.917921	0.238985
O57	O	1.132065	-0.317666	0.294288
H58	H	1.063153	-0.280905	0.268726
O59	O	0.932506	-0.369475	0.415833
H60	H	1.001409	-0.357669	0.449740
H61	H	1.655257	-0.387425	1.068427
O62	O	1.391105	-0.651477	0.575029
H63	H	1.343952	-0.698603	0.611474
O64	O	1.132984	-0.568390	0.448643
H65	H	1.184808	-0.497570	0.447148
O66	O	1.134662	-0.702080	0.362168
H67	H	1.066908	-0.755443	0.351680
O68	O	0.930477	-0.314019	0.299541
H69	H	0.877643	-0.349920	0.261081
O70	O	1.134612	-0.362558	0.412460
H71	H	1.110032	-0.419875	0.451883
H72	H	1.419300	-1.099822	0.239583
O73	O	1.475003	-0.909018	0.448432
H74	H	1.487493	-0.977264	0.482743
O75	O	1.474880	-1.111001	0.448762
H76	H	1.545585	-1.162922	0.447057
H77	H	1.409149	-0.633406	1.068385
O78	O	1.673150	-0.369555	0.930841
H79	H	1.727065	-0.417020	0.898639
H80	H	1.367833	-1.102428	0.366585
H81	H	0.941983	-0.676092	0.365808
O82	O	1.132726	-0.465364	0.201630
H83	H	1.181508	-0.402927	0.225784
H84	H	1.121978	-0.622984	0.239252
O85	O	1.673078	-0.369687	0.575076
H86	H	1.720239	-0.322529	0.611538
H87	H	0.941675	-0.482599	0.214674
H88	H	1.655182	-0.387550	0.712656
O89	O	1.339921	-0.910227	0.362317
H90	H	1.286766	-0.979059	0.354643
H91	H	1.666421	-0.919282	0.398413
O92	O	1.391132	-0.651309	0.930800
H93	H	1.343968	-0.698418	0.967248
O94	O	1.576678	-1.110425	0.201533
H95	H	1.613333	-1.041858	0.175534
O96	O	1.578107	-0.909907	0.201564
H97	H	1.638550	-0.858393	0.225470
O98	O	1.391141	-0.651438	0.721958
H99	H	1.402551	-0.640037	0.777051
H100	H	1.671890	-1.101883	0.395488
H101	H	1.707715	-0.917775	0.310506
O102	O	1.725022	-1.109663	0.293883
H103	H	1.685529	-1.160857	0.255956
