data_functionalizedCrystal
_audit_creation_method	'MofGen! by Chris Wilmer'
_symmetry_space_group_name_H-M	'P1'
_symmetry_Int_Tables_number	1
_symmetry_cell_setting	triclinic
loop_
_symmetry_equiv_pos_as_xyz
  x,y,z
_cell_length_a	12.970454
_cell_length_b	12.970454
_cell_length_c	12.970454
_cell_angle_alpha	89.999075
_cell_angle_beta	120.000323
_cell_angle_gamma	120.001146
loop_
_atom_site_label
_atom_site_type_symbol
_atom_site_fract_x
_atom_site_fract_y
_atom_site_fract_z
Zr1	Zr	-1.128524	0.993209	-0.135324
O2	O	-1.343618	0.828582	-0.299948
O3	O	-0.913431	1.043678	-0.084857
O4	O	-1.128524	1.043675	-0.299950
O5	O	-1.128524	0.828585	0.084812
O6	O	-1.128523	1.213342	-0.299952
O7	O	-1.128524	0.828585	-0.084855
O8	O	-0.743761	1.213348	0.084809
O9	O	-1.513286	0.828580	-0.299949
O10	O	-1.001901	1.191821	-0.063337
O11	O	-1.001901	1.065201	0.063286
O12	O	-1.255145	1.065197	-0.189958
O13	O	-1.255145	0.938577	-0.063335
Zr14	Zr	-1.128521	1.263810	0.135272
Zr15	Zr	-1.128522	1.263809	-0.135328
Zr16	Zr	-1.128522	0.993210	0.135276
Zr17	Zr	-1.399125	0.993206	-0.135326
Zr18	Zr	-0.857919	1.263813	0.135274
O19	O	-1.343614	1.213342	0.084804
O20	O	-1.343616	1.213340	-0.299954
O21	O	-1.343616	0.828583	0.084810
O22	O	-0.913427	1.428438	0.299895
O23	O	-0.913429	1.428436	-0.084863
O24	O	-0.913429	1.043680	0.299901
O25	O	-1.128521	1.428434	-0.084865
O26	O	-1.128520	1.213345	0.299897
O27	O	-1.128521	1.043677	0.299900
O28	O	-1.128520	1.428435	0.084803
O29	O	-1.513285	1.043671	-0.299953
O30	O	-0.743760	1.213349	0.299900
O31	O	-0.743759	1.428440	0.299897
O32	O	-0.743760	1.428439	0.084806
O33	O	-1.513285	0.828581	-0.084858
O34	O	-1.513284	1.043672	-0.084862
O35	O	-1.001899	1.191822	0.189905
O36	O	-1.001899	1.318443	0.063282
O37	O	-1.255144	1.191819	-0.063339
O38	O	-1.255144	1.065198	0.063284
C39	C	-0.790041	1.128513	-0.000024
C40	C	-0.675163	1.128514	-0.000023
C41	C	-1.128524	0.790030	-0.000021
C42	C	-1.128525	0.675154	-0.000019
C43	C	-0.467002	1.128509	-0.000028
C44	C	-0.581875	1.128515	-0.000027
C45	C	-1.128524	1.128508	-0.338506
C46	C	-1.128525	1.128508	-0.453382
C47	C	-1.128521	1.466989	-0.000032
C48	C	-1.128520	1.581866	-0.000033
C49	C	-1.128521	1.128511	0.338453
C50	C	-1.128520	1.128512	0.453330
C51	C	-0.790039	1.466992	-0.000029
C52	C	-0.675161	1.581870	-0.000030
C53	C	-0.790039	1.128515	0.338456
C54	C	-0.675161	1.128516	0.453333
C55	C	-0.790037	1.466994	0.338450
C56	C	-0.675159	1.581872	0.453326
C57	C	-1.467007	0.790025	-0.338503
C58	C	-1.581886	0.675147	-0.453379
C59	C	-1.467006	0.790027	-0.000024
C60	C	-1.581884	0.675149	-0.000023
C61	C	-1.467005	1.128505	-0.338508
C62	C	-1.581884	1.128503	-0.453386
