data_functionalizedCrystal
_audit_creation_method	'MofGen! by Chris Wilmer'
_symmetry_space_group_name_H-M	'P1'
_symmetry_Int_Tables_number	1
_symmetry_cell_setting	triclinic
loop_
_symmetry_equiv_pos_as_xyz
  x,y,z
_cell_length_a	27.440280
_cell_length_b	27.440280
_cell_length_c	27.440280
_cell_angle_alpha	60.003398
_cell_angle_beta	90.005633
_cell_angle_gamma	60.004534
loop_
_atom_site_label
_atom_site_type_symbol
_atom_site_fract_x
_atom_site_fract_y
_atom_site_fract_z
Zr1	Zr	0.469572	0.533327	-0.063884
O2	O	0.391768	0.634989	-0.141703
O3	O	0.493414	0.431666	-0.040030
O4	O	0.493430	0.533315	-0.141691
O5	O	0.391750	0.533349	0.040152
O6	O	0.573633	0.533306	-0.141681
O7	O	0.391752	0.533339	-0.040041
O8	O	0.573604	0.351473	0.040173
O9	O	0.391779	0.715181	-0.141702
O10	O	0.563448	0.473473	-0.029848
O11	O	0.503592	0.473488	0.029992
O12	O	0.503610	0.593167	-0.089701
O13	O	0.443754	0.593181	-0.029861
Zr14	Zr	0.597483	0.533327	0.064031
Zr15	Zr	0.597486	0.533312	-0.063868
Zr16	Zr	0.469568	0.533342	0.064015
Zr17	Zr	0.469588	0.661225	-0.063883
Zr18	Zr	0.597466	0.405430	0.064029
O19	O	0.573641	0.634989	0.040176
O20	O	0.573646	0.634967	-0.141680
O21	O	0.391763	0.635010	0.040153
O22	O	0.675286	0.431666	0.141849
O23	O	0.675291	0.431644	-0.040007
O24	O	0.493409	0.431687	0.141826
O25	O	0.675304	0.533306	-0.040006
O26	O	0.573625	0.533339	0.141838
O27	O	0.493422	0.533349	0.141828
O28	O	0.675302	0.533315	0.040188
O29	O	0.493453	0.715169	-0.141689
O30	O	0.573601	0.351485	0.141835
O31	O	0.675276	0.351473	0.141848
O32	O	0.675279	0.351461	0.040185
O33	O	0.391776	0.715193	-0.040039
O34	O	0.493450	0.715181	-0.040026
O35	O	0.563444	0.473488	0.089847
O36	O	0.623300	0.473474	0.030007
O37	O	0.563463	0.593167	-0.029846
O38	O	0.503607	0.593181	0.029994
C39	C	0.373526	0.533346	0.000053
C40	C	0.319223	0.533352	0.000046
C41	C	0.533507	0.373347	0.000071
C42	C	0.533500	0.319051	0.000071
C43	C	0.013760	0.470837	0.031332
C44	C	-0.037258	0.470833	0.031338
O45	O	-0.037083	0.417698	0.057927
N46	N	-0.094010	0.533311	0.000094
C47	C	-0.099742	0.595797	-0.031152
O48	O	-0.152698	0.648939	-0.057726
C49	C	-0.048724	0.595800	-0.031153
C50	C	0.008027	0.533318	0.000088
C51	C	0.070508	0.408360	0.062571
C52	C	0.121523	0.408364	0.062565
C53	C	0.115790	0.470845	0.031320
C54	C	0.059042	0.533322	0.000081
C55	C	-0.054457	0.658286	-0.062395
C56	C	-0.003432	0.658283	-0.062393
C57	C	0.053318	0.595801	-0.031153
C58	C	0.104323	0.595807	-0.031170
N59	N	0.161074	0.533329	0.000073
C60	C	0.166808	0.470848	0.031318
C61	C	-0.206880	0.595786	-0.031145
C62	C	-0.257898	0.595784	-0.031148
C63	C	-0.195411	0.470819	0.031343
C64	C	-0.144393	0.470823	0.031341
C65	C	-0.150129	0.533308	0.000098
C66	C	0.273940	0.470862	0.031302
C67	C	0.324956	0.470871	0.031291
C68	C	0.262465	0.595835	-0.031196
C69	C	0.211453	0.595826	-0.031188
C70	C	0.217194	0.533334	0.000066
O71	O	0.104193	0.648916	-0.057744
O72	O	0.219765	0.417715	0.057894
C73	C	0.564788	-0.017699	-0.031157
C74	C	0.564794	-0.068722	-0.031156
O75	O	0.591384	-0.095135	-0.057702
N76	N	0.533549	-0.094231	0.000079
C77	C	0.502301	-0.068718	0.031319
O78	O	0.475726	-0.095101	0.057887
C79	C	0.502300	-0.017699	0.031320
C80	C	0.533542	0.007812	0.000079
C81	C	0.596028	0.007812	-0.062396
C82	C	0.596022	0.058833	-0.062398
C83	C	0.564775	0.084344	-0.031162
C84	C	0.533535	0.058833	0.000076
C85	C	0.471056	0.007809	0.062563
C86	C	0.471058	0.058832	0.062563
C87	C	0.502300	0.084343	0.031321
C88	C	0.502283	0.135365	0.031310
N89	N	0.533527	0.160874	0.000075
C90	C	0.564774	0.135364	-0.031161
C91	C	0.502308	-0.175864	0.031314
C92	C	0.502306	-0.226879	0.031309
C93	C	0.564799	-0.226880	-0.031164
C94	C	0.564797	-0.175861	-0.031163
C95	C	0.533553	-0.150355	0.000079
C96	C	0.564757	0.242512	-0.031164
C97	C	0.564746	0.293540	-0.031166
C98	C	0.502256	0.293534	0.031311
C99	C	0.502264	0.242514	0.031310
C100	C	0.533519	0.217002	0.000072
O101	O	0.475708	0.161808	0.057845
O102	O	0.591351	0.161746	-0.057718
C103	C	0.693528	0.533308	0.000093
C104	C	0.747831	0.533302	0.000100
C105	C	0.533532	0.533308	-0.159909
C106	C	0.533533	0.533302	-0.214206
C107	C	0.533548	0.693308	0.000075
C108	C	0.533555	0.747604	0.000076
C109	C	0.564775	0.470837	-0.417671
C110	C	0.564776	0.470833	-0.366649
O111	O	0.591357	0.417698	-0.313690
N112	N	0.533539	0.533311	-0.372374
C113	C	0.502303	0.595797	-0.429127
O114	O	0.475734	0.648939	-0.429311
C115	C	0.502305	0.595800	-0.480147
C116	C	0.533540	0.533318	-0.474417
C117	C	0.596007	0.408360	-0.411943
C118	C	0.596005	0.408364	-0.462962
C119	C	0.564770	0.470845	-0.519709
C120	C	0.533537	0.533322	-0.525436
C121	C	0.471073	0.658286	-0.536899
C122	C	0.471079	0.658283	-0.587920
C123	C	0.502313	0.595801	-0.582190
C124	C	0.502300	0.595808	-0.633202
N125	N	0.533537	0.533330	-0.627476
C126	C	0.564772	0.470848	-0.570730
C127	C	0.502301	0.595786	-0.321977
C128	C	0.502295	0.595784	-0.270957
C129	C	0.564770	0.470819	-0.208482
C130	C	0.564772	0.470822	-0.259503
C131	C	0.533539	0.533308	-0.316251
C132	C	0.564764	0.470862	-0.677875
C133	C	0.564757	0.470871	-0.728902
C134	C	0.502285	0.595835	-0.791371
C135	C	0.502289	0.595826	-0.740350
C136	C	0.533533	0.533334	-0.683600
O137	O	0.475735	0.648916	-0.686179
O138	O	0.591343	0.417715	-0.570555
C139	C	0.533523	0.533346	0.160055
C140	C	0.533521	0.533352	0.214352
C141	C	0.693508	0.373328	0.000091
C142	C	0.747804	0.319026	0.000097
C143	C	0.533502	0.373366	0.160054
C144	C	0.533494	0.319076	0.214349
C145	C	0.693503	0.373347	0.160074
C146	C	0.747798	0.319051	0.214376
C147	C	0.373551	0.693308	-0.159927
C148	C	0.319257	0.747603	-0.214230
C149	C	0.373547	0.693326	0.000055
C150	C	0.319251	0.747629	0.000049
C151	C	0.533552	0.693289	-0.159907
C152	C	0.533561	0.747578	-0.214203
C153	C	0.742059	0.293525	-0.031149
C154	C	0.793071	0.242509	-0.031155
C155	C	0.849827	0.216992	0.000089
C156	C	0.855570	0.242498	0.031336
C157	C	0.804559	0.293516	0.031338
C158	C	0.564732	0.293581	0.271096
C159	C	0.564722	0.242578	0.322118
C160	C	0.533476	0.217066	0.316391
C161	C	0.502234	0.242566	0.259639
C162	C	0.502241	0.293572	0.208618
C163	C	0.804545	0.293546	0.208642
C164	C	0.855565	0.242536	0.259660
C165	C	0.849837	0.217029	0.316412
C166	C	0.793084	0.242539	0.322146
C167	C	0.742065	0.293552	0.271128
C168	C	0.262510	0.773115	-0.208495
C169	C	0.211490	0.824140	-0.259514
C170	C	0.217217	0.849650	-0.316266
C171	C	0.273970	0.824136	-0.322000
C172	C	0.324989	0.773115	-0.270982
C173	C	0.324995	0.773135	0.031290
C174	C	0.273984	0.824165	0.031282
C175	C	0.217228	0.849684	0.000036
C176	C	0.211484	0.824175	-0.031209
C177	C	0.262496	0.773150	-0.031204
C178	C	0.564813	0.773073	-0.208458
C179	C	0.564832	0.824077	-0.259469
C180	C	0.533596	0.849589	-0.316226
C181	C	0.502344	0.824089	-0.321971
C182	C	0.502328	0.773082	-0.270960
H183	H	0.371165	0.419989	0.056733
H184	H	0.891385	0.175492	0.357949
H185	H	0.476795	0.221787	0.254985
H186	H	0.476862	0.646672	-0.368183
N187	N	0.468608	-0.254389	0.065005
H188	H	0.473349	-0.290584	0.060271
H189	H	0.424918	-0.215427	0.048597
N190	N	0.916774	0.215012	0.253473
H191	H	0.939343	0.223892	0.273240
H192	H	0.912610	0.238916	0.209769
H193	H	0.809220	0.314306	0.162436
H194	H	0.445613	0.079597	0.088003
H195	H	0.476846	0.646704	-0.745017
N196	N	0.468651	0.851614	-0.383190
H197	H	0.448848	0.827726	-0.379096
H198	H	0.497343	0.842728	-0.405711
N199	N	0.076695	0.340967	0.096270
H200	H	0.099237	0.313652	0.139974
H201	H	0.099216	0.313710	0.079832
N202	N	0.150266	0.851695	-0.064898
H203	H	0.154361	0.827797	-0.084690
H204	H	0.127742	0.902907	-0.096305
N205	N	0.468617	0.745588	-0.277161
H206	H	0.448833	0.769493	-0.320858
H207	H	0.437203	0.754478	-0.257365
H208	H	0.590186	0.314311	-0.056608
N209	N	0.256290	0.663221	-0.064887
H210	H	0.212599	0.702806	-0.084678
H211	H	0.276095	0.665944	-0.096296
H212	H	0.809245	0.314272	0.056786
N213	N	0.280186	0.851670	0.064983
H214	H	0.323882	0.827753	0.084781
H215	H	0.260374	0.842802	0.096387
H216	H	0.590176	0.314347	0.275771
H217	H	0.371204	0.752361	0.056737
N218	N	0.786911	0.215025	0.383359
H219	H	0.827845	0.178837	0.414803
H220	H	0.764352	0.193892	0.388085
H221	H	0.257810	0.752384	-0.056642
N222	N	0.629725	-0.019688	-0.096098
H223	H	0.624990	-0.055880	-0.091367
H224	H	0.673413	-0.040810	-0.079693
H225	H	0.695861	0.314311	0.275806
H226	H	0.590249	0.752310	-0.162248
H227	H	0.590203	0.419944	-0.162268
N228	N	-0.083186	0.403432	0.065034
H229	H	-0.087302	0.363854	0.084825
H230	H	-0.060653	0.400709	0.096444
N231	N	0.598423	0.215078	0.383325
H232	H	0.618222	0.238976	0.379206
H233	H	0.629825	0.163864	0.405859
H234	H	0.901788	0.221714	0.056773
H235	H	0.695850	0.314300	-0.056598
H236	H	0.257835	0.752348	-0.162289
H237	H	0.175670	0.891194	-0.357803
H238	H	0.590281	0.844834	-0.254780
H239	H	0.533614	0.891122	-0.357758
N240	N	-0.213069	0.663184	-0.064855
H241	H	-0.235608	0.690506	-0.048473
H242	H	-0.235591	0.690433	-0.108549
N243	N	0.162208	0.904715	0.000034
H244	H	0.162195	0.947043	-0.017742
H245	H	0.162221	0.886899	0.042360
N246	N	0.280136	0.403461	0.065011
H247	H	0.323830	0.363888	0.084796
H248	H	0.260328	0.400732	0.036329
H249	H	0.167728	0.357485	0.088002
N250	N	0.904842	0.161958	0.000089
H251	H	0.941672	0.149657	0.024624
H252	H	0.904808	0.179752	-0.042240
H253	H	0.165284	0.844905	-0.254834
H254	H	-0.190750	0.419944	0.056782
N255	N	0.280144	0.851653	-0.383213
H256	H	0.239209	0.887842	-0.414657
H257	H	0.302694	0.812691	-0.387941
H258	H	-0.008110	0.709168	-0.087828
N259	N	0.386196	0.745591	-0.277166
H260	H	0.390985	0.784509	-0.299702
H261	H	0.390923	0.724421	-0.299690
N262	N	-0.319104	0.663175	-0.064851
H263	H	-0.314988	0.702753	-0.084643
H264	H	-0.341630	0.665902	-0.036165
H265	H	0.621463	0.079600	-0.087836
H266	H	0.165243	0.646704	-0.056635
N267	N	-0.115659	0.725677	-0.096084
H268	H	-0.120442	0.752996	-0.139789
H269	H	-0.120386	0.752930	-0.079643
N270	N	0.598467	0.215000	-0.064855
H271	H	0.618253	0.238911	-0.084643
H272	H	0.569787	0.223873	-0.096266
N273	N	0.786869	0.215006	-0.064859
H274	H	0.743173	0.238911	-0.084645
H275	H	0.806671	0.163794	-0.036177
N276	N	0.533472	0.162051	0.371423
H277	H	0.558007	0.149773	0.408239
H278	H	0.551237	0.119749	0.371399
H279	H	0.590237	-0.155093	-0.056602
H280	H	0.590242	-0.247661	-0.056598
H281	H	0.476859	-0.155095	0.056752
N282	N	0.468511	0.321104	0.147413
H283	H	0.448707	0.297210	0.151533
H284	H	0.497167	0.312240	0.124856
H285	H	0.445617	-0.012954	0.088004
H286	H	0.476814	0.314316	0.056740
N287	N	0.468558	0.215006	0.064994
H288	H	0.448759	0.238914	0.084778
H289	H	0.497242	0.163795	0.096407
H290	H	0.621442	0.357485	-0.458289
H291	H	0.590191	0.419989	-0.724229
H292	H	0.590206	0.419975	-0.631673
H293	H	0.590206	0.419944	-0.254832
N294	N	0.629702	0.340964	-0.350740
H295	H	0.649485	0.301392	-0.354864
H296	H	0.601014	0.338240	-0.328216
H297	H	0.476853	0.646663	-0.275630
H298	H	0.445640	0.709165	-0.541576
N299	N	0.437398	0.725680	-0.649128
H300	H	0.417615	0.765256	-0.645010
H301	H	0.405984	0.728417	-0.671670
H302	H	0.476852	0.646706	-0.837583
