data_functionalizedCrystal
_audit_creation_method	'MofGen! by Chris Wilmer'
_symmetry_space_group_name_H-M	'P1'
_symmetry_Int_Tables_number	1
_symmetry_cell_setting	triclinic
loop_
_symmetry_equiv_pos_as_xyz
  x,y,z
_cell_length_a	10.723023
_cell_length_b	15.625429
_cell_length_c	9.798715
_cell_angle_alpha	71.919703
_cell_angle_beta	89.996770
_cell_angle_gamma	84.344239
loop_
_atom_site_label
_atom_site_type_symbol
_atom_site_fract_x
_atom_site_fract_y
_atom_site_fract_z
O1	O	1.655907	0.126439	-0.176041
O2	O	1.292631	0.138543	-0.182036
O3	O	1.483975	0.001315	-0.114122
O4	O	1.464563	0.263667	-0.243955
O5	O	1.483961	0.001315	0.112861
O6	O	1.292617	0.138543	0.044946
O7	O	1.655892	0.126439	0.050941
Zn8	Zn	1.474252	0.132491	0.083982
Zn9	Zn	1.474271	0.132491	-0.215077
O10	O	1.464549	0.263667	-0.016973
C11	C	1.246134	0.137662	-0.068110
C12	C	1.107606	0.135027	-0.066808
C13	C	1.483089	-0.032277	0.015991
C14	C	1.480456	-0.132373	0.065518
C15	C	0.902685	0.131130	-0.182463
C16	C	1.045861	0.133853	-0.183811
C17	C	1.471799	-0.461575	-0.390185
C18	C	1.469319	-0.555630	-0.343605
C19	C	1.469303	-0.555616	-0.096165
C20	C	1.471790	-0.461561	-0.142724
C21	C	1.473036	-0.414547	-0.289736
C22	C	1.473027	-0.414533	-0.042275
C23	C	1.475506	-0.320484	-0.088831
C24	C	1.476748	-0.273464	-0.235837
C25	C	1.475515	-0.320499	-0.336292
C26	C	1.471772	-0.461547	0.104736
C27	C	1.473009	-0.414519	0.205186
C28	C	1.475497	-0.320470	0.158630
C29	C	1.476739	-0.273449	0.011625
C30	C	1.476730	-0.273435	0.259086
C31	C	1.479210	-0.179386	0.212529
C32	C	1.479219	-0.179401	-0.034932
C33	C	1.702390	0.127320	-0.062988
C34	C	1.840918	0.129955	-0.064299
C35	C	1.465435	0.297260	-0.147088
C36	C	1.468068	0.397355	-0.196624
N37	N	1.474249	0.132490	0.288082
N38	N	1.474285	0.132485	-0.419173
C39	C	1.554591	0.074618	0.384500
C40	C	1.554611	0.074615	0.541664
H41	H	1.098978	0.134869	-0.284980
H42	H	1.054495	0.134022	0.034361
H43	H	1.405474	0.182031	0.321889
C44	C	1.480569	-0.127645	0.323016
C45	C	1.371953	-0.130998	0.426755
C46	C	1.373304	-0.079254	0.537241
C47	C	1.483270	-0.024158	0.543988
C48	C	1.591895	-0.020804	0.440245
C49	C	1.590544	-0.072547	0.329759
H50	H	1.290542	-0.171785	0.421764
H51	H	1.292892	-0.081738	0.614038
H52	H	1.484270	0.014146	0.625776
H53	H	1.673306	0.019984	0.445236
H54	H	1.670956	-0.070064	0.252962
C55	C	1.647502	0.007682	0.338851
C56	C	1.647234	0.007693	0.181689
C57	C	1.740149	-0.059246	0.136046
C58	C	1.833330	-0.126196	0.247566
C59	C	1.833601	-0.126210	0.404737
C60	C	1.740687	-0.059271	0.450380
H61	H	1.578253	0.057255	0.099127
H62	H	1.739948	-0.059236	0.019697
H63	H	1.902111	-0.175749	0.213778
H64	H	1.902583	-0.175773	0.487299
H65	H	1.740888	-0.059281	0.566729
H66	H	1.405501	0.182038	0.498027
H67	H	1.472824	-0.423295	-0.509896
H68	H	0.894034	0.130961	0.035870
H69	H	1.480245	-0.141121	-0.154643
H70	H	1.478754	-0.196883	-0.273741
C71	C	1.467961	-0.607367	-0.454104
C72	C	1.576574	-0.604018	-0.557847
C73	C	1.575210	-0.655757	-0.668339
C74	C	1.465234	-0.710844	-0.675089
C75	C	1.356613	-0.714194	-0.571343
C76	C	1.357976	-0.662456	-0.460850
H77	H	1.657992	-0.563237	-0.552853
H78	H	1.655619	-0.653276	-0.745139
H79	H	1.464225	-0.749143	-0.756882
H80	H	1.275195	-0.754975	-0.576336
H81	H	1.277567	-0.664936	-0.384051
H82	H	1.623401	0.025071	0.624469
H83	H	0.849571	0.130114	-0.282626
H84	H	1.476541	-0.282219	-0.456003
H85	H	1.468284	-0.593907	0.023533
H86	H	1.471989	-0.452810	0.324883
H87	H	1.475703	-0.311726	0.378783
H88	H	1.469739	-0.538126	0.142637
