data_functionalizedCrystal
_audit_creation_method	'MofGen! by Chris Wilmer'
_symmetry_space_group_name_H-M	'P1'
_symmetry_Int_Tables_number	1
_symmetry_cell_setting	triclinic
loop_
_symmetry_equiv_pos_as_xyz
  x,y,z
_cell_length_a	25.427154
_cell_length_b	25.426324
_cell_length_c	25.422586
_cell_angle_alpha	60.006367
_cell_angle_beta	60.012446
_cell_angle_gamma	59.992398
loop_
_atom_site_label
_atom_site_type_symbol
_atom_site_fract_x
_atom_site_fract_y
_atom_site_fract_z
O1	O	0.072968	-0.768436	0.642532
O2	O	0.027520	-0.598284	0.517710
O3	O	0.135268	-0.705940	0.517611
O4	O	-0.034780	-0.660780	0.642632
O5	O	0.171018	-0.670200	0.553260
O6	O	0.063270	-0.562544	0.553360
O7	O	0.108718	-0.732696	0.678182
Zn8	Zn	0.091670	-0.641945	0.621431
Zn9	Zn	0.044568	-0.689034	0.574461
O10	O	0.000970	-0.625039	0.678281
N11	N	0.123818	-0.609812	0.653490
N12	N	0.012426	-0.721173	0.542402
C13	C	0.168482	-0.466269	0.698103
C14	C	0.168494	-0.565177	0.698095
C15	C	0.193243	-0.540453	0.722807
C16	C	0.301113	-0.521853	0.665993
C17	C	0.368545	-0.544324	0.643486
C18	C	0.368579	-0.653434	0.685090
C19	C	0.301149	-0.630961	0.707599
C20	C	0.184722	-0.432539	0.631812
C21	C	0.162210	-0.365100	0.609357
C22	C	0.107225	-0.365129	0.719489
C23	C	0.129737	-0.432567	0.741943
C24	C	0.102194	-0.548896	0.714421
C25	C	0.079702	-0.571372	0.691949
C26	C	0.189805	-0.626409	0.636839
C27	C	0.212300	-0.603934	0.659303
C28	C	0.102289	-0.548918	0.830735
C29	C	0.079866	-0.571415	0.898171
C30	C	0.190015	-0.626466	0.898104
C31	C	0.212437	-0.603971	0.830666
C32	C	0.168573	-0.565195	0.796984
C33	C	0.267418	-0.565170	0.698047
C34	C	-0.130981	-0.765617	0.497386
C35	C	-0.032127	-0.765741	0.497606
C36	C	-0.056804	-0.790430	0.472789
C37	C	-0.075480	-0.898263	0.529507
C38	C	-0.053057	-0.965702	0.552014
C39	C	0.056052	-0.965829	0.510599
C40	C	0.033627	-0.898392	0.488091
C41	C	-0.164787	-0.781859	0.563659
C42	C	-0.232219	-0.759299	0.586018
C43	C	-0.232034	-0.704261	0.475827
C44	C	-0.164602	-0.726821	0.453469
C45	C	-0.048372	-0.699446	0.481299
C46	C	-0.025938	-0.677008	0.503867
C47	C	0.028987	-0.787155	0.559036
C48	C	0.006552	-0.809596	0.536475
C49	C	-0.048188	-0.699454	0.364860
C50	C	-0.025608	-0.677017	0.297425
C51	C	0.029406	-0.787170	0.297492
C52	C	0.006827	-0.809605	0.364929
C53	C	-0.031972	-0.765745	0.398611
C54	C	-0.032140	-0.864611	0.497548
N55	N	0.401319	-0.609788	0.653344
O56	O	0.621664	-0.620517	0.494685
O57	O	0.621901	-0.745740	0.664659
O58	O	0.621803	-0.745452	0.556857
O59	O	0.621762	-0.620805	0.602487
O60	O	0.514676	-0.709815	0.592658
O61	O	0.514774	-0.710104	0.700460
O62	O	0.514537	-0.584881	0.530485
Zn63	Zn	0.497647	-0.641834	0.621157
Zn64	Zn	0.638791	-0.688787	0.573988
O65	O	0.514635	-0.585169	0.638287
N66	N	0.735119	-0.720834	0.541794
N67	N	0.123794	-0.332357	0.653504
O68	O	-0.034774	-0.111885	0.642639
O69	O	0.135202	-0.111860	0.517412
O70	O	0.027364	-0.111888	0.517742
O71	O	0.073064	-0.111857	0.642310
O72	O	0.063120	-0.219026	0.553444
O73	O	0.170958	-0.218998	0.553115
O74	O	0.000983	-0.219022	0.678342
Zn75	Zn	0.091647	-0.236020	0.621397
Zn76	Zn	0.044537	-0.094862	0.574357
O77	O	0.108821	-0.218994	0.678013
N78	N	0.012383	0.001474	0.542251
N79	N	0.124036	-0.609854	0.930891
O80	O	0.113202	-0.768401	1.151342
O81	O	-0.011992	-0.598359	1.151385
O82	O	-0.011700	-0.706176	1.151343
O83	O	0.112910	-0.660584	1.151384
O84	O	0.023980	-0.670446	1.044212
O85	O	0.023689	-0.562630	1.044253
O86	O	0.148882	-0.732671	1.044211
Zn87	Zn	0.091951	-0.641977	1.027223
Zn88	Zn	0.044940	-0.689053	1.168373
O89	O	0.148590	-0.624854	1.044252
N90	N	0.012853	-0.721183	1.264704
C91	C	0.041135	-0.558973	0.518338
C92	C	0.174567	-0.692292	0.518215
C93	C	0.095103	-0.772007	0.677553
C94	C	-0.038330	-0.638687	0.677677
C95	C	0.568366	-0.745166	0.703974
C96	C	0.568246	-0.744810	0.570474
C97	C	0.568069	-0.585454	0.491172
C98	C	0.568192	-0.585812	0.624671
C99	C	0.174449	-0.165294	0.517975
C100	C	0.040949	-0.165460	0.518427
C101	C	-0.038309	-0.165456	0.677735
C102	C	0.095236	-0.165423	0.677328
C103	C	-0.011393	-0.559072	1.097824
C104	C	-0.011024	-0.692583	1.097752
C105	C	0.148283	-0.771958	1.097772
C106	C	0.147922	-0.638440	1.097820
H107	H	0.066565	-0.517338	0.803314
H108	H	0.568264	-0.783967	0.560707
O109	O	0.568447	-0.797239	0.768639
H110	H	0.568469	-0.840917	0.768666
O111	O	0.028275	-0.494229	0.466407
H112	H	0.063042	-0.471665	0.452717
H113	H	-0.050155	-0.702322	1.097697
H114	H	0.567992	-0.546139	0.442358
H115	H	0.187070	-0.628684	1.097824
H116	H	0.568183	-0.546658	0.634434
O117	O	0.179726	-0.328712	0.537853
H118	H	0.210456	-0.363477	0.511141
O119	O	-0.103021	-0.625946	0.729687
H120	H	-0.134570	-0.576122	0.711404
O121	O	0.238966	-0.164916	0.465741
H122	H	0.247897	-0.121153	0.454011
O123	O	0.008370	-0.553842	0.934570
H124	H	-0.018360	-0.523092	0.899816
H125	H	0.105023	-0.165413	0.716462
H126	H	-0.050697	-0.510236	1.097837
H127	H	-0.087123	-0.165464	0.717049
O128	O	0.027989	-0.165463	0.466581
H129	H	0.016063	-0.209137	0.484012
O130	O	0.237325	-0.668334	0.934430
H131	H	0.287183	-0.675892	0.899629
O132	O	0.283933	-0.621519	0.794261
H133	H	0.306048	-0.674688	0.807185
O134	O	0.054950	-0.507105	0.756268
H135	H	0.005069	-0.499558	0.763840
O136	O	0.008193	-0.553822	0.709556
H137	H	-0.018490	-0.523104	0.740312
H138	H	0.104814	-0.820885	0.716757
O139	O	0.237052	-0.668211	0.595003
H140	H	0.286931	-0.675750	0.587427
O141	O	0.283809	-0.621491	0.641704
H142	H	0.310492	-0.652222	0.610960
O143	O	0.200348	-0.836649	1.097769
H144	H	0.182135	-0.868241	1.097762
H145	H	0.223406	-0.701920	0.478955
H146	H	0.396045	-0.707006	0.692856
O147	O	0.264801	-0.677681	0.742165
H148	H	0.299588	-0.727204	0.745013
H149	H	0.273654	-0.468282	0.658214
O150	O	0.404892	-0.497607	0.608914
H151	H	0.370108	-0.448082	0.606049
H152	H	0.075686	-0.337687	0.755188
O153	O	0.226507	-0.468894	0.584532
H154	H	0.234006	-0.434107	0.534661
H155	H	0.116505	-0.460032	0.795926
H156	H	-0.038823	-0.623033	0.269953
H157	H	-0.079784	-0.663733	0.392281
H158	H	0.020039	-0.863588	0.392405
O159	O	0.071249	-0.834474	0.261165
H160	H	0.078733	-0.884340	0.295967
H161	H	-0.079862	-0.663733	0.449648
H162	H	0.060486	-0.822870	0.590677
O163	O	-0.043342	-0.605505	0.486173
H164	H	-0.073961	-0.578778	0.455308
H165	H	0.019779	-0.863579	0.549754
H166	H	0.109606	-0.993335	0.502902
O167	O	0.080374	-0.862094	0.453627
H168	H	0.116486	-0.875079	0.409883
O169	O	-0.099800	-1.002003	0.586491
H170	H	-0.149301	-0.967183	0.589292
H171	H	-0.137414	-0.813456	0.599420
O172	O	-0.146415	-0.861830	0.539711
H173	H	-0.162633	-0.874745	0.515821
O174	O	-0.268689	-0.776816	0.657502
H175	H	-0.233981	-0.807589	0.684284
H176	H	-0.137077	-0.713589	0.399501
O177	O	-0.268305	-0.662421	0.428464
H178	H	-0.233468	-0.654921	0.378622
