data_functionalizedCrystal
_audit_creation_method	'MofGen! by Chris Wilmer'
_symmetry_space_group_name_H-M	'P1'
_symmetry_Int_Tables_number	1
_symmetry_cell_setting	triclinic
loop_
_symmetry_equiv_pos_as_xyz
  x,y,z
_cell_length_a	16.109301
_cell_length_b	23.532407
_cell_length_c	15.186229
_cell_angle_alpha	89.991614
_cell_angle_beta	89.999362
_cell_angle_gamma	83.155079
loop_
_atom_site_label
_atom_site_type_symbol
_atom_site_fract_x
_atom_site_fract_y
_atom_site_fract_z
O1	O	1.102555	0.073202	-0.073182
O2	O	1.602555	0.573202	0.426818
O3	O	0.860421	0.082312	-0.073197
O4	O	1.360421	0.582312	0.426803
O5	O	0.988790	-0.005148	-0.073173
O6	O	1.488790	0.494852	0.426827
O7	O	0.974187	0.160662	-0.073206
O8	O	1.474187	0.660662	0.426794
O9	O	0.988781	-0.005149	0.073284
O10	O	1.488781	0.494851	0.573284
O11	O	0.860413	0.082311	0.073260
O12	O	1.360413	0.582311	0.573260
O13	O	1.102547	0.073201	0.073275
O14	O	1.602547	0.573201	0.573275
Zn15	Zn	0.981478	0.077755	0.096521
Zn16	Zn	1.481478	0.577755	0.596521
Zn17	Zn	0.981490	0.077757	-0.096443
Zn18	Zn	1.481490	0.577757	0.403557
O19	O	0.974178	0.160660	0.073251
O20	O	1.474178	0.660660	0.573251
C21	C	0.829445	0.081942	0.000030
C22	C	1.329445	0.581942	0.500030
C23	C	0.737159	0.080836	0.000025
C24	C	1.237159	0.580836	0.500025
C25	C	0.514498	0.130160	0.000025
C26	C	1.014498	0.630160	0.500025
C27	C	0.427786	0.129116	0.000031
C28	C	0.927786	0.629116	0.500031
C29	C	0.448476	0.025348	0.000048
C30	C	0.948476	0.525348	0.500048
C31	C	0.535187	0.026393	0.000048
C32	C	1.035187	0.526393	0.500048
C33	C	0.568195	0.078801	0.000032
C34	C	1.068195	0.578801	0.500032
C35	C	0.394773	0.076712	0.000038
C36	C	0.894773	0.576712	0.500038
C37	C	0.300755	0.075580	0.000044
C38	C	0.800755	0.575580	0.500044
C39	C	0.662218	0.079933	0.000028
C40	C	1.162218	0.579933	0.500028
C41	C	0.988414	-0.026366	0.000058
C42	C	1.488414	0.473634	0.500058
C43	C	0.987296	-0.089587	0.000064
C44	C	1.487296	0.410413	0.500064
C45	C	1.056249	-0.488436	0.000021
C46	C	1.556249	0.011564	0.500021
C47	C	1.055210	-0.547840	0.000014
C48	C	1.555210	-0.047840	0.500014
O49	O	1.119130	-0.584349	-0.000015
O50	O	1.619130	-0.084349	0.499985
N51	N	0.978895	-0.570748	0.000010
N52	N	1.478895	-0.070748	0.500010
C53	C	0.903614	-0.534248	0.000003
C54	C	1.403614	-0.034248	0.500003
O55	O	0.838607	-0.559187	-0.000002
O56	O	1.338607	-0.059187	0.499998
C57	C	0.904654	-0.474845	0.000004
C58	C	1.404654	0.025155	0.500004
C59	C	0.980973	-0.451941	0.000017
C60	C	1.480973	0.048059	0.500017
C61	C	1.132562	-0.465531	0.000033
C62	C	1.632562	0.034469	0.500033
C63	C	1.133601	-0.406131	0.000041
C64	C	1.633601	0.093869	0.500041
C65	C	1.058325	-0.369636	0.000037
C66	C	1.558325	0.130364	0.500037
C67	C	0.982012	-0.392541	0.000025
C68	C	1.482012	0.107459	0.500025
C69	C	0.829373	-0.438346	-0.000009
C70	C	1.329373	0.061654	0.499991
C71	C	0.830419	-0.378940	-0.000009
C72	C	1.330419	0.121060	0.499991
C73	C	0.906739	-0.356036	0.000004
C74	C	1.406739	0.143964	0.500004
C75	C	0.907774	-0.296645	0.000030
C76	C	1.407774	0.203355	0.500030
N77	N	0.984089	-0.273738	0.000034
N78	N	1.484089	0.226262	0.500034
C79	C	1.059365	-0.310233	0.000038
C80	C	1.559365	0.189767	0.500038
C81	C	0.901437	-0.658998	0.000001
C82	C	1.401437	-0.158998	0.500001
C83	C	0.900396	-0.718400	0.000007
C84	C	1.400396	-0.218400	0.500007
C85	C	1.051993	-0.731988	0.000016
C86	C	1.551993	-0.231988	0.500016
C87	C	1.053032	-0.672585	0.000016
C88	C	1.553032	-0.172585	0.500016
C89	C	0.977752	-0.636091	0.000005
C90	C	1.477752	-0.136091	0.500005
C91	C	1.061539	-0.185488	0.000056
C92	C	1.561539	0.314512	0.500056
C93	C	1.062571	-0.126082	0.000068
C94	C	1.562571	0.373918	0.500068
C95	C	0.910975	-0.112499	0.000055
C96	C	1.410975	0.387501	0.500055
C97	C	0.909943	-0.171900	0.000047
C98	C	1.409943	0.328100	0.500047
C99	C	0.985232	-0.208394	0.000045
C100	C	1.485232	0.291606	0.500045
O101	O	0.843888	-0.260102	0.000055
O102	O	1.343888	0.239898	0.500055
O103	O	1.124361	-0.285285	0.000031
O104	O	1.624361	0.214715	0.500031
C105	C	1.133523	0.073570	0.000046
C106	C	1.633523	0.573570	0.500046
C107	C	1.225809	0.074677	0.000046
C108	C	1.725809	0.574677	0.500046
C109	C	0.974554	0.181878	0.000018
C110	C	1.474554	0.681878	0.500018
C111	C	0.975672	0.245100	0.000006
C112	C	1.475672	0.745100	0.500006
N113	N	0.981477	0.077754	0.228214
N114	N	1.481477	0.577754	0.728214
N115	N	0.981498	0.077754	-0.228136
N116	N	1.481498	0.577754	0.271864
C117	C	1.038337	0.039040	0.453947
C118	C	1.538337	0.539040	0.953947
C119	C	1.038340	0.039039	0.546137
C120	C	1.538340	0.539039	1.046137
C121	C	0.924631	0.116470	0.546124
C122	C	1.424631	0.616470	1.046124
C123	C	0.924625	0.116468	0.453936
C124	C	1.424625	0.616468	0.953936
C125	C	0.981483	0.077754	0.407850
C126	C	1.481483	0.577754	0.907850
C127	C	0.981492	0.077754	0.592228
C128	C	1.481492	0.577754	1.092228
C129	C	0.981494	0.077753	0.692184
C130	C	1.481494	0.577753	1.192184
C131	C	0.981480	0.077754	0.307888
C132	C	1.481480	0.577754	0.807888
H133	H	0.578910	-0.015433	0.000057
H134	H	1.078910	0.484567	0.500057
O135	O	1.136785	-0.103929	0.000038
O136	O	1.636785	0.396071	0.500038
C137	C	1.202999	-0.148883	0.000058
C138	C	1.702999	0.351117	0.500058
H139	H	1.180035	-0.189230	-0.027675
H140	H	1.680035	0.310770	0.472325
H141	H	1.226192	-0.157301	0.070322
H142	H	1.726192	0.342699	0.570322
C143	C	1.303226	-0.082560	-0.023308
C144	C	1.803226	0.417440	0.476692
C145	C	1.275022	-0.132114	-0.057378
C146	C	1.775022	0.367886	0.442622
H147	H	1.347655	-0.072216	-0.058733
H148	H	1.847655	0.427784	0.441267
H149	H	1.258617	-0.052273	-0.023318
H150	H	1.758617	0.447727	0.476682
H151	H	1.322547	-0.089582	0.035244
H152	H	1.822547	0.410418	0.535244
H153	H	1.255692	-0.125090	-0.115924
H154	H	1.755692	0.374910	0.384076
H155	H	1.319630	-0.162400	-0.057379
H156	H	1.819630	0.337600	0.442621
H157	H	0.878340	0.147991	0.583657
H158	H	1.378340	0.647991	1.083657
H159	H	0.878323	0.147994	0.416402
H160	H	1.378323	0.647994	0.916402
H161	H	0.541371	0.172834	0.000019
H162	H	1.041371	0.672834	0.500019
H163	H	0.847797	-0.190549	0.000061
H164	H	1.347797	0.309451	0.500061
O165	O	0.375743	0.179060	-0.000018
O166	O	0.875743	0.679060	0.499982
C167	C	0.423476	0.225537	-0.000009
C168	C	0.923476	0.725537	0.499991
H169	H	0.488318	0.211070	-0.027735
H170	H	0.988318	0.711070	0.472265
H171	H	0.429519	0.241600	0.070251
H172	H	0.929519	0.741600	0.570251
C173	C	0.300221	0.291916	-0.023398
C174	C	0.800221	0.791916	0.476602
C175	C	0.379859	0.274149	-0.057460
C176	C	0.879859	0.774149	0.442540
H177	H	0.273315	0.321904	-0.058833
H178	H	0.773315	0.821904	0.441167
H179	H	0.268062	0.260605	-0.023401
H180	H	0.768062	0.760605	0.476599
H181	H	0.305268	0.305299	0.035151
H182	H	0.805268	0.805299	0.535151
H183	H	0.374810	0.260761	-0.116003
H184	H	0.874810	0.760761	0.383997
H185	H	0.412016	0.305460	-0.057468
H186	H	0.912016	0.805460	0.442532
O187	O	1.134620	-0.220990	0.000175
O188	O	1.634620	0.279010	0.500175
C189	C	1.138564	-0.255757	0.076036
C190	C	1.638564	0.244243	0.576036
H191	H	1.072598	-0.258768	0.101314
H192	H	1.572598	0.241232	0.601314
H193	H	1.176356	-0.236218	0.129157
H194	H	1.676356	0.263782	0.629157
C195	C	1.261951	-0.312365	0.021949
C196	C	1.761951	0.187635	0.521949
C197	C	1.180930	-0.316066	0.052991
C198	C	1.680930	0.183934	0.552991
H199	H	1.288087	-0.349566	0.007737
H200	H	1.788087	0.150434	0.507737
H201	H	1.259296	-0.288940	-0.029158
H202	H	1.759296	0.211060	0.470842
H203	H	1.293434	-0.296080	0.066222
H204	H	1.793434	0.203920	0.566222
H205	H	1.149446	-0.332344	0.008715
H206	H	1.649446	0.167656	0.508715
H207	H	1.183581	-0.339495	0.104091
H208	H	1.683581	0.160505	0.604091
O209	O	1.205768	-0.500896	0.000078
O210	O	1.705768	-0.000896	0.500078
C211	C	1.273336	-0.467929	0.000065
C212	C	1.773336	0.032071	0.500065
H213	H	1.251838	-0.423596	0.027786
H214	H	1.751838	0.076404	0.527786
H215	H	1.296761	-0.463694	-0.070194
H216	H	1.796761	0.036306	0.429806
C217	C	1.370946	-0.551977	0.023468
C218	C	1.870946	-0.051977	0.523468
C219	C	1.344543	-0.497527	0.057522
C220	C	1.844543	0.002473	0.557522
H221	H	1.414871	-0.570235	0.058907
H222	H	1.914871	-0.070235	0.558907
H223	H	1.325424	-0.574188	0.023474
H224	H	1.825424	-0.074188	0.523474
H225	H	1.390461	-0.548440	-0.035081
H226	H	1.890461	-0.048440	0.464919
H227	H	1.325018	-0.501065	0.116065
H228	H	1.825018	-0.001065	0.616065
H229	H	1.390062	-0.475317	0.057528
H230	H	1.890062	0.024683	0.557528
O231	O	1.127189	-0.650365	-0.000136
O232	O	1.627189	-0.150365	0.499864
C233	C	1.173056	-0.669025	-0.075973
C234	C	1.673056	-0.169025	0.424027
H235	H	1.128420	-0.681373	-0.128990
H236	H	1.628420	-0.181373	0.371010
H237	H	1.219708	-0.707747	-0.058819
H238	H	1.719708	-0.207747	0.441181
C239	C	1.275256	-0.605257	-0.045253
C240	C	1.775256	-0.105257	0.454747
C241	C	1.220433	-0.620418	-0.110372
C242	C	1.720433	-0.120418	0.389628
H243	H	1.304484	-0.575275	-0.066471
H244	H	1.804484	-0.075275	0.433529
H245	H	1.244357	-0.592687	0.005842
H246	H	1.744357	-0.092687	0.505842
H247	H	1.314126	-0.637530	-0.030964
H248	H	1.814126	-0.137530	0.469036
H249	H	1.181559	-0.588148	-0.124652
H250	H	1.681559	-0.088148	0.375348
H251	H	1.251327	-0.632982	-0.161470
H252	H	1.751327	-0.132982	0.338530
H253	H	0.421590	-0.017320	0.000066
H254	H	0.921590	0.482680	0.500066
H255	H	1.195748	-0.387488	0.000048
H256	H	1.695748	0.112512	0.500048
O257	O	1.125042	-0.767527	-0.000031
O258	O	1.625042	-0.267527	0.499969
C259	C	1.107750	-0.824867	-0.000017
C260	C	1.607750	-0.324867	0.499983
H261	H	1.042464	-0.827129	-0.027742
H262	H	1.542464	-0.327129	0.472258
H263	H	1.111049	-0.842058	0.070243
H264	H	1.611049	-0.342058	0.570243
C265	C	1.252782	-0.858445	-0.023408
C266	C	1.752782	-0.358445	0.476592
C267	C	1.172600	-0.861224	-0.057468
C268	C	1.672600	-0.361224	0.442532
H269	H	1.292786	-0.880873	-0.058843
H270	H	1.792786	-0.380873	0.441157
H271	H	1.264433	-0.819815	-0.023414
H272	H	1.764433	-0.319815	0.476586
H273	H	1.255519	-0.872770	0.035141
H274	H	1.755519	-0.372770	0.535141
H275	H	1.169861	-0.846893	-0.116012
H276	H	1.669861	-0.346893	0.383988
H277	H	1.160950	-0.899854	-0.057473
H278	H	1.660950	-0.399854	0.442527
H279	H	0.838249	-0.737043	0.000011
H280	H	1.338249	-0.237043	0.500011
H281	H	0.840130	-0.629287	-0.000001
H282	H	1.340130	-0.129287	0.499999
H283	H	1.084635	0.007514	0.583666
H284	H	1.584635	0.507514	1.083666
H285	H	0.767225	-0.456984	-0.000025
H286	H	1.267225	0.043016	0.499975
O287	O	0.757212	-0.343571	0.000020
O288	O	1.257212	0.156429	0.500020
C289	C	0.689636	-0.376531	-0.000017
C290	C	1.189636	0.123469	0.499983
H291	H	0.711117	-0.420870	0.027710
H292	H	1.211117	0.079130	0.527710
H293	H	0.666230	-0.380752	-0.070284
H294	H	1.166230	0.119248	0.429716
C295	C	0.592036	-0.292479	0.023355
C296	C	1.092036	0.207521	0.523355
C297	C	0.618418	-0.346936	0.057416
C298	C	1.118418	0.153064	0.557416
H299	H	0.548103	-0.274223	0.058778
H300	H	1.048103	0.225777	0.558778
H301	H	0.637563	-0.270272	0.023376
H302	H	1.137563	0.229728	0.523376
H303	H	0.572537	-0.296004	-0.035201
H304	H	1.072537	0.203996	0.464799
H305	H	0.637926	-0.343410	0.115966
H306	H	1.137926	0.156590	0.615966
H307	H	0.572893	-0.369141	0.057406
H308	H	1.072893	0.130859	0.557406
H309	H	0.849688	-0.082774	0.000055
H310	H	1.349688	0.417226	0.500055
H311	H	1.084633	0.007515	0.416426
H312	H	1.584633	0.507515	0.916426
