data_functionalizedCrystal
_audit_creation_method	'MofGen! by Chris Wilmer'
_symmetry_space_group_name_H-M	'P1'
_symmetry_Int_Tables_number	1
_symmetry_cell_setting	triclinic
loop_
_symmetry_equiv_pos_as_xyz
  x,y,z
_cell_length_a	16.109301
_cell_length_b	16.109301
_cell_length_c	9.730223
_cell_angle_alpha	89.996364
_cell_angle_beta	89.998837
_cell_angle_gamma	83.461481
loop_
_atom_site_label
_atom_site_type_symbol
_atom_site_fract_x
_atom_site_fract_y
_atom_site_fract_z
O1	O	1.103131	0.106864	-0.114207
O2	O	1.603131	0.606864	0.385793
O3	O	0.861069	0.120163	-0.114230
O4	O	1.361069	0.620163	0.385770
O5	O	0.988750	-0.007517	-0.114204
O6	O	1.488750	0.492483	0.385796
O7	O	0.975451	0.234545	-0.114233
O8	O	1.475451	0.734545	0.385767
O9	O	0.988740	-0.007515	0.114376
O10	O	1.488740	0.492485	0.614376
O11	O	0.861059	0.120166	0.114350
O12	O	1.361059	0.620166	0.614350
O13	O	1.103121	0.106866	0.114373
O14	O	1.603121	0.606866	0.614373
Zn15	Zn	0.982089	0.113516	0.150653
Zn16	Zn	1.482089	0.613516	0.650653
Zn17	Zn	0.982102	0.113513	-0.150511
Zn18	Zn	1.482102	0.613513	0.349489
O19	O	0.975441	0.234547	0.114347
O20	O	1.475441	0.734547	0.614347
C21	C	0.830090	0.119626	0.000057
C22	C	1.330090	0.619626	0.500057
C23	C	0.737794	0.118011	0.000049
C24	C	1.237794	0.618011	0.500049
C25	C	0.515522	0.190018	0.000057
C26	C	1.015522	0.690018	0.500057
C27	C	0.428801	0.188494	0.000066
C28	C	0.928801	0.688494	0.500066
C29	C	0.448676	0.037006	0.000078
C30	C	0.948676	0.537006	0.500078
C31	C	0.535394	0.038530	0.000079
C32	C	1.035394	0.538530	0.500079
C33	C	0.568815	0.115039	0.000061
C34	C	1.068815	0.615039	0.500061
C35	C	0.395376	0.111990	0.000069
C36	C	0.895376	0.611990	0.500069
C37	C	0.301350	0.110337	0.000079
C38	C	0.801350	0.610337	0.500079
C39	C	0.662847	0.116693	0.000054
C40	C	1.162847	0.616693	0.500054
C41	C	0.988206	-0.038491	0.000087
C42	C	1.488206	0.461509	0.500087
C43	C	0.986591	-0.130786	0.000088
C44	C	1.486591	0.369214	0.500088
C45	C	1.058599	-0.353059	0.000073
C46	C	1.558599	0.146941	0.500073
C47	C	1.057075	-0.439779	0.000062
C48	C	1.557075	0.060221	0.500062
C49	C	0.905586	-0.419905	0.000053
C50	C	1.405586	0.080095	0.500053
C51	C	0.907111	-0.333186	0.000055
C52	C	1.407111	0.166814	0.500055
C53	C	0.983620	-0.299766	0.000072
C54	C	1.483620	0.200234	0.500072
C55	C	0.980571	-0.473205	0.000059
C56	C	1.480571	0.026795	0.500059
C57	C	0.978918	-0.567231	0.000046
C58	C	1.478918	-0.067231	0.500046
C59	C	0.985273	-0.205734	0.000082
C60	C	1.485273	0.294266	0.500082
C61	C	1.134101	0.107404	0.000082
C62	C	1.634101	0.607404	0.500082
C63	C	1.226397	0.109019	0.000081
C64	C	1.726397	0.609019	0.500081
C65	C	0.975984	0.265521	0.000053
C66	C	1.475984	0.765521	0.500053
C67	C	0.977600	0.357816	0.000042
C68	C	1.477600	0.857816	0.500042
N69	N	0.982086	0.113518	0.356190
N70	N	1.482086	0.613518	0.856190
C71	C	1.032494	0.163960	0.428109
C72	C	1.532494	0.663960	0.928109
C73	C	1.032507	0.163957	0.571992
C74	C	1.532507	0.663957	1.071992
C75	C	0.931696	0.063065	0.572024
C76	C	1.431696	0.563065	1.072024
C77	C	0.931688	0.063065	0.428143
C78	C	1.431688	0.563065	0.928143
N79	N	0.982107	0.113514	0.643953
N80	N	1.482107	0.613514	1.143953
H81	H	0.421454	-0.025285	0.000101
H82	H	0.921454	0.474715	0.500101
C83	C	0.546337	-0.111369	0.000076
C84	C	1.046337	0.388631	0.500076
C85	C	0.593982	-0.043893	0.000078
C86	C	1.093982	0.456107	0.500078
H87	H	0.582508	-0.162250	0.000070
H88	H	1.082508	0.337750	0.500070
H89	H	0.512101	-0.108817	0.079781
H90	H	1.012101	0.391183	0.579781
H91	H	0.512099	-0.108808	-0.079642
H92	H	1.012099	0.391192	0.420358
H93	H	0.628215	-0.046451	0.079801
H94	H	1.128215	0.453549	0.579801
H95	H	0.628232	-0.046446	-0.079635
H96	H	1.128232	0.453554	0.420365
C97	C	0.601520	0.279612	0.117546
C98	C	1.101520	0.779612	0.617546
C99	C	0.552263	0.274113	0.000047
C100	C	1.052263	0.774113	0.500047
H101	H	0.624204	0.331528	0.117534
H102	H	1.124204	0.831528	0.617534
H103	H	0.568102	0.275872	0.197243
H104	H	1.068102	0.775872	0.697243
H105	H	0.645669	0.235171	0.117532
H106	H	1.145669	0.735171	0.617532
H107	H	0.508110	0.318551	0.000066
H108	H	1.008110	0.818551	0.500066
H109	H	0.585682	0.277861	-0.079671
H110	H	1.085682	0.777861	0.420329
H111	H	1.073555	0.205032	0.630543
H112	H	1.573555	0.705032	1.130543
H113	H	0.846050	-0.289792	0.000050
H114	H	1.346050	0.210208	0.500050
C115	C	0.832031	-0.036659	0.442615
C116	C	1.332031	0.463341	0.942615
C117	C	0.876273	0.007616	0.349078
C118	C	1.376273	0.507616	0.849078
H119	H	0.797820	-0.070886	0.393800
H120	H	1.297820	0.429114	0.893800
H121	H	0.870304	-0.070715	0.498728
H122	H	1.370304	0.429285	0.998728
H123	H	0.797954	0.001600	0.498737
H124	H	1.297954	0.501600	0.998737
H125	H	0.910355	-0.030643	0.292962
H126	H	1.410355	0.469357	0.792962
H127	H	0.837995	0.041675	0.292942
H128	H	1.337995	0.541675	0.792942
H129	H	0.385413	0.249550	0.000065
H130	H	0.885413	0.749550	0.500065
H131	H	1.120897	-0.325851	0.000084
H132	H	1.620897	0.174149	0.500084
H133	H	0.890664	0.021990	0.630626
H134	H	1.390664	0.521990	1.130626
H135	H	1.118130	-0.483168	0.000060
H136	H	1.618130	0.016832	0.500060
H137	H	1.073530	0.205042	0.369529
H138	H	1.573530	0.705042	0.869529
H139	H	0.843295	-0.447127	0.000042
H140	H	1.343295	0.052873	0.500042
