data_functionalizedCrystal
_audit_creation_method	'MofGen! by Chris Wilmer'
_symmetry_space_group_name_H-M	'P1'
_symmetry_Int_Tables_number	1
_symmetry_cell_setting	triclinic
loop_
_symmetry_equiv_pos_as_xyz
  x,y,z
_cell_length_a	14.971475
_cell_length_b	27.732025
_cell_length_c	13.448316
_cell_angle_alpha	90.007920
_cell_angle_beta	90.005879
_cell_angle_gamma	96.878425
loop_
_atom_site_label
_atom_site_type_symbol
_atom_site_fract_x
_atom_site_fract_y
_atom_site_fract_z
O1	O	-1.185949	0.062967	-0.082639
O2	O	-0.925427	0.070515	-0.082641
O3	O	-1.063790	-0.003619	-0.082670
O4	O	-1.047586	0.137101	-0.082610
O5	O	-1.063773	-0.003624	0.082714
O6	O	-0.925410	0.070511	0.082743
O7	O	-1.185932	0.062962	0.082745
Cu8	Cu	-1.055669	0.066736	0.097845
Cu9	Cu	-1.055690	0.066741	-0.097741
O10	O	-1.047569	0.137097	0.082774
C11	C	-0.892099	0.070176	0.000050
C12	C	-0.792818	0.069168	0.000047
C13	C	-0.746171	0.068690	0.090198
C14	C	-0.652887	0.067734	0.090198
C15	C	-0.606251	0.067260	0.000046
C16	C	-0.652905	0.067736	-0.090112
C17	C	-0.746188	0.068688	-0.090111
C18	C	-0.458474	0.065753	-0.090108
C19	C	-0.365184	0.064801	-0.090109
C20	C	-0.365174	0.064799	0.090202
C21	C	-0.458457	0.065751	0.090203
C22	C	-0.505103	0.066228	0.000044
C23	C	-1.063444	-0.021630	0.000012
C24	C	-1.062429	-0.075290	-0.000017
C25	C	-1.055228	-0.458487	-0.090110
C26	C	-1.059026	-0.256810	-0.090142
O27	O	-1.059561	-0.230738	-0.166815
N28	N	-1.059492	-0.231589	0.000006
C29	C	-1.059014	-0.256791	0.090168
O30	O	-1.059506	-0.230712	0.166844
C31	C	-1.055222	-0.458467	0.090199
C32	C	-1.054748	-0.483685	0.000045
C33	C	-1.054755	-0.483704	-0.180257
C34	C	-1.053801	-0.534120	-0.180248
C35	C	-1.053320	-0.559318	-0.090093
C36	C	-1.053793	-0.534100	0.000054
C37	C	-1.054750	-0.483668	0.180361
C38	C	-1.053805	-0.534091	0.180360
C39	C	-1.053330	-0.559308	0.090206
C40	C	-1.052358	-0.609714	0.090219
N41	N	-1.051893	-0.634935	0.000070
C42	C	-1.052374	-0.609737	-0.090085
C43	C	-1.061002	-0.150907	0.090146
C44	C	-1.061949	-0.100488	0.090138
C45	C	-1.061963	-0.100511	-0.090173
C46	C	-1.061010	-0.150931	-0.090164
C47	C	-1.060537	-0.176128	-0.000002
C48	C	-1.050369	-0.715614	-0.090060
C49	C	-1.049410	-0.766034	-0.090043
C50	C	-1.049401	-0.766007	0.090268
C51	C	-1.050354	-0.715591	0.090251
C52	C	-1.050841	-0.690396	0.000080
O53	O	-1.051833	-0.635818	0.166851
O54	O	-1.051901	-0.635826	-0.166749
C55	C	-1.056183	-0.408071	-0.090119
C56	C	-1.056656	-0.382853	0.000027
C57	C	-1.056175	-0.408051	0.090183
C58	C	-1.057602	-0.332434	0.000020
C59	C	-1.058083	-0.307236	-0.090136
C60	C	-1.057618	-0.332457	-0.180284
C61	C	-1.056664	-0.382873	-0.180275
C62	C	-1.056641	-0.382830	0.180331
C63	C	-1.057594	-0.332414	0.180315
C64	C	-1.058075	-0.307216	0.090159
C65	C	-0.219259	0.063304	0.000051
C66	C	-0.318538	0.064324	0.000042
C67	C	-1.047915	0.155108	0.000090
C68	C	-1.048930	0.208768	0.000113
N69	N	-1.055662	0.066732	0.235409
N70	N	-1.055705	0.066742	-0.235305
C71	C	-1.116947	0.033919	0.287437
C72	C	-1.116953	0.033918	0.391540
C73	C	-1.055676	0.066734	0.443614
C74	C	-0.994384	0.099549	0.391579
C75	C	-0.994375	0.099546	0.287478
C76	C	-0.994409	0.099552	0.608559
C77	C	-0.994419	0.099555	0.712667
C78	C	-1.116987	0.033924	0.712621
C79	C	-1.116978	0.033921	0.608520
C80	C	-1.055686	0.066737	0.556492
H81	H	-0.614927	0.067346	-0.163516
O82	O	-1.183053	-0.001471	0.447663
H83	H	-1.226227	0.018919	0.495094
O84	O	-0.314879	0.064287	-0.187341
H85	H	-0.362986	0.064771	-0.250034
H86	H	-0.944496	0.126272	0.566201
H87	H	-0.784166	0.069078	-0.163522
H88	H	-1.049021	-0.786564	-0.163460
H89	H	-0.944469	0.126266	0.245118
H90	H	-1.166892	0.007204	0.754988
O91	O	-0.508759	0.066278	0.187435
H92	H	-0.460653	0.065788	0.250128
H93	H	-0.496451	0.066141	-0.163525
O94	O	-1.183069	-0.001472	0.552354
H95	H	-1.145739	-0.024995	0.504926
H96	H	-1.062318	-0.079959	0.163551
O97	O	-0.928297	0.134948	0.447737
H98	H	-0.885120	0.114568	0.495184
O99	O	-1.056125	-0.410004	0.277576
H100	H	-0.994708	-0.428703	0.281897
H101	H	-0.327189	0.064410	0.163612
H102	H	-1.055149	-0.463194	-0.253676
O103	O	-1.050880	-0.688441	-0.187313
H104	H	-1.050379	-0.714453	-0.249987
O105	O	-1.053262	-0.561315	-0.277485
H106	H	-1.053752	-0.535316	-0.340169
H107	H	-1.060622	-0.171459	-0.163576
O108	O	-1.183035	-0.001478	0.231272
H109	H	-1.225645	-0.024298	0.284944
O110	O	-1.053304	-0.561271	0.277607
H111	H	-0.991891	-0.579973	0.281935
H112	H	-0.944520	0.126276	0.755061
O113	O	-0.796463	0.069205	0.187439
H114	H	-0.869164	0.069952	0.172298
H115	H	-0.614914	0.067337	0.163609
H116	H	-1.060617	-0.171419	0.163570
O117	O	-1.062490	-0.073330	-0.187416
H118	H	-1.063235	-0.034036	-0.172266
H119	H	-1.055146	-0.463145	0.253774
O120	O	-1.050863	-0.688387	0.187484
H121	H	-1.050372	-0.714382	0.250176
H122	H	-1.049006	-0.786532	0.163670
O123	O	-1.056133	-0.410068	-0.277512
H124	H	-1.056626	-0.384069	-0.340195
H125	H	-1.058003	-0.311931	-0.253692
O126	O	-1.058115	-0.305217	0.277558
H127	H	-1.057633	-0.331215	0.340245
