data_functionalizedCrystal
_audit_creation_method	'MofGen! by Chris Wilmer'
_symmetry_space_group_name_H-M	'P1'
_symmetry_Int_Tables_number	1
_symmetry_cell_setting	triclinic
loop_
_symmetry_equiv_pos_as_xyz
  x,y,z
_cell_length_a	10.654550
_cell_length_b	17.699083
_cell_length_c	9.730223
_cell_angle_alpha	89.994713
_cell_angle_beta	89.999957
_cell_angle_gamma	83.883973
loop_
_atom_site_label
_atom_site_type_symbol
_atom_site_fract_x
_atom_site_fract_y
_atom_site_fract_z
O1	O	1.665978	0.106302	-0.114190
O2	O	2.165978	0.606302	0.385810
O3	O	1.300323	0.116430	-0.114216
O4	O	1.800323	0.616430	0.385784
O5	O	1.493481	0.001243	-0.114190
O6	O	1.993481	0.501243	0.385810
O7	O	1.472820	0.221490	-0.114216
O8	O	1.972820	0.721490	0.385784
O9	O	1.493469	0.001240	0.114390
O10	O	1.993469	0.501240	0.614390
O11	O	1.300310	0.116427	0.114364
O12	O	1.800310	0.616427	0.614364
O13	O	1.665966	0.106299	0.114390
O14	O	2.165966	0.606299	0.614390
Zn15	Zn	1.483136	0.111363	0.150669
Zn16	Zn	1.983136	0.611363	0.650669
Zn17	Zn	1.483152	0.111367	-0.150495
Zn18	Zn	1.983152	0.611367	0.349505
O19	O	1.472807	0.221487	0.114364
O20	O	1.972807	0.721487	0.614364
C21	C	1.253531	0.115685	0.000071
C22	C	1.753531	0.615685	0.500071
C23	C	1.114127	0.113460	0.000061
C24	C	1.614127	0.613460	0.500061
C25	C	1.033454	0.181281	0.000058
C26	C	1.533454	0.681281	0.500058
C27	C	0.902470	0.179186	0.000082
C28	C	1.402470	0.679186	0.500082
C29	C	0.932844	0.041444	0.000108
C30	C	1.432844	0.541444	0.500108
C31	C	1.063826	0.043539	0.000094
C32	C	1.563826	0.543539	0.500094
C33	C	1.492735	-0.026960	0.000100
C34	C	1.992735	0.473040	0.500100
C35	C	1.490514	-0.110993	0.000100
C36	C	1.990514	0.389007	0.500100
C37	C	1.603894	-0.158893	0.000110
C38	C	2.103894	0.341107	0.500110
C39	C	1.601799	-0.237849	0.000098
C40	C	2.101799	0.262151	0.500098
C41	C	1.486323	-0.268904	0.000085
C42	C	1.986323	0.231096	0.500085
C43	C	1.372935	-0.220998	0.000071
C44	C	1.872935	0.279002	0.500071
C45	C	1.375030	-0.142043	0.000074
C46	C	1.875030	0.357957	0.500074
C47	C	1.364481	-0.539415	0.000060
C48	C	1.864481	-0.039415	0.500060
C49	C	1.362394	-0.618376	0.000061
C50	C	1.862394	-0.118376	0.500061
C51	C	1.591249	-0.635221	0.000083
C52	C	2.091249	-0.135221	0.500083
C53	C	1.593345	-0.556266	0.000086
C54	C	2.093345	-0.056266	0.500086
C55	C	1.479957	-0.508367	0.000065
C56	C	1.979957	-0.008367	0.500065
C57	C	1.482229	-0.422753	0.000075
C58	C	1.982229	0.077247	0.500075
C59	C	1.484050	-0.354516	0.000085
C60	C	1.984050	0.145484	0.500085
C61	C	1.712757	0.107045	0.000100
C62	C	2.212757	0.607045	0.500100
C63	C	1.852161	0.109269	0.000100
C64	C	2.352161	0.609269	0.500100
C65	C	1.473554	0.249690	0.000071
C66	C	1.973554	0.749690	0.500071
C67	C	1.475775	0.333722	0.000061
C68	C	1.975775	0.833722	0.500061
N69	N	1.483134	0.111359	0.356205
N70	N	1.983134	0.611359	0.856205
N71	N	1.483164	0.111364	-0.356032
N72	N	1.983164	0.611364	0.143968
C73	C	1.568694	0.060376	0.428142
C74	C	2.068694	0.560376	0.928142
C75	C	1.568706	0.060376	0.572025
C76	C	2.068706	0.560376	1.072025
C77	C	1.397596	0.162350	0.572021
C78	C	1.897596	0.662350	1.072021
C79	C	1.397578	0.162345	0.428141
C80	C	1.897578	0.662345	0.928141
H81	H	1.129514	-0.011692	0.000101
H82	H	1.629514	0.488308	0.500101
H83	H	1.327940	0.203863	0.630605
H84	H	1.827940	0.703863	1.130605
Br85	Br	1.745137	-0.700232	0.000112
Br86	Br	2.245137	-0.200232	0.500112
Br87	Br	1.210596	-0.474418	0.000022
Br88	Br	1.710596	0.025582	0.500022
H89	H	1.268354	-0.643657	0.000054
H90	H	1.768354	-0.143657	0.500054
H91	H	1.278912	-0.246289	0.000053
H92	H	1.778912	0.253711	0.500053
Br93	Br	1.684802	-0.008820	0.330520
Br94	Br	2.184802	0.491180	0.830520
H95	H	0.891873	-0.015484	0.000143
H96	H	1.391873	0.484516	0.500143
H97	H	1.638375	0.018860	0.630593
H98	H	2.138375	0.518860	1.130593
Br99	Br	1.101717	0.276172	0.000019
Br100	Br	1.601717	0.776172	0.500019
Br101	Br	1.760619	-0.116755	0.000147
Br102	Br	2.260619	0.383245	0.500147
Br103	Br	1.281444	0.231536	0.330500
Br104	Br	1.781444	0.731536	0.830500
Br105	Br	1.755679	-0.302855	0.000111
Br106	Br	2.255679	0.197145	0.500111
Br107	Br	1.750067	-0.514124	0.000102
Br108	Br	2.250067	-0.014124	0.500102
Br109	Br	1.221152	-0.077034	0.000049
Br110	Br	1.721152	0.422966	0.500049
H111	H	0.836791	0.234412	0.000081
H112	H	1.336791	0.734412	0.500081
