data_functionalizedCrystal
_audit_creation_method	'MofGen! by Chris Wilmer'
_symmetry_space_group_name_H-M	'P1'
_symmetry_Int_Tables_number	1
_symmetry_cell_setting	triclinic
loop_
_symmetry_equiv_pos_as_xyz
  x,y,z
_cell_length_a	13.635800
_cell_length_b	14.681825
_cell_length_c	19.551833
_cell_angle_alpha	92.028784
_cell_angle_beta	78.336523
_cell_angle_gamma	134.853723
loop_
_atom_site_label
_atom_site_type_symbol
_atom_site_fract_x
_atom_site_fract_y
_atom_site_fract_z
V1	V	-2.106315	-0.179110	0.217852
O2	O	-1.992964	0.007221	0.213711
O3	O	-2.182749	-0.353811	0.216356
O4	O	-2.076425	-0.176963	0.312867
O5	O	-2.100023	-0.170852	0.116532
V6	V	-2.335826	-0.156750	0.205734
O7	O	-2.263816	-0.228156	0.244434
O8	O	-2.403424	-0.107704	0.179152
O9	O	-2.147789	0.017951	0.207230
O10	O	-2.507876	-0.343081	0.209875
O11	O	-2.400816	-0.165008	0.307054
O12	O	-2.254112	-0.158897	0.110718
V13	V	-1.606315	-0.179110	0.217852
O14	O	-1.492964	0.007221	0.213711
O15	O	-1.682749	-0.353811	0.216356
O16	O	-1.576425	-0.176963	0.312867
O17	O	-1.600023	-0.170852	0.116532
V18	V	-1.835826	-0.156750	0.205734
O19	O	-1.763816	-0.228156	0.244434
O20	O	-1.903424	-0.107704	0.179152
O21	O	-1.647789	0.017951	0.207230
O22	O	-2.007876	-0.343081	0.209875
O23	O	-1.900816	-0.165008	0.307054
O24	O	-1.754112	-0.158897	0.110718
C25	C	-1.629914	-0.396381	0.212918
C26	C	-1.733013	-0.539205	0.212328
C27	C	-1.993883	-0.750165	0.215434
C28	C	-1.886844	-0.601691	0.216318
C29	C	-1.744360	-0.608817	0.277045
C30	C	-1.852376	-0.757488	0.276511
C31	C	-1.791897	-0.718387	0.142934
C32	C	-1.686395	-0.569665	0.142744
C33	C	-2.129914	-0.396381	0.212918
C34	C	-2.233013	-0.539205	0.212328
C35	C	-1.994287	-0.170791	0.336027
C36	C	-2.011157	-0.170192	0.413702
C37	C	-2.032298	0.060514	0.210666
C38	C	-1.918819	0.203337	0.211261
C39	C	-2.167924	-0.165073	0.087555
C40	C	-2.140670	-0.165666	0.009879
C41	C	-1.494287	-0.170791	0.336027
C42	C	-1.511157	-0.170192	0.413702
C43	C	-2.113684	-0.176359	0.453749
C44	C	-2.129535	-0.175796	0.526734
C45	C	-2.042872	-0.169091	0.559670
C46	C	-1.940325	-0.162916	0.519613
C47	C	-1.924468	-0.163466	0.446629
C48	C	-2.051712	-0.238950	0.678980
C49	C	-2.067579	-0.238408	0.751964
C50	C	-2.091775	-0.167388	0.784777
C51	C	-2.100131	-0.096928	0.744600
C52	C	-2.084273	-0.097479	0.671616
C53	C	-2.060056	-0.168493	0.638809
C54	C	-2.211495	-0.172944	0.903963
C55	C	-2.227336	-0.172373	0.976948
C56	C	-2.038133	-0.159505	0.969827
C57	C	-2.022285	-0.160064	0.896842
C58	C	-2.108974	-0.166789	0.863915
C59	C	-1.532298	0.060514	0.210666
C60	C	-1.418819	0.203337	0.211261
C61	C	-1.667924	-0.165073	0.087555
C62	C	-1.640670	-0.165666	0.009879
C63	C	-1.613678	-0.176338	0.453741
C64	C	-1.629530	-0.175758	0.526724
C65	C	-1.542867	-0.169041	0.559669
C66	C	-1.440335	-0.162890	0.519624
C67	C	-1.424477	-0.163461	0.446641
C68	C	-1.545093	-0.172368	-0.023047
C69	C	-1.519459	-0.172910	-0.096033
C70	C	-1.589410	-0.166759	-0.136091
C71	C	-1.684992	-0.160052	-0.103160
C72	C	-1.710617	-0.159501	-0.030176
C73	C	-2.265378	-0.734465	0.207553
C74	C	-2.157939	-0.585821	0.207890
C75	C	-2.299516	-0.577438	0.147168
C76	C	-2.406045	-0.725979	0.146481
C77	C	-2.466746	-0.765387	0.280057
C78	C	-2.357691	-0.616880	0.281468
H79	H	-1.884151	-0.554255	0.170061
H80	H	-1.568545	-0.167224	-0.195517
H81	H	-2.282079	-0.178416	0.877152
H82	H	-1.635787	-0.568377	0.276584
H83	H	-1.369780	-0.157422	0.546459
H84	H	-1.840969	-0.158434	0.414022
H85	H	-2.211427	-0.522883	0.095982
H86	H	-2.184271	-0.181831	0.426944
H87	H	-1.713027	-0.180772	0.559319
H88	H	-2.479353	-0.815209	0.329363
H89	H	-1.778727	-0.588951	0.328536
H90	H	-2.357074	-0.547207	0.147919
H91	H	-2.031994	-0.296775	0.652268
H92	H	-1.340994	-0.158459	0.414047
H93	H	-1.732785	-0.747559	0.139234
H94	H	-1.741936	-0.155039	-0.135786
H95	H	-1.788452	-0.154050	-0.003373
H96	H	-1.488122	-0.177377	0.009559
H97	H	-2.576611	-0.806525	0.283473
H98	H	-1.555795	-0.168578	0.619097
H99	H	-1.833405	-0.743537	0.093320
H100	H	-1.938807	-0.155055	0.864236
H101	H	-2.108007	-0.560345	0.254449
H102	H	-1.684258	-0.181811	0.426928
H103	H	-1.680752	-0.522774	0.094825
H104	H	-2.267248	-0.781172	0.253825
H105	H	-1.927044	-0.583354	0.266253
H106	H	-1.574315	-0.525543	0.135769
H107	H	-2.226804	-0.754718	0.157954
H108	H	-1.795722	-0.788518	0.276332
H109	H	-1.441627	-0.178371	-0.122835
H110	H	-2.213033	-0.180826	0.559347
H111	H	-2.066421	-0.533071	0.158248
H112	H	-2.368833	-0.743174	0.094745
H113	H	-2.514615	-0.766862	0.146379
H114	H	-2.091074	-0.040105	0.638907
H115	H	-2.119837	-0.039101	0.771316
H116	H	-2.416148	-0.586718	0.288744
H117	H	-2.043723	-0.775044	0.168901
H118	H	-2.086376	-0.804607	0.264728
H119	H	-2.312453	-0.593282	0.329676
H120	H	-2.310821	-0.177386	1.009553
H121	H	-1.939637	-0.809627	0.327963
H122	H	-2.060785	-0.295789	0.784671
H123	H	-1.869762	-0.157453	0.546435
H124	H	-1.967562	-0.154035	0.996642
