data_functionalizedCrystal
_audit_creation_method	'MofGen! by Chris Wilmer'
_symmetry_space_group_name_H-M	'P1'
_symmetry_Int_Tables_number	1
_symmetry_cell_setting	triclinic
loop_
_symmetry_equiv_pos_as_xyz
  x,y,z
_cell_length_a	23.096457
_cell_length_b	23.096457
_cell_length_c	17.917559
_cell_angle_alpha	63.038801
_cell_angle_beta	90.001221
_cell_angle_gamma	60.000185
loop_
_atom_site_label
_atom_site_type_symbol
_atom_site_fract_x
_atom_site_fract_y
_atom_site_fract_z
Zr1	Zr	0.561092	0.627110	-0.093857
O2	O	0.472674	0.739828	-0.208056
O3	O	0.588194	0.508796	-0.058854
O4	O	0.593461	0.619043	-0.208068
O5	O	0.463256	0.637895	0.058866
O6	O	0.688741	0.619045	-0.208072
O7	O	0.467408	0.629581	-0.058842
O8	O	0.679320	0.421833	0.058845
O9	O	0.472677	0.835106	-0.208051
O10	O	0.670862	0.559533	-0.043923
O11	O	0.596657	0.565737	0.043924
O12	O	0.602857	0.695538	-0.131756
O13	O	0.528652	0.701742	-0.043909
Zr14	Zr	0.706431	0.640371	0.093866
Zr15	Zr	0.713053	0.627112	-0.093864
Zr16	Zr	0.554469	0.640369	0.093873
Zr17	Zr	0.561095	0.779067	-0.093849
Zr18	Zr	0.706427	0.488413	0.093858
O19	O	0.679328	0.758684	0.058862
O20	O	0.688744	0.739831	-0.208066
O21	O	0.463259	0.758681	0.058872
O22	O	0.794848	0.527652	0.208065
O23	O	0.804264	0.508799	-0.058863
O24	O	0.578778	0.527649	0.208074
O25	O	0.804267	0.629586	-0.058857
O26	O	0.674062	0.648437	0.208076
O27	O	0.578781	0.648436	0.208081
O28	O	0.800114	0.637899	0.058851
O29	O	0.593466	0.835108	-0.208056
O30	O	0.674057	0.432372	0.208065
O31	O	0.794846	0.432374	0.208060
O32	O	0.800109	0.421835	0.058839
O33	O	0.467413	0.845646	-0.058831
O34	O	0.588202	0.845647	-0.058836
O35	O	0.664665	0.571942	0.131765
O36	O	0.738870	0.565739	0.043918
O37	O	0.670866	0.701744	-0.043915
O38	O	0.596660	0.707947	0.043932
C39	C	0.633757	0.443664	-0.000006
C40	C	0.633755	0.379154	-0.000009
C41	C	0.443681	0.633738	0.000013
C42	C	0.379169	0.633737	0.000016
C43	C	0.672485	0.345615	-0.045867
C44	C	0.672492	0.284993	-0.045860
C45	C	0.633755	0.257923	-0.000006
C46	C	0.595023	0.291467	0.045862
C47	C	0.595023	0.352083	0.045861
N48	N	0.573575	0.195078	-0.006362
N49	N	0.573577	0.137497	-0.006365
C50	C	0.633754	0.075292	0.000002
N51	N	0.693930	0.072850	0.006356
N52	N	0.693927	0.130438	0.006354
C53	C	0.633751	0.192196	0.000000
C54	C	0.672495	-0.023981	-0.045851
C55	C	0.672503	-0.084607	-0.045838
C56	C	0.595028	-0.078126	0.045879
C57	C	0.595026	-0.017507	0.045871
C58	C	0.633758	0.009564	0.000001
C59	C	0.384361	0.562745	0.045856
C60	C	0.323746	0.562744	0.045859
C61	C	0.257939	0.633738	0.000006
C62	C	0.252749	0.704739	-0.045835
C63	C	0.313364	0.704739	-0.045831
N64	N	0.137777	0.683722	-0.074620
N65	N	0.080197	0.683718	-0.074623
C66	C	0.075307	0.633744	-0.000009
N67	N	0.130176	0.583762	0.074607
N68	N	0.187762	0.583764	0.074608
C69	C	0.192208	0.633746	-0.000003
C70	C	0.014775	0.562747	0.045839
C71	C	-0.045843	0.562749	0.045845
C72	C	-0.116840	0.704746	-0.045858
C73	C	-0.056222	0.704742	-0.045856
C74	C	0.009583	0.633740	-0.000009
C75	C	0.823842	0.633743	-0.000004
C76	C	0.888353	0.633744	-0.000007
C77	C	0.642045	0.617155	-0.234817
C78	C	0.644856	0.611526	-0.314514
C79	C	0.633766	0.823816	0.000014
C80	C	0.633767	0.888326	0.000018
C81	C	0.617519	0.666227	-0.539540
C82	C	0.650002	0.601257	-0.460448
C83	C	0.647138	0.606972	-0.379244
C84	C	0.620382	0.660513	-0.620754
C85	C	0.625478	0.650325	0.234826
C86	C	0.622667	0.655954	0.314522
C87	C	0.823837	0.443667	-0.000014
C88	C	0.888347	0.379157	-0.000020
C89	C	0.625473	0.460249	0.234816
C90	C	0.622661	0.401368	0.314509
C91	C	0.815554	0.460252	0.234808
C92	C	0.877253	0.401371	0.314498
C93	C	0.451968	0.807228	-0.234799
C94	C	0.390270	0.866109	-0.314489
C95	C	0.443685	0.823814	0.000023
C96	C	0.379175	0.888323	0.000029
C97	C	0.642049	0.807231	-0.234807
C98	C	0.644862	0.866112	-0.314500
C99	C	0.883143	0.345623	-0.045883
C100	C	0.943752	0.285017	-0.045907
C101	C	1.009564	0.257942	-0.000062
C102	C	1.014768	0.291482	0.045802
C103	C	0.954160	0.352091	0.045820
C104	C	0.656839	0.376956	0.397794
C105	C	0.654193	0.321640	0.472681
C106	C	0.617373	0.290732	0.464282
C107	C	0.583190	0.315149	0.380988
C108	C	0.585832	0.370469	0.306103
C109	C	0.944968	0.370483	0.306066
C110	C	1.002947	0.315166	0.380936
C111	C	0.993209	0.290736	0.464237
C112	C	0.925486	0.321630	0.472667
C113	C	0.867509	0.376950	0.397798
C114	C	0.322554	0.897005	-0.306057
C115	C	0.264576	0.952340	-0.380927
C116	C	0.274314	0.976774	-0.464228
C117	C	0.342036	0.945875	-0.472659
C118	C	0.400013	0.890545	-0.397789
C119	C	0.384380	0.921863	0.045884
C120	C	0.323772	0.982484	0.045887
C121	C	0.257959	1.009561	0.000039
C122	C	0.252756	0.976018	-0.045821
C123	C	0.313363	0.915402	-0.045829
C124	C	0.681688	0.897003	-0.306073
C125	C	0.684345	0.952320	-0.380946
C126	C	0.650170	0.976751	-0.464245
C127	C	0.613342	0.945854	-0.472671
C128	C	0.610690	0.890534	-0.397799
H129	H	0.704025	0.367652	-0.083215
H130	H	0.585519	0.965754	-0.540503
H131	H	0.686822	0.402116	0.404649
N132	N	0.455358	0.892667	0.095337
H133	H	0.449449	0.923122	0.124378
H134	H	0.483608	0.900240	0.053230
N135	N	1.075986	0.281833	0.371839
H136	H	1.101775	0.294433	0.400848
H137	H	1.073298	0.305708	0.307692
N138	N	0.577828	0.745585	-0.548446
H139	H	0.527060	0.775725	-0.581493
H140	H	0.598503	0.775675	-0.581461
N141	N	0.181768	1.005218	-0.095252
H142	H	0.178332	1.025842	-0.159403
H143	H	0.144214	1.048674	-0.088205
H144	H	0.455149	0.865389	-0.404665
N145	N	0.914995	0.295266	0.562519
H146	H	0.887978	0.270604	0.569541
H147	H	0.887996	0.342028	0.569500
N148	N	0.307744	0.879229	-0.095289
H149	H	0.256854	0.905584	-0.124327
H150	H	0.329783	0.821358	-0.053191
H151	H	0.328022	1.009785	0.083235
H152	H	0.829561	0.367666	-0.083226
H153	H	0.939501	0.257716	-0.083254
N154	N	1.074932	0.192572	-0.000086
H155	H	1.061642	0.175440	-0.036098
H156	H	1.101889	0.146702	0.062034
N157	N	0.714267	0.248807	-0.095322
H158	H	0.738804	0.275154	-0.124379
H159	H	0.681807	0.256099	-0.141413
N160	N	0.691073	0.295298	0.562512
H161	H	0.655871	0.308190	0.595634
H162	H	0.714807	0.323276	0.556392
H163	H	0.553211	0.289976	0.374163
H164	H	0.580699	0.865388	-0.404673
N165	N	1.085753	0.262277	0.095246
H166	H	1.123352	0.218792	0.088273
H167	H	1.089111	0.241694	0.159373
H168	H	0.208614	1.058919	0.000052
H169	H	0.558002	0.390337	0.238292
N170	N	-0.187809	0.781321	-0.095316
H171	H	-0.194335	0.815471	-0.071258
H172	H	-0.225378	0.770484	-0.088348
N173	N	0.955482	0.396819	0.216225
H174	H	1.007180	0.368851	0.222258
H175	H	0.933114	0.455330	0.183157
N176	N	1.055744	0.231069	0.544985
H177	H	1.100118	0.215210	0.526995
H178	H	1.054444	0.183355	0.580993
H179	H	0.209439	0.977489	-0.374046
H180	H	0.709518	0.877121	-0.238253
H181	H	0.812374	0.402093	0.404676
H182	H	0.563485	0.269423	0.083197
N183	N	0.959778	0.388254	0.095293
H184	H	1.010668	0.361900	0.124331
H185	H	0.934627	0.380953	0.141399
H186	H	0.714333	0.977471	-0.374069
N187	N	0.714282	-0.120789	-0.095297
H188	H	0.738815	-0.094438	-0.124355
H189	H	0.681825	-0.113502	-0.141387
N190	N	0.653041	1.036411	-0.544996
H191	H	0.681559	1.052268	-0.527010
H192	H	0.604027	1.084127	-0.581009
H193	H	0.615227	0.245688	0.525265
H194	H	0.314612	0.877114	-0.238236
N195	N	0.211781	1.036447	-0.544980
H196	H	0.182611	1.086737	-0.545002
H197	H	0.182663	1.015277	-0.544957
N198	N	0.553251	0.388259	0.095328
H199	H	0.528714	0.361912	0.124382
H200	H	0.517420	0.446131	0.053228
N201	N	-0.061817	0.781311	-0.095310
H202	H	-0.112702	0.826286	-0.124361
H203	H	-0.036655	0.781282	-0.141405
H204	H	0.349957	0.965777	-0.540491
H205	H	0.679960	0.541341	-0.453722
H206	H	0.563486	0.009804	0.083211
N207	N	0.714269	0.005220	-0.095319
H208	H	0.738811	-0.025233	-0.124364
H209	H	0.750096	-0.002348	-0.053221
H210	H	0.437939	0.504929	0.083182
N211	N	0.553253	-0.107319	0.095345
H212	H	0.559131	-0.150811	0.088390
H213	H	0.502195	-0.062731	0.071274
H214	H	0.327974	0.504933	0.083188
H215	H	0.309131	0.762550	-0.083157
N216	N	0.181772	0.781309	-0.095284
H217	H	0.156599	0.781362	-0.141432
H218	H	0.187737	0.826243	-0.124268
N219	N	0.085751	0.486169	0.095290
H220	H	0.089165	0.458247	0.159435
H221	H	0.123322	0.497002	0.088264
N222	N	-0.040245	0.486176	0.095294
H223	H	0.010641	0.441200	0.124335
H224	H	-0.062294	0.479974	0.053187
