data_functionalizedCrystal
_audit_creation_method	'MofGen! by Chris Wilmer'
_symmetry_space_group_name_H-M	'P1'
_symmetry_Int_Tables_number	1
_symmetry_cell_setting	triclinic
loop_
_symmetry_equiv_pos_as_xyz
  x,y,z
_cell_length_a	14.044220
_cell_length_b	8.559649
_cell_length_c	7.088929
_cell_angle_alpha	84.674985
_cell_angle_beta	83.206932
_cell_angle_gamma	98.516229
loop_
_atom_site_label
_atom_site_type_symbol
_atom_site_fract_x
_atom_site_fract_y
_atom_site_fract_z
O1	O	-0.021003	-2.100735	-0.158955
O2	O	0.478997	-1.600735	0.341045
O3	O	0.027448	-1.642435	-0.158968
O4	O	0.527448	-1.142435	0.341032
O5	O	-0.134262	-1.864708	-0.158943
O6	O	0.365738	-1.364708	0.341057
O7	O	0.140708	-1.878463	-0.158981
O8	O	0.640708	-1.378463	0.341019
O9	O	-0.155917	-1.894406	0.159035
O10	O	0.344083	-1.394406	0.659035
O11	O	0.005793	-1.672134	0.159010
O12	O	0.505793	-1.172134	0.659010
O13	O	-0.042657	-2.130433	0.159023
O14	O	0.457343	-1.630433	0.659023
Cu15	Cu	-0.020409	-1.903995	0.188051
Cu16	Cu	0.479591	-1.403995	0.688051
Cu17	Cu	0.005200	-1.868874	-0.187996
Cu18	Cu	0.505200	-1.368874	0.312004
O19	O	0.119053	-1.908161	0.158998
O20	O	0.619053	-1.408161	0.658998
C21	C	0.020292	-1.598278	0.000019
C22	C	0.520292	-1.098278	0.500019
C23	C	0.031222	-1.422455	0.000015
C24	C	0.531222	-0.922455	0.500015
C25	C	-0.179966	-1.873535	0.000047
C26	C	0.320034	-1.373535	0.500047
C27	C	-0.283884	-1.855571	0.000048
C28	C	0.216116	-1.355571	0.500048
C29	C	-0.035501	-2.174590	0.000031
C30	C	0.464499	-1.674590	0.500031
C31	C	-0.046430	-2.350412	0.000023
C32	C	0.453570	-1.850412	0.500023
C33	C	-0.474153	-1.822727	0.000020
C34	C	0.025847	-1.322727	0.500020
C35	C	-0.541060	-1.950133	0.000018
C36	C	-0.041060	-1.450133	0.500018
C37	C	-0.646933	-1.931858	0.000002
C38	C	-0.146933	-1.431858	0.500002
C39	C	-0.368270	-1.841000	0.000036
C40	C	0.131730	-1.341000	0.500036
C41	C	0.164757	-1.899334	0.000004
C42	C	0.664757	-1.399334	0.500004
C43	C	0.268676	-1.917296	-0.000011
C44	C	0.768676	-1.417296	0.499989
N45	N	-0.038422	-1.928709	0.452541
N46	N	0.461578	-1.428709	0.952541
N47	N	0.023205	-1.844171	-0.452487
N48	N	0.523205	-1.344171	0.047513
H49	H	-0.496383	-1.699936	0.000012
H50	H	0.003617	-1.199936	0.500012
H51	H	-0.121272	-1.423242	0.000024
H52	H	0.378728	-0.923242	0.500024
H53	H	0.106070	-1.349615	-0.000005
H54	H	0.606070	-0.849615	0.499995
H55	H	0.087069	-1.756556	0.465857
H56	H	0.587069	-1.256556	0.965857
N57	N	-0.123017	-2.044795	0.560696
N58	N	0.376983	-1.544795	1.060696
H59	H	-0.121740	-2.043060	0.702646
H60	H	0.378260	-1.543060	1.202646
H61	H	-0.185854	-2.013654	0.525824
H62	H	0.314146	-1.513654	1.025824
H63	H	-0.518820	-2.072921	-0.000107
H64	H	-0.018820	-1.572921	0.499893
