data_functionalizedCrystal
_audit_creation_method	'MofGen! by Chris Wilmer'
_symmetry_space_group_name_H-M	'P1'
_symmetry_Int_Tables_number	1
_symmetry_cell_setting	triclinic
loop_
_symmetry_equiv_pos_as_xyz
  x,y,z
_cell_length_a	10.723023
_cell_length_b	9.198806
_cell_length_c	10.654550
_cell_angle_alpha	90.003030
_cell_angle_beta	84.476239
_cell_angle_gamma	90.003809
loop_
_atom_site_label
_atom_site_type_symbol
_atom_site_fract_x
_atom_site_fract_y
_atom_site_fract_z
O1	O	1.657215	0.120888	0.176142
O2	O	2.157215	0.620888	0.676142
O3	O	1.294065	0.120892	0.193004
O4	O	1.794065	0.620892	0.693004
O5	O	1.483989	0.120881	0.001832
O6	O	1.983989	0.620881	0.501832
O7	O	1.467290	0.120899	0.367313
O8	O	1.967290	0.620899	0.867313
O9	O	1.483974	-0.120904	0.001832
O10	O	1.983974	0.379096	0.501832
O11	O	1.294049	-0.120893	0.193003
O12	O	1.794049	0.379107	0.693003
O13	O	1.657199	-0.120897	0.176142
O14	O	2.157199	0.379103	0.676142
Cu15	Cu	1.475623	-0.142972	0.184572
Cu16	Cu	1.975623	0.357028	0.684572
Cu17	Cu	1.475641	0.142967	0.184573
Cu18	Cu	1.975641	0.642967	0.684573
O19	O	1.467275	-0.120886	0.367313
O20	O	1.967275	0.379114	0.867313
C21	C	1.247557	-0.000000	0.191777
C22	C	1.747557	0.500000	0.691777
C23	C	1.109002	0.000001	0.188106
C24	C	1.609002	0.500001	0.688106
C25	C	0.904026	-0.125246	0.182676
C26	C	1.404026	0.374754	0.682676
C27	C	1.047229	-0.125250	0.186469
C28	C	1.547229	0.374750	0.686469
N29	N	1.475619	-0.344086	0.184571
N30	N	1.975619	0.155914	0.684571
C31	C	1.555363	-0.416288	0.103950
C32	C	2.055363	0.083712	0.603950
C33	C	1.555383	-0.583700	0.103945
C34	C	2.055383	-0.083700	0.603945
C35	C	1.703707	-0.000002	0.177369
C36	C	2.203707	0.499998	0.677369
C37	C	1.842262	0.000007	0.181039
C38	C	2.342262	0.500007	0.681039
C39	C	1.482755	-0.000011	-0.044966
C40	C	1.982755	0.499989	0.455034
C41	C	1.479087	-0.000009	-0.184408
C42	C	1.979087	0.499991	0.315592
N43	N	1.475654	0.344081	0.184564
N44	N	1.975654	0.844081	0.684564
C45	C	1.590911	-0.000009	-0.263911
C46	C	2.090911	0.499991	0.236089
C47	C	1.587457	0.000008	-0.394931
C48	C	2.087457	0.500008	0.105069
C49	C	1.360344	0.000021	-0.366933
C50	C	1.860344	0.500021	0.133067
C51	C	1.363800	0.000014	-0.235916
C52	C	1.863800	0.500014	0.264084
C53	C	1.468509	0.000009	0.414111
C54	C	1.968509	0.500009	0.914111
C55	C	1.472177	0.000016	0.553554
C56	C	1.972177	0.500016	1.053554
H57	H	1.055895	0.107240	0.186696
H58	H	1.555895	0.607240	0.686696
H59	H	0.895400	0.107237	0.182455
H60	H	1.395400	0.607237	0.682455
H61	H	1.266481	0.000037	-0.408887
H62	H	1.766481	0.500037	0.091113
H63	H	1.272733	0.000019	-0.171181
H64	H	1.772733	0.500019	0.328819
O65	O	1.385220	-0.426378	0.276012
O66	O	1.885220	0.073622	0.776012
H67	H	1.402228	-0.397228	0.374010
H68	H	1.902228	0.102772	0.874010
O69	O	0.833329	-0.267093	0.181013
O70	O	1.333329	0.232907	0.681013
H71	H	0.868332	-0.330629	0.096295
H72	H	1.368332	0.169371	0.596295
H73	H	1.623617	-0.354165	0.034925
H74	H	2.123617	0.145835	0.534925
H75	H	1.100346	-0.232483	0.187871
H76	H	1.600346	0.267517	0.687871
H77	H	1.407383	-0.593838	0.253596
H78	H	1.907383	-0.093838	0.753596
O79	O	1.645823	-0.665928	0.012506
O80	O	2.145823	-0.165928	0.512506
H81	H	1.631639	-0.784516	0.026845
H82	H	2.131639	-0.284516	0.526845
H83	H	1.684786	-0.000025	-0.221979
H84	H	2.184786	0.499975	0.278021
O85	O	1.708066	-0.000011	-0.480686
O86	O	2.208066	0.499989	0.019314
H87	H	1.788808	-0.000042	-0.422853
H88	H	2.288808	0.499958	0.077147
