data_functionalizedCrystal
_audit_creation_method	'MofGen! by Chris Wilmer'
_symmetry_space_group_name_H-M	'P1'
_symmetry_Int_Tables_number	1
_symmetry_cell_setting	triclinic
loop_
_symmetry_equiv_pos_as_xyz
  x,y,z
_cell_length_a	14.908783
_cell_length_b	17.637651
_cell_length_c	14.909241
_cell_angle_alpha	76.202620
_cell_angle_beta	83.585148
_cell_angle_gamma	103.762219
loop_
_atom_site_label
_atom_site_type_symbol
_atom_site_fract_x
_atom_site_fract_y
_atom_site_fract_z
Zn1	Zn	1.359846	-0.218852	-0.538139
Zn2	Zn	1.859846	0.281148	-0.038139
Zn3	Zn	1.315788	-0.362745	-0.351495
Zn4	Zn	1.815788	0.137255	0.148505
Zn5	Zn	1.195666	-0.235479	-0.373964
Zn6	Zn	1.695666	0.264521	0.126036
Zn7	Zn	1.173236	-0.362680	-0.494086
Zn8	Zn	1.673236	0.137320	0.005914
O9	O	1.261134	-0.294939	-0.439421
O10	O	1.761134	0.205061	0.060579
O11	O	1.482370	-0.231008	-0.522414
O12	O	1.982370	0.268992	-0.022414
O13	O	1.290803	-0.352849	-0.226093
O14	O	1.790803	0.147151	0.273907
O15	O	1.245271	-0.119820	-0.423583
O16	O	1.745271	0.380180	0.076417
O17	O	1.450001	-0.336726	-0.385287
O18	O	1.950001	0.163274	0.114713
O19	O	1.365893	-0.107604	-0.544201
O20	O	1.865893	0.392396	-0.044201
O21	O	1.202550	-0.259347	-0.242601
O22	O	1.702550	0.240653	0.257399
O23	O	1.064323	-0.259285	-0.380866
O24	O	1.564323	0.240715	0.119134
O25	O	1.207041	-0.336615	-0.628312
O26	O	1.707041	0.163385	-0.128312
O27	O	1.047843	-0.352738	-0.469118
O28	O	1.547843	0.147262	0.030882
O29	O	1.344143	-0.230945	-0.660678
O30	O	1.844143	0.269055	-0.160678
O31	O	1.269053	-0.476190	-0.342570
O32	O	1.769053	0.023810	0.157430
O33	O	1.164320	-0.476142	-0.447331
O34	O	1.664320	0.023858	0.052669
C35	C	1.022798	-0.307809	-0.422650
C36	C	1.522798	0.192191	0.077350
C37	C	0.920834	-0.313334	-0.415492
C38	C	1.420834	0.186666	0.084508
C39	C	0.762914	-0.213763	-0.544977
C40	C	1.262914	0.286237	-0.044977
C41	C	0.667110	-0.218950	-0.538256
C42	C	1.167110	0.281050	-0.038256
C43	C	0.633422	-0.328892	-0.395325
C44	C	1.133422	0.171108	0.104675
C45	C	0.729226	-0.323704	-0.402046
C46	C	1.229226	0.176296	0.097954
C47	C	0.793969	-0.266138	-0.476876
C48	C	1.293969	0.233862	0.023124
C49	C	0.889773	-0.260955	-0.483600
C50	C	1.389773	0.239045	0.016400
C51	C	0.856084	-0.370893	-0.340667
C52	C	1.356084	0.129107	0.159333
C53	C	0.760281	-0.376080	-0.333945
C54	C	1.260281	0.123920	0.166055
C55	C	1.209498	-0.505581	-0.387753
C56	C	1.709498	-0.005581	0.112247
C57	C	1.187494	-0.595688	-0.365686
C58	C	1.687494	-0.095688	0.134314
C59	C	1.428913	-0.859941	-0.607393
C60	C	1.928913	-0.359941	-0.107393
C61	C	1.408207	-0.944613	-0.586640
C62	C	1.908207	-0.444613	-0.086640
C63	C	1.282673	-0.957443	-0.460932
C64	C	1.782673	-0.457443	0.039068
C65	C	1.303372	-0.872770	-0.481672
C66	C	1.803372	-0.372770	0.018328
C67	C	1.376492	-0.824025	-0.554904
C68	C	1.876492	-0.324025	-0.054904
C69	C	1.250951	-0.836855	-0.429183
C70	C	1.750951	-0.336855	0.070817
C71	C	1.271646	-0.752190	-0.449924
C72	C	1.771646	-0.252190	0.050076
C73	C	1.344761	-0.703440	-0.523155
C74	C	1.844761	-0.203440	-0.023155
C75	C	1.397187	-0.739360	-0.575646
C76	C	1.897187	-0.239360	-0.075646
C77	C	1.177827	-0.885601	-0.355955
C78	C	1.677827	-0.385601	0.144045
C79	C	1.125406	-0.849686	-0.303466
C80	C	1.625406	-0.349686	0.196534
C81	C	1.146105	-0.765019	-0.324203
C82	C	1.646105	-0.265019	0.175797
C83	C	1.219220	-0.716269	-0.397434
C84	C	1.719220	-0.216269	0.102566
C85	C	1.093679	-0.729098	-0.271712
C86	C	1.593679	-0.229098	0.228288
C87	C	1.114373	-0.644433	-0.292454
C88	C	1.614373	-0.144433	0.207546
C89	C	1.239914	-0.631604	-0.418175
C90	C	1.739914	-0.131604	0.081825
C91	C	1.500400	-0.282019	-0.456258
C92	C	2.000400	0.217981	0.043742
C93	C	1.602361	-0.276514	-0.463433
C94	C	2.102361	0.223486	0.036567
C95	C	1.278004	-0.281918	-0.678714
C96	C	1.778004	0.218082	-0.178714
C97	C	1.285193	-0.276369	-0.780686
C98	C	1.785193	0.223631	-0.280686
C99	C	1.312998	-0.083472	-0.491312
C100	C	1.812998	0.416528	0.008688
C101	C	1.335100	0.006643	-0.513425
C102	C	1.835100	0.506643	-0.013425
C103	C	1.155937	-0.375995	-0.938598
C104	C	1.655937	0.124005	-0.438598
C105	C	1.162688	-0.370785	-1.034409
C106	C	1.662688	0.129215	-0.534409
C107	C	1.305450	-0.260742	-1.068121
C108	C	1.805450	0.239258	-0.568121
C109	C	1.298699	-0.265952	-0.972310
C110	C	1.798699	0.234048	-0.472310
C111	C	1.223939	-0.323580	-0.907551
C112	C	1.723939	0.176420	-0.407551
C113	C	1.217185	-0.328787	-0.811739
C114	C	1.717185	0.171213	-0.311739
C115	C	1.359950	-0.218748	-0.845452
C116	C	1.859950	0.281252	-0.345452
C117	C	1.366701	-0.213537	-0.941263
C118	C	1.866701	0.286463	-0.441263
C119	C	1.244396	-0.307848	-0.201077
C120	C	1.744396	0.192152	0.298923
C121	C	1.237441	-0.313159	-0.099174
C122	C	1.737441	0.186841	0.400826
H123	H	0.641831	-0.176298	-0.593709
H124	H	1.141831	0.323702	-0.093709
H125	H	1.223137	-0.997142	-0.401308
H126	H	1.723137	-0.497142	0.098692
H127	H	0.580694	-0.375750	-0.334395
H128	H	1.080694	0.124250	0.165605
H129	H	1.427570	-0.166620	-0.994002
H130	H	1.927570	0.333380	-0.494002
H131	H	1.299463	-0.591913	-0.477802
H132	H	1.799463	-0.091913	0.022198
N133	N	1.136552	-0.390945	-0.741899
N134	N	1.636552	0.109055	-0.241899
H135	H	1.161817	-0.428663	-0.695550
H136	H	1.661817	0.071337	-0.195550
H137	H	1.099342	-0.362400	-0.707308
H138	H	1.599342	0.137600	-0.207308
H139	H	0.707555	-0.422946	-0.273019
H140	H	1.207555	0.077054	0.226981
N141	N	0.832741	-0.151689	-0.625695
N142	N	1.332741	0.348311	-0.125695
H143	H	0.867393	-0.180244	-0.662837
H144	H	1.367393	0.319756	-0.162837
H145	H	0.798456	-0.119323	-0.667750
H146	H	1.298456	0.380677	-0.167750
H147	H	1.366321	-0.213830	-1.120862
H148	H	1.866321	0.286170	-0.620862
H149	H	0.881377	-0.413547	-0.285219
H150	H	1.381377	0.086453	0.214781
N151	N	1.089346	-0.427311	-1.067908
N152	N	1.589346	0.072689	-0.567908
H153	H	1.088212	-0.485376	-1.038024
H154	H	1.588212	0.014624	-0.538024
H155	H	1.025755	-0.419099	-1.049711
H156	H	1.525755	0.080901	-0.549711
N157	N	1.075309	-0.438149	-0.868748
N158	N	1.575309	0.061851	-0.368748
H159	H	1.081351	-0.433496	-0.803341
H160	H	1.581351	0.066504	-0.303341
H161	H	1.014068	-0.428157	-0.883979
H162	H	1.514068	0.071843	-0.383979
H163	H	0.942487	-0.214083	-0.544531
H164	H	1.442487	0.285917	-0.044531
N165	N	1.367096	-0.612120	-0.545540
N166	N	1.867096	-0.112120	-0.045540
H167	H	1.310320	-0.594239	-0.562912
H168	H	1.810320	-0.094239	-0.062912
H169	H	1.384585	-0.594304	-0.488780
H170	H	1.884585	-0.094304	0.011220
N171	N	1.433293	-0.162200	-0.811970
N172	N	1.933293	0.337800	-0.311970
H173	H	1.417671	-0.174240	-0.741448
H174	H	1.917671	0.325760	-0.241448
H175	H	1.496900	-0.170360	-0.830229
H176	H	1.996900	0.329640	-0.330229
N177	N	1.476063	-0.686776	-0.654622
N178	N	1.976063	-0.186776	-0.154622
H179	H	1.506139	-0.722374	-0.684726
H180	H	2.006139	-0.222374	-0.184726
H181	H	1.450265	-0.651368	-0.703022
H182	H	1.950265	-0.151368	-0.203022
H183	H	1.034139	-0.768799	-0.212092
H184	H	1.534139	-0.268799	0.287908
N185	N	1.507789	-0.807357	-0.686370
N186	N	2.007789	-0.307357	-0.186370
H187	H	1.537865	-0.842954	-0.716474
H188	H	2.037865	-0.342954	-0.216474
H189	H	1.481991	-0.771949	-0.734770
H190	H	1.981991	-0.271949	-0.234770
H191	H	1.071686	-0.615191	-0.249712
H192	H	1.571686	-0.115191	0.250288
N193	N	1.464756	-0.983351	-0.643251
N194	N	1.964756	-0.483351	-0.143251
H195	H	1.514218	-0.939622	-0.692786
H196	H	2.014218	-0.439622	-0.192786
H197	H	1.496025	-1.018195	-0.600323
H198	H	1.996025	-0.518195	-0.100323
N199	N	1.155490	-0.976920	-0.333576
N200	N	1.655490	-0.476920	0.166424
H201	H	1.138033	-0.994796	-0.390314
H202	H	1.638033	-0.494796	0.109686
H203	H	1.212290	-0.994739	-0.316175
H204	H	1.712290	-0.494739	0.183825
H205	H	1.065870	-0.889385	-0.243842
H206	H	1.565870	-0.389385	0.256158
