data_functionalizedCrystal
_audit_creation_method	'MofGen! by Chris Wilmer'
_symmetry_space_group_name_H-M	'P1'
_symmetry_Int_Tables_number	1
_symmetry_cell_setting	triclinic
loop_
_symmetry_equiv_pos_as_xyz
  x,y,z
_cell_length_a	12.759401
_cell_length_b	12.827892
_cell_length_c	12.759393
_cell_angle_alpha	89.969094
_cell_angle_beta	89.980163
_cell_angle_gamma	90.016917
loop_
_atom_site_label
_atom_site_type_symbol
_atom_site_fract_x
_atom_site_fract_y
_atom_site_fract_z
Zn1	Zn	1.606250	-0.415928	-0.594025
Zn2	Zn	2.106250	0.084072	-0.094025
Zn3	Zn	1.606142	-0.590709	-0.418348
Zn4	Zn	2.106142	-0.090709	0.081652
Zn5	Zn	1.430552	-0.415987	-0.418361
Zn6	Zn	1.930552	0.084013	0.081639
Zn7	Zn	1.430538	-0.590633	-0.593985
Zn8	Zn	1.930538	-0.090633	-0.093985
O9	O	1.518371	-0.503314	-0.506180
O10	O	2.018371	-0.003314	-0.006180
O11	O	1.753257	-0.439121	-0.570733
O12	O	2.253257	0.060879	-0.070733
O13	O	1.582810	-0.567589	-0.271328
O14	O	2.082810	-0.067589	0.228672
O15	O	1.453909	-0.269744	-0.441685
O16	O	1.953909	0.230256	0.058315
O17	O	1.753178	-0.567531	-0.441663
O18	O	2.253178	-0.067531	0.058337
O19	O	1.582994	-0.269700	-0.570745
O20	O	2.082994	0.230300	-0.070745
O21	O	1.453805	-0.439221	-0.271338
O22	O	1.953805	0.060779	0.228662
O23	O	1.283529	-0.439147	-0.441646
O24	O	1.783529	0.060853	0.058354
O25	O	1.453886	-0.567401	-0.741011
O26	O	1.953886	-0.067401	-0.241011
O27	O	1.283519	-0.567458	-0.570676
O28	O	1.783519	-0.067458	-0.070676
O29	O	1.582981	-0.439047	-0.741041
O30	O	2.082981	0.060953	-0.241041
O31	O	1.582797	-0.736935	-0.441624
O32	O	2.082797	-0.236935	0.058376
O33	O	1.453782	-0.736879	-0.570664
O34	O	1.953782	-0.236879	-0.070664
C35	C	1.245403	-0.503302	-0.506159
C36	C	1.745403	-0.003302	-0.006159
C37	C	1.128627	-0.503321	-0.506175
C38	C	1.628627	-0.003321	-0.006175
C39	C	1.073787	-0.570235	-0.573255
C40	C	1.573787	-0.070235	-0.073255
C41	C	0.964063	-0.570239	-0.573276
C42	C	1.464063	-0.070239	-0.073276
C43	C	0.964028	-0.436413	-0.439127
C44	C	1.464028	0.063587	0.060873
C45	C	1.073750	-0.436405	-0.439112
C46	C	1.573750	0.063595	0.060888
C47	C	1.518305	-0.774824	-0.506161
C48	C	2.018305	-0.274824	-0.006161
C49	C	1.518373	-0.890977	-0.506188
C50	C	2.018373	-0.390977	-0.006188
C51	C	1.582290	-0.942755	-0.442406
C52	C	2.082290	-0.442755	0.057594
C53	C	1.582361	-1.062806	-0.442433
C54	C	2.082361	-0.562806	0.057567
C55	C	1.792404	-0.503328	-0.506201
C56	C	2.292404	-0.003328	-0.006201
C57	C	1.909181	-0.503334	-0.506210
C58	C	2.409181	-0.003334	-0.006210
C59	C	1.518444	-0.503209	-0.780213
C60	C	2.018444	-0.003209	-0.280213
C61	C	1.518475	-0.503164	-0.896990
C62	C	2.018475	-0.003164	-0.396990
C63	C	1.518465	-0.230744	-0.506221
C64	C	2.018465	0.269256	-0.006221
C65	C	1.518506	-0.114591	-0.506239
C66	C	2.018506	0.385409	-0.006239
C67	C	1.451326	-0.436311	-0.951856
C68	C	1.951326	0.063689	-0.451856
C69	C	1.451351	-0.436278	-1.061580
C70	C	1.951351	0.063722	-0.561580
C71	C	1.585682	-0.569955	-1.061562
C72	C	2.085682	-0.069955	-0.561562
C73	C	1.585652	-0.569992	-0.951840
C74	C	2.085652	-0.069992	-0.451840
C75	C	1.518358	-0.503344	-0.233212
C76	C	2.018358	-0.003344	0.266788
C77	C	1.518530	-0.503095	-0.116436
C78	C	2.018530	-0.003095	0.383564
H79	H	1.118402	-0.381909	-0.384487
H80	H	1.618402	0.118091	0.115513
H81	H	1.396670	-0.381841	-1.106248
H82	H	1.896670	0.118159	-0.606248
H83	H	1.396627	-0.381895	-0.907201
H84	H	1.896627	0.118105	-0.407201
H85	H	0.919334	-0.381934	-0.384525
H86	H	1.419334	0.118066	0.115475
Br87	Br	1.148260	-0.661047	-0.664270
Br88	Br	1.648260	-0.161047	-0.164270
Br89	Br	1.676846	-0.660646	-1.136008
Br90	Br	2.176846	-0.160646	-0.636008
H91	H	0.919417	-0.624725	-0.627901
H92	H	1.419417	-0.124725	-0.127901
Br93	Br	1.673423	-0.868517	-0.351363
Br94	Br	2.173423	-0.368517	0.148637
Br95	Br	1.673565	-1.137014	-0.351404
Br96	Br	2.173565	-0.637014	0.148596
H97	H	1.640335	-0.624436	-0.907166
H98	H	2.140335	-0.124436	-0.407166
Br99	Br	1.427282	-1.040389	-0.597253
Br100	Br	1.927282	-0.540389	-0.097253
H101	H	1.463709	-0.935525	-0.560818
H102	H	1.963709	-0.435525	-0.060818
