data_functionalizedCrystal
_audit_creation_method	'MofGen! by Chris Wilmer'
_symmetry_space_group_name_H-M	'P1'
_symmetry_Int_Tables_number	1
_symmetry_cell_setting	triclinic
loop_
_symmetry_equiv_pos_as_xyz
  x,y,z
_cell_length_a	12.837943
_cell_length_b	13.101018
_cell_length_c	12.837942
_cell_angle_alpha	93.715237
_cell_angle_beta	85.171060
_cell_angle_gamma	93.717446
loop_
_atom_site_label
_atom_site_type_symbol
_atom_site_fract_x
_atom_site_fract_y
_atom_site_fract_z
O1	O	1.407530	0.085196	-0.266938
O2	O	1.740863	0.418529	0.066396
O3	O	2.074196	0.751862	0.399729
O4	O	1.104397	0.085202	-0.253494
O5	O	1.437730	0.418535	0.079839
O6	O	1.771063	0.751868	0.413173
O7	O	1.249241	0.085192	-0.108650
O8	O	1.582575	0.418526	0.224684
O9	O	1.915908	0.751859	0.558017
O10	O	1.262685	0.085205	-0.411782
O11	O	1.596019	0.418538	-0.078449
O12	O	1.929352	0.751871	0.254884
O13	O	1.238836	-0.085237	-0.119051
O14	O	1.572170	0.248096	0.214283
O15	O	1.905503	0.581429	0.547616
O16	O	1.093992	-0.085228	-0.263895
O17	O	1.427325	0.248105	0.069438
O18	O	1.760659	0.581439	0.402771
O19	O	1.397125	-0.085234	-0.277339
O20	O	1.730458	0.248099	0.055994
O21	O	2.063792	0.581433	0.389328
Zn22	Zn	1.243907	-0.112290	-0.272269
Zn23	Zn	1.577240	0.221043	0.061065
Zn24	Zn	1.910573	0.554376	0.394398
Zn25	Zn	1.257615	0.112258	-0.258565
Zn26	Zn	1.590949	0.445591	0.074769
Zn27	Zn	1.924282	0.778925	0.408102
O28	O	1.252281	-0.085225	-0.422184
O29	O	1.585614	0.248108	-0.088850
O30	O	1.918947	0.581442	0.244483
C31	C	1.060125	-0.000012	-0.254153
C32	C	1.393458	0.333321	0.079180
C33	C	1.726792	0.666654	0.412513
C34	C	0.943710	-0.000010	-0.240609
C35	C	1.277044	0.333323	0.092725
C36	C	1.610377	0.666656	0.426058
N37	N	1.234558	-0.265539	-0.281621
N38	N	1.567892	0.067794	0.051712
N39	N	1.901225	0.401128	0.385045
C40	C	0.718836	-0.000018	-0.403439
C41	C	1.052169	0.333315	-0.070105
C42	C	1.385502	0.666648	0.263228
C43	C	0.609453	-0.000017	-0.390717
C44	C	0.942787	0.333316	-0.057384
C45	C	1.276120	0.666650	0.275950
C46	C	0.615561	-0.000014	-0.202446
C47	C	0.948894	0.333320	0.130888
C48	C	1.282227	0.666653	0.464221
C49	C	0.724943	-0.000015	-0.215167
C50	C	1.058276	0.333318	0.118166
C51	C	1.391610	0.666652	0.451499
C52	C	0.776577	-0.000016	-0.315667
C53	C	1.109910	0.333318	0.017667
C54	C	1.443243	0.666651	0.351000
C55	C	0.885962	-0.000010	-0.328387
C56	C	1.219295	0.333324	0.004947
C57	C	1.552628	0.666657	0.338280
C58	C	0.892066	-0.000014	-0.140117
C59	C	1.225400	0.333320	0.193217
C60	C	1.558733	0.666653	0.526550
C61	C	0.782684	-0.000013	-0.127395
C62	C	1.116017	0.333321	0.205938
C63	C	1.449351	0.666654	0.539271
C64	C	1.279684	-0.525451	-0.236475
C65	C	1.613017	-0.192118	0.096858
C66	C	1.946350	0.141215	0.430192
C67	C	1.221849	-0.474575	-0.294348
C68	C	1.555182	-0.141241	0.038986
C69	C	1.888515	0.192092	0.372319
C70	C	1.228922	-0.358256	-0.287265
C71	C	1.562256	-0.024923	0.046068
C72	C	1.895589	0.308410	0.379402
C73	C	1.272611	-0.641780	-0.243556
C74	C	1.605945	-0.308447	0.089777
C75	C	1.939278	0.024887	0.423110
C76	C	1.441397	-0.000018	-0.276680
C77	C	1.774730	0.333316	0.056654
C78	C	2.108063	0.666649	0.389987
C79	C	1.557812	-0.000013	-0.290224
C80	C	1.891145	0.333320	0.043109
C81	C	2.224479	0.666653	0.376443
C82	C	1.239498	-0.000022	-0.074781
C83	C	1.572831	0.333312	0.258552
C84	C	1.906164	0.666645	0.591886
C85	C	1.225953	-0.000020	0.041634
C86	C	1.559287	0.333314	0.374968
C87	C	1.892620	0.666647	0.708301
N88	N	1.266971	0.265506	-0.249204
N89	N	1.600304	0.598840	0.084129
N90	N	1.933638	0.932173	0.417462
C91	C	1.262024	-0.000008	-0.456052
C92	C	1.595358	0.333325	-0.122719
C93	C	1.928691	0.666658	0.210615
C94	C	1.275569	-0.000004	-0.572467
C95	C	1.608902	0.333330	-0.239133
C96	C	1.942236	0.666663	0.094200
C97	C	1.388784	-0.000002	0.266509
C98	C	1.722117	0.333332	0.599843
C99	C	2.055450	0.666665	0.933176
C100	C	1.376062	0.000000	0.375892
C101	C	1.709396	0.333334	0.709225
C102	C	2.042729	0.666667	1.042559
C103	C	1.187791	-0.000007	0.369784
C104	C	1.521124	0.333327	0.703118
C105	C	1.854457	0.666660	1.036451
C106	C	1.200512	-0.000009	0.260402
C107	C	1.533845	0.333325	0.593735
C108	C	1.867179	0.666658	0.927068
C109	C	1.301012	-0.000008	0.208768
C110	C	1.634345	0.333326	0.542101
C111	C	1.967678	0.666659	0.875435
C112	C	1.313731	-0.000017	0.099383
C113	C	1.647065	0.333316	0.432716
C114	C	1.980398	0.666650	0.766050
C115	C	1.125461	-0.000016	0.093278
C116	C	1.458795	0.333317	0.426611
C117	C	1.792128	0.666650	0.759945
C118	C	1.112740	-0.000014	0.202661
C119	C	1.446073	0.333319	0.535994
C120	C	1.779407	0.666652	0.869327
H121	H	0.928000	-0.000012	-0.410219
H122	H	1.261333	0.333321	-0.076885
H123	H	1.594666	0.666655	0.256448
H124	H	1.334507	-0.481655	-0.181614
H125	H	1.667841	-0.148322	0.151720
H126	H	2.001174	0.185012	0.485053
Br127	Br	1.450120	-0.000026	0.029308
Br128	Br	1.783454	0.333307	0.362642
Br129	Br	2.116787	0.666640	0.695975
H130	H	0.573496	-0.000098	-0.120629
H131	H	0.906830	0.333236	0.212705
H132	H	1.240163	0.666569	0.546038
H133	H	0.740628	-0.000024	-0.045572
H134	H	1.073962	0.333310	0.287761
H135	H	1.407295	0.666643	0.621095
Br136	Br	0.970436	0.000011	-0.020989
Br137	Br	1.303770	0.333344	0.312345
Br138	Br	1.637103	0.666678	0.645678
H139	H	1.470614	-0.000011	0.224468
H140	H	1.803947	0.333322	0.557801
H141	H	2.137280	0.666656	0.891135
H142	H	0.760877	-0.000017	-0.485269
H143	H	1.094210	0.333316	-0.151936
H144	H	1.427543	0.666649	0.181398
Br145	Br	1.495187	0.000015	0.454254
Br146	Br	1.828520	0.333349	0.787587
Br147	Br	2.161854	0.666682	1.120920
H148	H	0.562444	-0.000022	-0.462191
H149	H	0.895778	0.333311	-0.128857
H150	H	1.229111	0.666645	0.204476
Br151	Br	1.130469	-0.547577	-0.385796
Br152	Br	1.463802	-0.214244	-0.052463
Br153	Br	1.797135	0.119090	0.280871
Br154	Br	1.051412	0.000029	0.439879
Br155	Br	1.384745	0.333363	0.773212
Br156	Br	1.718078	0.666696	1.106546
H157	H	1.030916	-0.000011	0.244716
H158	H	1.364249	0.333322	0.578049
H159	H	1.697583	0.666655	0.911383
H160	H	1.053990	-0.000029	0.046253
H161	H	1.387324	0.333304	0.379586
H162	H	1.720657	0.666637	0.712919
