data_functionalizedCrystal
_audit_creation_method	'MofGen! by Chris Wilmer'
_symmetry_space_group_name_H-M	'P1'
_symmetry_Int_Tables_number	1
_symmetry_cell_setting	triclinic
loop_
_symmetry_equiv_pos_as_xyz
  x,y,z
_cell_length_a	27.731994
_cell_length_b	27.731996
_cell_length_c	9.130307
_cell_angle_alpha	89.990770
_cell_angle_beta	90.004579
_cell_angle_gamma	82.620961
loop_
_atom_site_label
_atom_site_type_symbol
_atom_site_fract_x
_atom_site_fract_y
_atom_site_fract_z
O1	O	0.640932	0.057393	-0.121609
O2	O	0.500133	0.066166	-0.121661
O3	O	0.574918	-0.008620	-0.121602
O4	O	0.566146	0.132179	-0.121668
O5	O	0.574916	-0.008621	0.121997
O6	O	0.500130	0.066165	0.121938
O7	O	0.640929	0.057392	0.121990
Cu8	Cu	0.570530	0.061779	0.144207
Cu9	Cu	0.570532	0.061780	-0.143877
O10	O	0.566144	0.132178	0.121931
C11	C	0.482124	0.065986	0.000133
C12	C	0.428468	0.065443	0.000115
C13	C	0.095749	0.062027	0.132958
C14	C	-0.105909	0.059965	0.132976
O15	O	-0.131983	0.059678	0.245905
N16	N	-0.131122	0.059710	0.000191
C17	C	-0.105918	0.059966	-0.132609
O18	O	-0.131990	0.059697	-0.245551
C19	C	0.095739	0.062025	-0.132625
C20	C	0.120950	0.062285	0.000169
C21	C	0.120959	0.062287	0.265742
C22	C	0.171370	0.062805	0.265736
C23	C	0.196571	0.063063	0.132947
C24	C	0.171361	0.062803	0.000164
C25	C	0.120943	0.062278	-0.265423
C26	C	0.171361	0.062791	-0.265415
C27	C	0.196571	0.063052	-0.132621
C28	C	0.246972	0.063579	-0.132631
N29	N	0.272186	0.063835	0.000154
C30	C	0.246985	0.063577	0.132943
C31	C	-0.211791	0.058887	-0.132591
C32	C	-0.262205	0.058373	-0.132587
C33	C	-0.262193	0.058371	0.132998
C34	C	-0.211778	0.058888	0.132993
C35	C	-0.186578	0.059142	0.000194
C36	C	0.352852	0.064665	0.132921
C37	C	0.403267	0.065185	0.132904
C38	C	0.403251	0.065184	-0.132681
C39	C	0.352839	0.064667	-0.132664
C40	C	0.327642	0.064406	0.000149
O41	O	0.273078	0.063862	-0.245501
O42	O	0.273067	0.063836	0.245868
C43	C	0.045338	0.061509	0.132964
C44	C	0.020128	0.061249	0.000181
C45	C	0.045328	0.061507	-0.132608
C46	C	-0.030287	0.060735	0.000184
C47	C	-0.055487	0.060477	0.132974
C48	C	-0.030274	0.060733	0.265759
C49	C	0.020137	0.061251	0.265753
C50	C	0.020115	0.061251	-0.265394
C51	C	-0.030296	0.060734	-0.265377
C52	C	-0.055497	0.060476	-0.132588
C53	C	0.574737	-0.026628	0.000203
C54	C	0.574194	-0.080284	0.000218
C55	C	0.570781	-0.412999	-0.132641
C56	C	0.568719	-0.614657	-0.132668
O57	O	0.568433	-0.640727	-0.245598
N58	N	0.568462	-0.639874	0.000117
C59	C	0.568717	-0.614674	0.132917
O60	O	0.568446	-0.640749	0.245858
C61	C	0.570775	-0.413016	0.132942
C62	C	0.571037	-0.387802	0.000149
C63	C	0.571042	-0.387785	-0.265423
C64	C	0.571560	-0.337374	-0.265415
C65	C	0.571816	-0.312177	-0.132625
C66	C	0.571555	-0.337391	0.000157
C67	C	0.571026	-0.387816	0.265741
C68	C	0.571539	-0.337399	0.265736
C69	C	0.571801	-0.312184	0.132943
C70	C	0.572329	-0.261783	0.132955
N71	N	0.572586	-0.236566	0.000171
C72	C	0.572330	-0.261763	-0.132619
C73	C	0.567638	-0.720547	0.132895
C74	C	0.567124	-0.770961	0.132889
C75	C	0.567126	-0.770941	-0.132697
C76	C	0.567643	-0.720526	-0.132689
C77	C	0.567895	-0.695329	0.000110
C78	C	0.573418	-0.155896	-0.132593
C79	C	0.573938	-0.105481	-0.132573
C80	C	0.573934	-0.105505	0.133012
C81	C	0.573416	-0.155916	0.132993
C82	C	0.573157	-0.181110	0.000179
O83	O	0.572610	-0.235681	0.245826
O84	O	0.572590	-0.235677	-0.245543
C85	C	0.570263	-0.463410	-0.132649
C86	C	0.570001	-0.488624	0.000133
C87	C	0.570257	-0.463428	0.132924
C88	C	0.569487	-0.539039	0.000127
C89	C	0.569231	-0.564235	-0.132663
C90	C	0.569489	-0.539018	-0.265447
C91	C	0.570006	-0.488607	-0.265439
C92	C	0.570000	-0.488645	0.265708
C93	C	0.569483	-0.539056	0.265689
C94	C	0.569226	-0.564253	0.132899
C95	C	0.658938	0.057573	0.000193
C96	C	0.712594	0.058115	0.000202
C97	C	0.566325	0.150186	0.000123
C98	C	0.566868	0.203842	0.000099
N99	N	0.570531	0.061778	0.346829
N100	N	0.570535	0.061777	-0.346500
C101	C	0.636780	-0.004426	0.346872
C102	C	0.669908	-0.037527	0.423559
C103	C	0.669913	-0.037528	0.576893
C104	C	0.636785	-0.004425	0.653542
C105	C	0.603658	0.028676	0.576854
C106	C	0.603657	0.028674	0.423517
C107	C	0.537407	0.094877	0.576812
C108	C	0.537404	0.094881	0.423478
C109	C	0.504280	0.127980	0.653461
C110	C	0.471153	0.161084	0.576773
C111	C	0.471150	0.161084	0.423430
C112	C	0.504276	0.127982	0.346791
H113	H	-0.282728	0.058169	-0.240722
F114	F	0.504282	0.127978	0.816653
F115	F	0.326042	0.064386	0.274276
H116	H	0.444181	0.188032	0.639190
F117	F	0.636784	-0.004424	0.183680
F118	F	0.430095	0.065464	0.274248
F119	F	0.570285	-0.461778	-0.406777
H120	H	0.040628	0.061460	-0.373529
F121	F	0.636786	-0.004431	0.816734
H122	H	0.567845	-0.700037	0.241042
H123	H	0.574144	-0.084981	0.241126
H124	H	0.566918	-0.791487	0.241023
H125	H	0.191892	0.063014	0.373871
F126	F	0.574218	-0.078649	-0.273916
H127	H	0.444172	0.188036	0.360999
F128	F	0.570269	-0.461835	0.407050
H129	H	-0.191255	0.059101	0.241126
F130	F	0.573142	-0.182702	-0.273948
F131	F	0.571836	-0.310545	-0.406754
H132	H	-0.282720	0.058162	0.241120
F133	F	-0.184977	0.059158	-0.273943
H134	H	0.696886	-0.064483	0.639332
F135	F	0.504278	0.127980	0.183599
F136	F	0.569218	-0.565843	-0.406773
H137	H	0.100426	0.062065	-0.373558
F138	F	0.569207	-0.565886	0.407037
H139	H	0.696879	-0.064480	0.361138
H140	H	0.040659	0.061463	0.373888
H141	H	0.191877	0.062998	-0.373558
H142	H	0.332311	0.064463	-0.240796
F143	F	0.430080	0.065458	-0.273997
F144	F	-0.057104	0.060461	0.407083
F145	F	0.094146	0.062014	0.407087
F146	F	0.570769	-0.414593	-0.406770
F147	F	-0.057122	0.060460	-0.406726
F148	F	0.566852	-0.797765	-0.274023
F149	F	0.570745	-0.414640	0.407081
F150	F	0.567921	-0.693696	-0.274024
H151	H	0.573207	-0.176447	0.241124
F152	F	0.571807	-0.310586	0.407084
