data_functionalizedCrystal
_audit_creation_method	'MofGen! by Chris Wilmer'
_symmetry_space_group_name_H-M	'P1'
_symmetry_Int_Tables_number	1
_symmetry_cell_setting	triclinic
loop_
_symmetry_equiv_pos_as_xyz
  x,y,z
_cell_length_a	12.811445
_cell_length_b	16.098692
_cell_length_c	12.811415
_cell_angle_alpha	92.380974
_cell_angle_beta	83.528277
_cell_angle_gamma	92.388069
loop_
_atom_site_label
_atom_site_type_symbol
_atom_site_fract_x
_atom_site_fract_y
_atom_site_fract_z
O1	O	1.382171	0.183471	0.130257
O2	O	1.882171	0.683471	0.630257
O3	O	1.077970	0.161760	0.146942
O4	O	1.577970	0.661760	0.646942
O5	O	1.238415	0.161755	-0.013499
O6	O	1.738415	0.661755	0.486501
O7	O	1.221727	0.183476	0.290699
O8	O	1.721727	0.683476	0.790699
O9	O	1.246720	0.024502	-0.005161
O10	O	1.746720	0.524502	0.494839
O11	O	1.086276	0.024507	0.155280
O12	O	1.586276	0.524507	0.655280
O13	O	1.390477	0.046218	0.138595
O14	O	1.890477	0.546218	0.638595
Zn15	Zn	1.239695	0.013571	0.148261
Zn16	Zn	1.739695	0.513571	0.648261
Zn17	Zn	1.228752	0.194407	0.137276
Zn18	Zn	1.728752	0.694407	0.637276
O19	O	1.230032	0.046223	0.299036
O20	O	1.730032	0.546223	0.799036
C21	C	1.043196	0.090142	0.150431
C22	C	1.543196	0.590142	0.650431
C23	C	0.927208	0.081229	0.148390
C24	C	1.427208	0.581229	0.648390
N25	N	1.247171	-0.109844	0.155757
N26	N	1.747171	0.390156	0.655757
C27	C	1.186454	-0.162630	0.094987
C28	C	1.686454	0.337370	0.594987
C29	C	1.191710	-0.249022	0.100243
C30	C	1.691710	0.250978	0.600243
C31	C	1.257689	-0.282629	0.166265
C32	C	1.757689	0.217371	0.666265
C33	C	1.318408	-0.229837	0.227043
C34	C	1.818408	0.270163	0.727043
C35	C	1.313146	-0.143445	0.221791
C36	C	1.813146	0.356555	0.721791
C37	C	1.276741	-0.542994	0.185298
C38	C	1.776741	-0.042994	0.685298
C39	C	1.282001	-0.629392	0.190542
C40	C	1.782001	-0.129392	0.690542
C41	C	1.155301	-0.648572	0.063743
C42	C	1.655301	-0.148572	0.563743
C43	C	1.150050	-0.562179	0.058493
C44	C	1.650050	-0.062179	0.558493
C45	C	1.210764	-0.509394	0.119275
C46	C	1.710764	-0.009394	0.619275
C47	C	1.263065	-0.370936	0.171637
C48	C	1.763065	0.129064	0.671637
C49	C	1.205382	-0.421089	0.113908
C50	C	1.705382	0.078911	0.613908
C51	C	0.700192	0.214130	0.135485
C52	C	1.200192	0.714130	0.635485
C53	C	0.591210	0.205760	0.133568
C54	C	1.091210	0.705760	0.633568
C55	C	0.600258	0.056118	0.142646
C56	C	1.100258	0.556118	0.642646
C57	C	0.709240	0.064489	0.144563
C58	C	1.209240	0.564489	0.644563
C59	C	0.759203	0.143498	0.140981
C60	C	1.259203	0.643498	0.640981
C61	C	0.868188	0.151867	0.142891
C62	C	1.368188	0.651867	0.642891
C63	C	0.877234	0.002227	0.151976
C64	C	1.377234	0.502227	0.651976
C65	C	0.768252	-0.006144	0.150059
C66	C	1.268252	0.493856	0.650059
C67	C	1.425250	0.117837	0.135107
C68	C	1.925250	0.617837	0.635107
C69	C	1.541239	0.126756	0.137147
C70	C	2.041239	0.626756	0.637147
N71	N	1.221284	0.317822	0.129772
N72	N	1.721284	0.817822	0.629772
C73	C	1.241887	0.090138	-0.048256
C74	C	1.741887	0.590138	0.451744
C75	C	1.239847	0.081227	-0.164244
C76	C	1.739847	0.581227	0.335756
C77	C	1.226940	0.214130	-0.391277
C78	C	1.726940	0.714130	0.108723
C79	C	1.225023	0.205761	-0.500258
C80	C	1.725023	0.705761	-0.000258
C81	C	1.234089	0.056120	-0.491189
C82	C	1.734089	0.556120	0.008811
C83	C	1.236006	0.064489	-0.382208
C84	C	1.736006	0.564489	0.117792
C85	C	1.232433	0.143497	-0.332256
C86	C	1.732433	0.643497	0.167744
C87	C	1.234357	0.151865	-0.223274
C88	C	1.734357	0.651865	0.276726
C89	C	1.243416	0.002225	-0.214206
C90	C	1.743416	0.502225	0.285794
C91	C	1.241499	-0.006144	-0.323187
C92	C	1.741499	0.493856	0.176813
C93	C	1.226560	0.117842	0.333794
C94	C	1.726560	0.617842	0.833794
C95	C	1.228599	0.126759	0.449781
C96	C	1.728599	0.626759	0.949781
H97	H	1.132730	-0.135275	0.041221
H98	H	1.632730	0.364725	0.541221
H99	H	1.236990	-0.008205	-0.531878
H100	H	1.736990	0.491795	-0.031878
F101	F	1.127082	-0.305197	0.035566
F102	F	1.627082	0.194803	0.535566
H103	H	1.224039	0.278462	-0.350607
H104	H	1.724039	0.778462	0.149393
H105	H	0.543166	0.263277	0.129095
H106	H	1.043166	0.763277	0.629095
F107	F	0.940048	-0.072952	0.157812
F108	F	1.440048	0.427048	0.657812
F109	F	1.079793	-0.526419	-0.011744
F110	F	1.579793	-0.026419	0.488256
H111	H	0.727556	-0.070470	0.152979
H112	H	1.227556	0.429530	0.652979
H113	H	1.105869	-0.691558	0.014260
H114	H	1.605869	-0.191558	0.514260
F115	F	1.230558	0.235951	-0.170113
F116	F	1.730558	0.735951	0.329887
F117	F	1.135160	-0.385321	0.043649
F118	F	1.635160	0.114679	0.543649
H119	H	1.220546	0.263278	-0.548309
H120	H	1.720546	0.763278	-0.048309
F121	F	1.352232	-0.665156	0.260811
F122	F	1.852232	-0.165156	0.760811
F123	F	1.341334	-0.486828	0.250014
F124	F	1.841334	0.013172	0.750014
H125	H	0.908867	0.216200	0.139973
H126	H	1.408867	0.716200	0.639973
F127	F	0.547064	-0.027961	0.146475
F128	F	1.047064	0.472039	0.646475
F129	F	0.753370	0.298215	0.131659
F130	F	1.253370	0.798215	0.631659
H131	H	1.244404	-0.070471	-0.363872
H132	H	1.744404	0.429529	0.136128
H133	H	1.247893	-0.055290	-0.166139
H134	H	1.747893	0.444710	0.333861
H135	H	1.372125	-0.257205	0.280804
H136	H	1.872125	0.242795	0.780804
F137	F	1.333281	-0.406710	0.241904
F138	F	1.833281	0.093290	0.741904
F139	F	1.377771	-0.087267	0.286470
F140	F	1.877771	0.412733	0.786470
