data_functionalizedCrystal
_audit_creation_method	'MofGen! by Chris Wilmer'
_symmetry_space_group_name_H-M	'P1'
_symmetry_Int_Tables_number	1
_symmetry_cell_setting	triclinic
loop_
_symmetry_equiv_pos_as_xyz
  x,y,z
_cell_length_a	12.759400
_cell_length_b	12.827893
_cell_length_c	12.827885
_cell_angle_alpha	89.980728
_cell_angle_beta	89.969506
_cell_angle_gamma	90.014845
loop_
_atom_site_label
_atom_site_type_symbol
_atom_site_fract_x
_atom_site_fract_y
_atom_site_fract_z
Zn1	Zn	-0.418211	1.597677	-0.590838
Zn2	Zn	0.081789	2.097677	-0.090838
Zn3	Zn	-0.593926	1.597572	-0.416096
Zn4	Zn	-0.093926	2.097572	0.083904
Zn5	Zn	-0.418263	1.422918	-0.416112
Zn6	Zn	0.081737	1.922918	0.083888
Zn7	Zn	-0.593849	1.422906	-0.590797
Zn8	Zn	-0.093849	1.922906	-0.090797
O9	O	-0.506062	1.510268	-0.503461
O10	O	-0.006062	2.010268	-0.003461
O11	O	-0.441531	1.743899	-0.567669
O12	O	0.058469	2.243899	-0.067669
O13	O	-0.570678	1.574365	-0.269862
O14	O	-0.070678	2.074365	0.230138
O15	O	-0.271235	1.446148	-0.439314
O16	O	0.228765	1.946148	0.060686
O17	O	-0.570628	1.743822	-0.439287
O18	O	-0.070628	2.243822	0.060713
O19	O	-0.271197	1.574543	-0.567684
O20	O	0.228803	2.074543	-0.067684
O21	O	-0.441619	1.446047	-0.269874
O22	O	0.058381	1.946047	0.230126
O23	O	-0.441544	1.276680	-0.439274
O24	O	0.058456	1.776680	0.060726
O25	O	-0.570496	1.446128	-0.737039
O26	O	-0.070496	1.946128	-0.237039
O27	O	-0.570546	1.276671	-0.567614
O28	O	-0.070546	1.776671	-0.067614
O29	O	-0.441456	1.574532	-0.737069
O30	O	0.058544	2.074532	-0.237069
O31	O	-0.740937	1.574354	-0.439247
O32	O	-0.240937	2.074354	0.060753
O33	O	-0.740880	1.446027	-0.567599
O34	O	-0.240880	1.946027	-0.067599
C35	C	-0.506043	1.238758	-0.503442
C36	C	-0.006043	1.738758	-0.003442
C37	C	-0.506060	1.122605	-0.503459
C38	C	-0.006060	1.622605	-0.003459
C39	C	-0.442141	1.070797	-0.440065
C40	C	0.057859	1.570797	0.059935
C41	C	-0.442157	0.950747	-0.440080
C42	C	0.057843	1.450747	0.059920
C43	C	-0.779030	1.510206	-0.503439
C44	C	-0.279030	2.010206	-0.003439
C45	C	-0.895806	1.510275	-0.503465
C46	C	-0.395806	2.010275	-0.003465
C47	C	-0.950663	1.577169	-0.436706
C48	C	-0.450663	2.077169	0.063294
C49	C	-1.060387	1.577233	-0.436738
C50	C	-0.560387	2.077233	0.063262
C51	C	-1.060388	1.443500	-0.570291
C52	C	-0.560388	1.943500	-0.070291
C53	C	-0.950666	1.443442	-0.570263
C54	C	-0.450666	1.943442	-0.070263
C55	C	-0.895803	1.644002	-0.369907
C56	C	-0.395803	2.144002	0.130093
C57	C	-0.950660	1.710900	-0.303142
C58	C	-0.450660	2.210900	0.196858
C59	C	-1.060384	1.710965	-0.303175
C60	C	-0.560384	2.210965	0.196825
C61	C	-1.115252	1.644130	-0.369972
C62	C	-0.615252	2.144130	0.130028
C63	C	-0.232029	1.510359	-0.503506
C64	C	0.267971	2.010359	-0.003506
C65	C	-0.115252	1.510397	-0.503525
C66	C	0.384748	2.010397	-0.003525
C67	C	-0.505961	1.510340	-0.776031
C68	C	-0.005961	2.010340	-0.276031
C69	C	-0.505918	1.510371	-0.892185
C70	C	-0.005918	2.010371	-0.392185
C71	C	-0.506082	1.782838	-0.503481
C72	C	-0.006082	2.282838	-0.003481
C73	C	-0.506091	1.898991	-0.503489
C74	C	-0.006091	2.398991	-0.003489
C75	C	-0.442043	1.446895	-0.943975
C76	C	0.057957	1.946895	-0.443975
C77	C	-0.441997	1.446925	-1.064026
C78	C	0.058003	1.946925	-0.564026
C79	C	-0.506087	1.510256	-0.231951
C80	C	-0.006087	2.010256	0.268049
C81	C	-0.505834	1.510428	-0.115798
C82	C	-0.005834	2.010428	0.384202
H83	H	-0.560798	1.078083	-0.557741
H84	H	-0.060798	1.578083	-0.057741
H85	H	-1.105069	1.389086	-0.624673
H86	H	-0.605069	1.889086	-0.124673
O87	O	-0.891486	1.371286	-0.642256
O88	O	-0.391486	1.871286	-0.142256
H89	H	-0.948065	1.324809	-0.688696
H90	H	-0.448065	1.824809	-0.188696
O91	O	-0.578584	0.957988	-0.575394
O92	O	-0.078584	1.457988	-0.075394
H93	H	-0.560671	0.937137	-0.657460
H94	H	-0.060671	1.437137	-0.157460
O95	O	-0.369638	1.374880	-0.884997
O96	O	0.130362	1.874880	-0.384997
H97	H	-0.381029	1.386164	-0.799959
H98	H	0.118971	1.886164	-0.299959
H99	H	-0.387307	1.392586	-1.108564
H100	H	0.112693	1.892586	-0.608564
O101	O	-0.777459	1.643935	-0.369880
O102	O	-0.277459	2.143935	0.130120
H103	H	-0.748525	1.701650	-0.312224
H104	H	-0.248525	2.201650	0.187776
O105	O	-0.578317	1.582381	-0.951177
O106	O	-0.078317	2.082381	-0.451177
H107	H	-0.660799	1.564433	-0.930280
H108	H	-0.160799	2.064433	-0.430280
O109	O	-0.891492	1.783003	-0.231117
O110	O	-0.391492	2.283003	0.268883
H111	H	-0.805979	1.771722	-0.242307
H112	H	-0.305979	2.271722	0.257693
O113	O	-0.369633	1.129753	-0.368146
O114	O	0.130367	1.629753	0.131854
H115	H	-0.316267	1.179505	-0.415044
H116	H	0.183733	1.679505	0.084956
H117	H	-1.105046	1.765444	-0.248819
H118	H	-0.605046	2.265444	0.251181
H119	H	-0.560519	1.564779	-1.071267
H120	H	-0.060519	2.064779	-0.571267
H121	H	-1.204596	1.644196	-0.370001
H122	H	-0.704596	2.144196	0.129999
H123	H	-0.387429	0.906193	-0.385811
H124	H	0.112571	1.406193	0.114189
