data_functionalizedCrystal
_audit_creation_method	'MofGen! by Chris Wilmer'
_symmetry_space_group_name_H-M	'P1'
_symmetry_Int_Tables_number	1
_symmetry_cell_setting	triclinic
loop_
_symmetry_equiv_pos_as_xyz
  x,y,z
_cell_length_a	15.624803
_cell_length_b	14.519709
_cell_length_c	14.185569
_cell_angle_alpha	76.819419
_cell_angle_beta	85.691254
_cell_angle_gamma	83.966891
loop_
_atom_site_label
_atom_site_type_symbol
_atom_site_fract_x
_atom_site_fract_y
_atom_site_fract_z
O1	O	1.079913	0.239584	-0.476355
O2	O	0.838902	0.231990	-0.388663
O3	O	0.965800	0.102125	-0.434826
O4	O	0.953015	0.369449	-0.430192
O5	O	1.003286	0.063766	-0.281628
O6	O	0.876388	0.193632	-0.235465
O7	O	1.117400	0.201225	-0.323157
Cu8	Cu	1.000317	0.193926	-0.265323
Cu9	Cu	0.955985	0.239289	-0.446497
O10	O	0.990502	0.331090	-0.276994
C11	C	0.826800	0.209354	-0.300842
C12	C	0.734893	0.199041	-0.267401
C13	C	0.330522	0.269642	-0.575052
C14	C	0.244163	0.259933	-0.543628
C15	C	0.285009	0.218114	-0.376611
C16	C	0.371373	0.227815	-0.408020
C17	C	0.394122	0.253580	-0.507242
C18	C	0.434973	0.211753	-0.340210
C19	C	0.521329	0.221458	-0.371618
C20	C	0.544085	0.247225	-0.470835
C21	C	0.480478	0.263285	-0.538649
C22	C	0.412222	0.185994	-0.240989
C23	C	0.475822	0.169932	-0.173179
C24	C	0.562181	0.179630	-0.204586
C25	C	0.584937	0.205398	-0.303803
C26	C	0.625788	0.163570	-0.136772
C27	C	0.712144	0.173275	-0.168179
C28	C	0.671293	0.215103	-0.335211
C29	C	0.983947	0.048532	-0.358010
C30	C	0.982163	-0.054011	-0.357360
C31	C	0.975586	-0.429496	-0.354993
C32	C	0.977413	-0.325024	-0.355650
C33	C	0.978874	-0.241757	-0.356176
C34	C	0.980701	-0.137278	-0.356834
C35	C	1.129501	0.223862	-0.410981
C36	C	1.221407	0.234177	-0.444427
C37	C	0.972354	0.384684	-0.353812
C38	C	0.974137	0.487228	-0.354468
N39	N	1.031504	0.162019	-0.137897
N40	N	0.924804	0.271189	-0.573925
C41	C	0.833176	0.364890	0.301900
C42	C	0.856806	0.340728	0.398325
C43	C	0.969197	0.225781	0.357401
C44	C	0.945574	0.249930	0.260971
C45	C	0.877564	0.319486	0.233229
C46	C	0.989961	0.204526	0.192300
C47	C	0.966343	0.228677	0.095877
C48	C	0.898337	0.298232	0.068126
C49	C	0.853946	0.343637	0.136806
C50	C	1.057975	0.134976	0.220043
C51	C	1.102363	0.089572	0.151372
C52	C	1.078741	0.113718	0.054948
C53	C	1.010735	0.183272	0.027197
C54	C	1.123133	0.068313	-0.013732
C55	C	1.099514	0.092464	-0.110155
C56	C	0.987117	0.207423	-0.069226
H57	H	0.689816	0.236080	-0.416007
H58	H	0.763929	0.160201	-0.112961
H59	H	0.341903	0.178098	-0.215420
F60	F	0.176475	0.277034	-0.615809
F61	F	0.601563	0.136162	-0.031176
F62	F	0.873205	0.323939	-0.034499
H63	H	0.614402	0.255132	-0.496405
F64	F	1.083112	0.109280	0.322666
H65	H	1.157740	0.032941	0.173971
F66	F	0.760784	0.438911	0.272376
H67	H	0.499001	0.284263	-0.619445
H68	H	1.178513	0.011686	0.008868
H69	H	0.349044	0.290620	-0.655848
H70	H	1.135660	0.055491	-0.166069
H71	H	0.266473	0.197139	-0.295824
F72	F	0.914724	0.281444	-0.098750
H73	H	0.820655	0.377709	0.454236
F74	F	0.451600	0.142515	-0.067583
H75	H	0.798559	0.400269	0.114220
F76	F	1.041579	0.151759	0.386935
