data_functionalizedCrystal
_audit_creation_method	'MofGen! by Chris Wilmer'
_symmetry_space_group_name_H-M	'P1'
_symmetry_Int_Tables_number	1
_symmetry_cell_setting	triclinic
loop_
_symmetry_equiv_pos_as_xyz
  x,y,z
_cell_length_a	10.654550
_cell_length_b	15.995350
_cell_length_c	9.130313
_cell_angle_alpha	89.997713
_cell_angle_beta	89.999724
_cell_angle_gamma	83.988653
loop_
_atom_site_label
_atom_site_type_symbol
_atom_site_fract_x
_atom_site_fract_y
_atom_site_fract_z
O1	O	1.666303	0.117603	-0.121682
O2	O	1.300678	0.128807	-0.121708
O3	O	1.493485	0.001375	-0.121693
O4	O	1.473496	0.245034	-0.121697
O5	O	1.493472	0.001371	0.121906
O6	O	1.300665	0.128803	0.121891
O7	O	1.666290	0.117599	0.121917
Cu8	Cu	1.483476	0.123201	0.144146
Cu9	Cu	1.483492	0.123205	-0.143938
O10	O	1.473483	0.245031	0.121902
C11	C	1.253884	0.127982	0.000088
C12	C	1.114473	0.125521	0.000078
C13	C	1.034008	0.200551	0.000080
C14	C	0.903017	0.198233	0.000106
C15	C	0.932971	0.045849	0.000120
C16	C	1.063959	0.048168	0.000105
C17	C	1.492652	-0.029826	0.000103
C18	C	1.490175	-0.122791	0.000095
C19	C	1.481277	-0.460590	0.000099
C20	C	1.343964	-0.413954	-0.000457
C21	C	1.346442	-0.317249	0.000092
C22	C	1.485691	-0.293004	0.000096
C23	C	1.553411	-0.333690	0.139205
C24	C	1.549962	-0.430346	0.139322
C25	C	1.552813	-0.430684	-0.137696
C26	C	1.552781	-0.333738	-0.139534
C27	C	1.488192	-0.198292	0.000100
C28	C	1.478780	-0.555303	0.000106
C29	C	1.713084	0.118423	0.000118
C30	C	1.852495	0.120885	0.000118
C31	C	1.474316	0.276232	0.000102
C32	C	1.476793	0.369197	0.000101
N33	N	1.483475	0.123197	0.346769
N34	N	1.483504	0.123202	-0.346560
C35	C	1.568878	0.066794	0.423427
C36	C	1.568890	0.066794	0.576764
C37	C	1.398091	0.179608	0.576770
C38	C	1.398074	0.179603	0.423436
H39	H	1.293209	-0.289135	-0.099627
O40	O	1.499452	-0.455457	-0.263625
C41	C	1.505010	-0.455724	-0.527466
C42	C	1.565599	-0.427633	-0.384977
H43	H	1.558448	-0.433225	-0.625617
H44	H	1.509321	-0.527229	-0.529734
H45	H	1.402335	-0.427463	-0.532528
H46	H	1.668294	-0.455834	-0.379822
H47	H	1.561189	-0.356124	-0.382768
O48	O	0.825032	0.271196	0.000039
C49	C	0.809154	0.422584	0.000104
C50	C	0.897615	0.340014	0.000142
H51	H	0.867802	0.478245	0.000218
H52	H	0.747092	0.425365	-0.101856
H53	H	0.747066	0.425265	0.102035
H54	H	0.959782	0.337278	-0.101720
H55	H	0.959592	0.337267	0.102170
H56	H	1.654327	-0.317787	-0.147930
O57	O	1.314970	0.234315	0.651186
C58	C	1.096619	0.282052	0.698071
C59	C	1.190614	0.220034	0.613733
H60	H	0.996056	0.270539	0.667798
H61	H	1.111194	0.272367	0.820848
H62	H	1.113032	0.349211	0.667927
H63	H	1.174257	0.152850	0.643754
H64	H	1.176015	0.229792	0.490976
H65	H	1.328522	0.225533	0.361017
O66	O	1.142185	-0.024698	0.000356
C67	C	1.307528	-0.110487	0.126502
C68	C	1.218990	-0.027951	0.126410
H69	H	1.369666	-0.113136	0.228390
H70	H	1.248991	-0.166204	0.126605
H71	H	1.369537	-0.113197	0.024503
H72	H	1.156964	-0.025159	0.228391
H73	H	1.277603	0.027728	0.126231
H74	H	1.075132	0.263537	0.000069
H75	H	0.891826	-0.017129	0.000150
O76	O	1.278509	-0.436302	-0.119576
C77	C	1.166870	-0.389785	-0.339271
C78	C	1.240997	-0.364357	-0.204443
H79	H	1.136497	-0.331630	-0.407907
H80	H	1.229378	-0.436908	-0.407941
H81	H	1.079772	-0.419644	-0.301714
H82	H	1.328097	-0.334463	-0.241870
H83	H	1.178401	-0.317270	-0.135802
H84	H	1.500569	-0.448936	0.243305
O85	O	1.278846	-0.437849	0.117836
C86	C	1.198169	-0.552299	0.246822
C87	C	1.271954	-0.525353	0.112805
H88	H	1.192550	-0.623044	0.242783
H89	H	1.248475	-0.535680	0.351409
H90	H	1.098769	-0.518101	0.245434
H91	H	1.371360	-0.559535	0.114051
H92	H	1.221549	-0.541955	0.008277
H93	H	1.292840	-0.289697	0.099974
O94	O	1.670161	-0.468218	0.147076
C95	C	1.820358	-0.560945	0.283127
C96	C	1.684190	-0.518132	0.274491
H97	H	1.831751	-0.601296	0.386150
H98	H	1.841203	-0.602304	0.182540
H99	H	1.888960	-0.510874	0.287127
H100	H	1.615500	-0.568146	0.270537
H101	H	1.663450	-0.476755	0.375075
H102	H	1.655713	-0.318971	0.144382
H103	H	1.506365	-0.305584	0.242723
H104	H	1.503268	-0.306776	-0.242443
O105	O	1.651872	0.011918	0.349178
C106	C	1.821326	-0.099947	0.365363
C107	C	1.727385	-0.037855	0.449626
H108	H	1.882420	-0.140193	0.446539
H109	H	1.767171	-0.142173	0.293633
H110	H	1.883993	-0.063395	0.293519
H111	H	1.664694	-0.074338	0.521549
H112	H	1.781618	0.004370	0.521264
H113	H	1.654054	-0.461856	-0.138627
H114	H	1.638432	0.020865	0.639175
