data_functionalizedCrystal
_audit_creation_method	'MofGen! by Chris Wilmer'
_symmetry_space_group_name_H-M	'P1'
_symmetry_Int_Tables_number	1
_symmetry_cell_setting	triclinic
loop_
_symmetry_equiv_pos_as_xyz
  x,y,z
_cell_length_a	13.897449
_cell_length_b	12.759399
_cell_length_c	12.759393
_cell_angle_alpha	90.030906
_cell_angle_beta	89.978412
_cell_angle_gamma	89.983604
loop_
_atom_site_label
_atom_site_type_symbol
_atom_site_fract_x
_atom_site_fract_y
_atom_site_fract_z
Zn1	Zn	1.474728	0.418180	-0.594035
Zn2	Zn	1.474627	0.593895	-0.418354
Zn3	Zn	1.313415	0.418235	-0.418369
Zn4	Zn	1.313406	0.593821	-0.593989
O5	O	1.394044	0.506033	-0.506187
O6	O	1.609696	0.441497	-0.570744
O7	O	1.453203	0.570648	-0.271335
O8	O	1.334859	0.271206	-0.441696
O9	O	1.609622	0.570594	-0.441672
O10	O	1.453375	0.271166	-0.570758
O11	O	1.334761	0.441591	-0.271345
O12	O	1.178432	0.441519	-0.441652
O13	O	1.334845	0.570468	-0.741017
O14	O	1.178426	0.570521	-0.570680
O15	O	1.453367	0.441425	-0.741050
O16	O	1.453195	0.740906	-0.441627
O17	O	1.334746	0.740852	-0.570666
C18	C	1.393985	0.779000	-0.506163
C19	C	1.394048	0.895777	-0.506188
C20	C	1.143430	0.506019	-0.506163
C21	C	1.036216	0.506038	-0.506178
C22	C	1.394116	0.505932	-0.780220
C23	C	1.394147	0.505889	-0.896997
C24	C	0.839921	0.506042	-0.506205
C25	C	0.949153	0.506036	-0.506187
C26	C	1.645637	0.506047	-0.506212
C27	C	1.752851	0.506054	-0.506222
C28	C	1.394130	0.231999	-0.506234
C29	C	1.394166	0.115223	-0.506254
C30	C	1.455794	0.950632	-0.439074
C31	C	1.455856	1.060356	-0.439109
C32	C	1.332417	1.060360	-0.573375
C33	C	1.332361	0.950638	-0.573345
C34	C	1.455866	0.438685	-0.951878
C35	C	1.455882	0.438640	-1.061602
C36	C	1.332458	0.573011	-1.061554
C37	C	1.332437	0.573050	-0.951832
C38	C	1.394028	0.506057	-0.233219
C39	C	1.394184	0.505804	-0.116443
H40	H	1.506025	0.905967	-0.384392
H41	H	1.506112	0.383996	-0.907235
Br42	Br	1.248660	0.664252	-0.877343
H43	H	1.282079	0.905971	-0.628002
Br44	Br	1.539655	0.347439	-1.136081
H45	H	1.282218	0.627693	-1.106215
H46	H	1.282192	1.105041	-0.628050
Br47	Br	1.539664	1.134799	-0.348028
