data_functionalizedCrystal
_audit_creation_method	'MofGen! by Chris Wilmer'
_symmetry_space_group_name_H-M	'P1'
_symmetry_Int_Tables_number	1
_symmetry_cell_setting	triclinic
loop_
_symmetry_equiv_pos_as_xyz
  x,y,z
_cell_length_a	15.297475
_cell_length_b	15.297327
_cell_length_c	15.298259
_cell_angle_alpha	88.343348
_cell_angle_beta	88.370891
_cell_angle_gamma	91.625546
loop_
_atom_site_label
_atom_site_type_symbol
_atom_site_fract_x
_atom_site_fract_y
_atom_site_fract_z
Zn1	Zn	1.169549	-0.425823	-0.785809
Zn2	Zn	1.161139	-0.596500	-0.663014
Zn3	Zn	1.046767	-0.434114	-0.615184
Zn4	Zn	0.998847	-0.548496	-0.777488
O5	O	1.094075	-0.501233	-0.710374
O6	O	1.287737	-0.465083	-0.793019
O7	O	1.162502	-0.598519	-0.537354
O8	O	1.086628	-0.313716	-0.621283
O9	O	1.281559	-0.590479	-0.702802
O10	O	1.176836	-0.307624	-0.746641
O11	O	1.078474	-0.479215	-0.502214
O12	O	0.921106	-0.432668	-0.613215
O13	O	1.004956	-0.508664	-0.897906
O14	O	0.885899	-0.516704	-0.732458
O15	O	1.130370	-0.418536	-0.904020
O16	O	1.116036	-0.709431	-0.694733
O17	O	0.996801	-0.674163	-0.778837
C18	C	0.872568	-0.470377	-0.666744
C19	C	0.777800	-0.457194	-0.648102
C20	C	0.437417	-0.595466	-0.843613
C21	C	0.526455	-0.607859	-0.861126
C22	C	0.589296	-0.570194	-0.807872
C23	C	0.563089	-0.520133	-0.737101
C24	C	0.474041	-0.507744	-0.719581
C25	C	0.625920	-0.482472	-0.683841
C26	C	0.599713	-0.432411	-0.613069
C27	C	0.510673	-0.420023	-0.595554
C28	C	0.447833	-0.457689	-0.648808
C29	C	0.714968	-0.494861	-0.701360
C30	C	0.751592	-0.407139	-0.577329
C31	C	0.662553	-0.394745	-0.559815
C32	C	1.050327	-0.722729	-0.741095
C33	C	1.031685	-0.817491	-0.754282
C34	C	1.227622	-1.157929	-0.616486
C35	C	1.245137	-1.068897	-0.604092
C36	C	1.191776	-1.006041	-0.641638
C37	C	1.120896	-1.032226	-0.691581
C38	C	1.103375	-1.121268	-0.703971
C39	C	1.067529	-0.969380	-0.729123
C40	C	0.996649	-0.995565	-0.779066
C41	C	0.979132	-1.084599	-0.791454
C42	C	1.032493	-1.147454	-0.753907
C43	C	1.085050	-0.880338	-0.716734
C44	C	0.960803	-0.843677	-0.804219
C45	C	0.943287	-0.932710	-0.816613
C46	C	1.316447	-0.532210	-0.754174
C47	C	1.411209	-0.545411	-0.772839
C48	C	1.063256	-0.457320	-0.932765
C49	C	1.050122	-0.438607	-1.027535
C50	C	1.138015	-0.278873	-0.679555
C51	C	1.156740	-0.184116	-0.666422
C52	C	1.188100	-0.634327	-1.367852
C53	C	1.200434	-0.651914	-1.278811
C54	C	1.162857	-0.598588	-1.215988
C55	C	1.112944	-0.527673	-1.242214
C56	C	1.100603	-0.510089	-1.331264
C57	C	1.075360	-0.474350	-1.179399
C58	C	1.025447	-0.403436	-1.205625
C59	C	1.013109	-0.385854	-1.294667
C60	C	1.050685	-0.439179	-1.357490
C61	C	1.087701	-0.491935	-1.090350
C62	C	1.000205	-0.367697	-1.053761
C63	C	0.987871	-0.350110	-1.142802
C64	C	1.124836	-0.544921	-0.488849
C65	C	1.138182	-0.563417	-0.394078
H66	H	0.641202	-0.353985	-0.502192
N67	N	0.685333	-0.583546	-0.826761
H68	H	0.711807	-0.613657	-0.774623
H69	H	0.692331	-0.620947	-0.879699
H70	H	0.547786	-0.648621	-0.918747
N71	N	0.934025	-0.273635	-1.171096
H72	H	0.912090	-0.242519	-1.117792
H73	H	0.971407	-0.231724	-1.209410
N74	N	1.210675	-0.910014	-0.628275
H75	H	1.222424	-0.879158	-0.686866
H76	H	1.158570	-0.883652	-0.598036
H77	H	0.921408	-1.105916	-0.832108
H78	H	0.885576	-0.954043	-0.857276
H79	H	0.917350	-0.792499	-0.834790
N80	N	1.228609	-0.691847	-1.435606
H81	H	1.213211	-0.669949	-1.495993
H82	H	1.294278	-0.690144	-1.430207
H83	H	0.375329	-0.447599	-0.634554
H84	H	1.128347	-0.549670	-1.069006
H85	H	1.302847	-1.047580	-0.563428
N86	N	1.013599	-1.243486	-0.767269
H87	H	0.960597	-1.250540	-0.804600
H88	H	1.065731	-1.269854	-0.797453
N89	N	1.176161	-0.617551	-1.119950
H90	H	1.213484	-0.670564	-1.112868
H91	H	1.206337	-0.565442	-1.093546
N92	N	1.037375	-0.420211	-1.453529
H93	H	1.095984	-0.408454	-1.484326
H94	H	1.007146	-0.472298	-1.479921
N95	N	1.254266	-0.728394	-1.250528
H96	H	1.315651	-0.720580	-1.276186
H97	H	1.256311	-0.731404	-1.184585
N98	N	0.959669	-0.310169	-0.986020
H99	H	0.918434	-0.346602	-0.946092
H100	H	1.007294	-0.282791	-0.950488
N101	N	0.743223	-0.548848	-0.777691
H102	H	0.781518	-0.511596	-0.819735
H103	H	0.777142	-0.600290	-0.755644
H104	H	0.972457	-0.328117	-1.316016
N105	N	1.285154	-1.225729	-0.575985
H106	H	1.312567	-1.261280	-0.623572
H107	H	1.332669	-1.195577	-0.542457
N108	N	0.369643	-0.636097	-0.901038
H109	H	0.309260	-0.620654	-0.879197
H110	H	0.379370	-0.613067	-0.963193
H111	H	1.142761	-0.859026	-0.676070
H112	H	0.489339	-0.379271	-0.537919
H113	H	0.802757	-0.376470	-0.533963
