data_functionalizedCrystal
_audit_creation_method	'MofGen! by Chris Wilmer'
_symmetry_space_group_name_H-M	'P1'
_symmetry_Int_Tables_number	1
_symmetry_cell_setting	triclinic
loop_
_symmetry_equiv_pos_as_xyz
  x,y,z
_cell_length_a	10.540514
_cell_length_b	9.616153
_cell_length_c	11.026607
_cell_angle_alpha	90.000475
_cell_angle_beta	83.449412
_cell_angle_gamma	90.007401
loop_
_atom_site_label
_atom_site_type_symbol
_atom_site_fract_x
_atom_site_fract_y
_atom_site_fract_z
O1	O	1.723411	0.115659	-0.171200
O2	O	1.357537	0.115658	-0.187377
O3	O	1.510151	0.115653	-0.002375
O4	O	1.570797	0.115664	-0.356202
O5	O	1.510125	-0.115638	-0.002379
O6	O	1.357511	-0.115633	-0.187381
O7	O	1.723385	-0.115632	-0.171204
Zn8	Zn	1.540444	-0.152355	-0.179293
Zn9	Zn	1.540478	0.152381	-0.179288
O10	O	1.570771	-0.115628	-0.356206
C11	C	1.309956	0.000012	-0.186172
C12	C	1.168216	0.000012	-0.182562
C13	C	1.126492	0.000018	-0.314873
C14	C	0.979066	0.000550	-0.311162
C15	C	0.960131	0.131839	-0.110603
C16	C	1.107689	0.131943	-0.115252
C17	C	1.107633	-0.131088	-0.113298
C18	C	0.960375	-0.132813	-0.112022
N19	N	1.540430	-0.360330	-0.179296
C20	C	1.458403	-0.580697	-0.277927
C21	C	1.458713	-0.419530	-0.278297
C22	C	1.679474	-0.418778	-0.208146
C23	C	1.679063	-0.579996	-0.208845
C24	C	1.484663	-0.580245	-0.051490
C25	C	1.481798	-0.419018	-0.052319
C26	C	1.770966	0.000017	-0.172409
C27	C	1.912706	0.000027	-0.176019
C28	C	1.498949	0.000009	0.042930
C29	C	1.465597	0.000014	0.177930
N30	N	1.540500	0.360356	-0.179276
C31	C	1.581972	0.000020	-0.401511
C32	C	1.615325	0.000024	-0.536511
C33	C	1.557689	0.000017	0.250945
C34	C	1.523220	0.000022	0.390475
H35	H	0.948566	0.095598	-0.362391
H36	H	1.743601	-0.618986	-0.139886
F37	F	1.158277	0.261228	-0.177695
F38	F	1.142615	0.139287	0.011782
H39	H	1.356293	-0.380016	-0.260939
F40	F	0.902549	0.137761	0.019136
H41	H	1.719694	0.000129	0.422710
F42	F	1.762799	-0.368658	-0.116793
H43	H	1.418851	0.000030	0.431256
H44	H	0.927357	0.230311	-0.155440
H45	H	1.361235	0.000023	0.218717
H46	H	1.383910	-0.620984	-0.024029
F47	F	0.938014	-0.122919	-0.378421
F48	F	1.141480	-0.132771	0.014255
H49	H	1.724562	-0.378384	-0.300321
H50	H	1.166778	-0.094492	-0.368549
F51	F	1.347913	-0.369093	-0.023733
H52	H	0.914612	-0.141168	-0.013516
F53	F	1.161393	-0.261719	-0.170867
H54	H	0.929840	-0.230330	-0.159828
F55	F	1.181152	0.123391	-0.384002
H56	H	1.355734	-0.619509	-0.260837
F57	F	1.508497	-0.633604	-0.401149
H58	H	1.497378	-0.380947	-0.373103
H59	H	1.723838	-0.617581	-0.302073
F60	F	1.551963	-0.366368	0.048246
H61	H	1.662050	0.000008	0.210158
F62	F	1.562470	-0.630068	0.044484
