data_functionalizedCrystal
_audit_creation_method	'MofGen! by Chris Wilmer'
_symmetry_space_group_name_H-M	'P1'
_symmetry_Int_Tables_number	1
_symmetry_cell_setting	triclinic
loop_
_symmetry_equiv_pos_as_xyz
  x,y,z
_cell_length_a	29.839134
_cell_length_b	29.839131
_cell_length_c	16.959447
_cell_angle_alpha	90.041568
_cell_angle_beta	90.027510
_cell_angle_gamma	90.027971
loop_
_atom_site_label
_atom_site_type_symbol
_atom_site_fract_x
_atom_site_fract_y
_atom_site_fract_z
Zn1	Zn	0.686753	-0.178931	0.447125
Zn2	Zn	1.186753	0.321069	0.947125
Zn3	Zn	0.686689	-0.254065	0.314920
Zn4	Zn	1.186689	0.245935	0.814920
Zn5	Zn	0.611632	-0.178940	0.314932
Zn6	Zn	1.111632	0.321060	0.814932
Zn7	Zn	0.611592	-0.254026	0.447029
Zn8	Zn	1.111592	0.245974	0.947029
O9	O	0.649166	-0.216490	0.381001
O10	O	1.149166	0.283510	0.881001
O11	O	0.749612	-0.188911	0.429623
O12	O	1.249612	0.311089	0.929623
O13	O	0.676723	-0.244119	0.204311
O14	O	1.176723	0.255881	0.704311
O15	O	0.621640	-0.116072	0.332513
O16	O	1.121640	0.383928	0.832513
O17	O	0.749565	-0.244111	0.332493
O18	O	1.249565	0.255889	0.832493
O19	O	0.676832	-0.116065	0.429634
O20	O	1.176832	0.383935	0.929634
O21	O	0.621578	-0.188925	0.204320
O22	O	1.121578	0.311075	0.704320
O23	O	0.548759	-0.188887	0.332419
O24	O	1.048759	0.311113	0.832419
O25	O	0.621572	-0.244044	0.557652
O26	O	1.121572	0.255956	1.057652
O27	O	0.548730	-0.244053	0.429470
O28	O	1.048730	0.255947	0.929470
O29	O	0.676793	-0.188873	0.557723
O30	O	1.176793	0.311127	1.057723
O31	O	0.676684	-0.316927	0.332400
O32	O	1.176684	0.183073	0.832400
O33	O	0.621510	-0.316898	0.429459
O34	O	1.121510	0.183102	0.929459
C35	C	0.532444	-0.216467	0.380936
C36	C	1.032444	0.283533	0.880936
C37	C	0.482509	-0.216468	0.380927
C38	C	0.982509	0.283532	0.880927
C39	C	0.649098	-0.333213	0.380935
C40	C	1.149098	0.166787	0.880935
C41	C	0.649110	-0.383147	0.380933
C42	C	1.149110	0.116853	0.880933
C43	C	0.125925	-0.187723	0.330570
C44	C	0.625925	0.312277	0.830570
C45	C	0.313598	-0.187711	0.330522
C46	C	0.813598	0.312289	0.830522
O47	O	0.337865	-0.163233	0.287634
O48	O	0.837865	0.336767	0.787634
N49	N	0.337064	-0.216475	0.380967
N50	N	0.837064	0.283525	0.880967
C51	C	0.313609	-0.245243	0.431430
C52	C	0.813609	0.254757	0.931430
O53	O	0.337875	-0.269705	0.474341
O54	O	0.837875	0.230295	0.974341
C55	C	0.125937	-0.245253	0.431482
C56	C	0.625937	0.254747	0.931482
C57	C	0.102473	-0.216490	0.381028
C58	C	0.602473	0.283510	0.881028
C59	C	0.102461	-0.158962	0.280122
C60	C	0.602461	0.341038	0.780122
C61	C	0.055546	-0.158968	0.280131
C62	C	0.555546	0.341032	0.780131
C63	C	0.032094	-0.187734	0.330589
C64	C	0.532094	0.312266	0.830589
C65	C	0.055558	-0.216495	0.381038
C66	C	0.555558	0.283505	0.881038
C67	C	0.102483	-0.274018	0.481949
C68	C	0.602483	0.225982	0.981949
C69	C	0.055562	-0.274017	0.481958
C70	C	0.555562	0.225983	0.981958
C71	C	0.032098	-0.245254	0.431505
C72	C	0.532098	0.254746	0.931505
C73	C	-0.014809	-0.245266	0.431505
C74	C	0.485191	0.254734	0.931505
N75	N	-0.038275	-0.216502	0.381061
N76	N	0.461725	0.283498	0.881061
C77	C	-0.014824	-0.187736	0.330603
C78	C	0.485176	0.312264	0.830603
C79	C	0.412140	-0.245236	0.431399
C80	C	0.912140	0.254764	0.931399
C81	C	0.459058	-0.245234	0.431385
C82	C	0.959058	0.254766	0.931385
C83	C	0.459043	-0.187701	0.330478
C84	C	0.959043	0.312299	0.830478
C85	C	0.412125	-0.187706	0.330488
C86	C	0.912125	0.312294	0.830488
C87	C	0.388674	-0.216472	0.380954
C88	C	0.888674	0.283528	0.880954
C89	C	-0.113350	-0.187749	0.330626
C90	C	0.386650	0.312251	0.830626
C91	C	-0.160269	-0.187758	0.330638
C92	C	0.339731	0.312242	0.830638
C93	C	-0.160251	-0.245289	0.431547
C94	C	0.339749	0.254711	0.931547
C95	C	-0.113335	-0.245282	0.431533
C96	C	0.386665	0.254718	0.931533
C97	C	-0.089886	-0.216508	0.381070
C98	C	0.410114	0.283492	0.881070
O99	O	-0.039105	-0.269727	0.474377
O100	O	0.460895	0.230273	0.974377
O101	O	-0.039097	-0.163270	0.287711
O102	O	0.460903	0.336730	0.787711
C103	C	0.172841	-0.187718	0.330561
C104	C	0.672841	0.312282	0.830561
C105	C	0.196304	-0.216479	0.381009
C106	C	0.696304	0.283521	0.881009
C107	C	0.172853	-0.245246	0.431467
C108	C	0.672853	0.254754	0.931467
C109	C	0.243222	-0.216477	0.380996
C110	C	0.743222	0.283523	0.880996
C111	C	0.266674	-0.187711	0.330538
C112	C	0.766674	0.312289	0.830538
C113	C	0.243208	-0.158947	0.280093
C114	C	0.743208	0.341053	0.780093
C115	C	0.196292	-0.158952	0.280103
C116	C	0.696292	0.341048	0.780103
C117	C	0.196319	-0.274010	0.481912
C118	C	0.696319	0.225990	0.981912
C119	C	0.243234	-0.274003	0.481897
C120	C	0.743234	0.225997	0.981897
C121	C	0.266686	-0.245236	0.431439
C122	C	0.766686	0.254764	0.931439
C123	C	0.677898	-0.692753	0.431645
C124	C	1.177898	-0.192753	0.931645
C125	C	0.677947	-0.880426	0.431692
C126	C	1.177947	-0.380426	0.931692
O127	O	0.702357	-0.904658	0.474760
O128	O	1.202357	-0.404658	0.974760
N129	N	0.649243	-0.903932	0.381089
N130	N	1.149243	-0.403932	0.881089
C131	C	0.620522	-0.880518	0.330474
C132	C	1.120522	-0.380518	0.830474
O133	O	0.596105	-0.904818	0.287440
O134	O	1.096105	-0.404818	0.787440
C135	C	0.620471	-0.692846	0.330431
C136	C	1.120471	-0.192846	0.830431
C137	C	0.649181	-0.669342	0.381032
C138	C	1.149181	-0.169342	0.881032
C139	C	0.706605	-0.669248	0.482242
C140	C	1.206605	-0.169248	0.982242
C141	C	0.706594	-0.622333	0.482226
C142	C	1.206594	-0.122333	0.982226
C143	C	0.677877	-0.598922	0.431614
C144	C	1.177877	-0.098922	0.931614
C145	C	0.649170	-0.622426	0.381017
C146	C	1.149170	-0.122426	0.881017
C147	C	0.591749	-0.669432	0.279821
C148	C	1.091749	-0.169432	0.779821
C149	C	0.591738	-0.622511	0.279816
C150	C	1.091738	-0.122511	0.779816
C151	C	0.620447	-0.599007	0.330417
C152	C	1.120447	-0.099007	0.830417
C153	C	0.620442	-0.552100	0.330389
C154	C	1.120442	-0.052100	0.830389
N155	N	0.649146	-0.528593	0.380992
N156	N	1.149146	-0.028593	0.880992
C157	C	0.677864	-0.552004	0.431604
C158	C	1.177864	-0.052004	0.931604
C159	C	0.620551	-0.979049	0.330499
C160	C	1.120551	-0.479049	0.830499
C161	C	0.620565	-1.025967	0.330509
C162	C	1.120565	-0.525967	0.830509
C163	C	0.677989	-1.025871	0.431728
C164	C	1.177989	-0.525871	0.931728
C165	C	0.677978	-0.978952	0.431714
C166	C	1.177978	-0.478952	0.931714
C167	C	0.649256	-0.955542	0.381102
C168	C	1.149256	-0.455542	0.881102
C169	C	0.677839	-0.453478	0.431568
C170	C	1.177839	0.046522	0.931568
C171	C	0.677827	-0.406558	0.431545
C172	C	1.177827	0.093442	0.931545
C173	C	0.620401	-0.406658	0.330330
C174	C	1.120401	0.093342	0.830330
C175	C	0.620415	-0.453574	0.330348
C176	C	1.120415	0.046426	0.830348
C177	C	0.649135	-0.476982	0.380974
C178	C	1.149135	0.023018	0.880974
O179	O	0.596041	-0.527838	0.287350
O180	O	1.096041	-0.027838	0.787350
O181	O	0.702270	-0.527696	0.474644
O182	O	1.202270	-0.027696	0.974644
C183	C	0.677909	-0.739668	0.431660
C184	C	1.177909	-0.239668	0.931660
C185	C	0.649202	-0.763172	0.381063
C186	C	1.149202	-0.263172	0.881063
C187	C	0.620485	-0.739761	0.330450
C188	C	1.120485	-0.239761	0.830450
C189	C	0.649216	-0.810090	0.381073
C190	C	1.149216	-0.310090	0.881073
C191	C	0.677933	-0.833501	0.431685
C192	C	1.177933	-0.333501	0.931685
C193	C	0.706637	-0.809994	0.482288
C194	C	1.206637	-0.309994	0.982288
C195	C	0.706627	-0.763079	0.482273
C196	C	1.206627	-0.263079	0.982273
C197	C	0.591781	-0.763268	0.279847
C198	C	1.091781	-0.263268	0.779847
C199	C	0.591794	-0.810184	0.279866
C200	C	1.091794	-0.310184	0.779866
C201	C	0.620511	-0.833595	0.330479
C202	C	1.120511	-0.333595	0.830479
C203	C	0.766345	-0.216514	0.381068
C204	C	1.266345	0.283486	0.881068
C205	C	0.816279	-0.216524	0.381096
C206	C	1.316279	0.283476	0.881096
C207	C	0.649185	-0.216453	0.587170
C208	C	1.149185	0.283547	1.087170
C209	C	0.649193	-0.216437	0.675026
C210	C	1.149193	0.283563	1.175026
C211	C	0.649247	-0.099312	0.381086
C212	C	1.149247	0.400688	0.881086
C213	C	0.649282	-0.049378	0.381122
C214	C	1.149282	0.450622	0.881122
C215	C	0.649174	-0.216495	0.175635
C216	C	1.149174	0.283505	0.675635
C217	C	0.649253	-0.216384	0.087779
C218	C	1.149253	0.283616	0.587779
C219	C	0.620496	-0.245115	1.046468
C220	C	1.120496	0.254885	1.546468
C221	C	0.677998	-0.187665	1.046537
C222	C	1.177998	0.312335	1.546537
C223	C	0.677986	-0.187674	0.963991
C224	C	1.177986	0.312326	1.463991
C225	C	0.649229	-0.216405	0.922680
C226	C	1.149229	0.283595	1.422680
C227	C	0.620484	-0.245127	0.963914
C228	C	1.120484	0.254873	1.463914
C229	C	0.706733	-0.158957	0.922750
C230	C	1.206733	0.341043	1.422750
C231	C	0.706723	-0.158965	0.840199
C232	C	1.206723	0.341035	1.340199
C233	C	0.677963	-0.187694	0.798886
C234	C	1.177963	0.312306	1.298886
C235	C	0.649217	-0.216416	0.840126
C236	C	1.149217	0.283584	1.340126
C237	C	0.620460	-0.245147	0.798815
C238	C	1.120460	0.254853	1.298815
C239	C	0.591711	-0.273868	0.840053
C240	C	1.091711	0.226132	1.340053
C241	C	0.591725	-0.273855	0.922602
C242	C	1.091725	0.226145	1.422602
C243	C	0.677950	-0.187706	0.716338
C244	C	1.177950	0.312294	1.216338
C245	C	0.620448	-0.245159	0.716261
C246	C	1.120448	0.254841	1.216261
H247	H	-0.179371	-0.164335	0.289550
H248	H	0.320629	0.335665	0.789550
O249	O	0.030268	-0.305073	0.536338
O250	O	0.530268	0.194927	1.036338
H251	H	0.054469	-0.325084	0.571392
H252	H	0.554469	0.174916	1.071392
H253	H	0.393051	-0.268662	0.472496
H254	H	0.893051	0.231338	0.972496
H255	H	-0.094230	-0.268706	0.472610
H256	H	0.405770	0.231294	0.972610
O257	O	0.589489	-0.276089	1.090944
O258	O	1.089489	0.223911	1.590944
H259	H	0.569489	-0.296065	1.048346
H260	H	1.069489	0.203935	1.548346
O261	O	0.560721	-0.304831	0.967084
O262	O	1.060721	0.195169	1.467084
H263	H	0.540719	-0.324808	0.924492
H264	H	1.040719	0.175192	1.424492
H265	H	0.701223	-0.472532	0.472797
H266	H	1.201223	0.027468	0.972797
H267	H	0.568299	-0.297262	0.806407
H268	H	1.068299	0.202738	1.306407
H269	H	0.730148	-0.135568	0.956391
H270	H	1.230148	0.364432	1.456391
O271	O	0.709001	-0.156665	1.091087
O272	O	1.209001	0.343335	1.591087
H273	H	0.704174	-0.161476	1.155417
H274	H	1.204174	0.338524	1.655417
O275	O	0.737558	-0.596987	0.536811
O276	O	1.237558	-0.096987	1.036811
H277	H	0.732733	-0.560428	0.528304
H278	H	1.232733	-0.060428	1.028304
H279	H	-0.094263	-0.164317	0.289538
H280	H	0.405737	0.335683	0.789538
O281	O	0.268512	-0.127923	0.225671
O282	O	0.768512	0.372077	0.725671
H283	H	0.259489	-0.135589	0.163608
H284	H	0.759489	0.364411	0.663608
O285	O	0.708956	-0.156734	0.671864
O286	O	1.208956	0.343266	1.171864
H287	H	0.731794	-0.176853	0.634252
H288	H	1.231794	0.323147	1.134252
O289	O	0.589606	-1.051313	0.275918
O290	O	1.089606	-0.551313	0.775918
H291	H	0.594439	-1.087872	0.284415
H292	H	1.094439	-0.587872	0.784415
H293	H	0.597021	-0.387590	0.289119
H294	H	1.097021	0.112410	0.789119
H295	H	0.568395	-0.744211	0.238633
H296	H	1.068395	-0.244211	0.738633
H297	H	0.730132	-0.135579	0.806630
H298	H	1.230132	0.364421	1.306630
H299	H	0.121579	-0.297440	0.523033
H300	H	0.621579	0.202560	1.023033
H301	H	0.036446	-0.135546	0.239047
H302	H	0.536446	0.364454	0.739047
O303	O	0.708941	-0.953603	0.486293
O304	O	1.208941	-0.453603	0.986293
H305	H	0.731807	-0.932229	0.450955
H306	H	1.231807	-0.432229	0.950955
O307	O	0.127745	-0.127935	0.225683
O308	O	0.627745	0.372065	0.725683
H309	H	0.149143	-0.105091	0.261115
H310	H	0.649143	0.394909	0.761115
H311	H	0.568416	-0.829317	0.238654
H312	H	1.068416	-0.329317	0.738654
O313	O	0.268537	-0.305025	0.536328
O314	O	0.768537	0.194975	1.036328
H315	H	0.305103	-0.300193	0.527851
H316	H	0.805103	0.199807	1.027851
O317	O	0.708959	-1.051125	0.486329
O318	O	1.208959	-0.551125	0.986329
H319	H	0.704139	-1.087697	0.477835
H320	H	1.204139	-0.587697	0.977835
H321	H	0.730022	-0.829064	0.523496
H322	H	1.230022	-0.329064	1.023496
H323	H	0.597162	-0.959991	0.289283
H324	H	1.097162	-0.459991	0.789283
H325	H	0.177229	-0.297435	0.523002
H326	H	0.677229	0.202565	1.023002
H327	H	0.393024	-0.164283	0.289407
H328	H	0.893024	0.335717	0.789407
O329	O	0.484341	-0.156670	0.276059
O330	O	0.984341	0.343330	0.776059
H331	H	0.520907	-0.161501	0.284536
H332	H	1.020907	0.338499	0.784536
H333	H	0.177192	-0.135530	0.239019
H334	H	0.677192	0.364470	0.739019
O335	O	0.484364	-0.276258	0.485799
O336	O	0.984364	0.223742	0.985799
H337	H	0.460169	-0.296256	0.520891
H338	H	0.960169	0.203744	1.020891
O339	O	0.708798	-0.381206	0.486114
O340	O	1.208798	0.118794	0.986114
H341	H	0.728767	-0.405371	0.521311
H342	H	1.228767	0.094629	1.021311
H343	H	0.568371	-0.688562	0.238616
H344	H	1.068371	-0.188562	0.738616
H345	H	-0.179353	-0.268711	0.472626
H346	H	0.320647	0.231289	0.972626
O347	O	0.589452	-0.478930	0.275773
O348	O	1.089452	0.021070	0.775773
H349	H	0.569480	-0.454766	0.240579
H350	H	1.069480	0.045234	0.740579
H351	H	0.729990	-0.688304	0.523461
H352	H	1.229990	-0.188304	1.023461
O353	O	0.560763	-0.597261	0.225220
O354	O	1.060763	-0.097261	0.725220
H355	H	0.540807	-0.621490	0.190035
H356	H	1.040807	-0.121490	0.690035
O357	O	0.589421	-0.276137	0.671704
O358	O	1.089421	0.223863	1.171704
H359	H	0.569433	-0.296103	0.714249
H360	H	1.069433	0.203897	1.214249
H361	H	0.730004	-0.743945	0.523477
H362	H	1.230004	-0.243945	1.023477
