data_functionalizedCrystal
_audit_creation_method	'MofGen! by Chris Wilmer'
_symmetry_space_group_name_H-M	'P1'
_symmetry_Int_Tables_number	1
_symmetry_cell_setting	triclinic
loop_
_symmetry_equiv_pos_as_xyz
  x,y,z
_cell_length_a	19.188931
_cell_length_b	19.188930
_cell_length_c	18.266242
_cell_angle_alpha	90.011475
_cell_angle_beta	89.992492
_cell_angle_gamma	96.855219
loop_
_atom_site_label
_atom_site_type_symbol
_atom_site_fract_x
_atom_site_fract_y
_atom_site_fract_z
O1	O	0.926149	-0.087169	-0.060863
O2	O	1.259483	0.246165	0.272471
O3	O	1.592816	0.579498	0.605804
O4	O	0.722838	-0.098903	-0.060871
O5	O	1.056171	0.234430	0.272462
O6	O	1.389505	0.567764	0.605796
O7	O	0.830361	0.008620	-0.060852
O8	O	1.163694	0.341953	0.272481
O9	O	1.497027	0.675286	0.605814
O10	O	0.818626	-0.194691	-0.060881
O11	O	1.151960	0.138642	0.272452
O12	O	1.485293	0.471975	0.605785
O13	O	0.830343	0.008625	0.060910
O14	O	1.163676	0.341959	0.394243
O15	O	1.497009	0.675292	0.727576
O16	O	0.722820	-0.098897	0.060891
O17	O	1.056153	0.234436	0.394224
O18	O	1.389486	0.567769	0.727558
O19	O	0.926131	-0.087163	0.060899
O20	O	1.259464	0.246170	0.394233
O21	O	1.592798	0.579503	0.727566
Zn22	Zn	0.824473	-0.093029	0.080227
Zn23	Zn	1.157806	0.240304	0.413561
Zn24	Zn	1.491139	0.573637	0.746894
Zn25	Zn	0.824496	-0.093037	-0.080199
Zn26	Zn	1.157830	0.240297	0.253134
Zn27	Zn	1.491163	0.573630	0.586467
O28	O	0.818608	-0.194686	0.060880
O29	O	1.151942	0.138647	0.394214
O30	O	1.485275	0.471981	0.727547
C31	C	0.696818	-0.098520	0.000009
C32	C	1.030151	0.234813	0.333342
C33	C	1.363485	0.568146	0.666676
C34	C	0.619313	-0.097380	0.000006
C35	C	0.952647	0.235954	0.333340
C36	C	1.285980	0.569287	0.666673
C37	C	0.829972	0.034634	0.000031
C38	C	1.163305	0.367967	0.333364
C39	C	1.496638	0.701300	0.666697
C40	C	0.828831	0.112138	0.000037
C41	C	1.162164	0.445471	0.333370
C42	C	1.495498	0.778805	0.666704
C43	C	0.952151	-0.087546	0.000017
C44	C	1.285484	0.245787	0.333351
C45	C	1.618818	0.579121	0.666684
C46	C	1.029656	-0.088687	0.000015
C47	C	1.362989	0.244647	0.333349
C48	C	1.696322	0.577980	0.666682
C49	C	1.074580	-0.025596	0.000018
C50	C	1.407913	0.307738	0.333351
C51	C	1.741246	0.641071	0.666685
C52	C	1.147403	-0.026667	0.000022
C53	C	1.480737	0.306666	0.333355
C54	C	1.814070	0.639999	0.666689
C55	C	1.175300	-0.090834	0.000009
C56	C	1.508633	0.242500	0.333342
C57	C	1.841967	0.575833	0.666676
C58	C	1.130366	-0.153933	0.000010
C59	C	1.463700	0.179401	0.333344
C60	C	1.797033	0.512734	0.666677
C61	C	1.057544	-0.152859	0.000014
C62	C	1.390877	0.180474	0.333347
C63	C	1.724211	0.513807	0.666680
N64	N	1.283301	-0.139883	-0.041448
N65	N	1.616634	0.193451	0.291885
N66	N	1.949968	0.526784	0.625219
N67	N	1.352479	-0.140898	-0.041453
N68	N	1.685813	0.192435	0.291881
N69	N	2.019146	0.525769	0.625214
C70	C	1.394709	-0.094072	0.000001
C71	C	1.728042	0.239262	0.333335
C72	C	2.061375	0.572595	0.666668
N73	N	1.365147	-0.046181	0.041451
N74	N	1.698481	0.287152	0.374784
N75	N	2.031814	0.620486	0.708117
N76	N	1.295963	-0.045163	0.041452
N77	N	1.629296	0.288170	0.374785
N78	N	1.962629	0.621503	0.708118
C79	C	1.254262	-0.092005	0.000006
C80	C	1.587596	0.241329	0.333339
C81	C	1.920929	0.574662	0.666673
C82	C	1.518597	-0.032139	0.000010
C83	C	1.851930	0.301195	0.333343
C84	C	2.185264	0.634528	0.666676
C85	C	1.591422	-0.033213	0.000018
C86	C	1.924755	0.300120	0.333352
C87	C	2.258088	0.633454	0.666685
C88	C	1.574383	-0.160480	-0.000001
C89	C	1.907716	0.172853	0.333333
C90	C	2.241050	0.506187	0.666666
C91	C	1.501560	-0.159404	-0.000002
C92	C	1.834893	0.173930	0.333331
C93	C	2.168226	0.507263	0.666665
C94	C	1.473671	-0.095231	-0.000000
C95	C	1.807005	0.238102	0.333333
C96	C	2.140338	0.571436	0.666666
C97	C	0.818997	-0.220700	-0.000004
C98	C	1.152331	0.112634	0.333329
C99	C	1.485664	0.445967	0.666662
C100	C	0.820138	-0.298204	-0.000015
C101	C	1.153471	0.035129	0.333318
C102	C	1.486805	0.368462	0.666651
N103	N	0.824461	-0.093024	0.189714
N104	N	1.157795	0.240309	0.523048
N105	N	1.491128	0.573643	0.856381
C106	C	0.891922	0.157062	0.000043
C107	C	1.225255	0.490395	0.333376
C108	C	1.558588	0.823729	0.666710
C109	C	0.890850	0.229886	0.000031
C110	C	1.224183	0.563219	0.333365
C111	C	1.557517	0.896552	0.666698
C112	C	0.826684	0.257782	0.000028
C113	C	1.160017	0.591116	0.333361
C114	C	1.493351	0.924449	0.666695
C115	C	0.763585	0.212849	0.000018
C116	C	1.096918	0.546182	0.333351
C117	C	1.430252	0.879515	0.666685
C118	C	0.764658	0.140026	0.000022
C119	C	1.097992	0.473360	0.333356
C120	C	1.431325	0.806693	0.666689
N121	N	0.777630	0.365789	0.041464
N122	N	1.110964	0.699123	0.374797
N123	N	1.444297	1.032456	0.708131
N124	N	0.776615	0.434968	0.041461
N125	N	1.109948	0.768301	0.374795
N126	N	1.443282	1.101635	0.708128
C127	C	0.823446	0.477191	0.000013
C128	C	1.156779	0.810524	0.333346
C129	C	1.490113	1.143858	0.666680
N130	N	0.871341	0.447624	-0.041423
N131	N	1.204674	0.780957	0.291910
N132	N	1.538008	1.114290	0.625244
N133	N	0.872359	0.378439	-0.041417
N134	N	1.205692	0.711772	0.291916
N135	N	1.539025	1.045106	0.625249
C136	C	0.825513	0.336745	0.000023
C137	C	1.158846	0.670078	0.333356
C138	C	1.492180	1.003412	0.666689
C139	C	0.885379	0.601079	0.000005
C140	C	1.218712	0.934413	0.333339
C141	C	1.552046	1.267746	0.666672
C142	C	0.884305	0.673904	-0.000011
C143	C	1.217638	1.007238	0.333322
C144	C	1.550971	1.340571	0.666656
C145	C	0.757038	0.656865	-0.000017
C146	C	1.090371	0.990199	0.333316
C147	C	1.423704	1.323532	0.666650
C148	C	0.758114	0.584042	-0.000008
C149	C	1.091447	0.917376	0.333325
C150	C	1.424781	1.250709	0.666659
C151	C	0.822286	0.556154	0.000007
C152	C	1.155620	0.889487	0.333340
C153	C	1.488953	1.222821	0.666673
N154	N	0.824513	-0.093037	-0.189686
N155	N	1.157847	0.240297	0.143647
N156	N	1.491180	0.573630	0.476980
C157	C	0.872088	-0.045436	0.228031
C158	C	1.205421	0.287897	0.561365
C159	C	1.538755	0.621230	0.894698
C160	C	0.872092	-0.045433	0.304676
C161	C	1.205426	0.287900	0.638010
C162	C	1.538759	0.621234	0.971343
C163	C	0.824477	-0.093030	0.343001
C164	C	1.157810	0.240304	0.676335
C165	C	1.491143	0.573637	1.009668
C166	C	0.776841	-0.140621	0.304675
C167	C	1.110175	0.192712	0.638008
C168	C	1.443508	0.526046	0.971341
C169	C	0.776834	-0.140618	0.228031
C170	C	1.110167	0.192715	0.561365
C171	C	1.443500	0.526048	0.894698
N172	N	0.815401	-0.154837	0.463325
N173	N	1.148735	0.178496	0.796658
N174	N	1.482068	0.511830	1.129991
N175	N	0.815413	-0.154837	0.536133
N176	N	1.148746	0.178496	0.869466
N177	N	1.482079	0.511829	1.202799
C178	C	0.824496	-0.093040	0.573924
C179	C	1.157830	0.240294	0.907257
C180	C	1.491163	0.573627	1.240590
N181	N	0.833582	-0.031239	0.536156
N182	N	1.166915	0.302094	0.869489
N183	N	1.500248	0.635427	1.202823
N184	N	0.833574	-0.031240	0.463341
N185	N	1.166907	0.302094	0.796675
N186	N	1.500240	0.635427	1.130008
C187	C	0.824480	-0.093038	0.426108
C188	C	1.157813	0.240296	0.759441
C189	C	1.491146	0.573629	1.092775
C190	C	0.872130	-0.045444	0.695348
C191	C	1.205464	0.287889	1.028681
C192	C	1.538797	0.621222	1.362015
C193	C	0.872130	-0.045440	0.771994
C194	C	1.205463	0.287893	1.105328
C195	C	1.538797	0.621226	1.438661
C196	C	0.776882	-0.140634	0.771991
C197	C	1.110216	0.192699	1.105325
C198	C	1.443549	0.526032	1.438658
C199	C	0.776879	-0.140632	0.695346
C200	C	1.110213	0.192701	1.028680
C201	C	1.443546	0.526034	1.362013
C202	C	0.824507	-0.093038	0.657029
C203	C	1.157840	0.240295	0.990363
C204	C	1.491174	0.573628	1.323696
H205	H	1.183987	0.024710	0.000022
H206	H	1.517321	0.358044	0.333355
H207	H	1.850654	0.691377	0.666689
H208	H	1.153084	-0.206177	0.000002
H209	H	1.486418	0.127156	0.333335
H210	H	1.819751	0.460489	0.666668
O211	O	0.923471	0.005916	0.654017
O212	O	1.256805	0.339249	0.987351
O213	O	1.590138	0.672582	1.320684
H214	H	0.915464	-0.002075	0.594284
H215	H	1.248797	0.331258	0.927618
H216	H	1.582131	0.664591	1.260951
H217	H	0.910877	-0.006680	0.335880
H218	H	1.244210	0.326654	0.669213
H219	H	1.577544	0.659987	1.002547
H220	H	1.051878	0.026658	0.000022
H221	H	1.385211	0.359992	0.333355
H222	H	1.718545	0.693325	0.666689
O223	O	0.923452	0.005905	0.186710
O224	O	1.256785	0.339238	0.520043
O225	O	1.590118	0.672571	0.853376
H226	H	0.957294	-0.023399	0.151778
H227	H	1.290627	0.309934	0.485111
H228	H	1.623961	0.643267	0.818445
O229	O	1.009083	-0.220909	0.000005
O230	O	1.342416	0.112424	0.333339
O231	O	1.675749	0.445757	0.666672
H232	H	1.040712	-0.265710	-0.000006
H233	H	1.374045	0.067623	0.333328
H234	H	1.707379	0.400956	0.666661
O235	O	0.696605	0.091571	0.000021
O236	O	1.029938	0.424904	0.333354
O237	O	1.363271	0.758237	0.666687
H238	H	0.708132	0.036247	0.000022
H239	H	1.041465	0.369580	0.333356
H240	H	1.374798	0.702914	0.666689
H241	H	0.944176	0.134360	0.000052
H242	H	1.277509	0.467694	0.333386
H243	H	1.610843	0.801027	0.666719
H244	H	0.738110	-0.179386	0.803195
H245	H	1.071444	0.153948	1.136528
H246	H	1.404777	0.487281	1.469861
H247	H	1.495889	0.020115	0.000014
H248	H	1.829223	0.353448	0.333347
H249	H	2.162556	0.686781	0.666681
O250	O	0.725486	-0.191963	0.346004
O251	O	1.058820	0.141370	0.679337
O252	O	1.392153	0.474704	1.012671
H253	H	0.733498	-0.183977	0.405737
H254	H	1.066832	0.149357	0.739071
H255	H	1.400165	0.482690	1.072404
O256	O	0.725519	-0.191967	0.654011
O257	O	1.058852	0.141366	0.987344
O258	O	1.392185	0.474699	1.320677
H259	H	0.692412	-0.225069	0.693534
H260	H	1.025746	0.108264	1.026867
H261	H	1.359079	0.441597	1.360201
H262	H	1.464981	-0.210779	-0.000009
H263	H	1.798315	0.122554	0.333324
H264	H	2.131648	0.455887	0.666658
O265	O	1.639882	0.034838	0.000026
O266	O	1.973215	0.368171	0.333360
O267	O	2.306548	0.701505	0.666693
H268	H	1.608251	0.079638	0.000023
H269	H	1.941585	0.412971	0.333356
H270	H	2.274918	0.746305	0.666689
O271	O	0.954590	0.570994	0.000004
O272	O	1.287924	0.904327	0.333338
O273	O	1.621257	1.237660	0.666671
H274	H	0.984896	0.589073	0.049627
H275	H	1.318230	0.922407	0.382960
H276	H	1.651563	1.255740	0.716293
H277	H	0.935683	0.710481	-0.000010
H278	H	1.269016	1.043815	0.333323
H279	H	1.602350	1.377148	0.666657
O280	O	1.604459	-0.229691	-0.000016
O281	O	1.937792	0.103642	0.333317
O282	O	2.271126	0.436976	0.666651
H283	H	1.662645	-0.219840	-0.000022
H284	H	1.995978	0.113494	0.333312
H285	H	2.329311	0.446827	0.666645
H286	H	0.704792	0.679578	-0.000023
H287	H	1.038126	1.012911	0.333310
H288	H	1.371459	1.346245	0.666644
H289	H	0.711340	0.235567	0.000014
H290	H	1.044674	0.568900	0.333347
H291	H	1.378007	0.902233	0.666680
H292	H	0.910911	-0.006685	0.803193
H293	H	1.244245	0.326649	1.136526
H294	H	1.577578	0.659982	1.469859
H295	H	0.942228	0.266470	0.000033
H296	H	1.275561	0.599803	0.333367
H297	H	1.608895	0.933137	0.666700
H298	H	0.738049	-0.179371	0.196833
H299	H	1.071383	0.153963	0.530166
H300	H	1.404716	0.487296	0.863500
H301	H	0.706738	0.547464	-0.000009
H302	H	1.040072	0.880797	0.333325
H303	H	1.373405	1.214131	0.666658
