data_functionalizedCrystal
_audit_creation_method	'MofGen! by Chris Wilmer'
_symmetry_space_group_name_H-M	'P1'
_symmetry_Int_Tables_number	1
_symmetry_cell_setting	triclinic
loop_
_symmetry_equiv_pos_as_xyz
  x,y,z
_cell_length_a	21.295418
_cell_length_b	25.639240
_cell_length_c	21.295412
_cell_angle_alpha	89.964267
_cell_angle_beta	89.957310
_cell_angle_gamma	90.048568
loop_
_atom_site_label
_atom_site_type_symbol
_atom_site_fract_x
_atom_site_fract_y
_atom_site_fract_z
Zn1	Zn	0.962339	-0.207943	-0.356211
Zn2	Zn	1.295673	0.125390	-0.022878
Zn3	Zn	1.629006	0.458724	0.310455
Zn4	Zn	0.962240	-0.295377	-0.250928
Zn5	Zn	1.295573	0.037956	0.082406
Zn6	Zn	1.628906	0.371290	0.415739
Zn7	Zn	0.857065	-0.207981	-0.250921
Zn8	Zn	1.190398	0.125352	0.082412
Zn9	Zn	1.523731	0.458685	0.415745
Zn10	Zn	0.857028	-0.295373	-0.356124
Zn11	Zn	1.190361	0.037960	-0.022791
Zn12	Zn	1.523695	0.371293	0.310543
O13	O	0.909668	-0.251669	-0.303546
O14	O	1.243001	0.081665	0.029787
O15	O	1.576335	0.414998	0.363121
O16	O	1.050416	-0.219527	-0.342285
O17	O	1.383749	0.113807	-0.008951
O18	O	1.717082	0.447140	0.324382
O19	O	0.948262	-0.283801	-0.162837
O20	O	1.281595	0.049532	0.170496
O21	O	1.614928	0.382866	0.503829
O22	O	0.871087	-0.134811	-0.264922
O23	O	1.204420	0.198522	0.068411
O24	O	1.537753	0.531856	0.401744
O25	O	1.050342	-0.283764	-0.264933
O26	O	1.383676	0.049569	0.068400
O27	O	1.717009	0.382903	0.401734
O28	O	0.948432	-0.134783	-0.342278
O29	O	1.281765	0.198550	-0.008945
O30	O	1.615098	0.531884	0.324388
O31	O	0.870990	-0.219592	-0.162833
O32	O	1.204323	0.113741	0.170501
O33	O	1.537656	0.447075	0.503834
O34	O	0.768970	-0.219589	-0.264837
O35	O	1.102304	0.113745	0.068496
O36	O	1.435637	0.447078	0.401829
O37	O	0.871024	-0.283758	-0.444225
O38	O	1.204357	0.049575	-0.110892
O39	O	1.537691	0.382908	0.222442
O40	O	0.768943	-0.283795	-0.342129
O41	O	1.102277	0.049538	-0.008796
O42	O	1.435610	0.382871	0.324537
O43	O	0.948396	-0.219523	-0.444289
O44	O	1.281729	0.113810	-0.110956
O45	O	1.615063	0.447143	0.222377
O46	O	0.948226	-0.368542	-0.264848
O47	O	1.281559	-0.035208	0.068485
O48	O	1.614893	0.298125	0.401819
O49	O	0.870927	-0.368539	-0.342136
O50	O	1.204261	-0.035206	-0.008802
O51	O	1.537594	0.298128	0.324531
C52	C	0.746116	-0.251696	-0.303474
C53	C	1.079450	0.081637	0.029860
C54	C	1.412783	0.414970	0.363193
C55	C	0.676148	-0.251721	-0.303458
C56	C	1.009481	0.081613	0.029876
C57	C	1.342815	0.414946	0.363209
C58	C	0.643284	-0.285197	-0.343643
C59	C	0.976617	0.048136	-0.010310
C60	C	1.309951	0.381469	0.323023
C61	C	0.577541	-0.285184	-0.343672
C62	C	0.910875	0.048149	-0.010338
C63	C	1.244208	0.381482	0.322995
C64	C	0.544666	-0.251700	-0.303503
C65	C	0.877999	0.081633	0.029831
C66	C	1.211332	0.414966	0.363164
C67	C	0.577538	-0.218217	-0.263314
C68	C	0.910871	0.115116	0.070019
C69	C	1.244204	0.448450	0.403352
C70	C	0.643279	-0.218227	-0.263292
C71	C	0.976612	0.115106	0.070042
C72	C	1.309946	0.448439	0.403375
N73	N	0.441391	-0.247615	-0.248446
N74	N	0.774724	0.085718	0.084888
N75	N	1.108058	0.419052	0.418221
N76	N	0.378939	-0.247609	-0.248469
N77	N	0.712273	0.085725	0.084864
N78	N	1.045606	0.419058	0.418198
C79	C	0.346591	-0.251667	-0.303570
C80	C	0.679924	0.081666	0.029764
C81	C	1.013258	0.415000	0.363097
N82	N	0.379053	-0.255742	-0.358647
N83	N	0.712387	0.077591	-0.025314
N84	N	1.045720	0.410924	0.308019
N85	N	0.441510	-0.255752	-0.358623
N86	N	0.774844	0.077582	-0.025290
N87	N	1.108177	0.410915	0.308043
C88	C	0.473380	-0.251685	-0.303523
C89	C	0.806714	0.081648	0.029810
C90	C	1.140047	0.414981	0.363143
C91	C	0.242441	-0.285131	-0.343789
C92	C	0.575775	0.048202	-0.010456
C93	C	0.909108	0.381535	0.322877
C94	C	0.176698	-0.285115	-0.343819
C95	C	0.510031	0.048218	-0.010485
C96	C	0.843364	0.381552	0.322848
C97	C	0.176695	-0.218150	-0.263456
C98	C	0.510029	0.115183	0.069878
C99	C	0.843362	0.448516	0.403211
C100	C	0.242438	-0.218164	-0.263432
C101	C	0.575771	0.115169	0.069901
C102	C	0.909104	0.448502	0.403235
C103	C	0.275307	-0.251657	-0.303598
C104	C	0.608640	0.081676	0.029735
C105	C	0.941973	0.415009	0.363069
C106	C	0.909579	-0.387511	-0.303497
C107	C	1.242912	-0.054178	0.029837
C108	C	1.576246	0.279155	0.363170
C109	C	0.909598	-0.445625	-0.303497
C110	C	1.242932	-0.112292	0.029837
C111	C	1.576265	0.221041	0.363170
C112	C	0.949961	-0.805935	-0.343898
C113	C	1.283295	-0.472602	-0.010565
C114	C	1.616628	-0.139269	0.322769
C115	C	0.949980	-0.860540	-0.343911
C116	C	1.283313	-0.527206	-0.010578
C117	C	1.616647	-0.193873	0.322756
O118	O	0.984192	-0.888731	-0.378211
O119	O	1.317526	-0.555398	-0.044878
O120	O	1.650859	-0.222064	0.288456
N121	N	0.909755	-0.887908	-0.303607
N122	N	1.243089	-0.554574	0.029726
N123	N	1.576422	-0.221241	0.363060
C124	C	0.869505	-0.860669	-0.263292
C125	C	1.202838	-0.527335	0.070041
C126	C	1.536171	-0.194002	0.403375
O127	O	0.835292	-0.888962	-0.229012
O128	O	1.168625	-0.555628	0.104321
O129	O	1.501958	-0.222295	0.437655
C130	C	0.869484	-0.806065	-0.263283
C131	C	1.202817	-0.472732	0.070050
C132	C	1.536150	-0.139399	0.403384
C133	C	0.909715	-0.778700	-0.303585
C134	C	1.243049	-0.445367	0.029748
C135	C	1.576382	-0.112033	0.363082
C136	C	0.990190	-0.778570	-0.384197
C137	C	1.323523	-0.445236	-0.050864
C138	C	1.656856	-0.111903	0.282469
C139	C	0.990172	-0.723969	-0.384184
C140	C	1.323505	-0.390636	-0.050850
C141	C	1.656838	-0.057303	0.282483
C142	C	0.949926	-0.696734	-0.343871
C143	C	1.283259	-0.363401	-0.010537
C144	C	1.616592	-0.030067	0.322796
C145	C	0.909698	-0.724100	-0.303571
C146	C	1.243031	-0.390766	0.029762
C147	C	1.576364	-0.057433	0.363095
C148	C	0.829230	-0.778828	-0.222972
C149	C	1.162564	-0.445494	0.110362
C150	C	1.495897	-0.112161	0.443695
C151	C	0.829212	-0.724221	-0.222966
C152	C	1.162545	-0.390887	0.110367
C153	C	1.495879	-0.057554	0.443700
C154	C	0.869444	-0.696855	-0.263268
C155	C	1.202777	-0.363522	0.070065
C156	C	1.536111	-0.030188	0.403398
C157	C	0.869434	-0.642264	-0.263244
C158	C	1.202767	-0.308931	0.070089
C159	C	1.536100	0.024403	0.403422
N160	N	0.909658	-0.614896	-0.303548
N161	N	1.242992	-0.281562	0.029785
N162	N	1.576325	0.051771	0.363118
C163	C	0.949904	-0.642131	-0.343861
C164	C	1.283238	-0.308798	-0.010528
C165	C	1.616571	0.024536	0.322805
C166	C	0.869552	-0.975339	-0.263315
C167	C	1.202885	-0.642006	0.070018
C168	C	1.536218	-0.308673	0.403352
C169	C	0.869576	-1.029942	-0.263321
C170	C	1.202909	-0.696608	0.070013
C171	C	1.536242	-0.363275	0.403346
C172	C	0.950050	-1.029809	-0.343941
C173	C	1.283384	-0.696475	-0.010607
C174	C	1.616717	-0.363142	0.322726
C175	C	0.950029	-0.975205	-0.343931
C176	C	1.283362	-0.641872	-0.010598
C177	C	1.616696	-0.308539	0.322735
C178	C	0.909777	-0.947971	-0.303619
C179	C	1.243110	-0.614638	0.029714
C180	C	1.576443	-0.281305	0.363048
C181	C	0.949864	-0.527466	-0.343829
C182	C	1.283197	-0.194132	-0.010496
C183	C	1.616531	0.139201	0.322838
C184	C	0.949845	-0.472860	-0.343810
C185	C	1.283178	-0.139527	-0.010476
C186	C	1.616511	0.193806	0.322857
C187	C	0.869368	-0.472998	-0.263193
C188	C	1.202701	-0.139665	0.070141
C189	C	1.536035	0.193668	0.403474
C190	C	0.869390	-0.527599	-0.263209
C191	C	1.202723	-0.194266	0.070124
C192	C	1.536056	0.139068	0.403458
C193	C	0.909640	-0.554831	-0.303532
C194	C	1.242973	-0.221498	0.029801
C195	C	1.576306	0.111835	0.363134
O196	O	0.835237	-0.614038	-0.228964
O197	O	1.168570	-0.280704	0.104370
O198	O	1.501904	0.052629	0.437703
O199	O	0.984106	-0.613831	-0.378142
O200	O	1.317439	-0.280498	-0.044808
O201	O	1.650772	0.052835	0.288525
C202	C	1.073858	-0.251641	-0.303619
C203	C	1.407192	0.081692	0.029714
C204	C	1.740525	0.415025	0.363047
C205	C	1.143826	-0.251630	-0.303650
C206	C	1.477160	0.081703	0.029683
C207	C	1.810493	0.415037	0.363016
C208	C	0.909717	-0.251636	-0.467736
C209	C	1.243050	0.081697	-0.134403
C210	C	1.576384	0.415031	0.198930
C211	C	0.909738	-0.251622	-0.537705
C212	C	1.243071	0.081711	-0.204371
C213	C	1.576405	0.415044	0.128962
C214	C	0.909774	-0.115296	-0.303609
C215	C	1.243108	0.218038	0.029724
C216	C	1.576441	0.551371	0.363057
C217	C	0.909820	-0.057182	-0.303636
C218	C	1.243153	0.276152	0.029697
C219	C	1.576486	0.609485	0.363030
C220	C	0.869513	-0.218185	-0.570559
C221	C	1.202847	0.115148	-0.237226
C222	C	1.536180	0.448482	0.096108
C223	C	0.869511	-0.218175	-0.636301
C224	C	1.202845	0.115158	-0.302968
C225	C	1.536178	0.448492	0.030365
C226	C	0.909745	-0.251597	-0.669187
C227	C	1.243078	0.081736	-0.335854
C228	C	1.576412	0.415069	-0.002520
C229	C	0.949972	-0.285041	-0.636325
C230	C	1.283306	0.048292	-0.302992
C231	C	1.616639	0.381625	0.030342
C232	C	0.949969	-0.285054	-0.570584
C233	C	1.283302	0.048280	-0.237250
C234	C	1.616636	0.381613	0.096083
N235	N	0.964849	-0.255578	-0.772443
N236	N	1.298183	0.077756	-0.439110
N237	N	1.631516	0.411089	-0.105777
N238	N	0.964851	-0.255563	-0.834895
N239	N	1.298184	0.077770	-0.501562
N240	N	1.631517	0.411104	-0.168228
C241	C	0.909757	-0.251563	-0.867262
C242	C	1.243090	0.081771	-0.533929
C243	C	1.576423	0.415104	-0.200595
N244	N	0.854660	-0.247567	-0.834818
N245	N	1.187993	0.085766	-0.501485
N246	N	1.521326	0.419099	-0.168152
N247	N	0.854659	-0.247580	-0.772361
N248	N	1.187992	0.085754	-0.439028
N249	N	1.521326	0.419087	-0.105694
C250	C	0.909753	-0.251588	-0.740473
C251	C	1.243086	0.081746	-0.407139
C252	C	1.576419	0.415079	-0.073806
C253	C	0.869526	-0.218113	-0.971402
C254	C	1.202859	0.115221	-0.638069
C255	C	1.536193	0.448554	-0.304735
C256	C	0.869523	-0.218107	-1.037146
C257	C	1.202856	0.115227	-0.703812
C258	C	1.536189	0.448560	-0.370479
C259	C	0.949990	-0.284970	-1.037168
C260	C	1.283323	0.048363	-0.703834
C261	C	1.616656	0.381697	-0.370501
C262	C	0.949987	-0.284979	-0.971425
C263	C	1.283321	0.048354	-0.638092
C264	C	1.616654	0.381688	-0.304759
C265	C	0.909756	-0.251547	-0.938546
C266	C	1.243090	0.081786	-0.605213
C267	C	1.576423	0.415119	-0.271880
C268	C	0.909655	-0.251663	-0.139995
C269	C	1.242988	0.081670	0.193339
C270	C	1.576322	0.415003	0.526672
C271	C	0.909756	-0.251530	-0.070027
C272	C	1.243089	0.081803	0.263307
C273	C	1.576423	0.415137	0.596640
H274	H	0.149941	-0.312375	-0.376547
H275	H	0.483274	0.020959	-0.043213
H276	H	0.816607	0.354292	0.290120
O277	O	0.826118	-0.182130	-0.535100
O278	O	1.159452	0.151204	-0.201767
O279	O	1.492785	0.484537	0.131567
H280	H	0.832875	-0.187751	-0.483865
H281	H	1.166209	0.145582	-0.150532
H282	H	1.499542	0.478915	0.182801
O283	O	0.678736	-0.321318	-0.386966
O284	O	1.012069	0.012015	-0.053633
O285	O	1.345403	0.345348	0.279701
H286	H	0.708755	-0.297957	-0.419035
H287	H	1.042088	0.035377	-0.085701
H288	H	1.375421	0.368710	0.247632
O289	O	0.826191	-1.059451	-0.219840
O290	O	1.159525	-0.726118	0.113493
O291	O	1.492858	-0.392785	0.446827
H292	H	0.832965	-1.101997	-0.226611
H293	H	1.166298	-0.768664	0.106722
H294	H	1.499632	-0.435331	0.440055
O295	O	0.993455	-1.059192	-0.387426
O296	O	1.326788	-0.725859	-0.054093
O297	O	1.660121	-0.392526	0.279240
H298	H	1.021429	-1.030993	-0.415450
H299	H	1.354763	-0.697660	-0.082117
H300	H	1.688096	-0.364327	0.251216
O301	O	0.277904	-0.321235	-0.387127
O302	O	0.611238	0.012098	-0.053794
O303	O	0.944571	0.345432	0.279539
H304	H	0.307795	-0.347816	-0.358892
H305	H	0.641128	-0.014483	-0.025559
H306	H	0.974462	0.318851	0.307775
O307	O	0.785801	-0.694848	-0.179478
O308	O	1.119135	-0.361515	0.153855
O309	O	1.452468	-0.028182	0.487189
H310	H	0.736395	-0.705371	-0.190211
H311	H	1.069728	-0.372038	0.143123
H312	H	1.403061	-0.038705	0.476456
H313	H	0.982789	-0.952928	-0.376749
H314	H	1.316122	-0.619594	-0.043416
H315	H	1.649456	-0.286261	0.289918
H316	H	0.836634	-0.549881	-0.230387
H317	H	1.169968	-0.216548	0.102946
H318	H	1.503301	0.116786	0.436280
O319	O	0.141247	-0.182038	-0.220123
O320	O	0.474581	0.151295	0.113210
O321	O	0.807914	0.484629	0.446543
H322	H	0.090011	-0.187658	-0.226885
H323	H	0.423345	0.145675	0.106448
H324	H	0.756678	0.479009	0.439781
H325	H	0.982608	-0.450581	-0.376629
H326	H	1.315942	-0.117248	-0.043295
H327	H	1.649275	0.216085	0.290038
H328	H	0.982731	-0.312254	-0.663105
H329	H	1.316064	0.021079	-0.329771
H330	H	1.649397	0.354413	0.003562
O331	O	0.993366	-0.321111	-0.535141
O332	O	1.326699	0.012222	-0.201808
O333	O	1.660032	0.345555	0.131525
H334	H	1.021348	-0.344348	-0.569051
H335	H	1.354681	-0.011015	-0.235717
H336	H	1.688014	0.322318	0.097616
O337	O	0.826131	-0.182062	-0.935932
O338	O	1.159465	0.151271	-0.602599
O339	O	1.492798	0.484604	-0.269265
H340	H	0.798151	-0.158815	-0.969826
H341	H	1.131485	0.174518	-0.636492
H342	H	1.464818	0.507852	-0.303159
O343	O	0.825959	-0.443619	-0.219714
O344	O	1.159292	-0.110286	0.113619
O345	O	1.492625	0.223048	0.446953
H346	H	0.832704	-0.401053	-0.226485
H347	H	1.166037	-0.067720	0.106848
H348	H	1.499370	0.265613	0.440182
O349	O	0.826138	-0.182038	-1.072587
O350	O	1.159471	0.151295	-0.739253
O351	O	1.492805	0.484628	-0.405920
H352	H	0.798170	-0.158791	-1.038676
H353	H	1.131503	0.174542	-0.705343
H354	H	1.464837	0.507875	-0.372010
H355	H	0.836757	-0.190944	-0.663057
H356	H	1.170090	0.142390	-0.329723
H357	H	1.503423	0.475723	0.003610
O358	O	0.542082	-0.321312	-0.386992
O359	O	0.875416	0.012021	-0.053658
O360	O	1.208749	0.345354	0.279675
H361	H	0.575983	-0.344612	-0.414907
H362	H	0.909316	-0.011279	-0.081573
H363	H	1.242650	0.322054	0.251760
H364	H	0.982750	-0.312182	-1.063943
H365	H	1.316083	0.021151	-0.730609
H366	H	1.649417	0.354485	-0.397276
O367	O	0.993386	-0.321032	-0.935983
O368	O	1.326720	0.012301	-0.602649
O369	O	1.660053	0.345634	-0.269316
H370	H	1.021370	-0.344267	-0.969893
H371	H	1.354704	-0.010933	-0.636559
H372	H	1.688037	0.322400	-0.303226
H373	H	0.550766	-0.190953	-0.230610
H374	H	0.884099	0.142380	0.102724
H375	H	1.217433	0.475713	0.436057
H376	H	0.982635	-0.549632	-0.376668
H377	H	1.315969	-0.216299	-0.043335
H378	H	1.649302	0.117035	0.289998
H379	H	0.670037	-0.190965	-0.230567
H380	H	1.003370	0.142368	0.102766
H381	H	1.336703	0.475702	0.436099
O382	O	0.277891	-0.182071	-0.220072
O383	O	0.611224	0.151262	0.113261
O384	O	0.944558	0.484596	0.446594
H385	H	0.243988	-0.158790	-0.192137
H386	H	0.577321	0.174543	0.141197
H387	H	0.910654	0.507876	0.474530
H388	H	1.022930	-0.701692	-0.417003
H389	H	1.356263	-0.368358	-0.083670
H390	H	1.689597	-0.035025	0.249664
H391	H	1.022963	-0.800739	-0.417029
H392	H	1.356296	-0.467405	-0.083696
H393	H	1.689629	-0.134072	0.249638
H394	H	0.836775	-0.953168	-0.230483
H395	H	1.170108	-0.619835	0.102851
H396	H	1.503442	-0.286501	0.436184
H397	H	0.796469	-0.801099	-0.190153
H398	H	1.129803	-0.467766	0.143180
H399	H	1.463136	-0.134432	0.476514
