data_functionalizedCrystal
_audit_creation_method	'MofGen! by Chris Wilmer'
_symmetry_space_group_name_H-M	'P1'
_symmetry_Int_Tables_number	1
_symmetry_cell_setting	triclinic
loop_
_symmetry_equiv_pos_as_xyz
  x,y,z
_cell_length_a	21.295419
_cell_length_b	21.295417
_cell_length_c	18.050583
_cell_angle_alpha	89.963359
_cell_angle_beta	89.981783
_cell_angle_gamma	90.045308
loop_
_atom_site_label
_atom_site_type_symbol
_atom_site_fract_x
_atom_site_fract_y
_atom_site_fract_z
Zn1	Zn	0.962316	-0.250339	-0.419891
Zn2	Zn	0.962230	-0.355619	-0.295692
Zn3	Zn	0.857051	-0.250394	-0.295715
Zn4	Zn	0.857009	-0.355602	-0.419840
O5	O	0.909652	-0.302988	-0.357784
O6	O	1.050394	-0.264289	-0.403427
O7	O	0.948260	-0.341691	-0.191770
O8	O	0.871068	-0.162298	-0.312218
O9	O	1.050331	-0.341637	-0.312178
O10	O	0.948406	-0.162257	-0.403450
O11	O	0.870985	-0.264383	-0.191787
O12	O	0.768956	-0.264366	-0.312169
O13	O	0.870997	-0.341608	-0.523772
O14	O	0.768925	-0.341662	-0.403363
O15	O	0.948365	-0.264272	-0.523809
O16	O	0.948219	-0.443706	-0.312129
O17	O	0.870913	-0.443693	-0.403341
C18	C	0.746100	-0.303019	-0.357764
C19	C	0.676132	-0.303047	-0.357772
C20	C	0.643321	-0.262837	-0.405359
C21	C	0.577578	-0.262820	-0.405362
C22	C	0.544649	-0.303024	-0.357786
C23	C	0.577469	-0.343236	-0.310190
C24	C	0.643210	-0.343248	-0.310183
N25	N	0.441375	-0.358103	-0.351982
N26	N	0.378923	-0.358090	-0.351993
C27	C	0.346575	-0.302992	-0.357802
N28	N	0.379037	-0.247905	-0.363615
N29	N	0.441494	-0.247918	-0.363608
C30	C	0.473364	-0.303016	-0.357788
C31	C	0.242478	-0.262760	-0.405394
C32	C	0.176734	-0.262742	-0.405392
C33	C	0.176626	-0.343164	-0.310224
C34	C	0.242368	-0.343176	-0.310223
C35	C	0.275290	-0.302975	-0.357812
C36	C	0.909569	-0.466540	-0.357743
C37	C	0.909591	-0.536508	-0.357751
C38	C	0.949880	-0.569360	-0.310305
C39	C	0.949910	-0.635103	-0.310322
C40	C	0.909639	-0.667991	-0.357776
C41	C	0.869348	-0.635131	-0.405231
C42	C	0.869324	-0.569389	-0.405218
N43	N	0.854572	-0.771270	-0.363431
N44	N	0.854596	-0.833722	-0.363439
C45	C	0.909710	-0.866065	-0.357819
N46	N	0.964799	-0.833598	-0.352176
N47	N	0.964774	-0.771141	-0.352165
C48	C	0.909661	-0.739276	-0.357796
C49	C	0.950034	-0.970203	-0.310389
C50	C	0.950065	-1.035947	-0.310411
C51	C	0.869497	-1.035973	-0.405316
C52	C	0.869472	-0.970231	-0.405298
C53	C	0.909739	-0.937350	-0.357830
C54	C	1.073842	-0.302959	-0.357806
C55	C	1.143810	-0.302946	-0.357815
C56	C	0.909686	-0.302932	-0.551490
C57	C	0.909700	-0.302908	-0.634036
C58	C	0.909752	-0.138798	-0.357842
C59	C	0.909794	-0.068830	-0.357867
C60	C	0.951813	-0.260810	-0.882882
C61	C	0.967171	-0.318245	-0.833463
C62	C	0.909741	-0.302868	-0.931157
C63	C	0.894392	-0.245457	-0.833494
C64	C	0.909723	-0.302885	-0.785171
C65	C	0.925129	-0.360333	-0.882825
C66	C	0.852324	-0.287506	-0.882860
C67	C	0.867660	-0.344980	-0.833463
C68	C	0.909753	-0.302858	-1.015255
C69	C	0.909710	-0.302902	-0.701075
C70	C	0.909654	-0.302999	-0.164832
C71	C	0.909761	-0.302846	-0.082287
H72	H	0.669925	-0.375992	-0.271431
H73	H	0.982720	-0.661856	-0.271687
F74	F	0.141585	-0.385949	-0.259585
H75	H	0.836710	-1.062750	-0.443957
H76	H	0.836662	-0.943481	-0.443929
F77	F	0.998361	-0.214371	-0.911245
H78	H	1.015720	-0.331248	-0.811763
H79	H	0.938173	-0.408901	-0.904404
F80	F	0.821144	-0.391529	-0.805281
F81	F	0.788885	-0.270486	-0.911246
H82	H	0.881419	-0.196899	-0.811822
H83	H	0.982670	-0.542591	-0.271657
F84	F	0.678355	-0.220051	-0.456007
F85	F	0.826491	-0.670133	-0.455737
F86	F	0.277518	-0.219972	-0.456038
F87	F	0.826441	-0.534425	-0.455718
H88	H	0.550858	-0.230074	-0.444111
F89	F	0.141814	-0.219941	-0.456040
F90	F	0.992952	-1.070910	-0.259916
H91	H	0.269084	-0.375922	-0.271476
H92	H	0.550654	-0.375970	-0.271453
H93	H	0.982825	-0.943430	-0.271741
