data_functionalizedCrystal
_audit_creation_method	'MofGen! by Chris Wilmer'
_symmetry_space_group_name_H-M	'P1'
_symmetry_Int_Tables_number	1
_symmetry_cell_setting	triclinic
loop_
_symmetry_equiv_pos_as_xyz
  x,y,z
_cell_length_a	10.654549
_cell_length_b	10.489716
_cell_length_c	9.730217
_cell_angle_alpha	90.000769
_cell_angle_beta	89.997559
_cell_angle_gamma	84.508027
loop_
_atom_site_label
_atom_site_type_symbol
_atom_site_fract_x
_atom_site_fract_y
_atom_site_fract_z
O1	O	1.667902	0.179192	-0.114310
O2	O	1.302430	0.196255	-0.114304
O3	O	1.493498	0.002119	-0.114312
O4	O	1.476834	0.373327	-0.114302
O5	O	1.493492	0.002118	0.114268
O6	O	1.302424	0.196253	0.114276
O7	O	1.667896	0.179190	0.114270
Zn8	Zn	1.485159	0.187721	0.150565
Zn9	Zn	1.485167	0.187723	-0.150599
O10	O	1.476828	0.373325	0.114278
C11	C	1.255629	0.195000	-0.000014
C12	C	1.116184	0.191247	-0.000012
C13	C	0.826286	0.416345	-0.000045
C14	C	0.877868	0.534182	-0.000036
C15	C	1.008887	0.537712	-0.000017
C16	C	1.088329	0.423392	-0.000012
C17	C	1.036747	0.305555	-0.000021
C18	C	0.905723	0.302037	-0.000035
C19	C	1.064602	0.073410	-0.000021
C20	C	0.933583	0.069877	-0.000029
C21	C	1.144044	-0.040910	-0.000016
C22	C	1.092463	-0.158750	-0.000015
C23	C	0.961435	-0.162275	-0.000031
C24	C	0.882001	-0.047960	-0.000038
C25	C	1.492243	-0.045413	-0.000026
C26	C	1.488497	-0.187042	-0.000039
C27	C	1.605666	-0.284771	-0.000028
C28	C	1.543754	-0.362102	-0.112725
C29	C	1.543721	-0.362067	0.112637
C30	C	1.426634	-0.262508	-0.112829
C31	C	1.426619	-0.262468	0.112634
C32	C	1.364621	-0.339750	-0.000091
C33	C	1.714697	0.180445	-0.000024
C34	C	1.854141	0.184197	-0.000034
C35	C	1.478083	0.420858	-0.000011
C36	C	1.481829	0.562487	-0.000007
N37	N	1.485163	0.187719	0.356102
N38	N	1.485173	0.187716	-0.356136
C39	C	1.654423	0.015862	0.356085
C40	C	1.739062	-0.070062	0.428017
C41	C	1.739075	-0.070063	0.571897
C42	C	1.654437	0.015868	0.643848
C43	C	1.569799	0.101792	0.571916
C44	C	1.569797	0.101786	0.428033
C45	C	1.400534	0.273640	0.571933
C46	C	1.400525	0.273649	0.428053
C47	C	1.315897	0.359570	0.643884
C48	C	1.231262	0.445503	0.571952
C49	C	1.231254	0.445501	0.428064
C50	C	1.315887	0.359573	0.356121
H51	H	0.775317	-0.050819	-0.000040
H52	H	1.654432	0.015865	0.238931
H53	H	0.813172	0.627258	-0.000044
H54	H	1.807971	-0.140028	0.369421
H55	H	1.593218	-0.405619	-0.208007
H56	H	1.250726	-0.038027	-0.000008
H57	H	1.162351	0.515456	0.630544
H58	H	0.719601	0.413482	-0.000035
H59	H	1.157153	-0.251819	-0.000020
H60	H	0.919446	-0.258233	-0.000046
H61	H	1.162326	0.515466	0.369505
H62	H	1.050884	0.633665	-0.000008
H63	H	1.807990	-0.140034	0.630464
H64	H	1.377202	-0.219180	-0.208212
H65	H	1.195011	0.426277	-0.000014
H66	H	1.315892	0.359569	0.238967
H67	H	1.593205	-0.405564	0.207911
H68	H	1.262627	-0.364133	-0.000150
H69	H	1.377198	-0.218928	0.207919
H70	H	1.654442	0.015851	0.761002
H71	H	1.315905	0.359561	0.761039
H72	H	1.707583	-0.260142	-0.000144
