data_functionalizedCrystal
_audit_creation_method	'MofGen! by Chris Wilmer'
_symmetry_space_group_name_H-M	'P1'
_symmetry_Int_Tables_number	1
_symmetry_cell_setting	triclinic
loop_
_symmetry_equiv_pos_as_xyz
  x,y,z
_cell_length_a	27.732048
_cell_length_b	27.732048
_cell_length_c	26.809956
_cell_angle_alpha	89.981467
_cell_angle_beta	89.990422
_cell_angle_gamma	82.642654
loop_
_atom_site_label
_atom_site_type_symbol
_atom_site_fract_x
_atom_site_fract_y
_atom_site_fract_z
O1	O	0.057516	0.640935	-0.041513
O2	O	0.390849	0.974269	0.291820
O3	O	0.724183	1.307602	0.625154
O4	O	0.066261	0.500142	-0.041509
O5	O	0.399595	0.833475	0.291825
O6	O	0.732928	1.166809	0.625158
O7	O	-0.008508	0.574911	-0.041501
O8	O	0.324825	0.908245	0.291832
O9	O	0.658159	1.241578	0.625165
O10	O	0.132285	0.566166	-0.041520
O11	O	0.465619	0.899499	0.291813
O12	O	0.798952	1.232833	0.625147
O13	O	-0.008508	0.574889	0.041458
O14	O	0.324825	0.908222	0.374791
O15	O	0.658159	1.241555	0.708125
O16	O	0.066261	0.500119	0.041451
O17	O	0.399595	0.833452	0.374784
O18	O	0.732928	1.166786	0.708117
O19	O	0.057516	0.640913	0.041446
O20	O	0.390849	0.974246	0.374780
O21	O	0.724183	1.307579	0.708113
Zn22	Zn	0.061889	0.570512	0.054620
Zn23	Zn	0.395222	0.903845	0.387953
Zn24	Zn	0.728555	1.237179	0.721287
Zn25	Zn	0.061889	0.570542	-0.054682
Zn26	Zn	0.395222	0.903876	0.278651
Zn27	Zn	0.728555	1.237209	0.611984
O28	O	0.132285	0.566143	0.041439
O29	O	0.465619	0.899476	0.374772
O30	O	0.798952	1.232810	0.708106
C31	C	-0.026515	0.574716	-0.000020
C32	C	0.306818	0.908050	0.333313
C33	C	0.640152	1.241383	0.666646
C34	C	-0.080170	0.574164	-0.000016
C35	C	0.253163	0.907497	0.333317
C36	C	0.586497	1.240830	0.666650
C37	C	0.057699	0.658931	-0.000035
C38	C	0.391033	0.992264	0.333298
C39	C	0.724366	1.325598	0.666632
C40	C	0.058252	0.712586	-0.000041
C41	C	0.391586	1.045919	0.333293
C42	C	0.724919	1.379252	0.666626
C43	C	0.066078	0.482124	-0.000028
C44	C	0.399411	0.815457	0.333305
C45	C	0.732744	1.148790	0.666638
C46	C	0.065525	0.428469	-0.000026
C47	C	0.398858	0.761802	0.333307
C48	C	0.732192	1.095135	0.666641
C49	C	-0.418985	0.614867	-0.000043
C50	C	-0.085652	0.948201	0.333290
C51	C	0.247682	1.281534	0.666623
C52	C	-0.620645	0.612816	-0.000050
C53	C	-0.287311	0.946150	0.333283
C54	C	0.046022	1.279483	0.666617
O55	O	-0.651900	0.650037	-0.000073
O56	O	-0.318567	0.983370	0.333260
O57	O	0.014766	1.316704	0.666594
N58	N	-0.639768	0.568481	-0.000048
N59	N	-0.306435	0.901814	0.333285
N60	N	0.026898	1.235148	0.666618
C61	C	-0.608474	0.524656	-0.000048
C62	C	-0.275140	0.857989	0.333285
C63	C	0.058193	1.191322	0.666619
O64	O	-0.629367	0.486899	-0.000052
O65	O	-0.296033	0.820232	0.333282
O66	O	0.037300	1.153565	0.666615
C67	C	-0.406815	0.526707	-0.000045
C68	C	-0.073482	0.860040	0.333289
C69	C	0.259852	1.193374	0.666622
C70	C	-0.387694	0.571045	-0.000041
C71	C	-0.054361	0.904378	0.333292
C72	C	0.278972	1.237712	0.666625
C73	C	-0.399864	0.659202	-0.000041
C74	C	-0.066530	0.992535	0.333293
C75	C	0.266803	1.325869	0.666626
C76	C	-0.349452	0.659714	-0.000036
C77	C	-0.016118	0.993047	0.333297
C78	C	0.317215	1.326381	0.666631
C79	C	-0.318161	0.615892	-0.000034
C80	C	0.015172	0.949225	0.333299
C81	C	0.348506	1.282559	0.666632
C82	C	-0.337282	0.571557	-0.000037
C83	C	-0.003949	0.904891	0.333296
C84	C	0.329384	1.238224	0.666630
C85	C	-0.375521	0.482882	-0.000048
C86	C	-0.042188	0.816215	0.333286
C87	C	0.291145	1.149549	0.666619
C88	C	-0.325104	0.483399	-0.000048
C89	C	0.008229	0.816732	0.333285
C90	C	0.341563	1.150066	0.666618
C91	C	-0.305983	0.527737	-0.000045
C92	C	0.027350	0.861070	0.333288
C93	C	0.360683	1.194404	0.666622
C94	C	-0.255580	0.528248	-0.000031
C95	C	0.077754	0.861581	0.333303
C96	C	0.411087	1.194914	0.666636
N97	N	-0.236456	0.572583	-0.000033
N98	N	0.096877	0.905916	0.333301
N99	N	0.430211	1.239249	0.666634
C100	C	-0.267747	0.616405	-0.000034
C101	C	0.065587	0.949738	0.333299
C102	C	0.398920	1.283072	0.666632
C103	C	-0.714348	0.523582	-0.000049
C104	C	-0.381014	0.856915	0.333285
C105	C	-0.047681	1.190248	0.666618
C106	C	-0.764762	0.523069	-0.000049
C107	C	-0.431429	0.856402	0.333285
C108	C	-0.098096	1.189735	0.666618
C109	C	-0.776930	0.611230	-0.000052
C110	C	-0.443596	0.944563	0.333282
C111	C	-0.110263	1.277896	0.666615
C112	C	-0.726514	0.611742	-0.000048
C113	C	-0.393181	0.945075	0.333285
C114	C	-0.059848	1.278409	0.666618
C115	C	-0.695224	0.567917	-0.000051
C116	C	-0.361891	0.901250	0.333283
C117	C	-0.028557	1.234584	0.666616
C118	C	-0.161878	0.617477	-0.000025
C119	C	0.171456	0.950811	0.333309
C120	C	0.504789	1.284144	0.666642
C121	C	-0.111461	0.617986	-0.000018
C122	C	0.221873	0.951319	0.333315
C123	C	0.555206	1.284652	0.666649
C124	C	-0.099298	0.529825	-0.000018
C125	C	0.234036	0.863158	0.333316
C126	C	0.567369	1.196492	0.666649
C127	C	-0.149710	0.529316	-0.000021
C128	C	0.183623	0.862650	0.333312
C129	C	0.516957	1.195983	0.666645
C130	C	-0.180999	0.573147	-0.000027
C131	C	0.152334	0.906480	0.333307
C132	C	0.485667	1.239813	0.666640
O133	O	-0.224296	0.491047	-0.000013
O134	O	0.109038	0.824380	0.333320
O135	O	0.442371	1.157713	0.666653
O136	O	-0.246844	0.654156	-0.000042
O137	O	0.086489	0.987490	0.333292
O138	O	0.419823	1.320823	0.666625
C139	C	-0.469397	0.614355	-0.000048
C140	C	-0.136064	0.947688	0.333286
C141	C	0.197270	1.281022	0.666619
C142	C	-0.488518	0.570021	-0.000050
C143	C	-0.155185	0.903354	0.333283
C144	C	0.178148	1.236687	0.666616
C145	C	-0.457228	0.526198	-0.000048
C146	C	-0.123894	0.859532	0.333285
C147	C	0.209439	1.192865	0.666618
C148	C	-0.538933	0.569508	-0.000050
C149	C	-0.205599	0.902841	0.333283
C150	C	0.127734	1.236174	0.666616
C151	C	-0.570223	0.613330	-0.000052
C152	C	-0.236890	0.946663	0.333281
C153	C	0.096443	1.279996	0.666615
C154	C	-0.551100	0.657665	-0.000054
C155	C	-0.217766	0.990998	0.333279
C156	C	0.115567	1.324332	0.666613
C157	C	-0.500688	0.658177	-0.000049
C158	C	-0.167354	0.991511	0.333284
C159	C	0.165979	1.324844	0.666617
C160	C	-0.476351	0.481863	-0.000047
C161	C	-0.143018	0.815197	0.333287
C162	C	0.190315	1.148530	0.666620
C163	C	-0.526764	0.481355	-0.000050
C164	C	-0.193430	0.814688	0.333283
C165	C	0.139903	1.148021	0.666616
C166	C	-0.558054	0.525177	-0.000052
C167	C	-0.224721	0.858510	0.333281
C168	C	0.108612	1.191843	0.666614
C169	C	0.150292	0.566338	-0.000043
C170	C	0.483626	0.899671	0.333290
C171	C	0.816959	1.233005	0.666624
C172	C	0.203947	0.566891	-0.000050
C173	C	0.537280	0.900224	0.333283
C174	C	0.870614	1.233557	0.666616
N175	N	0.061888	0.570495	0.129216
N176	N	0.395222	0.903828	0.462549
N177	N	0.728555	1.237162	0.795883
C178	C	0.017548	1.051401	-0.000018
C179	C	0.350882	1.384734	0.333315
C180	C	0.684215	1.718067	0.666649
C181	C	0.019599	1.253060	-0.000017
C182	C	0.352933	1.586394	0.333317
C183	C	0.686266	1.919727	0.666650
O184	O	-0.017621	1.284316	0.000010
O185	O	0.315712	1.617649	0.333343
O186	O	0.649045	1.950983	0.666676
N187	N	0.063935	1.272184	-0.000024
N188	N	0.397268	1.605518	0.333309
N189	N	0.730601	1.938851	0.666643
C190	C	0.107760	1.240890	-0.000028
C191	C	0.441094	1.574223	0.333305
C192	C	0.774427	1.907556	0.666638
O193	O	0.145517	1.261783	-0.000030
O194	O	0.478850	1.595116	0.333304
O195	O	0.812184	1.928449	0.666637
C196	C	0.105709	1.039231	-0.000026
C197	C	0.439042	1.372564	0.333307
C198	C	0.772375	1.705898	0.666640
C199	C	0.061371	1.020110	-0.000024
C200	C	0.394704	1.353443	0.333309
C201	C	0.728037	1.686777	0.666643
C202	C	-0.026786	1.032280	-0.000015
C203	C	0.306547	1.365613	0.333318
C204	C	0.639881	1.698946	0.666652
C205	C	-0.027298	0.981868	-0.000018
C206	C	0.306035	1.315201	0.333315
C207	C	0.639368	1.648534	0.666648
C208	C	0.016524	0.950577	-0.000024
C209	C	0.349857	1.283910	0.333309
C210	C	0.683191	1.617244	0.666643
C211	C	0.060858	0.969698	-0.000027
C212	C	0.394192	1.303032	0.333306
C213	C	0.727525	1.636365	0.666640
C214	C	0.149534	1.007937	-0.000027
C215	C	0.482867	1.341271	0.333306
C216	C	0.816200	1.674604	0.666640
C217	C	0.149017	0.957520	-0.000025
C218	C	0.482350	1.290853	0.333308
C219	C	0.815684	1.624187	0.666641
C220	C	0.104679	0.938399	-0.000023
C221	C	0.438012	1.271732	0.333310
C222	C	0.771346	1.605066	0.666644
C223	C	0.104168	0.887996	-0.000036
C224	C	0.437502	1.221329	0.333297
C225	C	0.770835	1.554662	0.666631
N226	N	0.059833	0.868872	-0.000029
N227	N	0.393166	1.202205	0.333305
N228	N	0.726500	1.535539	0.666638
C229	C	0.016011	0.900163	-0.000023
C230	C	0.349344	1.233496	0.333311
C231	C	0.682678	1.566829	0.666644
C232	C	0.108834	1.346764	-0.000031
C233	C	0.442168	1.680097	0.333303
C234	C	0.775501	2.013430	0.666636
C235	C	0.109347	1.397178	-0.000032
C236	C	0.442681	1.730511	0.333301
C237	C	0.776014	2.063845	0.666635
C238	C	0.021186	1.409345	-0.000019
C239	C	0.354520	1.742679	0.333314
C240	C	0.687853	2.076012	0.666647
C241	C	0.020674	1.358930	-0.000021
C242	C	0.354007	1.692263	0.333312
C243	C	0.687340	2.025597	0.666645
C244	C	0.064499	1.327640	-0.000023
C245	C	0.397832	1.660973	0.333310
C246	C	0.731166	1.994307	0.666643
C247	C	0.014938	0.794293	-0.000030
C248	C	0.348272	1.127627	0.333304
C249	C	0.681605	1.460960	0.666637
C250	C	0.014430	0.743876	-0.000035
C251	C	0.347763	1.077210	0.333299
C252	C	0.681097	1.410543	0.666632
C253	C	0.102591	0.731713	-0.000045
C254	C	0.435924	1.065047	0.333289
C255	C	0.769257	1.398380	0.666622
C256	C	0.103099	0.782126	-0.000042
C257	C	0.436433	1.115459	0.333291
C258	C	0.769766	1.448793	0.666624
C259	C	0.059269	0.813415	-0.000033
C260	C	0.392603	1.146748	0.333300
C261	C	0.725936	1.480082	0.666634
O262	O	0.141369	0.856712	-0.000057
O263	O	0.474702	1.190045	0.333277
O264	O	0.808036	1.523378	0.666610
O265	O	-0.021740	0.879260	-0.000011
O266	O	0.311593	1.212593	0.333323
O267	O	0.644926	1.545927	0.666656
C268	C	0.018061	1.101813	-0.000015
C269	C	0.351394	1.435146	0.333318
C270	C	0.684727	1.768479	0.666652
C271	C	0.062395	1.120934	-0.000018
C272	C	0.395729	1.454267	0.333316
C273	C	0.729062	1.787601	0.666649
C274	C	0.106217	1.089643	-0.000024
C275	C	0.439551	1.422977	0.333310
C276	C	0.772884	1.756310	0.666643
C277	C	0.062908	1.171348	-0.000019
C278	C	0.396242	1.504682	0.333314
C279	C	0.729575	1.838015	0.666647
C280	C	0.019086	1.202639	-0.000013
C281	C	0.352419	1.535972	0.333320
C282	C	0.685753	1.869306	0.666653
C283	C	-0.025249	1.183515	-0.000006
C284	C	0.308084	1.516849	0.333327
C285	C	0.641417	1.850182	0.666661
C286	C	-0.025761	1.133103	-0.000009
C287	C	0.307572	1.466437	0.333324
C288	C	0.640905	1.799770	0.666658
C289	C	0.150553	1.108767	-0.000031
C290	C	0.483886	1.442100	0.333302
C291	C	0.817219	1.775434	0.666636
C292	C	0.151061	1.159180	-0.000029
C293	C	0.484395	1.492513	0.333305
C294	C	0.817728	1.825846	0.666638
C295	C	0.107239	1.190470	-0.000023
C296	C	0.440572	1.523804	0.333311
C297	C	0.773906	1.857137	0.666644
N298	N	0.061885	0.570563	-0.129278
N299	N	0.395218	0.903896	0.204055
N300	N	0.728552	1.237230	0.537388
C301	C	0.090999	0.599633	0.473837
C302	C	0.424333	0.932966	0.807170
C303	C	0.757666	1.266299	1.140504
C304	C	0.090999	0.599648	0.682715
C305	C	0.424332	0.932982	1.016048
C306	C	0.757666	1.266315	1.349381
O307	O	0.115745	0.624410	0.709714
O308	O	0.449078	0.957743	1.043048
O309	O	0.782412	1.291076	1.376381
N310	N	0.061884	0.570554	0.708843
N311	N	0.395217	0.903887	1.042176
N312	N	0.728550	1.237221	1.375510
C313	C	0.032764	0.541456	0.682749
C314	C	0.366097	0.874789	1.016082
C315	C	0.699431	1.208122	1.349416
O316	O	0.007996	0.516713	0.709765
O317	O	0.341329	0.850046	1.043099
O318	O	0.674663	1.183380	1.376432
C319	C	0.032762	0.541443	0.473872
C320	C	0.366095	0.874776	0.807205
C321	C	0.699429	1.208110	1.140539
C322	C	0.061883	0.570536	0.447746
C323	C	0.395216	0.903869	0.781080
C324	C	0.728550	1.237202	1.114413
C325	C	0.120117	0.628724	0.447711
C326	C	0.453451	0.962057	0.781045
C327	C	0.786784	1.295390	1.114378
C328	C	0.120119	0.628717	0.395495
C329	C	0.453453	0.962051	0.728828
C330	C	0.786786	1.295384	1.062162
C331	C	0.091003	0.599620	0.369404
C332	C	0.424336	0.932954	0.702738
C333	C	0.757670	1.266287	1.036071
C334	C	0.061885	0.570530	0.395530
C335	C	0.395218	0.903863	0.728863
C336	C	0.728552	1.237196	1.062197
C337	C	0.003640	0.512348	0.447779
C338	C	0.336974	0.845681	0.781112
C339	C	0.670307	1.179014	1.114446
C340	C	0.003641	0.512348	0.395556
C341	C	0.336975	0.845681	0.728890
C342	C	0.670308	1.179015	1.062223
C343	C	0.032762	0.541441	0.369431
C344	C	0.366096	0.874774	0.702764
C345	C	0.699429	1.208108	1.036097
C346	C	0.032770	0.541426	0.317223
C347	C	0.366104	0.874760	0.650557
C348	C	0.699437	1.208093	0.983890
N349	N	0.061886	0.570521	0.291095
N350	N	0.395219	0.903854	0.624428
N351	N	0.728552	1.237188	0.957762
C352	C	0.091002	0.599618	0.317185
C353	C	0.424335	0.932951	0.650519
C354	C	0.757669	1.266285	0.983852
C355	C	0.032768	0.541464	0.792412
C356	C	0.366101	0.874797	1.125745
C357	C	0.699434	1.208130	1.459079
C358	C	0.032769	0.541466	0.844631
C359	C	0.366102	0.874799	1.177964
C360	C	0.699435	1.208133	1.511298
C361	C	0.091003	0.599660	0.844593
C362	C	0.424336	0.932993	1.177927
C363	C	0.757670	1.266326	1.511260
C364	C	0.091004	0.599654	0.792373
C365	C	0.424338	0.932988	1.125707
C366	C	0.757671	1.266321	1.459040
C367	C	0.061883	0.570558	0.766284
C368	C	0.395216	0.903892	1.099617
C369	C	0.728550	1.237225	1.432950
C370	C	0.091004	0.599602	0.207528
C371	C	0.424337	0.932936	0.540861
C372	C	0.757671	1.266269	0.874194
C373	C	0.091005	0.599592	0.155307
C374	C	0.424338	0.932926	0.488640
C375	C	0.757671	1.266259	0.821973
C376	C	0.032769	0.541401	0.155349
C377	C	0.366102	0.874734	0.488682
C378	C	0.699435	1.208067	0.822016
C379	C	0.032769	0.541409	0.207565
C380	C	0.366103	0.874742	0.540899
C381	C	0.699436	1.208076	0.874232
C382	C	0.061889	0.570514	0.233653
C383	C	0.395222	0.903847	0.566987
C384	C	0.728555	1.237180	0.900320
O385	O	0.008033	0.516682	0.290192
O386	O	0.341367	0.850016	0.623525
O387	O	0.674700	1.183349	0.956858
O388	O	0.115758	0.624365	0.290160
O389	O	0.449092	0.957698	0.623493
O390	O	0.782425	1.291032	0.956827
C391	C	0.090998	0.599639	0.526053
C392	C	0.424331	0.932972	0.859387
C393	C	0.757664	1.266306	1.192720
C394	C	0.061879	0.570548	0.552179
C395	C	0.395213	0.903882	0.885512
C396	C	0.728546	1.237215	1.218846
C397	C	0.032763	0.541451	0.526088
C398	C	0.366096	0.874784	0.859422
C399	C	0.699430	1.208118	1.192755
C400	C	0.061880	0.570551	0.604398
C401	C	0.395214	0.903884	0.937731
C402	C	0.728547	1.237217	1.271065
C403	C	0.090997	0.599648	0.630489
C404	C	0.424330	0.932981	0.963822
C405	C	0.757663	1.266314	1.297155
C406	C	0.120112	0.628742	0.604360
C407	C	0.453445	0.962076	0.937694
C408	C	0.786779	1.295409	1.271027
C409	C	0.120114	0.628736	0.552144
C410	C	0.453447	0.962069	0.885477
C411	C	0.786781	1.295403	1.218811
C412	C	0.003648	0.512357	0.552217
C413	C	0.336981	0.845690	0.885550
C414	C	0.670315	1.179023	1.218884
C415	C	0.003649	0.512365	0.604433
C416	C	0.336982	0.845698	0.937767
C417	C	0.670315	1.179031	1.271100
C418	C	0.032765	0.541462	0.630524
C419	C	0.366098	0.874795	0.963857
C420	C	0.699432	1.208128	1.297190
H421	H	-0.095896	0.654093	-0.000014
H422	H	0.237438	0.987426	0.333319
H423	H	0.570771	1.320759	0.666652
H424	H	-0.187348	0.653168	-0.000031
H425	H	0.145985	0.986501	0.333303
H426	H	0.479319	1.319835	0.666636
H427	H	-0.710950	0.647846	-0.000046
H428	H	-0.377617	0.981179	0.333287
H429	H	-0.044283	1.314513	0.666621
F430	F	-0.170060	0.482127	-0.000016
F431	F	0.163273	0.815461	0.333317
F432	F	0.496606	1.148794	0.666651
F433	F	-0.329109	0.706905	-0.000043
F434	F	0.004225	1.040238	0.333290
F435	F	0.337558	1.373572	0.666623
F436	F	-0.433159	0.705848	-0.000043
F437	F	-0.099826	1.039181	0.333291
F438	F	0.233508	1.372514	0.666624
H439	H	-0.063403	0.966305	-0.000014
H440	H	0.269930	1.299638	0.333319
H441	H	0.603264	1.632971	0.666652
H442	H	-0.020752	0.819764	-0.000022
H443	H	0.312581	1.153097	0.333311
H444	H	0.645914	1.486430	0.666645
F445	F	0.196725	1.028276	-0.000030
F446	F	0.530059	1.361609	0.333304
F447	F	0.863392	1.694942	0.666637
F448	F	-0.065987	0.483189	-0.000016
F449	F	0.267346	0.816522	0.333318
F450	F	0.600679	1.149856	0.666651
F451	F	0.151120	0.659676	0.367697
F452	F	0.484454	0.993010	0.701030
F453	F	0.817787	1.326343	1.034363
H454	H	-0.802415	0.646911	-0.000053
H455	H	-0.469082	0.980245	0.333280
H456	H	-0.135749	1.313578	0.666614
H457	H	0.145452	1.412741	-0.000041
H458	H	0.478785	1.746075	0.333292
H459	H	0.812118	2.079408	0.666626
F460	F	0.151110	0.659696	0.475471
F461	F	0.484443	0.993029	0.808804
F462	F	0.817776	1.326362	1.142138
H463	H	-0.062473	1.057752	-0.000009
H464	H	0.270860	1.391085	0.333325
H465	H	0.604193	1.724419	0.666658
H466	H	-0.020074	0.488654	0.374317
H467	H	0.313260	0.821988	0.707650
H468	H	0.646593	1.155321	1.040984
F469	F	0.121997	0.630620	0.764573
F470	F	0.455330	0.963953	1.097907
F471	F	0.788664	1.297287	1.431240
F472	F	-0.785106	0.475878	-0.000043
F473	F	-0.451773	0.809211	0.333290
F474	F	-0.118439	1.142545	0.666624
H475	H	-0.450879	0.446177	-0.000046
H476	H	-0.117545	0.779510	0.333287
H477	H	0.215788	1.112844	0.666620
F478	F	0.121990	0.630628	0.872370
F479	F	0.455324	0.963961	1.205703
F480	F	0.788657	1.297295	1.539036
H481	H	-0.021677	0.728311	-0.000034
H482	H	0.311656	1.061645	0.333299
H483	H	0.644990	1.394978	0.666633
F484	F	0.001781	0.510495	0.872430
F485	F	0.335115	0.843828	1.205764
F486	F	0.668448	1.177161	1.539097
H487	H	-0.015430	1.343366	-0.000019
H488	H	0.317903	1.676699	0.333314
H489	H	0.651236	2.010033	0.666647
H490	H	0.184706	0.932045	-0.000024
H491	H	0.518039	1.265378	0.333309
H492	H	0.851372	1.598712	0.666642
F493	F	-0.395860	0.435691	-0.000053
F494	F	-0.062526	0.769024	0.333280
F495	F	0.270807	1.102357	0.666613
F496	F	0.150289	0.802476	-0.000051
F497	F	0.483622	1.135810	0.333282
F498	F	0.816955	1.469143	0.666615
F499	F	-0.480345	0.705368	-0.000049
F500	F	-0.147011	1.038702	0.333284
F501	F	0.186322	1.372035	0.666618
H502	H	0.009063	0.517713	0.228838
H503	H	0.342396	0.851046	0.562171
H504	H	0.675730	1.184380	0.895505
H505	H	-0.576585	0.693347	-0.000053
H506	H	-0.243252	1.026680	0.333280
H507	H	0.090081	1.360013	0.666614
F508	F	-0.025453	1.442656	-0.000014
F509	F	0.307880	1.775989	0.333319
F510	F	0.641214	2.109323	0.666653
H511	H	0.186239	1.083295	-0.000035
H512	H	0.519572	1.416628	0.333298
H513	H	0.852905	1.749961	0.666631
H514	H	0.114721	0.623283	0.134037
H515	H	0.448054	0.956616	0.467371
H516	H	0.781387	1.289950	0.800704
F517	F	0.149227	0.698403	-0.000054
F518	F	0.482560	1.031736	0.333280
F519	F	0.815894	1.365070	0.666613
F520	F	-0.072952	1.112760	-0.000009
F521	F	0.260381	1.446094	0.333325
F522	F	0.593714	1.779427	0.666658
H523	H	-0.688875	0.487892	-0.000050
H524	H	-0.355542	0.821225	0.333283
H525	H	-0.022208	1.154558	0.666616
F526	F	0.155482	1.313467	-0.000035
F527	F	0.488816	1.646801	0.333298
F528	F	0.822149	1.980134	0.666631
H529	H	-0.060931	1.209001	-0.000004
H530	H	0.272403	1.542335	0.333329
H531	H	0.605736	1.875668	0.666663
F532	F	0.001778	0.510486	0.764652
F533	F	0.335111	0.843820	1.097985
F534	F	0.668445	1.177153	1.431319
F535	F	-0.027355	0.481382	0.475573
F536	F	0.305979	0.814716	0.808906
F537	F	0.639312	1.148049	1.142239
F538	F	-0.291805	0.436752	-0.000052
F539	F	0.041528	0.770086	0.333282
F540	F	0.374862	1.103419	0.666615
F541	F	0.198255	1.179523	-0.000035
F542	F	0.531589	1.512856	0.333298
F543	F	0.864922	1.846190	0.666632
H544	H	-0.542327	0.445246	-0.000049
H545	H	-0.208993	0.778580	0.333285
H546	H	0.124340	1.111913	0.666618
F547	F	0.121995	0.630579	0.235285
F548	F	0.455329	0.963912	0.568618
F549	F	0.788662	1.297246	0.901952
F550	F	0.001784	0.510434	0.127572
F551	F	0.335117	0.843767	0.460906
F552	F	0.668450	1.177101	0.794239
F553	F	0.151111	0.659698	0.524346
F554	F	0.484445	0.993032	0.857679
F555	F	0.817778	1.326365	1.191012
F556	F	0.151102	0.659708	0.632137
F557	F	0.484435	0.993041	0.965470
F558	F	0.817768	1.326374	1.298804
H559	H	-0.020064	0.488669	0.625700
H560	H	0.313270	0.822002	0.959034
H561	H	0.646603	1.155336	1.292367
F562	F	-0.027338	0.481380	0.524456
F563	F	0.305996	0.814713	0.857790
F564	F	0.639329	1.148047	1.191123
