data_functionalizedCrystal
_audit_creation_method	'MofGen! by Chris Wilmer'
_symmetry_space_group_name_H-M	'P1'
_symmetry_Int_Tables_number	1
_symmetry_cell_setting	triclinic
loop_
_symmetry_equiv_pos_as_xyz
  x,y,z
_cell_length_a	11.169417
_cell_length_b	12.827892
_cell_length_c	11.169409
_cell_angle_alpha	90.033276
_cell_angle_beta	90.019824
_cell_angle_gamma	90.016270
loop_
_atom_site_label
_atom_site_type_symbol
_atom_site_fract_x
_atom_site_fract_y
_atom_site_fract_z
Zn1	Zn	1.834920	-0.415924	0.678535
Zn2	Zn	2.334920	0.084076	1.178535
Zn3	Zn	1.834792	-0.590711	0.477849
Zn4	Zn	2.334792	-0.090711	0.977849
Zn5	Zn	1.634206	-0.415988	0.477869
Zn6	Zn	2.134206	0.084012	0.977869
Zn7	Zn	1.634196	-0.590626	0.678493
Zn8	Zn	2.134196	-0.090626	1.178493
O9	O	1.734528	-0.503312	0.578187
O10	O	2.234528	-0.003312	1.078187
O11	O	2.002853	-0.439119	0.651922
O12	O	2.502853	0.060881	1.151922
O13	O	1.808134	-0.567596	0.309901
O14	O	2.308134	-0.067596	0.809901
O15	O	1.660889	-0.269743	0.504514
O16	O	2.160889	0.230257	1.004514
O17	O	2.002759	-0.567534	0.504479
O18	O	2.502759	-0.067534	1.004479
O19	O	1.808353	-0.269696	0.651942
O20	O	2.308353	0.230304	1.151942
O21	O	1.660765	-0.439227	0.309917
O22	O	2.160765	0.060773	0.809917
O23	O	1.466255	-0.439145	0.504474
O24	O	1.966255	0.060855	1.004474
O25	O	1.660872	-0.567389	0.846449
O26	O	2.160872	-0.067389	1.346449
O27	O	1.466248	-0.567451	0.651871
O28	O	1.966248	-0.067451	1.151871
O29	O	1.808343	-0.439036	0.846479
O30	O	2.308343	0.060964	1.346479
O31	O	1.808124	-0.736936	0.504438
O32	O	2.308124	-0.236936	1.004438
O33	O	1.660747	-0.736874	0.651851
O34	O	2.160747	-0.236874	1.151851
C35	C	1.422704	-0.503296	0.578171
C36	C	1.922704	-0.003296	1.078171
C37	C	1.289304	-0.503315	0.578193
C38	C	1.789304	-0.003315	1.078193
C39	C	1.734453	-0.774822	0.578164
C40	C	2.234453	-0.274822	1.078164
C41	C	1.734531	-0.890975	0.578195
C42	C	2.234531	-0.390975	1.078195
C43	C	1.807468	-0.942654	0.651213
C44	C	2.307468	-0.442654	1.151213
C45	C	1.807550	-1.062704	0.651246
C46	C	2.307550	-0.562704	1.151246
C47	C	2.047571	-0.503329	0.578203
C48	C	2.547571	-0.003329	1.078203
C49	C	2.180971	-0.503336	0.578210
C50	C	2.680971	-0.003336	1.078210
C51	C	1.734621	-0.503196	0.891229
C52	C	2.234621	-0.003196	1.391229
C53	C	1.734660	-0.503147	1.024629
C54	C	2.234660	-0.003147	1.524629
C55	C	1.734637	-0.230742	0.578235
C56	C	2.234637	0.269258	1.078235
C57	C	1.734683	-0.114589	0.578256
C58	C	2.234683	0.385411	1.078256
C59	C	1.734506	-0.503352	0.266362
C60	C	2.234506	-0.003352	0.766362
C61	C	1.734699	-0.503108	0.132962
C62	C	2.234699	-0.003108	0.632962
H63	H	1.869999	-1.107146	0.713755
H64	H	2.369999	-0.607146	1.213755
H65	H	1.672239	-1.070154	0.515734
H66	H	2.172239	-0.570154	1.015734
C67	C	1.651212	-0.950289	0.494822
C68	C	2.151212	-0.450289	0.994822
C69	C	1.583886	-0.879347	0.427472
C70	C	2.083886	-0.379347	0.927472
C71	C	1.507106	-0.933945	0.350666
C72	C	2.007106	-0.433945	0.850666
H73	H	1.697089	-0.992876	0.442520
H74	H	2.197089	-0.492876	0.942520
H75	H	1.598902	-0.992851	0.540718
H76	H	2.098902	-0.492851	1.040718
H77	H	1.636189	-0.836803	0.381580
H78	H	2.136189	-0.336803	0.881580
H79	H	1.537985	-0.836757	0.479743
H80	H	2.037985	-0.336757	0.979743
H81	H	1.454797	-0.976507	0.396563
H82	H	1.954797	-0.476507	0.896563
H83	H	1.552993	-0.976531	0.298372
H84	H	2.052993	-0.476531	0.798372
H85	H	1.461409	-0.885820	0.304968
H86	H	1.961409	-0.385820	0.804968
C87	C	1.890610	-0.882964	0.734408
C88	C	2.390610	-0.382964	1.234408
C89	C	1.874028	-0.775758	0.717806
C90	C	2.374028	-0.275758	1.217806
C91	C	1.950611	-0.720742	0.794416
C92	C	2.450611	-0.220742	1.294416
H93	H	1.873112	-0.900630	0.815105
H94	H	2.373112	-0.400630	1.315105
H95	H	1.971315	-0.900689	0.716923
H96	H	2.471315	-0.400689	1.216923
H97	H	1.793341	-0.758039	0.735300
H98	H	2.293341	-0.258039	1.235300
H99	H	1.891534	-0.758061	0.637125
H100	H	2.391534	-0.258061	1.137125
H101	H	2.031316	-0.738468	0.776930
H102	H	2.531316	-0.238468	1.276930
H103	H	1.933107	-0.738417	0.875108
H104	H	2.433107	-0.238417	1.375108
H105	H	1.939379	-0.647998	0.783154
H106	H	2.439379	-0.147998	1.283154
