data_functionalizedCrystal
_audit_creation_method	'MofGen! by Chris Wilmer'
_symmetry_space_group_name_H-M	'P1'
_symmetry_Int_Tables_number	1
_symmetry_cell_setting	triclinic
loop_
_symmetry_equiv_pos_as_xyz
  x,y,z
_cell_length_a	12.827893
_cell_length_b	12.827892
_cell_length_c	10.686551
_cell_angle_alpha	85.594922
_cell_angle_beta	85.605088
_cell_angle_gamma	90.015363
loop_
_atom_site_label
_atom_site_type_symbol
_atom_site_fract_x
_atom_site_fract_y
_atom_site_fract_z
Zn1	Zn	1.643030	-0.370628	-0.713447
Zn2	Zn	1.976364	-0.037294	-0.380114
Zn3	Zn	2.309697	0.296039	-0.046780
Zn4	Zn	1.629509	-0.558819	-0.502448
Zn5	Zn	1.962843	-0.225485	-0.169115
Zn6	Zn	2.296176	0.107848	0.164219
Zn7	Zn	1.454858	-0.384091	-0.502465
Zn8	Zn	1.788191	-0.050758	-0.169131
Zn9	Zn	2.121524	0.282576	0.164202
Zn10	Zn	1.468254	-0.545330	-0.713400
Zn11	Zn	1.801587	-0.211997	-0.380067
Zn12	Zn	2.134921	0.121336	-0.046733
O13	O	1.548913	-0.464717	-0.607940
O14	O	1.882246	-0.131384	-0.274607
O15	O	2.215580	0.201950	0.058727
O16	O	1.787474	-0.395602	-0.685470
O17	O	2.120807	-0.062269	-0.352137
O18	O	2.454140	0.271065	-0.018804
O19	O	1.595076	-0.546920	-0.325869
O20	O	1.928410	-0.213587	0.007464
O21	O	2.261743	0.119746	0.340798
O22	O	1.479871	-0.236067	-0.530479
O23	O	1.813205	0.097266	-0.197145
O24	O	2.146538	0.430599	0.136188
O25	O	1.777540	-0.533865	-0.530450
O26	O	2.110873	-0.200532	-0.197117
O27	O	2.444206	0.132801	0.136217
O28	O	1.618121	-0.226176	-0.685487
O29	O	1.951454	0.107158	-0.352153
O30	O	2.284788	0.440491	-0.018820
O31	O	1.466760	-0.418549	-0.325881
O32	O	1.800094	-0.085215	0.007452
O33	O	2.133427	0.248118	0.340785
O34	O	1.310398	-0.405469	-0.530433
O35	O	1.643731	-0.072136	-0.197100
O36	O	1.977065	0.261197	0.136234
O37	O	1.502704	-0.510876	-0.889987
O38	O	1.836037	-0.177543	-0.556654
O39	O	2.169370	0.155791	-0.223321
O40	O	1.320240	-0.523931	-0.685406
O41	O	1.653574	-0.190598	-0.352073
O42	O	1.986907	0.142736	-0.018739
O43	O	1.631111	-0.382523	-0.890022
O44	O	1.964445	-0.049189	-0.556689
O45	O	2.297778	0.284144	-0.223355
O46	O	1.608066	-0.703267	-0.530404
O47	O	1.941400	-0.369934	-0.197071
O48	O	2.274733	-0.036601	0.136262
O49	O	1.489593	-0.693357	-0.685390
O50	O	1.822926	-0.360024	-0.352056
O51	O	2.156259	-0.026691	-0.018723
C52	C	1.277402	-0.464698	-0.607917
C53	C	1.610735	-0.131365	-0.274584
C54	C	1.944068	0.201968	0.058750
C55	C	1.161250	-0.464713	-0.607937
C56	C	1.494583	-0.131380	-0.274604
C57	C	1.827916	0.201953	0.058730
C58	C	1.548846	-0.736228	-0.607918
C59	C	1.882179	-0.402895	-0.274584
C60	C	2.215513	-0.069562	0.058749
C61	C	1.548916	-0.852379	-0.607950
C62	C	1.882249	-0.519046	-0.274617
C63	C	2.215583	-0.185713	0.058716
C64	C	0.994345	-0.396419	-0.684785
C65	C	1.327678	-0.063086	-0.351451
C66	C	1.661012	0.270248	-0.018118
C67	C	1.114394	-0.396402	-0.684766
C68	C	1.447727	-0.063068	-0.351432
C69	C	1.781061	0.270265	-0.018099
C70	C	1.607621	-0.909028	-0.531344
C71	C	1.940954	-0.575694	-0.198010
C72	C	2.274288	-0.242361	0.135323
C73	C	1.607694	-1.029076	-0.531376
C74	C	1.941028	-0.695743	-0.198042
C75	C	2.274361	-0.362409	0.135291
C76	C	1.821485	-0.464736	-0.607964
C77	C	2.154818	-0.131403	-0.274630
C78	C	2.488151	0.201930	0.058703
C79	C	1.937638	-0.464745	-0.607974
C80	C	2.270972	-0.131411	-0.274640
C81	C	2.604305	0.201922	0.058693
C82	C	1.569910	-0.443693	-0.937070
C83	C	1.903243	-0.110360	-0.603737
C84	C	2.236577	0.222974	-0.270404
C85	C	1.578858	-0.434734	-1.077326
C86	C	1.912191	-0.101400	-0.743993
C87	C	2.245525	0.231933	-0.410659
C88	C	1.549010	-0.192144	-0.607990
C89	C	1.882343	0.141190	-0.274657
C90	C	2.215677	0.474523	0.058677
C91	C	1.549052	-0.075989	-0.608011
C92	C	1.882385	0.257344	-0.274678
C93	C	2.215718	0.590678	0.058656
C94	C	1.528058	-0.485584	-0.280090
C95	C	1.861391	-0.152250	0.053243
C96	C	2.194724	0.181083	0.386577
C97	C	1.519312	-0.494248	-0.139835
C98	C	1.852646	-0.160915	0.193498
C99	C	2.185979	0.172418	0.526832
H100	H	1.163141	-0.337901	-0.750520
H101	H	1.496474	-0.004568	-0.417187
H102	H	1.829808	0.328765	-0.083854
H103	H	0.954018	-0.337939	-0.750564
H104	H	1.287351	-0.004606	-0.417231
H105	H	1.620685	0.328727	-0.083897
H106	H	0.977966	-0.523233	-0.542206
H107	H	1.311299	-0.189900	-0.208873
H108	H	1.644633	0.143433	0.124460
H109	H	1.498785	-1.027299	-0.673596
H110	H	1.832118	-0.693966	-0.340263
H111	H	2.165451	-0.360633	-0.006929
O112	O	1.674154	-0.855559	-0.444455
O113	O	2.007487	-0.522226	-0.111122
O114	O	2.340820	-0.188893	0.222212
H115	H	1.663663	-0.769658	-0.458073
H116	H	1.996996	-0.436325	-0.124740
H117	H	2.330329	-0.102992	0.208593
H118	H	1.112509	-0.523211	-0.542171
H119	H	1.445842	-0.189877	-0.208837
H120	H	1.779175	0.143456	0.124496
O121	O	1.655446	-0.358135	-1.148559
O122	O	1.988779	-0.024801	-0.815226
O123	O	2.322112	0.308532	-0.481892
H124	H	1.650681	-0.362865	-1.251239
H125	H	1.984015	-0.029532	-0.917905
H126	H	2.317348	0.303802	-0.584572
H127	H	1.657951	-1.077774	-0.465786
H128	H	1.991284	-0.744441	-0.132453
H129	H	2.324618	-0.411107	0.200880
O130	O	1.482400	-0.905855	-0.694850
O131	O	1.815733	-0.572522	-0.361517
O132	O	2.149067	-0.239188	-0.028184
H133	H	1.533294	-0.951431	-0.759054
H134	H	1.866627	-0.618098	-0.425721
H135	H	2.199961	-0.284765	-0.092388
O136	O	1.442706	-0.570821	-1.068608
O137	O	1.776039	-0.237487	-0.735274
O138	O	2.109373	0.095846	-0.401941
H139	H	1.447455	-0.566071	-0.965928
H140	H	1.780788	-0.232738	-0.632595
H141	H	2.114122	0.100596	-0.299261
