data_functionalizedCrystal
_audit_creation_method	'MofGen! by Chris Wilmer'
_symmetry_space_group_name_H-M	'P1'
_symmetry_Int_Tables_number	1
_symmetry_cell_setting	triclinic
loop_
_symmetry_equiv_pos_as_xyz
  x,y,z
_cell_length_a	27.731988
_cell_length_b	9.016244
_cell_length_c	10.540539
_cell_angle_alpha	89.996950
_cell_angle_beta	83.571930
_cell_angle_gamma	90.002504
loop_
_atom_site_label
_atom_site_type_symbol
_atom_site_fract_x
_atom_site_fract_y
_atom_site_fract_z
O1	O	-0.641894	0.123139	-0.150669
O2	O	-0.501241	0.123183	-0.173712
O3	O	-0.574776	0.123161	0.022657
O4	O	-0.568358	0.123161	-0.347038
O5	O	-0.574772	-0.123520	0.022669
O6	O	-0.501237	-0.123498	-0.173700
O7	O	-0.641889	-0.123542	-0.150658
Cu8	Cu	-0.571563	-0.146044	-0.162178
Cu9	Cu	-0.571568	0.145685	-0.162191
O10	O	-0.568354	-0.123520	-0.347027
C11	C	-0.483229	-0.000152	-0.173234
C12	C	-0.429563	-0.000135	-0.171813
C13	C	-0.096785	-0.134667	-0.162854
C14	C	0.104907	-0.134690	-0.157451
O15	O	0.130987	-0.249048	-0.156693
N16	N	0.130124	-0.000225	-0.156786
C17	C	0.104914	0.134255	-0.157464
O18	O	0.130990	0.248625	-0.156761
C19	C	-0.096778	0.134276	-0.162858
C20	C	-0.121991	-0.000198	-0.163536
C21	C	-0.121999	-0.269130	-0.163531
C22	C	-0.172419	-0.269123	-0.164888
C23	C	-0.197625	-0.134653	-0.165570
C24	C	-0.172411	-0.000191	-0.164893
C25	C	-0.121987	0.268754	-0.163526
C26	C	-0.172413	0.268748	-0.164872
C27	C	-0.197627	0.134274	-0.165549
C28	C	-0.248037	0.134286	-0.166932
N29	N	-0.273254	-0.000179	-0.167597
C30	C	-0.248048	-0.134648	-0.166916
C31	C	0.210806	0.134234	-0.154634
C32	C	0.261229	0.134229	-0.153288
C33	C	0.261218	-0.134716	-0.153273
C34	C	0.210795	-0.134710	-0.154628
C35	C	0.185589	-0.000231	-0.155299
C36	C	-0.353933	-0.134624	-0.169768
C37	C	-0.404357	-0.134605	-0.171131
C38	C	-0.404342	0.134340	-0.171140
C39	C	-0.353922	0.134322	-0.169783
C40	C	-0.328719	-0.000172	-0.169093
O41	O	-0.274148	0.248584	-0.167677
O42	O	-0.274134	-0.249001	-0.167591
C43	C	-0.046365	-0.134674	-0.161497
C44	C	-0.021152	-0.000212	-0.160820
C45	C	-0.046358	0.134258	-0.161502
C46	C	0.029271	-0.000217	-0.159474
C47	C	0.054477	-0.134686	-0.158793
C48	C	0.029260	-0.269151	-0.159458
C49	C	-0.021159	-0.269144	-0.160815
C50	C	-0.021141	0.268723	-0.160837
C51	C	0.029279	0.268705	-0.159480
C52	C	0.054485	0.134235	-0.158799
N53	N	-0.571563	-0.351230	-0.162168
C54	C	-0.610921	-0.414166	-0.057135
C55	C	-0.611068	-0.586057	-0.057415
C56	C	-0.582833	-0.586704	-0.294573
C57	C	-0.583111	-0.414759	-0.293942
C58	C	-0.520828	-0.414603	-0.136018
C59	C	-0.521163	-0.586559	-0.133016
C60	C	0.340099	-0.000211	-0.151148
C61	C	0.286435	-0.000240	-0.152607
C62	C	-0.568838	-0.000180	-0.394314
C63	C	-0.570278	-0.000181	-0.535199
N64	N	-0.571572	0.350871	-0.162191
C65	C	-0.625454	0.000372	-0.716199
C66	C	-0.623995	-0.000195	-0.569645
C67	C	-0.544424	-0.141035	-0.597996
C68	C	-0.546258	-0.141142	-0.744459
C69	C	-0.545170	0.139380	-0.745022
C70	C	-0.544675	0.141230	-0.598062
C71	C	-0.574293	-0.000176	0.069945
C72	C	-0.572853	-0.000165	0.210829
H73	H	0.190288	0.243749	-0.155180
N74	N	-0.632135	-0.361627	-0.324544
H75	H	-0.632806	-0.249627	-0.324436
H76	H	-0.638224	-0.399448	-0.411522
H77	H	-0.192944	-0.378625	-0.165433
N78	N	-0.480518	-0.643394	-0.227838
H79	H	-0.456575	-0.700504	-0.181257
H80	H	-0.494303	-0.710752	-0.291320
H81	H	-0.506367	0.140327	-0.793935
N82	N	-0.492171	-0.147989	-0.570686
H83	H	-0.474394	-0.056736	-0.606405
H84	H	-0.490886	-0.152542	-0.475386
H85	H	-0.604325	-0.628266	0.041006
N86	N	-0.326721	0.279350	-0.169051
H87	H	-0.302146	0.285347	-0.247193
H88	H	-0.350372	0.364457	-0.169643
N89	N	-0.094818	-0.414178	-0.162792
H90	H	-0.118488	-0.499341	-0.162558
H91	H	-0.070475	-0.420482	-0.241385
H92	H	-0.424874	0.243822	-0.171700
H93	H	-0.555468	-0.373123	-0.374238
H94	H	-0.554941	-0.627555	-0.374600
H95	H	0.049792	-0.378641	-0.158909
N96	N	-0.094804	0.413800	-0.162778
H97	H	-0.077536	0.419785	-0.083502
H98	H	-0.070257	0.419737	-0.240978
N99	N	-0.631298	-0.643738	-0.325988
H100	H	-0.646024	-0.709998	-0.254663
H101	H	-0.653675	-0.557220	-0.336149
N102	N	-0.602124	-0.359454	0.073691
H103	H	-0.572542	-0.293331	0.066148
H104	H	-0.631313	-0.301520	0.112302
N105	N	-0.199600	0.413796	-0.165586
H106	H	-0.175973	0.498973	-0.164951
H107	H	-0.216870	0.419671	-0.244861
H108	H	-0.041684	-0.378647	-0.161367
N109	N	-0.660941	-0.640521	-0.079444
H110	H	-0.669397	-0.602638	-0.164377
H111	H	-0.661224	-0.752532	-0.079639
H112	H	-0.562384	-0.245873	-0.554620
N113	N	-0.660500	-0.356834	-0.078794
H114	H	-0.657577	-0.290283	-0.156356
H115	H	-0.682480	-0.443177	-0.092911
H116	H	-0.562555	0.246146	-0.775815
N117	N	-0.569695	0.279269	-0.542743
H118	H	-0.597498	0.250340	-0.477232
H119	H	-0.545748	0.341771	-0.500780
H120	H	-0.505512	0.149751	-0.575556
H121	H	-0.646605	-0.099986	-0.745595
N122	N	0.056471	0.413754	-0.158754
H123	H	0.032847	0.498933	-0.159387
H124	H	0.073738	0.419603	-0.079472
H125	H	-0.041659	0.378227	-0.161388
N126	N	-0.506570	-0.357185	-0.010914
H127	H	-0.532856	-0.289500	0.030080
H128	H	-0.502181	-0.443440	0.047842
N129	N	-0.509845	-0.640600	-0.004026
H130	H	-0.537253	-0.705346	0.035356
H131	H	-0.478742	-0.699821	-0.014546
H132	H	0.190269	-0.244210	-0.155182
H133	H	-0.491536	-0.373900	-0.212620
H134	H	-0.565362	-0.246445	-0.771820
N135	N	-0.431551	-0.279649	-0.171872
H136	H	-0.407929	-0.364832	-0.171232
H137	H	-0.456124	-0.285513	-0.093723
N138	N	-0.650956	0.133514	-0.512006
H139	H	-0.663897	0.193358	-0.581792
H140	H	-0.678843	0.099695	-0.448760
H141	H	-0.333418	-0.244141	-0.169218
H142	H	0.281754	0.243731	-0.152756
N143	N	0.288414	-0.279746	-0.152535
H144	H	0.306216	-0.284842	-0.074135
H145	H	0.264691	-0.364852	-0.151456
N146	N	-0.653566	0.134188	-0.752817
H147	H	-0.632479	0.195761	-0.817070
H148	H	-0.683419	0.100474	-0.791535
H149	H	-0.644475	-0.101355	-0.526990
H150	H	-0.507625	-0.147535	-0.794127
