data_functionalizedCrystal
_audit_creation_method	'MofGen! by Chris Wilmer'
_symmetry_space_group_name_H-M	'P1'
_symmetry_Int_Tables_number	1
_symmetry_cell_setting	triclinic
loop_
_symmetry_equiv_pos_as_xyz
  x,y,z
_cell_length_a	17.038275
_cell_length_b	16.098662
_cell_length_c	17.038272
_cell_angle_alpha	92.863855
_cell_angle_beta	88.888330
_cell_angle_gamma	87.130498
loop_
_atom_site_label
_atom_site_type_symbol
_atom_site_fract_x
_atom_site_fract_y
_atom_site_fract_z
O1	O	-1.052091	0.069135	0.173862
O2	O	-0.552091	0.569135	0.673862
O3	O	-0.824281	0.069163	0.171155
O4	O	-0.324281	0.569163	0.671155
O5	O	-0.936832	0.069143	0.058602
O6	O	-0.436832	0.569143	0.558602
O7	O	-0.939541	0.069156	0.286414
O8	O	-0.439541	0.569156	0.786414
O9	O	-0.930136	-0.069367	0.051941
O10	O	-0.430136	0.430633	0.551941
O11	O	-0.817585	-0.069347	0.164493
O12	O	-0.317585	0.430653	0.664493
O13	O	-1.045395	-0.069375	0.167200
O14	O	-0.545395	0.430625	0.667200
Zn15	Zn	-0.930427	-0.091352	0.164789
Zn16	Zn	-0.430427	0.408648	0.664789
Zn17	Zn	-0.939249	0.091141	0.173566
Zn18	Zn	-0.439249	0.591141	0.673566
O19	O	-0.932844	-0.069354	0.279753
O20	O	-0.432844	0.430646	0.779753
C21	C	-0.791641	-0.000088	0.165361
C22	C	-0.291641	0.499912	0.665361
C23	C	-0.704358	-0.000078	0.158013
C24	C	-0.204358	0.499922	0.658013
C25	C	-0.658749	-0.000074	0.225477
C26	C	-0.158749	0.499926	0.725477
C27	C	-0.576736	-0.000084	0.218568
C28	C	-0.076736	0.499916	0.718568
C29	C	-0.540335	-0.000093	0.144194
C30	C	-0.040335	0.499907	0.644194
C31	C	-0.585950	-0.000099	0.076725
C32	C	-0.085950	0.499901	0.576725
C33	C	-0.667960	-0.000095	0.083635
C34	C	-0.167960	0.499905	0.583635
C35	C	-0.292946	-0.000113	0.119782
C36	C	0.207054	0.499887	0.619782
C37	C	-0.210929	-0.000115	0.112877
C38	C	0.289071	0.499885	0.612877
C39	C	-0.201721	-0.000102	0.254720
C40	C	0.298279	0.499898	0.754720
C41	C	-0.283734	-0.000092	0.261624
C42	C	0.216266	0.499908	0.761624
C43	C	-0.329342	-0.000103	0.194155
C44	C	0.170658	0.499897	0.694155
C45	C	-0.456505	-0.000101	0.137129
C46	C	0.043495	0.499899	0.637129
C47	C	-0.413169	-0.000100	0.201220
C48	C	0.086831	0.499900	0.701220
N49	N	-0.924412	-0.215899	0.158799
N50	N	-0.424412	0.284101	0.658799
C51	C	-0.931021	-0.000112	0.025979
C52	C	-0.431021	0.499888	0.525979
C53	C	-0.923673	-0.000111	-0.061305
C54	C	-0.423673	0.499889	0.438695
C55	C	-0.078036	-0.000118	0.172993
C56	C	0.421964	0.499882	0.672993
C57	C	-0.165320	-0.000111	0.180341
C58	C	0.334680	0.499889	0.680341
C59	C	-0.896579	-0.740707	0.130834
C60	C	-0.396579	-0.240707	0.630834
C61	C	-0.900784	-0.653520	0.135055
C62	C	-0.400784	-0.153520	0.635055
C63	C	-0.953677	-0.609940	0.187996
C64	C	-0.453677	-0.109940	0.687996
C65	C	-1.002373	-0.653551	0.236714
C66	C	-0.502373	-0.153551	0.736714
C67	C	-0.998172	-0.740736	0.232489
C68	C	-0.498172	-0.240736	0.732489
C69	C	-0.968907	-0.346696	0.203292
C70	C	-0.468907	0.153304	0.703292
C71	C	-0.973103	-0.259504	0.207515
C72	C	-0.473103	0.240496	0.707515
C73	C	-0.871514	-0.259480	0.105854
C74	C	-0.371514	0.240520	0.605854
C75	C	-0.867314	-0.346667	0.101637
C76	C	-0.367314	0.153333	0.601637
C77	C	-0.916014	-0.390270	0.150352
C78	C	-0.416014	0.109730	0.650352
C79	C	-0.957974	-0.520820	0.192313
C80	C	-0.457974	-0.020820	0.692313
C81	C	-0.911720	-0.479388	0.146031
C82	C	-0.411720	0.020612	0.646031
N83	N	-0.945271	0.215687	0.179550
N84	N	-0.445271	0.715687	0.679550
C85	C	-0.991136	-0.000120	-0.106914
C86	C	-0.491136	0.499880	0.393086
C87	C	-0.984228	-0.000111	-0.188926
C88	C	-0.484228	0.499889	0.311074
C89	C	-0.909855	-0.000099	-0.225327
C90	C	-0.409855	0.499901	0.274673
C91	C	-0.842387	-0.000087	-0.179711
C92	C	-0.342387	0.499913	0.320289
C93	C	-0.849297	-0.000090	-0.097701
C94	C	-0.349297	0.499910	0.402299
C95	C	-0.885445	-0.000085	-0.472714
C96	C	-0.385445	0.499915	0.027286
C97	C	-0.878541	-0.000084	-0.554730
C98	C	-0.378541	0.499916	-0.054730
C99	C	-1.020382	-0.000106	-0.563940
C100	C	-0.520382	0.499894	-0.063940
C101	C	-1.027285	-0.000114	-0.481928
C102	C	-0.527285	0.499886	0.018072
C103	C	-0.959817	-0.000098	-0.436319
C104	C	-0.459817	0.499902	0.063681
C105	C	-0.902792	-0.000093	-0.309156
C106	C	-0.402792	0.499907	0.190844
C107	C	-0.966882	-0.000099	-0.352491
C108	C	-0.466882	0.499901	0.147509
C109	C	-0.938655	-0.000098	0.312376
C110	C	-0.438655	0.499902	0.812376
C111	C	-0.946004	-0.000094	0.399660
C112	C	-0.446004	0.499906	0.899660
H113	H	-0.330070	-0.000122	0.064843
H114	H	0.169930	0.499878	0.564843
Cl115	Cl	-1.030124	-0.401500	0.264540
Cl116	Cl	-0.530124	0.098500	0.764540
Cl117	Cl	-0.839546	-0.598706	0.073832
Cl118	Cl	-0.339546	-0.098706	0.573832
H119	H	-0.868657	-0.514875	0.102924
H120	H	-0.368657	-0.014875	0.602924
H121	H	-0.824245	-0.382144	0.058526
H122	H	-0.324245	0.117856	0.558526
Cl123	Cl	-1.024464	-0.466026	0.258867
Cl124	Cl	-0.524464	0.033974	0.758867
Cl125	Cl	-0.519402	-0.000074	0.303384
Cl126	Cl	-0.019402	0.499926	0.803384
Cl127	Cl	-0.410736	-0.000108	0.043634
Cl128	Cl	0.089264	0.499892	0.543634
Cl129	Cl	-1.084638	-0.000143	-0.061162
Cl130	Cl	-0.584638	0.499857	0.438838
H131	H	-0.181294	-0.000121	0.052310
H132	H	0.318706	0.499879	0.552310
Cl133	Cl	-0.540187	-0.000115	-0.016775
Cl134	Cl	-0.040187	0.499885	0.483225
H135	H	-1.027436	-0.000090	-0.322849
H136	H	-0.527436	0.499910	0.177151
H137	H	-0.830508	-0.000072	-0.435589
H138	H	-0.330508	0.499928	0.064411
Cl139	Cl	-0.809297	-0.000073	-0.354923
Cl140	Cl	-0.309297	0.499927	0.145077
Cl141	Cl	-1.059390	-0.795554	0.293731
Cl142	Cl	-0.559390	-0.295554	0.793731
Cl143	Cl	-0.830079	-0.795486	0.064280
Cl144	Cl	-0.330079	-0.295486	0.564280
Cl145	Cl	-1.069043	-0.000125	-0.246261
Cl146	Cl	-0.569043	0.499875	0.253739
H147	H	-0.781831	-0.000072	-0.209355
H148	H	-0.281831	0.499928	0.290645
Cl149	Cl	-0.725298	-0.000103	-0.001181
Cl150	Cl	-0.225298	0.499897	0.498819
H151	H	-0.831867	-0.223968	0.066193
H152	H	-0.331867	0.276032	0.566193
H153	H	-1.087847	-0.000124	-0.452296
H154	H	-0.587847	0.499876	0.047704
Cl155	Cl	-0.458933	-0.000092	0.294715
Cl156	Cl	0.041067	0.499908	0.794715
H157	H	-0.794361	-0.000083	-0.060566
H158	H	-0.294361	0.499917	0.439434
H159	H	-0.688380	-0.000066	0.286040
H160	H	-0.188380	0.499934	0.786040
H161	H	-1.016173	-0.224023	0.250631
H162	H	-0.516173	0.275977	0.750631
H163	H	-1.045443	-0.618060	0.279816
H164	H	-0.545443	-0.118060	0.779816
H165	H	-0.313367	-0.000075	0.322187
H166	H	0.186633	0.499925	0.822187
H167	H	-0.164579	-0.000095	0.309649
H168	H	0.335421	0.499905	0.809649
Cl169	Cl	-0.785036	-0.000074	-0.600490
Cl170	Cl	-0.285036	0.499926	-0.100490
Cl171	Cl	-1.105193	-0.000124	-0.621281
Cl172	Cl	-0.605193	0.499876	-0.121281
