data_functionalizedCrystal
_audit_creation_method	'MofGen! by Chris Wilmer'
_symmetry_space_group_name_H-M	'P1'
_symmetry_Int_Tables_number	1
_symmetry_cell_setting	triclinic
loop_
_symmetry_equiv_pos_as_xyz
  x,y,z
_cell_length_a	11.792241
_cell_length_b	11.792254
_cell_length_c	10.868271
_cell_angle_alpha	89.995741
_cell_angle_beta	90.000150
_cell_angle_gamma	95.803993
loop_
_atom_site_label
_atom_site_type_symbol
_atom_site_fract_x
_atom_site_fract_y
_atom_site_fract_z
O1	O	-0.155637	1.506900	-0.102307
O2	O	0.344363	2.006900	0.397693
O3	O	-0.171655	1.176561	-0.102308
O4	O	0.328345	1.676561	0.397692
O5	O	0.001524	1.349747	-0.102315
O6	O	0.501524	1.849747	0.397685
O7	O	-0.328816	1.333714	-0.102300
O8	O	0.171184	1.833714	0.397700
O9	O	0.001531	1.349732	0.102330
O10	O	0.501531	1.849732	0.602330
O11	O	-0.171648	1.176546	0.102337
O12	O	0.328352	1.676546	0.602337
O13	O	-0.155630	1.506885	0.102338
O14	O	0.344370	2.006885	0.602338
Zn15	Zn	-0.163638	1.341714	0.134829
Zn16	Zn	0.336362	1.841714	0.634829
Zn17	Zn	-0.163647	1.341732	-0.134799
Zn18	Zn	0.336353	1.841732	0.365201
O19	O	-0.328809	1.333699	0.102345
O20	O	0.171191	1.833699	0.602345
C21	C	-0.170642	1.134263	0.000014
C22	C	0.329358	1.634263	0.500014
C23	C	-0.167622	1.008250	0.000013
C24	C	0.332378	1.508250	0.500013
C25	C	-0.165168	0.905913	0.000008
C26	C	0.334832	1.405913	0.500008
C27	C	-0.162100	0.777527	0.000007
C28	C	0.337900	1.277527	0.500007
C29	C	-0.371104	1.334714	0.000024
C30	C	0.128896	1.834714	0.500024
C31	C	-0.497118	1.337728	0.000030
C32	C	0.002882	1.837728	0.500030
C33	C	-0.727830	1.343271	-0.000001
C34	C	-0.227830	1.843271	0.499999
C35	C	-0.599445	1.340191	0.000016
C36	C	-0.099445	1.840191	0.500016
C37	C	0.043819	1.348732	0.000003
C38	C	0.543819	1.848732	0.500003
C39	C	0.169832	1.345718	-0.000010
C40	C	0.669832	1.845718	0.499990
C41	C	-0.156643	1.549183	0.000013
C42	C	0.343357	2.049183	0.500013
C43	C	-0.159663	1.675196	0.000006
C44	C	0.340337	2.175196	0.500006
N45	N	-0.163631	1.341709	0.318843
N46	N	0.336369	1.841709	0.818843
N47	N	-0.163645	1.341746	-0.318813
N48	N	0.336355	1.841746	0.181187
C49	C	-0.163645	1.341727	0.569849
C50	C	0.336355	1.841727	1.069849
C51	C	-0.163640	1.341713	0.430172
C52	C	0.336360	1.841713	0.930172
