data_functionalizedCrystal
_audit_creation_method	'MofGen! by Chris Wilmer'
_symmetry_space_group_name_H-M	'P1'
_symmetry_Int_Tables_number	1
_symmetry_cell_setting	triclinic
loop_
_symmetry_equiv_pos_as_xyz
  x,y,z
_cell_length_a	17.699077
_cell_length_b	27.732064
_cell_length_c	16.776229
_cell_angle_alpha	89.997427
_cell_angle_beta	89.993415
_cell_angle_gamma	82.965000
loop_
_atom_site_label
_atom_site_type_symbol
_atom_site_fract_x
_atom_site_fract_y
_atom_site_fract_z
O1	O	1.003548	0.061113	-0.066270
O2	O	1.503548	0.561113	0.433730
O3	O	0.783100	0.069068	-0.066273
O4	O	1.283100	0.569068	0.433727
O5	O	0.900164	-0.005281	-0.066275
O6	O	1.400164	0.494719	0.433725
O7	O	0.886484	0.135462	-0.066269
O8	O	1.386484	0.635462	0.433731
O9	O	0.900149	-0.005286	0.066302
O10	O	1.400149	0.494714	0.566302
O11	O	0.783084	0.069064	0.066303
O12	O	1.283084	0.569064	0.566303
O13	O	1.003533	0.061108	0.066306
O14	O	1.503533	0.561108	0.566306
Zn15	Zn	0.893306	0.065085	0.087354
Zn16	Zn	1.393306	0.565085	0.587354
Zn17	Zn	0.893326	0.065091	-0.087321
Zn18	Zn	1.393326	0.565091	0.412679
O19	O	0.886469	0.135458	0.066308
O20	O	1.386469	0.635458	0.566308
C21	C	0.754898	0.068782	0.000014
C22	C	1.254898	0.568782	0.500014
C23	C	0.670887	0.067928	0.000013
C24	C	1.170887	0.567928	0.500013
C25	C	0.631414	0.067523	0.072281
C26	C	1.131414	0.567523	0.572281
C27	C	0.552479	0.066713	0.072282
C28	C	1.052479	0.566713	0.572282
C29	C	0.513016	0.066311	0.000014
C30	C	1.013016	0.566311	0.500014
C31	C	0.552495	0.066715	-0.072260
C32	C	1.052495	0.566715	0.427740
C33	C	0.631429	0.067521	-0.072260
C34	C	1.131429	0.567521	0.427740
C35	C	0.234160	0.063462	-0.072262
C36	C	0.734160	0.563462	0.427738
C37	C	0.155219	0.062657	-0.072256
C38	C	0.655219	0.562657	0.427744
C39	C	0.155209	0.062654	0.072280
C40	C	0.655209	0.562654	0.572280
C41	C	0.234144	0.063460	0.072280
C42	C	0.734144	0.563460	0.572280
C43	C	0.273616	0.063861	0.000007
C44	C	0.773616	0.563861	0.500007
C45	C	0.359207	0.064738	0.000007
C46	C	0.859207	0.564738	0.500007
C47	C	0.427426	0.065438	0.000013
C48	C	0.927426	0.565438	0.500013
C49	C	0.899867	-0.023291	0.000011
C50	C	1.399867	0.476709	0.500011
C51	C	0.898997	-0.076949	0.000003
C52	C	1.398997	0.423051	0.500003
C53	C	0.823892	-0.454291	-0.000001
C54	C	1.323892	0.045709	0.499999
C55	C	0.827096	-0.252619	-0.000002
C56	C	1.327096	0.247381	0.499998
O57	O	0.768816	-0.221575	-0.000034
O58	O	1.268816	0.278425	0.499966
N59	N	0.896513	-0.233243	-0.000001
N60	N	1.396513	0.266757	0.499999
C61	C	0.965133	-0.264288	-0.000005
C62	C	1.465133	0.235712	0.499995
O63	O	1.024250	-0.243180	-0.000012
O64	O	1.524250	0.256820	0.499988
C65	C	0.961929	-0.465959	-0.000010
C66	C	1.461929	0.034041	0.499990
C67	C	0.892507	-0.485332	-0.000002
C68	C	1.392507	0.014668	0.499998
C69	C	0.754476	-0.473664	0.000006
C70	C	1.254476	0.026336	0.500006
C71	C	0.753676	-0.524079	0.000010
C72	C	1.253676	-0.024079	0.500010
C73	C	0.822291	-0.555121	0.000008
C74	C	1.322291	-0.055121	0.500008
C75	C	0.891707	-0.535747	0.000002
C76	C	1.391707	-0.035747	0.500002
C77	C	1.030549	-0.497003	-0.000020
C78	C	1.530549	0.002997	0.499980
C79	C	1.029741	-0.547423	-0.000023
C80	C	1.529741	-0.047423	0.499977
C81	C	0.960320	-0.566797	-0.000015
C82	C	1.460320	-0.066797	0.499985
C83	C	0.959522	-0.617203	0.000005
C84	C	1.459522	-0.117203	0.500005
N85	N	0.890105	-0.636579	0.000004
N86	N	1.390105	-0.136579	0.500004
C87	C	0.821490	-0.605538	0.000006
C88	C	1.321490	-0.105538	0.500006
C89	C	0.966811	-0.158407	-0.000001
C90	C	1.466811	0.341593	0.499999
C91	C	0.967612	-0.107990	0.000002
C92	C	1.467612	0.392010	0.500002
C93	C	0.829574	-0.096324	0.000003
C94	C	1.329574	0.403676	0.500003
C95	C	0.828774	-0.146743	0.000007
C96	C	1.328774	0.353257	0.500007
C97	C	0.897394	-0.177784	-0.000002
C98	C	1.397394	0.322216	0.499998
C99	C	0.819814	-0.711413	0.000016
C100	C	1.319814	-0.211413	0.500016
C101	C	0.819020	-0.761833	0.000024
C102	C	1.319020	-0.261833	0.500024
C103	C	0.957058	-0.773495	0.000018
C104	C	1.457058	-0.273495	0.500018
C105	C	0.957853	-0.723079	0.000014
C106	C	1.457853	-0.223079	0.500014
C107	C	0.889225	-0.692039	0.000011
C108	C	1.389225	-0.192039	0.500011
O109	O	1.017770	-0.648275	0.000029
O110	O	1.517770	-0.148275	0.500029
O111	O	0.762381	-0.626655	-0.000004
O112	O	1.262381	-0.126655	0.499996
C113	C	0.824692	-0.403876	-0.000005
C114	C	1.324692	0.096124	0.499995
C115	C	0.894108	-0.384502	-0.000012
C116	C	1.394108	0.115498	0.499988
C117	C	0.962723	-0.415543	-0.000013
C118	C	1.462723	0.084457	0.499987
C119	C	0.894909	-0.334084	-0.000009
C120	C	1.394909	0.165916	0.499991
C121	C	0.826293	-0.303043	-0.000007
C122	C	1.326293	0.196957	0.499993
C123	C	0.756876	-0.322419	-0.000008
C124	C	1.256876	0.177581	0.499992
C125	C	0.756076	-0.372834	-0.000004
C126	C	1.256076	0.127166	0.499996
C127	C	1.032140	-0.396167	-0.000013
C128	C	1.532140	0.103833	0.499987
C129	C	1.032935	-0.345752	-0.000016
C130	C	1.532935	0.154248	0.499984
C131	C	0.964319	-0.314710	-0.000014
C132	C	1.464319	0.185290	0.499986
C133	C	1.031735	0.061395	0.000017
C134	C	1.531735	0.561395	0.500017
C135	C	1.115746	0.062249	0.000013
C136	C	1.615746	0.562249	0.500013
C137	C	0.886765	0.153468	0.000020
C138	C	1.386765	0.653468	0.500020
C139	C	0.887636	0.207125	0.000022
C140	C	1.387636	0.707125	0.500022
N141	N	0.893298	0.065081	0.206565
N142	N	1.393298	0.565081	0.706565
N143	N	0.893341	0.065092	-0.206532
N144	N	1.393341	0.565092	0.293468
C145	C	0.945150	0.032172	0.248282
C146	C	1.445150	0.532172	0.748282
C147	C	0.945154	0.032172	0.331734
C148	C	1.445154	0.532172	0.831734
C149	C	0.893309	0.065083	0.373468
C150	C	1.393309	0.565083	0.873468
C151	C	0.841452	0.097993	0.331746
C152	C	1.341452	0.597993	0.831746
C153	C	0.841445	0.097991	0.248295
C154	C	1.341445	0.597991	0.748295
C155	C	0.841479	0.098002	0.668293
C156	C	1.341479	0.598002	1.168293
C157	C	0.841492	0.098003	0.751750
C158	C	1.341492	0.598003	1.251750
C159	C	0.945188	0.032184	0.751732
C160	C	1.445188	0.532184	1.251732
C161	C	0.945181	0.032181	0.668281
C162	C	1.445181	0.532181	1.168281
C163	C	0.893322	0.065090	0.626566
C164	C	1.393322	0.565090	1.126566
C165	C	0.893317	0.065089	0.536078
C166	C	1.393317	0.565089	1.036078
C167	C	0.893317	0.065086	0.463955
C168	C	1.393317	0.565086	0.963955
H169	H	0.663538	0.067854	0.131131
H170	H	1.163538	0.567854	0.631131
N171	N	0.512172	0.066296	0.146110
N172	N	1.012172	0.566296	0.646110
N173	N	0.547415	0.066656	0.210629
N174	N	1.047415	0.566656	0.710629
H175	H	0.518949	0.066360	0.262774
H176	H	1.018949	0.566360	0.762774
H177	H	0.520359	0.066384	-0.131102
H178	H	1.020359	0.566384	0.368898
N179	N	0.274440	0.063875	0.146108
N180	N	0.774440	0.563875	0.646108
N181	N	0.239188	0.063512	0.210629
N182	N	0.739188	0.563512	0.710629
H183	H	0.267646	0.063804	0.262773
H184	H	0.767646	0.563804	0.762773
N185	N	1.103853	-0.325966	-0.000006
N186	N	1.603853	0.174034	0.499994
N187	N	1.149973	-0.335505	0.055876
N188	N	1.649973	0.164495	0.555876
H189	H	1.200058	-0.321533	0.055879
H190	H	1.700058	0.178467	0.555879
H191	H	0.987400	0.005384	0.634304
H192	H	1.487400	0.505384	1.134304
N193	N	0.671741	0.067930	-0.146088
N194	N	1.171741	0.567930	0.353912
N195	N	0.636500	0.067570	-0.210609
N196	N	1.136500	0.567570	0.289391
H197	H	0.664970	0.067856	-0.262752
H198	H	1.164970	0.567856	0.237248
H199	H	0.799255	0.124798	0.634335
H200	H	1.299255	0.624798	1.134335
N201	N	0.114877	0.062245	0.146101
N202	N	0.614877	0.562245	0.646101
N203	N	0.044400	0.061525	0.146097
N204	N	0.544400	0.561525	0.646097
H205	H	0.015915	0.061239	0.198231
H206	H	0.515915	0.561239	0.698231
N207	N	0.998075	-0.001453	0.205628
N208	N	1.498075	0.498547	0.705628
N209	N	0.974369	-0.031426	0.159076
N210	N	1.474369	0.468574	0.659076
H211	H	1.011739	-0.055177	0.128943
H212	H	1.511739	0.444823	0.628943
N213	N	0.759491	-0.064604	-0.000008
N214	N	1.259491	0.435396	0.499992
N215	N	0.744561	-0.035168	-0.055897
N216	N	1.244561	0.464832	0.444103
H217	H	0.695068	-0.012763	-0.055911
H218	H	1.195068	0.487237	0.444089
N219	N	0.748098	-0.781614	0.000038
N220	N	1.248098	-0.281614	0.500038
N221	N	0.686841	-0.753889	0.000040
N222	N	1.186841	-0.253889	0.500040
H223	H	0.636752	-0.767857	0.000050
H224	H	1.136752	-0.267857	0.500050
H225	H	0.123091	0.062330	-0.131109
H226	H	0.623091	0.562330	0.368891
N227	N	1.099831	-0.579137	-0.000019
N228	N	1.599831	-0.079137	0.499981
N229	N	1.099113	-0.624152	-0.000013
N230	N	1.599113	-0.124152	0.499987
H231	H	1.148613	-0.646550	-0.000007
H232	H	1.648613	-0.146550	0.499993
N233	N	1.027144	-0.805208	0.000030
N234	N	1.527144	-0.305208	0.500030
N235	N	1.042090	-0.834645	0.055914
N236	N	1.542090	-0.334645	0.555914
H237	H	1.091589	-0.857044	0.055919
H238	H	1.591589	-0.357044	0.555919
N239	N	0.685156	-0.392611	0.000007
N240	N	1.185156	0.107389	0.500007
N241	N	0.623904	-0.364883	0.000010
N242	N	1.123904	0.135117	0.500010
H243	H	0.573812	-0.378847	0.000017
H244	H	1.073812	0.121153	0.500017
N245	N	0.274461	0.063871	-0.146091
N246	N	0.774461	0.563871	0.353909
N247	N	0.239214	0.063514	-0.210609
N248	N	0.739214	0.563514	0.289391
H249	H	0.267678	0.063803	-0.262755
H250	H	0.767678	0.563803	0.237245
N251	N	0.749707	-0.679719	0.000006
N252	N	1.249707	-0.179719	0.500006
N253	N	0.687739	-0.697032	0.000009
N254	N	1.187739	-0.197032	0.500009
H255	H	0.638224	-0.674648	0.000004
H256	H	1.138224	-0.174648	0.500004
H257	H	1.022693	-0.183677	-0.000006
H258	H	1.522693	0.316323	0.499994
N259	N	0.682756	-0.543856	0.000012
N260	N	1.182756	-0.043856	0.500012
N261	N	0.621503	-0.516128	0.000009
N262	N	1.121503	-0.016128	0.500009
H263	H	0.571411	-0.530091	0.000008
H264	H	1.071411	-0.030091	0.500008
N265	N	0.684373	-0.441968	0.000002
N266	N	1.184373	0.058032	0.500002
N267	N	0.622406	-0.459282	0.000005
N268	N	1.122406	0.040718	0.500005
H269	H	0.572891	-0.436900	0.000008
H270	H	1.072891	0.063100	0.500008
N271	N	0.757855	-0.166522	0.000019
N272	N	1.257855	0.333478	0.500019
N273	N	0.696600	-0.138795	0.000028
N274	N	1.196600	0.361205	0.500028
H275	H	0.646510	-0.152761	0.000037
H276	H	1.146510	0.347239	0.500037
H277	H	1.024142	-0.092221	0.000008
H278	H	1.524142	0.407779	0.500008
H279	H	1.087079	-0.481239	-0.000026
H280	H	1.587079	0.018761	0.499974
H281	H	0.799221	0.124787	0.214330
H282	H	1.299221	0.624787	0.714330
H283	H	0.987375	0.005375	0.365699
H284	H	1.487375	0.505375	0.865699
H285	H	0.799236	0.124788	0.365731
H286	H	1.299236	0.624788	0.865731
H287	H	0.987413	0.005387	0.785705
H288	H	1.487413	0.505387	1.285705
N289	N	1.028770	-0.703295	0.000027
N290	N	1.528770	-0.203295	0.500027
N291	N	1.090028	-0.731018	0.000035
N292	N	1.590028	-0.231018	0.500035
H293	H	1.140115	-0.717049	0.000040
H294	H	1.640115	-0.217049	0.500040
N295	N	0.686793	-0.290699	0.000001
N296	N	1.186793	0.209301	0.500001
N297	N	0.687529	-0.245686	-0.000001
N298	N	1.187529	0.254314	0.499999
H299	H	0.638036	-0.223281	0.000002
H300	H	1.138036	0.276719	0.500002
N301	N	0.788526	0.131626	0.794369
N302	N	1.288526	0.631626	1.294369
N303	N	0.742227	0.161005	0.757116
N304	N	1.242227	0.661005	1.257116
H305	H	0.704822	0.184751	0.787215
H306	H	1.204822	0.684751	1.287215
N307	N	1.102241	-0.427864	-0.000019
N308	N	1.602241	0.072136	0.499981
N309	N	1.164210	-0.410552	-0.000021
N310	N	1.664210	0.089448	0.499979
H311	H	1.213723	-0.432936	-0.000023
H312	H	1.713723	0.067064	0.499977
