data_functionalizedCrystal
_audit_creation_method	'MofGen! by Chris Wilmer'
_symmetry_space_group_name_H-M	'P1'
_symmetry_Int_Tables_number	1
_symmetry_cell_setting	triclinic
loop_
_symmetry_equiv_pos_as_xyz
  x,y,z
_cell_length_a	9.065218
_cell_length_b	10.654556
_cell_length_c	9.130313
_cell_angle_alpha	90.001127
_cell_angle_beta	89.997596
_cell_angle_gamma	95.248289
loop_
_atom_site_label
_atom_site_type_symbol
_atom_site_fract_x
_atom_site_fract_y
_atom_site_fract_z
O1	O	-0.207279	1.668654	0.121739
O2	O	0.292721	2.168654	0.621739
O3	O	-0.227013	1.303255	0.121753
O4	O	0.272987	1.803255	0.621753
O5	O	-0.002462	1.493508	0.121741
O6	O	0.497538	1.993508	0.621741
O7	O	-0.431829	1.478402	0.121751
O8	O	0.068171	1.978402	0.621751
O9	O	-0.002458	1.493497	-0.121857
O10	O	0.497542	1.993497	0.378143
O11	O	-0.227008	1.303244	-0.121846
O12	O	0.272992	1.803244	0.378154
O13	O	-0.207274	1.668644	-0.121860
O14	O	0.292726	2.168644	0.378140
Cu15	Cu	-0.217141	1.485943	-0.144095
Cu16	Cu	0.282859	1.985943	0.355905
Cu17	Cu	-0.217146	1.485956	0.143989
Cu18	Cu	0.282854	1.985956	0.643989
O19	O	-0.431825	1.478391	-0.121848
O20	O	0.068175	1.978391	0.378152
C21	C	-0.225560	1.256446	-0.000044
C22	C	0.274440	1.756446	0.499956
C23	C	-0.221218	1.116986	-0.000039
C24	C	0.278782	1.616986	0.499961
C25	C	-0.215109	0.920422	0.132736
C26	C	0.284891	1.420422	0.632736
C27	C	-0.219178	1.051461	0.132745
C28	C	0.280822	1.551461	0.632745
C29	C	-0.219173	1.051468	-0.132840
C30	C	0.280827	1.551468	0.367160
C31	C	-0.215093	0.920433	-0.132848
C32	C	0.284907	1.420433	0.367152
C33	C	-0.486806	1.479848	-0.000048
C34	C	0.013194	1.979848	0.499952
C35	C	-0.650625	1.484189	-0.000044
C36	C	-0.150625	1.984189	0.499956
C37	C	0.052519	1.492050	-0.000056
C38	C	0.552519	1.992050	0.499944
C39	C	0.216338	1.487710	-0.000050
C40	C	0.716338	1.987710	0.499950
C41	C	-0.208727	1.715453	-0.000059
C42	C	0.291273	2.215453	0.499941
C43	C	-0.213068	1.854913	-0.000055
C44	C	0.286932	2.354913	0.499945
N45	N	-0.217137	1.485943	-0.346718
N46	N	0.282863	1.985943	0.153282
C47	C	-0.117743	1.570222	-0.576722
C48	C	0.382257	2.070222	-0.076722
C49	C	-0.117745	1.570214	-0.423385
C50	C	0.382255	2.070214	0.076615
C51	C	-0.316543	1.401683	-0.423396
C52	C	0.183457	1.901683	0.076604
C53	C	-0.316547	1.401698	-0.576730
C54	C	0.183453	1.901698	-0.076730
N55	N	-0.217139	1.485965	0.346611
N56	N	0.282861	1.985965	0.846611
H57	H	-0.213458	0.867080	0.240864
H58	H	0.286542	1.367080	0.740864
H59	H	-0.036801	1.638840	-0.639134
H60	H	0.463199	2.138840	-0.139134
N61	N	-0.423749	1.310806	-0.659429
N62	N	0.076251	1.810806	-0.159429
H63	H	-0.408668	1.323606	-0.768197
H64	H	0.091332	1.823606	-0.268197
H65	H	-0.528581	1.326493	-0.632619
H66	H	-0.028581	1.826493	-0.132619
H67	H	-0.220825	1.104830	-0.240955
H68	H	0.279175	1.604830	0.259045
H69	H	-0.213430	0.867094	-0.240989
H70	H	0.286570	1.367094	0.259011
N71	N	-0.221365	1.122121	0.275969
N72	N	0.278635	1.622121	0.775969
H73	H	-0.219460	1.060727	0.360084
H74	H	0.280540	1.560727	0.860084
H75	H	-0.314357	1.167353	0.281764
H76	H	0.185643	1.667353	0.781764
H77	H	-0.036810	1.638825	-0.360967
H78	H	0.463190	2.138825	0.139033
N79	N	-0.423752	1.310793	-0.340713
N80	N	0.076248	1.810793	0.159287
H81	H	-0.408665	1.323563	-0.231943
H82	H	0.091335	1.823563	0.268057
H83	H	-0.405727	1.221509	-0.367536
H84	H	0.094273	1.721509	0.132464
