data_functionalizedCrystal
_audit_creation_method	'MofGen! by Chris Wilmer'
_symmetry_space_group_name_H-M	'P1'
_symmetry_Int_Tables_number	1
_symmetry_cell_setting	triclinic
loop_
_symmetry_equiv_pos_as_xyz
  x,y,z
_cell_length_a	14.044191
_cell_length_b	9.065218
_cell_length_c	12.503572
_cell_angle_alpha	93.577298
_cell_angle_beta	86.162165
_cell_angle_gamma	89.103831
loop_
_atom_site_label
_atom_site_type_symbol
_atom_site_fract_x
_atom_site_fract_y
_atom_site_fract_z
O1	O	-1.266161	-0.348307	0.089260
O2	O	-1.016161	-0.098307	0.339260
O3	O	-0.766161	0.151693	0.589260
O4	O	-0.516161	0.401693	0.839260
O5	O	-0.990082	-0.335446	0.089274
O6	O	-0.740082	-0.085446	0.339274
O7	O	-0.490082	0.164554	0.589274
O8	O	-0.240082	0.414554	0.839274
O9	O	-1.133828	-0.127867	0.089265
O10	O	-0.883828	0.122133	0.339265
O11	O	-0.633828	0.372133	0.589265
O12	O	-0.383828	0.622133	0.839265
O13	O	-1.122415	-0.555886	0.089270
O14	O	-0.872415	-0.305886	0.339270
O15	O	-0.622415	-0.055886	0.589270
O16	O	-0.372415	0.194114	0.839270
O17	O	-1.123018	-0.143507	-0.089377
O18	O	-0.873018	0.106493	0.160623
O19	O	-0.623018	0.356493	0.410623
O20	O	-0.373018	0.606493	0.660623
O21	O	-0.979272	-0.351086	-0.089367
O22	O	-0.729272	-0.101086	0.160633
O23	O	-0.479272	0.148914	0.410633
O24	O	-0.229272	0.398914	0.660633
O25	O	-1.255351	-0.363947	-0.089381
O26	O	-1.005351	-0.113947	0.160619
O27	O	-0.755351	0.136053	0.410619
O28	O	-0.505351	0.386053	0.660619
Cu29	Cu	-1.116324	-0.358944	-0.105685
Cu30	Cu	-0.866324	-0.108944	0.144315
Cu31	Cu	-0.616324	0.141056	0.394315
Cu32	Cu	-0.366324	0.391056	0.644315
Cu33	Cu	-1.129109	-0.340449	0.105578
Cu34	Cu	-0.879109	-0.090449	0.355578
Cu35	Cu	-0.629109	0.159551	0.605578
Cu36	Cu	-0.379109	0.409551	0.855578
O37	O	-1.111605	-0.571526	-0.089372
O38	O	-0.861605	-0.321526	0.160628
O39	O	-0.611605	-0.071526	0.410628
O40	O	-0.361605	0.178474	0.660628
C41	C	-0.949314	-0.337640	-0.000045
C42	C	-0.699314	-0.087640	0.249955
C43	C	-0.449314	0.162360	0.499955
C44	C	-0.199314	0.412360	0.749955
C45	C	-0.843944	-0.320858	-0.000039
C46	C	-0.593944	-0.070858	0.249961
C47	C	-0.343944	0.179142	0.499961
C48	C	-0.093944	0.429142	0.749961
C49	C	-1.296119	-0.361753	-0.000060
C50	C	-1.046119	-0.111753	0.249940
C51	C	-0.796119	0.138247	0.499940
C52	C	-0.546119	0.388247	0.749940
C53	C	-1.401489	-0.378534	-0.000058
C54	C	-1.151489	-0.128534	0.249942
C55	C	-0.901489	0.121466	0.499942
C56	C	-0.651489	0.371466	0.749942
C57	C	-0.594416	-0.409195	-0.000049
C58	C	-0.344416	-0.159195	0.249951
C59	C	-0.094416	0.090805	0.499951
C60	C	0.155584	0.340805	0.749951
C61	C	-0.651023	-0.290204	-0.000049
C62	C	-0.401023	-0.040204	0.249951
C63	C	-0.151023	0.209796	0.499951
C64	C	0.098977	0.459796	0.749951
C65	C	-0.758374	-0.307264	-0.000043
C66	C	-0.508374	-0.057264	0.249957
C67	C	-0.258374	0.192736	0.499957
C68	C	-0.008374	0.442736	0.749957
C69	C	-0.487055	-0.392137	-0.000054
C70	C	-0.237055	-0.142137	0.249946
C71	C	0.012945	0.107863	0.499946
C72	C	0.262945	0.357863	0.749946
C73	C	-1.127326	-0.080579	-0.000054
C74	C	-0.877326	0.169421	0.249946
C75	C	-0.627326	0.419421	0.499946
C76	C	-0.377326	0.669421	0.749946
C77	C	-1.124047	0.083628	-0.000049
C78	C	-0.874047	0.333628	0.249951
C79	C	-0.624047	0.583628	0.499951
C80	C	-0.374047	0.833628	0.749951
C81	C	-1.118107	-0.618814	-0.000050
C82	C	-0.868107	-0.368814	0.249950
C83	C	-0.618107	-0.118814	0.499950
C84	C	-0.368107	0.131186	0.749950
C85	C	-1.121387	-0.783021	-0.000049
C86	C	-0.871387	-0.533021	0.249951
C87	C	-0.621387	-0.283021	0.499951
C88	C	-0.371387	-0.033021	0.749951
N89	N	-1.107339	-0.371953	-0.254277
N90	N	-0.857339	-0.121953	-0.004277
N91	N	-0.607339	0.128047	0.245723
N92	N	-0.357339	0.378047	0.495723
C93	C	-1.094122	-0.391102	-0.473392
C94	C	-0.844122	-0.141102	-0.223392
C95	C	-0.594122	0.108898	0.026608
C96	C	-0.344122	0.358898	0.276608
C97	C	-1.151315	-0.308285	-0.526722
C98	C	-0.901315	-0.058285	-0.276722
C99	C	-0.651315	0.191715	-0.026722
C100	C	-0.401315	0.441715	0.223278
C101	C	-1.143961	-0.318940	-0.648645
C102	C	-0.893961	-0.068940	-0.398645
C103	C	-0.643961	0.181060	-0.148645
C104	C	-0.393961	0.431060	0.101355
C105	C	-1.101475	-0.380449	-0.351458
C106	C	-0.851475	-0.130449	-0.101458
C107	C	-0.601475	0.119551	0.148542
C108	C	-0.351475	0.369551	0.398542
N109	N	-1.138101	-0.327430	0.254170
N110	N	-0.888101	-0.077430	0.504170
N111	N	-0.638101	0.172570	0.754170
N112	N	-0.388101	0.422570	1.004170
H113	H	-0.618868	-0.175512	0.000026
H114	H	-0.368868	0.074488	0.250026
H115	H	-0.118868	0.324488	0.500026
H116	H	0.131132	0.574488	0.750026
O117	O	-1.029208	-0.485208	-0.528316
O118	O	-0.779208	-0.235208	-0.278316
O119	O	-0.529208	0.014792	-0.028316
O120	O	-0.279208	0.264792	0.221684
C121	C	-1.036220	-0.475014	-0.639585
C122	C	-0.786220	-0.225014	-0.389585
C123	C	-0.536220	0.024986	-0.139585
C124	C	-0.286220	0.274986	0.110415
H125	H	-1.110236	-0.430907	-0.654798
H126	H	-0.860236	-0.180907	-0.404798
H127	H	-0.610236	0.069093	-0.154798
H128	H	-0.360236	0.319093	0.095202
H129	H	-1.024209	-0.589175	-0.682421
H130	H	-0.774209	-0.339175	-0.432421
H131	H	-0.524209	-0.089175	-0.182421
H132	H	-0.274209	0.160825	0.067579
H133	H	-0.979885	-0.396720	-0.671510
H134	H	-0.729885	-0.146720	-0.421510
H135	H	-0.479885	0.103280	-0.171510
H136	H	-0.229885	0.353280	0.078490
O137	O	-0.632832	-0.545958	0.000153
O138	O	-0.382832	-0.295958	0.250153
O139	O	-0.132832	-0.045958	0.500153
O140	O	0.117168	0.204042	0.750153
C141	C	-0.695121	-0.554762	0.092665
C142	C	-0.445121	-0.304762	0.342665
C143	C	-0.195121	-0.054762	0.592665
C144	C	0.054879	0.195238	0.842665
H145	H	-0.674865	-0.468898	0.157322
H146	H	-0.424865	-0.218898	0.407322
H147	H	-0.174865	0.031102	0.657322
H148	H	0.075135	0.281102	0.907322
H149	H	-0.689270	-0.669920	0.123732
H150	H	-0.439270	-0.419920	0.373732
H151	H	-0.189270	-0.169920	0.623732
H152	H	0.060730	0.080080	0.873732
H153	H	-0.771595	-0.532590	0.071751
H154	H	-0.521595	-0.282590	0.321751
H155	H	-0.271595	-0.032590	0.571751
H156	H	-0.021595	0.217410	0.821751
H157	H	-1.205803	-0.229383	-0.480813
H158	H	-0.955803	0.020617	-0.230813
H159	H	-0.705803	0.270617	0.019187
H160	H	-0.455803	0.520617	0.269187
