data_functionalizedCrystal
_audit_creation_method	'MofGen! by Chris Wilmer'
_symmetry_space_group_name_H-M	'P1'
_symmetry_Int_Tables_number	1
_symmetry_cell_setting	triclinic
loop_
_symmetry_equiv_pos_as_xyz
  x,y,z
_cell_length_a	15.995350
_cell_length_b	10.654550
_cell_length_c	9.130313
_cell_angle_alpha	89.995693
_cell_angle_beta	89.997107
_cell_angle_gamma	96.011361
loop_
_atom_site_label
_atom_site_type_symbol
_atom_site_fract_x
_atom_site_fract_y
_atom_site_fract_z
O1	O	1.111921	-0.161875	0.121671
O2	O	0.868262	-0.181864	0.121701
O3	O	0.995693	0.010943	0.121680
O4	O	0.984489	-0.354682	0.121692
O5	O	0.995692	0.010953	-0.121919
O6	O	0.868260	-0.181854	-0.121898
O7	O	1.111919	-0.161865	-0.121927
Cu8	Cu	0.990089	-0.171859	-0.144155
Cu9	Cu	0.990091	-0.171871	0.143929
O10	O	0.984487	-0.354672	-0.121906
C11	C	0.837061	-0.181033	-0.000095
C12	C	0.744096	-0.178555	-0.000083
C13	C	0.994870	0.057735	-0.000117
C14	C	0.992409	0.197146	-0.000112
N15	N	0.990093	-0.171870	0.346551
C16	C	0.406297	-0.169658	-0.000114
C17	C	0.452934	-0.032344	-0.000662
C18	C	0.549639	-0.034822	-0.000103
C19	C	0.573883	-0.174071	-0.000100
C20	C	0.533191	-0.241805	0.139004
C21	C	0.436535	-0.238355	0.139110
C22	C	0.436210	-0.241181	-0.137907
C23	C	0.533156	-0.241148	-0.139736
C24	C	0.668595	-0.176573	-0.000086
C25	C	0.311585	-0.167161	-0.000117
C26	C	1.143119	-0.162696	-0.000129
C27	C	1.236084	-0.165174	-0.000130
C28	C	0.985311	-0.401464	-0.000106
C29	C	0.987772	-0.540875	-0.000101
C30	C	1.067438	0.277612	-0.000126
C31	C	1.065121	0.408603	-0.000115
C32	C	0.912737	0.378648	-0.000084
C33	C	0.915055	0.247660	-0.000084
C34	C	1.144792	0.227098	-0.000154
C35	C	1.219828	0.307565	-0.000169
C36	C	1.217510	0.438555	-0.000159
C37	C	1.140156	0.489079	-0.000133
N38	N	0.990094	-0.171849	-0.346778
C39	C	1.046626	-0.086660	0.423194
C40	C	1.046629	-0.086652	0.576531
C41	C	0.933558	-0.257068	0.576569
C42	C	0.933560	-0.257081	0.423235
C43	C	1.103159	-0.001449	0.346511
C44	C	1.159696	0.083769	0.423154
C45	C	1.159699	0.083776	0.576490
C46	C	1.103164	-0.001434	0.653184
H47	H	0.577758	0.018419	-0.099818
H48	H	1.205738	0.153155	0.638892
O49	O	0.554279	-0.375661	-0.150873
H50	H	0.588647	-0.387980	-0.254632
O51	O	0.394583	-0.371885	0.147505
H52	H	0.443358	-0.438634	0.151483
H53	H	0.433024	0.022286	0.098541
H54	H	0.849759	0.419796	-0.000065
O55	O	0.834133	0.160858	-0.000083
H56	H	0.779955	0.217987	-0.000090
O57	O	0.586140	0.036154	0.132211
H58	H	0.534708	0.072372	0.196055
H59	H	1.103160	-0.001445	0.221656
O60	O	0.394921	-0.375285	-0.139167
H61	H	0.357154	-0.391717	-0.240645
H62	H	1.146687	0.120440	-0.000167
O63	O	1.103162	-0.001429	0.818571
H64	H	1.151969	0.072142	0.858986
O65	O	1.137656	0.630363	-0.000116
H66	H	1.104148	0.658442	-0.099392
O67	O	1.298440	0.525340	-0.000178
H68	H	1.301042	0.585721	0.099115
H69	H	1.205729	0.153137	0.360701
O70	O	0.872565	-0.348940	0.659278
H71	H	0.882051	-0.334599	0.778777
H72	H	0.415413	-0.196286	-0.243344
H73	H	0.560184	-0.191703	-0.242644
O74	O	0.872590	-0.348988	0.340555
H75	H	0.807258	-0.332742	0.369965
O76	O	0.427978	0.040377	-0.132797
H77	H	0.382063	-0.020562	-0.199491
O78	O	0.552676	-0.377322	0.145873
H79	H	0.587566	-0.392609	0.248319
O80	O	0.411903	-0.172914	0.276827
H81	H	0.431041	-0.225643	0.373970
O82	O	0.570398	-0.179493	0.276138
H83	H	0.639231	-0.185678	0.277739
O84	O	1.303257	0.253084	-0.000192
H85	H	1.292266	0.148480	-0.000210
