data_functionalizedCrystal
_audit_creation_method	'MofGen! by Chris Wilmer'
_symmetry_space_group_name_H-M	'P1'
_symmetry_Int_Tables_number	1
_symmetry_cell_setting	triclinic
loop_
_symmetry_equiv_pos_as_xyz
  x,y,z
_cell_length_a	34.490303
_cell_length_b	34.489386
_cell_length_c	34.485816
_cell_angle_alpha	60.004462
_cell_angle_beta	60.008900
_cell_angle_gamma	59.994399
loop_
_atom_site_label
_atom_site_type_symbol
_atom_site_fract_x
_atom_site_fract_y
_atom_site_fract_z
O1	O	0.053846	-0.566517	0.473678
O2	O	0.553846	-0.066517	0.973678
O3	O	0.020329	-0.441078	0.381663
O4	O	0.520329	0.058922	0.881663
O5	O	0.099768	-0.520436	0.381578
O6	O	0.599768	-0.020436	0.881578
O7	O	-0.025592	-0.487159	0.473762
O8	O	0.474408	0.012841	0.973762
O9	O	0.126127	-0.494082	0.407849
O10	O	0.626127	0.005918	0.907849
O11	O	0.046689	-0.414724	0.407933
O12	O	0.546689	0.085276	0.907933
O13	O	0.080206	-0.540163	0.499949
O14	O	0.580206	-0.040163	0.999949
Zn15	Zn	0.067632	-0.473259	0.458112
Zn16	Zn	0.567632	0.026741	0.958112
Zn17	Zn	0.032903	-0.507982	0.423499
Zn18	Zn	0.532903	-0.007982	0.923499
O19	O	0.000767	-0.460805	0.500033
O20	O	0.500767	0.039195	1.000033
N21	N	0.091336	-0.449565	0.481736
N22	N	0.591336	0.050435	0.981736
N23	N	0.009203	-0.531680	0.399875
N24	N	0.509203	-0.031680	0.899875
C25	C	0.142510	-0.268211	0.532817
C26	C	0.642510	0.231789	1.032817
C27	C	0.142641	-0.398441	0.662987
C28	C	0.642641	0.101559	1.162987
C29	C	0.142524	-0.398421	0.532817
C30	C	0.642524	0.101579	1.032817
C31	C	0.272762	-0.398394	0.532723
C32	C	0.772762	0.101606	1.032723
C33	C	0.156853	-0.311177	0.547124
C34	C	0.656853	0.188823	1.047124
C35	C	0.156928	-0.384109	0.620020
C36	C	0.656928	0.115891	1.120020
C37	C	0.229794	-0.384081	0.547073
C38	C	0.729794	0.115919	1.047073
C39	C	0.156863	-0.384097	0.547124
C40	C	0.656863	0.115903	1.047124
C41	C	0.124253	-0.213522	0.514606
C42	C	0.624253	0.286478	1.014606
C43	C	0.124277	-0.416652	0.514606
C44	C	0.624277	0.083348	1.014606
C45	C	0.175110	-0.365866	0.565335
C46	C	0.675110	0.134134	1.065335
C47	C	0.352285	-0.384669	0.490824
C48	C	0.852285	0.115331	0.990824
C49	C	0.401998	-0.401229	0.474223
C50	C	0.901998	0.098771	0.974223
C51	C	0.402027	-0.481671	0.504898
C52	C	0.902027	0.018329	1.004898
C53	C	0.352316	-0.465109	0.521500
C54	C	0.852316	0.034891	1.021500
C55	C	0.136220	-0.188652	0.465734
C56	C	0.636220	0.311348	0.965734
C57	C	0.119621	-0.138936	0.449181
C58	C	0.619621	0.361064	0.949181
C59	C	0.079092	-0.138961	0.530374
C60	C	0.579092	0.361039	1.030374
C61	C	0.095691	-0.188678	0.546927
C62	C	0.595691	0.311322	1.046927
C63	C	0.075398	-0.404656	0.526651
C64	C	0.575398	0.095344	1.026651
C65	C	0.058814	-0.421229	0.510091
C66	C	0.558814	0.078771	1.010091
C67	C	0.139984	-0.461794	0.469452
C68	C	0.639984	0.038206	0.969452
C69	C	0.156570	-0.445221	0.486007
C70	C	0.656570	0.054779	0.986007
C71	C	0.075593	-0.404694	0.742565
C72	C	0.575593	0.095306	1.242565
C73	C	0.059066	-0.421281	0.792280
C74	C	0.559066	0.078719	1.292280
C75	C	0.140274	-0.461856	0.792215
C76	C	0.640274	0.038144	1.292215
C77	C	0.156800	-0.445269	0.742499
C78	C	0.656800	0.054731	1.242499
C79	C	0.124458	-0.416687	0.717675
C80	C	0.624458	0.083313	1.217675
C81	C	0.327446	-0.416608	0.514460
C82	C	0.827446	0.083392	1.014460
C83	C	-0.023585	-0.564792	0.161919
C84	C	0.476415	-0.064792	0.661919
C85	C	-0.023910	-0.769260	0.366530
C86	C	0.476090	-0.269260	0.866530
C87	C	-0.023880	-0.564780	0.366623
C88	C	0.476120	-0.064780	0.866623
C89	C	-0.228325	-0.564561	0.366222
C90	C	0.271675	-0.064561	0.866222
C91	C	-0.129610	-0.597564	0.333467
C92	C	0.370390	-0.097564	0.833467
C93	C	-0.056729	-0.597644	0.333613
C94	C	0.443271	-0.097644	0.833613
C95	C	-0.074925	-0.615849	0.315324
C96	C	0.425075	-0.115849	0.815324
C97	C	-0.088689	-0.695351	0.357144
C98	C	0.411311	-0.195351	0.857144
C99	C	-0.072155	-0.745068	0.373736
C100	C	0.427845	-0.245068	0.873736
C101	C	0.008283	-0.745150	0.343188
C102	C	0.508283	-0.245150	0.843188
C103	C	-0.008252	-0.695435	0.326596
C104	C	0.491748	-0.195435	0.826596
C105	C	-0.154529	-0.609541	0.382326
C106	C	0.345471	-0.109541	0.882326
C107	C	-0.204241	-0.592916	0.398818
C108	C	0.295759	-0.092916	0.898818
C109	C	-0.204114	-0.552341	0.317588
C110	C	0.295886	-0.052341	0.817588
C111	C	-0.154401	-0.568966	0.301096
C112	C	0.345599	-0.068966	0.801096
C113	C	-0.068707	-0.548770	0.321590
C114	C	0.431293	-0.048770	0.821590
C115	C	-0.052166	-0.532225	0.338221
C116	C	0.447834	-0.032225	0.838221
C117	C	-0.011669	-0.613425	0.378886
C118	C	0.488331	-0.113425	0.878886
C119	C	-0.028210	-0.629972	0.362261
C120	C	0.471790	-0.129972	0.862261
C121	C	-0.068581	-0.548777	0.235758
C122	C	0.431419	-0.048777	0.735758
C123	C	-0.051939	-0.532234	0.186043
C124	C	0.448061	-0.032234	0.686043
C125	C	-0.011379	-0.613438	0.186090
C126	C	0.488621	-0.113438	0.686090
C127	C	-0.028020	-0.629981	0.235806
C128	C	0.471980	-0.129981	0.735806
C129	C	-0.056622	-0.597649	0.260639
C130	C	0.443378	-0.097649	0.760639
C131	C	-0.056739	-0.670537	0.333576
C132	C	0.443261	-0.170537	0.833576
C133	C	-0.005614	-0.545951	0.107238
C134	C	0.494386	-0.045951	0.607238
C135	C	-0.006360	-0.823943	0.385033
C136	C	0.493640	-0.323943	0.885033
C137	C	-0.005995	-0.545937	0.384582
C138	C	0.494005	-0.045937	0.884582
C139	C	-0.283006	-0.545971	0.383725
C140	C	0.216994	-0.045971	0.883725
N141	N	0.426163	-0.449489	0.481488
N142	N	0.926163	0.050511	0.981488
O143	O	0.588601	-0.457377	0.364497
O144	O	1.088601	0.042623	0.864497
O145	O	0.588789	-0.549696	0.489801
O146	O	1.088789	-0.049696	0.989801
O147	O	0.588709	-0.549485	0.410335
O148	O	1.088709	-0.049485	0.910335
O149	O	0.588681	-0.457588	0.443963
O150	O	1.088681	0.042412	0.943963
O151	O	0.509731	-0.523223	0.436741
O152	O	1.009731	-0.023223	0.936741
O153	O	0.509811	-0.523434	0.516207
O154	O	1.009811	-0.023434	1.016207
O155	O	0.509624	-0.431115	0.390903
O156	O	1.009624	0.068885	0.890903
Zn157	Zn	0.497178	-0.473105	0.457747
Zn158	Zn	0.997178	0.026895	0.957747
Zn159	Zn	0.601234	-0.507706	0.422956
Zn160	Zn	1.101234	-0.007706	0.922956
O161	O	0.509704	-0.431326	0.470368
O162	O	1.009704	0.068674	0.970368
N163	N	0.672250	-0.531322	0.399211
N164	N	1.172250	-0.031322	0.899211
N165	N	0.091303	-0.114798	0.481730
N166	N	0.591303	0.385202	0.981730
O167	O	-0.025603	0.047729	0.473733
O168	O	0.474397	0.547729	0.973733
O169	O	0.099703	0.047764	0.381394
O170	O	0.599703	0.547764	0.881394
O171	O	0.020199	0.047731	0.381655
O172	O	0.520199	0.547731	0.881655
O173	O	0.053901	0.047761	0.473472
O174	O	0.553901	0.547761	0.973472
O175	O	0.046564	-0.031252	0.407974
O176	O	0.546564	0.468748	0.907974
O177	O	0.126068	-0.031219	0.407713
O178	O	0.626068	0.468781	0.907713
O179	O	0.000762	-0.031254	0.500052
O180	O	0.500762	0.468746	1.000052
Zn181	Zn	0.067601	-0.043777	0.458061
Zn182	Zn	0.567601	0.456223	0.958061
Zn183	Zn	0.032864	0.060287	0.423385
Zn184	Zn	0.532864	0.560287	0.923385
O185	O	0.080266	-0.031222	0.499791
O186	O	0.580266	0.468778	0.999791
N187	N	0.009156	0.131307	0.399717
N188	N	0.509156	0.631307	0.899717
N189	N	0.091635	-0.449614	0.816396
N190	N	0.591635	0.050386	1.316396
O191	O	0.083664	-0.566502	0.978913
O192	O	0.583664	-0.066502	1.478913
O193	O	-0.008637	-0.441152	0.978954
O194	O	0.491363	0.058848	1.478954
O195	O	-0.008421	-0.520640	0.978930
O196	O	0.491579	-0.020640	1.478930
O197	O	0.083448	-0.487013	0.978936
O198	O	0.583448	0.012987	1.478936
O199	O	0.017877	-0.494296	0.899950
O200	O	0.517877	0.005704	1.399950
O201	O	0.017661	-0.414807	0.899974
O202	O	0.517661	0.085193	1.399974
O203	O	0.109961	-0.540157	0.899933
O204	O	0.609961	-0.040157	1.399933
Zn205	Zn	0.067986	-0.473299	0.887414
Zn206	Zn	0.567986	0.026701	1.387414
Zn207	Zn	0.033338	-0.508010	0.991473
Zn208	Zn	0.533338	-0.008010	1.491473
O209	O	0.109746	-0.460669	0.899956
O210	O	0.609746	0.039331	1.399956
N211	N	0.009689	-0.531700	1.062491
N212	N	0.509689	-0.031700	1.562491
C213	C	0.030367	-0.412095	0.382120
C214	C	0.530367	0.087905	0.882120
C215	C	0.128741	-0.510370	0.382016
C216	C	0.628741	-0.010370	0.882016
C217	C	0.070168	-0.569147	0.499490
C218	C	0.570168	-0.069147	0.999490
C219	C	-0.028207	-0.470871	0.499595
C220	C	0.471793	0.029129	0.999595
C221	C	0.549323	-0.549278	0.518791
C222	C	1.049323	-0.049278	1.018791
C223	C	0.549225	-0.549017	0.420381
C224	C	1.049225	-0.049017	0.920381
C225	C	0.549087	-0.431532	0.361914
C226	C	1.049087	0.068468	0.861914
C227	C	0.549188	-0.431794	0.460322
C228	C	1.049188	0.068206	0.960322
C229	C	0.128638	0.008374	0.381806
C230	C	0.628638	0.508374	0.881806
C231	C	0.030215	0.008236	0.382161
C232	C	0.530215	0.508236	0.882161
C233	C	-0.028206	0.008233	0.499608
C234	C	0.471794	0.508233	0.999608
C235	C	0.070250	0.008272	0.499285
C236	C	0.570250	0.508272	0.999285
C237	C	-0.008199	-0.412187	0.939469
C238	C	0.491801	0.087813	1.439469
C239	C	-0.007927	-0.510619	0.939425
C240	C	0.492073	-0.010619	1.439425
C241	C	0.109523	-0.569121	0.939417
C242	C	0.609523	-0.069121	1.439417
C243	C	0.109257	-0.470684	0.939444
C244	C	0.609257	0.029316	1.439444
H245	H	0.019274	-0.411508	0.812539
H246	H	0.519274	0.088492	1.312539
H247	H	0.023205	-0.376060	0.353221
H248	H	0.523205	0.123940	0.853221
H249	H	-0.064213	-0.463781	0.528541
H250	H	0.435787	0.036219	1.028541
H251	H	0.549182	-0.402927	0.467517
H252	H	1.049182	0.097073	0.967517
O253	O	0.143679	-0.462153	0.939522
O254	O	0.643679	0.037847	1.439522
C255	C	0.156488	-0.494719	0.980411
C256	C	0.656488	0.005281	1.480411
H257	H	0.126075	-0.508643	1.009005
H258	H	0.626075	-0.008643	1.509005
H259	H	0.189557	-0.525633	0.971149
H260	H	0.689557	-0.025633	1.471149
C261	C	0.204245	-0.452621	0.963840
C262	C	0.704245	0.047379	1.463840
C263	C	0.166890	-0.469720	0.998962
C264	C	0.666890	0.030280	1.498962
H265	H	0.210664	-0.437202	0.975283
H266	H	0.710664	0.062798	1.475283
H267	H	0.195618	-0.430682	0.936292
H268	H	0.695618	0.069318	1.436292
H269	H	0.231799	-0.478386	0.956125
H270	H	0.731799	0.021614	1.456125
H271	H	0.139336	-0.443955	1.006671
H272	H	0.639336	0.056045	1.506671
H273	H	0.175513	-0.491654	1.026512
H274	H	0.675513	0.008346	1.526512
H275	H	0.549027	-0.402547	0.325928
H276	H	1.049027	0.097453	0.825928
O277	O	0.171691	-0.518904	0.347495
O278	O	0.671691	-0.018904	0.847495
C279	C	0.180175	-0.557329	0.336523
C280	C	0.680175	-0.057329	0.836523
H281	H	0.157990	-0.580150	0.367931
H282	H	0.657990	-0.080150	0.867931
H283	H	0.169963	-0.543219	0.303957
H284	H	0.669963	-0.043219	0.803957
C285	C	0.260456	-0.559505	0.287525
C286	C	0.760456	-0.059505	0.787525
C287	C	0.233211	-0.587537	0.326103
C288	C	0.733211	-0.087537	0.826103
H289	H	0.293171	-0.578138	0.281095
H290	H	0.793171	-0.078138	0.781095
H291	H	0.254740	-0.533617	0.294916
H292	H	0.754740	-0.033617	0.794916
H293	H	0.251941	-0.547749	0.260392
H294	H	0.751941	-0.047749	0.760392
H295	H	0.241722	-0.599288	0.353236
H296	H	0.741722	-0.099288	0.853236
H297	H	0.238930	-0.613428	0.318716
H298	H	0.738930	-0.113428	0.818716
O299	O	0.044109	-0.376948	0.718527
O300	O	0.544109	0.123052	1.218527
C301	C	-0.002564	-0.369909	0.751157
C302	C	0.497436	0.130091	1.251157
H303	H	-0.002440	-0.399890	0.786585
H304	H	0.497560	0.100110	1.286585
H305	H	-0.016807	-0.334497	0.756455
H306	H	0.483193	0.165503	1.256455
C307	C	-0.034630	-0.332734	0.688274
C308	C	0.465370	0.167266	1.188274
C309	C	-0.034477	-0.369559	0.731786
C310	C	0.465523	0.130441	1.231786
H311	H	-0.054316	-0.332516	0.676324
H312	H	0.445684	0.167484	1.176324
H313	H	-0.003185	-0.337474	0.666290
H314	H	0.496815	0.162526	1.166290
H315	H	-0.046498	-0.303228	0.692695
H316	H	0.453502	0.196772	1.192695
H317	H	-0.022604	-0.399065	0.727363
H318	H	0.477396	0.100935	1.227363
H319	H	-0.065921	-0.364824	0.753769
H320	H	0.434079	0.135176	1.253769
O321	O	0.078946	0.008252	0.533658
O322	O	0.578946	0.508252	1.033658
C323	C	0.125622	0.008276	0.516335
C324	C	0.625622	0.508276	1.016335
H325	H	0.148070	-0.006668	0.485845
H326	H	0.648070	0.493332	0.985845
H327	H	0.124912	0.046171	0.503091
H328	H	0.624912	0.546171	1.003091
C329	C	0.119671	-0.004346	0.593939
C330	C	0.619671	0.495654	1.093939
C331	C	0.147244	-0.022704	0.556493
C332	C	0.647244	0.477296	1.056493
H333	H	0.133008	-0.023454	0.618710
H334	H	0.633008	0.476546	1.118710
H335	H	0.088224	-0.004360	0.605610
H336	H	0.588224	0.495640	1.105610
H337	H	0.119081	0.027233	0.582896
H338	H	0.619081	0.527233	1.082896
H339	H	0.147828	-0.054280	0.567535
H340	H	0.647828	0.445720	1.067535
H341	H	0.178691	-0.022695	0.544825
H342	H	0.678691	0.477305	1.044825
O343	O	-0.042726	-0.369221	0.939504
O344	O	0.457274	0.130779	1.439504
C345	C	-0.025629	-0.339664	0.939499
C346	C	0.474371	0.160336	1.439499
H347	H	0.004863	-0.362499	0.954444
H348	H	0.504863	0.137501	1.454444
H349	H	-0.012457	-0.315676	0.901611
H350	H	0.487543	0.184324	1.401611
C351	C	-0.103388	-0.280888	0.952129
C352	C	0.396612	0.219112	1.452129
C353	C	-0.065939	-0.308934	0.970489
C354	C	0.434061	0.191066	1.470489
H355	H	-0.128253	-0.261930	0.971243
H356	H	0.371747	0.238070	1.471243
H357	H	-0.114906	-0.300800	0.952131
H358	H	0.385094	0.199200	1.452131
H359	H	-0.092404	-0.260902	0.920556
H360	H	0.407596	0.239098	1.420556
H361	H	-0.076921	-0.328923	1.002059
H362	H	0.423079	0.171077	1.502059
H363	H	-0.054423	-0.289024	0.970493
H364	H	0.445577	0.210976	1.470493
H365	H	0.164551	0.008603	0.352745
H366	H	0.664551	0.508603	0.852745
O367	O	0.549405	-0.583811	0.561742
O368	O	1.049405	-0.083811	1.061742
C369	C	0.549409	-0.566706	0.591294
C370	C	1.049409	-0.066706	1.091294
H371	H	0.564322	-0.536200	0.568457
H372	H	1.064322	-0.036200	1.068457
H373	H	0.511529	-0.553547	0.615305
H374	H	1.011529	-0.053547	1.115305
C375	C	0.562122	-0.644474	0.650038
C376	C	1.062122	-0.144474	1.150038
C377	C	0.580442	-0.607009	0.621989
C378	C	1.080442	-0.107009	1.121989
H379	H	0.581262	-0.669335	0.668973
H380	H	1.081262	-0.169335	1.168973
H381	H	0.562117	-0.655998	0.630129
H382	H	1.062117	-0.155998	1.130129
H383	H	0.530556	-0.633503	0.670043
H384	H	1.030556	-0.133503	1.170043
H385	H	0.612005	-0.617980	0.601980
H386	H	1.112005	-0.117980	1.101980
H387	H	0.580452	-0.595488	0.641894
H388	H	1.080452	-0.095488	1.141894
O389	O	0.021541	0.008193	0.347809
O390	O	0.521541	0.508193	0.847809
C391	C	-0.025140	0.008182	0.365128
C392	C	0.474860	0.508182	0.865128
H393	H	-0.037612	-0.006759	0.405578
H394	H	0.462388	0.493241	0.905578
H395	H	-0.049726	0.046066	0.353116
H396	H	0.450274	0.546066	0.853116
C397	C	-0.010751	-0.004471	0.295948
C398	C	0.489249	0.495529	0.795948
C399	C	-0.026069	-0.022826	0.345630
C400	C	0.473931	0.477174	0.845630
H401	H	-0.011326	-0.023597	0.283919
H402	H	0.488674	0.476403	0.783919
H403	H	0.020698	-0.004463	0.284279
H404	H	0.520698	0.495537	0.784279
H405	H	-0.031242	0.027098	0.285944
H406	H	0.468758	0.527098	0.785944
H407	H	-0.005575	-0.054392	0.355632
H408	H	0.494425	0.445608	0.855632
H409	H	-0.057515	-0.022841	0.357300
H410	H	0.442485	0.477159	0.857300
O411	O	-0.071172	0.008251	0.534130
O412	O	0.428828	0.508251	1.034130
C413	C	-0.100741	0.008228	0.517063
C414	C	0.399259	0.508228	1.017063
H415	H	-0.087902	0.023174	0.476612
H416	H	0.412098	0.523174	0.976612
H417	H	-0.099454	-0.029667	0.529147
H418	H	0.400546	0.470333	1.029147
C419	C	-0.167893	0.020846	0.586422
C420	C	0.332107	0.520846	1.086422
C421	C	-0.152126	0.039207	0.536739
C422	C	0.347874	0.539207	1.036739
H423	H	-0.199590	0.039953	0.598560
H424	H	0.300410	0.539953	1.098560
H425	H	-0.147972	0.020860	0.597922
H426	H	0.352028	0.520860	1.097922
H427	H	-0.166817	-0.010733	0.596486
H428	H	0.333183	0.489267	1.096486
H429	H	-0.153197	0.070782	0.526676
H430	H	0.346803	0.570782	1.026676
H431	H	-0.172049	0.039198	0.525238
H432	H	0.327951	0.539198	1.025238
H433	H	-0.036776	-0.517804	0.939391
H434	H	0.463224	-0.017804	1.439391
H435	H	0.077330	-0.605181	0.528391
H436	H	0.577330	-0.105181	1.028391
O437	O	0.549153	-0.583416	0.411807
O438	O	1.049153	-0.083416	0.911807
C439	C	0.508229	-0.567081	0.400661
C440	C	1.008229	-0.067081	0.900661
H441	H	0.479634	-0.537609	0.416012
H442	H	0.979634	-0.037609	0.916012
H443	H	0.517428	-0.552742	0.360449
H444	H	1.017428	-0.052742	0.860449
C445	C	0.524848	-0.644616	0.403216
C446	C	1.024848	-0.144616	0.903216
C447	C	0.489725	-0.608421	0.422074
C448	C	0.989725	-0.108421	0.922074
H449	H	0.513435	-0.670116	0.416422
H450	H	1.013435	-0.170116	0.916422
H451	H	0.552421	-0.655621	0.410723
H452	H	1.052421	-0.155621	0.910723
H453	H	0.532511	-0.632661	0.369706
H454	H	1.032511	-0.132661	0.869706
H455	H	0.482067	-0.620375	0.455582
H456	H	0.982067	-0.120375	0.955582
H457	H	0.462151	-0.597419	0.414573
H458	H	0.962151	-0.097419	0.914573
O459	O	0.171755	-0.489630	0.816256
O460	O	0.671755	0.010370	1.316256
C461	C	0.218430	-0.496649	0.783627
C462	C	0.718430	0.003351	1.283627
H463	H	0.218308	-0.491082	0.748197
H464	H	0.718308	0.008918	1.248197
H465	H	0.232671	-0.470187	0.778335
H466	H	0.732671	0.029813	1.278335
C467	C	0.250492	-0.554419	0.846511
C468	C	0.750492	-0.054419	1.346511
C469	C	0.250343	-0.547586	0.802996
C470	C	0.750343	-0.047586	1.302996
H471	H	0.270179	-0.585838	0.858460
H472	H	0.770179	-0.085838	1.358460
H473	H	0.219047	-0.549690	0.868494
H474	H	0.719047	-0.049690	1.368494
H475	H	0.262358	-0.532364	0.842095
H476	H	0.762358	-0.032364	1.342095
H477	H	0.238472	-0.569637	0.807414
H478	H	0.738472	-0.069637	1.307414
H479	H	0.281787	-0.552320	0.781014
H480	H	0.781787	-0.052320	1.281014
O481	O	0.204266	-0.456976	0.718302
O482	O	0.704266	0.043024	1.218302
C483	C	0.216260	-0.481987	0.689534
C484	C	0.716260	0.018013	1.189534
H485	H	0.188242	-0.498819	0.704533
H486	H	0.688242	0.001181	1.204533
H487	H	0.217878	-0.456416	0.651865
H488	H	0.717878	0.043584	1.151865
C489	C	0.299438	-0.500440	0.670313
C490	C	0.799438	-0.000440	1.170313
C491	C	0.265027	-0.521117	0.688737
C492	C	0.765027	-0.021117	1.188737
H493	H	0.329521	-0.524576	0.669819
H494	H	0.829521	-0.024576	1.169819
H495	H	0.291358	-0.483588	0.689693
H496	H	0.791358	0.016412	1.189693
H497	H	0.300780	-0.479132	0.638924
H498	H	0.800780	0.020868	1.138924
H499	H	0.263681	-0.542421	0.720128
H500	H	0.763681	-0.042421	1.220128
H501	H	0.273108	-0.537973	0.669363
H502	H	0.773108	-0.037973	1.169363
H503	H	0.138503	-0.605120	0.939399
H504	H	0.638503	-0.105120	1.439399
H505	H	0.019013	-0.411451	0.519888
H506	H	0.519013	0.088549	1.019888
O507	O	0.044009	-0.376833	0.554357
O508	O	0.544009	0.123167	1.054357
C509	C	0.015229	-0.335144	0.529283
C510	C	0.515229	0.164856	1.029283
H511	H	0.034397	-0.328222	0.489505
H512	H	0.534397	0.171778	0.989505
H513	H	-0.019697	-0.339669	0.539888
H514	H	0.480303	0.160331	1.039888
C515	C	-0.018465	-0.301344	0.590155
C516	C	0.481535	0.198656	1.090155
C517	C	0.005079	-0.292840	0.541299
C518	C	0.505079	0.207160	1.041299
H519	H	-0.024729	-0.275250	0.597569
H520	H	0.475271	0.224750	1.097569
H521	H	0.000923	-0.329432	0.607050
H522	H	0.500923	0.170568	1.107050
H523	H	-0.047568	-0.305116	0.598987
H524	H	0.452432	0.194884	1.098987
H525	H	0.034183	-0.289075	0.532470
H526	H	0.534183	0.210925	1.032470
H527	H	-0.014305	-0.264751	0.524404
H528	H	0.485695	0.235249	1.024404
O529	O	0.171420	-0.489528	0.441661
O530	O	0.671420	0.010472	0.941661
C531	C	0.218118	-0.496573	0.434595
C532	C	0.718118	0.003427	0.934595
H533	H	0.218032	-0.466601	0.440148
H534	H	0.718032	0.033399	0.940148
H535	H	0.232390	-0.531992	0.461039
H536	H	0.732390	-0.031992	0.961039
C537	C	0.250072	-0.533723	0.376832
C538	C	0.750072	-0.033723	0.876832
C539	C	0.249966	-0.496908	0.383649
C540	C	0.749966	0.003092	0.883649
H541	H	0.269718	-0.533932	0.345407
H542	H	0.769718	-0.033932	0.845407
H543	H	0.218611	-0.528978	0.381593
H544	H	0.718611	-0.028978	0.881593
H545	H	0.261964	-0.563235	0.398872
H546	H	0.761964	-0.063235	0.898872
H547	H	0.238068	-0.467397	0.361614
H548	H	0.738068	0.032603	0.861614
H549	H	0.281426	-0.501648	0.378883
H550	H	0.781426	-0.001648	0.878883
H551	H	0.196371	-0.454985	0.476195
H552	H	0.696371	0.045015	0.976195
H553	H	0.332093	-0.491119	0.540748
H554	H	0.832093	0.008881	1.040748
H555	H	0.422223	-0.375220	0.454977
H556	H	0.922223	0.124780	0.954977
O557	O	0.426112	-0.528801	0.511791
O558	O	0.926112	-0.028801	1.011791
C559	C	0.393528	-0.553440	0.536203
C560	C	0.893528	-0.053440	1.036203
H561	H	0.358098	-0.531760	0.556591
H562	H	0.858098	-0.031760	1.056591
H563	H	0.388217	-0.559194	0.509616
H564	H	0.888217	-0.059194	1.009616
C565	C	0.456486	-0.628497	0.546200
C566	C	0.956486	-0.128497	1.046200
C567	C	0.412971	-0.601871	0.571245
C568	C	0.912971	-0.101871	1.071245
H569	H	0.468480	-0.658372	0.567814
H570	H	0.968480	-0.158372	1.067814
H571	H	0.478439	-0.611898	0.529752
H572	H	0.978439	-0.111898	1.029752
H573	H	0.452054	-0.633287	0.524046
H574	H	0.952054	-0.133287	1.024046
H575	H	0.417404	-0.597077	0.593394
H576	H	0.917404	-0.097077	1.093394
H577	H	0.391019	-0.618471	0.587698
H578	H	0.891019	-0.118471	1.087698
H579	H	0.332037	-0.345175	0.485091
H580	H	0.832037	0.154825	0.985091
O581	O	0.163894	-0.212762	0.434319
O582	O	0.663894	0.287238	0.934319
C583	C	0.138761	-0.200607	0.405597
C584	C	0.638761	0.299393	0.905597
H585	H	0.098994	-0.186955	0.424819
H586	H	0.598994	0.313045	0.924819
H587	H	0.149313	-0.171738	0.370669
H588	H	0.649313	0.328262	0.870669
C589	C	0.199617	-0.261536	0.371829
C590	C	0.699617	0.238464	0.871829
C591	C	0.150774	-0.244772	0.395440
C592	C	0.650774	0.255228	0.895440
H593	H	0.207028	-0.288778	0.365562
H594	H	0.707028	0.211222	0.865562
H595	H	0.216550	-0.269724	0.391178
H596	H	0.716550	0.230276	0.891178
H597	H	0.208403	-0.237474	0.342725
H598	H	0.708403	0.262526	0.842725
H599	H	0.141989	-0.268831	0.424546
H600	H	0.641989	0.231169	0.924546
H601	H	0.133839	-0.236589	0.376096
H602	H	0.633839	0.263411	0.876096
O603	O	0.131163	-0.114752	0.401711
O604	O	0.631163	0.385248	0.901711
C605	C	0.089368	-0.085995	0.389734
C606	C	0.589368	0.414005	0.889734
H607	H	0.059523	-0.100994	0.417777
H608	H	0.559523	0.399006	0.917777
H609	H	0.078895	-0.048318	0.388092
H610	H	0.578895	0.451682	0.888092
C611	C	0.134830	-0.066795	0.306546
C612	C	0.634830	0.433205	0.806546
C613	C	0.098176	-0.085220	0.340987
C614	C	0.598176	0.414780	0.840987
H615	H	0.140263	-0.066315	0.276476
H616	H	0.640263	0.433685	0.776476
H617	H	0.162989	-0.086168	0.314614
H618	H	0.662989	0.413832	0.814614
H619	H	0.126098	-0.035399	0.305183
H620	H	0.626098	0.464601	0.805183
H621	H	0.106911	-0.116617	0.342353
H622	H	0.606911	0.383383	0.842353
H623	H	0.070019	-0.065852	0.332917
H624	H	0.570019	0.434148	0.832917
H625	H	0.055841	-0.118733	0.556693
H626	H	0.555841	0.381267	1.056693
H627	H	0.085944	-0.208923	0.586721
H628	H	0.585944	0.291077	1.086721
H629	H	-0.091873	-0.522445	0.255974
H630	H	0.408127	-0.022445	0.755974
O631	O	-0.063625	-0.484741	0.161952
O632	O	0.436375	0.015259	0.661952
C633	C	-0.092429	-0.459756	0.194533
C634	C	0.407571	0.040244	0.694533
H635	H	-0.110545	-0.483441	0.229953
H636	H	0.389455	0.016559	0.729953
H637	H	-0.069515	-0.449059	0.199873
H638	H	0.430485	0.050941	0.699873
C639	C	-0.108127	-0.385825	0.131557
C640	C	0.391873	0.114175	0.631557
C641	C	-0.130380	-0.414915	0.175060
C642	C	0.369620	0.085085	0.675060
H643	H	-0.131535	-0.358164	0.119545
H644	H	0.368465	0.141836	0.619545
H645	H	-0.088720	-0.402658	0.109606
H646	H	0.411280	0.097342	0.609606
H647	H	-0.089032	-0.376917	0.136013
H648	H	0.410968	0.123083	0.636013
H649	H	-0.149469	-0.423828	0.170602
H650	H	0.350531	0.076172	0.670602
H651	H	-0.149791	-0.398083	0.197010
H652	H	0.350209	0.101917	0.697010
O653	O	0.016410	-0.644911	0.162045
O654	O	0.516410	-0.144911	0.662045
C655	C	0.023382	-0.691593	0.194669
C656	C	0.523382	-0.191593	0.694669
H657	H	0.017779	-0.691494	0.230123
H658	H	0.517779	-0.191494	0.730123
H659	H	-0.003079	-0.705799	0.199903
H660	H	0.496921	-0.205799	0.699903
C661	C	0.081192	-0.723651	0.131797
C662	C	0.581192	-0.223651	0.631797
C663	C	0.074315	-0.723530	0.175341
C664	C	0.574315	-0.223530	0.675341
H665	H	0.112609	-0.743352	0.119874
H666	H	0.612609	-0.243352	0.619874
H667	H	0.076494	-0.692200	0.109817
H668	H	0.576494	-0.192200	0.609817
H669	H	0.059138	-0.735488	0.136165
H670	H	0.559138	-0.235488	0.636165
H671	H	0.096364	-0.711687	0.170972
H672	H	0.596364	-0.211687	0.670972
H673	H	0.079017	-0.754980	0.197320
H674	H	0.579017	-0.254980	0.697320
H675	H	-0.018278	-0.669778	0.256062
H676	H	0.481722	-0.169778	0.756062
H677	H	-0.091926	-0.522444	0.298262
H678	H	0.408074	-0.022444	0.798262
H679	H	-0.098172	-0.765271	0.392919
H680	H	0.401828	-0.265271	0.892919
H681	H	-0.061921	-0.492427	0.328433
H682	H	0.438079	0.007573	0.828433
H683	H	0.011557	-0.639751	0.402207
H684	H	0.511557	-0.139751	0.902207
H685	H	-0.018458	-0.669769	0.372051
H686	H	0.481542	-0.169769	0.872051
H687	H	0.017768	-0.675232	0.307405
H688	H	0.517768	-0.175232	0.807405
H689	H	0.047765	-0.765423	0.337508
H690	H	0.547765	-0.265423	0.837508
H691	H	-0.134345	-0.632833	0.408685
H692	H	0.365655	-0.132833	0.908685
O693	O	-0.135779	-0.671183	0.363847
O694	O	0.364221	-0.171183	0.863847
C695	C	-0.150915	-0.683325	0.341470
C696	C	0.349085	-0.183325	0.841470
H697	H	-0.119137	-0.697032	0.312137
H698	H	0.380863	-0.197032	0.812137
H699	H	-0.167599	-0.712149	0.368700
H700	H	0.332401	-0.212149	0.868700
C701	C	-0.226867	-0.622302	0.355898
C702	C	0.273133	-0.122302	0.855898
C703	C	-0.187838	-0.639133	0.319867
C704	C	0.312162	-0.139133	0.819867
H705	H	-0.249645	-0.595044	0.342573
H706	H	0.250355	-0.095044	0.842573
H707	H	-0.216671	-0.614122	0.370975
H708	H	0.283329	-0.114122	0.870975
H709	H	-0.240764	-0.646326	0.378586
H710	H	0.259236	-0.146326	0.878586
H711	H	-0.173938	-0.615112	0.297183
H712	H	0.326062	-0.115112	0.797183
H713	H	-0.198033	-0.647308	0.304785
H714	H	0.301967	-0.147308	0.804785
O715	O	-0.228431	-0.604633	0.446287
O716	O	0.271569	-0.104633	0.946287
C717	C	-0.216319	-0.654425	0.466947
C718	C	0.283681	-0.154425	0.966947
H719	H	-0.202614	-0.670457	0.438634
H720	H	0.297386	-0.170457	0.938634
H721	H	-0.187505	-0.669176	0.482708
H722	H	0.312495	-0.169176	0.982708
C723	C	-0.277355	-0.647539	0.541246
C724	C	0.222645	-0.147539	1.041246
C725	C	-0.260527	-0.667230	0.506472
C726	C	0.239473	-0.167230	1.006472
H727	H	-0.304624	-0.655438	0.565629
H728	H	0.195376	-0.155438	1.065629
H729	H	-0.285515	-0.613993	0.527328
H730	H	0.214485	-0.113993	1.027328
H731	H	-0.253340	-0.659833	0.554375
H732	H	0.246660	-0.159833	1.054375
H733	H	-0.284540	-0.654931	0.493341
H734	H	0.215460	-0.154931	0.993341
H735	H	-0.252373	-0.700774	0.520390
H736	H	0.247627	-0.200774	1.020390
O737	O	-0.228125	-0.524553	0.286081
O738	O	0.271875	-0.024553	0.786081
C739	C	-0.195471	-0.517565	0.239417
C740	C	0.304529	-0.017565	0.739417
H741	H	-0.160049	-0.523156	0.239569
H742	H	0.339951	-0.023156	0.739569
H743	H	-0.190173	-0.544028	0.225169
H744	H	0.309827	-0.044028	0.725169
C745	C	-0.258312	-0.459766	0.207302
C746	C	0.241688	0.040234	0.707302
C747	C	-0.214808	-0.466629	0.207487
C748	C	0.285192	0.033371	0.707487
H749	H	-0.270241	-0.428347	0.187605
H750	H	0.229759	0.071653	0.687605
H751	H	-0.280313	-0.464475	0.238739
H752	H	0.219687	0.035525	0.738739
H753	H	-0.253892	-0.481822	0.195429
H754	H	0.246108	0.018178	0.695429
H755	H	-0.219230	-0.444578	0.219365
H756	H	0.280770	0.055422	0.719365
H757	H	-0.192808	-0.461915	0.176051
H758	H	0.307192	0.038085	0.676051
H759	H	-0.134111	-0.559208	0.261309
H760	H	0.365889	-0.059208	0.761309
