data_functionalizedCrystal
_audit_creation_method	'MofGen! by Chris Wilmer'
_symmetry_space_group_name_H-M	'P1'
_symmetry_Int_Tables_number	1
_symmetry_cell_setting	triclinic
loop_
_symmetry_equiv_pos_as_xyz
  x,y,z
_cell_length_a	10.686154
_cell_length_b	10.685986
_cell_length_c	10.685594
_cell_angle_alpha	89.632252
_cell_angle_beta	81.596574
_cell_angle_gamma	80.972068
loop_
_atom_site_label
_atom_site_type_symbol
_atom_site_fract_x
_atom_site_fract_y
_atom_site_fract_z
Zn1	Zn	-1.859475	-0.595194	-0.313816
Zn2	Zn	-1.359475	-0.095194	0.186184
Zn3	Zn	-1.856847	-0.401732	-0.539914
Zn4	Zn	-1.356847	0.098268	-0.039914
Zn5	Zn	-1.660974	-0.401717	-0.343974
Zn6	Zn	-1.160974	0.098283	0.156026
Zn7	Zn	-1.628453	-0.630155	-0.539820
Zn8	Zn	-1.128453	-0.130155	-0.039820
O9	O	-1.751437	-0.507199	-0.434381
O10	O	-1.251437	-0.007199	0.065619
O11	O	-2.037784	-0.554906	-0.331226
O12	O	-1.537784	-0.054906	0.168774
O13	O	-1.843374	-0.225163	-0.526583
O14	O	-1.343374	0.274837	-0.026583
O15	O	-1.702015	-0.412744	-0.163389
O16	O	-1.202015	0.087256	0.336611
O17	O	-2.035853	-0.412770	-0.497340
O18	O	-1.535853	0.087230	0.002660
O19	O	-1.847854	-0.554891	-0.141232
O20	O	-1.347854	-0.054891	0.358768
O21	O	-1.699467	-0.225152	-0.382627
O22	O	-1.199467	0.274848	0.117373
O23	O	-1.478002	-0.446644	-0.382536
O24	O	-0.978002	0.053356	0.117464
O25	O	-1.646589	-0.802084	-0.497179
O26	O	-1.146589	-0.302084	0.002821
O27	O	-1.454110	-0.614477	-0.526423
O28	O	-0.954110	-0.114477	-0.026423
O29	O	-1.816320	-0.776398	-0.331135
O30	O	-1.316320	-0.276398	0.168865
O31	O	-1.811840	-0.446670	-0.716486
O32	O	-1.311840	0.053330	-0.216486
O33	O	-1.644040	-0.614492	-0.716417
O34	O	-1.144040	-0.114492	-0.216417
C35	C	-1.419732	-0.534354	-0.457743
C36	C	-0.919732	-0.034354	0.042257
C37	C	-1.277822	-0.546003	-0.467765
C38	C	-0.777822	-0.046003	0.032235
C39	C	-1.724159	-0.534401	-0.762234
C40	C	-1.224159	-0.034401	-0.262234
C41	C	-1.712603	-0.546071	-0.902480
C42	C	-1.212603	-0.046071	-0.402480
C43	C	-1.084439	-0.479926	-0.410924
C44	C	-0.584439	0.020074	0.089076
C45	C	-1.226349	-0.468267	-0.400913
C46	C	-0.726349	0.031733	0.099087
C47	C	-1.728120	-0.836303	-0.410782
C48	C	-1.228120	-0.336303	0.089218
C49	C	-1.718183	-0.976547	-0.400726
C50	C	-1.218183	-0.476547	0.099274
C51	C	-1.774745	-0.179362	-0.457792
C52	C	-1.274745	0.320638	0.042208
C53	C	-1.784958	-0.039069	-0.467475
C54	C	-1.284958	0.460931	0.032525
C55	C	-1.778855	-0.479916	-0.105244
C56	C	-1.278855	0.020084	0.394756
C57	C	-1.790539	-0.468290	0.035015
C58	C	-1.290539	0.031710	0.535015
H59	H	-1.290852	-0.392790	-0.336013
H60	H	-0.790852	0.107210	0.163987
Cl61	Cl	-1.618182	-1.059555	-0.300611
Cl62	Cl	-1.118182	-0.559555	0.199389
H63	H	-1.866115	-0.392770	-0.911200
H64	H	-1.366115	0.107230	-0.411200
H65	H	-1.637041	-0.621594	-0.956258
H66	H	-1.137041	-0.121594	-0.456258
Cl67	Cl	-1.178248	-0.662516	-0.567978
Cl68	Cl	-0.678248	-0.162516	-0.067978
Cl69	Cl	-1.884970	-0.956064	-0.567571
Cl70	Cl	-1.384970	-0.456064	-0.067571
