data_functionalizedCrystal
_audit_creation_method	'MofGen! by Chris Wilmer'
_symmetry_space_group_name_H-M	'P1'
_symmetry_Int_Tables_number	1
_symmetry_cell_setting	triclinic
loop_
_symmetry_equiv_pos_as_xyz
  x,y,z
_cell_length_a	27.440280
_cell_length_b	14.560438
_cell_length_c	14.560438
_cell_angle_alpha	89.998966
_cell_angle_beta	60.006796
_cell_angle_gamma	120.001543
loop_
_atom_site_label
_atom_site_type_symbol
_atom_site_fract_x
_atom_site_fract_y
_atom_site_fract_z
Zr1	Zr	0.533399	0.120521	0.884879
O2	O	0.635060	0.267166	0.738254
O3	O	0.431737	0.075568	0.929811
O4	O	0.533400	0.267170	0.929830
O5	O	0.533396	-0.075577	0.738238
O6	O	0.533402	0.267171	1.080969
O7	O	0.533397	0.075564	0.738234
O8	O	0.351545	-0.075570	1.080933
O9	O	0.715253	0.267164	0.738274
O10	O	0.473553	0.056395	1.061787
O11	O	0.473551	-0.056401	0.948997
O12	O	0.593246	0.169186	0.949020
O13	O	0.593244	0.056390	0.836230
Zr14	Zr	0.533399	-0.120530	1.125933
Zr15	Zr	0.533401	0.120523	1.125927
Zr16	Zr	0.533397	-0.120531	0.884885
Zr17	Zr	0.661296	0.120518	0.884910
Zr18	Zr	0.405501	-0.120527	1.125902
O19	O	0.635060	-0.075577	1.081002
O20	O	0.635063	0.267169	1.080993
O21	O	0.635057	-0.075579	0.738263
O22	O	0.431737	-0.267175	1.272559
O23	O	0.431740	0.075570	1.272550
O24	O	0.431734	-0.267177	0.929819
O25	O	0.533402	0.075568	1.272575
O26	O	0.533397	-0.267179	1.080982
O27	O	0.533396	-0.267180	0.929844
O28	O	0.533400	-0.075573	1.272578
O29	O	0.715254	0.267166	0.929875
O30	O	0.351543	-0.267175	1.080938
O31	O	0.351545	-0.267173	1.272539
O32	O	0.351546	-0.075569	1.272534
O33	O	0.715251	0.075560	0.738278
O34	O	0.715253	0.075561	0.929880
O35	O	0.473551	-0.169195	1.061793
O36	O	0.473553	-0.056399	1.174582
O37	O	0.593246	0.056392	1.061816
O38	O	0.593244	-0.056404	0.949026
C39	C	0.373418	-0.000001	1.005367
C40	C	0.319122	0.000000	1.005354
C41	C	0.533401	0.301515	1.005399
C42	C	0.533402	0.403848	1.005396
C43	C	0.533396	-0.301524	1.005414
C44	C	0.533395	-0.403857	1.005417
C45	C	-0.017619	0.058864	1.064313
C46	C	-0.068643	0.058861	1.064323
O47	O	-0.095048	0.108900	1.114429
N48	N	-0.094160	-0.000015	1.005447
C49	C	-0.068655	-0.058901	0.946566
O50	O	-0.095045	-0.108981	0.896489
C51	C	-0.017636	-0.058904	0.946563
C52	C	0.007884	-0.000015	1.005434
C53	C	0.007900	0.117747	1.123180
C54	C	0.058922	0.117751	1.123168
C55	C	0.084424	0.058873	1.064288
C56	C	0.058905	-0.000010	1.005422
C57	C	0.007864	-0.117796	0.887689
C58	C	0.058887	-0.117794	0.887692
C59	C	0.084406	-0.058905	0.946563
C60	C	0.135428	-0.058884	0.946530
N61	N	0.160946	-0.000009	1.005406
C62	C	0.135443	0.058870	1.064285
C63	C	-0.175801	-0.058892	0.946578
C64	C	-0.226816	-0.058883	0.946574
C65	C	-0.226800	0.058877	1.064333
C66	C	-0.175781	0.058874	1.064330
C67	C	-0.150283	-0.000016	1.005455
C68	C	0.242592	0.058876	1.064255
C69	C	0.293620	0.058879	1.064233
C70	C	0.293598	-0.058886	0.946480
C71	C	0.242577	-0.058884	0.946496
C72	C	0.217074	-0.000001	1.005391
O73	O	0.161864	-0.108902	0.896454
O74	O	0.161833	0.108929	1.114366
C75	C	0.693379	-0.000008	1.005445
C76	C	0.747675	-0.000009	1.005458
C77	C	0.533396	-0.000007	0.703892
C78	C	0.533395	-0.000007	0.601561
C79	C	0.595880	0.510800	0.946534
C80	C	0.595877	0.606949	0.946548
C81	C	0.470913	0.489180	1.064286
C82	C	0.470917	0.393033	1.064278
C83	C	0.470918	-0.058879	0.612345
C84	C	0.470921	-0.058880	0.516190
C85	C	0.595885	0.058872	0.398470
C86	C	0.595881	0.058865	0.494623
C87	C	0.533401	-0.000002	1.306921
C88	C	0.533402	-0.000001	1.409252
C89	C	0.373421	0.000001	1.306882
C90	C	0.319126	0.000003	1.409200
C91	C	0.373416	-0.301520	1.005375
C92	C	0.319119	-0.403852	1.005365
C93	C	0.373418	-0.301518	1.306890
C94	C	0.319122	-0.403849	1.409210
C95	C	0.693379	0.301509	0.703923
C96	C	0.747675	0.403840	0.601603
C97	C	0.693377	-0.000010	0.703931
C98	C	0.747672	-0.000012	0.601613
C99	C	0.693382	0.301511	1.005438
C100	C	0.747679	0.403843	1.005448
C101	C	0.293628	0.058892	1.398371
C102	C	0.242620	0.058916	1.494501
C103	C	0.217106	0.000045	1.601458
C104	C	0.242608	-0.058845	1.612284
C105	C	0.293620	-0.058862	1.516156
C106	C	0.293620	-0.510796	1.064238
C107	C	0.242610	-0.606956	1.064223
C108	C	0.217095	-0.596171	1.005342
C109	C	0.242599	-0.489216	0.946462
C110	C	0.293612	-0.393058	0.946470
C111	C	0.293625	-0.393027	1.516146
C112	C	0.242616	-0.489168	1.612297
C113	C	0.217100	-0.596131	1.601508
C114	C	0.242602	-0.606951	1.494561
C115	C	0.293615	-0.510811	1.398413
C116	C	0.773178	0.393018	0.494666
C117	C	0.824204	0.489159	0.398516
C118	C	0.849722	0.596122	0.409304
C119	C	0.824217	0.606943	0.516252
C120	C	0.773195	0.510802	0.612400
C121	C	0.773174	-0.058890	0.612441
C122	C	0.824197	-0.058888	0.516312
C123	C	0.849713	-0.000014	0.409355
C124	C	0.824208	0.058872	0.398529
C125	C	0.773190	0.058876	0.494657
C126	C	0.773177	0.393022	1.064341
C127	C	0.824188	0.489164	1.064373
C128	C	0.849703	0.596127	1.005505
C129	C	0.824199	0.606946	0.946610
C130	C	0.773186	0.510805	0.946585
H131	H	0.314398	0.106837	1.112172
H132	H	0.221806	-0.106822	0.898543
C133	C	0.745125	0.275371	0.482777
H134	H	0.767634	0.282712	0.405313
H135	H	0.696961	0.235406	0.517816
H136	H	0.753492	0.235424	0.517847
H137	H	0.175563	-0.674406	1.679807
H138	H	0.079695	0.165700	1.171109
C139	C	0.402182	0.477286	1.129023
H140	H	0.364973	0.399816	1.164081
H141	H	0.399591	0.512347	1.078192
H142	H	0.399576	0.512341	1.184749
C143	C	0.214525	-0.724613	1.482708
H144	H	0.180486	-0.780312	1.555292
H145	H	0.251138	-0.733073	1.442769
H146	H	0.194610	-0.733051	1.442768
C147	C	0.402195	-0.123633	0.528057
H148	H	0.364984	-0.158687	0.605517
H149	H	0.399594	-0.179351	0.493000
H150	H	0.399604	-0.072799	0.492992
H151	H	0.845000	0.694043	0.525022
C152	C	0.905822	0.701872	1.005531
H153	H	0.917355	0.680098	1.049030
H154	H	0.889109	0.745380	1.037048
H155	H	0.945632	0.745365	0.930523
H156	H	0.752403	-0.106841	0.699522
H157	H	0.175568	0.000067	1.679722
C158	C	-0.020202	-0.182580	0.822939
H159	H	-0.054240	-0.174152	0.831360
H160	H	-0.040100	-0.260037	0.852019
H161	H	0.016421	-0.153504	0.745480
C162	C	0.664607	0.123422	0.482767
H163	H	0.655654	0.114912	0.555349
H164	H	0.690383	0.200915	0.442808
H165	H	0.690178	0.094180	0.442845
H166	H	0.420037	0.305942	1.112216
H167	H	0.420038	-0.106829	0.699415
C168	C	0.321649	-0.123661	0.881732
H169	H	0.355684	-0.115233	0.890175
H170	H	0.341546	-0.094606	0.804275
H171	H	0.285017	-0.201126	0.910827
H172	H	0.646760	0.519612	0.898589
C173	C	0.852237	-0.123677	0.528241
H174	H	0.829722	-0.158754	0.605710
H175	H	0.900400	-0.072871	0.493209
H176	H	0.843872	-0.179398	0.493178
C177	C	0.321653	-0.522723	1.280787
H178	H	0.355692	-0.450153	1.225060
H179	H	0.285020	-0.562683	1.272365
H180	H	0.341557	-0.562676	1.272363
C181	C	0.852275	0.123619	0.280873
H182	H	0.886306	0.115166	0.225183
H183	H	0.872181	0.201084	0.272420
H184	H	0.815649	0.094527	0.272425
C185	C	-0.147748	-0.123657	0.881793
H186	H	-0.170251	-0.158708	0.846724
H187	H	-0.156103	-0.179379	0.932594
H188	H	-0.099582	-0.072828	0.826072
C189	C	0.664613	0.123640	0.280841
H190	H	0.655668	0.115223	0.225119
H191	H	0.690286	0.094565	0.272410
H192	H	0.690282	0.201104	0.272421
C193	C	0.214533	-0.123608	1.729939
H194	H	0.180495	-0.115169	1.785630
H195	H	0.251147	-0.094551	1.738406
H196	H	0.194618	-0.201077	1.738375
H197	H	-0.012861	0.165692	1.171131
C198	C	0.852241	0.477244	1.129145
H199	H	0.829745	0.399770	1.164180
H200	H	0.843878	0.512287	1.184873
H201	H	0.900408	0.512304	1.078328
C202	C	0.321663	-0.123643	1.528075
H203	H	0.355703	-0.115221	1.455512
H204	H	0.285034	-0.201099	1.568029
H205	H	0.341568	-0.094552	1.568030
C206	C	0.214569	0.123684	1.482572
H207	H	0.237063	0.158721	1.405103
H208	H	0.222933	0.179415	1.517615
H209	H	0.166401	0.072857	1.517623
H210	H	0.221832	0.106822	1.112215
H211	H	0.314401	0.106845	1.311290
H212	H	0.646752	0.694031	0.898618
H213	H	0.844982	0.694047	0.898681
C214	C	0.214559	-0.724591	1.129006
H215	H	0.237055	-0.717234	1.164088
H216	H	0.222923	-0.764558	1.078201
H217	H	0.166391	-0.764547	1.184715
C218	C	0.745151	0.522722	0.881784
H219	H	0.767662	0.600196	0.846721
H220	H	0.696986	0.487668	0.932572
H221	H	0.753525	0.487672	0.826057
H222	H	0.844961	0.480327	0.311444
H223	H	0.314389	-0.519599	1.112186
H224	H	-0.247574	0.106817	1.112278
C225	C	-0.147721	0.123637	1.129101
H226	H	-0.170224	0.158694	1.164170
H227	H	-0.099556	0.179354	1.078295
H228	H	-0.156088	0.072806	1.184820
H229	H	0.891266	0.674397	0.331005
H230	H	0.752431	0.519627	0.699469
H231	H	0.891256	-0.000026	0.331090
C232	C	0.160978	-0.701952	1.005349
H233	H	0.149445	-0.767185	1.048857
H234	H	0.177692	-0.701973	0.930346
H235	H	0.121167	-0.701967	1.036877
C236	C	0.214527	-0.477361	0.881702
H237	H	0.237019	-0.399898	0.846629
H238	H	0.166362	-0.512435	0.932521
H239	H	0.222893	-0.512426	0.825987
H240	H	-0.247582	-0.106822	0.898621
H241	H	0.314366	-0.305984	0.898532
C242	C	0.745118	0.275376	1.129106
H243	H	0.767610	0.282717	1.164190
H244	H	0.753479	0.235414	1.078295
H245	H	0.696950	0.235425	1.184813
H246	H	0.079645	-0.165749	0.839746
H247	H	0.314393	-0.305941	1.524952
C248	C	0.214551	-0.477252	1.729926
H249	H	0.180516	-0.549824	1.785651
H250	H	0.194649	-0.437307	1.738321
H251	H	0.251173	-0.437286	1.738379
H252	H	0.752427	0.106818	0.485825
