data_functionalizedCrystal
_audit_creation_method	'MofGen! by Chris Wilmer'
_symmetry_space_group_name_H-M	'P1'
_symmetry_Int_Tables_number	1
_symmetry_cell_setting	triclinic
loop_
_symmetry_equiv_pos_as_xyz
  x,y,z
_cell_length_a	15.297475
_cell_length_b	16.625545
_cell_length_c	15.296720
_cell_angle_alpha	80.355801
_cell_angle_beta	88.382886
_cell_angle_gamma	80.328138
loop_
_atom_site_label
_atom_site_type_symbol
_atom_site_fract_x
_atom_site_fract_y
_atom_site_fract_z
Zn1	Zn	1.253363	-0.627520	0.726586
Zn2	Zn	1.278618	-0.743622	0.580099
Zn3	Zn	1.132243	-0.582224	0.554827
Zn4	Zn	1.106845	-0.735696	0.701227
O5	O	1.192767	-0.672265	0.640685
O6	O	1.379290	-0.665194	0.728342
O7	O	1.280400	-0.706572	0.454172
O8	O	1.148370	-0.475415	0.577648
O9	O	1.397845	-0.750494	0.620719
O10	O	1.237356	-0.508694	0.703838
O11	O	1.172859	-0.587994	0.435605
O12	O	1.006298	-0.580309	0.553059
O13	O	1.105082	-0.736986	0.827166
O14	O	0.987638	-0.693064	0.660618
O15	O	1.212728	-0.657509	0.845796
O16	O	1.255773	-0.855388	0.596131
O17	O	1.129571	-0.849565	0.685123
C18	C	0.965185	-0.630912	0.601345
C19	C	0.867820	-0.613243	0.584536
C20	C	0.554663	-0.798555	0.760823
C21	C	0.646142	-0.815162	0.776613
C22	C	0.701566	-0.764684	0.728595
C23	C	0.665502	-0.697596	0.664784
C24	C	0.574015	-0.680991	0.648987
C25	C	0.720918	-0.647119	0.616760
C26	C	0.684854	-0.580032	0.552949
C27	C	0.593375	-0.563430	0.537156
C28	C	0.537951	-0.613908	0.585173
C29	C	0.812405	-0.663724	0.632557
C30	C	0.831757	-0.546160	0.520722
C31	C	0.740278	-0.529553	0.504932
C32	C	1.192677	-0.881735	0.640641
C33	C	1.192713	-0.971366	0.640665
C34	C	1.192744	-1.044157	0.640688
C35	C	1.192792	-1.135477	0.640716
C36	C	1.192836	-1.208263	0.640735
C37	C	1.192883	-1.299589	0.640762
C38	C	1.421239	-0.713781	0.680178
C39	C	1.518599	-0.731472	0.697008
C40	C	1.153255	-0.701416	0.869152
C41	C	1.136417	-0.713838	0.966510
C42	C	1.192879	-0.461984	0.640752
C43	C	1.192926	-0.372375	0.640781
C44	C	1.232177	-0.643179	0.413115
C45	C	1.249184	-0.630560	0.315786
C46	C	1.313143	-0.583346	1.279750
C47	C	1.328969	-0.571677	1.188278
C48	C	1.280832	-0.607216	1.132831
C49	C	1.216867	-0.654427	1.168867
C50	C	1.201045	-0.666102	1.260349
C51	C	1.168734	-0.689972	1.113430
C52	C	1.104769	-0.737183	1.149465
C53	C	1.088949	-0.748856	1.240939
C54	C	1.137086	-0.713317	1.296385
C55	C	1.184556	-0.678297	1.021948
C56	C	1.072458	-0.761053	1.002547
C57	C	1.056633	-0.772722	1.094019
H58	H	0.463460	-0.600389	0.572322
H59	H	0.564017	-0.508809	0.485188
H60	H	1.293721	-0.597712	1.058351
C61	C	0.768588	-0.415008	0.395974
C62	C	0.700631	-0.455814	0.434788
H63	H	0.744109	-0.369482	0.352675
H64	H	0.810054	-0.452275	0.368556
H65	H	0.797679	-0.395580	0.440369
H66	H	0.671544	-0.475247	0.390394
H67	H	0.659150	-0.418539	0.462206
H68	H	0.776052	-0.778209	0.741456
C69	C	0.928976	-0.769785	0.948735
C70	C	1.019539	-0.800124	0.941612
H71	H	0.896312	-0.793911	0.911117
H72	H	0.918784	-0.711382	0.931543
H73	H	0.910412	-0.783499	1.008377
H74	H	1.038105	-0.786404	0.881972
H75	H	1.029736	-0.858540	0.958799
C76	C	0.617818	-0.929696	0.885568
C77	C	0.685781	-0.888898	0.846754
H78	H	0.642291	-0.975216	0.928877
H79	H	0.588730	-0.949124	0.841182
H80	H	0.576348	-0.892416	0.912983
H81	H	0.727247	-0.926176	0.819333
H82	H	0.714883	-0.869470	0.891148
C83	C	1.438176	-0.491047	1.216649
C84	C	1.399269	-0.519780	1.148669
H85	H	1.481574	-0.459001	1.192193
H86	H	1.465490	-0.536814	1.258106
H87	H	1.393847	-0.457827	1.245742
H88	H	1.443597	-0.553005	1.119580
H89	H	1.371955	-0.474006	1.107197
C90	C	0.405831	-0.825293	0.786253
C91	C	0.493742	-0.854036	0.813597
H92	H	0.368221	-0.859546	0.818840
H93	H	0.401014	-0.826774	0.724793
H94	H	0.388634	-0.770068	0.796596
H95	H	0.510941	-0.909259	0.803247
H96	H	0.498562	-0.852563	0.875071
C97	C	1.258580	-0.623648	0.890341
C98	C	1.254853	-0.626395	0.982341
H99	H	1.301983	-0.591605	0.865892
H100	H	1.202330	-0.599244	0.865187
H101	H	1.273969	-0.678234	0.877550
H102	H	1.239458	-0.571809	0.995131
H103	H	1.311116	-0.650796	1.007503
H104	H	1.004552	-0.811161	1.123372
H105	H	1.352334	-0.554420	1.324903
C106	C	0.980581	-0.519403	0.495282
C107	C	0.892670	-0.490666	0.467938
H108	H	1.018188	-0.485143	0.462699
H109	H	0.997783	-0.574620	0.484941
H110	H	0.985395	-0.517921	0.556750
H111	H	0.887855	-0.492154	0.406471
H112	H	0.875464	-0.435434	0.478272
H113	H	1.036872	-0.787306	1.270277
C114	C	1.053387	-0.775093	1.416862
C115	C	1.119691	-0.726146	1.396937
H116	H	1.042647	-0.783007	1.478939
H117	H	1.072090	-0.827225	1.398775
H118	H	1.000452	-0.748234	1.386395
H119	H	1.172628	-0.753008	1.427399
H120	H	1.100991	-0.674005	1.415035
C121	C	0.814942	-0.727237	0.785664
C122	C	0.852041	-0.737458	0.702702
H123	H	0.839416	-0.772758	0.828972
H124	H	0.752536	-0.724575	0.783121
H125	H	0.827728	-0.677452	0.801169
H126	H	0.839249	-0.787240	0.687194
H127	H	0.914461	-0.740128	0.705243
