data_functionalizedCrystal
_audit_creation_method	'MofGen! by Chris Wilmer'
_symmetry_space_group_name_H-M	'P1'
_symmetry_Int_Tables_number	1
_symmetry_cell_setting	triclinic
loop_
_symmetry_equiv_pos_as_xyz
  x,y,z
_cell_length_a	29.839131
_cell_length_b	12.594517
_cell_length_c	12.594509
_cell_angle_alpha	90.021327
_cell_angle_beta	89.969204
_cell_angle_gamma	89.958498
loop_
_atom_site_label
_atom_site_type_symbol
_atom_site_fract_x
_atom_site_fract_y
_atom_site_fract_z
Zn1	Zn	-0.178842	-1.627077	-0.601841
Zn2	Zn	-0.253977	-1.626888	-0.423854
Zn3	Zn	-0.178861	-1.449081	-0.423870
Zn4	Zn	-0.253946	-1.448984	-0.601785
O5	O	-0.216407	-1.538008	-0.512837
O6	O	-0.188814	-1.775998	-0.578248
O7	O	-0.244034	-1.603264	-0.274911
O8	O	-0.115992	-1.472813	-0.447508
O9	O	-0.244015	-1.775859	-0.447482
O10	O	-0.115978	-1.603586	-0.578263
O11	O	-0.188847	-1.472629	-0.274922
O12	O	-0.188816	-1.300122	-0.447453
O13	O	-0.243962	-1.472646	-0.750738
O14	O	-0.243981	-1.300051	-0.578167
O15	O	-0.188784	-1.603491	-0.750779
O16	O	-0.316840	-1.603169	-0.447427
O17	O	-0.316817	-1.472463	-0.578152
C18	C	-0.216398	-1.261467	-0.512806
C19	C	-0.216404	-1.143161	-0.512818
C20	C	-0.333129	-1.537814	-0.512805
C21	C	-0.383064	-1.537829	-0.512826
C22	C	-0.216367	-1.538079	-0.790458
C23	C	-0.216350	-1.538109	-0.908764
C24	C	-0.739654	-1.469993	-0.580901
C25	C	-0.551981	-1.469852	-0.580868
O26	O	-0.527720	-1.411944	-0.638727
N27	N	-0.528509	-1.537941	-0.512858
C28	C	-0.551957	-1.606075	-0.444857
O29	O	-0.527686	-1.663993	-0.387018
C30	C	-0.739629	-1.606220	-0.444897
C31	C	-0.763100	-1.538119	-0.512903
C32	C	-0.763125	-1.401898	-0.648903
C33	C	-0.810040	-1.401930	-0.648906
C34	C	-0.833485	-1.470056	-0.580908
C35	C	-0.810015	-1.538151	-0.512906
C36	C	-0.763077	-1.674359	-0.376902
C37	C	-0.809998	-1.674391	-0.376919
C38	C	-0.833468	-1.606290	-0.444926
C39	C	-0.880376	-1.606309	-0.444912
N40	N	-0.903848	-1.538220	-0.512921
C41	C	-0.880403	-1.470094	-0.580920
C42	C	-0.453427	-1.605992	-0.444840
C43	C	-0.406509	-1.605955	-0.444828
C44	C	-0.406536	-1.469733	-0.580841
C45	C	-0.453455	-1.469766	-0.580846
C46	C	-0.476899	-1.537904	-0.512849
C47	C	-0.978929	-1.470165	-0.580921
C48	C	-1.025849	-1.470200	-0.580916
C49	C	-1.025817	-1.606425	-0.444908
C50	C	-0.978901	-1.606387	-0.444909
C51	C	-0.955459	-1.538253	-0.512924
O52	O	-0.904666	-1.664195	-0.387091
O53	O	-0.904682	-1.412201	-0.638767
C54	C	-0.692739	-1.469961	-0.580898
C55	C	-0.669269	-1.538056	-0.512896
C56	C	-0.692714	-1.606182	-0.444898
C57	C	-0.622351	-1.538018	-0.512884
C58	C	-0.598906	-1.469892	-0.580883
C59	C	-0.622378	-1.401803	-0.648892
C60	C	-0.669294	-1.401835	-0.648896
C61	C	-0.669241	-1.674271	-0.376888
C62	C	-0.622326	-1.674233	-0.376889
C63	C	-0.598880	-1.606106	-0.444887
C64	C	-0.099228	-1.538231	-0.512894
C65	C	-0.049294	-1.538326	-0.512917
C66	C	-0.216416	-1.815628	-0.512870
C67	C	-0.216420	-1.933934	-0.512883
C68	C	-0.186360	-1.073916	-0.441859
C69	C	-0.227339	-1.003062	-0.415674
C70	C	-0.175445	-1.003217	-0.539020
C71	C	-0.257405	-1.073865	-0.486583
C72	C	-0.205484	-1.074026	-0.609974
C73	C	-0.246491	-1.003204	-0.583827
C74	C	-0.246345	-1.466965	-0.977995
C75	C	-0.257322	-1.564074	-1.048784
C76	C	-0.205346	-1.441076	-1.048774
C77	C	-0.227349	-1.635269	-0.977995
C78	C	-0.175355	-1.512205	-0.977979
C79	C	-0.186316	-1.609381	-1.048736
C80	C	-0.216413	-1.537998	-0.236296
C81	C	-0.216304	-1.538174	-0.117992
H82	H	-1.044956	-1.414741	-0.636297
H83	H	-0.140805	-0.972127	-0.561119
H84	H	-0.236585	-0.971893	-0.333539
H85	H	-0.160977	-1.104964	-0.381777
H86	H	-0.829084	-1.729881	-0.321550
H87	H	-1.044914	-1.661888	-0.389541
H88	H	-0.196225	-1.105220	-0.692085
H89	H	-0.292061	-1.104770	-0.464357
H90	H	-0.271749	-1.406848	-0.946934
H91	H	-0.291971	-1.586019	-1.079885
H92	H	-0.236676	-1.717380	-0.947035
H93	H	-0.472561	-1.414318	-0.636229
H94	H	-0.959847	-1.414686	-0.636307
H95	H	-0.387439	-1.414260	-0.636206
H96	H	-0.196059	-1.358990	-1.079865
H97	H	-0.140715	-1.490232	-0.946854
H98	H	-0.829145	-1.346473	-0.704283
H99	H	-0.744040	-1.346422	-0.704280
H100	H	-0.603282	-1.346328	-0.704255
H101	H	-0.387402	-1.661397	-0.389440
H102	H	-0.688325	-1.729750	-0.321516
H103	H	-0.160931	-1.669643	-1.079601
H104	H	-0.959792	-1.661830	-0.389521
H105	H	-0.743974	-1.729813	-0.321525
H106	H	-0.603219	-1.729686	-0.321501
H107	H	-0.472511	-1.661480	-0.389464
H108	H	-0.688399	-1.346381	-0.704275
H109	H	-0.271935	-0.972351	-0.643862
