data_functionalizedCrystal
_audit_creation_method	'MofGen! by Chris Wilmer'
_symmetry_space_group_name_H-M	'P1'
_symmetry_Int_Tables_number	1
_symmetry_cell_setting	triclinic
loop_
_symmetry_equiv_pos_as_xyz
  x,y,z
_cell_length_a	15.995343
_cell_length_b	10.489741
_cell_length_c	14.472311
_cell_angle_alpha	90.009379
_cell_angle_beta	89.999810
_cell_angle_gamma	84.014179
loop_
_atom_site_label
_atom_site_type_symbol
_atom_site_fract_x
_atom_site_fract_y
_atom_site_fract_z
O1	O	1.111980	0.164370	0.076748
O2	O	0.868326	0.184683	0.076770
O3	O	0.995697	-0.011149	0.076753
O4	O	0.984608	0.360202	0.076765
O5	O	0.995688	-0.011174	-0.076929
O6	O	0.868317	0.184658	-0.076912
O7	O	1.111971	0.164345	-0.076934
Cu8	Cu	0.990143	0.174499	-0.090956
Cu9	Cu	0.990154	0.174528	0.090791
O10	O	0.984600	0.360177	-0.076917
C11	C	0.837121	0.183832	-0.000068
C12	C	0.744156	0.181320	-0.000060
C13	C	0.573942	0.176760	-0.000073
C14	C	0.549744	0.035399	-0.000077
C15	C	0.453050	0.032739	-0.000431
C16	C	0.406355	0.172268	-0.000084
C17	C	0.435870	0.243333	-0.087667
C18	C	0.532672	0.245009	-0.087735
C19	C	0.532606	0.247107	0.087036
C20	C	0.436079	0.241889	0.088182
C21	C	0.311641	0.169737	-0.000093
C22	C	0.668655	0.179295	-0.000069
C23	C	0.994855	-0.058682	-0.000088
C24	C	0.992349	-0.200276	-0.000086
C25	C	0.911307	-0.267279	-0.000072
C26	C	0.949586	-0.359951	-0.075848
C27	C	0.949614	-0.359901	0.075670
C28	C	1.030662	-0.291083	-0.075925
C29	C	1.030679	-0.291024	0.075661
C30	C	1.069017	-0.383669	-0.000134
C31	C	1.143175	0.165196	-0.000094
C32	C	1.236141	0.167708	-0.000096
C33	C	0.985441	0.407710	-0.000075
C34	C	0.987947	0.549304	-0.000071
N35	N	0.990142	0.174478	-0.218787
C36	C	0.990154	0.174519	-0.592878
C37	C	1.058533	0.070083	-0.553692
C38	C	1.058351	0.069698	-0.446604
C39	C	0.990149	0.174499	-0.407287
C40	C	0.902616	0.145436	-0.446171
C41	C	0.903020	0.144697	-0.553292
C42	C	1.008523	0.308326	-0.553380
C43	C	1.010500	0.307430	-0.446252
C44	C	0.990140	0.174490	-0.302399
C45	C	0.990157	0.174525	-0.697766
N46	N	0.990161	0.174540	0.218622
H47	H	0.433699	-0.022890	0.062339
H48	H	1.064919	-0.260742	-0.140060
Br49	Br	1.180174	-0.467611	-0.000207
Br50	Br	0.892443	-0.410730	0.182439
H51	H	0.958669	0.386044	-0.578725
Br52	Br	0.875210	-0.015358	-0.401477
H53	H	0.844674	-0.216692	-0.000142
Br54	Br	1.087793	-0.240062	0.182435
H55	H	0.915291	-0.390491	-0.139906
H56	H	1.123392	0.087004	-0.420314
H57	H	1.123790	0.087109	-0.579452
H58	H	0.577424	-0.019383	0.062720
H59	H	0.403736	0.343698	0.093745
Br60	Br	1.117828	0.344202	-0.403887
Br61	Br	0.597502	-0.054463	-0.104608
Br62	Br	0.876241	-0.017947	-0.594960
Br63	Br	1.039115	-0.094489	-0.598573
H64	H	0.415480	0.194553	-0.153097
Br65	Br	0.932973	0.443036	-0.401642
H66	H	0.434275	-0.022650	-0.063585
H67	H	0.559161	0.196349	-0.153457
H68	H	0.547871	0.348672	-0.091477
Br69	Br	1.038640	-0.095803	-0.403902
H70	H	0.850567	0.217871	-0.579214
H71	H	0.560610	0.202518	0.153443
H72	H	0.404643	0.346021	-0.090675
Br73	Br	1.112712	0.354878	-0.598393
Br74	Br	0.404670	0.155603	0.196182
Br75	Br	0.556963	0.420551	0.088421
Br76	Br	0.815703	0.268838	-0.403728
