data_functionalizedCrystal
_audit_creation_method	'MofGen! by Chris Wilmer'
_symmetry_space_group_name_H-M	'P1'
_symmetry_Int_Tables_number	1
_symmetry_cell_setting	triclinic
loop_
_symmetry_equiv_pos_as_xyz
  x,y,z
_cell_length_a	10.868271
_cell_length_b	10.654541
_cell_length_c	10.654545
_cell_angle_alpha	84.484678
_cell_angle_beta	90.003250
_cell_angle_gamma	89.999317
loop_
_atom_site_label
_atom_site_type_symbol
_atom_site_fract_x
_atom_site_fract_y
_atom_site_fract_z
O1	O	-0.102278	-1.667837	-0.176387
O2	O	-0.102288	-1.302358	-0.193196
O3	O	-0.102282	-1.493500	-0.002052
O4	O	-0.102284	-1.476696	-0.367531
O5	O	0.102363	-1.493498	-0.002041
O6	O	0.102357	-1.302356	-0.193185
O7	O	0.102367	-1.667835	-0.176376
Zn8	Zn	0.134854	-1.485095	-0.184779
Zn9	Zn	-0.134774	-1.485098	-0.184793
O10	O	0.102361	-1.476693	-0.367520
C11	C	0.000033	-1.255559	-0.191957
C12	C	0.000029	-1.116116	-0.188266
N13	N	-0.318788	-1.485101	-0.184793
C14	C	0.000038	-1.492265	0.044751
C15	C	0.000031	-1.488572	0.184195
C16	C	-0.569794	-1.485098	-0.184785
C17	C	-0.430117	-1.485096	-0.184794
N18	N	0.318868	-1.485102	-0.184769
C19	C	0.000043	-1.714634	-0.177615
C20	C	0.000039	-1.854078	-0.181306
C21	C	0.000012	-1.088146	-0.416831
C22	C	-0.000001	-1.008652	-0.529374
C23	C	-0.000002	-0.877634	-0.525898
C24	C	0.000014	-0.826108	-0.409867
C25	C	0.000027	-0.905602	-0.297324
C26	C	0.000025	-1.036622	-0.300812
C27	C	0.000053	-0.933572	-0.068763
C28	C	0.000045	-1.064590	-0.072235
C29	C	0.000069	-0.882046	0.047269
C30	C	0.000073	-0.961540	0.159814
C31	C	0.000073	-1.092565	0.156334
C32	C	0.000058	-1.144084	0.040308
C33	C	0.000038	-1.477929	-0.414323
C34	C	0.000037	-1.481621	-0.553766
C35	C	-0.223079	-1.488590	0.184191
C36	C	-0.334633	-1.486869	0.249700
C37	C	-0.334635	-1.483400	0.380719
C38	C	-0.223070	-1.481648	0.446232
C39	C	-0.111515	-1.483369	0.380723
C40	C	-0.111526	-1.486842	0.249702
C41	C	0.111592	-1.483343	0.380725
C42	C	0.111596	-1.486821	0.249707
C43	C	0.223157	-1.481591	0.446238
C44	C	0.334714	-1.483321	0.380731
C45	C	0.334711	-1.486792	0.249704
C46	C	0.223151	-1.488542	0.184199
H47	H	-0.000014	-1.194826	-0.419672
Cl48	Cl	-0.474875	-1.481225	0.463074
Cl49	Cl	-0.223086	-1.492976	0.019484
H50	H	0.223148	-1.478759	0.552920
Cl51	Cl	0.474960	-1.488947	0.167361
H52	H	-0.425467	-1.488293	0.196345
H53	H	-0.223081	-1.478808	0.552912
Cl54	Cl	0.223137	-1.492912	0.019490
Cl55	Cl	-0.000007	-0.777695	-0.667382
Cl56	Cl	0.000051	-1.308791	0.035923
Cl57	Cl	0.000103	-0.896758	0.305665
H58	H	0.000028	-0.719425	-0.407048
Cl59	Cl	0.000073	-0.717336	0.051638
Cl60	Cl	-0.000022	-1.073433	-0.675234
H61	H	0.000088	-1.157283	0.247981
H62	H	0.425541	-1.481886	0.434081
