data_functionalizedCrystal
_audit_creation_method	'MofGen! by Chris Wilmer'
_symmetry_space_group_name_H-M	'P1'
_symmetry_Int_Tables_number	1
_symmetry_cell_setting	triclinic
loop_
_symmetry_equiv_pos_as_xyz
  x,y,z
_cell_length_a	19.077105
_cell_length_b	16.959454
_cell_length_c	19.077174
_cell_angle_alpha	92.276377
_cell_angle_beta	85.483752
_cell_angle_gamma	87.716588
loop_
_atom_site_label
_atom_site_type_symbol
_atom_site_fract_x
_atom_site_fract_y
_atom_site_fract_z
Zn1	Zn	1.093734	-0.384059	-0.441867
Zn2	Zn	1.593734	0.115941	0.058133
Zn3	Zn	1.088928	-0.510707	-0.323986
Zn4	Zn	1.588928	-0.010707	0.176014
Zn5	Zn	0.971118	-0.373009	-0.319263
Zn6	Zn	1.471118	0.126991	0.180737
Zn7	Zn	0.975822	-0.510655	-0.437104
Zn8	Zn	1.475822	-0.010655	0.062896
O9	O	1.032400	-0.444608	-0.380555
O10	O	1.532400	0.055392	0.119445
O11	O	1.191747	-0.405505	-0.430199
O12	O	1.691747	0.094495	0.069801
O13	O	1.069320	-0.487839	-0.224710
O14	O	1.569320	0.012161	0.275290
O15	O	0.987426	-0.263867	-0.335543
O16	O	1.487426	0.236133	0.164457
O17	O	1.188216	-0.498553	-0.343593
O18	O	1.688216	0.001447	0.156407
O19	O	1.077511	-0.271985	-0.425619
O20	O	1.577511	0.228015	0.074381
O21	O	0.982766	-0.386673	-0.221240
O22	O	1.482766	0.113327	0.278760
O23	O	0.873091	-0.386623	-0.330926
O24	O	1.373091	0.113377	0.169074
O25	O	0.995443	-0.498465	-0.536386
O26	O	1.495443	0.001535	-0.036386
O27	O	0.876547	-0.487751	-0.417503
O28	O	1.376547	0.012249	0.082497
O29	O	1.082072	-0.405455	-0.539885
O30	O	1.582072	0.094545	-0.039885
O31	O	1.073881	-0.621309	-0.338975
O32	O	1.573881	-0.121309	0.161025
O33	O	0.990783	-0.621271	-0.422082
O34	O	1.490783	-0.121271	0.077918
C35	C	0.849240	-0.435983	-0.373185
C36	C	1.349240	0.064017	0.126815
C37	C	0.770884	-0.432312	-0.370049
C38	C	1.270884	0.067688	0.129951
C39	C	1.032341	-0.649971	-0.380541
C40	C	1.532341	-0.149971	0.119459
C41	C	1.032381	-0.737830	-0.380561
C42	C	1.532381	-0.237830	0.119439
C43	C	0.735888	-0.483313	-0.413581
C44	C	1.235888	0.016687	0.086419
C45	C	0.662264	-0.479854	-0.410638
C46	C	1.162264	0.020146	0.089362
C47	C	0.623638	-0.425398	-0.364158
C48	C	1.123638	0.074602	0.135842
C49	C	0.658640	-0.374392	-0.320625
C50	C	1.158640	0.125608	0.179375
C51	C	0.732263	-0.377848	-0.323572
C52	C	1.232263	0.122152	0.176428
C53	C	0.403256	-0.409407	-0.350521
C54	C	0.903256	0.090593	0.149479
C55	C	0.329629	-0.405957	-0.347575
C56	C	0.829629	0.094043	0.152425
C57	C	0.333258	-0.511418	-0.437590
C58	C	0.833258	-0.011418	0.062410
C59	C	0.406881	-0.514872	-0.440530
C60	C	0.906881	-0.014872	0.059470
C61	C	0.441877	-0.463863	-0.396999
C62	C	0.941877	0.036137	0.103001
N63	N	0.548383	-0.421864	-0.361147
N64	N	1.048383	0.078136	0.138853
N65	N	0.517131	-0.467395	-0.400014
N66	N	1.017131	0.032605	0.099986
C67	C	0.989196	-1.109319	-0.423827
C68	C	1.489196	-0.609319	0.076173
C69	C	1.075804	-1.109306	-0.337363
C70	C	1.575804	-0.609306	0.162637
C71	C	1.075779	-1.026758	-0.337356
C72	C	1.575779	-0.526758	0.162644
C73	C	1.032461	-0.985487	-0.380584
C74	C	1.532461	-0.485487	0.119416
C75	C	0.989168	-1.026764	-0.423819
C76	C	1.489168	-0.526764	0.076181
C77	C	1.119066	-0.985475	-0.294116
C78	C	1.619066	-0.485475	0.205884
C79	C	1.119042	-0.902923	-0.294106
C80	C	1.619042	-0.402923	0.205894
C81	C	1.075727	-0.861651	-0.337338
C82	C	1.575727	-0.361651	0.162662
C83	C	1.032433	-0.902932	-0.380576
C84	C	1.532433	-0.402932	0.119424
C85	C	0.989116	-0.861662	-0.423804
C86	C	1.489116	-0.361662	0.076196
C87	C	0.945825	-0.902942	-0.467046
C88	C	1.445825	-0.402942	0.032954
C89	C	0.945854	-0.985492	-0.467051
C90	C	1.445854	-0.485492	0.032949
C91	C	1.075698	-0.779101	-0.337333
C92	C	1.575698	-0.279101	0.162667
C93	C	0.989088	-0.779106	-0.423796
C94	C	1.489088	-0.279106	0.076204
C95	C	1.216275	-0.453267	-0.387954
C96	C	1.716275	0.046733	0.112046
C97	C	1.294632	-0.456957	-0.391107
C98	C	1.794632	0.043043	0.108893
C99	C	1.039818	-0.453186	-0.564429
C100	C	1.539818	0.046814	-0.064429
C101	C	1.042979	-0.456842	-0.642786
C102	C	1.542979	0.043158	-0.142786
C103	C	1.032480	-0.238444	-0.380586
C104	C	1.532480	0.261556	0.119414
C105	C	1.032514	-0.150590	-0.380599
C106	C	1.532514	0.349410	0.119401
C107	C	0.999402	-0.405889	-0.677791
C108	C	1.499402	0.094111	-0.177791
C109	C	1.002370	-0.409330	-0.751415
C110	C	1.502370	0.090670	-0.251415
C111	C	1.048919	-0.463722	-0.790032
C112	C	1.548919	0.036278	-0.290032
C113	C	1.092497	-0.514680	-0.755023
C114	C	1.592497	-0.014680	-0.255023
C115	C	1.089526	-0.511242	-0.681400
C116	C	1.589526	-0.011242	-0.181400
C117	C	1.062635	-0.479656	-1.010415
C118	C	1.562635	0.020344	-0.510415
C119	C	1.065604	-0.483088	-1.084043
C120	C	1.565604	0.016912	-0.584043
C121	C	0.975475	-0.377739	-1.080429
C122	C	1.475475	0.122261	-0.580429
C123	C	0.972511	-0.374303	-1.006806
C124	C	1.472511	0.125697	-0.506806
C125	C	1.016087	-0.425264	-0.971802
C126	C	1.516087	0.074736	-0.471802
N127	N	1.051954	-0.467239	-0.865288
N128	N	1.551954	0.032761	-0.365288
N129	N	1.013047	-0.421750	-0.896548
N130	N	1.513047	0.078250	-0.396548
C131	C	1.025052	-0.436007	-0.197398
C132	C	1.525052	0.063993	0.302602
C133	C	1.022027	-0.432135	-0.119047
C134	C	1.522027	0.067865	0.380953
H135	H	0.767331	-0.527660	-0.451427
H136	H	1.267331	-0.027660	0.048573
C137	C	0.901242	-0.386576	-0.591180
C138	C	1.401242	0.113424	-0.091180
C139	C	0.948234	-0.346101	-0.635342
C140	C	1.448234	0.153899	-0.135342
H141	H	0.869655	-0.349664	-0.564973
H142	H	1.369655	0.150336	-0.064973
H143	H	0.875425	-0.421078	-0.618811
H144	H	1.375425	0.078922	-0.118811
H145	H	0.926780	-0.416426	-0.559798
H146	H	1.426780	0.083574	-0.059798
H147	H	0.922697	-0.316256	-0.666728
H148	H	1.422697	0.183744	-0.166728
H149	H	0.974054	-0.311585	-0.607709
H150	H	1.474054	0.188415	-0.107709
C151	C	1.078685	-0.593739	-1.167214
C152	C	1.578685	-0.093739	-0.667214
C153	C	1.116768	-0.542890	-1.126491
C154	C	1.616768	-0.042890	-0.626491
H155	H	1.110270	-0.630653	-1.193421
H156	H	1.610270	-0.130653	-0.693421
H157	H	1.046801	-0.621177	-1.137251
H158	H	1.546801	-0.121177	-0.637251
H159	H	1.053165	-0.563871	-1.198597
H160	H	1.553165	-0.063871	-0.698597
H161	H	1.142284	-0.572757	-1.095104
H162	H	1.642284	-0.072757	-0.595104
H163	H	1.148664	-0.515450	-1.156456
H164	H	1.648664	-0.015450	-0.656456
H165	H	0.953816	-0.745509	-0.459001
H166	H	1.453816	-0.245509	0.040999
C167	C	0.940004	-0.336236	-1.191683
C168	C	1.440004	0.163764	-0.691683
C169	C	0.927571	-0.321733	-1.118907
C170	C	1.427571	0.178267	-0.618907
H171	H	0.910422	-0.301662	-1.215435
H172	H	1.410422	0.198338	-0.715435
H173	H	0.987854	-0.327456	-1.205654
H174	H	1.487854	0.172544	-0.705654
H175	H	0.930154	-0.389424	-1.203316
H176	H	1.430154	0.110576	-0.703316
H177	H	0.937426	-0.268546	-1.107273
H178	H	1.437426	0.231454	-0.607273
H179	H	0.879710	-0.330506	-1.104931
H180	H	1.379710	0.169494	-0.604931
C181	C	1.152036	-0.584115	-1.021392
C182	C	1.652036	-0.084115	-0.521392
C183	C	1.110546	-0.535659	-0.971946
C184	C	1.610546	-0.035659	-0.471946
H185	H	1.181620	-0.618684	-0.997639
H186	H	1.681620	-0.118684	-0.497639
H187	H	1.122470	-0.614248	-1.048862
H188	H	1.622470	-0.114248	-0.548862
H189	H	1.180164	-0.552274	-1.051202
H190	H	1.680164	-0.052274	-0.551202
H191	H	1.082413	-0.567500	-0.942139
H192	H	1.582413	-0.067500	-0.442139
H193	H	1.140115	-0.505523	-0.944463
H194	H	1.640115	-0.005523	-0.444463
H195	H	0.966882	-0.367842	-0.779912
H196	H	1.466882	0.132158	-0.279912
H197	H	1.130395	-0.558971	-0.786471
H198	H	1.630395	-0.058971	-0.286471
C199	C	0.907432	-1.112039	-0.505442
C200	C	1.407432	-0.612039	-0.005442
C201	C	0.898264	-1.030868	-0.514572
C202	C	1.398264	-0.530868	-0.014572
H203	H	0.878046	-1.140052	-0.534774
H204	H	1.378046	-0.640052	-0.034774
H205	H	0.955205	-1.128234	-0.517709
H206	H	1.455205	-0.628234	-0.017709
H207	H	0.895249	-1.122881	-0.457651
H208	H	1.395249	-0.622881	0.042349
H209	H	0.910452	-1.020025	-0.562362
H210	H	1.410452	-0.520025	-0.062362
H211	H	0.850480	-1.014668	-0.502309
H212	H	1.350480	-0.514668	-0.002309
C213	C	0.811223	-0.366166	-0.232081
C214	C	1.311223	0.133834	0.267919
C215	C	0.770738	-0.321791	-0.275720
C216	C	1.270738	0.178209	0.224280
H217	H	0.834979	-0.331555	-0.202544
H218	H	1.334979	0.168445	0.297456
H219	H	0.781398	-0.397939	-0.203913
H220	H	1.281398	0.102061	0.296087
H221	H	0.844757	-0.399091	-0.260194
H222	H	1.344757	0.100909	0.239806
H223	H	0.737200	-0.288870	-0.247607
H224	H	1.237200	0.211130	0.252393
H225	H	0.800566	-0.290004	-0.303892
H226	H	1.300566	0.209996	0.196108
H227	H	0.627186	-0.330050	-0.282783
H228	H	1.127186	0.169950	0.217217
H229	H	0.298182	-0.361603	-0.309731
H230	H	0.798182	0.138397	0.190269
C231	C	1.122895	-0.645641	-0.660092
C232	C	1.622895	-0.145641	-0.160092
C233	C	1.137426	-0.567252	-0.642919
C234	C	1.637426	-0.067252	-0.142919
H235	H	1.152469	-0.680221	-0.636339
H236	H	1.652469	-0.180221	-0.136339
H237	H	1.075042	-0.654405	-0.646119
H238	H	1.575042	-0.154405	-0.146119
H239	H	1.131331	-0.655462	-0.709467
H240	H	1.631331	-0.155462	-0.209467
H241	H	1.128986	-0.557429	-0.593545
H242	H	1.628986	-0.057429	-0.093545
H243	H	1.185290	-0.558484	-0.656888
H244	H	1.685290	-0.058484	-0.156888
C245	C	0.673245	-0.584465	-0.499887
C246	C	1.173245	-0.084465	0.000113
C247	C	0.623795	-0.535929	-0.458478
C248	C	1.123795	-0.035929	0.041522
H249	H	0.649494	-0.619089	-0.529417
H250	H	1.149494	-0.119089	-0.029417
H251	H	0.703060	-0.552689	-0.528063
H252	H	1.203060	-0.052689	-0.028063
H253	H	0.700709	-0.614545	-0.470262
H254	H	1.200709	-0.114545	0.029738
H255	H	0.596334	-0.505844	-0.488103
H256	H	1.096334	-0.005844	0.011897
H257	H	0.593967	-0.567709	-0.430300
H258	H	1.093967	-0.067709	0.069700
C259	C	0.403070	-0.618765	-0.529214
C260	C	0.903070	-0.118765	-0.029214
C261	C	0.449336	-0.574730	-0.491623
C262	C	0.949336	-0.074730	0.008377
H263	H	0.429282	-0.655717	-0.560758
H264	H	0.929282	-0.155717	-0.060758
H265	H	0.373100	-0.646160	-0.497303
H266	H	0.873100	-0.146160	0.002697
H267	H	0.375458	-0.584279	-0.555083
H268	H	0.875458	-0.084279	-0.055083
H269	H	0.476944	-0.609215	-0.465750
H270	H	0.976944	-0.109215	0.034250
H271	H	0.479318	-0.547333	-0.523538
H272	H	0.979318	-0.047333	-0.023538
C273	C	1.237073	-1.014907	-0.264636
C274	C	1.737073	-0.514907	0.235364
C275	C	1.166643	-1.030880	-0.246596
C276	C	1.666643	-0.530880	0.253404
H277	H	1.266435	-1.042950	-0.235293
H278	H	1.766435	-0.542950	0.264707
H279	H	1.249274	-1.031095	-0.312420
H280	H	1.749274	-0.531095	0.187580
H281	H	1.243275	-0.959842	-0.258416
H282	H	1.743275	-0.459842	0.241584
H283	H	1.160440	-1.085944	-0.252821
H284	H	1.660440	-0.585944	0.247179
H285	H	1.154438	-1.014696	-0.198800
H286	H	1.654438	-0.514696	0.301200
C287	C	1.148666	-0.873567	-0.176145
C288	C	1.648666	-0.373567	0.323855
C289	C	1.166633	-0.857554	-0.246581
C290	C	1.666633	-0.357554	0.253419
H291	H	1.178052	-0.845561	-0.146809
H292	H	1.678052	-0.345561	0.353191
H293	H	1.100894	-0.857360	-0.163886
H294	H	1.600894	-0.357360	0.336114
H295	H	1.154879	-0.928640	-0.169972
H296	H	1.654879	-0.428640	0.330028
H297	H	1.160414	-0.802482	-0.252756
H298	H	1.660414	-0.302482	0.247244
H299	H	1.214416	-0.873756	-0.258844
H300	H	1.714416	-0.373756	0.241156
H301	H	1.111067	-1.142913	-0.302164
H302	H	1.611067	-0.642913	0.197836
H303	H	0.304756	-0.552946	-0.473031
H304	H	0.804756	-0.052946	0.026969
H305	H	0.431741	-0.367877	-0.315070
H306	H	0.931741	0.132123	0.184930
H307	H	0.910552	-0.869329	-0.502239
H308	H	1.410552	-0.369329	-0.002239
H309	H	0.953952	-1.142933	-0.459035
H310	H	1.453952	-0.642933	0.040965
C311	C	0.883719	-0.270516	-1.010632
C312	C	1.383719	0.229484	-0.510632
C313	C	0.921343	-0.314513	-0.964359
C314	C	1.421343	0.185487	-0.464359
H315	H	0.852130	-0.233605	-0.984426
H316	H	1.352130	0.266395	-0.484426
H317	H	0.915605	-0.243074	-1.040589
H318	H	1.415605	0.256926	-0.540589
H319	H	0.857896	-0.305031	-1.038256
H320	H	1.357896	0.194969	-0.538256
H321	H	0.947170	-0.279999	-0.936738
H322	H	1.447170	0.220001	-0.436738
H323	H	0.889453	-0.341957	-0.934390
H324	H	1.389453	0.158043	-0.434390
C325	C	1.105299	-0.749738	-0.219370
C326	C	1.605299	-0.249738	0.280630
C327	C	1.123276	-0.733725	-0.289804
C328	C	1.623276	-0.233725	0.210196
H329	H	1.134677	-0.721728	-0.190028
H330	H	1.634677	-0.221728	0.309972
H331	H	1.057525	-0.733538	-0.207119
H332	H	1.557525	-0.233538	0.292881
H333	H	1.111516	-0.804810	-0.213196
H334	H	1.611516	-0.304810	0.286804
H335	H	1.117054	-0.678653	-0.295980
H336	H	1.617054	-0.178653	0.204020
H337	H	1.171062	-0.749921	-0.302059
H338	H	1.671062	-0.249921	0.197941
