data_functionalizedCrystal
_audit_creation_method	'MofGen! by Chris Wilmer'
_symmetry_space_group_name_H-M	'P1'
_symmetry_Int_Tables_number	1
_symmetry_cell_setting	triclinic
loop_
_symmetry_equiv_pos_as_xyz
  x,y,z
_cell_length_a	14.908571
_cell_length_b	16.120484
_cell_length_c	14.908308
_cell_angle_alpha	95.986071
_cell_angle_beta	90.175053
_cell_angle_gamma	89.787312
loop_
_atom_site_label
_atom_site_type_symbol
_atom_site_fract_x
_atom_site_fract_y
_atom_site_fract_z
Zn1	Zn	1.320097	-0.434923	-0.609960
Zn2	Zn	1.653431	-0.101589	-0.276627
Zn3	Zn	1.986764	0.231744	0.056706
Zn4	Zn	1.321040	-0.566744	-0.466383
Zn5	Zn	1.654374	-0.233411	-0.133050
Zn6	Zn	1.987707	0.099922	0.200283
Zn7	Zn	1.179340	-0.418915	-0.450134
Zn8	Zn	1.512673	-0.085582	-0.116801
Zn9	Zn	1.846007	0.247752	0.216532
Zn10	Zn	1.162126	-0.565754	-0.607984
Zn11	Zn	1.495459	-0.232421	-0.274651
Zn12	Zn	1.828792	0.100913	0.058683
O13	O	1.245651	-0.496584	-0.533615
O14	O	1.578984	-0.163251	-0.200282
O15	O	1.912318	0.170083	0.133051
O16	O	1.445636	-0.459523	-0.598542
O17	O	1.778970	-0.126189	-0.265208
O18	O	2.112303	0.207144	0.068125
O19	O	1.309843	-0.540849	-0.338080
O20	O	1.643176	-0.207516	-0.004746
O21	O	1.976509	0.125817	0.328587
O22	O	1.204822	-0.304418	-0.465363
O23	O	1.538155	0.028915	-0.132029
O24	O	1.871488	0.362249	0.201304
O25	O	1.446329	-0.556371	-0.493056
O26	O	1.779663	-0.223038	-0.159723
O27	O	2.112996	0.110295	0.173610
O28	O	1.308235	-0.316179	-0.582786
O29	O	1.641569	0.017155	-0.249453
O30	O	1.974902	0.350488	0.083881
O31	O	1.205736	-0.432240	-0.326142
O32	O	1.539069	-0.098907	0.007192
O33	O	1.872403	0.234427	0.340525
O34	O	1.051643	-0.431280	-0.463446
O35	O	1.384976	-0.097947	-0.130113
O36	O	1.718309	0.235387	0.203220
O37	O	1.175482	-0.554684	-0.734394
O38	O	1.508815	-0.221350	-0.401061
O39	O	1.842149	0.111983	-0.067727
O40	O	1.038995	-0.539162	-0.579418
O41	O	1.372329	-0.205829	-0.246084
O42	O	1.705662	0.127505	0.087249
O43	O	1.291543	-0.458562	-0.735846
O44	O	1.624876	-0.125229	-0.402513
O45	O	1.958210	0.208104	-0.069179
O46	O	1.293150	-0.683233	-0.491140
O47	O	1.626484	-0.349900	-0.157807
O48	O	1.959817	-0.016567	0.175527
O49	O	1.176396	-0.682506	-0.595173
O50	O	1.509730	-0.349173	-0.261840
O51	O	1.843063	-0.015839	0.071493
C52	C	1.012801	-0.483377	-0.519455
C53	C	1.346134	-0.150044	-0.186121
C54	C	1.679467	0.183290	0.147212
C55	C	0.913184	-0.477748	-0.513419
C56	C	1.246517	-0.144415	-0.180086
C57	C	1.579850	0.188918	0.153248
C58	C	1.233031	-0.713110	-0.544726
C59	C	1.566364	-0.379777	-0.211393
C60	C	1.899697	-0.046444	0.121940
C61	C	1.227712	-0.805747	-0.549515
C62	C	1.561045	-0.472414	-0.216182
C63	C	1.894379	-0.139081	0.117152
C64	C	0.712871	-0.579666	-0.622692
C65	C	1.046205	-0.246333	-0.289359
C66	C	1.379538	0.087000	0.043974
C67	C	0.619272	-0.574380	-0.617025
C68	C	0.952605	-0.241047	-0.283691
C69	C	1.285939	0.092286	0.049642
C70	C	0.632384	-0.461887	-0.496421
C71	C	0.965717	-0.128553	-0.163088
C72	C	1.299051	0.204780	0.170246
C73	C	0.725983	-0.467173	-0.502089
C74	C	1.059317	-0.133839	-0.168755
C75	C	1.392650	0.199494	0.164578
C76	C	0.766223	-0.526065	-0.565226
C77	C	1.099557	-0.192732	-0.231892
C78	C	1.432890	0.140601	0.101441
C79	C	0.859824	-0.531355	-0.570888
C80	C	1.193158	-0.198021	-0.237555
C81	C	1.526491	0.135312	0.095778
C82	C	0.872935	-0.418858	-0.450290
C83	C	1.206268	-0.085525	-0.116956
C84	C	1.539601	0.247809	0.216377
C85	C	0.779335	-0.413572	-0.444622
C86	C	1.112669	-0.080238	-0.111289
C87	C	1.446002	0.253095	0.222045
C88	C	1.218005	-0.975358	-0.558276
C89	C	1.551339	-0.642024	-0.224943
C90	C	1.884672	-0.308691	0.108390
C91	C	1.273456	-1.016980	-0.508979
C92	C	1.606789	-0.683646	-0.175646
C93	C	1.940123	-0.350313	0.157688
C94	C	1.268055	-1.111356	-0.513854
C95	C	1.601389	-0.778023	-0.180521
C96	C	1.934722	-0.444690	0.152813
C97	C	1.223405	-0.880972	-0.553403
C98	C	1.556738	-0.547639	-0.220069
C99	C	1.890072	-0.214305	0.113264
C100	C	1.479410	-0.509843	-0.547832
C101	C	1.812744	-0.176510	-0.214499
C102	C	2.146077	0.156824	0.118835
C103	C	1.579025	-0.515493	-0.553890
C104	C	1.912358	-0.182160	-0.220557
C105	C	2.245692	0.151173	0.112776
C106	C	1.231487	-0.508298	-0.768743
C107	C	1.564820	-0.174965	-0.435410
C108	C	1.898154	0.158368	-0.102077
C109	C	1.225451	-0.513290	-0.868941
C110	C	1.558785	-0.179957	-0.535608
C111	C	1.892118	0.153376	-0.202274
C112	C	1.258344	-0.279214	-0.522482
C113	C	1.591677	0.054119	-0.189149
C114	C	1.925010	0.387452	0.144185
C115	C	1.263752	-0.186584	-0.517738
C116	C	1.597086	0.146749	-0.184404
C117	C	1.930419	0.480082	0.148929
C118	C	1.334963	-0.422560	-1.058735
C119	C	1.668296	-0.089227	-0.725402
C120	C	2.001629	0.244107	-0.392069
C121	C	1.329294	-0.427248	-1.152880
C122	C	1.662628	-0.093914	-0.819547
C123	C	1.995961	0.239419	-0.486213
C124	C	1.208443	-0.527348	-1.151376
C125	C	1.541776	-0.194015	-0.818043
C126	C	1.875110	0.139318	-0.484709
C127	C	1.214111	-0.522661	-1.057231
C128	C	1.547445	-0.189327	-0.723898
C129	C	1.880778	0.144006	-0.390565
C130	C	1.277374	-0.470266	-1.010914
C131	C	1.610707	-0.136932	-0.677581
C132	C	1.944041	0.196401	-0.344248
C133	C	1.283046	-0.465583	-0.916769
C134	C	1.616379	-0.132250	-0.583435
C135	C	1.949713	0.201084	-0.250102
C136	C	1.162191	-0.565679	-0.915266
C137	C	1.495524	-0.232345	-0.581933
C138	C	1.828858	0.100988	-0.248599
C139	C	1.156523	-0.570366	-1.009410
C140	C	1.489856	-0.237033	-0.676077
C141	C	1.823189	0.096300	-0.342744
C142	C	1.259815	-0.484858	-0.299402
C143	C	1.593148	-0.151525	0.033931
C144	C	1.926481	0.181809	0.367265
C145	C	1.266038	-0.479641	-0.199204
C146	C	1.599371	-0.146308	0.134130
C147	C	1.932704	0.187026	0.467463
H148	H	0.892586	-0.579309	-0.622296
H149	H	1.225920	-0.245976	-0.288963
H150	H	1.559253	0.087357	0.044371
F151	F	1.350377	-0.409823	-0.867476
F152	F	1.683710	-0.076490	-0.534143
F153	F	2.017044	0.256844	-0.200810
H154	H	0.599604	-0.413934	-0.445024
H155	H	0.932937	-0.080601	-0.111690
H156	H	1.266270	0.252732	0.221643
F157	F	0.755700	-0.642350	-0.689878
F158	F	1.089033	-0.309017	-0.356545
F159	F	1.422367	0.024317	-0.023211
H160	H	1.105015	-0.613023	-1.047134
H161	H	1.438348	-0.279690	-0.713801
H162	H	1.771681	0.053644	-0.380468
H163	H	1.115300	-0.604527	-0.876320
H164	H	1.448634	-0.271193	-0.542987
H165	H	1.781967	0.062140	-0.209654
H166	H	1.166480	-1.010601	-0.604138
H167	H	1.499813	-0.677268	-0.270805
H168	H	1.833147	-0.343934	0.062529
F169	F	0.562493	-0.631428	-0.678190
F170	F	0.895827	-0.298095	-0.344857
F171	F	1.229160	0.035239	-0.011524
H172	H	1.386478	-0.379902	-1.021024
H173	H	1.719811	-0.046569	-0.687691
H174	H	2.053144	0.286764	-0.354357
H175	H	0.746559	-0.365621	-0.393220
H176	H	1.079892	-0.032288	-0.059887
H177	H	1.413225	0.301045	0.273446
F178	F	1.390587	-0.376472	-1.203771
F179	F	1.723920	-0.043138	-0.870438
F180	F	2.057254	0.290195	-0.537105
F181	F	1.141115	-0.583100	-1.200684
F182	F	1.474448	-0.249767	-0.867351
F183	F	1.807781	0.083566	-0.534017
H184	H	0.916384	-0.375214	-0.403494
H185	H	1.249718	-0.041880	-0.070161
H186	H	1.583051	0.291453	0.263173
F187	F	1.340807	-0.970913	-0.449026
F188	F	1.674140	-0.637580	-0.115693
F189	F	2.007473	-0.304246	0.217641
