data_functionalizedCrystal
_audit_creation_method	'MofGen! by Chris Wilmer'
_symmetry_space_group_name_H-M	'P1'
_symmetry_Int_Tables_number	1
_symmetry_cell_setting	triclinic
loop_
_symmetry_equiv_pos_as_xyz
  x,y,z
_cell_length_a	14.853567
_cell_length_b	8.559649
_cell_length_c	7.681481
_cell_angle_alpha	85.086760
_cell_angle_beta	84.253558
_cell_angle_gamma	103.293203
loop_
_atom_site_label
_atom_site_type_symbol
_atom_site_fract_x
_atom_site_fract_y
_atom_site_fract_z
O1	O	-0.021001	-2.104976	-0.146403
O2	O	0.025551	-1.639875	-0.146407
O3	O	-0.129824	-1.884849	-0.146410
O4	O	0.134373	-1.860003	-0.146400
O5	O	-0.148986	-1.915001	0.146447
O6	O	0.006388	-1.670027	0.146451
O7	O	-0.040164	-2.135128	0.146455
Zn8	Zn	-0.019930	-1.907365	0.192950
Zn9	Zn	0.005317	-1.867638	-0.192902
O10	O	0.115211	-1.890155	0.146458
C11	C	0.019498	-1.595429	0.000021
C12	C	0.029999	-1.418072	0.000019
C13	C	-0.172914	-1.898798	0.000014
C14	C	-0.272761	-1.895423	-0.000002
C15	C	-0.034110	-2.179574	0.000023
C16	C	-0.044611	-2.356930	0.000013
C17	C	-0.674122	-1.735645	0.000030
C18	C	-0.715759	-2.026680	0.000033
C19	C	-0.621946	-2.029851	0.000022
C20	C	-0.554217	-1.885917	0.000019
C21	C	-0.580300	-1.738812	0.000025
C22	C	-0.595857	-2.176955	0.000034
C23	C	-0.502039	-2.180132	0.000025
C24	C	-0.434307	-2.036196	0.000009
C25	C	-0.460395	-1.889085	0.000014
C26	C	-0.392666	-1.745151	0.000010
C27	C	-0.418751	-1.598037	0.000002
C28	C	-0.512568	-1.594876	0.000009
C29	C	-0.340490	-2.039357	0.000002
C30	C	-0.298844	-1.748318	0.000005
C31	C	0.158302	-1.876205	0.000030
C32	C	0.258149	-1.879579	0.000034
N33	N	-0.037162	-1.934489	0.456284
N34	N	0.022541	-1.840527	-0.456236
H35	H	-0.243703	-1.631107	-0.000006
H36	H	0.101914	-1.334725	0.000012
O37	O	-0.139872	-1.467304	0.000027
H38	H	-0.133451	-1.593961	0.000047
O39	O	0.103253	-1.713437	0.444177
H40	H	0.101002	-1.716938	0.300540
O41	O	-0.117888	-2.061570	0.555872
H42	H	-0.162457	-2.002709	0.639872
O43	O	-0.345700	-1.442794	0.000013
H44	H	-0.294153	-1.424985	-0.119351
O45	O	-0.540711	-1.436222	0.000039
H46	H	-0.574665	-1.415530	-0.119304
O47	O	-0.702248	-1.576976	0.000043
H48	H	-0.778863	-1.598946	0.000060
H49	H	-0.770909	-2.143865	0.000050
H50	H	-0.651008	-2.294139	0.000053
H51	H	-0.480810	-2.299921	0.000029
H52	H	-0.319256	-2.159136	0.000020
