data_functionalizedCrystal
_audit_creation_method	'MofGen! by Chris Wilmer'
_symmetry_space_group_name_H-M	'P1'
_symmetry_Int_Tables_number	1
_symmetry_cell_setting	triclinic
loop_
_symmetry_equiv_pos_as_xyz
  x,y,z
_cell_length_a	12.759395
_cell_length_b	12.759394
_cell_length_c	14.908308
_cell_angle_alpha	93.268403
_cell_angle_beta	93.279830
_cell_angle_gamma	90.015598
loop_
_atom_site_label
_atom_site_type_symbol
_atom_site_fract_x
_atom_site_fract_y
_atom_site_fract_z
Zn1	Zn	1.571944	-0.452505	-0.510058
Zn2	Zn	1.581986	-0.618073	-0.359206
Zn3	Zn	1.406392	-0.442412	-0.359221
Zn4	Zn	1.396237	-0.628142	-0.510019
O5	O	1.489140	-0.535283	-0.434626
O6	O	1.720296	-0.474478	-0.490057
O7	O	1.567145	-0.586333	-0.232966
O8	O	1.428401	-0.296731	-0.379252
O9	O	1.727674	-0.596120	-0.379226
O10	O	1.550031	-0.304147	-0.490071
O11	O	1.438138	-0.457276	-0.232977
O12	O	1.258025	-0.467040	-0.379215
O13	O	1.411092	-0.613282	-0.636266
O14	O	1.250563	-0.603495	-0.490006
O15	O	1.540183	-0.484242	-0.636294
O16	O	1.557298	-0.766429	-0.379189
O17	O	1.420829	-0.773826	-0.489991
C18	C	1.216173	-0.535266	-0.434608
C19	C	1.099396	-0.535285	-0.434622
C20	C	0.872264	-0.408874	-0.550246
C21	C	0.923284	-0.345644	-0.608032
C22	C	1.033006	-0.345625	-0.608017
C23	C	1.091712	-0.408845	-0.550210
C24	C	1.040693	-0.472074	-0.492424
C25	C	0.930967	-0.472084	-0.492444
C26	C	1.048376	-0.598514	-0.376836
C27	C	0.938654	-0.598529	-0.376846
C28	C	1.107082	-0.661734	-0.319029
C29	C	1.056063	-0.724960	-0.261237
C30	C	0.946333	-0.724975	-0.261255
C31	C	0.887634	-0.661759	-0.319059
C32	C	1.489078	-0.808249	-0.434604
C33	C	1.489146	-0.925027	-0.434625
C34	C	1.631346	-0.917276	-0.319333
C35	C	1.702473	-0.968262	-0.261698
C36	C	1.702533	-1.077986	-0.261722
C37	C	1.631460	-1.136726	-0.319390
C38	C	1.560333	-1.085740	-0.377025
C39	C	1.560279	-0.976014	-0.376993
C40	C	1.418140	-1.093491	-0.492320
C41	C	1.418073	-0.983768	-0.492293
C42	C	1.347068	-1.152231	-0.549988
C43	C	1.275934	-1.101245	-0.607620
C44	C	1.275877	-0.991515	-0.607593
C45	C	1.346947	-0.932782	-0.549928
C46	C	1.763172	-0.535302	-0.434644
C47	C	1.879948	-0.535310	-0.434652
C48	C	1.473385	-0.551011	-0.669928
C49	C	1.466671	-0.557713	-0.770200
C50	C	1.489229	-0.261253	-0.434667
C51	C	1.489267	-0.144477	-0.434685
C52	C	1.588474	-0.435913	-0.958653
C53	C	1.582169	-0.442207	-1.052868
C54	C	1.447751	-0.576588	-1.052846
C55	C	1.454056	-0.570294	-0.958631
C56	C	1.524421	-0.499956	-0.911538
C57	C	1.530731	-0.493668	-0.817322
C58	C	1.396308	-0.628043	-0.817302
C59	C	1.390003	-0.634337	-0.911516
C60	C	1.504894	-0.519541	-0.200239
C61	C	1.511811	-0.512543	-0.099967
H62	H	1.181053	-0.408834	-0.550211
C63	C	1.197766	-1.165858	-0.671052
C64	C	1.197838	-1.286550	-0.671088
C65	C	1.119668	-1.351168	-0.734520
C66	C	1.041425	-1.295093	-0.797917
C67	C	1.041349	-1.174394	-0.797883
C68	C	1.119519	-1.109776	-0.734450
H69	H	1.255761	-1.328066	-0.624156
H70	H	1.119725	-1.440517	-0.734545
H71	H	0.983559	-1.342927	-0.844873
H72	H	0.983426	-1.132878	-0.844815
H73	H	1.119463	-1.020427	-0.734425
C74	C	1.780652	-0.903648	-0.198268
C75	C	1.780595	-0.782956	-0.198234
C76	C	1.858778	-0.718347	-0.134807
C77	C	1.937019	-0.774429	-0.071415
C78	C	1.937079	-0.895128	-0.071446
C79	C	1.858896	-0.959738	-0.134873
H80	H	1.722673	-0.741434	-0.245163
H81	H	1.858733	-0.628997	-0.134784
H82	H	1.994895	-0.726602	-0.024462
H83	H	1.995001	-0.936650	-0.024517
H84	H	1.858941	-1.049087	-0.134896
C85	C	1.608127	-0.416297	-0.765516
C86	C	1.566957	-0.329489	-0.700753
C87	C	1.644352	-0.252113	-0.648950
C88	C	1.762919	-0.261545	-0.661911
C89	C	1.804096	-0.348356	-0.726677
C90	C	1.726700	-0.425732	-0.778480
H91	H	1.479181	-0.322504	-0.691156
H92	H	1.613870	-0.187850	-0.601005
H93	H	1.820212	-0.204267	-0.623563
H94	H	1.891871	-0.355341	-0.736274
H95	H	1.757182	-0.489995	-0.826425
C96	C	1.120638	-0.794496	-0.197658
C97	C	1.241329	-0.794485	-0.197646
C98	C	1.305908	-0.864022	-0.134065
C99	C	1.249797	-0.933570	-0.070495
C100	C	1.129099	-0.933584	-0.070505
C101	C	1.064520	-0.864047	-0.134086
H102	H	1.282871	-0.742999	-0.244706
H103	H	1.395256	-0.864012	-0.134058
H104	H	1.297602	-0.985046	-0.023429
H105	H	1.087556	-0.985070	-0.023445
H106	H	0.975171	-0.864057	-0.134093
C107	C	1.780768	-1.134078	-0.198324
C108	C	1.779137	-1.112207	-0.095758
C109	C	1.857371	-1.168300	-0.032360
C110	C	1.937236	-1.246266	-0.071527
C111	C	1.938870	-1.268142	-0.174098
C112	C	1.860636	-1.212048	-0.237496
H113	H	1.720014	-1.054489	-0.066759
H114	H	1.856161	-1.152106	0.043570
H115	H	1.995150	-1.287790	-0.024595
H116	H	1.997993	-1.325860	-0.203096
H117	H	1.861846	-1.228242	-0.313426
C118	C	1.197634	-0.935433	-0.670993
C119	C	1.078711	-0.950130	-0.663556
C120	C	1.000467	-0.894053	-0.726958
C121	C	1.041146	-0.823280	-0.797797
C122	C	1.160075	-0.808580	-0.805237
C123	C	1.238319	-0.864657	-0.741835
H124	H	1.048592	-1.002523	-0.611114
H125	H	0.912427	-0.904934	-0.721449
H126	H	0.983225	-0.781768	-0.844730
H127	H	1.190193	-0.756187	-0.857679
H128	H	1.326358	-0.853775	-0.747344
H129	H	0.782923	-0.408859	-0.550245
H130	H	1.074546	-0.294140	-0.655073
H131	H	1.196423	-0.661721	-0.319026
H132	H	1.347126	-1.241574	-0.550008
H133	H	0.875473	-0.294174	-0.655099
H134	H	0.904800	-0.776470	-0.214202
H135	H	0.798293	-0.661752	-0.319068
H136	H	1.631291	-0.827933	-0.319296
H137	H	1.631524	-1.226069	-0.319413
H138	H	1.346900	-0.843438	-0.549894
H139	H	1.645774	-0.378646	-0.920309
H140	H	1.634325	-0.390054	-1.091225
H141	H	1.390463	-0.633854	-1.091205
H142	H	1.332712	-0.691602	-0.949872
H143	H	1.344154	-0.680194	-0.778931
