data_functionalizedCrystal
_audit_creation_method	'MofGen! by Chris Wilmer'
_symmetry_space_group_name_H-M	'P1'
_symmetry_Int_Tables_number	1
_symmetry_cell_setting	triclinic
loop_
_symmetry_equiv_pos_as_xyz
  x,y,z
_cell_length_a	33.510554
_cell_length_b	33.509711
_cell_length_c	33.506470
_cell_angle_alpha	60.004186
_cell_angle_beta	60.008358
_cell_angle_gamma	59.994760
loop_
_atom_site_label
_atom_site_type_symbol
_atom_site_fract_x
_atom_site_fract_y
_atom_site_fract_z
O1	O	0.055430	-0.583081	0.487524
O2	O	0.020931	-0.453975	0.392819
O3	O	0.102693	-0.535652	0.392731
O4	O	-0.026332	-0.501404	0.487613
O5	O	0.129823	-0.508526	0.419767
O6	O	0.048062	-0.426850	0.419856
O7	O	0.082561	-0.555956	0.514561
Cu8	Cu	0.067789	-0.488926	0.469677
Cu9	Cu	0.035703	-0.521005	0.437703
O10	O	0.000799	-0.474279	0.514649
N11	N	0.090357	-0.466366	0.492168
N12	N	0.013139	-0.543569	0.415212
C13	C	0.143028	-0.279707	0.544737
C14	C	0.143165	-0.413746	0.678712
C15	C	0.143043	-0.413725	0.544739
C16	C	0.277090	-0.413694	0.544637
C17	C	0.157791	-0.323929	0.559462
C18	C	0.157869	-0.398994	0.634489
C19	C	0.232865	-0.398963	0.559407
C20	C	0.157801	-0.398982	0.559463
C21	C	0.124237	-0.223419	0.525994
C22	C	0.124262	-0.432490	0.525997
C23	C	0.176583	-0.380217	0.578205
C24	C	0.358938	-0.399566	0.501510
C25	C	0.410104	-0.416609	0.484423
C26	C	0.410135	-0.499402	0.515995
C27	C	0.358969	-0.482358	0.533084
C28	C	0.136554	-0.197822	0.475693
C29	C	0.119469	-0.146653	0.458657
C30	C	0.077755	-0.146680	0.542223
C31	C	0.094840	-0.197850	0.559260
C32	C	0.073954	-0.420144	0.538396
C33	C	0.056884	-0.437203	0.521352
C34	C	0.140427	-0.478952	0.479524
C35	C	0.157498	-0.461894	0.496561
C36	C	0.074158	-0.420182	0.760618
C37	C	0.057149	-0.437256	0.811786
C38	C	0.140732	-0.479014	0.811717
C39	C	0.157740	-0.461942	0.760547
C40	C	0.124452	-0.432525	0.734999
C41	C	0.333372	-0.432439	0.525839
C42	C	-0.020612	-0.577650	0.170305
C43	C	-0.020943	-0.788098	0.380897
C44	C	-0.020912	-0.577638	0.380991
C45	C	-0.231336	-0.577418	0.380585
C46	C	-0.129735	-0.611383	0.346870
C47	C	-0.054722	-0.611464	0.347017
C48	C	-0.073450	-0.630202	0.328195
C49	C	-0.087616	-0.712029	0.371239
C50	C	-0.070599	-0.763199	0.388315
C51	C	0.012191	-0.763282	0.356872
C52	C	-0.004828	-0.712113	0.339795
C53	C	-0.155381	-0.623711	0.397158
C54	C	-0.206547	-0.606601	0.414133
C55	C	-0.206417	-0.564839	0.330529
C56	C	-0.155251	-0.581949	0.313554
C57	C	-0.067051	-0.561160	0.334643
C58	C	-0.050026	-0.544131	0.351759
C59	C	-0.008343	-0.627704	0.393612
C60	C	-0.025368	-0.644736	0.376502
C61	C	-0.066922	-0.561168	0.246303
C62	C	-0.049794	-0.544141	0.195134
C63	C	-0.008048	-0.627719	0.195183
C64	C	-0.025175	-0.644745	0.246352
C65	C	-0.054614	-0.611468	0.271911
C66	C	-0.054732	-0.686488	0.346980
C67	C	-0.002117	-0.558258	0.114025
C68	C	-0.002879	-0.844379	0.399940
C69	C	-0.002504	-0.558243	0.399473
C70	C	-0.287615	-0.558285	0.398601
N71	N	0.434975	-0.466279	0.491900
O72	O	0.591199	-0.470749	0.375150
O73	O	0.591395	-0.565767	0.504116
O74	O	0.591311	-0.565550	0.422329
O75	O	0.591283	-0.470966	0.456937
O76	O	0.510024	-0.538522	0.449509
O77	O	0.510108	-0.538739	0.531297
O78	O	0.509913	-0.443721	0.402330
Cu79	Cu	0.502588	-0.488762	0.469295
Cu80	Cu	0.598719	-0.520726	0.437151
O81	O	0.509997	-0.443938	0.484117
N82	N	0.666332	-0.543209	0.414541
N83	N	0.090323	-0.121809	0.492157
O84	O	-0.026342	0.034503	0.487582
O85	O	0.102626	0.034543	0.392540
O86	O	0.020797	0.034507	0.392812
O87	O	0.055487	0.034539	0.487310
O88	O	0.047933	-0.046785	0.419900
O89	O	0.129763	-0.046749	0.419628
O90	O	0.000794	-0.046789	0.514670
Cu91	Cu	0.067756	-0.054192	0.469623
Cu92	Cu	0.035664	0.041946	0.437588
O93	O	0.082623	-0.046753	0.514399
N94	N	0.013091	0.109564	0.415054
N95	N	0.090671	-0.466416	0.836606
O96	O	0.086120	-0.583065	0.992910
O97	O	-0.008880	-0.454051	0.992954
O98	O	-0.008658	-0.535864	0.992931
O99	O	0.085897	-0.501252	0.992933
O100	O	0.018407	-0.508749	0.911642
O101	O	0.018185	-0.426936	0.911665
O102	O	0.113185	-0.555949	0.911621
Cu103	Cu	0.068156	-0.488967	0.904221
Cu104	Cu	0.036148	-0.521034	1.000355
O105	O	0.112963	-0.474136	0.911644
N106	N	0.013633	-0.543590	1.067970
C107	C	0.031262	-0.424144	0.393290
C108	C	0.132513	-0.525291	0.393180
C109	C	0.072229	-0.585787	0.514090
C110	C	-0.029022	-0.484640	0.514200
C111	C	0.550775	-0.565338	0.533954
C112	C	0.550672	-0.565070	0.432670
C113	C	0.550530	-0.444149	0.372492
C114	C	0.550635	-0.444418	0.473776
C115	C	0.132408	-0.005998	0.392963
C116	C	0.031106	-0.006142	0.393333
C117	C	-0.029021	-0.006147	0.514213
C118	C	0.072314	-0.006104	0.513878
C119	C	-0.008430	-0.424240	0.952316
C120	C	-0.008150	-0.525550	0.952271
C121	C	0.112735	-0.585760	0.952260
C122	C	0.112461	-0.484444	0.952286
H123	H	0.016194	-0.427197	0.832639
O124	O	0.176520	-0.005692	0.357323
C125	C	0.206930	-0.005595	0.374864
H126	H	0.183428	0.009632	0.406355
H127	H	0.230148	0.018203	0.344165
H128	H	0.231805	-0.044540	0.388255
H129	H	0.550467	-0.414317	0.335455
H130	H	0.023675	-0.006147	0.363643
H131	H	0.550685	-0.594783	0.425263
O132	O	-0.073244	-0.006066	0.549766
C133	C	-0.110111	0.036022	0.533065
H134	H	-0.093470	0.065451	0.502616
H135	H	-0.139270	0.050158	0.564575
H136	H	-0.127404	0.026492	0.518499
H137	H	0.550629	-0.414708	0.481180
O138	O	0.081265	-0.006125	0.549255
C139	C	0.129305	-0.006098	0.531424
H140	H	0.152410	-0.021479	0.500042
H141	H	0.145779	-0.029701	0.562019
H142	H	0.128574	0.032905	0.517792
O143	O	-0.043967	-0.380018	0.952353
C144	C	-0.026370	-0.349596	0.952346
H145	H	0.005014	-0.373098	0.967727
H146	H	-0.057082	-0.326183	0.975957
H147	H	-0.012813	-0.324907	0.913351
O148	O	0.550927	-0.600940	0.578121
C149	C	0.593039	-0.612249	0.586855
H150	H	0.622425	-0.601401	0.550560
H151	H	0.607217	-0.653178	0.606589
H152	H	0.583529	-0.591314	0.610479
H153	H	-0.037843	-0.532946	0.952238
O154	O	0.176684	-0.533999	0.357588
C155	C	0.170244	-0.528511	0.316415
H156	H	0.134439	-0.533891	0.328197
H157	H	0.201933	-0.556906	0.298970
H158	H	0.169154	-0.490301	0.288782
O159	O	0.148259	-0.629996	0.952263
C160	C	0.130671	-0.660409	0.952242
H161	H	0.089039	-0.647175	0.967641
H162	H	0.145670	-0.699566	0.975828
H163	H	0.143081	-0.659077	0.913239
H164	H	0.079602	-0.622875	0.543835
O165	O	-0.073249	-0.475850	0.549700
C166	C	-0.103635	-0.427830	0.532037
H167	H	-0.080106	-0.404613	0.500640
H168	H	-0.127042	-0.411467	0.562711
H169	H	-0.128327	-0.428578	0.518477
H170	H	0.142166	-0.477036	0.952281
H171	H	0.198463	-0.471942	0.486461
H172	H	0.047048	-0.396226	0.739820
H173	H	0.198696	-0.471996	0.739692
O174	O	0.173085	-0.507655	0.836515
C175	C	0.202676	-0.550556	0.823981
H176	H	0.182904	-0.557671	0.809930
H177	H	0.210444	-0.582795	0.857616
H178	H	0.238608	-0.545894	0.794262
O179	O	0.041601	-0.391566	0.566963
C180	C	-0.006462	-0.384335	0.574255
H181	H	-0.006396	-0.390047	0.543415
H182	H	-0.030762	-0.345531	0.574540
H183	H	-0.021092	-0.411579	0.610708
O184	O	0.008019	-0.425155	0.533311
C185	C	-0.004392	-0.399396	0.490342
H186	H	0.024431	-0.382065	0.459589
H187	H	-0.041543	-0.369587	0.497116
H188	H	-0.006099	-0.425703	0.479575
O189	O	0.172739	-0.507444	0.450861
C190	C	0.202295	-0.481593	0.407944
H191	H	0.182519	-0.440658	0.400848
H192	H	0.210009	-0.490739	0.375713
H193	H	0.238255	-0.492479	0.412567
O194	O	0.334163	-0.514305	0.556636
C195	C	0.346659	-0.538269	0.525322
H196	H	0.360688	-0.514960	0.485711
H197	H	0.313011	-0.544035	0.531387
H198	H	0.376381	-0.575189	0.533548
O199	O	0.435075	-0.547874	0.522970
C200	C	0.485718	-0.555869	0.502681
H201	H	0.492679	-0.520649	0.473352
H202	H	0.505157	-0.585762	0.485672
H203	H	0.500269	-0.567660	0.532613
H204	H	0.430920	-0.389838	0.464614
H205	H	0.160490	-0.218637	0.448603
O206	O	0.334125	-0.351054	0.494389
C207	C	0.346579	-0.324648	0.443870
H208	H	0.383723	-0.346998	0.423704
H209	H	0.348324	-0.288573	0.437106
H210	H	0.317763	-0.317019	0.429947
O211	O	0.131409	-0.121837	0.409782
C212	C	0.113878	-0.134334	0.388556
H213	H	0.108892	-0.171496	0.412815
H214	H	0.141272	-0.136067	0.350907
H215	H	0.077294	-0.105547	0.384781
O216	O	0.049191	-0.121915	0.574603
C217	C	0.042001	-0.155482	0.622654
H218	H	0.047723	-0.191958	0.622562
H219	H	0.003207	-0.140714	0.646973
H220	H	0.069258	-0.160916	0.637283
H221	H	0.023891	-0.387055	0.363546
H222	H	0.015562	-0.654800	0.417614
H223	H	-0.059824	-0.503179	0.174290
O224	O	0.082976	-0.222753	0.608113
C225	C	0.126002	-0.252314	0.620425
H226	H	0.158121	-0.259978	0.586691
H227	H	0.121465	-0.288299	0.650118
H228	H	0.133214	-0.232569	0.634424
H229	H	-0.090896	-0.534066	0.267110
H230	H	-0.015148	-0.685706	0.267200
O231	O	0.020553	-0.660111	0.170434
C232	C	0.027729	-0.708158	0.204012
H233	H	0.021963	-0.708057	0.240502
H234	H	0.066534	-0.732490	0.189285
H235	H	0.000494	-0.722780	0.209400
H236	H	-0.090949	-0.534065	0.310634
H237	H	-0.015331	-0.685697	0.386578
O238	O	-0.062016	-0.495250	0.339666
C239	C	-0.091577	-0.469533	0.309975
H240	H	-0.085036	-0.493944	0.291372
H241	H	-0.081927	-0.435420	0.281027
H242	H	-0.131672	-0.458441	0.333516
H243	H	0.021953	-0.691318	0.320042
H244	H	0.052828	-0.784146	0.351024
H245	H	-0.134607	-0.647683	0.424287
O246	O	-0.102619	-0.787935	0.411946
C247	C	-0.150319	-0.754345	0.414647
H248	H	-0.152275	-0.717863	0.411239
H249	H	-0.177375	-0.769074	0.451227
H250	H	-0.159878	-0.748936	0.383661
H251	H	-0.227429	-0.616637	0.455084
O252	O	-0.136071	-0.687079	0.378124
C253	C	-0.142949	-0.657497	0.332414
H254	H	-0.107742	-0.649878	0.303952
H255	H	-0.173654	-0.621490	0.335321
H256	H	-0.153014	-0.677199	0.321006
H257	H	-0.227194	-0.540877	0.303400
O258	O	-0.130410	-0.569949	0.264685
C259	C	-0.163904	-0.540291	0.238920
H260	H	-0.200400	-0.546776	0.263270
H261	H	-0.149078	-0.549896	0.204771
H262	H	-0.169317	-0.500220	0.227885
