data_functionalizedCrystal
_audit_creation_method	'MofGen! by Chris Wilmer'
_symmetry_space_group_name_H-M	'P1'
_symmetry_Int_Tables_number	1
_symmetry_cell_setting	triclinic
loop_
_symmetry_equiv_pos_as_xyz
  x,y,z
_cell_length_a	14.560438
_cell_length_b	20.875641
_cell_length_c	14.560438
_cell_angle_alpha	89.999936
_cell_angle_beta	60.000905
_cell_angle_gamma	57.589171
loop_
_atom_site_label
_atom_site_type_symbol
_atom_site_fract_x
_atom_site_fract_y
_atom_site_fract_z
Zr1	Zr	0.937870	0.641476	-0.086821
O2	O	1.140646	0.535150	-0.239050
O3	O	0.742844	0.674070	-0.040157
O4	O	0.934448	0.674067	-0.231758
O5	O	0.949039	0.535156	0.103692
O6	O	0.922934	0.783648	-0.226004
O7	O	0.949042	0.535153	-0.047449
O8	O	0.580189	0.783653	0.116735
O9	O	1.291784	0.535150	-0.239047
O10	O	0.811598	0.769750	-0.015958
O11	O	0.820189	0.687974	0.092542
O12	O	1.045778	0.687970	-0.133043
O13	O	1.054369	0.606193	-0.024543
Zr14	Zr	0.919501	0.816249	0.163409
Zr15	Zr	0.919506	0.816244	-0.077643
Zr16	Zr	0.937866	0.641480	0.154231
Zr17	Zr	1.178918	0.641476	-0.086816
Zr18	Zr	0.678454	0.816248	0.163404
O19	O	1.114528	0.783654	0.116745
O20	O	1.114534	0.783648	-0.226000
O21	O	1.140640	0.535156	0.103696
O22	O	0.716725	0.922575	0.315638
O23	O	0.716732	0.922568	-0.027108
O24	O	0.742838	0.674077	0.302588
O25	O	0.908333	0.922569	-0.027104
O26	O	0.922924	0.783657	0.308346
O27	O	0.934438	0.674077	0.302592
O28	O	0.908330	0.922571	0.124037
O29	O	1.277187	0.674067	-0.231752
O30	O	0.580185	0.783657	0.308340
O31	O	0.565587	0.922574	0.315635
O32	O	0.565591	0.922571	0.124030
O33	O	1.291781	0.535154	-0.047442
O34	O	1.277183	0.674071	-0.040147
O35	O	0.811594	0.769755	0.209631
O36	O	0.803002	0.851531	0.101131
O37	O	1.037183	0.769751	-0.015954
O38	O	1.045774	0.687974	0.092546
C39	C	0.627172	0.728862	0.038288
C40	C	0.524841	0.728862	0.038286
C41	C	0.472281	0.771547	-0.018350
C42	C	0.376121	0.771550	-0.018339
C43	C	0.385095	0.686177	0.094945
C44	C	0.481246	0.686179	0.094941
C45	C	0.951657	0.510254	0.026814
C46	C	0.959454	0.436060	0.022918
C47	C	0.840880	0.443890	0.082199
C48	C	0.848213	0.374174	0.078535
C49	C	0.974122	0.296629	0.015584
C50	C	1.092705	0.288801	-0.043699
C51	C	1.085370	0.358516	-0.040028
C52	C	1.009166	0.083551	-0.001942
C53	C	1.016492	0.013834	-0.005611
C54	C	0.772000	0.099213	0.116626
C55	C	0.764676	0.168925	0.120285
C56	C	0.883259	0.161091	0.061007
N57	N	0.981621	0.225368	0.011835
N58	N	0.875758	0.232352	0.064764
C59	C	1.230200	0.728863	0.038300
C60	C	1.332531	0.728863	0.038302
C61	C	0.928692	0.728857	-0.263226
C62	C	0.928693	0.728855	-0.365559
C63	C	0.905715	0.947471	0.049774
C64	C	0.897918	1.021664	0.053670
C65	C	1.050931	0.686167	-0.474752
C66	C	1.050924	0.686177	-0.570900
C67	C	0.806431	0.771563	-0.448648
C68	C	0.806439	0.771557	-0.352502
C69	C	0.928680	0.728868	0.339814
C70	C	0.928678	0.728870	0.442147
C71	C	0.604201	0.947470	0.049768
C72	C	0.494073	1.021664	0.053662
C73	C	0.627166	0.728867	0.339808
C74	C	0.524834	0.728869	0.442139
C75	C	0.604195	0.947476	0.351288
C76	C	0.494066	1.021671	0.457515
C77	C	1.253177	0.510249	-0.274700
C78	C	1.363306	0.436053	-0.380927
C79	C	1.253171	0.510254	0.026820
C80	C	1.363298	0.436061	0.022926
C81	C	1.230205	0.728857	-0.263220
C82	C	1.332538	0.728855	-0.365551
C83	C	0.446843	1.013817	-0.005638
C84	C	0.343381	1.083523	-0.002002
C85	C	0.287144	1.161075	0.060942
C86	C	0.334384	1.168920	0.120244
C87	C	0.437851	1.099215	0.116601
C88	C	0.437863	1.099208	0.450765
C89	C	0.334397	1.168929	0.550568
C90	C	0.287130	1.161112	0.657120
C91	C	0.343344	1.083567	0.663868
C92	C	0.446814	1.013847	0.564066
C93	C	1.419521	0.358516	-0.374177
C94	C	1.523016	0.288795	-0.473980
C95	C	1.570288	0.296613	-0.580532
C96	C	1.514068	0.374158	-0.587280
C97	C	1.410582	0.443877	-0.487478
C98	C	1.410539	0.443907	0.082216
C99	C	1.514027	0.374201	0.078553
C100	C	1.570268	0.296649	0.015606
C101	C	1.523023	0.288804	-0.043692
C102	C	1.419543	0.358509	-0.040035
C103	C	0.472269	0.771558	0.551334
C104	C	0.376126	0.771550	0.647481
C105	C	0.385118	0.686164	0.525224
C106	C	0.481266	0.686167	0.429080
H107	H	0.333327	0.806309	-0.064456
C108	C	1.348741	0.529166	-0.494922
N109	N	1.302164	0.593405	-0.500538
H110	H	0.492630	0.950677	-0.056908
H111	H	0.507771	0.806303	-0.064479
C112	C	0.641568	0.107822	0.181836
N113	N	0.543321	0.114308	0.230959
C114	C	0.539047	0.639232	0.157266
N115	N	0.582574	0.603879	0.204217
C116	C	1.566071	0.382743	-0.704498
N117	N	1.605235	0.389207	-0.792791
H118	H	0.476332	1.105589	0.364014
C119	C	0.671960	0.818524	-0.434299
N120	N	0.570673	0.853892	-0.423489
H121	H	1.364755	0.507048	0.133482
C122	C	0.272569	1.254221	0.543120
N123	N	0.226000	1.318461	0.537507
H124	H	0.738351	0.507027	0.133466
H125	H	0.507743	0.806325	0.561974
H126	H	0.304844	1.077214	0.750636
C127	C	0.291425	1.074875	-0.067231
N128	N	0.252292	1.068359	-0.116359
H129	H	0.706892	0.806323	-0.263585
H130	H	0.476292	1.105615	0.164898
H131	H	0.202878	1.217889	0.738376
C132	C	0.626167	0.254223	0.189537
N133	N	0.521839	0.318470	0.241696
H134	H	0.492562	0.950716	0.569578
H135	H	1.150478	0.651396	-0.485390
C136	C	1.231206	0.203498	-0.112951
N137	N	1.335528	0.139248	-0.165118
H138	H	0.333333	0.806310	0.736389
H139	H	1.381039	0.352136	-0.287427
H140	H	0.202894	1.217827	0.063900
H141	H	0.349590	0.651425	0.141070
H142	H	0.751658	0.380557	0.126810
H143	H	1.552476	0.380605	0.126846
C144	C	1.584884	0.203489	-0.112912
N145	N	1.631471	0.139228	-0.165038
C146	C	1.584837	0.203503	-0.466532
N147	N	1.631397	0.139264	-0.460919
C148	C	0.272499	1.254235	0.189488
N149	N	0.225877	1.318497	0.241650
C150	C	1.684117	0.219911	-0.690307
N151	N	1.769849	0.162136	-0.772986
C152	C	1.155008	-0.071469	-0.074857
N153	N	1.259332	-0.135718	-0.127009
H154	H	1.654527	0.239897	0.012638
C155	C	1.367576	0.349864	-0.105249
N156	N	1.328437	0.343347	-0.154371
H157	H	0.524069	0.651401	0.340162
C158	C	1.185397	0.639201	-0.691015
N159	N	1.286688	0.603812	-0.781487
H160	H	1.105725	0.077161	-0.050230
H161	H	0.349631	0.651399	0.514605
H162	H	1.181925	0.352135	-0.088287
