data_functionalizedCrystal
_audit_creation_method	'MofGen! by Chris Wilmer'
_symmetry_space_group_name_H-M	'P1'
_symmetry_Int_Tables_number	1
_symmetry_cell_setting	triclinic
loop_
_symmetry_equiv_pos_as_xyz
  x,y,z
_cell_length_a	16.625547
_cell_length_b	16.625545
_cell_length_c	12.759393
_cell_angle_alpha	90.032830
_cell_angle_beta	90.026979
_cell_angle_gamma	90.025495
loop_
_atom_site_label
_atom_site_type_symbol
_atom_site_fract_x
_atom_site_fract_y
_atom_site_fract_z
Zn1	Zn	1.232680	-0.320964	0.594172
Zn2	Zn	1.732680	0.179036	1.094172
Zn3	Zn	1.232571	-0.455818	0.418485
Zn4	Zn	1.732571	0.044182	0.918485
Zn5	Zn	1.097837	-0.321003	0.418489
Zn6	Zn	1.597837	0.178997	0.918489
Zn7	Zn	1.097805	-0.455758	0.594104
Zn8	Zn	1.597805	0.044242	1.094104
O9	O	1.165224	-0.388386	0.506313
O10	O	1.665224	0.111614	1.006313
O11	O	1.345498	-0.338861	0.570894
O12	O	1.845498	0.161139	1.070894
O13	O	1.214666	-0.437976	0.271465
O14	O	1.714666	0.062024	0.771465
O15	O	1.115783	-0.208165	0.441824
O16	O	1.615783	0.291835	0.941824
O17	O	1.345418	-0.437938	0.441818
O18	O	1.845418	0.062062	0.941818
O19	O	1.214852	-0.208137	0.570898
O20	O	1.714852	0.291863	1.070898
O21	O	1.115677	-0.338928	0.271467
O22	O	1.615677	0.161072	0.771467
O23	O	0.985001	-0.338870	0.441758
O24	O	1.485001	0.161130	0.941758
O25	O	1.115729	-0.437836	0.741134
O26	O	1.615729	0.062164	1.241134
O27	O	0.984977	-0.437874	0.570781
O28	O	1.484977	0.062126	1.070781
O29	O	1.214821	-0.338803	0.741184
O30	O	1.714821	0.161197	1.241184
O31	O	1.214635	-0.568643	0.441751
O32	O	1.714635	-0.068643	0.941751
O33	O	1.115623	-0.568598	0.570778
O34	O	1.615623	-0.068598	1.070778
C35	C	0.955733	-0.388370	0.506263
C36	C	1.455733	0.111630	1.006263
C37	C	0.866112	-0.388383	0.506267
C38	C	1.366112	0.111617	1.006267
C39	C	0.793329	-0.388384	0.506280
C40	C	1.293329	0.111616	1.006280
C41	C	0.702021	-0.388389	0.506306
C42	C	1.202021	0.111611	1.006306
C43	C	0.629244	-0.388396	0.506333
C44	C	1.129244	0.111604	1.006333
C45	C	0.537930	-0.388402	0.506358
C46	C	1.037930	0.111598	1.006358
C47	C	1.165136	-0.597877	0.506280
C48	C	1.665136	-0.097877	1.006280
C49	C	1.165172	-0.687498	0.506301
C50	C	1.665172	-0.187498	1.006301
C51	C	1.165204	-0.760280	0.506321
C52	C	1.665204	-0.260280	1.006321
C53	C	1.165250	-0.851589	0.506345
C54	C	1.665250	-0.351589	1.006345
C55	C	1.165292	-0.924365	0.506358
C56	C	1.665292	-0.424365	1.006358
C57	C	1.165338	-1.015679	0.506380
C58	C	1.665338	-0.515679	1.006380
C59	C	1.375532	-0.388402	0.506363
C60	C	1.875532	0.111598	1.006363
C61	C	1.465153	-0.388409	0.506385
C62	C	1.965153	0.111591	1.006385
C63	C	1.165284	-0.388308	0.780346
C64	C	1.665284	0.111692	1.280346
C65	C	1.165310	-0.388275	0.897123
C66	C	1.665310	0.111725	1.397123
C67	C	1.165333	-0.178077	0.506369
C68	C	1.665333	0.321923	1.006369
C69	C	1.165380	-0.088456	0.506393
C70	C	1.665380	0.411544	1.006393
C71	C	1.165210	-0.388405	0.233345
C72	C	1.665210	0.111595	0.733345
C73	C	1.165340	-0.388211	0.116569
C74	C	1.665340	0.111789	0.616569
C75	C	1.216911	-0.336701	0.952013
C76	C	1.716911	0.163299	1.452013
C77	C	1.216924	-0.336666	1.061737
C78	C	1.716924	0.163334	1.561737
C79	C	1.113734	-0.439787	1.061672
C80	C	1.613734	0.060213	1.561672
C81	C	1.113716	-0.439817	0.951950
C82	C	1.613716	0.060183	1.451950
H83	H	1.258919	-0.294730	0.907376
H84	H	1.758919	0.205270	1.407376
H85	H	1.258942	-0.294668	1.106423
H86	H	1.758942	0.205332	1.606423
H87	H	1.071730	-0.481753	1.106325
H88	H	1.571730	0.018247	1.606325
Cl89	Cl	1.048836	-0.504655	0.882940
Cl90	Cl	1.548836	-0.004655	1.382940
