data_functionalizedCrystal
_audit_creation_method	'MofGen! by Chris Wilmer'
_symmetry_space_group_name_H-M	'P1'
_symmetry_Int_Tables_number	1
_symmetry_cell_setting	triclinic
loop_
_symmetry_equiv_pos_as_xyz
  x,y,z
_cell_length_a	19.077105
_cell_length_b	25.639240
_cell_length_c	25.639233
_cell_angle_alpha	90.020815
_cell_angle_beta	87.689938
_cell_angle_gamma	92.260681
loop_
_atom_site_label
_atom_site_type_symbol
_atom_site_fract_x
_atom_site_fract_y
_atom_site_fract_z
Zn1	Zn	1.075832	0.240381	-0.327679
Zn2	Zn	1.409165	0.573714	0.005654
Zn3	Zn	1.742498	0.907047	0.338988
Zn4	Zn	1.075720	0.327796	-0.240237
Zn5	Zn	1.409053	0.661130	0.093096
Zn6	Zn	1.742386	0.994463	0.426430
Zn7	Zn	0.958149	0.236861	-0.236749
Zn8	Zn	1.291482	0.570195	0.096584
Zn9	Zn	1.624816	0.903528	0.429918
Zn10	Zn	0.958066	0.324266	-0.324133
Zn11	Zn	1.291399	0.657599	0.009200
Zn12	Zn	1.624732	0.990933	0.342533
O13	O	1.016941	0.282326	-0.282200
O14	O	1.350275	0.615659	0.051134
O15	O	1.683608	0.948993	0.384467
O16	O	1.174306	0.254927	-0.319023
O17	O	1.507639	0.588260	0.014310
O18	O	1.840973	0.921594	0.347643
O19	O	1.060111	0.315738	-0.166609
O20	O	1.393445	0.649071	0.166725
O21	O	1.726778	0.982405	0.500058
O22	O	0.973841	0.164165	-0.248835
O23	O	1.307175	0.497499	0.084498
O24	O	1.640508	0.830832	0.417832
O25	O	1.174224	0.319151	-0.254780
O26	O	1.507557	0.652484	0.078553
O27	O	1.840890	0.985817	0.411887
O28	O	1.060303	0.166751	-0.315641
O29	O	1.393636	0.500084	0.017692
O30	O	1.726969	0.833418	0.351026
O31	O	0.973733	0.248929	-0.164046
O32	O	1.307066	0.582262	0.169287
O33	O	1.640399	0.915595	0.502621
O34	O	0.859649	0.245505	-0.245397
O35	O	1.192982	0.578839	0.087936
O36	O	1.526315	0.912172	0.421270
O37	O	0.973700	0.313134	-0.397769
O38	O	1.307033	0.646467	-0.064436
O39	O	1.640367	0.979800	0.268897
O40	O	0.859588	0.309721	-0.309598
O41	O	1.192921	0.643054	0.023735
O42	O	1.526254	0.976388	0.357069
O43	O	1.060222	0.251504	-0.400374
O44	O	1.393555	0.584837	-0.067041
O45	O	1.726889	0.918170	0.266292
O46	O	1.060031	0.400491	-0.251342
O47	O	1.393364	0.733824	0.081991
O48	O	1.726697	1.067157	0.415325
O49	O	0.973591	0.397897	-0.312980
O50	O	1.306924	0.731230	0.020353
O51	O	1.640258	1.064564	0.353686
C52	C	0.834081	0.276849	-0.276735
C53	C	1.167414	0.610182	0.056599
C54	C	1.500748	0.943515	0.389932
C55	C	0.755852	0.274518	-0.274409
C56	C	1.089186	0.607851	0.058924
C57	C	1.422519	0.941185	0.392258
C58	C	1.016809	0.418165	-0.282167
C59	C	1.350142	0.751498	0.051167
C60	C	1.683475	1.084831	0.384500
C61	C	1.016816	0.476279	-0.282172
C62	C	1.350150	0.809612	0.051161
C63	C	1.683483	1.142946	0.384495
C64	C	0.719087	0.306907	-0.306690
C65	C	1.052420	0.640241	0.026643
C66	C	1.385754	0.973574	0.359977
C67	C	0.645583	0.304710	-0.304507
C68	C	0.978916	0.638044	0.028826
C69	C	1.312250	0.971377	0.362159
C70	C	0.608846	0.270127	-0.270041
C71	C	0.942179	0.603460	0.063293
C72	C	1.275512	0.936793	0.396626
C73	C	0.645616	0.237734	-0.237758
C74	C	0.978950	0.571067	0.095575
C75	C	1.312283	0.904401	0.428908
C76	C	0.719119	0.239929	-0.239944
C77	C	1.052452	0.573262	0.093389
C78	C	1.385786	0.906595	0.426723
C79	C	0.389018	0.259970	-0.259928
C80	C	0.722351	0.593304	0.073406
C81	C	1.055684	0.926637	0.406739
C82	C	0.315510	0.257779	-0.257743
C83	C	0.648843	0.591113	0.075590
C84	C	0.982177	0.924446	0.408923
C85	C	0.315482	0.324755	-0.324493
C86	C	0.648815	0.658089	0.008840
C87	C	0.982148	0.991422	0.342173
C88	C	0.388986	0.326949	-0.326674
C89	C	0.722319	0.660282	0.006660
C90	C	1.055653	0.993616	0.339993
C91	C	0.425750	0.294554	-0.294393
C92	C	0.759083	0.627888	0.038940
C93	C	1.092417	0.961221	0.372273
N94	N	0.533713	0.267882	-0.267808
N95	N	0.867046	0.601215	0.065526
N96	N	1.200379	0.934548	0.398859
N97	N	0.500882	0.296797	-0.296629
N98	N	0.834215	0.630131	0.036704
N99	N	1.167548	0.963464	0.370037
C100	C	1.062010	0.837985	-0.250143
C101	C	1.395343	1.171319	0.083190
C102	C	1.728676	1.504652	0.416523
C103	C	1.062031	0.892590	-0.250149
C104	C	1.395365	1.225924	0.083184
C105	C	1.728698	1.559257	0.416518
O106	O	1.100363	0.921967	-0.222898
O107	O	1.433696	1.255300	0.110436
O108	O	1.767029	1.588633	0.443769
N109	N	1.016998	0.918567	-0.282213
N110	N	1.350332	1.251900	0.051120
N111	N	1.683665	1.585233	0.384454
C112	C	0.971946	0.889935	-0.314277
C113	C	1.305279	1.223269	0.019056
C114	C	1.638612	1.556602	0.352389
O115	O	0.933644	0.917044	-0.341551
O116	O	1.266977	1.250378	-0.008218
O117	O	1.600311	1.583711	0.325115
C118	C	0.971928	0.835332	-0.314274
C119	C	1.305262	1.168665	0.019059
C120	C	1.638595	1.501998	0.352393
C121	C	1.016959	0.809358	-0.282204
C122	C	1.350293	1.142691	0.051129
C123	C	1.683626	1.476025	0.384463
C124	C	1.107038	0.812012	-0.218076
C125	C	1.440371	1.145345	0.115257
C126	C	1.773704	1.478678	0.448590
C127	C	1.107015	0.757410	-0.218070
C128	C	1.440348	1.090744	0.115263
C129	C	1.773682	1.424077	0.448597
C130	C	1.061964	0.728783	-0.250131
C131	C	1.395298	1.062116	0.083203
C132	C	1.728631	1.395450	0.416536
C133	C	1.016937	0.754757	-0.282198
C134	C	1.350270	1.088090	0.051136
C135	C	1.683603	1.421423	0.384469
C136	C	0.926880	0.806701	-0.346341
C137	C	1.260213	1.140035	-0.013007
C138	C	1.593547	1.473368	0.320326
C139	C	0.926867	0.752094	-0.346335
C140	C	1.260200	1.085427	-0.013002
C141	C	1.593533	1.418761	0.320332
C142	C	0.971898	0.726120	-0.314265
C143	C	1.305231	1.059454	0.019068
C144	C	1.638564	1.392787	0.352402
C145	C	0.971864	0.671528	-0.314252
C146	C	1.305197	1.004861	0.019081
C147	C	1.638530	1.338195	0.352414
N148	N	1.016897	0.645552	-0.282188
N149	N	1.350230	0.978885	0.051145
N150	N	1.683563	1.312218	0.384478
C151	C	1.061947	0.674179	-0.250127
C152	C	1.395280	1.007512	0.083206
C153	C	1.728614	1.340846	0.416539
C154	C	0.971987	1.004607	-0.314282
C155	C	1.305320	1.337941	0.019051
C156	C	1.638653	1.671274	0.352384
C157	C	0.972000	1.059210	-0.314283
C158	C	1.305333	1.392543	0.019050
C159	C	1.638667	1.725877	0.352383
C160	C	1.062087	1.061861	-0.250156
C161	C	1.395420	1.395195	0.083178
C162	C	1.728753	1.728528	0.416511
C163	C	1.062069	1.007257	-0.250152
C164	C	1.395403	1.340591	0.083181
C165	C	1.728736	1.673924	0.416514
C166	C	1.017020	0.978631	-0.282218
C167	C	1.350353	1.311964	0.051115
C168	C	1.683686	1.645298	0.384448
C169	C	1.061896	0.559513	-0.250116
C170	C	1.395229	0.892846	0.083217
C171	C	1.728562	1.226179	0.416550
C172	C	1.061867	0.504906	-0.250111
C173	C	1.395200	0.838240	0.083222
C174	C	1.728534	1.171573	0.416555
C175	C	0.971783	0.502260	-0.314241
C176	C	1.305117	0.835593	0.019092
C177	C	1.638450	1.168927	0.352426
C178	C	0.971809	0.556861	-0.314244
C179	C	1.305142	0.890195	0.019089
C180	C	1.638476	1.223528	0.352422
C181	C	1.016871	0.585487	-0.282180
C182	C	1.350204	0.918820	0.051153
C183	C	1.683538	1.252153	0.384486
O184	O	0.933554	0.642118	-0.341491
O185	O	1.266887	0.975451	-0.008158
O186	O	1.600220	1.308785	0.325176
O187	O	1.100249	0.647064	-0.222863
O188	O	1.433582	0.980397	0.110470
O189	O	1.766915	1.313730	0.443803
C190	C	1.200516	0.287825	-0.287686
C191	C	1.533849	0.621158	0.045647
C192	C	1.867183	0.954492	0.378980
C193	C	1.278745	0.290169	-0.290024
C194	C	1.612078	0.623502	0.043309
C195	C	1.945411	0.956835	0.376642
C196	C	1.016964	0.282318	-0.418573
C197	C	1.350298	0.615651	-0.085240
C198	C	1.683631	0.948984	0.248093
C199	C	1.016974	0.282314	-0.476688
C200	C	1.350307	0.615647	-0.143354
C201	C	1.683641	0.948981	0.189979
C202	C	1.017067	1.145957	-0.282235
C203	C	1.350401	1.479290	0.051099
C204	C	1.683734	1.812623	0.384432
C205	C	1.017054	1.087842	-0.282224
C206	C	1.350387	1.421176	0.051109
C207	C	1.683720	1.754509	0.384442
C208	C	1.062083	0.250126	-0.838415
C209	C	1.395416	0.583459	-0.505081
C210	C	1.728750	0.916792	-0.171748
C211	C	1.062092	0.250111	-0.893019
C212	C	1.395425	0.583445	-0.559686
C213	C	1.728758	0.916778	-0.226353
O214	O	1.100388	0.222803	-0.922414
O215	O	1.433722	0.556137	-0.589081
O216	O	1.767055	0.889470	-0.255747
N217	N	1.017051	0.282194	-0.918973
N218	N	1.350385	0.615527	-0.585639
N219	N	1.683718	0.948860	-0.252306
C220	C	0.971994	0.314288	-0.890318
C221	C	1.305328	0.647622	-0.556985
C222	C	1.638661	0.980955	-0.223652
O223	O	0.933685	0.341575	-0.917408
O224	O	1.267018	0.674909	-0.584074
O225	O	1.600351	1.008242	-0.250741
C226	C	0.971983	0.314299	-0.835715
C227	C	1.305316	0.647633	-0.502381
C228	C	1.638649	0.980966	-0.169048
C229	C	1.017031	0.282219	-0.809764
C230	C	1.350364	0.615552	-0.476431
C231	C	1.683698	0.948886	-0.143098
C232	C	1.107127	0.218047	-0.812464
C233	C	1.440460	0.551380	-0.479131
C234	C	1.773794	0.884714	-0.145797
C235	C	1.107119	0.218062	-0.757863
C236	C	1.440452	0.551396	-0.424530
C237	C	1.773786	0.884729	-0.091197
C238	C	1.062067	0.250156	-0.729213
C239	C	1.395400	0.583489	-0.395880
C240	C	1.728734	0.916822	-0.062546
C241	C	1.017023	0.282234	-0.755164
C242	C	1.350356	0.615567	-0.421830
C243	C	1.683690	0.948901	-0.088497
C244	C	0.926923	0.346391	-0.807061
C245	C	1.260256	0.679724	-0.473728
C246	C	1.593589	1.013058	-0.140395
C247	C	0.926915	0.346399	-0.752454
C248	C	1.260248	0.679732	-0.419121
C249	C	1.593581	1.013066	-0.085787
C250	C	0.971963	0.314319	-0.726504
C251	C	1.305296	0.647652	-0.393170
C252	C	1.638629	0.980985	-0.059837
C253	C	0.971963	0.314342	-0.671912
C254	C	1.305296	0.647676	-0.338579
C255	C	1.638630	0.981009	-0.005246
N256	N	1.017003	0.282260	-0.645959
N257	N	1.350337	0.615593	-0.312626
N258	N	1.683670	0.948927	0.020708
C259	C	1.062055	0.250167	-0.674609
C260	C	1.395389	0.583500	-0.341276
C261	C	1.728722	0.916833	-0.007943
C262	C	0.972022	0.314262	-1.004990
C263	C	1.305355	0.647595	-0.671657
C264	C	1.638688	0.980929	-0.338323
C265	C	0.972036	0.314254	-1.059593
C266	C	1.305370	0.647587	-0.726259
C267	C	1.638703	0.980921	-0.392926
C268	C	1.062133	0.250076	-1.062290
C269	C	1.395466	0.583409	-0.728956
C270	C	1.728800	0.916743	-0.395623
C271	C	1.062121	0.250087	-1.007686
C272	C	1.395455	0.583421	-0.674353
C273	C	1.728788	0.916754	-0.341019
C274	C	1.017062	0.282180	-0.979036
C275	C	1.350395	0.615513	-0.645703
C276	C	1.683729	0.948846	-0.312370
C277	C	1.062036	0.250201	-0.559944
C278	C	1.395369	0.583534	-0.226610
C279	C	1.728702	0.916868	0.106723
C280	C	1.062026	0.250221	-0.505338
C281	C	1.395359	0.583554	-0.172005
C282	C	1.728693	0.916887	0.161329
C283	C	0.971927	0.314396	-0.502646
C284	C	1.305260	0.647730	-0.169312
C285	C	1.638594	0.981063	0.164021
C286	C	0.971939	0.314379	-0.557247
C287	C	1.305273	0.647712	-0.223913
C288	C	1.638606	0.981046	0.109420
C289	C	1.016996	0.282277	-0.585894
C290	C	1.350329	0.615611	-0.252561
C291	C	1.683663	0.948944	0.080772
O292	O	0.933684	0.341635	-0.642484
O293	O	1.267017	0.674968	-0.309150
O294	O	1.600351	1.008301	0.024183
O295	O	1.100352	0.222879	-0.647513
O296	O	1.433686	0.556213	-0.314180
O297	O	1.767019	0.889546	0.019154
C298	C	1.016959	0.282298	-0.146358
C299	C	1.350293	0.615631	0.186976
C300	C	1.683626	0.948965	0.520309
C301	C	1.017086	0.282158	-0.088248
C302	C	1.350419	0.615492	0.245086
C303	C	1.683753	0.948825	0.578419
H304	H	0.748993	0.335071	-0.334755
H305	H	1.082327	0.668404	-0.001421
H306	H	1.415660	1.001737	0.331912
C307	C	1.156666	0.182763	-0.729325
C308	C	1.490000	0.516096	-0.395992
C309	C	1.823333	0.849430	-0.062658
N310	N	1.193984	0.156171	-0.707833
N311	N	1.527317	0.489504	-0.374500
N312	N	1.860651	0.822837	-0.041166
H313	H	1.098723	0.224059	-0.583262
H314	H	1.432056	0.557392	-0.249929
H315	H	1.765390	0.890726	0.083404
H316	H	0.890239	0.372514	-0.828181
H317	H	1.223573	0.705848	-0.494847
H318	H	1.556906	1.039181	-0.161514
H319	H	0.935264	0.340507	-0.578377
H320	H	1.268597	0.673840	-0.245043
H321	H	1.601931	1.007173	0.088290
H322	H	0.285541	0.351128	-0.350775
H323	H	0.618874	0.684462	-0.017441
H324	H	0.952207	1.017795	0.315892
H325	H	0.935328	0.340398	-0.981667
H326	H	1.268662	0.673732	-0.648333
H327	H	1.601995	1.007065	-0.315000
H328	H	0.285600	0.229611	-0.229680
H329	H	0.618934	0.562944	0.103653
H330	H	0.952267	0.896278	0.436987
C331	C	1.111403	0.476339	-0.214828
C332	C	1.444736	0.809672	0.118506
C333	C	1.778070	1.143005	0.451839
N334	N	1.148712	0.454823	-0.188252
N335	N	1.482046	0.788157	0.145081
N336	N	1.815379	1.121490	0.478414
H337	H	1.098591	0.582813	-0.224008
H338	H	1.431924	0.916146	0.109325
H339	H	1.765258	1.249480	0.442659
C340	C	0.429449	0.224338	-0.224415
C341	C	0.762782	0.557672	0.108918
C342	C	1.096115	0.891005	0.442252
N343	N	0.459904	0.197499	-0.197664
N344	N	0.793237	0.530833	0.135669
N345	N	1.126570	0.864166	0.469003
H346	H	1.098802	0.223963	-0.986561
H347	H	1.432136	0.557297	-0.653228
H348	H	1.765469	0.890630	-0.319894
H349	H	0.615699	0.209573	-0.209697
H350	H	0.949032	0.542906	0.123636
H351	H	1.282365	0.876240	0.456969
H352	H	1.143685	0.736266	-0.191957
H353	H	1.477018	1.069599	0.141376
H354	H	1.810352	1.402933	0.474709
H355	H	0.749052	0.213551	-0.213660
H356	H	1.082386	0.546884	0.119673
H357	H	1.415719	0.880218	0.453006
H358	H	0.890213	0.372528	-0.729130
H359	H	1.223547	0.705861	-0.395797
H360	H	1.556880	1.039194	-0.062463
C361	C	0.605145	0.340351	-0.340009
C362	C	0.938478	0.673685	-0.006676
C363	C	1.271811	1.007018	0.326658
N364	N	0.574687	0.367201	-0.366747
N365	N	0.908020	0.700534	-0.033414
N366	N	1.241353	1.033868	0.299919
C367	C	0.922369	0.349694	-0.471120
C368	C	1.255702	0.683028	-0.137786
C369	C	1.589035	1.016361	0.195547
N370	N	0.885036	0.376278	-0.447373
N371	N	1.218369	0.709611	-0.114039
N372	N	1.551703	1.042944	0.219294
C373	C	0.877343	0.835260	-0.381623
C374	C	1.210677	1.168594	-0.048289
C375	C	1.544010	1.501927	0.285044
N376	N	0.840031	0.856770	-0.408200
N377	N	1.173364	1.190103	-0.074867
N378	N	1.506697	1.523436	0.258467
H379	H	0.935325	1.080353	-0.340393
H380	H	1.268658	1.413686	-0.007060
H381	H	1.601991	1.747020	0.326274
H382	H	1.143727	0.835315	-0.191968
H383	H	1.477060	1.168648	0.141365
H384	H	1.810394	1.501981	0.474698
C385	C	0.429392	0.364996	-0.364587
C386	C	0.762725	0.698330	-0.031254
C387	C	1.096058	1.031663	0.302080
N388	N	0.459825	0.393656	-0.393142
N389	N	0.793158	0.726990	-0.059808
N390	N	1.126492	1.060323	0.273525
H391	H	0.935143	0.578010	-0.340360
H392	H	1.268477	0.911344	-0.007027
H393	H	1.601810	1.244677	0.326307
C394	C	1.156695	0.182741	-0.843971
C395	C	1.490028	0.516074	-0.510638
C396	C	1.823361	0.849407	-0.177305
N397	N	1.194037	0.156149	-0.867699
N398	N	1.527370	0.489482	-0.534366
N399	N	1.860703	0.822815	-0.201032
H400	H	1.098738	0.986113	-0.224038
H401	H	1.432071	1.319446	0.109295
H402	H	1.765404	1.652780	0.442628
H403	H	1.098815	0.223943	-1.085627
H404	H	1.432148	0.557276	-0.752293
H405	H	1.765482	0.890609	-0.418960
H406	H	0.935101	0.478943	-0.340343
H407	H	1.268435	0.812276	-0.007010
H408	H	1.601768	1.145610	0.326324
H409	H	1.098772	1.085180	-0.224052
H410	H	1.432105	1.418513	0.109282
H411	H	1.765438	1.751846	0.442615
H412	H	0.935296	0.981302	-0.340393
H413	H	1.268630	1.314635	-0.007060
H414	H	1.601963	1.647969	0.326274
H415	H	0.935361	0.340383	-1.080717
H416	H	1.268695	0.673717	-0.747384
H417	H	1.602028	1.007050	-0.414050
H418	H	0.890183	0.728789	-0.372449
H419	H	1.223516	1.062122	-0.039116
H420	H	1.556849	1.395456	0.294218
H421	H	1.098712	0.224096	-0.484212
H422	H	1.432045	0.557430	-0.150878
H423	H	1.765379	0.890763	0.182455
