data_functionalizedCrystal
_audit_creation_method	'MofGen! by Chris Wilmer'
_symmetry_space_group_name_H-M	'P1'
_symmetry_Int_Tables_number	1
_symmetry_cell_setting	triclinic
loop_
_symmetry_equiv_pos_as_xyz
  x,y,z
_cell_length_a	15.944551
_cell_length_b	16.098538
_cell_length_c	15.944493
_cell_angle_alpha	87.271722
_cell_angle_beta	83.486891
_cell_angle_gamma	92.734390
loop_
_atom_site_label
_atom_site_type_symbol
_atom_site_fract_x
_atom_site_fract_y
_atom_site_fract_z
O1	O	1.118258	0.069158	0.104587
O2	O	1.618258	0.569158	0.604587
O3	O	0.873707	0.069178	0.117942
O4	O	1.373707	0.569178	0.617942
O5	O	1.002686	0.069175	-0.011014
O6	O	1.502686	0.569175	0.488986
O7	O	0.989278	0.069162	0.233543
O8	O	1.489278	0.569162	0.733543
O9	O	0.995152	-0.069338	-0.003511
O10	O	1.495152	0.430662	0.496489
O11	O	0.866172	-0.069335	0.125446
O12	O	1.366172	0.430665	0.625446
O13	O	1.110724	-0.069354	0.112090
O14	O	1.610724	0.430646	0.612090
Zn15	Zn	0.987252	-0.091336	0.119959
Zn16	Zn	1.487252	0.408664	0.619959
Zn17	Zn	0.997178	0.091160	0.110073
Zn18	Zn	1.497178	0.591160	0.610073
O19	O	0.981744	-0.069351	0.241046
O20	O	1.481744	0.430649	0.741046
C21	C	0.838646	-0.000076	0.121139
C22	C	1.338646	0.499924	0.621139
C23	C	0.745400	-0.000068	0.119476
C24	C	1.245400	0.499932	0.619476
N25	N	0.980483	-0.215885	0.126706
N26	N	1.480483	0.284115	0.626706
C27	C	0.530560	-0.000080	0.035570
C28	C	1.030560	0.499920	0.535570
C29	C	0.473247	0.068212	0.070834
C30	C	0.973247	0.568212	0.570834
C31	C	0.574675	-0.000078	0.116470
C32	C	1.074675	0.499922	0.616470
C33	C	0.465841	-0.068350	0.078251
C34	C	0.965841	0.431650	0.578251
C35	C	0.409762	-0.000091	0.113559
C36	C	0.909762	0.499909	0.613559
C37	C	0.518592	0.068271	0.151753
C38	C	1.018592	0.568271	0.651753
C39	C	0.511189	-0.068353	0.159162
C40	C	1.011189	0.431647	0.659162
C41	C	0.453894	-0.000044	0.194484
C42	C	0.953894	0.499956	0.694484
C43	C	0.669677	-0.000069	0.118144
C44	C	1.169677	0.499931	0.618144
C45	C	0.314761	-0.000093	0.111891
C46	C	0.814761	0.499907	0.611891
C47	C	1.035247	-0.259472	0.071991
C48	C	1.535247	0.240528	0.571991
C49	C	1.030520	-0.346661	0.076718
C50	C	1.530520	0.153339	0.576718
C51	C	0.971032	-0.390262	0.136165
C52	C	1.471032	0.109738	0.636165
C53	C	0.916262	-0.346669	0.190882
C54	C	1.416262	0.153331	0.690882
C55	C	0.920986	-0.259482	0.186150
C56	C	1.420986	0.240518	0.686150
C57	C	0.953908	-0.653511	0.153305
C58	C	1.453908	-0.153511	0.653305
C59	C	0.949190	-0.740705	0.158035
C60	C	1.449190	-0.240705	0.658035
C61	C	1.063447	-0.740690	0.043869
C62	C	1.563447	-0.240690	0.543869
C63	C	1.068169	-0.653501	0.039145
C64	C	1.568169	-0.153501	0.539145
C65	C	1.013396	-0.609916	0.093860
C66	C	1.513396	-0.109916	0.593860
C67	C	0.966200	-0.479383	0.141001
C68	C	1.466200	0.020617	0.641001
C69	C	1.018224	-0.520797	0.089020
C70	C	1.518224	-0.020797	0.589020
C71	C	1.145785	-0.000099	0.108893
C72	C	1.645785	0.499901	0.608893
C73	C	1.239030	-0.000101	0.110555
C74	C	1.739030	0.499899	0.610555
C75	C	0.998371	-0.000078	-0.038557
C76	C	1.498371	0.499922	0.461443
C77	C	0.996729	-0.000068	-0.131807
C78	C	1.496729	0.499932	0.368193
N79	N	1.003954	0.215709	0.103320
N80	N	1.503954	0.715709	0.603320
C81	C	1.072648	-0.000089	-0.367565
C82	C	1.572648	0.499911	0.132435
C83	C	1.035422	0.068207	-0.421833
C84	C	1.535422	0.568207	0.078167
C85	C	0.993684	-0.000077	-0.302527
C86	C	1.493684	0.499923	0.197473
C87	C	1.027975	-0.068355	-0.414411
C88	C	1.527975	0.431645	0.085589
C89	C	0.990749	-0.000091	-0.467436
C90	C	1.490749	0.499909	0.032564
C91	C	0.956483	0.068276	-0.355570
C92	C	1.456483	0.568276	0.144430
C93	C	0.949044	-0.068348	-0.348141
C94	C	1.449044	0.431652	0.151859
C95	C	0.911761	-0.000035	-0.402377
C96	C	1.411761	0.499965	0.097623
C97	C	0.995378	-0.000069	-0.207528
C98	C	1.495378	0.499931	0.292472
C99	C	0.989050	-0.000093	-0.562433
C100	C	1.489050	0.499907	-0.062433
C101	C	0.986059	-0.000096	0.268589
C102	C	1.486059	0.499904	0.768589
C103	C	0.987702	-0.000102	0.361838
C104	C	1.487702	0.499898	0.861838
H105	H	0.563912	0.000008	-0.031574
H106	H	1.063912	0.500008	0.468426
Br107	Br	0.906174	0.164618	-0.312761
Br108	Br	1.406174	0.664618	0.187239
Br109	Br	1.115991	-0.200309	-0.008685
Br110	Br	1.615991	0.299691	0.491315
H111	H	0.456285	0.125952	0.033489
H112	H	0.956285	0.625952	0.533489
H113	H	0.528173	-0.126096	0.196478
H114	H	1.028173	0.373904	0.696478
H115	H	0.909311	-0.618031	0.197857
H116	H	1.409311	-0.118031	0.697857
Br117	Br	0.888293	-0.164583	-0.294634
Br118	Br	1.388293	0.335417	0.205366
Br119	Br	1.096235	0.164437	-0.475293
Br120	Br	1.596235	0.664437	0.024707
Br121	Br	1.078347	-0.164586	-0.457419
Br122	Br	1.578347	0.335414	0.042581
Br123	Br	0.557128	0.164606	0.203524
Br124	Br	1.057128	0.664606	0.703524
H125	H	0.843693	0.000008	-0.417845
H126	H	1.343693	0.500008	0.082155
Br127	Br	0.398603	0.000008	0.306498
Br128	Br	0.898603	0.500008	0.806498
H129	H	0.442622	-0.126084	0.047147
H130	H	0.942622	0.373916	0.547147
Br131	Br	1.104840	-0.405817	0.002459
Br132	Br	1.604840	0.094183	0.502459
H133	H	1.116609	-0.618003	-0.009261
H134	H	1.616609	-0.118003	0.490739
Br135	Br	0.868452	-0.799872	0.238724
Br136	Br	1.368452	-0.299872	0.738724
Br137	Br	1.137776	-0.799844	-0.030384
Br138	Br	1.637776	-0.299844	0.469616
Br139	Br	0.846654	-0.200329	0.260404
Br140	Br	1.346654	0.299671	0.760404
Br141	Br	0.835520	-0.405838	0.271556
Br142	Br	1.335520	0.094162	0.771556
Br143	Br	0.885467	-0.538558	0.221678
Br144	Br	1.385467	-0.038558	0.721678
H145	H	1.066656	-0.485295	0.040615
H146	H	1.566656	0.014705	0.540615
H147	H	1.140669	-0.000026	-0.351940
H148	H	1.640669	0.499974	0.148060
