data_functionalizedCrystal
_audit_creation_method	'MofGen! by Chris Wilmer'
_symmetry_space_group_name_H-M	'P1'
_symmetry_Int_Tables_number	1
_symmetry_cell_setting	triclinic
loop_
_symmetry_equiv_pos_as_xyz
  x,y,z
_cell_length_a	12.759400
_cell_length_b	21.395364
_cell_length_c	21.395356
_cell_angle_alpha	90.016383
_cell_angle_beta	90.018311
_cell_angle_gamma	90.029235
loop_
_atom_site_label
_atom_site_type_symbol
_atom_site_fract_x
_atom_site_fract_y
_atom_site_fract_z
Zn1	Zn	-0.417895	0.957880	0.354293
Zn2	Zn	0.082105	1.457880	0.854293
Zn3	Zn	-0.593582	0.957828	0.249529
Zn4	Zn	-0.093582	1.457828	0.749529
Zn5	Zn	-0.417963	0.853110	0.249530
Zn6	Zn	0.082037	1.353110	0.749530
Zn7	Zn	-0.593579	0.853094	0.354269
Zn8	Zn	-0.093579	1.353094	0.854269
O9	O	-0.505755	0.905478	0.301905
O10	O	-0.005755	1.405478	0.801905
O11	O	-0.441173	1.045551	0.340406
O12	O	0.058827	1.545551	0.840406
O13	O	-0.570315	0.943921	0.161851
O14	O	-0.070315	1.443921	0.661851
O15	O	-0.270933	0.867037	0.263437
O16	O	0.229067	1.367037	0.763437
O17	O	-0.570249	1.045512	0.263436
O18	O	-0.070249	1.545512	0.763436
O19	O	-0.270883	0.944011	0.340407
O20	O	0.229117	1.444011	0.840407
O21	O	-0.441289	0.866986	0.161852
O22	O	0.058711	1.366986	0.661852
O23	O	-0.441286	0.765430	0.263414
O24	O	0.058714	1.265430	0.763414
O25	O	-0.570244	0.867010	0.441950
O26	O	-0.070244	1.367010	0.941950
O27	O	-0.570310	0.765419	0.340366
O28	O	-0.070310	1.265419	0.840366
O29	O	-0.441170	0.943996	0.441968
O30	O	0.058830	1.443996	0.941968
O31	O	-0.740602	0.943906	0.263413
O32	O	-0.240602	1.443906	0.763413
O33	O	-0.740600	0.866959	0.340365
O34	O	-0.240600	1.366959	0.840365
C35	C	-0.505806	0.742690	0.301888
C36	C	-0.005806	1.242690	0.801888
C37	C	-0.505853	0.673049	0.301895
C38	C	-0.005853	1.173049	0.801895
C39	C	-0.438753	0.640379	0.342035
C40	C	0.061247	1.140379	0.842035
C41	C	-0.438725	0.574943	0.342038
C42	C	0.061275	1.074943	0.842038
C43	C	-0.505816	0.542181	0.301907
C44	C	-0.005816	1.042181	0.801907
C45	C	-0.572920	0.574859	0.261759
C46	C	-0.072920	1.074859	0.761759
C47	C	-0.572939	0.640294	0.261753
C48	C	-0.072939	1.140294	0.761753
C49	C	-0.600431	0.438473	0.296876
C50	C	-0.100431	0.938473	0.796876
C51	C	-0.600415	0.373040	0.296886
C52	C	-0.100415	0.873040	0.796886
C53	C	-0.505758	0.340360	0.301921
C54	C	-0.005758	0.840360	0.801921
C55	C	-0.411115	0.373121	0.306958
C56	C	0.088885	0.873121	0.806958
C57	C	-0.411134	0.438555	0.306952
C58	C	0.088866	0.938555	0.806952
C59	C	-0.505803	0.471229	0.301908
C60	C	-0.005803	0.971229	0.801908
C61	C	-0.438622	0.236737	0.342065
C62	C	0.061378	0.736737	0.842065
C63	C	-0.438592	0.171300	0.342063
C64	C	0.061408	0.671300	0.842063
C65	C	-0.572797	0.171218	0.261788
C66	C	-0.072797	0.671218	0.761788
C67	C	-0.572817	0.236653	0.261786
C68	C	-0.072817	0.736653	0.761786
C69	C	-0.505731	0.269409	0.301929
C70	C	-0.005731	0.769409	0.801929
C71	C	-0.778722	0.905442	0.301900
C72	C	-0.278722	1.405442	0.801900
C73	C	-0.895499	0.905484	0.301918
C74	C	-0.395499	1.405484	0.801918
C75	C	-0.950398	0.865409	0.341956
C76	C	-0.450398	1.365409	0.841956
C77	C	-1.060122	0.865442	0.341962
C78	C	-0.560122	1.365442	0.841962
C79	C	-1.060038	0.945631	0.261891
C80	C	-0.560038	1.445631	0.761891
C81	C	-0.950316	0.945594	0.261883
C82	C	-0.450316	1.445594	0.761883
C83	C	-0.950447	0.819115	0.388186
C84	C	-0.450447	1.319115	0.888186
C85	C	-1.060171	0.819148	0.388192
C86	C	-0.560171	1.319148	0.888192
C87	C	-0.231721	0.905531	0.301925
C88	C	0.268279	1.405531	0.801925
C89	C	-0.114945	0.905554	0.301933
C90	C	0.385055	1.405554	0.801933
C91	C	-0.505699	0.905507	0.465329
C92	C	-0.005699	1.405507	0.965329
C93	C	-0.505676	0.905519	0.534970
C94	C	-0.005676	1.405519	1.034970
C95	C	-0.505704	1.068901	0.301923
C96	C	-0.005704	1.568901	0.801923
C97	C	-0.505682	1.138543	0.301931
C98	C	-0.005682	1.638543	0.801931
C99	C	-0.505734	0.905486	0.139118
C100	C	-0.005734	1.405486	0.639118
C101	C	-0.505461	0.905595	0.069477
C102	C	-0.005461	1.405595	0.569477
C103	C	-0.572639	0.945650	1.036767
C104	C	-0.072639	1.445650	1.536767
C105	C	-0.572673	0.945638	0.971331
C106	C	-0.072673	1.445638	1.471331
C107	C	-0.505509	0.905579	0.938609
C108	C	-0.005509	1.405579	1.438609
C109	C	-0.438326	0.865516	0.971327
C110	C	0.061674	1.365516	1.471327
C111	C	-0.438302	0.865524	1.036761
C112	C	0.061698	1.365524	1.536761
C113	C	-0.410893	0.900637	0.834946
C114	C	0.089107	1.400637	1.334946
C115	C	-0.410915	0.900633	0.769513
C116	C	0.089085	1.400633	1.269513
C117	C	-0.505584	0.905551	0.736788
C118	C	-0.005584	1.405551	1.236788
C119	C	-0.600233	0.910484	0.769503
C120	C	-0.100233	1.410484	1.269503
C121	C	-0.600209	0.910492	0.834938
C122	C	-0.100209	1.410492	1.334938
C123	C	-0.505528	0.905565	0.867656
C124	C	-0.005528	1.405565	1.367656
C125	C	-0.572804	0.945596	0.633125
C126	C	-0.072804	1.445596	1.133125
C127	C	-0.572839	0.945580	0.567688
C128	C	-0.072839	1.445580	1.067688
C129	C	-0.438483	0.865461	0.567685
C130	C	0.061517	1.365461	1.067685
C131	C	-0.438457	0.865473	0.633120
C132	C	0.061543	1.365473	1.133120
C133	C	-0.505616	0.905544	0.665836
C134	C	-0.005616	1.405544	1.165836
H135	H	-0.627462	0.263254	0.229102
H136	H	-0.127462	0.763254	0.729102
Br137	Br	-0.893603	0.848022	0.465032
Br138	Br	-0.393603	1.348022	0.965032
H139	H	-0.677479	0.346372	0.292788
H140	H	-0.177479	0.846372	0.792788
H141	H	-0.920768	0.770586	0.375145
H142	H	-0.420768	1.270586	0.875145
H143	H	-0.677518	0.465076	0.292776
H144	H	-0.177518	0.965076	0.792776
H145	H	-0.383643	0.832898	0.944680
H146	H	0.116357	1.332898	1.444680
H147	H	-0.384079	0.548337	0.374724
H148	H	0.115921	1.048337	0.874724
Br149	Br	-0.347363	0.811073	0.523283
Br150	Br	0.152637	1.311073	1.023283
Br151	Br	-0.728655	0.917184	0.879336
Br152	Br	-0.228655	1.417184	1.379336
Br153	Br	-0.663965	0.530398	0.207290
Br154	Br	-0.163965	1.030398	0.707290
Br155	Br	-0.728722	0.917163	0.725099
Br156	Br	-0.228722	1.417163	1.225099
Br157	Br	-0.347134	0.811154	1.081157
Br158	Br	0.152866	1.311154	1.581157
H159	H	-0.905618	0.978220	0.229275
H160	H	-0.405618	1.478220	0.729275
H161	H	-1.089891	0.832090	0.436741
H162	H	-0.589891	1.332090	0.936741
Br163	Br	-0.347301	0.811098	0.677516
Br164	Br	0.152699	1.311098	1.177516
Br165	Br	-0.663944	0.999976	0.677529
Br166	Br	-0.163944	1.499976	1.177529
H167	H	-0.627581	0.666894	0.229065
H168	H	-0.127581	1.166894	0.729065
H169	H	-0.627553	0.978194	0.541057
H170	H	-0.127553	1.478194	1.041057
Br171	Br	-0.282352	0.894310	0.879352
Br172	Br	0.217648	1.394310	1.379352
H173	H	-1.104683	0.978287	0.229295
H174	H	-0.604683	1.478287	0.729295
Br175	Br	-0.663794	1.000025	1.081164
Br176	Br	-0.163794	1.500025	1.581164
H177	H	-0.384125	0.667044	0.374722
H178	H	0.115875	1.167044	0.874722
H179	H	-0.334072	0.465226	0.311052
H180	H	0.165928	0.965226	0.811052
H181	H	-1.094296	0.773073	0.370771
H182	H	-0.594296	1.273073	0.870771
Br183	Br	-0.282464	0.893946	0.725120
Br184	Br	0.217536	1.393946	1.225120
Br185	Br	-0.282643	0.328778	0.313792
Br186	Br	0.217357	0.828778	0.813792
Br187	Br	-0.347573	0.281195	0.396539
Br188	Br	0.152427	0.781195	0.896539
Br189	Br	-0.663839	0.126762	0.207316
Br190	Br	-0.163839	0.626762	0.707316
Br191	Br	-0.347512	0.126960	0.396540
Br192	Br	0.152488	0.626960	0.896540
Br193	Br	-0.663853	1.000001	0.926929
Br194	Br	-0.163853	1.500001	1.426929
