data_functionalizedCrystal
_audit_creation_method	'MofGen! by Chris Wilmer'
_symmetry_space_group_name_H-M	'P1'
_symmetry_Int_Tables_number	1
_symmetry_cell_setting	triclinic
loop_
_symmetry_equiv_pos_as_xyz
  x,y,z
_cell_length_a	14.044191
_cell_length_b	10.540539
_cell_length_c	12.503572
_cell_angle_alpha	93.560877
_cell_angle_beta	86.162165
_cell_angle_gamma	88.858634
loop_
_atom_site_label
_atom_site_type_symbol
_atom_site_fract_x
_atom_site_fract_y
_atom_site_fract_z
O1	O	1.265199	0.299579	-0.089259
O2	O	0.989155	0.288517	-0.089273
O3	O	1.133475	0.109979	-0.089264
O4	O	1.120879	0.478118	-0.089267
O5	O	1.122621	0.123430	0.089377
O6	O	0.978301	0.301969	0.089368
O7	O	1.254345	0.313030	0.089382
Cu8	Cu	1.115332	0.308728	0.105687
Cu9	Cu	1.128168	0.292820	-0.105577
O10	O	1.110026	0.491569	0.089374
C11	C	0.948381	0.290404	0.000046
C12	C	0.843058	0.275970	0.000041
C13	C	0.593285	0.351949	0.000051
C14	C	0.650221	0.249604	0.000050
C15	C	0.757525	0.264278	0.000045
C16	C	0.485971	0.337277	0.000056
C17	C	1.127103	0.069306	0.000054
C18	C	1.124278	-0.071929	0.000049
C19	C	1.016013	-0.266338	-0.000358
C20	C	1.018853	-0.119399	0.000044
C21	C	1.168815	-0.120774	0.102064
C22	C	1.165211	-0.267676	0.102150
C23	C	1.179698	-0.283274	-0.100999
C24	C	1.180751	-0.136295	-0.102347
C25	C	1.295119	0.311144	0.000061
C26	C	1.400443	0.325577	0.000060
C27	C	1.116397	0.532242	0.000053
C28	C	1.119223	0.673476	0.000052
N29	N	1.106311	0.319917	0.254279
N30	N	1.137196	0.281622	-0.254169
C31	C	1.093041	0.336386	0.473393
C32	C	1.150463	0.265156	0.526724
C33	C	1.143080	0.274320	0.648646
C34	C	1.100424	0.327224	0.351459
H35	H	0.618383	0.150958	-0.000025
O36	O	1.215532	0.184051	0.471797
C37	C	1.281999	0.100411	0.298430
C38	C	1.208399	0.192492	0.360505
H39	H	1.276243	0.107184	0.208439
H40	H	1.356942	0.126742	0.320220
H41	H	1.267252	-0.000941	0.320687
H42	H	1.223057	0.293874	0.338281
H43	H	1.133480	0.166051	0.338709
H44	H	0.625127	0.450581	0.000046
H45	H	0.970117	-0.295262	0.072385
H46	H	0.978812	-0.304658	-0.073515
O47	O	0.976453	-0.080160	-0.087219
C48	C	0.896831	-0.142040	-0.246469
C49	C	0.944813	-0.186642	-0.147676
H50	H	0.871254	-0.228108	-0.295388
H51	H	0.833286	-0.076282	-0.218980
H52	H	0.950498	-0.088702	-0.298219
H53	H	0.891218	-0.240034	-0.095883
H54	H	1.008373	-0.252337	-0.175239
O55	O	1.027701	0.417373	0.527986
C56	C	0.901829	0.573639	0.516446
C57	C	0.975765	0.481954	0.454470
H58	H	0.859832	0.625897	0.457035
H59	H	0.850791	0.517453	0.569073
H60	H	0.940181	0.645511	0.569124
H61	H	0.937494	0.410062	0.401733
H62	H	1.026799	0.538224	0.401911
H63	H	0.974202	-0.076194	0.073291
O64	O	1.114887	-0.298780	0.193145
C65	C	1.027303	-0.222323	0.357593
C66	C	1.084260	-0.186928	0.254574
H67	H	1.002542	-0.131912	0.407298
H68	H	0.962537	-0.279217	0.335288
H69	H	1.074727	-0.282060	0.406498
H70	H	1.036914	-0.127149	0.205621
H71	H	1.149034	-0.130097	0.276954
H72	H	1.240750	-0.307628	0.106782
H73	H	1.246005	-0.090304	0.105861
H74	H	1.128959	-0.076022	0.177977
H75	H	1.148214	-0.104874	-0.177816
H76	H	1.150275	-0.324100	-0.178320
H77	H	1.255887	-0.322850	-0.101681
O78	O	1.272833	-0.098431	-0.109641
C79	C	1.379066	0.077305	-0.124329
C80	C	1.274741	0.034581	-0.116071
H81	H	1.380643	0.184845	-0.129552
H82	H	1.415851	0.049803	-0.050275
H83	H	1.417943	0.028870	-0.199357
H84	H	1.235784	0.082994	-0.041088
H85	H	1.238029	0.062061	-0.190177
