data_functionalizedCrystal
_audit_creation_method	'MofGen! by Chris Wilmer'
_symmetry_space_group_name_H-M	'P1'
_symmetry_Int_Tables_number	1
_symmetry_cell_setting	triclinic
loop_
_symmetry_equiv_pos_as_xyz
  x,y,z
_cell_length_a	14.971486
_cell_length_b	14.971486
_cell_length_c	13.448316
_cell_angle_alpha	89.999879
_cell_angle_beta	90.003864
_cell_angle_gamma	96.385871
loop_
_atom_site_label
_atom_site_type_symbol
_atom_site_fract_x
_atom_site_fract_y
_atom_site_fract_z
O1	O	0.116561	-1.186946	0.082578
O2	O	0.130520	-0.926545	0.082605
O3	O	-0.006660	-1.063725	0.082584
O4	O	0.253741	-1.049766	0.082599
O5	O	-0.006661	-1.063711	-0.082800
O6	O	0.130519	-0.926532	-0.082779
O7	O	0.116560	-1.186932	-0.082806
Cu8	Cu	0.123539	-1.056731	-0.097893
Cu9	Cu	0.123541	-1.056747	0.097692
O10	O	0.253739	-1.049752	-0.082784
C11	C	-0.039985	-1.063094	-0.000108
C12	C	-0.139282	-1.061223	-0.000107
C13	C	0.129895	-0.893214	-0.000083
C14	C	0.128024	-0.793917	-0.000073
C15	C	0.117185	-1.220263	-0.000115
C16	C	0.119056	-1.319561	-0.000119
C17	C	-0.196507	-1.141812	-0.000116
C18	C	-0.289807	-1.140049	-0.000106
C19	C	-0.325879	-1.057696	-0.000093
C20	C	-0.268646	-0.977101	-0.000081
C21	C	-0.175349	-0.978865	-0.000084
C22	C	-0.463109	-0.973430	-0.000077
C23	C	-0.556413	-0.971665	-0.000076
C24	C	-0.577567	-1.134614	-0.000099
C25	C	-0.484269	-1.136378	-0.000102
C26	C	-0.427043	-1.055782	-0.000091
C27	C	0.287065	-1.050384	-0.000091
C28	C	0.386362	-1.052254	-0.000085
N29	N	0.123538	-1.056726	-0.235457
C30	C	0.208614	-0.736692	-0.000070
C31	C	0.206850	-0.643392	-0.000085
C32	C	0.124497	-0.607320	-0.000096
C33	C	0.043902	-0.664552	-0.000102
C34	C	0.045666	-0.757850	-0.000095
C35	C	0.040231	-0.470090	-0.000116
C36	C	0.038466	-0.376786	-0.000122
C37	C	0.201415	-0.355632	-0.000106
C38	C	0.203179	-0.448930	-0.000099
C39	C	0.122584	-0.506156	-0.000103
C40	C	0.177879	-1.111028	-0.287496
C41	C	0.177875	-1.111039	-0.391599
C42	C	0.123534	-1.056743	-0.443662
C43	C	0.069187	-1.002438	-0.391616
C44	C	0.069186	-1.002432	-0.287515
C45	C	0.069193	-1.002452	-0.608596
C46	C	0.069194	-1.002456	-0.712705
C47	C	0.177881	-1.111059	-0.712681
C48	C	0.177881	-1.111053	-0.608579
C49	C	0.123535	-1.056747	-0.556541
N50	N	0.123535	-1.056759	0.235257
H51	H	-0.167145	-1.208874	-0.000132
Br52	Br	0.251627	-1.184739	-0.462220
Br53	Br	-0.063710	-0.835515	-0.000108
Br54	Br	-0.067865	-0.615598	-0.000128
Br55	Br	0.251655	-1.184717	-0.537923
H56	H	-0.128756	-0.913240	-0.000077
Br57	Br	0.310796	-0.277969	-0.000099
H58	H	-0.025399	-0.516682	-0.000121
H59	H	-0.028593	-0.347419	-0.000133
Br60	Br	-0.385445	-0.864048	-0.000060
Br61	Br	-0.004581	-0.928768	-0.537973
Br62	Br	0.251635	-1.184717	-0.216849
Br63	Br	-0.004566	-0.928752	-0.462272
Br64	Br	-0.004578	-0.928746	-0.216889
H65	H	0.275675	-0.766054	-0.000060
Br66	Br	0.251636	-1.184762	-0.783303
H67	H	-0.336396	-1.205673	-0.000115
Br68	Br	-0.004559	-0.928771	-0.783362
H69	H	0.272474	-0.596802	-0.000081
H70	H	-0.298024	-0.910047	-0.000065
H71	H	-0.454903	-1.203437	-0.000119
H72	H	-0.624165	-1.200238	-0.000104
Br73	Br	-0.605368	-0.859899	-0.000064
Br74	Br	0.314946	-0.497885	-0.000068
