data_functionalizedCrystal
_audit_creation_method	'MofGen! by Chris Wilmer'
_symmetry_space_group_name_H-M	'P1'
_symmetry_Int_Tables_number	1
_symmetry_cell_setting	triclinic
loop_
_symmetry_equiv_pos_as_xyz
  x,y,z
_cell_length_a	11.792254
_cell_length_b	11.792241
_cell_length_c	14.750158
_cell_angle_alpha	104.140775
_cell_angle_beta	104.098478
_cell_angle_gamma	84.196007
loop_
_atom_site_label
_atom_site_type_symbol
_atom_site_fract_x
_atom_site_fract_y
_atom_site_fract_z
O1	O	1.484811	0.133467	-0.079831
O2	O	1.154471	0.149484	-0.079833
O3	O	1.327659	-0.023693	-0.079825
O4	O	1.311623	0.306644	-0.079839
O5	O	1.371823	0.020641	0.079838
O6	O	1.198635	0.193818	0.079830
O7	O	1.528974	0.177801	0.079832
Zn8	Zn	1.370816	0.192848	0.105181
Zn9	Zn	1.312629	0.134437	-0.105182
O10	O	1.355786	0.350977	0.079824
C11	C	1.134262	0.170642	-0.000002
C12	C	1.008249	0.167622	-0.000003
C13	C	0.905911	0.165167	-0.000007
C14	C	0.777525	0.162098	-0.000007
C15	C	1.348734	-0.043817	0.000006
C16	C	1.345719	-0.169831	0.000005
C17	C	1.340172	-0.400548	-0.000011
C18	C	1.343254	-0.272160	-0.000002
C19	C	1.549183	0.156642	-0.000001
C20	C	1.675194	0.159661	-0.000007
C21	C	1.334711	0.371101	-0.000009
C22	C	1.337724	0.497113	-0.000015
N23	N	1.272919	0.094564	-0.248749
C24	C	1.521295	0.344065	-0.600497
C25	C	1.493517	0.316116	-0.701004
C26	C	1.355304	0.177220	-0.701006
C27	C	1.383074	0.205154	-0.600497
C28	C	1.466069	0.288578	-0.550250
C29	C	1.327848	0.149667	-0.550250
C30	C	1.355612	0.177603	-0.449750
C31	C	1.438602	0.261026	-0.399496
C32	C	1.493833	0.316514	-0.449750
C33	C	1.244847	0.066249	-0.600498
C34	C	1.189621	0.010761	-0.550251
C35	C	1.217391	0.038691	-0.449749
C36	C	1.300381	0.122115	-0.399496
C37	C	1.162159	-0.016797	-0.399496
C38	C	1.189923	0.011140	-0.298995
C39	C	1.328144	0.150051	-0.298996
N40	N	1.410536	0.232712	0.248748
H41	H	1.395735	0.217976	-0.258082
N42	N	1.133535	-0.045560	-0.247666
N43	N	1.193037	-0.104637	-0.191560
H44	H	1.153210	-0.144682	-0.155309
H45	H	1.561423	0.384440	-0.408836
N46	N	1.466949	0.289589	-0.296837
N47	N	1.389064	0.330227	-0.252008
H48	H	1.409083	0.350403	-0.179505
N49	N	1.606074	0.429287	-0.549175
N50	N	1.589836	0.531841	-0.560422
H51	H	1.649708	0.592027	-0.524175
N52	N	1.549972	0.372764	-0.752329
N53	N	1.658771	0.363188	-0.741073
H54	H	1.698647	0.403183	-0.777326
N55	N	1.270525	0.092018	-0.752350
N56	N	1.245740	0.067087	-0.842081
H57	H	1.185864	0.006910	-0.878343
H58	H	1.222237	0.043513	-0.682332
H59	H	1.122043	-0.057160	-0.591176
H60	H	1.094576	-0.084713	-0.440421
