data_functionalizedCrystal
_audit_creation_method	'MofGen! by Chris Wilmer'
_symmetry_space_group_name_H-M	'P1'
_symmetry_Int_Tables_number	1
_symmetry_cell_setting	triclinic
loop_
_symmetry_equiv_pos_as_xyz
  x,y,z
_cell_length_a	16.625548
_cell_length_b	13.897448
_cell_length_c	16.625548
_cell_angle_alpha	89.991335
_cell_angle_beta	90.004750
_cell_angle_gamma	89.981240
loop_
_atom_site_label
_atom_site_type_symbol
_atom_site_fract_x
_atom_site_fract_y
_atom_site_fract_z
Zn1	Zn	1.232581	0.384165	0.455913
Zn2	Zn	1.565915	0.717499	0.789247
Zn3	Zn	1.899248	1.050832	1.122580
Zn4	Zn	1.232533	0.545425	0.321082
Zn5	Zn	1.565866	0.878759	0.654416
Zn6	Zn	1.899200	1.212092	0.987749
Zn7	Zn	1.097780	0.384149	0.321094
Zn8	Zn	1.431114	0.717482	0.654427
Zn9	Zn	1.764447	1.050816	0.987761
Zn10	Zn	1.097725	0.545423	0.455872
Zn11	Zn	1.431058	0.878757	0.789205
Zn12	Zn	1.764391	1.212090	1.122539
O13	O	1.165155	0.464791	0.388490
O14	O	1.498488	0.798124	0.721824
O15	O	1.831822	1.131457	1.055157
O16	O	1.345407	0.405565	0.438040
O17	O	1.678741	0.738898	0.771373
O18	O	2.012074	1.072231	1.104707
O19	O	1.214661	0.524026	0.208252
O20	O	1.547994	0.857359	0.541585
O21	O	1.881327	1.190692	0.874918
O22	O	1.115705	0.249170	0.339000
O23	O	1.449039	0.582503	0.672333
O24	O	1.782372	0.915836	1.005667
O25	O	1.345372	0.524042	0.338980
O26	O	1.678705	0.857375	0.672314
O27	O	2.012038	1.190708	1.005647
O28	O	1.214743	0.249182	0.438051
O29	O	1.548076	0.582515	0.771385
O30	O	1.881410	0.915848	1.104718
O31	O	1.115659	0.405537	0.208260
O32	O	1.448992	0.738870	0.541593
O33	O	1.782325	1.072203	0.874927
O34	O	0.984941	0.405535	0.338960
O35	O	1.318274	0.738868	0.672293
O36	O	1.651607	1.072201	1.005627
O37	O	1.115611	0.524038	0.568710
O38	O	1.448944	0.857371	0.902043
O39	O	1.782277	1.190705	1.235377
O40	O	0.984900	0.524022	0.437981
O41	O	1.318233	0.857355	0.771314
O42	O	1.651566	1.190689	1.104648
O43	O	1.214689	0.405563	0.568740
O44	O	1.548023	0.738896	0.902074
O45	O	1.881356	1.072229	1.235407
O46	O	1.214607	0.680407	0.338940
O47	O	1.547940	1.013740	0.672274
O48	O	1.881274	1.347073	1.005607
O49	O	1.115564	0.680405	0.437970
O50	O	1.448897	1.013738	0.771303
O51	O	1.782231	1.347072	1.104637
C52	C	1.165096	0.715405	0.388467
C53	C	1.498429	1.048738	0.721800
C54	C	1.831763	1.382072	1.055134
C55	C	1.165145	0.822619	0.388484
C56	C	1.498478	1.155952	0.721817
C57	C	1.831811	1.489286	1.055151
C58	C	0.955664	0.464777	0.388468
C59	C	1.288997	0.798110	0.721801
C60	C	1.622331	1.131444	1.055135
C61	C	0.866043	0.464794	0.388477
C62	C	1.199376	0.798128	0.721811
C63	C	1.532710	1.131461	1.055144
C64	C	1.165149	0.464802	0.598799
C65	C	1.498483	0.798135	0.932133
C66	C	1.831816	1.131469	1.265466
C67	C	1.165147	0.464807	0.688420
C68	C	1.498480	0.798140	1.021754
C69	C	1.831813	1.131473	1.355087
C70	C	0.537867	0.464801	0.388512
C71	C	0.871201	0.798134	0.721845
C72	C	1.204534	1.131467	1.055179
C73	C	0.629176	0.464796	0.388500
C74	C	0.962509	0.798130	0.721833
C75	C	1.295842	1.131463	1.055166
C76	C	0.701952	0.464798	0.388494
C77	C	1.035286	0.798131	0.721827
C78	C	1.368619	1.131465	1.055161
C79	C	0.793266	0.464793	0.388483
C80	C	1.126600	0.798126	0.721816
C81	C	1.459933	1.131459	1.055150
C82	C	1.375464	0.464805	0.388514
C83	C	1.708797	0.798139	0.721847
C84	C	2.042130	1.131472	1.055180
C85	C	1.465085	0.464812	0.388523
C86	C	1.798418	0.798145	0.721857
C87	C	2.131751	1.131478	1.055190
C88	C	1.165236	0.213198	0.388532
C89	C	1.498569	0.546531	0.721865
C90	C	1.831903	0.879864	1.055198
C91	C	1.165270	0.105984	0.388549
C92	C	1.498604	0.439317	0.721882
C93	C	1.831937	0.772651	1.055216
C94	C	1.165229	1.018914	0.388535
C95	C	1.498563	1.352247	0.721868
C96	C	1.831896	1.685581	1.055201
C97	C	1.165180	0.909682	0.388509
C98	C	1.498513	1.243015	0.721842
C99	C	1.831847	1.576348	1.055176
C100	C	1.165144	0.464811	0.761203
C101	C	1.498478	0.798144	1.094536
C102	C	1.831811	1.131478	1.427870
C103	C	1.165143	0.464808	0.852511
C104	C	1.498477	0.798141	1.185845
C105	C	1.831810	1.131474	1.519178
C106	C	1.165147	0.464800	0.925288
C107	C	1.498480	0.798133	1.258621
C108	C	1.831813	1.131466	1.591954
C109	C	1.165147	0.464797	1.016602
C110	C	1.498481	0.798131	1.349935
C111	C	1.831814	1.131464	1.683269
C112	C	1.165153	0.464799	1.179000
C113	C	1.498486	0.798133	1.512333
C114	C	1.831820	1.131466	1.845666
C115	C	1.165151	0.464789	1.089378
C116	C	1.498484	0.798122	1.422712
C117	C	1.831817	1.131456	1.756045
