data_functionalizedCrystal
_audit_creation_method	'MofGen! by Chris Wilmer'
_symmetry_space_group_name_H-M	'P1'
_symmetry_Int_Tables_number	1
_symmetry_cell_setting	triclinic
loop_
_symmetry_equiv_pos_as_xyz
  x,y,z
_cell_length_a	19.077236
_cell_length_b	16.120444
_cell_length_c	19.076919
_cell_angle_alpha	95.047308
_cell_angle_beta	89.887323
_cell_angle_gamma	95.330924
loop_
_atom_site_label
_atom_site_type_symbol
_atom_site_fract_x
_atom_site_fract_y
_atom_site_fract_z
Zn1	Zn	1.044773	-0.303872	-0.452996
Zn2	Zn	1.043445	-0.438024	-0.340987
Zn3	Zn	0.932008	-0.303433	-0.330758
Zn4	Zn	0.920767	-0.449191	-0.454183
O5	O	0.985248	-0.373630	-0.394731
O6	O	1.143130	-0.317177	-0.441922
O7	O	1.032811	-0.415312	-0.241100
O8	O	0.952227	-0.186347	-0.342195
O9	O	1.142154	-0.415738	-0.359629
O10	O	1.035074	-0.186670	-0.432003
O11	O	0.950939	-0.316429	-0.233585
O12	O	0.831983	-0.327258	-0.343346
O13	O	0.933068	-0.434772	-0.552555
O14	O	0.823725	-0.434346	-0.434026
O15	O	1.024175	-0.328006	-0.551683
O16	O	1.021911	-0.556649	-0.360781
O17	O	0.931781	-0.564854	-0.443945
C18	C	0.802305	-0.381967	-0.387706
C19	C	0.724040	-0.385555	-0.384718
C20	C	0.687773	-0.336013	-0.426231
C21	C	0.614235	-0.339380	-0.423417
C22	C	0.576965	-0.392293	-0.379093
C23	C	0.613237	-0.441836	-0.337575
C24	C	0.686774	-0.438465	-0.340386
C25	C	0.356979	-0.407866	-0.366082
C26	C	0.283436	-0.411236	-0.363276
C27	C	0.284439	-0.308778	-0.449118
C28	C	0.357977	-0.305414	-0.451928
C29	C	0.394243	-0.354954	-0.410407
N30	N	0.501797	-0.395738	-0.376218
N31	N	0.469410	-0.351505	-0.413279
C32	C	0.975500	-0.591125	-0.403618
C33	C	0.971394	-0.684169	-0.407446
C34	C	1.006718	-0.891888	-0.375031
C35	C	0.963909	-0.854515	-0.414443
C36	C	0.968075	-0.759725	-0.410549
C37	C	1.002553	-0.986686	-0.378925
C38	C	1.168905	-0.365261	-0.401784
C39	C	1.247169	-0.361694	-0.404790
C40	C	0.977516	-0.382684	-0.578381
C41	C	0.974221	-0.386542	-0.656642
C42	C	0.995053	-0.155285	-0.385825
C43	C	0.999231	-0.062240	-0.382030
C44	C	1.020104	-0.332770	-0.692956
C45	C	1.017000	-0.336392	-0.766490
C46	C	0.968015	-0.393791	-0.803709
C47	C	0.922126	-0.447566	-0.767390
C48	C	0.925228	-0.443939	-0.693857
C49	C	0.953649	-0.410596	-1.023677
C50	C	0.950552	-0.414221	-1.097215
C51	C	1.045425	-0.303045	-1.096311
C52	C	1.048526	-0.299427	-1.022777
C53	C	1.002635	-0.353198	-0.986463
N54	N	0.964842	-0.397497	-0.878873
N55	N	1.005805	-0.349488	-0.911301
C56	C	0.992994	-0.364549	-0.211794
C57	C	0.996436	-0.360449	-0.133529
H58	H	0.388317	-0.262330	-0.488024
O59	O	0.874574	-0.503434	-0.803471
C60	C	0.886984	-0.585280	-0.789509
H61	H	0.916224	-0.583148	-0.737231
H62	H	0.920174	-0.613868	-0.833435
C63	C	0.780293	-0.641566	-0.849749
C64	C	0.816201	-0.638948	-0.785537
H65	H	0.736632	-0.674673	-0.847301
H66	H	0.771933	-0.586426	-0.859158
H67	H	0.807960	-0.665387	-0.886348
H68	H	0.788539	-0.615118	-0.748941
H69	H	0.824555	-0.694086	-0.776121
O70	O	1.061472	-0.284067	-0.801784
C71	C	1.022015	-0.233932	-0.840576
H72	H	0.967724	-0.230207	-0.816072
H73	H	1.016080	-0.262661	-0.897271
C74	C	1.126950	-0.149969	-0.869561
C75	C	1.060271	-0.145387	-0.839461
H76	H	1.150549	-0.095351	-0.868877
H77	H	1.153534	-0.183747	-0.843429
H78	H	1.121995	-0.173913	-0.916805
H79	H	1.065227	-0.121453	-0.792217
H80	H	1.033688	-0.111602	-0.865586
O81	O	1.054071	-0.845102	-0.331206
C82	C	1.018100	-0.794173	-0.282143
H83	H	0.961693	-0.822973	-0.276693
H84	H	1.017589	-0.729134	-0.301153
C85	C	1.124976	-0.752124	-0.216928
C86	C	1.055697	-0.787500	-0.210229
H87	H	1.148169	-0.748003	-0.172569
H88	H	1.149211	-0.786433	-0.249984
H89	H	1.124541	-0.697928	-0.232772
H90	H	1.056134	-0.841698	-0.194394
H91	H	1.031463	-0.753199	-0.177169
O92	O	1.067711	-0.276937	-0.656911
C93	C	1.107554	-0.230267	-0.704736
H94	H	1.076631	-0.231270	-0.755925
H95	H	1.159325	-0.258870	-0.715865
C96	C	1.160893	-0.138063	-0.609927
C97	C	1.122910	-0.139289	-0.672796
H98	H	1.170368	-0.081944	-0.590224
H99	H	1.134052	-0.169507	-0.577706
H100	H	1.204031	-0.161903	-0.619210
H101	H	1.079770	-0.115458	-0.663511
H102	H	1.149744	-0.107838	-0.705015
O103	O	1.089898	-0.250727	-1.131609
C104	C	1.050442	-0.200598	-1.170409
H105	H	0.996152	-0.196865	-1.145906
H106	H	1.044506	-0.229338	-1.227101
C107	C	1.155380	-0.116646	-1.199407
C108	C	1.088701	-0.112055	-1.169307
H109	H	1.178980	-0.062030	-1.198730
H110	H	1.181963	-0.150420	-1.173269
H111	H	1.150424	-0.140599	-1.246647
H112	H	1.093658	-0.088113	-1.122065
H113	H	1.062120	-0.078275	-1.195437
O114	O	0.902900	-0.470005	-1.133260
C115	C	0.863072	-0.516702	-1.085444
H116	H	0.864380	-0.479940	-1.031535
H117	H	0.886328	-0.578720	-1.081205
C118	C	0.784776	-0.578744	-1.177970
C119	C	0.786377	-0.533590	-1.111760
H120	H	0.737468	-0.589166	-1.194204
H121	H	0.811610	-0.547286	-1.210186
H122	H	0.804160	-0.630421	-1.174430
H123	H	0.767002	-0.481910	-1.115303
H124	H	0.759538	-0.565040	-1.079545
H125	H	0.916291	-0.454392	-0.994121
O126	O	0.880761	-0.496208	-0.658503
C127	C	0.920219	-0.546360	-0.619729
H128	H	0.975371	-0.513859	-0.609569
H129	H	0.923973	-0.609444	-0.650892
C130	C	0.816012	-0.599749	-0.561483
C131	C	0.883748	-0.559828	-0.548998
H132	H	0.793514	-0.608060	-0.517854
H133	H	0.789427	-0.565963	-0.587607
H134	H	0.819149	-0.652314	-0.587453
H135	H	0.880609	-0.507259	-0.523036
H136	H	0.910332	-0.593605	-0.522868
O137	O	1.096155	-0.243764	-0.986585
C138	C	1.141278	-0.287225	-0.947708
H139	H	1.141773	-0.354045	-0.972726
H140	H	1.121701	-0.288372	-0.891270
C141	C	1.215737	-0.160820	-0.916960
C142	C	1.216350	-0.242888	-0.947691
H143	H	1.262044	-0.133469	-0.916946
H144	H	1.185335	-0.131538	-0.943149
H145	H	1.199419	-0.161787	-0.869931
H146	H	1.232658	-0.241920	-0.994722
H147	H	1.246756	-0.272168	-0.921509
O148	O	0.723867	-0.284542	-0.469306
C149	C	0.676083	-0.241554	-0.505356
H150	H	0.625005	-0.239583	-0.474394
H151	H	0.664644	-0.275302	-0.559746
C152	C	0.771069	-0.154091	-0.551114
C153	C	0.708336	-0.151664	-0.513084
H154	H	0.790965	-0.098644	-0.555885
H155	H	0.803263	-0.183055	-0.526829
H156	H	0.761528	-0.182218	-0.596436
H157	H	0.717879	-0.123547	-0.467761
H158	H	0.676145	-0.122693	-0.537361
O159	O	0.578923	-0.291381	-0.463785
C160	C	0.532360	-0.343317	-0.509532
H161	H	0.519549	-0.405982	-0.486774
H162	H	0.558100	-0.353892	-0.563159
C163	C	0.479766	-0.224146	-0.545753
C164	C	0.464027	-0.301110	-0.517799
H165	H	0.437616	-0.198111	-0.550856
H166	H	0.511138	-0.189155	-0.514935
H167	H	0.501218	-0.232970	-0.590439
H168	H	0.442584	-0.292284	-0.473110
H169	H	0.432649	-0.336099	-0.548610
O170	O	0.916519	-0.901227	-0.458285
C171	C	0.929795	-0.882634	-0.528202
H172	H	0.986933	-0.856081	-0.532997
H173	H	0.893437	-0.834629	-0.543081
C174	C	0.846050	-0.995651	-0.572108
C175	C	0.916229	-0.963045	-0.577999
H176	H	0.837679	-1.045250	-0.602827
H177	H	0.837103	-1.008176	-0.525004
H178	H	0.815759	-0.955639	-0.584507
H179	H	0.946518	-1.003052	-0.565592
H180	H	0.925181	-0.950528	-0.625103
H181	H	0.254903	-0.268444	-0.482921
H182	H	0.253093	-0.454328	-0.327182
O183	O	0.392159	-0.456118	-0.325831
C184	C	0.369801	-0.541153	-0.343818
H185	H	0.347041	-0.549181	-0.399469
H186	H	0.327718	-0.563056	-0.305303
C187	C	0.460925	-0.583748	-0.271965
C188	C	0.432977	-0.593609	-0.340319
H189	H	0.499893	-0.616107	-0.269804
H190	H	0.475987	-0.526458	-0.259845
H191	H	0.425850	-0.602000	-0.239877
H192	H	0.468049	-0.575348	-0.372404
H193	H	0.417923	-0.650897	-0.352445
H194	H	0.582887	-0.484915	-0.301482
H195	H	0.716302	-0.478806	-0.306580
