data_functionalizedCrystal
_audit_creation_method	'MofGen! by Chris Wilmer'
_symmetry_space_group_name_H-M	'P1'
_symmetry_Int_Tables_number	1
_symmetry_cell_setting	triclinic
loop_
_symmetry_equiv_pos_as_xyz
  x,y,z
_cell_length_a	34.490303
_cell_length_b	34.489386
_cell_length_c	34.485816
_cell_angle_alpha	60.004462
_cell_angle_beta	60.008900
_cell_angle_gamma	59.994399
loop_
_atom_site_label
_atom_site_type_symbol
_atom_site_fract_x
_atom_site_fract_y
_atom_site_fract_z
O1	O	0.053846	-0.566517	0.473678
O2	O	0.020329	-0.441078	0.381663
O3	O	0.099768	-0.520436	0.381578
O4	O	-0.025592	-0.487159	0.473762
O5	O	0.126127	-0.494082	0.407849
O6	O	0.046689	-0.414724	0.407933
O7	O	0.080206	-0.540163	0.499949
Zn8	Zn	0.067632	-0.473259	0.458112
Zn9	Zn	0.032903	-0.507982	0.423499
O10	O	0.000767	-0.460805	0.500033
N11	N	0.091336	-0.449565	0.481736
N12	N	0.009203	-0.531680	0.399875
C13	C	0.142510	-0.268211	0.532817
C14	C	0.142641	-0.398441	0.662987
C15	C	0.142524	-0.398421	0.532817
C16	C	0.272762	-0.398394	0.532723
C17	C	0.156853	-0.311177	0.547124
C18	C	0.156928	-0.384109	0.620020
C19	C	0.229794	-0.384081	0.547073
C20	C	0.156863	-0.384097	0.547124
C21	C	0.124253	-0.213522	0.514606
C22	C	0.124277	-0.416652	0.514606
C23	C	0.175110	-0.365866	0.565335
C24	C	0.352285	-0.384669	0.490824
C25	C	0.401998	-0.401229	0.474223
C26	C	0.402027	-0.481671	0.504898
C27	C	0.352316	-0.465109	0.521500
C28	C	0.136220	-0.188652	0.465734
C29	C	0.119621	-0.138936	0.449181
C30	C	0.079092	-0.138961	0.530374
C31	C	0.095691	-0.188678	0.546927
C32	C	0.075398	-0.404656	0.526651
C33	C	0.058814	-0.421229	0.510091
C34	C	0.139984	-0.461794	0.469452
C35	C	0.156570	-0.445221	0.486007
C36	C	0.075593	-0.404694	0.742565
C37	C	0.059066	-0.421281	0.792280
C38	C	0.140274	-0.461856	0.792215
C39	C	0.156800	-0.445269	0.742499
C40	C	0.124458	-0.416687	0.717675
C41	C	0.327446	-0.416608	0.514460
C42	C	-0.023585	-0.564792	0.161919
C43	C	-0.023910	-0.769260	0.366530
C44	C	-0.023880	-0.564780	0.366623
C45	C	-0.228325	-0.564561	0.366222
C46	C	-0.129610	-0.597564	0.333467
C47	C	-0.056729	-0.597644	0.333613
C48	C	-0.074925	-0.615849	0.315324
C49	C	-0.088689	-0.695351	0.357144
C50	C	-0.072155	-0.745068	0.373736
C51	C	0.008283	-0.745150	0.343188
C52	C	-0.008252	-0.695435	0.326596
C53	C	-0.154529	-0.609541	0.382326
C54	C	-0.204241	-0.592916	0.398818
C55	C	-0.204114	-0.552341	0.317588
C56	C	-0.154401	-0.568966	0.301096
C57	C	-0.068707	-0.548770	0.321590
C58	C	-0.052166	-0.532225	0.338221
C59	C	-0.011669	-0.613425	0.378886
C60	C	-0.028210	-0.629972	0.362261
C61	C	-0.068581	-0.548777	0.235758
C62	C	-0.051939	-0.532234	0.186043
C63	C	-0.011379	-0.613438	0.186090
C64	C	-0.028020	-0.629981	0.235806
C65	C	-0.056622	-0.597649	0.260639
C66	C	-0.056739	-0.670537	0.333576
C67	C	-0.005614	-0.545951	0.107238
C68	C	-0.006360	-0.823943	0.385033
C69	C	-0.005995	-0.545937	0.384582
C70	C	-0.283006	-0.545971	0.383725
N71	N	0.426163	-0.449489	0.481488
O72	O	0.588601	-0.457377	0.364497
O73	O	0.588789	-0.549696	0.489801
O74	O	0.588709	-0.549485	0.410335
O75	O	0.588681	-0.457588	0.443963
O76	O	0.509731	-0.523223	0.436741
O77	O	0.509811	-0.523434	0.516207
O78	O	0.509624	-0.431115	0.390903
Zn79	Zn	0.497178	-0.473105	0.457747
Zn80	Zn	0.601234	-0.507706	0.422956
O81	O	0.509704	-0.431326	0.470368
N82	N	0.672250	-0.531322	0.399211
N83	N	0.091303	-0.114798	0.481730
O84	O	-0.025603	0.047729	0.473733
O85	O	0.099703	0.047764	0.381394
O86	O	0.020199	0.047731	0.381655
O87	O	0.053901	0.047761	0.473472
O88	O	0.046564	-0.031252	0.407974
O89	O	0.126068	-0.031219	0.407713
O90	O	0.000762	-0.031254	0.500052
Zn91	Zn	0.067601	-0.043777	0.458061
Zn92	Zn	0.032864	0.060287	0.423385
O93	O	0.080266	-0.031222	0.499791
N94	N	0.009156	0.131307	0.399717
N95	N	0.091635	-0.449614	0.816396
O96	O	0.083664	-0.566502	0.978913
O97	O	-0.008637	-0.441152	0.978954
O98	O	-0.008421	-0.520640	0.978930
O99	O	0.083448	-0.487013	0.978936
O100	O	0.017877	-0.494296	0.899950
O101	O	0.017661	-0.414807	0.899974
O102	O	0.109961	-0.540157	0.899933
Zn103	Zn	0.067986	-0.473299	0.887414
Zn104	Zn	0.033338	-0.508010	0.991473
O105	O	0.109746	-0.460669	0.899956
N106	N	0.009689	-0.531700	1.062491
C107	C	0.030367	-0.412095	0.382120
C108	C	0.128741	-0.510370	0.382016
C109	C	0.070168	-0.569147	0.499490
C110	C	-0.028207	-0.470871	0.499595
C111	C	0.549323	-0.549278	0.518791
C112	C	0.549225	-0.549017	0.420381
C113	C	0.549087	-0.431532	0.361914
C114	C	0.549188	-0.431794	0.460322
C115	C	0.128638	0.008374	0.381806
C116	C	0.030215	0.008236	0.382161
C117	C	-0.028206	0.008233	0.499608
C118	C	0.070250	0.008272	0.499285
C119	C	-0.008199	-0.412187	0.939469
C120	C	-0.007927	-0.510619	0.939425
C121	C	0.109523	-0.569121	0.939417
C122	C	0.109257	-0.470684	0.939444
H123	H	0.019274	-0.411508	0.812539
C124	C	0.079999	0.008280	0.538256
H125	H	0.111445	0.008288	0.526636
H126	H	0.058091	0.035820	0.546911
H127	H	0.076482	-0.019270	0.565264
H128	H	-0.037176	-0.376187	0.939482
C129	C	0.549008	-0.392373	0.313303
H130	H	0.548986	-0.364797	0.313262
H131	H	0.576534	-0.403237	0.289118
H132	H	0.521448	-0.384923	0.307542
C133	C	0.549239	-0.588019	0.410667
H134	H	0.549288	-0.615668	0.438107
H135	H	0.521680	-0.577069	0.403159
H136	H	0.576766	-0.595388	0.384743
H137	H	0.138503	-0.605120	0.939399
C138	C	0.177149	0.008688	0.342544
H139	H	0.197094	0.008763	0.353976
H140	H	0.191470	-0.018793	0.333787
H141	H	0.172810	0.036296	0.315650
C142	C	0.549174	-0.392793	0.470039
H143	H	0.549210	-0.404402	0.501477
H144	H	0.576689	-0.384117	0.448112
H145	H	0.521604	-0.365801	0.466532
H146	H	0.164745	-0.517463	0.353068
H147	H	0.019013	-0.411451	0.519888
C148	C	-0.076845	-0.461299	0.538702
H149	H	-0.076917	-0.488795	0.566295
H150	H	-0.082622	-0.435410	0.546131
H151	H	-0.101003	-0.453794	0.527805
H152	H	0.022995	0.008233	0.353314
H153	H	0.549371	-0.578259	0.554780
C154	C	-0.076817	0.008220	0.538771
H155	H	-0.076840	0.008222	0.566330
H156	H	-0.100994	0.035756	0.527897
H157	H	-0.082603	-0.019334	0.546253
H158	H	-0.036776	-0.517804	0.939391
H159	H	0.138119	-0.463487	0.939440
C160	C	0.061617	-0.772542	0.335517
H161	H	0.066887	-0.805706	0.348778
H162	H	0.078990	-0.764417	0.302468
H163	H	0.071875	-0.764408	0.350581
H164	H	0.049253	-0.381417	0.722357
C165	C	0.175850	-0.493263	0.819520
H166	H	0.207320	-0.498024	0.797576
H167	H	0.171072	-0.478067	0.838902
H168	H	0.171110	-0.523075	0.838921
H169	H	0.196592	-0.455039	0.722237
C170	C	0.079837	-0.617823	0.538535
H171	H	0.052376	-0.617955	0.566160
H172	H	0.087357	-0.641961	0.527607
H173	H	0.105740	-0.623579	0.545932
H174	H	0.166284	-0.485062	0.446169
C175	C	0.039878	-0.373227	0.558104
H176	H	0.056755	-0.365078	0.566244
H177	H	0.020463	-0.345116	0.541256
H178	H	0.020505	-0.390104	0.586224
C179	C	0.210335	-0.458414	0.472761
H180	H	0.215589	-0.444449	0.486715
H181	H	0.224317	-0.491958	0.484179
H182	H	0.224269	-0.446966	0.439214
C183	C	0.324996	-0.500245	0.547497
H184	H	0.346930	-0.531500	0.549305
H185	H	0.305623	-0.498985	0.578648
H186	H	0.305585	-0.491929	0.530570
H187	H	0.422274	-0.521162	0.510626
H188	H	0.422223	-0.375220	0.454977
H189	H	0.332037	-0.345175	0.485091
H190	H	0.129365	-0.118686	0.409385
C191	C	0.167635	-0.215979	0.430183
H192	H	0.175811	-0.249151	0.447041
H193	H	0.150747	-0.207833	0.410808
H194	H	0.195736	-0.207820	0.410771
C195	C	0.047678	-0.111633	0.565926
H196	H	0.042929	-0.133566	0.597404
H197	H	0.062853	-0.092230	0.561136
H198	H	0.017864	-0.092248	0.561175
H199	H	-0.061683	-0.492436	0.165791
C200	C	0.082544	-0.216031	0.600685
H201	H	0.063163	-0.194113	0.617561
H202	H	0.065686	-0.235441	0.608862
H203	H	0.110680	-0.235410	0.608799
H204	H	-0.091873	-0.522445	0.255974
H205	H	0.011902	-0.639768	0.165877
H206	H	-0.018458	-0.669769	0.372051
C207	C	-0.014866	-0.683742	0.263172
H208	H	0.004546	-0.700626	0.241261
H209	H	0.001963	-0.691911	0.282613
H210	H	-0.042996	-0.691856	0.282520
H211	H	-0.091926	-0.522444	0.298262
H212	H	-0.061921	-0.492427	0.328433
H213	H	0.011557	-0.639751	0.402207
C214	C	0.026895	-0.668139	0.300673
H215	H	0.058139	-0.690090	0.298899
H216	H	0.025674	-0.648751	0.269511
H217	H	0.018559	-0.648743	0.317623
H218	H	-0.128170	-0.675084	0.362831
C219	C	-0.107300	-0.772366	0.399671
H220	H	-0.090507	-0.805541	0.408552
H221	H	-0.130085	-0.764195	0.427282
H222	H	-0.122985	-0.764210	0.379178
C223	C	-0.127259	-0.640995	0.417932
H224	H	-0.149221	-0.645740	0.449394
H225	H	-0.107873	-0.670805	0.413179
H226	H	-0.107866	-0.625837	0.413194
H227	H	-0.224299	-0.529059	0.291228
C228	C	-0.231656	-0.606085	0.452565
H229	H	-0.264814	-0.592085	0.457750
H230	H	-0.223541	-0.639625	0.466543
H231	H	-0.223531	-0.594659	0.466558
C232	C	-0.126989	-0.555796	0.247349
H233	H	-0.148873	-0.536387	0.230432
H234	H	-0.107586	-0.538959	0.239235
H235	H	-0.107600	-0.583924	0.239220
H236	H	0.023205	-0.376060	0.353221
