data_functionalizedCrystal
_audit_creation_method	'MofGen! by Chris Wilmer'
_symmetry_space_group_name_H-M	'P1'
_symmetry_Int_Tables_number	1
_symmetry_cell_setting	triclinic
loop_
_symmetry_equiv_pos_as_xyz
  x,y,z
_cell_length_a	10.489741
_cell_length_b	13.596369
_cell_length_c	14.519709
_cell_angle_alpha	90.001336
_cell_angle_beta	84.109659
_cell_angle_gamma	90.003268
loop_
_atom_site_label
_atom_site_type_symbol
_atom_site_fract_x
_atom_site_fract_y
_atom_site_fract_z
O1	O	1.692701	0.081733	0.130108
O2	O	1.321378	0.081748	0.142322
O3	O	1.516885	0.081731	0.002030
O4	O	1.497194	0.081750	0.270400
O5	O	1.516861	-0.081851	0.002038
O6	O	1.321354	-0.081834	0.142329
O7	O	1.692677	-0.081850	0.130116
Zn8	Zn	1.507012	-0.107814	0.136224
Zn9	Zn	1.507043	0.107713	0.136214
O10	O	1.497170	-0.081833	0.270408
C11	C	1.273844	-0.000041	0.141403
C12	C	1.132243	-0.000035	0.138643
N13	N	1.506999	-0.254906	0.136230
C14	C	1.507006	-0.343904	0.136232
C15	C	1.507018	-0.455556	0.136226
C16	C	1.507035	-0.544546	0.136216
C17	C	1.507049	-0.656205	0.136210
C18	C	1.065034	-0.000051	0.049380
C19	C	0.972479	0.080605	0.091543
C20	C	0.972489	-0.080675	0.091572
C21	C	1.041554	0.080687	0.180843
C22	C	1.041573	-0.080665	0.180860
C23	C	0.949046	0.000010	0.223088
C24	C	1.740211	-0.000058	0.131035
C25	C	1.881812	-0.000057	0.133794
C26	C	1.515955	-0.000060	-0.032331
C27	C	1.513205	-0.000061	-0.134727
N28	N	1.507066	0.254805	0.136200
C29	C	1.503082	-0.000035	-0.509678
C30	C	1.505893	-0.000042	-0.405355
C31	C	1.508143	-0.000048	-0.322206
C32	C	1.510955	-0.000054	-0.217876
C33	C	1.498100	-0.000039	0.304768
C34	C	1.500850	-0.000032	0.407165
H35	H	1.115488	0.000045	-0.024000
H36	H	1.071998	0.148952	0.218580
H37	H	0.941868	0.148790	0.053771
H38	H	0.941895	-0.148864	0.053790
O39	O	0.888954	0.000021	0.310657
C40	C	0.755142	-0.000765	0.307096
H41	H	0.732526	-0.032199	0.237823
H42	H	0.716626	0.077526	0.314842
C43	C	0.719332	-0.026310	0.471401
C44	C	0.691554	-0.064926	0.386322
H45	H	0.680106	-0.065883	0.520273
H46	H	0.809484	-0.025777	0.473801
H47	H	0.687234	0.038932	0.477842
H48	H	0.723666	-0.130161	0.379876
H49	H	0.601406	-0.065471	0.383922
H50	H	1.072216	-0.148853	0.218601
