data_functionalizedCrystal
_audit_creation_method	'MofGen! by Chris Wilmer'
_symmetry_space_group_name_H-M	'P1'
_symmetry_Int_Tables_number	1
_symmetry_cell_setting	triclinic
loop_
_symmetry_equiv_pos_as_xyz
  x,y,z
_cell_length_a	19.288864
_cell_length_b	27.732048
_cell_length_c	18.366186
_cell_angle_alpha	89.988789
_cell_angle_beta	89.977106
_cell_angle_gamma	82.889449
loop_
_atom_site_label
_atom_site_type_symbol
_atom_site_fract_x
_atom_site_fract_y
_atom_site_fract_z
O1	O	0.920977	0.060300	-0.060791
O2	O	1.420977	0.560300	0.439209
O3	O	0.718665	0.068434	-0.060742
O4	O	1.218665	0.568434	0.439258
O5	O	0.826104	-0.006011	-0.060754
O6	O	1.326104	0.493989	0.439246
O7	O	0.813538	0.134745	-0.060779
O8	O	1.313538	0.634745	0.439221
O9	O	0.826086	-0.006014	0.060345
O10	O	1.326086	0.493986	0.560345
O11	O	0.718647	0.068430	0.060357
O12	O	1.218647	0.568430	0.560357
O13	O	0.920959	0.060296	0.060309
O14	O	1.420959	0.560296	0.560309
Zn15	Zn	0.819800	0.064363	0.079560
Zn16	Zn	1.319800	0.564363	0.579560
Zn17	Zn	0.819824	0.064368	-0.079994
Zn18	Zn	1.319824	0.564368	0.420006
O19	O	0.813520	0.134741	0.060321
O20	O	1.313520	0.634741	0.560321
C21	C	0.692781	0.068171	-0.000186
C22	C	1.192781	0.568171	0.499814
C23	C	0.615683	0.067385	-0.000167
C24	C	1.115683	0.567385	0.499833
C25	C	0.570714	0.111066	-0.000186
C26	C	1.070714	0.611066	0.499814
C27	C	0.498271	0.110328	-0.000194
C28	C	0.998271	0.610328	0.499806
C29	C	0.470801	0.065906	-0.000197
C30	C	0.970801	0.565906	0.499803
C31	C	0.515780	0.022219	-0.000174
C32	C	1.015780	0.522219	0.499826
C33	C	0.588220	0.022959	-0.000159
C34	C	1.088220	0.522959	0.499841
C35	C	0.362763	0.030987	-0.042642
C36	C	0.862763	0.530987	0.457358
C37	C	0.290323	0.030250	-0.042662
C38	C	0.790323	0.530250	0.457338
C39	C	0.247370	0.063624	-0.000241
C40	C	0.747370	0.563624	0.499759
C41	C	0.276863	0.097744	0.042190
C42	C	0.776863	0.597744	0.542190
C43	C	0.349304	0.098483	0.042206
C44	C	0.849304	0.598483	0.542206
C45	C	0.392252	0.065099	-0.000213
C46	C	0.892252	0.565099	0.499787
C47	C	0.123850	0.106507	-0.000268
C48	C	0.623850	0.606507	0.499732
C49	C	0.051406	0.105767	-0.000271
C50	C	0.551406	0.605767	0.499729
C51	C	0.068916	0.017658	-0.000258
C52	C	0.568916	0.517658	0.499742
C53	C	0.141358	0.018399	-0.000248
C54	C	0.641358	0.518399	0.499752
C55	C	0.168820	0.062825	-0.000256
C56	C	0.668820	0.562825	0.499744
C57	C	0.825831	-0.024020	-0.000202
C58	C	1.325831	0.475980	0.499798
C59	C	0.825037	-0.077678	-0.000196
C60	C	1.325037	0.422322	0.499804
C61	C	0.883526	-0.416316	-0.000248
C62	C	1.383526	0.083684	0.499752
C63	C	0.880579	-0.617985	-0.000257
C64	C	1.380579	-0.117985	0.499743
O65	O	0.934063	-0.649079	-0.000302
O66	O	1.434063	-0.149079	0.499698
N67	N	0.816872	-0.637301	-0.000241
N68	N	1.316872	-0.137301	0.499759
C69	C	0.753897	-0.606196	-0.000227
C70	C	1.253897	-0.106196	0.499773
O71	O	0.699643	-0.627253	-0.000222
O72	O	1.199643	-0.127253	0.499778
C73	C	0.756845	-0.404529	-0.000223
C74	C	1.256845	0.095471	0.499777
C75	C	0.820556	-0.385216	-0.000232
C76	C	1.320556	0.114784	0.499768
C77	C	0.947232	-0.397002	-0.000257
C78	C	1.447232	0.102998	0.499743
C79	C	0.947968	-0.346588	-0.000251
C80	C	1.447968	0.153412	0.499749
C81	C	0.884998	-0.315488	-0.000235
C82	C	1.384998	0.184512	0.499765
C83	C	0.821292	-0.334801	-0.000226
C84	C	1.321292	0.165199	0.499774
C85	C	0.693871	-0.373425	-0.000215
C86	C	1.193871	0.126575	0.499785
C87	C	0.694614	-0.323006	-0.000216
C88	C	1.194614	0.176994	0.499784
C89	C	0.758325	-0.303693	-0.000224
C90	C	1.258325	0.196307	0.499776
C91	C	0.759059	-0.253287	-0.000203
C92	C	1.259059	0.246713	0.499797
N93	N	0.822766	-0.233971	-0.000219
N94	N	1.322766	0.266029	0.499781
C95	C	0.885735	-0.265071	-0.000235
C96	C	1.385735	0.234929	0.499765
C97	C	0.752354	-0.712075	-0.000228
C98	C	1.252354	-0.212075	0.499772
C99	C	0.751617	-0.762492	-0.000228
C100	C	1.251617	-0.262492	0.499772
C101	C	0.878299	-0.774276	-0.000259
C102	C	1.378299	-0.274276	0.499741
C103	C	0.879035	-0.723859	-0.000254
C104	C	1.379035	-0.223859	0.499746
C105	C	0.816061	-0.692759	-0.000244
C106	C	1.316061	-0.192759	0.499756
C107	C	0.887276	-0.159197	-0.000221
C108	C	1.387276	0.340803	0.499779
C109	C	0.888007	-0.108778	-0.000212
C110	C	1.388007	0.391222	0.499788
C111	C	0.761325	-0.096998	-0.000185
C112	C	1.261325	0.403002	0.499815
C113	C	0.760595	-0.147412	-0.000190
C114	C	1.260595	0.352588	0.499810
C115	C	0.823576	-0.178511	-0.000211
C116	C	1.323576	0.321489	0.499789
O117	O	0.705603	-0.222164	-0.000167
O118	O	1.205603	0.277836	0.499833
O119	O	0.939982	-0.244005	-0.000257
O120	O	1.439982	0.255995	0.499743
C121	C	0.882790	-0.466730	-0.000254
C122	C	1.382790	0.033270	0.499746
C123	C	0.819084	-0.486044	-0.000245
C124	C	1.319084	0.013956	0.499755
C125	C	0.756114	-0.454943	-0.000229
C126	C	1.256114	0.045057	0.499771
C127	C	0.818347	-0.536461	-0.000244
C128	C	1.318347	-0.036461	0.499756
C129	C	0.881317	-0.567561	-0.000260
C130	C	1.381317	-0.067561	0.499740
C131	C	0.945023	-0.548245	-0.000276
C132	C	1.445023	-0.048245	0.499724
C133	C	0.945760	-0.497831	-0.000270
C134	C	1.445760	0.002169	0.499730
C135	C	0.692407	-0.474260	-0.000213
C136	C	1.192407	0.025740	0.499787
C137	C	0.691676	-0.524674	-0.000218
C138	C	1.191676	-0.024674	0.499782
C139	C	0.754646	-0.555775	-0.000234
C140	C	1.254646	-0.055775	0.499766
C141	C	0.946842	0.060560	-0.000249
C142	C	1.446842	0.560560	0.499751
C143	C	1.023941	0.061345	-0.000273
C144	C	1.523941	0.561345	0.499727
C145	C	0.813792	0.152751	-0.000233
C146	C	1.313792	0.652751	0.499767
C147	C	0.814587	0.206408	-0.000244
C148	C	1.314587	0.706408	0.499756
N149	N	0.819789	0.064359	0.188451
N150	N	1.319789	0.564359	0.688451
N151	N	0.819841	0.064367	-0.188885
N152	N	1.319841	0.564367	0.311115
C153	C	0.867378	0.031411	0.226546
C154	C	1.367378	0.531411	0.726546
C155	C	0.867383	0.031409	0.302774
C156	C	1.367383	0.531409	0.802774
C157	C	0.819804	0.064363	0.340904
C158	C	1.319804	0.564363	0.840904
C159	C	0.772206	0.097314	0.302800
C160	C	1.272206	0.597314	0.802800
C161	C	0.772198	0.097312	0.226573
C162	C	1.272198	0.597312	0.726573
C163	C	0.810231	0.108406	0.461658
C164	C	1.310231	0.608406	0.961658
C165	C	0.810244	0.108409	0.537883
C166	C	1.310244	0.608409	1.037883
C167	C	0.819824	0.064369	0.576011
C168	C	1.319824	0.564369	1.076011
C169	C	0.829406	0.020325	0.537906
C170	C	1.329406	0.520325	1.037906
C171	C	0.829398	0.020323	0.461679
C172	C	1.329398	0.520323	0.961679
C173	C	0.819807	0.064369	0.423559
C174	C	1.319807	0.564369	0.923559
C175	C	0.867421	0.031416	0.696761
C176	C	1.367421	0.531416	1.196761
C177	C	0.867420	0.031413	0.772991
C178	C	1.367420	0.531413	1.272991
C179	C	0.772247	0.097322	0.773015
C180	C	1.272247	0.597322	1.273015
C181	C	0.772244	0.097321	0.696787
C182	C	1.272244	0.597321	1.196787
C183	C	0.819835	0.064368	0.658665
C184	C	1.319835	0.564368	1.158665
H185	H	0.493409	-0.013949	-0.000187
H186	H	0.993409	0.486051	0.499813
O187	O	0.913483	-0.000601	0.189373
O188	O	1.413483	0.499399	0.689373
C189	C	0.956059	0.025087	0.145074
C190	C	1.456059	0.525087	0.645074
H191	H	0.957126	0.063178	0.168026
H192	H	1.457126	0.563178	0.668026
H193	H	1.011385	0.005119	0.143980
H194	H	1.511385	0.505119	0.643980
H195	H	0.934093	0.027734	0.087396
H196	H	1.434093	0.527734	0.587396
O197	O	0.007622	0.148157	-0.000260
O198	O	0.507622	0.648157	0.499740
C199	C	-0.062206	0.137980	-0.000288
C200	C	0.437794	0.637980	0.499712
H201	H	-0.064590	0.100021	0.022652
H202	H	0.435410	0.600021	0.522652
H203	H	-0.095348	0.165836	0.034854
H204	H	0.404652	0.665836	0.534854
H205	H	-0.083145	0.139853	-0.058390
H206	H	0.416855	0.639853	0.441610
H207	H	0.733444	0.124142	0.195556
H208	H	1.233444	0.624142	0.695556
O209	O	0.261793	-0.002939	-0.083893
O210	O	0.761793	0.497061	0.416107
C211	C	0.315236	-0.032235	-0.121336
C212	C	0.815236	0.467765	0.378664
H213	H	0.366844	-0.031647	-0.091322
H214	H	0.866844	0.468353	0.408678
H215	H	0.301993	-0.071132	-0.124070
H216	H	0.801993	0.428868	0.375930
H217	H	0.320085	-0.017616	-0.178893
H218	H	0.820085	0.482384	0.321107
O219	O	0.404551	-0.001367	-0.083898
O220	O	0.904551	0.498633	0.416102
C221	C	0.441523	0.023949	-0.134487
C222	C	0.941523	0.523949	0.365513
H223	H	0.444755	0.062328	-0.113664
H224	H	0.944755	0.562328	0.386336
H225	H	0.496510	0.004138	-0.141625
H226	H	0.996510	0.504138	0.358375
H227	H	0.413203	0.025851	-0.189077
H228	H	0.913203	0.525851	0.310923
O229	O	0.377844	0.131640	0.083492
O230	O	0.877844	0.631640	0.583492
C231	C	0.324404	0.160949	0.120918
C232	C	0.824404	0.660949	0.620918
H233	H	0.276680	0.140697	0.126034
H234	H	0.776680	0.640697	0.626034
H235	H	0.343612	0.169679	0.177531
H236	H	0.843612	0.669679	0.677531
H237	H	0.309707	0.196170	0.089455
H238	H	0.809707	0.696170	0.589455
O239	O	0.939515	-0.804443	-0.000376
O240	O	1.439515	-0.304443	0.499624
C241	C	0.978222	-0.795710	-0.063118
C242	C	1.478222	-0.295710	0.436882
H243	H	0.960753	-0.757424	-0.084018
H244	H	1.460753	-0.257424	0.415982
H245	H	1.036192	-0.799385	-0.049036
H246	H	1.536192	-0.299385	0.450964
H247	H	0.969020	-0.823260	-0.107035
H248	H	1.469020	-0.323260	0.392965
O249	O	0.913583	-0.000577	0.810111
O250	O	1.413583	0.499423	1.310111
C251	C	0.903396	0.006496	0.885566
C252	C	1.403396	0.506496	1.385566
H253	H	0.847979	0.024657	0.895999
H254	H	1.347979	0.524657	1.395999
H255	H	0.911526	-0.030124	0.914544
H256	H	1.411526	0.469876	1.414544
H257	H	0.942444	0.030674	0.907171
H258	H	1.442444	0.530674	1.407171
H259	H	0.241891	0.124920	0.076734
H260	H	0.741891	0.624920	0.576734
O261	O	0.633457	-0.292776	-0.000333
O262	O	1.133457	0.207224	0.499667
C263	C	0.630110	-0.263241	-0.063038
C264	C	1.130110	0.236759	0.436962
H265	H	0.665842	-0.281771	-0.106883
H266	H	1.165842	0.218229	0.393117
H267	H	0.574102	-0.257456	-0.084081
H268	H	1.074102	0.242544	0.415919
H269	H	0.647679	-0.226616	-0.048858
H270	H	1.147679	0.273384	0.451142
H271	H	0.624835	-0.012613	-0.000144
H272	H	1.124835	0.487387	0.499856
H273	H	0.996296	-0.573576	-0.000286
H274	H	1.496296	-0.073576	0.499714
H275	H	0.999848	-0.330868	-0.000261
H276	H	1.499848	0.169132	0.499739
H277	H	0.938562	-0.184513	-0.000241
H278	H	1.438562	0.315487	0.499759
H279	H	0.641991	-0.389141	-0.000212
H280	H	1.141991	0.110859	0.499788
H281	H	0.733505	0.124152	0.804060
H282	H	1.233505	0.624152	1.304060
H283	H	0.710057	-0.071667	-0.000169
H284	H	1.210057	0.428333	0.499831
O285	O	0.689772	-0.781306	-0.000310
O286	O	1.189772	-0.281306	0.499690
C287	C	0.685554	-0.810098	-0.063038
C288	C	1.185554	-0.310098	0.436962
H289	H	0.740440	-0.822770	-0.083958
H290	H	1.240440	-0.322770	0.416042
H291	H	0.658219	-0.843055	-0.048929
H292	H	1.158219	-0.343055	0.451071
H293	H	0.654593	-0.787750	-0.106949
H294	H	1.154593	-0.287750	0.393051
O295	O	0.725994	0.129378	0.659890
O296	O	1.225994	0.629378	1.159890
C297	C	0.683988	0.158456	0.709887
C298	C	1.183988	0.658456	1.209887
H299	H	0.712463	0.158953	0.764209
H300	H	1.212463	0.658953	1.264209
H301	H	0.672973	0.197078	0.687854
H302	H	1.172973	0.697078	1.187854
H303	H	0.632562	0.142852	0.718026
H304	H	1.132562	0.642852	1.218026
O305	O	1.007631	-0.479050	-0.000156
O306	O	1.507631	0.020950	0.499844
C307	C	1.011841	-0.450239	0.062553
C308	C	1.511841	0.049761	0.562553
H309	H	0.975668	-0.462089	0.106400
H310	H	1.475668	0.037911	0.606400
H311	H	1.067868	-0.454889	0.083589
H312	H	1.567868	0.045111	0.583589
H313	H	0.995394	-0.410443	0.048378
H314	H	1.495394	0.089557	0.548378
H315	H	0.733466	0.124145	0.333849
H316	H	1.233466	0.624145	0.833849
O317	O	1.008470	-0.427140	-0.000238
O318	O	1.508470	0.072860	0.499762
C319	C	1.064847	-0.399272	-0.000266
C320	C	1.564847	0.100728	0.499734
H321	H	1.046786	-0.361608	0.022660
H322	H	1.546786	0.138392	0.522660
H323	H	1.108930	-0.417957	0.034888
H324	H	1.608930	0.082043	0.534888
H325	H	1.084413	-0.395714	-0.058366
H326	H	1.584413	0.104286	0.441634
O327	O	0.940879	-0.705042	-0.000366
O328	O	1.440879	-0.205042	0.499634
C329	C	0.945117	-0.676237	-0.063097
C330	C	1.445117	-0.176237	0.436903
H331	H	0.890237	-0.663561	-0.083994
H332	H	1.390237	-0.163561	0.416006
H333	H	0.972446	-0.643282	-0.049001
H334	H	1.472446	-0.143282	0.450999
H335	H	0.976093	-0.698574	-0.107021
H336	H	1.476093	-0.198574	0.392979
O337	O	0.150452	0.149690	-0.000363
O338	O	0.650452	0.649690	0.499637
C339	C	0.127473	0.176309	-0.063095
C340	C	0.627473	0.676309	0.436905
H341	H	0.077375	0.163249	-0.084013
H342	H	0.577375	0.663249	0.415987
H343	H	0.116982	0.216584	-0.048992
H344	H	0.616982	0.716584	0.451008
H345	H	0.169480	0.170620	-0.107006
H346	H	0.669480	0.670620	0.392994
O347	O	0.949960	-0.090099	-0.000256
O348	O	1.449960	0.409901	0.499744
C349	C	1.005379	-0.128364	-0.000256
C350	C	1.505379	0.371636	0.499744
H351	H	0.986284	-0.162570	-0.023181
H352	H	1.486284	0.337430	0.476819
H353	H	1.049897	-0.117915	-0.035424
H354	H	1.549897	0.382085	0.464576
H355	H	1.024768	-0.135548	0.057836
H356	H	1.524768	0.364452	0.557836
H357	H	0.701070	-0.686757	-0.000220
H358	H	1.201070	-0.186757	0.499780
H359	H	0.046551	-0.018511	-0.000306
H360	H	0.546551	0.481489	0.499694
H361	H	0.708716	-0.163138	-0.000163
H362	H	1.208716	0.336862	0.499837
O363	O	0.629721	-0.543351	-0.000241
O364	O	1.129721	-0.043351	0.499759
C365	C	0.574305	-0.505084	-0.000209
C366	C	1.074305	-0.005084	0.499791
H367	H	0.593412	-0.470871	-0.023130
H368	H	1.093412	0.029129	0.476870
H369	H	0.529800	-0.515518	-0.035366
H370	H	1.029800	-0.015518	0.464634
H371	H	0.554894	-0.497920	0.057892
H372	H	1.054894	0.002080	0.557892
O373	O	0.838678	-0.022501	0.424776
O374	O	1.338678	0.477499	0.924776
C375	C	0.847154	-0.061374	0.474767
C376	C	1.347154	0.438626	0.974767
H377	H	0.822609	-0.048887	0.529115
H378	H	1.322609	0.451113	1.029115
H379	H	0.820501	-0.092824	0.452766
H380	H	1.320501	0.407176	0.952766
H381	H	0.905207	-0.073843	0.482843
H382	H	1.405207	0.426157	0.982843
H383	H	0.177973	-0.017171	-0.000236
H384	H	0.677973	0.482829	0.499764
O385	O	0.631281	-0.444003	-0.000098
O386	O	1.131281	0.055997	0.499902
C387	C	0.627897	-0.414507	0.062635
C388	C	1.127897	0.085493	0.562635
H389	H	0.682997	-0.412070	0.083530
H390	H	1.182997	0.087930	0.583530
H391	H	0.601602	-0.376559	0.048543
H392	H	1.101602	0.123441	0.548543
H393	H	0.596355	-0.431041	0.106559
H394	H	1.096355	0.068959	0.606559
H395	H	0.906137	0.004578	0.333797
H396	H	1.406137	0.504578	0.833797
H397	H	0.837207	-0.015536	0.568948
H398	H	1.337207	0.484464	1.068948
H399	H	0.802446	0.144272	0.568903
H400	H	1.302446	0.644272	1.068903
H401	H	0.593069	0.147241	-0.000194
H402	H	1.093069	0.647241	0.499806
O403	O	0.454507	0.152729	-0.000314
O404	O	0.954507	0.652729	0.499686
C405	C	0.412133	0.154937	-0.063053
C406	C	0.912133	0.654937	0.436947
H407	H	0.408899	0.116575	-0.083952
H408	H	0.908899	0.616575	0.416048
H409	H	0.357477	0.173059	-0.048968
H410	H	0.857477	0.673059	0.451032
H411	H	0.435755	0.176960	-0.106972
H412	H	0.935755	0.676960	0.393028
O413	O	0.913669	-0.000643	0.659837
O414	O	1.413669	0.499357	1.159837
C415	C	0.955682	-0.029721	0.709811
C416	C	1.455682	0.470279	1.209811
H417	H	0.927215	-0.030216	0.764162
H418	H	1.427215	0.469784	1.264162
H419	H	0.966692	-0.068343	0.687793
H420	H	1.466692	0.431657	1.187793
H421	H	1.007110	-0.014117	0.717888
H422	H	1.507110	0.485883	1.217888
H423	H	0.802418	0.144270	0.430620
H424	H	1.302418	0.644270	0.930620
