data_functionalizedCrystal
_audit_creation_method	'MofGen! by Chris Wilmer'
_symmetry_space_group_name_H-M	'P1'
_symmetry_Int_Tables_number	1
_symmetry_cell_setting	triclinic
loop_
_symmetry_equiv_pos_as_xyz
  x,y,z
_cell_length_a	18.050590
_cell_length_b	18.050590
_cell_length_c	18.050583
_cell_angle_alpha	89.962959
_cell_angle_beta	89.999666
_cell_angle_gamma	90.007719
loop_
_atom_site_label
_atom_site_type_symbol
_atom_site_fract_x
_atom_site_fract_y
_atom_site_fract_z
Zn1	Zn	1.135350	-0.295821	-0.419598
Zn2	Zn	1.385350	-0.045821	-0.169598
Zn3	Zn	1.635350	0.204179	0.080402
Zn4	Zn	1.885350	0.454179	0.330402
Zn5	Zn	1.135280	-0.420034	-0.295406
Zn6	Zn	1.385280	-0.170034	-0.045406
Zn7	Zn	1.635280	0.079966	0.204594
Zn8	Zn	1.885280	0.329966	0.454594
Zn9	Zn	1.011167	-0.295839	-0.295456
Zn10	Zn	1.261167	-0.045839	-0.045456
Zn11	Zn	1.511167	0.204161	0.204544
Zn12	Zn	1.761167	0.454161	0.454544
Zn13	Zn	1.011139	-0.419950	-0.419589
Zn14	Zn	1.261139	-0.169950	-0.169589
Zn15	Zn	1.511139	0.080050	0.080411
Zn16	Zn	1.761139	0.330050	0.330411
O17	O	1.073234	-0.357911	-0.357512
O18	O	1.323234	-0.107911	-0.107512
O19	O	1.573234	0.142089	0.142488
O20	O	1.823234	0.392089	0.392488
O21	O	1.239266	-0.312326	-0.403106
O22	O	1.489266	-0.062326	-0.153106
O23	O	1.739266	0.187674	0.096894
O24	O	1.989266	0.437674	0.346894
O25	O	1.118798	-0.403602	-0.191488
O26	O	1.368798	-0.153602	0.058512
O27	O	1.618798	0.096398	0.308512
O28	O	1.868798	0.346398	0.558512
O29	O	1.027682	-0.191912	-0.311948
O30	O	1.277682	0.058088	-0.061948
O31	O	1.527682	0.308088	0.188052
O32	O	1.777682	0.558088	0.438052
O33	O	1.239214	-0.403585	-0.311863
O34	O	1.489214	-0.153585	-0.061863
O35	O	1.739214	0.096415	0.188137
O36	O	1.989214	0.346415	0.438137
O37	O	1.118919	-0.191899	-0.403155
O38	O	1.368919	0.058101	-0.153155
O39	O	1.618919	0.308101	0.096845
O40	O	1.868919	0.558101	0.346845
O41	O	1.027613	-0.312356	-0.191525
O42	O	1.277613	-0.062356	0.058475
O43	O	1.527613	0.187644	0.308475
O44	O	1.777613	0.437644	0.558475
O45	O	0.907239	-0.312275	-0.311939
O46	O	1.157239	-0.062275	-0.061939
O47	O	1.407239	0.187725	0.188061
O48	O	1.657239	0.437725	0.438061
O49	O	1.027633	-0.403442	-0.523514
O50	O	1.277633	-0.153442	-0.273514
O51	O	1.527633	0.096558	-0.023514
O52	O	1.777633	0.346558	0.226486
O53	O	0.907218	-0.403459	-0.403139
O54	O	1.157218	-0.153459	-0.153139
O55	O	1.407218	0.096541	0.096861
O56	O	1.657218	0.346541	0.346861
O57	O	1.118891	-0.312245	-0.523521
O58	O	1.368891	-0.062245	-0.273521
O59	O	1.618891	0.187755	-0.023521
O60	O	1.868891	0.437755	0.226479
O61	O	1.118771	-0.523948	-0.311854
O62	O	1.368771	-0.273948	-0.061854
O63	O	1.618771	-0.023948	0.188146
O64	O	1.868771	0.226052	0.438146
O65	O	1.027565	-0.523886	-0.403091
O66	O	1.277565	-0.273886	-0.153091
O67	O	1.527565	-0.023886	0.096909
O68	O	1.777565	0.226114	0.346909
C69	C	0.880282	-0.357860	-0.357544
C70	C	1.130282	-0.107860	-0.107544
C71	C	1.380282	0.142140	0.142456
C72	C	1.630282	0.392140	0.392456
C73	C	0.797736	-0.357856	-0.357575
C74	C	1.047736	-0.107856	-0.107575
C75	C	1.297736	0.142144	0.142425
C76	C	1.547736	0.392144	0.392425
C77	C	0.598296	-0.407584	-0.407052
C78	C	0.848296	-0.157584	-0.157052
C79	C	1.098296	0.092416	0.092948
C80	C	1.348296	0.342416	0.342948
C81	C	0.548891	-0.339865	-0.425328
C82	C	0.798891	-0.089865	-0.175328
C83	C	1.048891	0.160135	0.074672
C84	C	1.298891	0.410135	0.324672
C85	C	0.646606	-0.357898	-0.357539
C86	C	0.896606	-0.107898	-0.107539
C87	C	1.146606	0.142102	0.142461
C88	C	1.396606	0.392102	0.392461
C89	C	0.548928	-0.425656	-0.339262
C90	C	0.798928	-0.175656	-0.089262
C91	C	1.048928	0.074344	0.160738
C92	C	1.298928	0.324344	0.410738
C93	C	0.500621	-0.357944	-0.357505
C94	C	0.750621	-0.107944	-0.107505
C95	C	1.000621	0.142056	0.142495
C96	C	1.250621	0.392056	0.392495
C97	C	0.598289	-0.290143	-0.375851
C98	C	0.848289	-0.040143	-0.125851
C99	C	1.098289	0.209857	0.124149
C100	C	1.348289	0.459857	0.374149
C101	C	0.598330	-0.375979	-0.289753
C102	C	0.848330	-0.125979	-0.039753
C103	C	1.098330	0.124021	0.210247
C104	C	1.348330	0.374021	0.460247
C105	C	0.548948	-0.308213	-0.308004
C106	C	0.798948	-0.058213	-0.058004
C107	C	1.048948	0.191787	0.191996
C108	C	1.298948	0.441787	0.441996
C109	C	0.730704	-0.357872	-0.357560
C110	C	0.980704	-0.107872	-0.107560
C111	C	1.230704	0.142128	0.142440
C112	C	1.480704	0.392128	0.392440
C113	C	0.416524	-0.357962	-0.357484
C114	C	0.666524	-0.107962	-0.107484
C115	C	0.916524	0.142038	0.142516
C116	C	1.166524	0.392038	0.392516
C117	C	1.073177	-0.550863	-0.357482
C118	C	1.323177	-0.300863	-0.107482
C119	C	1.573177	-0.050863	0.142518
C120	C	1.823177	0.199137	0.392518
C121	C	1.073220	-0.633409	-0.357495
C122	C	1.323220	-0.383409	-0.107495
C123	C	1.573220	-0.133409	0.142505
C124	C	1.823220	0.116591	0.392505
C125	C	1.122921	-0.832866	-0.307949
C126	C	1.372921	-0.582866	-0.057949
C127	C	1.622921	-0.332866	0.192051
C128	C	1.872921	-0.082866	0.442051
C129	C	1.141058	-0.882192	-0.375725
C130	C	1.391058	-0.632192	-0.125725
C131	C	1.641058	-0.382192	0.124275
C132	C	1.891058	-0.132192	0.374275
C133	C	1.073263	-0.784539	-0.357524
C134	C	1.323263	-0.534539	-0.107524
C135	C	1.573263	-0.284539	0.142476
C136	C	1.823263	-0.034539	0.392476
C137	C	1.055201	-0.882295	-0.289779
C138	C	1.305201	-0.632295	-0.039779
C139	C	1.555201	-0.382295	0.210221
C140	C	1.805201	-0.132295	0.460221
C141	C	1.073305	-0.930524	-0.357547
C142	C	1.323305	-0.680524	-0.107547
C143	C	1.573305	-0.430524	0.142453
C144	C	1.823305	-0.180524	0.392453
C145	C	1.091434	-0.832778	-0.425335
C146	C	1.341434	-0.582778	-0.175335
C147	C	1.591434	-0.332778	0.074665
C148	C	1.841434	-0.082778	0.324665
C149	C	1.005546	-0.832877	-0.339344
C150	C	1.255546	-0.582877	-0.089344
C151	C	1.505546	-0.332877	0.160656
C152	C	1.755546	-0.082877	0.410656
C153	C	1.023657	-0.882180	-0.407166
C154	C	1.273657	-0.632180	-0.157166
C155	C	1.523657	-0.382180	0.092834
C156	C	1.773657	-0.132180	0.342834
C157	C	1.073240	-0.700441	-0.357510
C158	C	1.323240	-0.450441	-0.107510
C159	C	1.573240	-0.200441	0.142490
C160	C	1.823240	0.049559	0.392490
C161	C	1.073327	-1.014621	-0.357568
C162	C	1.323327	-0.764621	-0.107568
C163	C	1.573327	-0.514621	0.142432
C164	C	1.823327	-0.264621	0.392432
C165	C	1.266940	-0.357963	-0.357480
C166	C	1.516940	-0.107963	-0.107480
C167	C	1.766940	0.142037	0.142520
C168	C	2.016940	0.392037	0.392520
C169	C	1.349485	-0.357984	-0.357467
C170	C	1.599485	-0.107984	-0.107467
C171	C	1.849485	0.142016	0.142533
C172	C	2.099485	0.392016	0.392533
C173	C	1.073267	-0.357832	-0.551218
C174	C	1.323267	-0.107832	-0.301218
C175	C	1.573267	0.142168	-0.051218
C176	C	1.823267	0.392168	0.198782
C177	C	1.073281	-0.357798	-0.633764
C178	C	1.323281	-0.107798	-0.383764
C179	C	1.573281	0.142202	-0.133764
C180	C	1.823281	0.392202	0.116236
C181	C	1.073312	-0.164205	-0.357558
C182	C	1.323312	0.085795	-0.107558
C183	C	1.573312	0.335795	0.142442
C184	C	1.823312	0.585795	0.392442
C185	C	1.073345	-0.081660	-0.357578
C186	C	1.323345	0.168340	-0.107578
C187	C	1.573345	0.418340	0.142422
C188	C	1.823345	0.668340	0.392422
C189	C	1.122957	-0.308181	-0.833218
C190	C	1.372957	-0.058181	-0.583218
C191	C	1.622957	0.191819	-0.333218
C192	C	1.872957	0.441819	-0.083218
C193	C	1.055220	-0.289992	-0.882632
C194	C	1.305220	-0.039992	-0.632632
C195	C	1.555220	0.210008	-0.382632
C196	C	1.805220	0.460008	-0.132632
C197	C	1.073311	-0.357785	-0.784894
C198	C	1.323311	-0.107785	-0.534894
C199	C	1.573311	0.142215	-0.284894
C200	C	1.823311	0.392215	-0.034894
C201	C	1.141075	-0.375927	-0.882562
C202	C	1.391075	-0.125927	-0.632562
C203	C	1.641075	0.124073	-0.382562
C204	C	1.891075	0.374073	-0.132562
C205	C	1.073345	-0.357772	-0.930879
C206	C	1.323345	-0.107772	-0.680879
C207	C	1.573345	0.142228	-0.430879
C208	C	1.823345	0.392228	-0.180879
C209	C	1.005538	-0.339561	-0.833220
C210	C	1.255538	-0.089561	-0.583220
C211	C	1.505538	0.160439	-0.333220
C212	C	1.755538	0.410439	-0.083220
C213	C	1.091438	-0.425528	-0.833147
C214	C	1.341438	-0.175528	-0.583147
C215	C	1.591438	0.074472	-0.333147
C216	C	1.841438	0.324472	-0.083147
C217	C	1.023655	-0.407365	-0.882538
C218	C	1.273655	-0.157365	-0.632538
C219	C	1.523655	0.092635	-0.382538
C220	C	1.773655	0.342635	-0.132538
C221	C	1.073292	-0.357791	-0.700796
C222	C	1.323292	-0.107791	-0.450796
C223	C	1.573292	0.142209	-0.200796
C224	C	1.823292	0.392209	0.049204
C225	C	1.073357	-0.357766	-1.014976
C226	C	1.323357	-0.107766	-0.764976
C227	C	1.573357	0.142234	-0.514976
C228	C	1.823357	0.392234	-0.264976
C229	C	1.073244	-0.357936	-0.164560
C230	C	1.323244	-0.107936	0.085440
C231	C	1.573244	0.142064	0.335440
C232	C	1.823244	0.392064	0.585440
C233	C	1.073374	-0.357761	-0.082014
C234	C	1.323374	-0.107761	0.167986
C235	C	1.573374	0.142239	0.417986
C236	C	1.823374	0.392239	0.667986
H237	H	0.619880	-0.232843	-0.391360
H238	H	0.869880	0.017157	-0.141360
H239	H	1.119880	0.267157	0.108640
H240	H	1.369880	0.517157	0.358640
F241	F	1.111492	-0.500395	-0.804713
F242	F	1.361492	-0.250395	-0.554713
F243	F	1.611492	-0.000395	-0.304713
F244	F	1.861492	0.249605	-0.054713
F245	F	0.930689	-0.804543	-0.319203
F246	F	1.180689	-0.554543	-0.069203
F247	F	1.430689	-0.304543	0.180797
F248	F	1.680689	-0.054543	0.430797
F249	F	1.111519	-0.804472	-0.500251
F250	F	1.361519	-0.554472	-0.250251
F251	F	1.611519	-0.304472	-0.000251
F252	F	1.861519	-0.054472	0.249749
F253	F	0.626716	-0.395965	-0.214854
F254	F	0.876716	-0.145965	0.035146
F255	F	1.126716	0.104035	0.285146
F256	F	1.376716	0.354035	0.535146
F257	F	0.968790	-0.910307	-0.462037
F258	F	1.218790	-0.660307	-0.212037
F259	F	1.468790	-0.410307	0.037963
F260	F	1.718790	-0.160307	0.287963
F261	F	0.520803	-0.253257	-0.253255
F262	F	0.770803	-0.003257	-0.003255
F263	F	1.020803	0.246743	0.246745
F264	F	1.270803	0.496743	0.496745
H265	H	0.619965	-0.449529	-0.448970
H266	H	0.869965	-0.199529	-0.198970
H267	H	1.119965	0.050471	0.051030
H268	H	1.369965	0.300471	0.301030
F269	F	0.520507	-0.319894	-0.500236
F270	F	0.770507	-0.069894	-0.250236
F271	F	1.020507	0.180106	-0.000236
F272	F	1.270507	0.430106	0.249764
H273	H	1.039908	-0.904045	-0.232479
H274	H	1.289908	-0.654045	0.017521
H275	H	1.539908	-0.404045	0.267521
H276	H	1.789908	-0.154045	0.517521
F277	F	1.177828	-0.804561	-0.253208
F278	F	1.427828	-0.554561	-0.003208
F279	F	1.677828	-0.304561	0.246792
F280	F	1.927828	-0.054561	0.496792
F281	F	0.520586	-0.500528	-0.319074
F282	F	0.770586	-0.250528	-0.069074
F283	F	1.020586	-0.000528	0.180926
F284	F	1.270586	0.249472	0.430926
F285	F	1.177745	-0.253319	-0.804910
F286	F	1.427745	-0.003319	-0.554910
F287	F	1.677745	0.246681	-0.304910
F288	F	1.927745	0.496681	-0.054910
F289	F	1.035193	-0.215106	-0.911045
F290	F	1.285193	0.034894	-0.661045
F291	F	1.535193	0.284894	-0.411045
F292	F	1.785193	0.534894	-0.161045
F293	F	0.930628	-0.319419	-0.805012
F294	F	1.180628	-0.069419	-0.555012
F295	F	1.430628	0.180581	-0.305012
F296	F	1.680628	0.430581	-0.055012
F297	F	0.968735	-0.462181	-0.910677
F298	F	1.218735	-0.212181	-0.660677
F299	F	1.468735	0.037819	-0.410677
F300	F	1.718735	0.287819	-0.160677
F301	F	1.215960	-0.395993	-0.910892
F302	F	1.465960	-0.145993	-0.660892
F303	F	1.715960	0.104007	-0.410892
F304	F	1.965960	0.354007	-0.160892
F305	F	1.215935	-0.910495	-0.395853
F306	F	1.465935	-0.660495	-0.145853
F307	F	1.715935	-0.410495	0.104147
F308	F	1.965935	-0.160495	0.354147
