data_functionalizedCrystal
_audit_creation_method	'MofGen! by Chris Wilmer'
_symmetry_space_group_name_H-M	'P1'
_symmetry_Int_Tables_number	1
_symmetry_cell_setting	triclinic
loop_
_symmetry_equiv_pos_as_xyz
  x,y,z
_cell_length_a	18.050591
_cell_length_b	18.050589
_cell_length_c	18.050582
_cell_angle_alpha	89.981795
_cell_angle_beta	90.020922
_cell_angle_gamma	89.975773
loop_
_atom_site_label
_atom_site_type_symbol
_atom_site_fract_x
_atom_site_fract_y
_atom_site_fract_z
Zn1	Zn	1.135293	0.295786	0.420054
Zn2	Zn	1.468626	0.629119	0.753387
Zn3	Zn	1.801959	0.962452	1.086721
Zn4	Zn	1.135203	0.419969	0.295873
Zn5	Zn	1.468537	0.753302	0.629207
Zn6	Zn	1.801870	1.086636	0.962540
Zn7	Zn	1.011112	0.295789	0.295865
Zn8	Zn	1.344445	0.629122	0.629198
Zn9	Zn	1.677778	0.962455	0.962532
Zn10	Zn	1.011060	0.419930	0.420009
Zn11	Zn	1.344393	0.753263	0.753342
Zn12	Zn	1.677726	1.086596	1.086676
O13	O	1.073167	0.357868	0.357950
O14	O	1.406500	0.691202	0.691284
O15	O	1.739833	1.024535	1.024617
O16	O	1.239205	0.312274	0.403603
O17	O	1.572539	0.645607	0.736937
O18	O	1.905872	0.978941	1.070270
O19	O	1.118727	0.403514	0.191948
O20	O	1.452060	0.736847	0.525281
O21	O	1.785393	1.070181	0.858614
O22	O	1.027644	0.191864	0.312354
O23	O	1.360977	0.525197	0.645688
O24	O	1.694310	0.858530	0.979021
O25	O	1.239140	0.403511	0.312369
O26	O	1.572473	0.736844	0.645702
O27	O	1.905806	1.070178	0.979035
O28	O	1.118879	0.191862	0.403595
O29	O	1.452212	0.525195	0.736929
O30	O	1.785545	0.858528	1.070262
O31	O	1.027557	0.312279	0.191942
O32	O	1.360890	0.645613	0.525275
O33	O	1.694224	0.978946	0.858608
O34	O	0.907180	0.312241	0.312311
O35	O	1.240514	0.645574	0.645644
O36	O	1.573847	0.978908	0.978977
O37	O	1.027555	0.403444	0.523940
O38	O	1.360888	0.736777	0.857273
O39	O	1.694222	1.070111	1.190606
O40	O	0.907142	0.403447	0.403519
O41	O	1.240475	0.736780	0.736852
O42	O	1.573809	1.070114	1.070185
O43	O	1.118828	0.312236	0.523973
O44	O	1.452162	0.645569	0.857306
O45	O	1.785495	0.978903	1.190639
O46	O	1.118676	0.523888	0.312325
O47	O	1.452010	0.857222	0.645658
O48	O	1.785343	1.190555	0.978992
O49	O	1.027468	0.523860	0.403527
O50	O	1.360802	0.857193	0.736860
O51	O	1.694135	1.190526	1.070193
C52	C	0.880215	0.357841	0.357909
C53	C	1.213548	0.691174	0.691243
C54	C	1.546881	1.024507	1.024576
C55	C	0.797669	0.357847	0.357909
C56	C	1.131002	0.691180	0.691243
C57	C	1.464336	1.024513	1.024576
C58	C	1.073077	0.550820	0.357938
C59	C	1.406410	0.884154	0.691271
C60	C	1.739744	1.217487	1.024605
C61	C	1.073107	0.633366	0.357958
C62	C	1.406440	0.966700	0.691291
C63	C	1.739773	1.300033	1.024624
C64	C	0.598217	0.308191	0.308425
C65	C	0.931551	0.641525	0.641758
C66	C	1.264884	0.974858	0.975091
C67	C	0.548798	0.375927	0.290154
C68	C	0.882131	0.709261	0.623487
C69	C	1.215464	1.042594	0.956820
C70	C	0.646539	0.357869	0.357943
C71	C	0.979872	0.691203	0.691276
C72	C	1.313205	1.024536	1.024610
C73	C	0.548877	0.290157	0.376212
C74	C	0.882210	0.623490	0.709545
C75	C	1.215543	0.956824	1.042879
C76	C	0.500553	0.357885	0.357974
C77	C	0.833887	0.691218	0.691307
C78	C	1.167220	1.024552	1.024641
C79	C	0.598206	0.425641	0.339637
C80	C	0.931539	0.758974	0.672970
C81	C	1.264873	1.092307	1.006303
C82	C	0.598289	0.339825	0.425726
C83	C	0.931622	0.673158	0.759060
C84	C	1.264956	1.006491	1.092393
C85	C	0.548892	0.407607	0.407481
C86	C	0.882225	0.740941	0.740814
C87	C	1.215558	1.074274	1.074148
C88	C	0.730637	0.357859	0.357923
C89	C	1.063970	0.691192	0.691256
C90	C	1.397303	1.024526	1.024590
C91	C	0.416457	0.357903	0.357994
C92	C	0.749790	0.691236	0.691327
C93	C	1.083124	1.024569	1.024660
C94	C	1.073196	0.357835	0.551656
C95	C	1.406529	0.691169	0.884989
C96	C	1.739863	1.024502	1.218323
C97	C	1.073208	0.357821	0.634202
C98	C	1.406542	0.691155	0.967535
C99	C	1.739875	1.024488	1.300868
C100	C	1.266872	0.357897	0.357992
C101	C	1.600206	0.691230	0.691325
C102	C	1.933539	1.024563	1.024659
C103	C	1.349418	0.357909	0.358010
C104	C	1.682751	0.691242	0.691343
C105	C	2.016085	1.024575	1.024676
C106	C	1.073277	0.164163	0.357979
C107	C	1.406610	0.497496	0.691312
C108	C	1.739944	0.830829	1.024646
C109	C	1.073324	0.081617	0.357991
C110	C	1.406657	0.414950	0.691325
C111	C	1.739991	0.748284	1.024658
C112	C	1.023557	0.832828	0.407536
C113	C	1.356890	1.166161	0.740869
C114	C	1.690223	1.499495	1.074202
C115	C	1.005459	0.882261	0.339767
C116	C	1.338792	1.215594	0.673100
C117	C	1.672126	1.548928	1.006433
C118	C	1.073180	0.784497	0.357967
C119	C	1.406513	1.117830	0.691301
C120	C	1.739846	1.451163	1.024634
C121	C	1.091314	0.882146	0.425744
C122	C	1.424647	1.215479	0.759078
C123	C	1.757981	1.548812	1.092411
C124	C	1.073249	0.930482	0.357983
C125	C	1.406582	1.263815	0.691316
C126	C	1.739915	1.597148	1.024649
C127	C	1.055046	0.832842	0.290162
C128	C	1.388380	1.166175	0.623495
C129	C	1.721713	1.499509	0.956829
C130	C	1.140933	0.832722	0.376186
C131	C	1.474266	1.166056	0.709519
C132	C	1.807600	1.499389	1.042852
C133	C	1.122861	0.882133	0.308370
C134	C	1.456194	1.215466	0.641703
C135	C	1.789527	1.548799	0.975036
C136	C	1.073138	0.700398	0.357959
C137	C	1.406471	1.033732	0.691293
C138	C	1.739805	1.367065	1.024626
C139	C	1.073291	1.014578	0.357983
C140	C	1.406624	1.347911	0.691316
C141	C	1.739957	1.681245	1.024649
C142	C	1.073181	0.357848	0.164998
C143	C	1.406514	0.691181	0.498332
C144	C	1.739847	1.024514	0.831665
C145	C	1.073312	0.357652	0.082453
C146	C	1.406645	0.690986	0.415786
C147	C	1.739979	1.024319	0.749120
C148	C	1.023612	0.407353	0.833635
C149	C	1.356945	0.740686	1.166968
C150	C	1.690278	1.074019	1.500301
C151	C	1.091367	0.425511	0.883034
C152	C	1.424700	0.758844	1.216368
C153	C	1.758034	1.092177	1.549701
C154	C	1.073245	0.357765	0.785332
C155	C	1.406578	0.691098	1.118666
C156	C	1.739912	1.024431	1.451999
C157	C	1.005527	0.339586	0.883014
C158	C	1.338860	0.672919	1.216348
C159	C	1.672194	1.006253	1.549681
C160	C	1.073274	0.357711	0.931317
C161	C	1.406608	0.691045	1.264651
C162	C	1.739941	1.024378	1.597984
C163	C	1.141036	0.375958	0.833645
C164	C	1.474369	0.709292	1.166978
C165	C	1.807702	1.042625	1.500312
C166	C	1.055150	0.290002	0.833620
C167	C	1.388483	0.623335	1.166954
C168	C	1.721816	0.956669	1.500287
C169	C	1.122952	0.308134	0.882998
C170	C	1.456285	0.641468	1.216331
C171	C	1.789619	0.974801	1.549665
C172	C	1.073227	0.357797	0.701234
C173	C	1.406560	0.691131	1.034567
C174	C	1.739894	1.024464	1.367901
C175	C	1.073300	0.357679	1.015414
C176	C	1.406633	0.691012	1.348747
C177	C	1.739967	1.024345	1.682081
H178	H	0.619875	0.266226	0.266503
H179	H	0.953209	0.599559	0.599837
H180	H	1.286542	0.932892	0.933170
H181	H	0.948246	0.324232	0.904701
H182	H	1.281580	0.657566	1.238034
H183	H	1.614913	0.990899	1.571368
H184	H	0.981678	0.449342	0.811961
H185	H	1.315012	0.782676	1.145294
H186	H	1.648345	1.116009	1.478628
H187	H	1.039807	0.232736	0.811899
H188	H	1.373141	0.566069	1.145232
H189	H	1.706474	0.899402	1.478566
N190	N	0.520369	0.463321	0.462966
N191	N	0.853702	0.796654	0.796300
N192	N	1.187036	1.129988	1.129633
H193	H	0.539169	0.450145	0.514006
H194	H	0.872503	0.783478	0.847340
H195	H	1.205836	1.116812	1.180673
H196	H	0.538415	0.514408	0.449019
H197	H	0.871748	0.847741	0.782353
H198	H	1.205082	1.181075	1.115686
N199	N	1.216934	0.396383	0.805049
N200	N	1.550268	0.729716	1.138382
N201	N	1.883601	1.063049	1.471715
H202	H	1.216450	0.396298	0.749097
H203	H	1.549783	0.729632	1.082430
H204	H	1.883116	1.062965	1.415764
H205	H	1.230681	0.447369	0.823514
H206	H	1.564014	0.780703	1.156847
H207	H	1.897347	1.114036	1.490181
N208	N	0.520001	0.396167	0.214244
N209	N	0.853335	0.729500	0.547578
N210	N	1.186668	1.062833	0.880911
H211	H	0.537587	0.358371	0.176931
H212	H	0.870920	0.691705	0.510265
H213	H	1.204253	1.025038	0.843598
H214	H	0.464062	0.396923	0.215117
H215	H	0.797395	0.730257	0.548450
H216	H	1.130728	1.063590	0.881783
N217	N	1.111657	0.501386	0.911792
N218	N	1.444991	0.834720	1.245125
N219	N	1.778324	1.168053	1.578458
H220	H	1.111989	0.500679	0.967740
H221	H	1.445322	0.834012	1.301073
H222	H	1.778656	1.167346	1.634407
H223	H	1.162441	0.515445	0.893009
H224	H	1.495774	0.848779	1.226342
H225	H	1.829108	1.182112	1.559676
H226	H	0.981531	0.811178	0.449395
H227	H	1.314864	1.144512	0.782728
H228	H	1.648197	1.477845	1.116062
H229	H	1.164986	0.266177	0.904535
H230	H	1.498319	0.599510	1.237869
H231	H	1.831653	0.932843	1.571202
N232	N	1.034681	0.804278	0.214224
N233	N	1.368014	1.137612	0.547557
N234	N	1.701347	1.470945	0.880890
H235	H	0.988325	0.773165	0.217784
H236	H	1.321658	1.106499	0.551118
H237	H	1.654992	1.439832	0.884451
H238	H	1.025544	0.847510	0.179878
H239	H	1.358877	1.180844	0.513212
H240	H	1.692211	1.514177	0.846545
H241	H	0.620045	0.324530	0.483019
H242	H	0.953378	0.657863	0.816352
H243	H	1.286711	0.991196	1.149686
N244	N	0.626780	0.501525	0.319098
N245	N	0.960113	0.834859	0.652431
N246	N	1.293447	1.168192	0.985765
H247	H	0.682732	0.501046	0.319191
H248	H	1.016065	0.834379	0.652525
H249	H	1.349398	1.167712	0.985858
H250	H	0.608285	0.515228	0.268087
H251	H	0.941619	0.848561	0.601420
H252	H	1.274952	1.181894	0.934754
N253	N	1.178491	0.910632	0.252796
N254	N	1.511824	1.243965	0.586129
N255	N	1.845158	1.577299	0.919463
H256	H	1.164725	0.892600	0.201650
H257	H	1.498058	1.225933	0.534984
H258	H	1.831392	1.559267	0.868317
H259	H	1.178499	0.966579	0.253472
H260	H	1.511832	1.299913	0.586805
H261	H	1.845165	1.633246	0.920138
H262	H	0.527169	0.232894	0.391625
H263	H	0.860502	0.566228	0.724959
H264	H	1.193835	0.899561	1.058292
N265	N	0.929601	0.911076	0.319357
N266	N	1.262934	1.244409	0.652690
N267	N	1.596267	1.577743	0.986023
H268	H	0.909774	0.942656	0.361064
H269	H	1.243108	1.275990	0.694397
H270	H	1.576441	1.609323	1.027731
H271	H	0.933247	0.941844	0.272759
H272	H	1.266580	1.275177	0.606093
H273	H	1.599913	1.608511	0.939426
N274	N	1.216770	0.803877	0.396614
N275	N	1.550103	1.137210	0.729948
N276	N	1.883436	1.470544	1.063281
H277	H	1.230399	0.821778	0.447843
H278	H	1.563732	1.155112	0.781176
H279	H	1.897065	1.488445	1.114509
H280	H	1.216242	0.747933	0.395934
H281	H	1.549575	1.081266	0.729267
H282	H	1.882908	1.414599	1.062601
H283	H	1.106625	0.903802	0.483056
H284	H	1.439958	1.237136	0.816390
H285	H	1.773291	1.570469	1.149723
