data_functionalizedCrystal
_audit_creation_method	'MofGen! by Chris Wilmer'
_symmetry_space_group_name_H-M	'P1'
_symmetry_Int_Tables_number	1
_symmetry_cell_setting	triclinic
loop_
_symmetry_equiv_pos_as_xyz
  x,y,z
_cell_length_a	11.026607
_cell_length_b	17.038272
_cell_length_c	10.065875
_cell_angle_alpha	99.426590
_cell_angle_beta	79.302338
_cell_angle_gamma	99.848786
loop_
_atom_site_label
_atom_site_type_symbol
_atom_site_fract_x
_atom_site_fract_y
_atom_site_fract_z
O1	O	1.661277	0.323101	-0.113507
O2	O	2.161277	0.823101	0.386493
O3	O	1.304065	0.285271	-0.113508
O4	O	1.804065	0.785271	0.386492
O5	O	1.480547	0.190072	-0.113497
O6	O	1.980547	0.690072	0.386503
O7	O	1.484796	0.418300	-0.113518
O8	O	1.984796	0.918300	0.386482
O9	O	1.446904	0.208319	0.113490
O10	O	1.946904	0.708319	0.613490
O11	O	1.270422	0.303517	0.113479
O12	O	1.770422	0.803517	0.613479
O13	O	1.627634	0.341348	0.113479
O14	O	2.127634	0.841348	0.613479
Zn15	Zn	1.443687	0.325329	0.149518
Zn16	Zn	1.943687	0.825329	0.649518
Zn17	Zn	1.488013	0.301289	-0.149547
Zn18	Zn	1.988013	0.801289	0.350453
O19	O	1.451153	0.436546	0.113468
O20	O	1.951153	0.936546	0.613468
C21	C	1.241312	0.287415	-0.000014
C22	C	1.741312	0.787415	0.499986
C23	C	1.104451	0.266610	-0.000014
C24	C	1.604451	0.766610	0.499986
C25	C	1.036576	0.324055	-0.000020
C26	C	1.536576	0.824055	0.499980
C27	C	0.895122	0.302554	-0.000020
C28	C	1.395122	0.802554	0.499980
C29	C	1.459863	0.169523	-0.000004
C30	C	1.959863	0.669523	0.499996
C31	C	1.448341	0.081107	-0.000004
C32	C	1.948341	0.581107	0.499996
C33	C	1.554125	0.045899	-0.000002
C34	C	2.054125	0.545899	0.499998
C35	C	1.543294	-0.037179	-0.000015
C36	C	2.043294	0.462821	0.499985
C37	C	1.426676	-0.085047	-0.000020
C38	C	1.926676	0.414953	0.499980
C39	C	1.320885	-0.049835	-0.000026
C40	C	1.820885	0.450165	0.499974
C41	C	1.331719	0.033241	-0.000022
C42	C	1.831719	0.533241	0.499978
C43	C	1.388403	-0.336200	-0.000039
C44	C	1.888403	0.163800	0.499961
C45	C	1.377576	-0.419281	-0.000038
C46	C	1.877576	0.080719	0.499962
C47	C	1.599986	-0.406621	-0.000030
C48	C	2.099986	0.093379	0.499970
C49	C	1.610809	-0.323543	-0.000019
C50	C	2.110809	0.176457	0.499981
C51	C	1.505019	-0.288338	-0.000032
C52	C	2.005019	0.211662	0.499968
C53	C	1.415601	-0.169966	-0.000029
C54	C	1.915601	0.330034	0.499971
C55	C	1.516096	-0.203421	-0.000032
C56	C	2.016096	0.296579	0.499968
C57	C	1.690387	0.339203	-0.000017
C58	C	2.190387	0.839203	0.499983
C59	C	1.827251	0.360008	-0.000026
C60	C	2.327251	0.860008	0.499974
C61	C	1.471837	0.457095	-0.000028
C62	C	1.971837	0.957095	0.499972
C63	C	1.483360	0.545511	-0.000036
C64	C	1.983360	1.045511	0.499964
N65	N	1.413444	0.341737	0.353622
N66	N	1.913444	0.841737	0.853622
N67	N	1.518264	0.284877	-0.353650
N68	N	2.018264	0.784877	0.146350
C69	C	1.477482	0.306992	0.421405
C70	C	1.977482	0.806992	0.921405
C71	C	1.454217	0.319627	0.578571
C72	C	1.954217	0.819627	1.078571
H73	H	1.057843	0.201508	-0.000043
H74	H	1.557843	0.701508	0.499957
N75	N	1.251790	-0.470914	-0.000045
N76	N	1.751790	0.029086	0.499955
H77	H	1.186416	-0.436007	-0.000057
H78	H	1.686416	0.063993	0.499943
H79	H	1.254936	-0.512420	-0.084191
H80	H	1.754936	-0.012420	0.415809
N81	N	0.888988	0.446243	-0.000045
N82	N	1.388988	0.946243	0.499955
H83	H	0.875987	0.466796	-0.084196
H84	H	1.375987	0.966796	0.415804
H85	H	0.851020	0.480272	0.084148
H86	H	1.351020	0.980272	0.584148
N87	N	1.679905	0.097526	0.000016
N88	N	2.179905	0.597526	0.500016
H89	H	1.745274	0.062612	0.000012
H90	H	2.245274	0.562612	0.500012
H91	H	1.701719	0.125512	-0.084128
H92	H	2.201719	0.625512	0.415872
N93	N	1.358765	0.371418	0.655809
N94	N	1.858765	0.871418	1.155809
H95	H	1.400871	0.417854	0.715085
H96	H	1.900871	0.917854	1.215085
H97	H	1.319253	0.392810	0.588897
H98	H	1.819253	0.892810	1.088897
H99	H	1.083188	0.389155	-0.000019
H100	H	1.583188	0.889155	0.499981
N101	N	0.833398	0.216316	0.000005
N102	N	1.333398	0.716316	0.500005
H103	H	0.741097	0.213180	0.000007
H104	H	1.241097	0.713180	0.500007
H105	H	0.871432	0.182278	-0.084137
H106	H	1.371432	0.682278	0.415863
H107	H	1.549527	0.267887	0.363085
H108	H	2.049527	0.767887	0.863085
N109	N	1.657387	-0.075154	-0.000006
N110	N	2.157387	0.424846	0.499994
H111	H	1.732905	-0.032223	0.000010
H112	H	2.232905	0.467777	0.500010
H113	H	1.645253	-0.102587	0.084141
H114	H	2.145253	0.397413	0.584141
N115	N	1.736588	-0.271915	-0.000006
N116	N	2.236588	0.228085	0.499994
H117	H	1.801960	-0.306826	-0.000006
H118	H	2.301960	0.193174	0.499994
H119	H	1.758402	-0.243928	-0.084148
H120	H	2.258402	0.256072	0.415852
N121	N	1.289825	-0.221600	-0.000019
N122	N	1.789825	0.278400	0.499981
H123	H	1.230623	-0.203152	0.084129
H124	H	1.730623	0.296848	0.584129
H125	H	1.255665	-0.216654	-0.084214
H126	H	1.755665	0.283346	0.415786
N127	N	1.714082	-0.444591	-0.000014
N128	N	2.214082	0.055409	0.499986
H129	H	1.689529	-0.504482	-0.000016
H130	H	2.189529	-0.004482	0.499984
H131	H	1.777010	-0.434067	-0.084159
H132	H	2.277010	0.065933	0.415841
H133	H	1.590314	0.245770	0.588033
H134	H	2.090314	0.745770	1.088033
H135	H	1.341390	0.380834	0.411944
H136	H	1.841390	0.880834	0.911944
H137	H	1.225934	-0.088816	-0.000038
H138	H	1.725934	0.411184	0.499962
N139	N	1.274305	-0.298234	-0.000047
N140	N	1.774305	0.201766	0.499953
H141	H	1.198787	-0.341166	-0.000043
H142	H	1.698787	0.158834	0.499957
H143	H	1.261482	-0.257280	0.084100
H144	H	1.761482	0.242720	0.584100
H145	H	1.245578	0.061906	-0.000024
H146	H	1.745578	0.561906	0.499976
N147	N	1.641869	-0.151793	-0.000012
N148	N	2.141869	0.348207	0.499988
H149	H	1.707247	-0.186699	-0.000005
H150	H	2.207247	0.313301	0.499995
H151	H	1.663684	-0.123808	-0.084156
H152	H	2.163684	0.376192	0.415844
