data_functionalizedCrystal
_audit_creation_method	'MofGen! by Chris Wilmer'
_symmetry_space_group_name_H-M	'P1'
_symmetry_Int_Tables_number	1
_symmetry_cell_setting	triclinic
loop_
_symmetry_equiv_pos_as_xyz
  x,y,z
_cell_length_a	15.298068
_cell_length_b	19.077068
_cell_length_c	15.296720
_cell_angle_alpha	101.502244
_cell_angle_beta	88.354818
_cell_angle_gamma	102.339823
loop_
_atom_site_label
_atom_site_type_symbol
_atom_site_fract_x
_atom_site_fract_y
_atom_site_fract_z
Zn1	Zn	1.240909	-0.212238	-0.736107
Zn2	Zn	1.740909	0.287762	-0.236107
Zn3	Zn	1.260542	-0.308055	-0.593585
Zn4	Zn	1.760542	0.191945	-0.093585
Zn5	Zn	1.120196	-0.205305	-0.563988
Zn6	Zn	1.620196	0.294695	-0.063988
Zn7	Zn	1.086421	-0.348051	-0.716256
Zn8	Zn	1.586421	0.151949	-0.216256
O9	O	1.177017	-0.268412	-0.652484
O10	O	1.677017	0.231588	-0.152484
O11	O	1.366902	-0.211111	-0.737895
O12	O	1.866902	0.288889	-0.237895
O13	O	1.264276	-0.274786	-0.466289
O14	O	1.764276	0.225214	0.033711
O15	O	1.142128	-0.106385	-0.582741
O16	O	1.642128	0.393615	-0.082741
O17	O	1.381326	-0.281508	-0.633185
O18	O	1.881326	0.218492	-0.133185
O19	O	1.230815	-0.111478	-0.709196
O20	O	1.730815	0.388522	-0.209196
O21	O	1.161165	-0.199296	-0.444544
O22	O	1.661165	0.300704	0.055456
O23	O	0.992327	-0.238078	-0.563493
O24	O	1.492327	0.261922	-0.063493
O25	O	1.084563	-0.349675	-0.842260
O26	O	1.584563	0.150325	-0.342260
O27	O	0.967513	-0.342953	-0.675364
O28	O	1.467513	0.157047	-0.175364
O29	O	1.198065	-0.249893	-0.856845
O30	O	1.698065	0.250107	-0.356845
O31	O	1.231525	-0.413201	-0.613937
O32	O	1.731525	0.086799	-0.113937
O33	O	1.103600	-0.442586	-0.704063
O34	O	1.603600	0.057414	-0.204063
C35	C	1.166048	-0.453781	-0.660081
C36	C	1.666048	0.046219	-0.160081
C37	C	1.161431	-0.533078	-0.663373
C38	C	1.661431	-0.033078	-0.163373
C39	C	0.947926	-0.294104	-0.614063
C40	C	1.447926	0.205896	-0.114063
C41	C	0.849916	-0.305116	-0.597648
C42	C	1.349916	0.194884	-0.097648
C43	C	1.225901	-0.555012	-0.618051
C44	C	1.725901	-0.055012	-0.118051
C45	C	1.221563	-0.629521	-0.621154
C46	C	1.721563	-0.129521	-0.121154
C47	C	1.152750	-0.682095	-0.669575
C48	C	1.652750	-0.182095	-0.169575
C49	C	1.088277	-0.660157	-0.714903
C50	C	1.588277	-0.160157	-0.214903
C51	C	1.092619	-0.585649	-0.711805
C52	C	1.592619	-0.085649	-0.211805
C53	C	1.132619	-0.906574	-0.683872
C54	C	1.632619	-0.406574	-0.183872
C55	C	1.128280	-0.981085	-0.686965
C56	C	1.628280	-0.481085	-0.186965
C57	C	1.261568	-0.950444	-0.593216
C58	C	1.761568	-0.450444	-0.093216
C59	C	1.265901	-0.875936	-0.590118
C60	C	1.765901	-0.375936	-0.090118
C61	C	1.201431	-0.854005	-0.635450
C62	C	1.701431	-0.354005	-0.135450
N63	N	1.148312	-0.758256	-0.672745
N64	N	1.648312	-0.258256	-0.172745
N65	N	1.205873	-0.777846	-0.632284
N66	N	1.705873	-0.277846	-0.132284
C67	C	0.543521	-0.189891	-0.769815
C68	C	1.043521	0.310109	-0.269815
C69	C	0.635606	-0.179548	-0.785243
C70	C	1.135606	0.320452	-0.285243
C71	C	0.689188	-0.210938	-0.738345
C72	C	1.189188	0.289062	-0.238345
C73	C	0.650676	-0.252675	-0.676018
C74	C	1.150676	0.247325	-0.176018
C75	C	0.558581	-0.263023	-0.660593
C76	C	1.058581	0.236977	-0.160593
C77	C	0.704248	-0.284071	-0.629124
C78	C	1.204248	0.215929	-0.129124
C79	C	0.665735	-0.325807	-0.566796
C80	C	1.165735	0.174193	-0.066796
C81	C	0.573649	-0.336154	-0.551374
C82	C	1.073649	0.163846	-0.051374
C83	C	0.520068	-0.304763	-0.598271
C84	C	1.020068	0.195237	-0.098271
C85	C	0.796343	-0.273722	-0.644548
C86	C	1.296343	0.226278	-0.144548
C87	C	0.811402	-0.346855	-0.535326
C88	C	1.311402	0.153145	-0.035326
C89	C	0.719317	-0.357198	-0.519898
C90	C	1.219317	0.142802	-0.019898
C91	C	1.407002	-0.242621	-0.691056
C92	C	1.907002	0.257379	-0.191056
C93	C	1.505008	-0.231630	-0.707493
C94	C	2.005008	0.268370	-0.207493
C95	C	1.135356	-0.305019	-0.882436
C96	C	1.635356	0.194981	-0.382436
C97	C	1.117603	-0.320619	-0.980427
C98	C	1.617603	0.179381	-0.480427
C99	C	1.188049	-0.082321	-0.644882
C100	C	1.688049	0.417679	-0.144882
C101	C	1.192750	-0.003019	-0.641642
C102	C	1.692750	0.496981	-0.141642
C103	C	1.303943	-0.156791	-1.287023
C104	C	1.803943	0.343209	-0.787023
C105	C	1.320629	-0.142136	-1.194956
C106	C	1.820629	0.357864	-0.694956
C107	C	1.269874	-0.186755	-1.141320
C108	C	1.769874	0.313245	-0.641320
C109	C	1.202430	-0.246033	-1.179759
C110	C	1.702430	0.253967	-0.679759
C111	C	1.185748	-0.260694	-1.271836
C112	C	1.685748	0.239306	-0.771836
C113	C	1.151678	-0.290657	-1.126132
C114	C	1.651678	0.209343	-0.626132
C115	C	1.084235	-0.349935	-1.164571
C116	C	1.584235	0.150065	-0.664571
C117	C	1.067555	-0.364593	-1.256639
C118	C	1.567555	0.135407	-0.756639
C119	C	1.118310	-0.319974	-1.310276
C120	C	1.618310	0.180026	-0.810276
C121	C	1.168361	-0.275996	-1.034055
C122	C	1.668361	0.224004	-0.534055
C123	C	1.050165	-0.379899	-1.018867
C124	C	1.550165	0.120101	-0.518867
C125	C	1.033479	-0.394555	-1.110934
C126	C	1.533479	0.105445	-0.610934
C127	C	1.218570	-0.231891	-0.423434
C128	C	1.718570	0.268109	0.076566
C129	C	1.236505	-0.216071	-0.325463
C130	C	1.736505	0.283929	0.174537
H131	H	1.281933	-0.512209	-0.578616
H132	H	1.781933	-0.012209	-0.078616
H133	H	1.283463	-0.174818	-1.066355
H134	H	1.783463	0.325182	-0.566355
C135	C	1.242542	-0.210787	-0.991782
C136	C	1.742542	0.289213	-0.491782
N137	N	1.298417	-0.161666	-0.959942
N138	N	1.798417	0.338334	-0.459942
H139	H	1.274061	-0.647375	-0.584246
H140	H	1.774061	-0.147375	-0.084246
C141	C	1.052582	-1.038917	-0.740241
C142	C	1.552582	-0.538917	-0.240241
N143	N	0.995569	-1.082476	-0.780367
N144	N	1.495569	-0.582476	-0.280367
H145	H	0.542294	-0.370145	-0.500629
H146	H	1.042294	0.129855	-0.000629
H147	H	1.008837	-0.416232	-0.975196
H148	H	1.508837	0.083768	-0.475196
C149	C	1.061736	-0.882461	-0.733792
C150	C	1.561736	-0.382461	-0.233792
N151	N	1.008356	-0.864299	-0.771413
N152	N	1.508356	-0.364299	-0.271413
H153	H	0.687947	-0.391181	-0.469151
H154	H	1.187947	0.108819	0.030849
C155	C	0.418767	-0.316137	-0.581302
C156	C	0.918767	0.183863	-0.081302
N157	N	0.342467	-0.324703	-0.568524
N158	N	0.842467	0.175297	-0.068524
C159	C	1.359762	-0.107715	-1.346028
C160	C	1.859762	0.392285	-0.846028
N161	N	1.401806	-0.070745	-1.390472
N162	N	1.901806	0.429255	-0.890472
H163	H	1.321934	-0.833131	-0.550690
H164	H	1.821934	-0.333131	-0.050690
C165	C	0.677964	-0.133632	-0.853794
C166	C	1.177964	0.366368	-0.353794
N167	N	0.709869	-0.099043	-0.905428
N168	N	1.209869	0.400957	-0.405428
H169	H	0.499886	-0.164342	-0.807997
H170	H	0.999886	0.335658	-0.307997
C171	C	1.332483	-0.974576	-0.543358
C172	C	1.832483	-0.474576	-0.043358
N173	N	1.385901	-0.992751	-0.505804
N174	N	1.885901	-0.492751	-0.005804
H175	H	0.855028	-0.372420	-0.497142
H176	H	1.355028	0.127580	0.002858
H177	H	1.375543	-0.093873	-1.163667
H178	H	1.875543	0.406127	-0.663667
H179	H	1.032251	-0.702969	-0.754333
H180	H	1.532251	-0.202969	-0.254333
C181	C	1.021697	-0.561523	-0.761664
C182	C	1.521697	-0.061523	-0.261664
N183	N	0.968278	-0.543354	-0.799222
N184	N	1.468278	-0.043354	-0.299222
C185	C	0.790486	-0.199552	-0.755311
C186	C	1.290486	0.300448	-0.255311
N187	N	0.866788	-0.190969	-0.768087
N188	N	1.366788	0.309031	-0.268087
C189	C	1.099971	-0.336101	-1.411559
C190	C	1.599971	0.163899	-0.911559
N191	N	1.086165	-0.348250	-1.487848
N192	N	1.586165	0.151750	-0.987848
H193	H	0.827690	-0.239739	-0.695295
H194	H	1.327690	0.260261	-0.195295
H195	H	1.012644	-0.412866	-1.287934
H196	H	1.512644	0.087134	-0.787934
C197	C	0.959292	-0.459758	-1.153229
C198	C	1.459292	0.040242	-0.653229
N199	N	0.903412	-0.508869	-1.185086
N200	N	1.403412	-0.008869	-0.685086
