data_functionalizedCrystal
_audit_creation_method	'MofGen! by Chris Wilmer'
_symmetry_space_group_name_H-M	'P1'
_symmetry_Int_Tables_number	1
_symmetry_cell_setting	triclinic
loop_
_symmetry_equiv_pos_as_xyz
  x,y,z
_cell_length_a	13.033293
_cell_length_b	15.297327
_cell_length_c	13.032268
_cell_angle_alpha	105.380838
_cell_angle_beta	89.079182
_cell_angle_gamma	107.951422
loop_
_atom_site_label
_atom_site_type_symbol
_atom_site_fract_x
_atom_site_fract_y
_atom_site_fract_z
Zn1	Zn	1.433187	-0.293358	-0.831942
Zn2	Zn	1.933187	0.206642	-0.331942
Zn3	Zn	1.424778	-0.428862	-0.683276
Zn4	Zn	1.924778	0.071138	-0.183276
Zn5	Zn	1.284155	-0.288378	-0.637261
Zn6	Zn	1.784155	0.211622	-0.137261
Zn7	Zn	1.222283	-0.468169	-0.840077
Zn8	Zn	1.722283	0.031831	-0.340077
O9	O	1.341101	-0.369692	-0.748139
O10	O	1.841101	0.130308	-0.248139
O11	O	1.579187	-0.296966	-0.828074
O12	O	2.079187	0.203034	-0.328074
O13	O	1.428499	-0.391692	-0.530076
O14	O	1.928499	0.108308	-0.030076
O15	O	1.333337	-0.157087	-0.640423
O16	O	1.833337	0.342913	-0.140423
O17	O	1.573009	-0.396521	-0.718850
O18	O	2.073009	0.103479	-0.218850
O19	O	1.442830	-0.160745	-0.783454
O20	O	1.942830	0.339255	-0.283454
O21	O	1.325184	-0.288480	-0.496268
O22	O	1.825184	0.211520	0.003732
O23	O	1.128832	-0.326594	-0.648312
O24	O	1.628832	0.173406	-0.148312
O25	O	1.227885	-0.463514	-0.986095
O26	O	1.727885	0.036486	-0.486095
O27	O	1.083375	-0.458686	-0.797320
O28	O	1.583375	0.041314	-0.297320
O29	O	1.382835	-0.335081	-0.980117
O30	O	1.882835	0.164919	-0.480117
O31	O	1.368504	-0.566028	-0.726738
O32	O	1.868504	-0.066028	-0.226738
O33	O	1.219732	-0.594907	-0.841940
O34	O	1.719732	-0.094907	-0.341940
C35	C	1.067958	-0.396366	-0.718707
C36	C	1.567958	0.103634	-0.218707
C37	C	0.951097	-0.407803	-0.706144
C38	C	1.451097	0.092197	-0.206144
C39	C	0.902019	-0.363746	-0.754699
C40	C	1.402019	0.136254	-0.254699
C41	C	0.781237	-0.375566	-0.741717
C42	C	1.281237	0.124434	-0.241717
C43	C	1.286517	-0.614681	-0.790241
C44	C	1.786517	-0.114681	-0.290241
C45	C	1.263256	-0.719484	-0.808298
C46	C	1.763256	-0.219484	-0.308298
C47	C	1.507726	-0.954637	-0.619488
C48	C	2.007726	-0.454637	-0.119488
C49	C	1.529580	-0.856169	-0.602517
C50	C	2.029580	-0.356169	-0.102517
C51	C	1.463002	-0.821993	-0.653961
C52	C	1.963002	-0.321993	-0.153961
C53	C	1.374564	-0.886294	-0.722379
C54	C	1.874564	-0.386294	-0.222379
C55	C	1.352702	-0.984772	-0.739345
C56	C	1.852702	-0.484772	-0.239345
C57	C	1.307978	-0.852128	-0.773818
C58	C	1.807978	-0.352128	-0.273818
C59	C	1.219540	-0.916429	-0.842235
C60	C	1.719540	-0.416429	-0.342235
C61	C	1.197682	-1.014897	-0.859199
C62	C	1.697682	-0.514897	-0.359199
C63	C	1.264261	-1.049073	-0.807755
C64	C	1.764261	-0.549073	-0.307755
C65	C	1.329839	-0.753650	-0.756852
C66	C	1.829839	-0.253650	-0.256852
C67	C	1.174815	-0.783785	-0.876708
C68	C	1.674815	-0.283785	-0.376708
C69	C	1.152961	-0.882253	-0.893679
C70	C	1.652961	-0.382253	-0.393679
C71	C	1.615310	-0.342914	-0.777687
C72	C	2.115310	0.157086	-0.277687
C73	C	1.732162	-0.331503	-0.790279
C74	C	2.232162	0.168497	-0.290279
C75	C	1.299396	-0.404238	-1.022313
C76	C	1.799396	0.095762	-0.522313
C77	C	1.281624	-0.418959	-1.139149
C78	C	1.781624	0.081041	-0.639149
C79	C	1.395923	-0.123746	-0.705899
C80	C	1.895923	0.376254	-0.205899
C81	C	1.419285	-0.018938	-0.687898
C82	C	1.919285	0.481062	-0.187898
C83	C	1.350367	-0.361976	-1.188281
C84	C	1.850367	0.138024	-0.688281
C85	C	1.332001	-0.377190	-1.309038
C86	C	1.832001	0.122810	-0.809038
C87	C	1.382719	-0.335206	-0.475027
C88	C	1.882719	0.164794	0.024973
C89	C	1.400753	-0.320199	-0.358167
C90	C	1.900753	0.179801	0.141833
H91	H	0.733842	-0.422037	-0.690529
H92	H	1.233842	0.077963	-0.190529
C93	C	1.498640	-0.239070	-1.294229
C94	C	1.998640	0.260930	-0.794229
N95	N	1.572369	-0.177966	-1.246071
N96	N	2.072369	0.322034	-0.746071
H97	H	0.779558	-0.285025	-0.841458
H98	H	1.279558	0.214975	-0.341458
H99	H	1.401846	-0.701304	-0.701145
H100	H	1.901846	-0.201304	-0.201145
H101	H	1.601585	-0.803818	-0.546812
H102	H	2.101585	-0.303818	-0.046812
H103	H	1.561919	-0.982473	-0.577603
H104	H	2.061919	-0.482473	-0.077603
H105	H	1.259540	-0.437237	-1.356368
H106	H	1.759540	0.062763	-0.856368
H107	H	1.209168	-0.479002	-1.186483
H108	H	1.709168	0.020998	-0.686483
H109	H	0.903698	-0.454270	-0.654960
H110	H	1.403698	0.045730	-0.154960
C111	C	0.966050	-0.300963	-0.823841
C112	C	1.466050	0.199037	-0.323841
N113	N	1.014278	-0.253672	-0.875920
N114	N	1.514278	0.246328	-0.375920
C115	C	1.487062	-0.713675	-0.635311
C116	C	1.987062	-0.213675	-0.135311
N117	N	1.505195	-0.632085	-0.621271
N118	N	2.005195	-0.132085	-0.121271
H119	H	1.246474	-1.129253	-0.821571
H120	H	1.746474	-0.629253	-0.321571
H121	H	1.125660	-1.067249	-0.914895
H122	H	1.625660	-0.567249	-0.414895
C123	C	1.055674	-0.952997	-0.968927
C124	C	1.555674	-0.452997	-0.468927
N125	N	0.982395	-1.006281	-1.025601
N126	N	1.482395	-0.506281	-0.525601
H127	H	1.120599	-0.755961	-0.918596
H128	H	1.620599	-0.255961	-0.418596
C129	C	1.448245	-0.280849	-1.124337
C130	C	1.948245	0.219151	-0.624337
N131	N	1.521969	-0.219742	-1.076175
N132	N	2.021969	0.280258	-0.576175
