data_functionalizedCrystal
_audit_creation_method	'MofGen! by Chris Wilmer'
_symmetry_space_group_name_H-M	'P1'
_symmetry_Int_Tables_number	1
_symmetry_cell_setting	triclinic
loop_
_symmetry_equiv_pos_as_xyz
  x,y,z
_cell_length_a	16.992694
_cell_length_b	16.992695
_cell_length_c	15.455425
_cell_angle_alpha	92.813861
_cell_angle_beta	87.179027
_cell_angle_gamma	89.331777
loop_
_atom_site_label
_atom_site_type_symbol
_atom_site_fract_x
_atom_site_fract_y
_atom_site_fract_z
O1	O	1.054114	-0.170165	-0.072022
O2	O	1.387447	0.163169	0.261312
O3	O	1.720780	0.496502	0.594645
O4	O	0.825715	-0.168335	-0.072047
O5	O	1.159048	0.164999	0.261286
O6	O	1.492382	0.498332	0.594619
O7	O	0.938998	-0.055049	-0.072028
O8	O	1.272332	0.278284	0.261306
O9	O	1.605665	0.611617	0.594639
O10	O	0.940830	-0.283450	-0.072041
O11	O	1.274164	0.049883	0.261292
O12	O	1.607497	0.383217	0.594625
O13	O	0.932452	-0.048539	0.072232
O14	O	1.265785	0.284794	0.405565
O15	O	1.599118	0.618128	0.738898
O16	O	0.819168	-0.161824	0.072212
O17	O	1.152501	0.171509	0.405545
O18	O	1.485835	0.504842	0.738879
O19	O	1.047567	-0.163654	0.072238
O20	O	1.380900	0.169679	0.405571
O21	O	1.714234	0.503012	0.738904
Cu22	Cu	0.932770	-0.162145	0.085397
Cu23	Cu	1.266103	0.171189	0.418730
Cu24	Cu	1.599436	0.504522	0.752064
Cu25	Cu	0.940512	-0.169844	-0.085207
Cu26	Cu	1.273845	0.163489	0.248127
Cu27	Cu	1.607179	0.496823	0.581460
O28	O	0.934283	-0.276940	0.072218
O29	O	1.267617	0.056394	0.405551
O30	O	1.600950	0.389727	0.738885
C31	C	0.793081	-0.162724	0.000079
C32	C	1.126415	0.170609	0.333413
C33	C	1.459748	0.503943	0.666746
C34	C	0.705597	-0.155696	0.000070
C35	C	1.038931	0.177638	0.333403
C36	C	1.372264	0.510971	0.666736
C37	C	0.659607	-0.223514	0.000066
C38	C	0.992940	0.109820	0.333400
C39	C	1.326273	0.443153	0.666733
C40	C	0.577405	-0.216904	0.000079
C41	C	0.910739	0.116429	0.333412
C42	C	1.244072	0.449763	0.666745
C43	C	0.541197	-0.142476	0.000088
C44	C	0.874530	0.190857	0.333421
C45	C	1.207863	0.524191	0.666755
C46	C	0.587193	-0.074653	0.000094
C47	C	0.920527	0.258681	0.333427
C48	C	1.253860	0.592014	0.666761
C49	C	0.669393	-0.081263	0.000088
C50	C	1.002726	0.252071	0.333421
C51	C	1.336059	0.585404	0.666755
C52	C	0.295881	-0.115080	0.000113
C53	C	0.629214	0.218253	0.333446
C54	C	0.962548	0.551586	0.666780
C55	C	0.213676	-0.108476	0.000116
C56	C	0.547009	0.224858	0.333450
C57	C	0.880342	0.558191	0.666783
C58	C	0.203893	-0.250728	0.000103
C59	C	0.537227	0.082606	0.333436
C60	C	0.870560	0.415939	0.666769
C61	C	0.286095	-0.257331	0.000091
C62	C	0.619428	0.076002	0.333425
C63	C	0.952762	0.409335	0.666758
C64	C	0.332084	-0.189508	0.000102
C65	C	0.665418	0.143825	0.333435
C66	C	0.998751	0.477159	0.666768
N67	N	0.457174	-0.135718	0.000098
N68	N	0.790507	0.197615	0.333431
N69	N	1.123841	0.530948	0.666765
N70	N	0.416105	-0.196266	0.000098
N71	N	0.749438	0.137067	0.333431
N72	N	1.082772	0.470401	0.666765
C73	C	0.933369	-0.022434	0.000102
C74	C	1.266703	0.310899	0.333435
C75	C	1.600036	0.644233	0.666768
C76	C	0.926341	0.065051	0.000101
C77	C	1.259674	0.398384	0.333434
C78	C	1.593007	0.731717	0.666767
C79	C	1.080200	-0.169265	0.000109
C80	C	1.413534	0.164068	0.333443
C81	C	1.746867	0.497401	0.666776
C82	C	1.167685	-0.176294	0.000113
C83	C	1.501018	0.157040	0.333446
C84	C	1.834352	0.490373	0.666780
C85	C	0.939913	-0.309555	0.000087
C86	C	1.273246	0.023778	0.333420
C87	C	1.606579	0.357112	0.666754
C88	C	0.946942	-0.397040	0.000082
C89	C	1.280275	-0.063707	0.333416
C90	C	1.613608	0.269627	0.666749
N91	N	0.927330	-0.156729	0.205390
N92	N	1.260663	0.176604	0.538724
N93	N	1.593997	0.509937	0.872057
C94	C	0.994158	0.111042	0.000109
C95	C	1.327491	0.444375	0.333442
C96	C	1.660825	0.777708	0.666776
C97	C	0.987550	0.193242	0.000100
C98	C	1.320883	0.526575	0.333433
C99	C	1.654216	0.859909	0.666767
C100	C	0.913122	0.229450	0.000089
C101	C	1.246456	0.562783	0.333422
C102	C	1.579789	0.896117	0.666756
C103	C	0.845300	0.183452	0.000078
C104	C	1.178633	0.516786	0.333411
C105	C	1.511967	0.850119	0.666744
C106	C	0.851910	0.101253	0.000081
C107	C	1.185243	0.434587	0.333414
C108	C	1.518576	0.767920	0.666747
C109	C	0.885729	0.474764	0.000074
C110	C	1.219062	0.808097	0.333407
C111	C	1.552395	1.141430	0.666741
C112	C	0.879124	0.556969	0.000074
C113	C	1.212457	0.890302	0.333407
C114	C	1.545791	1.223636	0.666740
C115	C	1.021375	0.566753	0.000094
C116	C	1.354708	0.900086	0.333428
C117	C	1.688041	1.233420	0.666761
C118	C	1.027977	0.484552	0.000102
C119	C	1.361311	0.817885	0.333436
C120	C	1.694644	1.151219	0.666769
C121	C	0.960155	0.438561	0.000087
C122	C	1.293488	0.771895	0.333420
C123	C	1.626822	1.105228	0.666753
N124	N	0.906366	0.313472	0.000082
N125	N	1.239699	0.646805	0.333416
N126	N	1.573032	0.980139	0.666749
N127	N	0.966913	0.354541	0.000087
N128	N	1.300246	0.687874	0.333420
N129	N	1.633579	1.021207	0.666754
N130	N	0.945958	-0.175254	-0.205200
N131	N	1.279291	0.158080	0.128133
N132	N	1.612624	0.491413	0.461467
C133	C	0.897283	-0.126554	0.749386
C134	C	1.230616	0.206780	1.082719
C135	C	1.563950	0.540113	1.416053
C136	C	0.901394	-0.130679	0.658580
C137	C	1.234727	0.202654	0.991913
C138	C	1.568060	0.535987	1.325246
C139	C	0.954176	-0.183509	0.613189
C140	C	1.287509	0.149824	0.946523
C141	C	1.620842	0.483157	1.279856
C142	C	1.002856	-0.232211	0.658610
C143	C	1.336189	0.101122	0.991943
C144	C	1.669522	0.434455	1.325277
C145	C	0.998748	-0.228081	0.749414
C146	C	1.332082	0.105252	1.082748
C147	C	1.665415	0.438585	1.416081
C148	C	0.971903	-0.201301	0.341615
C149	C	1.305236	0.132032	0.674949
C150	C	1.638569	0.465365	1.008282
C151	C	0.976005	-0.205429	0.250804
C152	C	1.309338	0.127904	0.584138
C153	C	1.642671	0.461237	0.917471
C154	C	0.874543	-0.103896	0.250781
C155	C	1.207877	0.229437	0.584114
C156	C	1.541210	0.562771	0.917447
C157	C	0.870437	-0.099774	0.341587
C158	C	1.203771	0.233560	0.674920
C159	C	1.537104	0.566893	1.008253
C160	C	0.919120	-0.148473	0.386999
C161	C	1.252454	0.184861	0.720333
C162	C	1.585787	0.518194	1.053666
N163	N	0.958377	-0.187729	0.520371
N164	N	1.291710	0.145604	0.853704
N165	N	1.625044	0.478937	1.187038
N166	N	0.914922	-0.144248	0.479816
N167	N	1.248256	0.189085	0.813150
N168	N	1.581589	0.522418	1.146483
H169	H	0.706838	-0.026038	0.000090
H170	H	1.040171	0.307296	0.333423
H171	H	1.373505	0.640629	0.666757
O172	O	1.060699	0.242844	0.000123
O173	O	1.394032	0.576177	0.333457
O174	O	1.727365	0.909511	0.666790
H175	H	1.098751	0.226749	-0.058661
H176	H	1.432084	0.560083	0.274673
H177	H	1.765417	0.893416	0.608006
O178	O	0.548141	0.005625	0.000113
O179	O	0.881474	0.338958	0.333446
O180	O	1.214808	0.672291	0.666780
H181	H	0.568929	0.035815	-0.058678
H182	H	0.902262	0.369148	0.274656
H183	H	1.235596	0.702482	0.607989
O184	O	1.094521	0.616358	0.000111
O185	O	1.427855	0.949692	0.333444
O186	O	1.761188	1.283025	0.666778
H187	H	1.132568	0.600267	-0.058678
H188	H	1.465901	0.933600	0.274655
H189	H	1.799234	1.266933	0.607989
O190	O	1.108253	0.445497	0.000093
O191	O	1.441586	0.778831	0.333427
O192	O	1.774920	1.112164	0.666760
H193	H	1.154303	0.491288	0.000085
H194	H	1.487636	0.824621	0.333418
H195	H	1.820969	1.157955	0.666751
H196	H	0.539963	-0.272129	0.000075
H197	H	0.873296	0.061204	0.333408
H198	H	1.206629	0.394537	0.666742
O199	O	1.032941	-0.262415	0.201853
O200	O	1.366275	0.070918	0.535186
O201	O	1.699608	0.404252	0.868520
H202	H	0.999717	-0.304222	0.160511
H203	H	1.333051	0.029112	0.493844
H204	H	1.666384	0.362445	0.827178
H205	H	0.818513	0.586447	0.000079
H206	H	1.151846	0.919780	0.333412
H207	H	1.485180	1.253113	0.666745
H208	H	1.038385	-0.267738	0.786389
H209	H	1.371718	0.065596	1.119723
H210	H	1.705052	0.398929	1.453056
H211	H	1.054764	0.081568	0.000124
H212	H	1.388098	0.414901	0.333457
H213	H	1.721431	0.748235	0.666790
O214	O	0.812580	0.425164	0.000079
O215	O	1.145914	0.758498	0.333412
O216	O	1.479247	1.091831	0.666746
H217	H	0.759718	0.464155	0.000086
H218	H	1.093051	0.797488	0.333420
H219	H	1.426385	1.130822	0.666753
H220	H	0.784700	0.212939	0.000063
H221	H	1.118033	0.546272	0.333396
H222	H	1.451367	0.879606	0.666730
H223	H	0.854298	-0.083538	0.786336
H224	H	1.187632	0.249795	1.119670
H225	H	1.520965	0.583129	1.453003
H226	H	0.796685	0.063808	0.000073
H227	H	1.130018	0.397141	0.333407
H228	H	1.463352	0.730474	0.666740
H229	H	1.011544	-0.240956	0.378579
H230	H	1.344877	0.092377	0.711913
H231	H	1.678210	0.425710	1.045246
H232	H	0.861760	-0.091020	0.621608
H233	H	1.195093	0.242313	0.954941
H234	H	1.528426	0.575646	1.288274
O235	O	0.325153	-0.337606	0.000082
O236	O	0.658486	-0.004272	0.333415
O237	O	0.991819	0.329061	0.666749
H238	H	0.359716	-0.341359	0.058873
H239	H	0.693049	-0.008026	0.392206
H240	H	1.026382	0.325307	0.725539
H241	H	1.045836	-0.275223	0.621646
H242	H	1.379169	0.058110	0.954979
H243	H	1.712502	0.391444	1.288313
H244	H	0.827458	-0.056753	0.378538
H245	H	1.160791	0.276580	0.711871
H246	H	1.494125	0.609914	1.045204
O247	O	0.822080	-0.051328	0.201803
O248	O	1.155414	0.282005	0.535136
O249	O	1.488747	0.615339	0.868469
H250	H	0.833819	-0.063054	0.131035
H251	H	1.167153	0.270279	0.464368
H252	H	1.500486	0.603613	0.797701
H253	H	0.166440	-0.305945	0.000096
H254	H	0.499773	0.027388	0.333429
H255	H	0.833107	0.360721	0.666763
O256	O	0.698659	-0.303790	0.000065
O257	O	1.031993	0.029544	0.333398
O258	O	1.365326	0.362877	0.666731
H259	H	0.652865	-0.349836	0.000076
H260	H	0.986198	-0.016503	0.333409
H261	H	1.319532	0.316831	0.666742
O262	O	0.174616	-0.028196	0.000135
O263	O	0.507950	0.305137	0.333468
O264	O	0.841283	0.638471	0.666802
H265	H	0.220404	0.017857	0.000150
H266	H	0.553738	0.351190	0.333484
H267	H	0.887071	0.684523	0.666817
H268	H	0.333316	-0.059853	0.000122
H269	H	0.666649	0.273480	0.333456
H270	H	0.999983	0.606813	0.666789
