data_functionalizedCrystal
_audit_creation_method	'MofGen! by Chris Wilmer'
_symmetry_space_group_name_H-M	'P1'
_symmetry_Int_Tables_number	1
_symmetry_cell_setting	triclinic
loop_
_symmetry_equiv_pos_as_xyz
  x,y,z
_cell_length_a	21.395362
_cell_length_b	21.395362
_cell_length_c	21.395356
_cell_angle_alpha	90.039977
_cell_angle_beta	89.970423
_cell_angle_gamma	89.954240
loop_
_atom_site_label
_atom_site_type_symbol
_atom_site_fract_x
_atom_site_fract_y
_atom_site_fract_z
Zn1	Zn	-0.249146	-0.957824	-0.354648
Zn2	Zn	0.250854	-0.457824	0.145352
Zn3	Zn	-0.353923	-0.957747	-0.249868
Zn4	Zn	0.146077	-0.457747	0.250132
Zn5	Zn	-0.249197	-0.853053	-0.249842
Zn6	Zn	0.250803	-0.353053	0.250158
Zn7	Zn	-0.353923	-0.853014	-0.354565
Zn8	Zn	0.146077	-0.353014	0.145435
O9	O	-0.301547	-0.905409	-0.302231
O10	O	0.198453	-0.405409	0.197769
O11	O	-0.263024	-1.045491	-0.340794
O12	O	0.236976	-0.545491	0.159206
O13	O	-0.340053	-0.943843	-0.162187
O14	O	0.159947	-0.443843	0.337813
O15	O	-0.161512	-0.867000	-0.263768
O16	O	0.338488	-0.367000	0.236232
O17	O	-0.340003	-1.045435	-0.263813
O18	O	0.159997	-0.545435	0.236187
O19	O	-0.161475	-0.943974	-0.340769
O20	O	0.338525	-0.443974	0.159231
O21	O	-0.263111	-0.866926	-0.162167
O22	O	0.236889	-0.366926	0.337833
O23	O	-0.263110	-0.765370	-0.263688
O24	O	0.236890	-0.265370	0.236312
O25	O	-0.340002	-0.866933	-0.442254
O26	O	0.159998	-0.366933	0.057746
O27	O	-0.340052	-0.765341	-0.340628
O28	O	0.159948	-0.265341	0.159372
O29	O	-0.263023	-0.943936	-0.442315
O30	O	0.236977	-0.443936	0.057685
O31	O	-0.441601	-0.943805	-0.263733
O32	O	0.058399	-0.443805	0.236267
O33	O	-0.441601	-0.866858	-0.340653
O34	O	0.058399	-0.366858	0.159347
C35	C	-0.301587	-0.742622	-0.302146
C36	C	0.198413	-0.242622	0.197854
C37	C	-0.301619	-0.672980	-0.302125
C38	C	0.198381	-0.172980	0.197875
C39	C	-0.341737	-0.640269	-0.342125
C40	C	0.158263	-0.140269	0.157875
C41	C	-0.341725	-0.574833	-0.342149
C42	C	0.158275	-0.074833	0.157851
C43	C	-0.301601	-0.542112	-0.302161
C44	C	0.198399	-0.042112	0.197839
C45	C	-0.261475	-0.574832	-0.262158
C46	C	0.238525	-0.074832	0.237842
C47	C	-0.261484	-0.640266	-0.262140
C48	C	0.238516	-0.140266	0.237860
C49	C	-0.296567	-0.438395	-0.245748
C50	C	0.203433	0.061605	0.254252
C51	C	-0.296562	-0.372962	-0.245765
C52	C	0.203438	0.127038	0.254235
C53	C	-0.301568	-0.340291	-0.302215
C54	C	0.198432	0.159709	0.197785
C55	C	-0.306592	-0.373062	-0.358651
C56	C	0.193408	0.126938	0.141349
C57	C	-0.306602	-0.438496	-0.358633
C58	C	0.193398	0.061504	0.141367
C59	C	-0.301586	-0.471160	-0.302175
C60	C	0.198414	0.028840	0.197825
C61	C	-0.341675	-0.236627	-0.342244
C62	C	0.158325	0.263373	0.157756
C63	C	-0.341658	-0.171190	-0.342268
C64	C	0.158342	0.328810	0.157732
C65	C	-0.261411	-0.171190	-0.262272
C66	C	0.238589	0.328810	0.237728
C67	C	-0.261425	-0.236626	-0.262253
C68	C	0.238575	0.263374	0.237747
C69	C	-0.301560	-0.269340	-0.302238
C70	C	0.198440	0.230660	0.197762
C71	C	-0.464335	-0.905336	-0.302200
C72	C	0.035665	-0.405336	0.197800
C73	C	-0.533976	-0.905362	-0.302208
C74	C	-0.033976	-0.405362	0.197792
C75	C	-1.035752	-0.945626	-0.262280
C76	C	-0.535752	-0.445626	0.237720
C77	C	-0.970316	-0.945603	-0.262265
C78	C	-0.470316	-0.445603	0.237735
C79	C	-0.937614	-0.905498	-0.302276
C80	C	-0.437614	-0.405498	0.197724
C81	C	-0.970353	-0.865403	-0.342292
C82	C	-0.470353	-0.365403	0.157708
C83	C	-1.035788	-0.865423	-0.342301
C84	C	-0.535788	-0.365423	0.157699
C85	C	-0.833916	-0.900482	-0.358704
C86	C	-0.333916	-0.400482	0.141296
C87	C	-0.768483	-0.900466	-0.358696
C88	C	-0.268483	-0.400466	0.141304
C89	C	-0.735794	-0.905432	-0.302247
C90	C	-0.235794	-0.405432	0.197753
C91	C	-0.768546	-0.910426	-0.245805
C92	C	-0.268546	-0.410426	0.254195
C93	C	-0.833980	-0.910446	-0.245814
C94	C	-0.333980	-0.410446	0.254186
C95	C	-0.866662	-0.905471	-0.302270
C96	C	-0.366662	-0.405471	0.197730
C97	C	-0.632110	-0.945495	-0.262214
C98	C	-0.132110	-0.445495	0.237786
C99	C	-0.566673	-0.945467	-0.262199
C100	C	-0.066673	-0.445467	0.237801
C101	C	-0.566712	-0.865271	-0.342231
C102	C	-0.066712	-0.365271	0.157769
C103	C	-0.632147	-0.865296	-0.342241
C104	C	-0.132147	-0.365296	0.157759
C105	C	-0.664842	-0.905411	-0.302234
C106	C	-0.164842	-0.405411	0.197766
C107	C	-0.138124	-0.905500	-0.302275
C108	C	0.361876	-0.405500	0.197725
C109	C	-0.068483	-0.905539	-0.302294
C110	C	0.431517	-0.405539	0.197706
C111	C	-0.301507	-0.905438	-0.465654
C112	C	0.198493	-0.405438	0.034346
C113	C	-0.301490	-0.905451	-0.535295
C114	C	0.198510	-0.405451	-0.035295
C115	C	-0.301518	-0.068833	-0.302298
C116	C	0.198482	0.431167	0.197702
C117	C	-0.301532	-0.138474	-0.302281
C118	C	0.198468	0.361526	0.197719
C119	C	-0.261307	-0.945605	-1.037125
C120	C	0.238693	-0.445605	-0.537125
C121	C	-0.261322	-0.945600	-0.971689
C122	C	0.238678	-0.445600	-0.471689
C123	C	-0.301406	-0.905504	-0.938934
C124	C	0.198594	-0.405504	-0.438934
C125	C	-0.341490	-0.865422	-0.971620
C126	C	0.158510	-0.365422	-0.471620
C127	C	-0.341478	-0.865432	-1.037054
C128	C	0.158522	-0.365432	-0.537054
C129	C	-0.306386	-0.849036	-0.835235
C130	C	0.193614	-0.349036	-0.335235
C131	C	-0.306394	-0.849024	-0.769802
C132	C	0.193606	-0.349024	-0.269802
C133	C	-0.301446	-0.905472	-0.737113
C134	C	0.198554	-0.405472	-0.237113
C135	C	-0.296479	-0.961934	-0.769866
C136	C	0.203521	-0.461934	-0.269866
C137	C	-0.296467	-0.961944	-0.835300
C138	C	0.203533	-0.461944	-0.335300
C139	C	-0.301424	-0.905489	-0.867982
C140	C	0.198576	-0.405489	-0.367982
C141	C	-0.261385	-0.945550	-0.633483
C142	C	0.238615	-0.445550	-0.133483
C143	C	-0.261404	-0.945546	-0.568046
C144	C	0.238596	-0.445546	-0.068046
C145	C	-0.341569	-0.865362	-0.567978
C146	C	0.158431	-0.365362	-0.067978
C147	C	-0.341553	-0.865372	-0.633413
C148	C	0.158447	-0.365372	-0.133413
C149	C	-0.301457	-0.905465	-0.666162
C150	C	0.198543	-0.405465	-0.166162
C151	C	-0.301542	-0.905416	-0.139443
C152	C	0.198458	-0.405416	0.360557
C153	C	-0.301383	-0.905526	-0.069802
C154	C	0.198617	-0.405526	0.430198
H155	H	-0.310668	-0.346463	-0.404619
H156	H	0.189332	0.153537	0.095381
C157	C	-0.217353	-0.676250	-0.218131
C158	C	0.282647	-0.176250	0.281869
N159	N	-0.184114	-0.703354	-0.184982
N160	N	0.315886	-0.203354	0.315018
C161	C	-0.530669	-0.989560	-0.218168
C162	C	-0.030669	-0.489560	0.281832
N163	N	-0.503551	-1.022768	-0.185001
N164	N	-0.003551	-0.522768	0.314999
C165	C	-0.385817	-0.272615	-0.386235
C166	C	0.114183	0.227385	0.113765
N167	N	-0.419063	-0.299719	-0.419372
N168	N	0.080937	0.200281	0.080628
C169	C	-0.311828	-0.786934	-0.871186
C170	C	0.188172	-0.286934	-0.371186
N171	N	-0.315927	-0.740160	-0.898263
N172	N	0.184073	-0.240160	-0.398263
H173	H	-0.741931	-0.914470	-0.199840
H174	H	-0.241931	-0.414470	0.300160
C175	C	-0.217338	-0.538838	-0.218170
C176	C	0.282662	-0.038838	0.281830
N177	N	-0.184092	-0.511727	-0.185039
N178	N	0.315908	-0.011727	0.314961
C179	C	-1.071712	-0.989748	-0.218263
C180	C	-0.571712	-0.489748	0.281737
N181	N	-1.098799	-1.022978	-0.185107
N182	N	-0.598799	-0.522978	0.314893
H183	H	-0.860526	-0.896552	-0.404684
H184	H	-0.360526	-0.396552	0.095316
H185	H	-0.292448	-1.007899	-0.743252
H186	H	0.207552	-0.507899	-0.243252
H187	H	-1.062437	-0.832780	-0.374888
H188	H	-0.562437	-0.332780	0.125112
C189	C	-0.291062	-0.474326	-0.183643
C190	C	0.208938	0.025674	0.316357
N191	N	-0.286917	-0.501389	-0.136868
N192	N	0.213083	-0.001389	0.363132
H193	H	-0.374325	-0.144557	-0.374845
H194	H	0.125675	0.355443	0.125155
C195	C	-0.217231	-0.989690	-0.935736
C196	C	0.282769	-0.489690	-0.435736
N197	N	-0.184019	-1.022897	-0.908658
N198	N	0.315981	-0.522897	-0.408658
H199	H	-0.943662	-0.978248	-0.229680
H200	H	-0.443662	-0.478248	0.270320
C201	C	-0.217205	-0.989714	-1.073144
C202	C	0.282795	-0.489714	-0.573144
N203	N	-0.183989	-1.022938	-1.100275
N204	N	0.316011	-0.522938	-0.600275
C205	C	-0.530744	-0.821154	-0.386242
C206	C	-0.030744	-0.321154	0.113758
N207	N	-0.503649	-0.787924	-0.419392
N208	N	-0.003649	-0.287924	0.080608
H209	H	-0.943724	-0.832748	-0.374868
H210	H	-0.443724	-0.332748	0.125132
C211	C	-0.312128	-0.474541	-0.420711
C212	C	0.187872	0.025459	0.079289
N213	N	-0.316289	-0.501690	-0.467470
N214	N	0.183711	-0.001690	0.032530
H215	H	-0.658732	-0.978159	-0.229637
H216	H	-0.158732	-0.478159	0.270363
C217	C	-0.385664	-0.821257	-0.531951
C218	C	0.114336	-0.321257	-0.031951
N219	N	-0.418878	-0.788036	-0.504812
N220	N	0.081122	-0.288036	-0.004812
H221	H	-0.228771	-0.978189	-0.541441
H222	H	0.271229	-0.478189	-0.041441
C223	C	-0.385633	-0.821273	-0.669360
C224	C	0.114367	-0.321273	-0.169360
N225	N	-0.418837	-0.788056	-0.696435
N226	N	0.081163	-0.288056	-0.196435
H227	H	-0.228738	-0.144550	-0.229715
H228	H	0.271262	0.355450	0.270285
H229	H	-0.228759	-0.263260	-0.229677
H230	H	0.271241	0.236740	0.270323
C231	C	-0.291031	-0.336921	-0.183685
C232	C	0.208969	0.163079	0.316315
N233	N	-0.286862	-0.309776	-0.136925
N234	N	0.213138	0.190224	0.363075
H235	H	-0.860644	-0.914511	-0.199857
H236	H	-0.360644	-0.414511	0.300143
H237	H	-0.658797	-0.832654	-0.374827
H238	H	-0.158797	-0.332654	0.125173
H239	H	-0.292423	-1.007917	-0.861964
H240	H	0.207577	-0.507917	-0.361964
C241	C	-0.385563	-0.821335	-1.073001
C242	C	0.114437	-0.321335	-0.573001
N243	N	-0.418766	-0.788119	-1.100077
N244	N	0.081234	-0.288119	-0.600077
C245	C	-0.217286	-0.989660	-0.669508
C246	C	0.282714	-0.489660	-0.169508
N247	N	-0.184072	-1.022885	-0.696641
N248	N	0.315928	-0.522885	-0.196641
C249	C	-0.732462	-0.894972	-0.420783
C250	C	-0.232462	-0.394972	0.079217
N251	N	-0.705333	-0.890831	-0.467549
N252	N	-0.205333	-0.390831	0.032451
H253	H	-0.374393	-0.548194	-0.374724
H254	H	0.125607	-0.048194	0.125276
C255	C	-0.385885	-0.676250	-0.386113
C256	C	0.114115	-0.176250	0.113887
N257	N	-0.419137	-0.703353	-0.419245
N258	N	0.080863	-0.203353	0.080755
C259	C	-0.311854	-0.786915	-0.733780
C260	C	0.188146	-0.286915	-0.233780
N261	N	-0.315966	-0.740133	-0.706650
N262	N	0.184034	-0.240133	-0.206650
C263	C	-0.385581	-0.821314	-0.935588
C264	C	0.114419	-0.321314	-0.435588
N265	N	-0.418793	-0.788092	-0.908449
N266	N	0.081207	-0.288092	-0.408449
