data_functionalizedCrystal
_audit_creation_method	'MofGen! by Chris Wilmer'
_symmetry_space_group_name_H-M	'P1'
_symmetry_Int_Tables_number	1
_symmetry_cell_setting	triclinic
loop_
_symmetry_equiv_pos_as_xyz
  x,y,z
_cell_length_a	11.026607
_cell_length_b	10.489741
_cell_length_c	9.482900
_cell_angle_alpha	99.430409
_cell_angle_beta	78.636152
_cell_angle_gamma	96.562595
loop_
_atom_site_label
_atom_site_type_symbol
_atom_site_fract_x
_atom_site_fract_y
_atom_site_fract_z
O1	O	1.633618	0.519526	-0.120902
O2	O	1.279780	0.458584	-0.120903
O3	O	1.464749	0.305229	-0.120894
O4	O	1.448649	0.672881	-0.120911
O5	O	1.427179	0.336539	0.120897
O6	O	1.242210	0.489894	0.120887
O7	O	1.596048	0.550836	0.120889
Cu8	Cu	1.415698	0.523224	0.142965
Cu9	Cu	1.460129	0.486196	-0.142980
O10	O	1.411079	0.704190	0.120879
C11	C	1.215686	0.462996	-0.000008
C12	C	1.080679	0.429482	-0.000008
C13	C	1.444748	0.273085	0.000000
C14	C	1.441110	0.130655	-0.000002
C15	C	1.007683	0.522021	-0.000014
C16	C	0.868146	0.487384	-0.000014
C17	C	1.323420	0.036624	-0.000013
C18	C	1.360492	-0.027831	0.119202
C19	C	1.397561	-0.058669	-0.119184
C20	C	1.478215	0.068088	0.119312
C21	C	1.515284	0.037242	-0.119182
C22	C	1.552438	-0.027163	0.000063
C23	C	1.660143	0.546423	-0.000010
C24	C	1.795151	0.579936	-0.000019
C25	C	1.431080	0.736334	-0.000018
C26	C	1.434720	0.878763	-0.000025
N27	N	1.384457	0.549268	0.344084
N28	N	1.491380	0.460144	-0.344099
C29	C	1.450906	0.493869	0.416286
C30	C	1.424922	0.515551	0.583703
H31	H	1.048490	0.626890	-0.000010
O32	O	1.356993	-0.124412	-0.239469
C33	C	1.403624	-0.276030	-0.458960
C34	C	1.449722	-0.201686	-0.322793
H35	H	1.478582	-0.338503	-0.526381
H36	H	1.315869	-0.340632	-0.424651
H37	H	1.382317	-0.203910	-0.526708
H38	H	1.471101	-0.273713	-0.254985
H39	H	1.537436	-0.137065	-0.357201
H40	H	0.835951	0.684814	-0.000014
O41	O	1.593483	0.071646	-0.239380
C42	C	1.802167	0.076640	-0.376649
C43	C	1.713748	0.037582	-0.240471
H44	H	1.899426	0.049140	-0.377560
H45	H	1.767746	0.023950	-0.478262
H46	H	1.804797	0.185843	-0.374887
H47	H	1.711078	-0.071601	-0.242092
H48	H	1.748202	0.090364	-0.138917
O49	O	1.518937	0.133302	0.239735
C50	C	1.589999	0.117892	0.460441
C51	C	1.543932	0.043875	0.324109
H52	H	1.610196	0.045623	0.528710
H53	H	1.678372	0.181691	0.426338
H54	H	1.515439	0.181174	0.527256
H55	H	1.618404	-0.019477	0.257233
H56	H	1.455529	-0.019843	0.358311
O57	O	1.333936	0.591113	0.657737
C58	C	1.116072	0.624042	0.704574
C59	C	1.218985	0.538342	0.620665
H60	H	1.023114	0.581425	0.674609
H61	H	1.111187	0.628012	0.826409
H62	H	1.137751	0.726201	0.674746
H63	H	1.197379	0.436143	0.650371
H64	H	1.223845	0.534482	0.498850
H65	H	1.295034	-0.056746	0.219990
O66	O	0.819498	0.362280	0.000246
C67	C	0.784074	0.175490	0.125468
C68	C	0.839195	0.317171	0.125373
H69	H	0.800002	0.138968	0.226607
H70	H	0.680189	0.169782	0.125561
H71	H	0.831303	0.112799	0.024234
H72	H	0.792063	0.379947	0.226591
H73	H	0.943085	0.322778	0.125205
O74	O	1.582263	0.384472	0.581817
C75	C	1.800109	0.351382	0.534369
C76	C	1.697363	0.437205	0.618481
H77	H	1.893196	0.393999	0.563957
H78	H	1.778549	0.249210	0.564184
H79	H	1.804653	0.347445	0.412600
H80	H	1.692764	0.441250	0.740269
H81	H	1.718965	0.539332	0.588545
O82	O	1.293552	0.624991	0.417963
C83	C	1.133916	0.758194	0.402267
C84	C	1.236812	0.672444	0.318425
H85	H	1.088030	0.796606	0.321828
H86	H	1.061447	0.698412	0.473503
H87	H	1.176164	0.843126	0.473558
H88	H	1.194676	0.587501	0.247055
H89	H	1.309267	0.732318	0.247281
O90	O	1.032025	0.304385	0.000252
C91	C	0.996601	0.117595	0.125474
C92	C	1.051723	0.259276	0.125379
H93	H	1.012530	0.081073	0.226612
H94	H	0.892716	0.111886	0.125567
H95	H	1.043830	0.054904	0.024239
H96	H	1.004591	0.322052	0.226596
H97	H	1.155613	0.264883	0.125210
O98	O	1.207934	0.070301	-0.000071
C99	C	1.033962	0.041649	-0.124500
C100	C	1.164729	0.003373	-0.124606
H101	H	0.999003	-0.012423	-0.225191
H102	H	0.968126	0.015203	-0.022806
H103	H	1.037989	0.150590	-0.125466
H104	H	1.160823	-0.105561	-0.123692
H105	H	1.230513	0.029913	-0.226292
H106	H	1.649280	-0.055274	0.000129
H107	H	1.527029	0.430383	0.354162
