data_functionalizedCrystal
_audit_creation_method	'MofGen! by Chris Wilmer'
_symmetry_space_group_name_H-M	'P1'
_symmetry_Int_Tables_number	1
_symmetry_cell_setting	triclinic
loop_
_symmetry_equiv_pos_as_xyz
  x,y,z
_cell_length_a	16.109301
_cell_length_b	17.699083
_cell_length_c	14.586319
_cell_angle_alpha	89.995320
_cell_angle_beta	89.999213
_cell_angle_gamma	83.372248
loop_
_atom_site_label
_atom_site_type_symbol
_atom_site_fract_x
_atom_site_fract_y
_atom_site_fract_z
O1	O	1.102963	0.097285	-0.076184
O2	O	0.860880	0.109391	-0.076199
O3	O	0.988761	-0.006841	-0.076183
O4	O	0.975082	0.213517	-0.076200
O5	O	0.988752	-0.006843	0.076298
O6	O	0.860872	0.109390	0.076282
O7	O	1.102954	0.097283	0.076297
Cu8	Cu	0.981912	0.103336	0.090212
Cu9	Cu	0.981923	0.103338	-0.090114
O10	O	0.975074	0.213516	0.076281
C11	C	0.829902	0.108900	0.000040
C12	C	0.737609	0.107430	0.000034
C13	C	0.515224	0.172981	0.000040
C14	C	0.428506	0.171594	0.000046
C15	C	0.448618	0.033688	0.000053
C16	C	0.535334	0.035076	0.000053
C17	C	0.568635	0.104725	0.000042
C18	C	0.395200	0.101949	0.000047
C19	C	0.301177	0.100445	0.000054
C20	C	0.662664	0.106230	0.000037
C21	C	0.988267	-0.035040	0.000057
C22	C	0.986796	-0.119060	0.000058
C23	C	1.061860	-0.167574	0.000064
C24	C	1.060473	-0.246519	0.000055
C25	C	0.984022	-0.276949	0.000048
C26	C	0.908953	-0.228429	0.000039
C27	C	0.910341	-0.149485	0.000041
C28	C	0.903356	-0.546800	0.000031
C29	C	0.901974	-0.625750	0.000033
C30	C	1.053488	-0.643834	0.000046
C31	C	1.054876	-0.564890	0.000048
C32	C	0.979807	-0.516377	0.000034
C33	C	0.981312	-0.430776	0.000041
C34	C	0.982517	-0.362549	0.000047
C35	C	1.133933	0.097774	0.000056
C36	C	1.226226	0.099244	0.000055
C37	C	0.975568	0.241714	0.000038
C38	C	0.977039	0.325734	0.000032
N39	N	0.981911	0.103334	0.217044
N40	N	0.981931	0.103334	-0.216946
C41	C	1.038555	0.051884	0.452057
C42	C	1.038558	0.051882	0.548038
C43	C	0.925280	0.154787	0.548034
C44	C	0.925274	0.154785	0.452054
C45	C	0.981917	0.103334	0.404068
C46	C	0.981925	0.103334	0.596029
C47	C	0.981927	0.103333	0.700096
C48	C	0.981914	0.103334	0.299995
H49	H	1.124115	-0.142805	0.000075
C50	C	0.486631	0.309155	0.000045
C51	C	0.551829	0.249538	0.000040
H52	H	0.509229	0.356419	0.000053
H53	H	0.453230	0.305750	-0.053126
H54	H	0.453225	0.305734	0.053221
H55	H	0.585231	0.252956	-0.053140
H56	H	0.585244	0.252945	0.053216
C57	C	1.189206	-0.286222	-0.078307
C58	C	1.142989	-0.299841	0.000067
H59	H	1.240153	-0.319138	-0.078295
H60	H	1.157861	-0.295447	-0.131476
H61	H	1.200961	-0.234848	-0.078291
H62	H	1.131229	-0.351215	0.000049
H63	H	1.174341	-0.290623	0.053250
H64	H	0.849216	-0.109986	0.000036
H65	H	0.879165	0.196679	0.587113
H66	H	1.117130	-0.540119	0.000058
C67	C	0.759322	-0.202618	0.000013
C68	C	0.824915	-0.261875	0.000024
H69	H	0.707440	-0.223266	-0.000001
H70	H	0.763008	-0.172209	0.053184
H71	H	0.763028	-0.172199	-0.053163
H72	H	0.821213	-0.292291	0.053204
H73	H	0.821228	-0.292296	-0.053152
C74	C	1.150517	-0.049840	0.461706
C75	C	1.100807	-0.004677	0.399310
H76	H	1.188944	-0.084763	0.429142
H77	H	1.180360	-0.018327	0.499131
H78	H	1.115957	-0.077068	0.499151
H79	H	1.135367	0.022555	0.361870
H80	H	1.070962	-0.036194	0.361869
H81	H	0.839715	-0.650523	0.000028
C82	C	1.118652	-0.772881	0.000035
C83	C	1.136008	-0.697163	0.000046
H84	H	1.169596	-0.805801	0.000031
H85	H	1.087300	-0.782107	0.053201
H86	H	1.087301	-0.782090	-0.053146
H87	H	1.167354	-0.687952	0.053231
H88	H	1.167374	-0.687934	-0.053126
H89	H	0.421494	-0.023018	0.000067
C90	C	0.753449	-0.536866	0.000038
C91	C	0.820841	-0.493481	0.000034
H92	H	0.702506	-0.503945	0.000049
H93	H	0.756059	-0.568025	-0.053133
H94	H	0.756070	-0.568041	0.053214
H95	H	0.818223	-0.462310	-0.053145
H96	H	0.818230	-0.462309	0.053212
H97	H	0.385022	0.227175	0.000046
C98	C	1.056819	-0.051123	0.655977
C99	C	1.100818	-0.004674	0.600787
H100	H	1.095259	-0.086043	0.688535
H101	H	1.023099	-0.020482	0.698290
H102	H	1.022271	-0.078355	0.618528
H103	H	1.135362	0.022562	0.638236
H104	H	1.134552	-0.035318	0.558468
H105	H	0.578824	-0.020510	0.000058
H106	H	0.879149	0.196682	0.412979
