data_functionalizedCrystal
_audit_creation_method	'MofGen! by Chris Wilmer'
_symmetry_space_group_name_H-M	'P1'
_symmetry_Int_Tables_number	1
_symmetry_cell_setting	triclinic
loop_
_symmetry_equiv_pos_as_xyz
  x,y,z
_cell_length_a	14.853567
_cell_length_b	9.065218
_cell_length_c	7.540329
_cell_angle_alpha	90.001757
_cell_angle_beta	89.999988
_cell_angle_gamma	84.325408
loop_
_atom_site_label
_atom_site_type_symbol
_atom_site_fract_x
_atom_site_fract_y
_atom_site_fract_z
O1	O	-1.197788	-0.192614	-0.147353
O2	O	-0.935499	-0.215559	-0.147382
O3	O	-1.072065	0.010663	-0.147363
O4	O	-1.061222	-0.418836	-0.147372
O5	O	-1.072057	0.010666	0.147602
O6	O	-0.935490	-0.215556	0.147583
O7	O	-1.197780	-0.192611	0.147612
Cu8	Cu	-1.066634	-0.204084	0.174530
Cu9	Cu	-1.066644	-0.204087	-0.174300
O10	O	-1.061214	-0.418834	0.147593
C11	C	-0.901898	-0.214518	0.000096
C12	C	-0.801791	-0.211403	0.000085
C13	C	-1.071019	0.065631	0.000116
C14	C	-1.067903	0.229412	0.000107
C15	C	-1.231381	-0.193652	0.000130
C16	C	-1.331487	-0.196768	0.000130
C17	C	-0.388166	-0.063852	0.000128
C18	C	-0.368873	-0.332609	0.000121
C19	C	-0.462929	-0.335539	0.000115
C20	C	-0.519607	-0.202622	0.000113
C21	C	-0.482230	-0.066777	0.000116
C22	C	-0.500313	-0.471382	0.000093
C23	C	-0.594374	-0.474316	0.000085
C24	C	-0.651054	-0.341399	0.000096
C25	C	-0.613672	-0.205548	0.000102
C26	C	-0.670350	-0.072632	0.000100
C27	C	-0.632969	0.063221	0.000118
C28	C	-0.538910	0.066141	0.000127
C29	C	-0.745113	-0.344319	0.000087
C30	C	-0.764414	-0.075557	0.000089
C31	C	-1.062260	-0.473801	0.000110
C32	C	-1.065376	-0.637582	0.000107
N33	N	-1.066634	-0.204080	0.419879
N34	N	-1.066652	-0.204078	-0.419649
H35	H	-0.810556	0.032681	0.000094
H36	H	-0.679129	0.171441	0.000104
H37	H	-0.454159	-0.579594	0.000076
H38	H	-0.624801	-0.584935	0.000070
H39	H	-0.508466	0.176745	0.000184
C40	C	-0.359249	-0.598558	0.000096
C41	C	-0.306577	-0.478706	0.000107
H42	H	-0.320785	-0.688755	0.000076
H43	H	-0.396333	-0.594114	0.102954
H44	H	-0.396342	-0.594098	-0.102769
H45	H	-0.269489	-0.483161	0.102980
H46	H	-0.269477	-0.483152	-0.102761
H47	H	-0.357726	0.046756	0.000149
C48	C	-0.716591	-0.609678	0.000063
C49	C	-0.786203	-0.493632	0.000068
H50	H	-0.741960	-0.701861	0.000064
H51	H	-0.680308	-0.602943	-0.102790
H52	H	-0.680305	-0.602941	0.102932
H53	H	-0.822485	-0.500363	-0.102808
H54	H	-0.822501	-0.500370	0.102932
