data_functionalizedCrystal
_audit_creation_method	'MofGen! by Chris Wilmer'
_symmetry_space_group_name_H-M	'P1'
_symmetry_Int_Tables_number	1
_symmetry_cell_setting	triclinic
loop_
_symmetry_equiv_pos_as_xyz
  x,y,z
_cell_length_a	12.827892
_cell_length_b	12.827893
_cell_length_c	19.076919
_cell_angle_alpha	92.281103
_cell_angle_beta	87.724465
_cell_angle_gamma	89.986399
loop_
_atom_site_label
_atom_site_type_symbol
_atom_site_fract_x
_atom_site_fract_y
_atom_site_fract_z
Zn1	Zn	-0.439844	-1.573889	0.397970
Zn2	Zn	0.060156	-1.073889	0.897970
Zn3	Zn	-0.607580	-1.580815	0.280283
Zn4	Zn	-0.107580	-1.080815	0.780283
Zn5	Zn	-0.432848	-1.406162	0.280288
Zn6	Zn	0.067152	-0.906162	0.780288
Zn7	Zn	-0.614537	-1.399117	0.397939
Zn8	Zn	-0.114537	-0.899117	0.897939
O9	O	-0.523702	-1.489996	0.339120
O10	O	-0.023702	-0.989996	0.839120
O11	O	-0.462111	-1.721043	0.382369
O12	O	0.037889	-1.221043	0.882369
O13	O	-0.578562	-1.563494	0.181795
O14	O	-0.078562	-1.063494	0.681795
O15	O	-0.287541	-1.428461	0.295914
O16	O	0.212459	-0.928461	0.795914
O17	O	-0.585346	-1.726132	0.295905
O18	O	-0.085346	-1.226132	0.795905
O19	O	-0.292681	-1.551689	0.382374
O20	O	0.207319	-1.051689	0.882374
O21	O	-0.450188	-1.435178	0.181798
O22	O	0.049812	-0.935178	0.681798
O23	O	-0.456933	-1.258992	0.295884
O24	O	0.043067	-0.758992	0.795884
O25	O	-0.597202	-1.416454	0.496432
O26	O	-0.097202	-0.916454	0.996432
O27	O	-0.590419	-1.253817	0.382322
O28	O	-0.090419	-0.753817	0.882322
O29	O	-0.468857	-1.544858	0.496455
O30	O	0.031143	-1.044858	0.996455
O31	O	-0.754738	-1.556663	0.295876
O32	O	-0.254738	-1.056663	0.795876
O33	O	-0.759849	-1.423170	0.382317
O34	O	-0.259849	-0.923170	0.882317
C35	C	-0.523673	-1.218487	0.339101
C36	C	-0.023673	-0.718487	0.839101
C37	C	-0.523686	-1.102334	0.339109
C38	C	-0.023686	-0.602334	0.839109
C39	C	-0.462820	-1.048027	0.381959
C40	C	0.037180	-0.548027	0.881959
C41	C	-0.462833	-0.927976	0.381969
C42	C	0.037167	-0.427976	0.881969
C43	C	-0.795211	-1.489931	0.339108
C44	C	-0.295211	-0.989931	0.839108
C45	C	-0.911366	-1.489998	0.339126
C46	C	-0.411366	-0.989998	0.839126
C47	C	-0.960590	-1.556127	0.296400
C48	C	-0.460590	-1.056127	0.796400
C49	C	-1.080641	-1.556197	0.296417
C50	C	-0.580641	-1.056197	0.796417
C51	C	-0.251134	-1.490088	0.339148
C52	C	0.248866	-0.990088	0.839148
C53	C	-0.134981	-1.490128	0.339160
C54	C	0.365019	-0.990128	0.839160
C55	C	-0.534586	-1.479098	0.522695
C56	C	-0.034586	-0.979098	1.022695
C57	C	-0.539224	-1.474453	0.600923
C58	C	-0.039224	-0.974453	1.100923
C59	C	-0.523724	-0.762565	0.339134
C60	C	-0.023724	-0.262565	0.839134
C61	C	-0.523710	-0.878719	0.339126
C62	C	-0.023710	-0.378719	0.839126
C63	C	-0.512786	-1.500912	0.156259
C64	C	-0.012786	-1.000912	0.656259
C65	C	-0.507853	-1.505759	0.078031
C66	C	-0.007853	-1.005759	0.578031
C67	C	-0.474583	-1.539121	0.637688
C68	C	0.025417	-1.039121	1.137688
C69	C	-0.478937	-1.534745	0.711192
C70	C	0.021063	-1.034745	1.211192
C71	C	-0.547937	-1.465705	0.747930
C72	C	-0.047937	-0.965705	1.247930
C73	C	-0.612581	-1.401030	0.711160
C74	C	-0.112581	-0.901030	1.211160
C75	C	-0.608221	-1.405402	0.637657
C76	C	-0.108221	-0.905402	1.137657
C77	C	-0.568137	-1.445456	0.967759
C78	C	-0.068137	-0.945456	1.467759
C79	C	-0.572494	-1.441091	1.041266
C80	C	-0.072494	-0.941091	1.541266
C81	C	-0.438848	-1.574805	1.041293
C82	C	0.061152	-1.074805	1.541293
C83	C	-0.434499	-1.579175	0.967789
C84	C	0.065501	-1.079175	1.467789
C85	C	-0.499138	-1.514496	0.931026
C86	C	0.000862	-1.014496	1.431026
N87	N	-0.552392	-1.461232	0.823063
N88	N	-0.052392	-0.961232	1.323063
N89	N	-0.494678	-1.518965	0.855894
N90	N	0.005322	-1.018965	1.355894
H91	H	-0.410698	-1.090410	0.418635
H92	H	0.089302	-0.590410	0.918635
Cl93	Cl	-0.357589	-1.656106	1.087515
Cl94	Cl	0.142411	-1.156106	1.587515
H95	H	-1.122982	-1.612810	0.259836
H96	H	-0.622982	-1.112810	0.759836
Cl97	Cl	-0.382382	-0.855891	0.438616
Cl98	Cl	0.117618	-0.355891	0.938616
Cl99	Cl	-0.659239	-1.354286	1.087450
Cl100	Cl	-0.159239	-0.854286	1.587450
Cl101	Cl	-0.397716	-1.616092	0.757408
Cl102	Cl	0.102284	-1.116092	1.257408
H103	H	-0.620786	-1.392805	0.937834
H104	H	-0.120786	-0.892805	1.437834
Cl105	Cl	-0.347752	-1.665972	0.921610
Cl106	Cl	0.152248	-1.165972	1.421610
Cl107	Cl	-0.699321	-1.314233	0.757345
Cl108	Cl	-0.199321	-0.814233	1.257345
Cl109	Cl	-0.604176	-0.950797	0.282485
Cl110	Cl	-0.104176	-0.450797	0.782485
H111	H	-0.660848	-1.352732	0.607724
H112	H	-0.160848	-0.852732	1.107724
Cl113	Cl	-0.604152	-1.036907	0.282473
Cl114	Cl	-0.104152	-0.536907	0.782473
H115	H	-0.913857	-1.612695	0.259809
H116	H	-0.413857	-1.112695	0.759809
Cl117	Cl	-0.387840	-1.625924	0.591511
Cl118	Cl	0.112160	-1.125924	1.091511
Cl119	Cl	-1.069623	-1.402704	0.395637
Cl120	Cl	-0.569623	-0.902704	0.895637
Cl121	Cl	-0.983513	-1.402669	0.395629
Cl122	Cl	-0.483513	-0.902669	0.895629
