data_functionalizedCrystal
_audit_creation_method	'MofGen! by Chris Wilmer'
_symmetry_space_group_name_H-M	'P1'
_symmetry_Int_Tables_number	1
_symmetry_cell_setting	triclinic
loop_
_symmetry_equiv_pos_as_xyz
  x,y,z
_cell_length_a	10.686285
_cell_length_b	19.805407
_cell_length_c	19.805399
_cell_angle_alpha	90.016510
_cell_angle_beta	85.609337
_cell_angle_gamma	94.372303
loop_
_atom_site_label
_atom_site_type_symbol
_atom_site_fract_x
_atom_site_fract_y
_atom_site_fract_z
Zn1	Zn	-0.502490	-1.055488	-0.362099
Zn2	Zn	-0.713507	-1.064130	-0.240254
Zn3	Zn	-0.502516	-0.942309	-0.248923
Zn4	Zn	-0.713421	-0.950985	-0.353405
O5	O	-0.607984	-1.003228	-0.301170
O6	O	-0.530507	-1.151352	-0.345946
O7	O	-0.685566	-1.047956	-0.146685
O8	O	-0.325936	-0.950074	-0.271203
O9	O	-0.685541	-1.157701	-0.256427
O10	O	-0.325917	-1.033227	-0.354352
O11	O	-0.530551	-0.958455	-0.153054
O12	O	-0.530467	-0.848742	-0.262772
O13	O	-0.685394	-0.964861	-0.449277
O14	O	-0.685419	-0.855116	-0.339535
O15	O	-0.530423	-1.041639	-0.455664
O16	O	-0.890072	-1.056369	-0.247997
O17	O	-0.890008	-0.973241	-0.331128
C18	C	-0.607937	-0.827370	-0.301151
C19	C	-0.607948	-0.752138	-0.301158
C20	C	-0.527363	-0.713494	-0.347830
C21	C	-0.527367	-0.642806	-0.347830
C22	C	-0.607963	-0.610763	-0.301162
C23	C	-0.688551	-0.649412	-0.254485
C24	C	-0.688540	-0.720099	-0.254482
C25	C	-0.688597	-0.364341	-0.254497
C26	C	-0.688605	-0.293649	-0.254506
C27	C	-0.527425	-0.287048	-0.347846
C28	C	-0.527413	-0.357735	-0.347842
C29	C	-0.607996	-0.396377	-0.301164
C30	C	-0.607989	-0.473025	-0.301163
C31	C	-0.607977	-0.534117	-0.301166
C32	C	-0.935824	-1.016703	-0.287693
C33	C	-1.076076	-1.022529	-0.281951
C34	C	-0.278862	-0.989719	-0.314714
C35	C	-0.138611	-0.983962	-0.320486
C36	C	-0.607896	-1.003254	-0.477716
C37	C	-0.607859	-1.003265	-0.552950
C38	C	-0.608021	-0.179772	-0.301184
C39	C	-0.608013	-0.255004	-0.301175
C40	C	-0.527135	-0.956673	-0.591610
C41	C	-0.527110	-0.956682	-0.662300
C42	C	-0.607804	-1.003285	-0.694328
C43	C	-0.688537	-1.049879	-0.655662
C44	C	-0.688567	-1.049867	-0.584974
C45	C	-0.688419	-1.049928	-0.940740
C46	C	-0.688380	-1.049938	-1.011434
C47	C	-0.526962	-0.956743	-1.018067
C48	C	-0.526992	-0.956731	-0.947378
C49	C	-0.607729	-1.003322	-0.908718
C50	C	-0.607756	-1.003311	-0.832069
C51	C	-0.607771	-1.003299	-0.770976
C52	C	-0.607980	-1.003237	-0.125314
C53	C	-0.607662	-1.003342	-0.050096
H54	H	-0.754214	-0.395795	-0.216489
H55	H	-0.754239	-0.267562	-0.216500
Cl56	Cl	-1.159076	-1.080386	-0.224217
Cl57	Cl	-0.425683	-0.898078	-0.710896
H58	H	-0.461417	-0.918727	-0.565539
Cl59	Cl	-0.426060	-0.594228	-0.406508
Cl60	Cl	-0.789989	-1.108463	-0.695926
Cl61	Cl	-0.790058	-1.108439	-0.536371
H62	H	-0.461279	-0.918783	-0.921305
Cl63	Cl	-0.426094	-0.398013	-0.406516
H64	H	-0.754173	-1.087858	-0.909271
H65	H	-0.461226	-0.918804	-1.049552
Cl66	Cl	-1.055616	-0.926100	-0.378210
H67	H	-0.461736	-0.739578	-0.385834
H68	H	-0.461806	-0.255576	-0.385852
Cl69	Cl	-0.789834	-1.108528	-1.051697
H70	H	-0.754168	-0.623317	-0.216484
H71	H	-0.754159	-0.751562	-0.216477
