data_functionalizedCrystal
_audit_creation_method	'MofGen! by Chris Wilmer'
_symmetry_space_group_name_H-M	'P1'
_symmetry_Int_Tables_number	1
_symmetry_cell_setting	triclinic
loop_
_symmetry_equiv_pos_as_xyz
  x,y,z
_cell_length_a	12.827893
_cell_length_b	16.625545
_cell_length_c	12.827885
_cell_angle_alpha	90.032834
_cell_angle_beta	90.019272
_cell_angle_gamma	90.025528
loop_
_atom_site_label
_atom_site_type_symbol
_atom_site_fract_x
_atom_site_fract_y
_atom_site_fract_z
Zn1	Zn	1.597596	-0.320963	0.590827
Zn2	Zn	1.930929	0.012370	0.924160
Zn3	Zn	2.264262	0.345703	1.257493
Zn4	Zn	1.597459	-0.455817	0.416078
Zn5	Zn	1.930792	-0.122484	0.749411
Zn6	Zn	2.264126	0.210849	1.082744
Zn7	Zn	1.422837	-0.321002	0.416100
Zn8	Zn	1.756170	0.012331	0.749433
Zn9	Zn	2.089504	0.345664	1.082767
Zn10	Zn	1.422791	-0.455757	0.590777
Zn11	Zn	1.756125	-0.122424	0.924111
Zn12	Zn	2.089458	0.210909	1.257444
O13	O	1.510171	-0.388385	0.503445
O14	O	1.843504	-0.055052	0.836779
O15	O	2.176837	0.278282	1.170112
O16	O	1.743814	-0.338861	0.567657
O17	O	2.077147	-0.005527	0.900990
O18	O	2.410480	0.327806	1.234323
O19	O	1.574257	-0.437976	0.269844
O20	O	1.907590	-0.104642	0.603178
O21	O	2.240923	0.228691	0.936511
O22	O	1.446096	-0.208165	0.439308
O23	O	1.779429	0.125168	0.772641
O24	O	2.112762	0.458502	1.105975
O25	O	1.743713	-0.437937	0.439269
O26	O	2.077046	-0.104604	0.772603
O27	O	2.410380	0.228729	1.105936
O28	O	1.574490	-0.208136	0.567679
O29	O	1.907823	0.125197	0.901012
O30	O	2.241157	0.458531	1.234345
O31	O	1.445963	-0.338928	0.269861
O32	O	1.779296	-0.005594	0.603194
O33	O	2.112630	0.327739	0.936528
O34	O	1.276595	-0.338869	0.439260
O35	O	1.609928	-0.005536	0.772594
O36	O	1.943262	0.327797	1.105927
O37	O	1.446018	-0.437835	0.737020
O38	O	1.779351	-0.104502	1.070353
O39	O	2.112684	0.228831	1.403687
O40	O	1.276562	-0.437873	0.567595
O41	O	1.609895	-0.104540	0.900928
O42	O	1.943228	0.228793	1.234262
O43	O	1.574446	-0.338802	0.737056
O44	O	1.907779	-0.005469	1.070389
O45	O	2.241112	0.327864	1.403723
O46	O	1.574212	-0.568642	0.439222
O47	O	1.907546	-0.235309	0.772555
O48	O	2.240879	0.098025	1.105889
O49	O	1.445885	-0.568598	0.567573
O50	O	1.779218	-0.235265	0.900906
O51	O	2.112552	0.098069	1.234240
C52	C	1.238661	-0.388370	0.503426
C53	C	1.571994	-0.055036	0.836759
C54	C	1.905328	0.278297	1.170092
C55	C	1.122508	-0.388382	0.503442
C56	C	1.455841	-0.055049	0.836775
C57	C	1.789174	0.278284	1.170108
C58	C	1.510057	-0.597876	0.503413
C59	C	1.843391	-0.264543	0.836746
C60	C	2.176724	0.068791	1.170079
C61	C	1.510104	-0.687497	0.503433
C62	C	1.843438	-0.354164	0.836767
C63	C	2.176771	-0.020830	1.170100
C64	C	1.070734	-0.437449	0.566848
C65	C	1.404067	-0.104116	0.900181
C66	C	1.737401	0.229217	1.233515
C67	C	0.950684	-0.437464	0.566866
C68	C	1.284017	-0.104130	0.900200
C69	C	1.617350	0.229203	1.233533
C70	C	1.510145	-0.760280	0.503454
C71	C	1.843478	-0.426946	0.836787
C72	C	2.176812	-0.093613	1.170121
C73	C	1.510206	-0.851588	0.503477
C74	C	1.843539	-0.518255	0.836811
C75	C	2.176872	-0.184921	1.170144
C76	C	1.510260	-0.924364	0.503490
C77	C	1.843593	-0.591031	0.836824
C78	C	2.176927	-0.257698	1.170157
C79	C	1.510320	-1.015679	0.503512
C80	C	1.843653	-0.682345	0.836845
C81	C	2.176986	-0.349012	1.170179
C82	C	1.782741	-0.388401	0.503466
C83	C	2.116074	-0.055068	0.836799
C84	C	2.449408	0.278265	1.170133
C85	C	1.898894	-0.388408	0.503475
C86	C	2.232227	-0.055075	0.836808
C87	C	2.565561	0.278258	1.170141
C88	C	1.510242	-0.388308	0.776016
C89	C	1.843575	-0.054974	1.109349
C90	C	2.176909	0.278359	1.442682
C91	C	1.510272	-0.388275	0.892169
C92	C	1.843606	-0.054941	1.225502
C93	C	2.176939	0.278392	1.558836
C94	C	1.510313	-0.178076	0.503501
C95	C	1.843647	0.155257	0.836835
C96	C	2.176980	0.488590	1.170168
C97	C	1.510374	-0.088455	0.503525
C98	C	1.843707	0.244878	0.836858
C99	C	2.177041	0.578212	1.170192
C100	C	1.510160	-0.388404	0.231935
C101	C	1.843493	-0.055071	0.565269
C102	C	2.176827	0.278263	0.898602
C103	C	1.510332	-0.388210	0.115783
C104	C	1.843666	-0.054877	0.449116
C105	C	2.176999	0.278457	0.782450
C106	C	1.573829	-0.339261	0.943972
C107	C	1.907163	-0.005927	1.277305
C108	C	2.240496	0.327406	1.610638
C109	C	1.573862	-0.339225	1.064022
C110	C	1.907196	-0.005892	1.397355
C111	C	2.240529	0.327441	1.730689
H112	H	1.115285	-0.479444	0.621122
H113	H	1.448619	-0.146110	0.954456
H114	H	1.781952	0.187223	1.287789
Cl115	Cl	1.426320	-0.453008	1.047016
Cl116	Cl	1.759653	-0.119674	1.380349
Cl117	Cl	2.092987	0.213659	1.713682
H118	H	0.906159	-0.479474	0.621147
H119	H	1.239493	-0.146140	0.954481
H120	H	1.572826	0.187193	1.287814
H121	H	1.077956	-0.346382	0.449175
H122	H	1.411290	-0.013049	0.782509
H123	H	1.744623	0.320285	1.115842
Cl124	Cl	1.657781	-0.274490	0.875235
Cl125	Cl	1.991114	0.058843	1.208568
Cl126	Cl	2.324447	0.392177	1.541901
H127	H	1.455876	-0.430206	0.936696
H128	H	1.789210	-0.096873	1.270029
H129	H	2.122543	0.236461	1.603362
H130	H	0.943412	-0.346401	0.449184
H131	H	1.276745	-0.013068	0.782517
H132	H	1.610078	0.320266	1.115851
Cl133	Cl	1.657883	-0.274439	1.132796
Cl134	Cl	1.991216	0.058895	1.466129
Cl135	Cl	2.324550	0.392228	1.799463
