data_functionalizedCrystal
_audit_creation_method	'MofGen! by Chris Wilmer'
_symmetry_space_group_name_H-M	'P1'
_symmetry_Int_Tables_number	1
_symmetry_cell_setting	triclinic
loop_
_symmetry_equiv_pos_as_xyz
  x,y,z
_cell_length_a	16.109295
_cell_length_b	10.065875
_cell_length_c	16.109296
_cell_angle_alpha	98.793159
_cell_angle_beta	83.459379
_cell_angle_gamma	81.258551
loop_
_atom_site_label
_atom_site_type_symbol
_atom_site_fract_x
_atom_site_fract_y
_atom_site_fract_z
O1	O	-1.115289	0.113381	-0.094633
O2	O	-0.781956	0.446714	0.238701
O3	O	-0.448622	0.780048	0.572034
O4	O	-0.873228	0.113402	-0.107935
O5	O	-0.539895	0.446735	0.225399
O6	O	-0.206562	0.780068	0.558732
O7	O	-1.000912	0.113405	0.019749
O8	O	-0.667579	0.446738	0.353082
O9	O	-0.334245	0.780072	0.686416
O10	O	-0.987606	0.113378	-0.222317
O11	O	-0.654272	0.446711	0.111017
O12	O	-0.320939	0.780044	0.444350
O13	O	-0.976564	-0.113584	-0.004696
O14	O	-0.643231	0.219749	0.328637
O15	O	-0.309898	0.553082	0.661970
O16	O	-0.848881	-0.113588	-0.132380
O17	O	-0.515548	0.219746	0.200953
O18	O	-0.182214	0.553079	0.534287
O19	O	-1.090942	-0.113608	-0.119078
O20	O	-0.757608	0.219725	0.214255
O21	O	-0.424275	0.553058	0.547589
Zn22	Zn	-0.966046	-0.149638	-0.129610
Zn23	Zn	-0.632712	0.183696	0.203723
Zn24	Zn	-0.299379	0.517029	0.537056
Zn25	Zn	-0.998124	0.149431	-0.097403
Zn26	Zn	-0.664791	0.482764	0.235931
Zn27	Zn	-0.331458	0.816097	0.569264
O28	O	-0.963258	-0.113612	-0.246762
O29	O	-0.629925	0.219721	0.086571
O30	O	-0.296591	0.553055	0.419905
C31	C	-0.830080	-0.000090	-0.119619
C32	C	-0.496747	0.333243	0.213714
C33	C	-0.163413	0.666577	0.547048
C34	C	-0.737785	-0.000081	-0.118005
C35	C	-0.404452	0.333252	0.215329
C36	C	-0.071119	0.666586	0.548662
N37	N	-0.944159	-0.353744	-0.151591
N38	N	-0.610825	-0.020410	0.181743
N39	N	-0.277492	0.312923	0.515076
C40	C	-0.515509	-0.000104	-0.190020
C41	C	-0.182176	0.333230	0.143314
C42	C	0.151158	0.666563	0.476647
C43	C	-0.428787	-0.000112	-0.188498
C44	C	-0.095454	0.333221	0.144835
C45	C	0.237879	0.666555	0.478169
C46	C	-0.448667	-0.000089	-0.037006
C47	C	-0.115333	0.333244	0.296327
C48	C	0.218000	0.666578	0.629660
C49	C	-0.535386	-0.000091	-0.038530
C50	C	-0.202052	0.333243	0.294804
C51	C	0.131281	0.666576	0.628137
C52	C	-0.568805	-0.000091	-0.115038
C53	C	-0.235471	0.333242	0.218295
C54	C	0.097862	0.666575	0.551629
C55	C	-0.395365	-0.000098	-0.111993
C56	C	-0.062031	0.333236	0.221340
C57	C	0.271302	0.666569	0.554674
C58	C	-0.301337	-0.000106	-0.110343
C59	C	0.031996	0.333227	0.222990
C60	C	0.365329	0.666560	0.556324
C61	C	-0.662838	-0.000085	-0.116689
C62	C	-0.329504	0.333248	0.216645
C63	C	0.003829	0.666582	0.549978
C64	C	-0.990504	-0.421521	-0.105045
C65	C	-0.657171	-0.088188	0.228288
C66	C	-0.323837	0.245145	0.561622
C67	C	-0.973666	-0.578689	-0.121968
C68	C	-0.640332	-0.245356	0.211365
C69	C	-0.306999	0.087978	0.544699
C70	C	-0.134090	-0.000112	-0.107398
C71	C	0.199244	0.333221	0.225935
C72	C	0.532577	0.666555	0.559268
C73	C	-0.226384	-0.000108	-0.109026
C74	C	0.106950	0.333226	0.224307
C75	C	0.440283	0.666559	0.557640
C76	C	-0.988201	-0.000083	0.038502
C77	C	-0.654867	0.333250	0.371835
C78	C	-0.321534	0.666584	0.705169
C79	C	-0.986589	-0.000063	0.130800
C80	C	-0.653256	0.333270	0.464133
C81	C	-0.319923	0.666603	0.797466
N82	N	-1.020018	0.353537	-0.075416
N83	N	-0.686685	0.686870	0.257918
N84	N	-0.353351	1.020204	0.591251
C85	C	-0.994594	0.123652	0.443192
C86	C	-0.661260	0.456985	0.776525
C87	C	-0.327927	0.790319	1.109859
C88	C	-0.996122	0.123658	0.356473
C89	C	-0.662788	0.456992	0.689806
C90	C	-0.329455	0.790325	1.023139
C91	C	-0.969589	-0.123818	0.329807
C92	C	-0.636255	0.209515	0.663140
C93	C	-0.302922	0.542849	0.996473
C94	C	-0.968067	-0.123823	0.416525
C95	C	-0.634733	0.209510	0.749859
C96	C	-0.301400	0.542844	1.083192
C97	C	-0.980565	-0.000084	0.473216
C98	C	-0.647232	0.333250	0.806549
C99	C	-0.313899	0.666583	1.139882
C100	C	-0.983615	-0.000073	0.299778
C101	C	-0.650282	0.333261	0.633111
C102	C	-0.316949	0.666594	0.966444
C103	C	-0.985272	-0.000067	0.205753
C104	C	-0.651939	0.333266	0.539086
C105	C	-0.318605	0.666600	0.872419
C106	C	-0.978910	-0.000089	0.567247
C107	C	-0.645577	0.333244	0.900580
C108	C	-0.312243	0.666578	1.233913
C109	C	-0.975972	-0.000111	0.734487
C110	C	-0.642639	0.333222	1.067820
C111	C	-0.309305	0.666556	1.401153
C112	C	-0.977592	-0.000093	0.642194
C113	C	-0.644258	0.333240	0.975527
C114	C	-0.310925	0.666573	1.308860
H115	H	-0.542714	-0.000114	-0.252319
H116	H	-0.209381	0.333219	0.081015
H117	H	0.123952	0.666552	0.414348
H118	H	-0.385396	-0.000125	-0.249556
H119	H	-0.052063	0.333208	0.083777
H120	H	0.281270	0.666542	0.417111
H121	H	-0.421445	-0.000097	0.025284
H122	H	-0.088112	0.333236	0.358617
H123	H	0.245222	0.666570	0.691950
H124	H	-0.578781	-0.000084	0.022533
H125	H	-0.245448	0.333249	0.355866
H126	H	0.087885	0.666582	0.689200
H127	H	-1.007546	0.224416	0.332033
H128	H	-0.674213	0.557750	0.665366
H129	H	-0.340879	0.891083	0.998699
H130	H	-1.042645	-0.363196	-0.052663
H131	H	-0.709312	-0.029862	0.280670
H132	H	-0.375979	0.303471	0.614003
F133	F	-0.905501	-0.654917	-0.190431
F134	F	-0.572167	-0.321583	0.142902
F135	F	-0.238834	0.011750	0.476236
F136	F	-0.956284	-0.255502	0.269466
F137	F	-0.622950	0.077831	0.602799
F138	F	-0.289617	0.411164	0.936133
F139	F	-1.088318	-0.570238	-0.007087
F140	F	-0.754985	-0.236905	0.326247
F141	F	-0.421651	0.096428	0.659580
F142	F	-0.875997	-0.429977	-0.220050
F143	F	-0.542664	-0.096643	0.113283
F144	F	-0.209330	0.236690	0.446617
F145	F	-1.007899	0.255346	0.503524
F146	F	-0.674565	0.588679	0.836857
F147	F	-0.341232	0.922013	1.170190
H148	H	-0.956645	-0.224590	0.440970
H149	H	-0.623312	0.108744	0.774303
H150	H	-0.289978	0.442077	1.107636
