data_functionalizedCrystal
_audit_creation_method	'MofGen! by Chris Wilmer'
_symmetry_space_group_name_H-M	'P1'
_symmetry_Int_Tables_number	1
_symmetry_cell_setting	triclinic
loop_
_symmetry_equiv_pos_as_xyz
  x,y,z
_cell_length_a	19.188930
_cell_length_b	19.188925
_cell_length_c	18.266242
_cell_angle_alpha	89.993996
_cell_angle_beta	89.977082
_cell_angle_gamma	83.143665
loop_
_atom_site_label
_atom_site_type_symbol
_atom_site_fract_x
_atom_site_fract_y
_atom_site_fract_z
O1	O	0.926148	0.087169	-0.061116
O2	O	0.722836	0.098903	-0.061065
O3	O	0.830361	-0.008620	-0.061088
O4	O	0.818623	0.194692	-0.061093
O5	O	0.830343	-0.008625	0.060674
O6	O	0.722818	0.098898	0.060697
O7	O	0.926129	0.087163	0.060646
Zn8	Zn	0.824471	0.093030	0.080004
Zn9	Zn	0.824495	0.093037	-0.080423
O10	O	0.818605	0.194687	0.060669
C11	C	0.696816	0.098520	-0.000178
C12	C	0.619311	0.097380	-0.000159
C13	C	0.574386	0.160471	-0.000172
C14	C	0.501563	0.159399	-0.000180
C15	C	0.473667	0.095233	-0.000189
C16	C	0.518602	0.032134	-0.000172
C17	C	0.591424	0.033207	-0.000157
N18	N	0.365694	0.046188	-0.041659
N19	N	0.296516	0.045172	-0.041675
C20	C	0.254259	0.091995	-0.000234
N21	N	0.283792	0.139882	0.041214
N22	N	0.352977	0.140899	0.041227
C23	C	0.394705	0.094062	-0.000206
C24	C	0.130369	0.153928	-0.000255
C25	C	0.057544	0.152854	-0.000258
C26	C	0.074586	0.025586	-0.000258
C27	C	0.147409	0.026663	-0.000247
C28	C	0.175296	0.090835	-0.000249
C29	C	0.829972	-0.034634	-0.000207
C30	C	0.828833	-0.112138	-0.000209
C31	C	0.884297	-0.673909	-0.000241
C32	C	0.885374	-0.601085	-0.000234
C33	C	0.822282	-0.556151	-0.000219
C34	C	0.758108	-0.584045	-0.000191
C35	C	0.757033	-0.656867	-0.000190
N36	N	0.776612	-0.435469	-0.041652
N37	N	0.777637	-0.366291	-0.041655
C38	C	0.825516	-0.336742	-0.000220
N39	N	0.872341	-0.378984	0.041208
N40	N	0.871318	-0.448168	0.041207
C41	C	0.823440	-0.477187	-0.000220
C42	C	0.890852	-0.229893	-0.000236
C43	C	0.891926	-0.157068	-0.000225
C44	C	0.764659	-0.140029	-0.000189
C45	C	0.763587	-0.212852	-0.000193
C46	C	0.826685	-0.257780	-0.000220
C47	C	0.952150	0.087546	-0.000243
C48	C	1.029654	0.088687	-0.000267
C49	C	0.818993	0.220700	-0.000213
C50	C	0.820132	0.298205	-0.000217
N51	N	0.824460	0.093024	0.189491
N52	N	0.824512	0.093037	-0.189910
C53	C	0.872087	0.045436	0.227790
C54	C	0.872092	0.045433	0.304435
C55	C	0.824475	0.093030	0.342778
C56	C	0.776839	0.140621	0.304469
C57	C	0.776831	0.140619	0.227826
N58	N	0.815398	0.154838	0.463110
N59	N	0.815410	0.154838	0.535918
C60	C	0.824495	0.093040	0.573700
N61	N	0.833581	0.031240	0.535924
N62	N	0.833573	0.031240	0.463109
C63	C	0.824478	0.093038	0.425885
C64	C	0.872130	0.045445	0.695106
C65	C	0.872129	0.045440	0.771752
C66	C	0.776880	0.140635	0.771786
C67	C	0.776877	0.140633	0.695141
C68	C	0.824505	0.093039	0.656806
H69	H	0.020966	0.204232	-0.000265
H70	H	0.153076	0.206181	-0.000246
H71	H	0.738107	0.179386	0.803004
H72	H	0.628003	-0.018171	-0.000147
O73	O	0.047381	-0.036684	-0.000301
C74	C	-0.026528	-0.024105	-0.000297
H75	H	-0.043784	0.030436	-0.023350
H76	H	-0.048744	-0.065148	-0.035654
H77	H	-0.046822	-0.027431	0.058114
H78	H	0.738097	0.179386	0.663956
H79	H	0.910867	0.006681	0.196579
H80	H	0.738046	0.179371	0.196642
O81	O	0.190954	-0.034689	-0.000275
C82	C	0.150720	-0.091556	-0.000266
H83	H	0.096325	-0.073666	-0.023329
H84	H	0.177739	-0.135747	-0.035612
H85	H	0.145563	-0.111238	0.058148
O86	O	0.491591	-0.030241	-0.000282
C87	C	0.514592	-0.068679	-0.063347
H88	H	0.565056	-0.049806	-0.084358
H89	H	0.524868	-0.126854	-0.049163
H90	H	0.472453	-0.060460	-0.107516
H91	H	0.935677	-0.710485	-0.000259
O92	O	0.947768	-0.574103	-0.000299
C93	C	1.003228	-0.629373	-0.000304
H94	H	0.983809	-0.678787	-0.023341
H95	H	1.048037	-0.614288	-0.035680
H96	H	1.022686	-0.639737	0.058102
O97	O	0.918319	-0.000867	0.657870
C98	C	0.907224	-0.069972	0.676591
H99	H	0.851338	-0.070202	0.697703
H100	H	0.915354	-0.105005	0.626166
H101	H	0.946007	-0.090589	0.721040
O102	O	0.696839	-0.540370	-0.000308
C103	C	0.693667	-0.497722	-0.063362
H104	H	0.729457	-0.524502	-0.107448
H105	H	0.637403	-0.489359	-0.084513
H106	H	0.711577	-0.444822	-0.049113
H107	H	0.704781	-0.679571	-0.000169
O108	O	0.701299	-0.240027	-0.000278
C109	C	0.696871	-0.281619	-0.063349
H110	H	0.751960	-0.299925	-0.084387
H111	H	0.669181	-0.329223	-0.049161
H112	H	0.665891	-0.249344	-0.107499
O113	O	0.952207	-0.273441	-0.000223
C114	C	1.009074	-0.233208	-0.000254
H115	H	0.991183	-0.178803	0.022807
H116	H	1.053263	-0.260213	0.035082
H117	H	1.028760	-0.228074	-0.058675
H118	H	0.713288	-0.103444	-0.000170
H119	H	0.944179	-0.134365	-0.000240
O120	O	0.918423	-0.000825	0.341535
C121	C	0.960443	-0.042849	0.291264
H122	H	0.961142	-0.014228	0.236625
H123	H	1.016232	-0.053639	0.313386
H124	H	0.937934	-0.094661	0.283132
H125	H	0.597087	0.212725	-0.000175
H126	H	0.738067	0.179374	0.335692
O127	O	0.918302	-0.000859	0.808990
C128	C	0.881056	-0.043836	0.853361
H129	H	0.825999	-0.044885	0.830292
H130	H	0.909721	-0.099401	0.854221
H131	H	0.877332	-0.021977	0.911447
H132	H	0.464977	0.210777	-0.000189
