data_functionalizedCrystal
_audit_creation_method	'MofGen! by Chris Wilmer'
_symmetry_space_group_name_H-M	'P1'
_symmetry_Int_Tables_number	1
_symmetry_cell_setting	triclinic
loop_
_symmetry_equiv_pos_as_xyz
  x,y,z
_cell_length_a	16.109301
_cell_length_b	10.654550
_cell_length_c	15.186229
_cell_angle_alpha	90.000905
_cell_angle_beta	90.002891
_cell_angle_gamma	96.026808
loop_
_atom_site_label
_atom_site_type_symbol
_atom_site_fract_x
_atom_site_fract_y
_atom_site_fract_z
O1	O	1.104094	-0.161412	0.073171
O2	O	1.604094	0.338588	0.573171
O3	O	0.862151	-0.181500	0.073184
O4	O	1.362151	0.318500	0.573184
O5	O	0.988685	0.011359	0.073174
O6	O	1.488685	0.511359	0.573174
O7	O	0.977560	-0.354271	0.073181
O8	O	1.477560	0.145729	0.573181
O9	O	0.988670	0.011348	-0.073283
O10	O	1.488670	0.511348	0.426717
O11	O	0.862136	-0.181511	-0.073273
O12	O	1.362136	0.318489	0.426727
O13	O	1.104079	-0.161423	-0.073287
O14	O	1.604079	0.338577	0.426713
Zn15	Zn	0.983105	-0.171469	-0.096533
Zn16	Zn	1.483105	0.328531	0.403467
Zn17	Zn	0.983125	-0.171454	0.096431
Zn18	Zn	1.483125	0.328546	0.596431
O19	O	0.977545	-0.354282	-0.073276
O20	O	1.477545	0.145718	0.426724
C21	C	0.831164	-0.180692	-0.000043
C22	C	1.331164	0.319308	0.499957
C23	C	0.738854	-0.178253	-0.000037
C24	C	1.238854	0.321747	0.499963
C25	C	0.987861	0.058140	-0.000054
C26	C	1.487861	0.558140	0.499946
C27	C	0.985417	0.197550	-0.000050
C28	C	1.485417	0.697550	0.499950
N29	N	0.983098	-0.171478	-0.228226
N30	N	1.483098	0.328522	0.271774
C31	C	0.517228	-0.287019	-0.000045
C32	C	1.017228	0.212981	0.499955
C33	C	0.430494	-0.284717	-0.000051
C34	C	0.930494	0.215283	0.499949
C35	C	0.449008	-0.055896	-0.000052
C36	C	0.949008	0.444104	0.499948
C37	C	0.535740	-0.058199	-0.000052
C38	C	1.035740	0.441801	0.499948
C39	C	0.569848	-0.173764	-0.000045
C40	C	1.069848	0.326236	0.499955
C41	C	0.396382	-0.169159	-0.000050
C42	C	0.896382	0.330841	0.499950
C43	C	0.302341	-0.166662	-0.000056
C44	C	0.802341	0.333338	0.499944
C45	C	0.663895	-0.176262	-0.000040
C46	C	1.163895	0.323738	0.499960
C47	C	1.135066	-0.162231	-0.000058
C48	C	1.635066	0.337769	0.499942
C49	C	1.227376	-0.164671	-0.000057
C50	C	1.727376	0.335329	0.499943
C51	C	0.978369	-0.401063	-0.000047
C52	C	1.478369	0.098937	0.499953
C53	C	0.980813	-0.540473	-0.000044
C54	C	1.480813	-0.040473	0.499956
C55	C	1.059918	0.278046	-0.000057
C56	C	1.559918	0.778046	0.499943
C57	C	1.057616	0.409036	-0.000051
C58	C	1.557616	0.909036	0.499949
C59	C	0.906306	0.379020	-0.000035
C60	C	1.406306	0.879020	0.499965
C61	C	0.908608	0.248033	-0.000035
C62	C	1.408608	0.748033	0.499965
C63	C	1.147276	0.295377	-0.000071
C64	C	1.647276	0.795377	0.499929
C65	C	1.144974	0.426367	-0.000064
C66	C	1.644974	0.926367	0.499936
C67	C	1.033974	-0.247649	-0.453950
C68	C	1.533974	0.252351	0.046050
C69	C	1.033983	-0.247640	-0.546140
C70	C	1.533983	0.252360	-0.046140
C71	C	0.932260	-0.095256	-0.546146
C72	C	1.432260	0.404744	-0.046146
C73	C	0.932256	-0.095259	-0.453958
C74	C	1.432256	0.404741	0.046042
C75	C	0.983112	-0.171463	-0.407862
C76	C	1.483112	0.328537	0.092138
C77	C	0.983125	-0.171451	-0.592240
C78	C	1.483125	0.328549	-0.092240
C79	C	0.983134	-0.171440	-0.692196
C80	C	1.483134	0.328560	-0.192196
C81	C	0.983104	-0.171472	-0.307900
C82	C	1.483104	0.328528	0.192100
N83	N	0.983138	-0.171435	0.228123
N84	N	1.483138	0.328565	0.728123
H85	H	0.544995	-0.381119	-0.000046
H86	H	1.044995	0.118881	0.499954
H87	H	0.387654	-0.376940	-0.000053
H88	H	0.887654	0.123060	0.499947
Br89	Br	0.402714	0.100935	-0.000059
Br90	Br	0.902714	0.600935	0.499941
Br91	Br	0.863239	0.008150	-0.608710
Br92	Br	1.363239	0.508150	-0.108710
Br93	Br	0.863223	0.008144	-0.391404
Br94	Br	1.363223	0.508144	0.108596
Br95	Br	0.802071	0.447541	-0.000008
Br96	Br	1.302071	0.947541	0.499992
Br97	Br	0.607160	0.095514	-0.000063
Br98	Br	1.107160	0.595514	0.499937
H99	H	1.181451	0.266487	0.061215
H100	H	1.681451	0.766487	0.561215
H101	H	1.075384	-0.309698	-0.416422
H102	H	1.575384	0.190302	0.083578
Br103	Br	0.807496	0.138789	0.000002
Br104	Br	1.307496	0.638789	0.500002
H105	H	1.177883	0.468569	-0.061357
H106	H	1.677883	0.968569	0.438643
Br107	Br	1.188984	0.503059	0.105327
Br108	Br	1.688984	1.003059	0.605327
Br109	Br	1.193611	0.236601	-0.105479
Br110	Br	1.693611	0.736601	0.394521
H111	H	1.075402	-0.309676	-0.583660
H112	H	1.575402	0.190324	-0.083660
