data_functionalizedCrystal
_audit_creation_method	'MofGen! by Chris Wilmer'
_symmetry_space_group_name_H-M	'P1'
_symmetry_Int_Tables_number	1
_symmetry_cell_setting	triclinic
loop_
_symmetry_equiv_pos_as_xyz
  x,y,z
_cell_length_a	10.489741
_cell_length_b	23.532407
_cell_length_c	8.965430
_cell_angle_alpha	89.995773
_cell_angle_beta	89.998843
_cell_angle_gamma	83.693926
loop_
_atom_site_label
_atom_site_type_symbol
_atom_site_fract_x
_atom_site_fract_y
_atom_site_fract_z
O1	O	1.691383	0.080340	-0.123964
O2	O	1.319936	0.087881	-0.123989
O3	O	1.516860	0.001253	-0.123949
O4	O	1.494458	0.166968	-0.124005
O5	O	1.516844	0.001259	0.124130
O6	O	1.319920	0.087887	0.124090
O7	O	1.691366	0.080346	0.124115
Cu8	Cu	1.505641	0.084117	0.146754
Cu9	Cu	1.505661	0.084110	-0.146628
O10	O	1.494442	0.166974	0.124074
C11	C	1.272415	0.087315	0.000048
C12	C	1.130842	0.085611	0.000039
C13	C	1.516282	-0.019964	0.000095
C14	C	1.514566	-0.083192	0.000106
C15	C	1.064535	0.030491	0.000072
C16	C	0.971550	0.056526	-0.122250
C17	C	0.971568	0.056545	0.122337
C18	C	1.039723	0.111668	-0.122383
C19	C	1.039750	0.111679	0.122313
C20	C	0.946792	0.137754	-0.000039
C21	C	1.620344	-0.481594	0.000031
C22	C	1.618751	-0.541005	0.000020
O23	O	1.716808	-0.577100	-0.000029
N24	N	1.501680	-0.564407	0.000013
C25	C	1.386194	-0.528395	0.000003
O26	O	1.286470	-0.553755	-0.000006
C27	C	1.387789	-0.468985	0.000003
C28	C	1.504868	-0.445587	0.000025
C29	C	1.737414	-0.458195	0.000051
C30	C	1.739007	-0.398788	0.000066
C31	C	1.623530	-0.362781	0.000060
C32	C	1.506460	-0.386180	0.000039
C33	C	1.272305	-0.432974	-0.000018
C34	C	1.273909	-0.373561	-0.000018
C35	C	1.390988	-0.350162	0.000004
C36	C	1.392576	-0.290766	0.000048
N37	N	1.509648	-0.267364	0.000054
C38	C	1.625125	-0.303371	0.000060
C39	C	1.382854	-0.653160	-0.000002
C40	C	1.381258	-0.712568	0.000008
C41	C	1.613816	-0.725174	0.000023
C42	C	1.615410	-0.665765	0.000023
C43	C	1.499926	-0.629758	0.000005
C44	C	1.628461	-0.178612	0.000092
C45	C	1.630043	-0.119200	0.000112
C46	C	1.397486	-0.106599	0.000090
C47	C	1.395903	-0.166006	0.000077
C48	C	1.511401	-0.202012	0.000073
O49	O	1.294571	-0.254636	0.000090
O50	O	1.724833	-0.278003	0.000049
C51	C	1.738887	0.080912	0.000075
C52	C	1.880460	0.082616	0.000073
C53	C	1.495021	0.188191	0.000028
C54	C	1.496736	0.251419	0.000006
N55	N	1.505637	0.084121	0.353103
N56	N	1.505676	0.084101	-0.352977
C57	C	1.414538	0.124171	0.450390
C58	C	1.529652	0.135693	0.549807
C59	C	1.390572	0.072603	0.549813
C60	C	1.620808	0.095670	0.450331
C61	C	1.481652	0.032557	0.450328
C62	C	1.596850	0.044059	0.549701
H63	H	1.115731	-0.014820	-0.000066
N64	N	0.933606	0.027282	-0.251980
N65	N	0.956779	0.045560	-0.378931
H66	H	0.929984	0.024905	-0.470552
N67	N	1.152711	-0.456866	-0.000084
N68	N	1.125887	-0.488601	-0.104676
H69	H	1.041417	-0.505474	-0.104729
H70	H	1.707843	-0.754503	0.000022
N71	N	1.077438	0.140911	-0.252238
N72	N	1.192993	0.146929	-0.273224
H73	H	1.219633	0.167585	-0.364927
H74	H	1.337569	0.158070	0.406786
N75	N	0.882906	0.194658	-0.000149
N76	N	0.900270	0.227841	-0.105278
H77	H	0.855151	0.268029	-0.105363
H78	H	1.549965	0.179291	0.593502
N79	N	1.749653	-0.095309	0.000146
N80	N	1.852746	-0.127470	0.000151
H81	H	1.937220	-0.110600	0.000175
H82	H	1.070014	0.134985	0.225718
N83	N	1.742937	0.107937	0.395760
N84	N	1.808192	0.072465	0.315131
H85	H	1.894444	0.081128	0.276588
H86	H	1.673989	0.010180	0.593032
H87	H	1.722510	-0.207922	0.000082
N88	N	0.933672	0.027273	0.252059
N89	N	0.976499	-0.023738	0.273833
H90	H	0.949739	-0.044416	0.365443
N91	N	1.858612	-0.374902	0.000082
N92	N	1.961698	-0.407067	0.000081
H93	H	2.046177	-0.390201	0.000088
N94	N	1.456116	-0.022119	0.395482
N95	N	1.352875	-0.041193	0.427301
H96	H	1.334826	-0.079809	0.388566
N97	N	1.855395	-0.494961	0.000080
N98	N	1.933407	-0.492537	0.104668
H99	H	2.016740	-0.518499	0.104701
N100	N	1.268477	0.060401	0.604641
N101	N	1.169687	0.092783	0.572823
H102	H	1.083454	0.084171	0.611544
H103	H	1.710746	-0.646718	0.000040
N104	N	1.261665	-0.736466	0.000035
N105	N	1.183988	-0.725611	0.104609
H106	H	1.099521	-0.742487	0.104625
N107	N	1.264869	-0.616389	-0.000015
N108	N	1.160357	-0.637297	-0.000024
H109	H	1.077029	-0.611332	-0.000037
N110	N	1.155942	-0.336780	-0.000068
N111	N	1.077928	-0.339191	-0.104660
H112	H	0.994615	-0.313215	-0.104697
H113	H	1.300568	-0.185058	0.000101
H114	H	1.303468	-0.077271	0.000090
