data_functionalizedCrystal
_audit_creation_method	'MofGen! by Chris Wilmer'
_symmetry_space_group_name_H-M	'P1'
_symmetry_Int_Tables_number	1
_symmetry_cell_setting	triclinic
loop_
_symmetry_equiv_pos_as_xyz
  x,y,z
_cell_length_a	12.645331
_cell_length_b	21.295417
_cell_length_c	21.295411
_cell_angle_alpha	90.021841
_cell_angle_beta	89.982206
_cell_angle_gamma	89.965187
loop_
_atom_site_label
_atom_site_type_symbol
_atom_site_fract_x
_atom_site_fract_y
_atom_site_fract_z
Zn1	Zn	1.620621	0.250694	-0.355797
Zn2	Zn	1.620441	0.355946	-0.250522
Zn3	Zn	1.443329	0.250693	-0.250554
Zn4	Zn	1.443262	0.355928	-0.355766
O5	O	1.531913	0.303315	-0.303160
O6	O	1.768944	0.264664	-0.341831
O7	O	1.596899	0.341991	-0.162437
O8	O	1.466951	0.162604	-0.264541
O9	O	1.768812	0.341992	-0.264486
O10	O	1.597206	0.162604	-0.341863
O11	O	1.466776	0.264662	-0.162461
O12	O	1.294973	0.264645	-0.264512
O13	O	1.466836	0.341961	-0.443860
O14	O	1.294924	0.341960	-0.341810
O15	O	1.597141	0.264646	-0.443882
O16	O	1.596834	0.444033	-0.264456
O17	O	1.466662	0.444019	-0.341779
C18	C	1.256483	0.303301	-0.303161
C19	C	1.138653	0.303310	-0.303177
C20	C	0.971094	0.352216	-0.351552
C21	C	1.093654	0.352058	-0.351754
C22	C	1.094211	0.237013	-0.321312
C23	C	0.971613	0.237311	-0.321652
C24	C	0.971395	0.320167	-0.236514
C25	C	1.094000	0.321617	-0.236873
C26	C	1.531750	0.466867	-0.303124
C27	C	1.531777	0.536835	-0.303130
C28	C	1.599556	0.569645	-0.343420
C29	C	1.599583	0.635387	-0.343434
C30	C	1.531840	0.668317	-0.303147
C31	C	1.464047	0.635499	-0.262855
C32	C	1.464016	0.569758	-0.262847
N33	N	1.523807	0.771569	-0.248055
N34	N	1.523843	0.834021	-0.248064
C35	C	1.531930	0.866392	-0.303171
N36	N	1.539999	0.833952	-0.358269
N37	N	1.539968	0.771495	-0.358259
C38	C	1.531866	0.739603	-0.303152
C39	C	1.599741	0.970487	-0.343479
C40	C	1.599760	1.036231	-0.343494
C41	C	1.464230	1.036342	-0.262910
C42	C	1.464206	0.970600	-0.262901
C43	C	1.531967	0.937676	-0.303184
C44	C	1.808418	0.303330	-0.303159
C45	C	1.926248	0.303336	-0.303158
C46	C	1.532001	0.303302	-0.467350
C47	C	1.532039	0.303296	-0.537318
C48	C	1.532063	1.139125	-0.303204
C49	C	1.532015	1.069157	-0.303208
C50	C	1.599885	0.263036	-0.570198
C51	C	1.599884	0.263009	-0.635940
C52	C	1.532047	0.303253	-0.668801
C53	C	1.464187	0.343515	-0.635913
C54	C	1.464183	0.343537	-0.570172
N55	N	1.523860	0.358320	-0.772017
N56	N	1.523870	0.358298	-0.834468
C57	C	1.532054	0.303189	-0.866876
N58	N	1.540248	0.248102	-0.834473
N59	N	1.540243	0.248125	-0.772015
C60	C	1.532043	0.303233	-0.740086
C61	C	1.599902	0.262896	-0.971041
C62	C	1.599894	0.262868	-1.036784
C63	C	1.464202	0.343380	-1.036756
C64	C	1.464205	0.343402	-0.971014
C65	C	1.532061	0.303162	-0.938160
C66	C	1.531887	0.303283	-0.139608
C67	C	1.532054	0.303111	-0.069641
H68	H	1.123699	0.401222	-0.340388
H69	H	0.941575	0.401542	-0.340311
O70	O	1.398453	0.382548	-0.939003
C71	C	1.458759	0.423232	-0.900996
H72	H	1.539122	0.401038	-0.891160
H73	H	1.415565	0.431683	-0.854760
H74	H	1.470354	0.469874	-0.926333
O75	O	1.665516	0.667170	-0.382599
C76	C	1.725287	0.624014	-0.418168
H77	H	1.728972	0.577163	-0.392380
H78	H	1.808809	0.642967	-0.424933
H79	H	1.686414	0.617014	-0.465954
H80	H	1.655138	0.230268	-0.543452
O81	O	1.665852	0.223990	-0.667957
C82	C	1.734290	0.259830	-0.705978
H83	H	1.696834	0.307527	-0.715815
H84	H	1.748538	0.234180	-0.752213
H85	H	1.812839	0.266765	-0.680653
O86	O	1.665223	0.537597	-0.382586
C87	C	1.604816	0.499595	-0.423224
H88	H	1.524492	0.489797	-0.400983
H89	H	1.647969	0.453340	-0.431679
H90	H	1.593140	0.524918	-0.469869
H91	H	1.655149	0.230126	-0.944290
O92	O	1.398144	0.667387	-0.223700
C93	C	1.338330	0.624327	-0.188124
H94	H	1.334614	0.577454	-0.213901
H95	H	1.254821	0.643371	-0.181372
H96	H	1.377185	0.617338	-0.140333
O97	O	1.398210	0.537786	-0.223764
C98	C	1.412733	0.472701	-0.232382
H99	H	1.447410	0.463679	-0.280977
H100	H	1.333322	0.447757	-0.228071
H101	H	1.469210	0.454037	-0.195067
H102	H	1.409066	1.063153	-0.230112
H103	H	1.655141	0.230080	-1.063554
O104	O	1.398444	0.382677	-0.667859
C105	C	1.458754	0.423317	-0.705903
H106	H	1.542241	0.427215	-0.686103
H107	H	1.420356	0.471759	-0.706639
H108	H	1.462434	0.403839	-0.755729
O109	O	1.398459	0.382545	-1.068694
C110	C	1.458772	0.423182	-1.106739
H111	H	1.542262	0.427074	-1.086943
H112	H	1.420383	0.471627	-1.107471
H113	H	1.462442	0.403707	-1.156567
O114	O	1.398341	0.938822	-0.223698
C115	C	1.338535	0.981981	-0.188153
H116	H	1.381978	1.028823	-0.186002
H117	H	1.327262	0.963019	-0.138547
H118	H	1.258005	0.989003	-0.211165
O119	O	0.934531	0.376830	-0.216738
C120	C	0.976492	0.390490	-0.156943
H121	H	1.000546	0.344929	-0.132745
H122	H	0.914130	0.415537	-0.127456
H123	H	1.048727	0.422050	-0.162277
O124	O	0.934326	0.338997	-0.410086
C125	C	0.868187	0.285782	-0.407491
H126	H	0.888676	0.256729	-0.364216
H127	H	0.880308	0.256124	-0.451489
H128	H	0.782098	0.301461	-0.404670
O129	O	1.665579	0.938598	-0.382677
C130	C	1.725419	0.981658	-0.418237
H131	H	1.682018	1.028543	-0.420398
H132	H	1.736664	0.962632	-0.467838
H133	H	1.805960	0.988619	-0.395232
O134	O	1.665454	1.068131	-0.382701
C135	C	1.605093	1.106179	-0.423331
H136	H	1.521588	1.086409	-0.427182
H137	H	1.643404	1.106877	-0.471791
H138	H	1.601477	1.156016	-0.403876
H139	H	1.123011	0.340920	-0.401135
H140	H	0.943049	0.223033	-0.370372
H141	H	0.941950	0.199587	-0.288021
H142	H	1.408929	0.376320	-0.543402
H143	H	1.123361	0.199605	-0.287165
H144	H	1.123056	0.370403	-0.223196
O145	O	1.130987	0.219588	-0.378755
C146	C	1.189086	0.163337	-0.373172
H147	H	1.218628	0.158105	-0.322873
H148	H	1.259469	0.164602	-0.406612
H149	H	1.136143	0.121818	-0.385516
O150	O	1.130592	0.282150	-0.191627
C151	C	1.197737	0.236925	-0.219057
H152	H	1.178103	0.232047	-0.271073
H153	H	1.185851	0.189791	-0.194702
H154	H	1.283548	0.252365	-0.213575
H155	H	0.942394	0.284563	-0.200456
