data_functionalizedCrystal
_audit_creation_method	'MofGen! by Chris Wilmer'
_symmetry_space_group_name_H-M	'P1'
_symmetry_Int_Tables_number	1
_symmetry_cell_setting	triclinic
loop_
_symmetry_equiv_pos_as_xyz
  x,y,z
_cell_length_a	8.497365
_cell_length_b	12.759401
_cell_length_c	12.759400
_cell_angle_alpha	89.985394
_cell_angle_beta	90.051021
_cell_angle_gamma	89.967891
loop_
_atom_site_label
_atom_site_type_symbol
_atom_site_fract_x
_atom_site_fract_y
_atom_site_fract_z
Zn1	Zn	-0.891943	1.606387	0.418005
Zn2	Zn	-0.628148	1.606243	0.593783
Zn3	Zn	-0.628172	1.430650	0.418119
Zn4	Zn	-0.891882	1.430678	0.593642
O5	O	-0.760036	1.518490	0.505887
O6	O	-0.856966	1.753389	0.441334
O7	O	-0.407388	1.582878	0.570588
O8	O	-0.663198	1.454011	0.271083
O9	O	-0.663156	1.753283	0.570477
O10	O	-0.856990	1.583124	0.270999
O11	O	-0.407406	1.453871	0.441528
O12	O	-0.663138	1.283633	0.441391
O13	O	-1.112652	1.454058	0.570237
O14	O	-0.856884	1.283653	0.570347
O15	O	-1.112698	1.583151	0.441197
O16	O	-0.663096	1.582905	0.740786
O17	O	-0.856860	1.453918	0.740682
C18	C	-0.760008	1.245522	0.505867
C19	C	-0.760034	1.128746	0.505883
C20	C	-0.760003	1.518427	0.778855
C21	C	-0.760042	1.518497	0.895631
C22	C	-0.659348	0.964117	0.438667
C23	C	-0.659329	1.073841	0.438647
C24	C	-0.860775	1.073920	0.573137
C25	C	-0.860800	0.964198	0.573151
C26	C	-0.543040	0.964073	0.361024
C27	C	-0.543021	1.073797	0.361004
C28	C	-0.350156	1.518414	0.506002
C29	C	-0.171513	1.518563	0.505786
C30	C	-0.760065	1.792523	0.505909
C31	C	-0.760077	1.909299	0.505918
C32	C	-0.760104	1.518581	0.231854
C33	C	-0.760133	1.518620	0.115077
C34	C	-0.659261	1.585735	0.950512
C35	C	-0.659309	1.585799	1.060236
C36	C	-0.860925	1.451379	1.060188
C37	C	-0.860883	1.451320	0.950466
C38	C	-0.542854	1.663338	0.950541
C39	C	-0.542903	1.663402	1.060265
H40	H	-0.942781	1.118632	0.627874
H41	H	-0.426913	0.929981	0.390113
H42	H	-0.420777	1.103516	0.382730
H43	H	-0.586977	1.107857	0.283725
O44	O	-0.969564	1.378789	0.891268
H45	H	-1.039668	1.332076	0.947834
O46	O	-0.969666	1.378911	1.119330
H47	H	-0.952756	1.390239	1.204848
H48	H	-0.575668	1.744686	0.920676
H49	H	-0.586768	1.740713	1.094200
H50	H	-0.420704	1.641647	1.090155
H51	H	-0.942837	0.919569	0.627904
O52	O	-0.389051	1.624756	0.905592
H53	H	-0.307540	1.604352	0.970496
H54	H	-0.575973	0.934323	0.279675
