data_functionalizedCrystal
_audit_creation_method	'MofGen! by Chris Wilmer'
_symmetry_space_group_name_H-M	'P1'
_symmetry_Int_Tables_number	1
_symmetry_cell_setting	triclinic
loop_
_symmetry_equiv_pos_as_xyz
  x,y,z
_cell_length_a	12.759401
_cell_length_b	18.101395
_cell_length_c	12.759393
_cell_angle_alpha	89.968250
_cell_angle_beta	89.980732
_cell_angle_gamma	90.032629
loop_
_atom_site_label
_atom_site_type_symbol
_atom_site_fract_x
_atom_site_fract_y
_atom_site_fract_z
Zn1	Zn	1.606129	-0.294768	-0.594006
Zn2	Zn	1.605975	-0.418626	-0.418321
Zn3	Zn	1.430433	-0.294806	-0.418342
Zn4	Zn	1.430370	-0.418576	-0.593958
O5	O	1.518227	-0.356694	-0.506157
O6	O	1.753130	-0.311203	-0.570713
O7	O	1.582651	-0.402238	-0.271302
O8	O	1.453831	-0.191168	-0.441673
O9	O	1.753017	-0.402201	-0.441637
O10	O	1.582914	-0.191140	-0.570733
O11	O	1.453681	-0.311268	-0.271318
O12	O	1.283404	-0.311219	-0.441626
O13	O	1.453722	-0.402115	-0.740986
O14	O	1.283357	-0.402152	-0.570651
O15	O	1.582852	-0.311155	-0.741021
O16	O	1.582590	-0.522252	-0.441590
O17	O	1.453573	-0.522215	-0.570630
C18	C	1.245259	-0.356685	-0.506136
C19	C	1.128483	-0.356699	-0.506152
C20	C	1.073624	-0.404120	-0.573229
C21	C	0.963900	-0.404123	-0.573250
C22	C	0.963903	-0.309282	-0.439107
C23	C	1.073625	-0.309276	-0.439092
C24	C	0.813990	-0.430697	-0.697109
C25	C	0.759127	-0.478129	-0.764177
C26	C	0.794695	-0.550402	-0.780122
C27	C	0.885124	-0.575257	-0.728983
C28	C	0.939981	-0.527828	-0.661907
C29	C	0.904414	-0.455545	-0.645982
C30	C	1.223538	-0.282709	-0.315232
C31	C	1.278396	-0.235284	-0.248150
C32	C	1.242831	-0.163010	-0.232194
C33	C	1.152399	-0.138158	-0.283315
C34	C	1.097540	-0.185583	-0.350397
C35	C	1.133113	-0.257856	-0.366354
C36	C	1.518086	-0.549105	-0.506126
C37	C	1.518122	-0.631419	-0.506148
C38	C	1.518353	-0.930510	-0.506204
C39	C	1.437367	-0.899192	-0.587594
C40	C	1.436982	-0.813574	-0.587340
C41	C	1.518238	-0.782127	-0.506177
C42	C	1.488259	-0.813285	-0.395451
C43	C	1.487737	-0.898930	-0.395938
C44	C	1.629495	-0.898850	-0.534565
C45	C	1.628841	-0.813198	-0.536994
C46	C	1.518176	-0.698268	-0.506155
C47	C	1.518413	-1.014369	-0.506219
C48	C	1.792260	-0.356704	-0.506178
C49	C	1.909037	-0.356708	-0.506187
C50	C	1.518297	-0.356625	-0.780190
C51	C	1.518328	-0.356596	-0.896967
C52	C	1.518397	-0.163532	-0.506211
C53	C	1.518469	-0.081218	-0.506234
C54	C	1.451145	-0.403905	-1.061543
C55	C	1.451110	-0.403936	-0.951819
C56	C	1.585576	-0.309216	-0.951844
C57	C	1.585604	-0.309182	-1.061567
C58	C	1.327142	-0.430437	-0.801855
C59	C	1.259906	-0.477823	-0.746981
C60	C	1.243720	-0.550072	-0.782580
C61	C	1.294785	-0.574950	-0.873050
C62	C	1.362030	-0.527568	-0.927918
C63	C	1.378196	-0.455308	-0.892321
C64	C	1.709574	-0.282688	-1.211533
C65	C	1.776824	-0.235309	-1.266403
C66	C	1.793021	-0.163059	-1.230807
C67	C	1.741974	-0.138184	-1.140333
C68	C	1.674724	-0.185563	-1.085463
C69	C	1.658525	-0.257812	-1.121067
C70	C	1.518217	-0.356709	-0.233189
C71	C	1.518390	-0.356530	-0.116413
H72	H	0.750019	-0.589021	-0.834732
H73	H	1.354601	-0.793153	-0.568554
H74	H	1.544164	-0.919650	-0.333229
Cl75	Cl	1.392074	-0.266533	-0.183867
H76	H	1.689832	-0.919102	-0.475286
H77	H	1.287502	-0.124400	-0.177561
Cl78	Cl	1.274449	-0.665787	-0.917786
H79	H	1.355487	-0.920781	-0.569045
H80	H	1.396413	-0.442458	-1.106196
H81	H	1.403608	-0.547823	-1.001576
H82	H	1.118286	-0.442733	-0.627836
H83	H	1.013605	-0.548065	-0.620270
Cl84	Cl	1.877577	-0.103500	-1.299781
H85	H	1.651449	-0.792831	-0.618482
H86	H	1.218328	-0.457561	-0.673320
H87	H	0.685500	-0.457885	-0.805816
H88	H	1.252511	-0.341559	-0.328226
H89	H	1.123428	-0.079311	-0.270307
Cl90	Cl	1.576460	-0.781841	-0.299267
Cl91	Cl	1.689204	-0.373518	-1.256298
H92	H	1.407875	-0.791903	-0.370996
H93	H	1.023910	-0.165340	-0.392029
Cl94	Cl	1.347462	-0.339599	-0.757112
H95	H	0.785029	-0.371844	-0.684144
H96	H	1.455739	-0.792505	-0.669442
Cl97	Cl	1.466031	-0.930911	-0.714768
H98	H	1.692372	-0.791788	-0.482034
Cl99	Cl	1.159194	-0.609641	-0.713593
Cl100	Cl	1.762340	-0.047354	-1.095574
Cl101	Cl	1.670053	-0.249684	-0.882887
Cl102	Cl	1.362302	-0.929883	-0.358848
Cl103	Cl	1.671693	-0.932108	-0.657100
H104	H	0.919225	-0.270673	-0.384508
Cl105	Cl	1.610550	-0.154291	-0.971722
Cl106	Cl	1.841007	-0.266584	-1.380137
H107	H	0.914069	-0.634111	-0.741962
