data_functionalizedCrystal
_audit_creation_method	'MofGen! by Chris Wilmer'
_symmetry_space_group_name_H-M	'P1'
_symmetry_Int_Tables_number	1
_symmetry_cell_setting	triclinic
loop_
_symmetry_equiv_pos_as_xyz
  x,y,z
_cell_length_a	27.732048
_cell_length_b	14.421503
_cell_length_c	15.944493
_cell_angle_alpha	90.010165
_cell_angle_beta	83.058849
_cell_angle_gamma	89.997938
loop_
_atom_site_label
_atom_site_type_symbol
_atom_site_fract_x
_atom_site_fract_y
_atom_site_fract_z
O1	O	0.641351	-0.076981	0.099936
O2	O	0.974684	0.256352	0.433269
O3	O	1.308018	0.589686	0.766602
O4	O	0.500621	-0.077007	0.115133
O5	O	0.833955	0.256326	0.448466
O6	O	1.167288	0.589659	0.781800
O7	O	0.574844	-0.077001	-0.014794
O8	O	0.908177	0.256332	0.318539
O9	O	1.241511	0.589665	0.651872
O10	O	0.567129	-0.076987	0.229863
O11	O	0.900462	0.256346	0.563196
O12	O	1.233795	0.589679	0.896530
O13	O	0.574832	0.077222	-0.014775
O14	O	0.908165	0.410555	0.318558
O15	O	1.241498	0.743889	0.651892
O16	O	0.500609	0.077216	0.115152
O17	O	0.833943	0.410549	0.448486
O18	O	1.167276	0.743883	0.781819
O19	O	0.641339	0.077242	0.099955
O20	O	0.974672	0.410576	0.433288
O21	O	1.308005	0.743909	0.766622
Cu22	Cu	0.570973	0.091311	0.107555
Cu23	Cu	0.904306	0.424644	0.440889
Cu24	Cu	1.237639	0.757978	0.774222
Cu25	Cu	0.570987	-0.091076	0.107533
Cu26	Cu	0.904321	0.242257	0.440866
Cu27	Cu	1.237654	0.575591	0.774199
O28	O	0.567116	0.077236	0.229882
O29	O	0.900450	0.410569	0.563216
O30	O	1.233783	0.743903	0.896549
C31	C	0.482607	0.000101	0.114824
C32	C	0.815940	0.333434	0.448157
C33	C	1.149274	0.666767	0.781490
C34	C	0.428948	0.000090	0.113863
C35	C	0.762281	0.333423	0.447196
C36	C	1.095615	0.666757	0.780530
N37	N	0.570966	0.219592	0.107571
N38	N	0.904299	0.552926	0.440904
N39	N	1.237633	0.886259	0.774238
N40	N	0.570998	-0.219357	0.107510
N41	N	0.904331	0.113976	0.440844
N42	N	1.237665	0.447309	0.774177
C43	C	0.090431	0.000134	0.184594
C44	C	0.423764	0.333468	0.517927
C45	C	0.757098	0.666801	0.851261
C46	C	-0.111244	0.000142	0.181030
C47	C	0.222090	0.333476	0.514363
C48	C	0.555423	0.666809	0.847697
O49	O	-0.142227	0.000186	0.245709
O50	O	0.191106	0.333520	0.579042
O51	O	0.524440	0.666853	0.912375
N52	N	-0.130692	0.000136	0.103989
N53	N	0.202641	0.333470	0.437322
N54	N	0.535975	0.666803	0.770655
C55	C	-0.099718	0.000134	0.027833
C56	C	0.233615	0.333468	0.361166
C57	C	0.566949	0.666801	0.694499
O58	O	-0.120887	0.000139	-0.037777
O59	O	0.212446	0.333472	0.295556
O60	O	0.545779	0.666806	0.628889
C61	C	0.101956	0.000133	0.031398
C62	C	0.435289	0.333466	0.364731
C63	C	0.768622	0.666799	0.698064
C64	C	0.121401	0.000129	0.108444
C65	C	0.454734	0.333463	0.441777
C66	C	0.788068	0.666796	0.775111
C67	C	0.109877	0.000132	0.261634
C68	C	0.443210	0.333465	0.594968
C69	C	0.776543	0.666799	0.928301
C70	C	0.160292	0.000125	0.262524
C71	C	0.493626	0.333458	0.595858
C72	C	0.826959	0.666792	0.929191
C73	C	0.191262	0.000120	0.186374
C74	C	0.524596	0.333453	0.519708
C75	C	0.857929	0.666787	0.853041
C76	C	0.171817	0.000122	0.109334
C77	C	0.505150	0.333456	0.442668
C78	C	0.838483	0.666789	0.776001
C79	C	0.132929	0.000137	-0.044757
C80	C	0.466262	0.333471	0.288576
C81	C	0.799595	0.666804	0.621909
C82	C	0.183350	0.000139	-0.043859
C83	C	0.516683	0.333473	0.289474
C84	C	0.850016	0.666806	0.622807
C85	C	0.202795	0.000136	0.033187
C86	C	0.536128	0.333469	0.366521
C87	C	0.869462	0.666803	0.699854
C88	C	0.253202	0.000111	0.034074
C89	C	0.586536	0.333444	0.367408
C90	C	0.919869	0.666777	0.700741
N91	N	0.272650	0.000117	0.111116
N92	N	0.605984	0.333450	0.444449
N93	N	0.939317	0.666783	0.777783
C94	C	0.241680	0.000121	0.187266
C95	C	0.575014	0.333455	0.520599
C96	C	0.908347	0.666788	0.853932
C97	C	-0.205600	0.000133	0.025967
C98	C	0.127733	0.333467	0.359300
C99	C	0.461067	0.666800	0.692633
C100	C	-0.256018	0.000132	0.025075
C101	C	0.077315	0.333465	0.358408
C102	C	0.410649	0.666799	0.691742
C103	C	-0.267540	0.000142	0.178273
C104	C	0.065793	0.333475	0.511606
C105	C	0.399126	0.666808	0.844939
C106	C	-0.217121	0.000136	0.179163
C107	C	0.116212	0.333470	0.512497
C108	C	0.449545	0.666803	0.845830
C109	C	-0.186152	0.000139	0.103008
C110	C	0.147182	0.333473	0.436341
C111	C	0.480515	0.666806	0.769675
C112	C	0.347558	0.000106	0.189129
C113	C	0.680891	0.333439	0.522463
C114	C	1.014224	0.666772	0.855796
C115	C	0.397978	0.000095	0.190013
C116	C	0.731312	0.333428	0.523346
C117	C	1.064645	0.666761	0.856680
C118	C	0.409496	0.000090	0.036816
C119	C	0.742829	0.333423	0.370149
C120	C	1.076163	0.666757	0.703482
C121	C	0.359080	0.000096	0.035932
C122	C	0.692413	0.333429	0.369265
C123	C	1.025747	0.666763	0.702599
C124	C	0.328111	0.000107	0.112096
C125	C	0.661445	0.333440	0.445429
C126	C	0.994778	0.666774	0.778762
O127	O	0.284214	0.000077	-0.030569
O128	O	0.617547	0.333410	0.302764
O129	O	0.950881	0.666744	0.636097
O130	O	0.262859	0.000137	0.252866
O131	O	0.596193	0.333471	0.586200
O132	O	0.929526	0.666804	0.919533
C133	C	0.040015	0.000141	0.183704
C134	C	0.373349	0.333475	0.517037
C135	C	0.706682	0.666808	0.850371
C136	C	0.020570	0.000144	0.106664
C137	C	0.353903	0.333477	0.439997
C138	C	0.687236	0.666810	0.773330
C139	C	0.051540	0.000139	0.030514
C140	C	0.384873	0.333472	0.363847
C141	C	0.718206	0.666806	0.697180
C142	C	-0.029849	0.000142	0.105772
C143	C	0.303485	0.333476	0.439106
C144	C	0.636818	0.666809	0.772439
C145	C	-0.060819	0.000147	0.181922
C146	C	0.272515	0.333480	0.515256
C147	C	0.605848	0.666814	0.848589
C148	C	-0.041370	0.000153	0.258964
C149	C	0.291963	0.333486	0.592297
C150	C	0.625296	0.666820	0.925630
C151	C	0.009045	0.000146	0.259854
C152	C	0.342379	0.333479	0.593187
C153	C	0.675712	0.666813	0.926520
C154	C	0.032091	0.000133	-0.046528
C155	C	0.365425	0.333466	0.286806
C156	C	0.698758	0.666799	0.620139
C157	C	-0.018325	0.000139	-0.047412
C158	C	0.315008	0.333472	0.285922
C159	C	0.648342	0.666805	0.619255
C160	C	-0.049295	0.000144	0.028738
C161	C	0.284038	0.333477	0.362072
C162	C	0.617372	0.666810	0.695405
C163	C	0.659353	0.000132	0.100264
C164	C	0.992686	0.333465	0.433598
C165	C	1.326020	0.666799	0.766931
C166	C	0.713012	0.000137	0.101225
C167	C	1.046345	0.333470	0.434558
C168	C	1.379679	0.666803	0.767892
C169	C	0.574522	0.000106	-0.046075
C170	C	0.907856	0.333440	0.287258
C171	C	1.241189	0.666773	0.620591
C172	C	0.573577	0.000094	-0.139311
C173	C	0.906910	0.333428	0.194022
C174	C	1.240244	0.666761	0.527355
C175	C	0.536640	0.469243	0.167623
C176	C	0.869973	0.802576	0.500956
C177	C	1.203306	1.135910	0.834289
C178	C	0.580315	0.531055	0.183359
C179	C	0.913648	0.864389	0.516693
C180	C	1.246982	1.197722	0.850026
C181	C	0.570978	0.408754	0.107551
C182	C	0.904311	0.742087	0.440884
C183	C	1.237645	1.075420	0.774217
C184	C	0.527314	0.531035	0.091834
C185	C	0.860647	0.864369	0.425167
C186	C	1.193981	1.197702	0.758500
C187	C	0.570985	0.591475	0.107533
C188	C	0.904319	0.924808	0.440867
C189	C	1.237652	1.258142	0.774200
C190	C	0.614675	0.469205	0.123325
C191	C	0.948008	0.802538	0.456658
C192	C	1.281342	1.135872	0.789991
C193	C	0.561645	0.469180	0.031767
C194	C	0.894979	0.802513	0.365100
C195	C	1.228312	1.135846	0.698433
C196	C	0.605352	0.530964	0.047471
C197	C	0.938686	0.864297	0.380804
C198	C	1.272019	1.197631	0.714137
C199	C	0.570973	0.303492	0.107563
C200	C	0.904306	0.636826	0.440896
C201	C	1.237640	0.970159	0.774230
C202	C	0.570995	0.696734	0.107520
C203	C	0.904329	1.030067	0.440854
C204	C	1.237662	1.363401	0.774187
C205	C	0.617266	0.000120	-0.375643
C206	C	0.950599	0.333453	-0.042309
C207	C	1.283933	0.666787	0.291024
C208	C	0.593712	-0.075924	-0.425912
C209	C	0.927045	0.257409	-0.092579
C210	C	1.260379	0.590743	0.240754
C211	C	0.571825	0.000105	-0.310010
C212	C	0.905159	0.333439	0.023324
C213	C	1.238492	0.666772	0.356657
C214	C	0.593689	0.076128	-0.425869
C215	C	0.927023	0.409462	-0.092536
C216	C	1.260356	0.742795	0.240798
C217	C	0.570137	0.000120	-0.474897
C218	C	0.903470	0.333454	-0.141564
C219	C	1.236803	0.666787	0.191770
C220	C	0.548284	-0.076001	-0.359051
C221	C	0.881617	0.257332	-0.025718
C222	C	1.214950	0.590665	0.307616
C223	C	0.548268	0.076119	-0.359005
C224	C	0.881601	0.409452	-0.025671
C225	C	1.214934	0.742786	0.307662
C226	C	0.524681	0.000056	-0.409241
C227	C	0.858014	0.333390	-0.075907
C228	C	1.191347	0.666723	0.257426
C229	C	0.572799	0.000096	-0.215022
C230	C	0.906133	0.333430	0.118311
C231	C	1.239466	0.666763	0.451644
C232	C	0.569159	0.000123	-0.569881
C233	C	0.902492	0.333456	-0.236548
C234	C	1.235825	0.666789	0.096785
C235	C	0.567438	0.000126	0.261163
C236	C	0.900771	0.333460	0.594497
C237	C	1.234104	0.666793	0.927830
C238	C	0.568383	0.000132	0.354400
C239	C	0.901717	0.333466	0.687733
C240	C	1.235050	0.666799	1.021066
H241	H	0.413807	0.000092	0.252756
H242	H	0.747141	0.333425	0.586089
H243	H	1.080474	0.666758	0.919423
Cl244	Cl	0.448439	0.000088	-0.058910
Cl245	Cl	0.781772	0.333421	0.274423
Cl246	Cl	1.115105	0.666755	0.607756
H247	H	0.084665	0.000139	0.323648
H248	H	0.417999	0.333472	0.656982
H249	H	0.751332	0.666806	0.990315
H250	H	0.529110	-0.140359	-0.329989
H251	H	0.862443	0.192974	0.003345
H252	H	1.195776	0.526307	0.336678
H253	H	0.588215	0.558233	0.247440
H254	H	0.921549	0.891566	0.580774
H255	H	1.254882	1.224900	0.914107
H256	H	0.024872	0.000145	0.322593
H257	H	0.358206	0.333478	0.655926
H258	H	0.691539	0.666811	0.989260
H259	H	0.485509	0.000007	-0.424194
H260	H	0.818842	0.333341	-0.090861
H261	H	1.152175	0.666674	0.242472
Cl262	Cl	-0.192681	0.000135	0.276025
Cl263	Cl	0.140652	0.333469	0.609358
Cl264	Cl	0.473985	0.666802	0.942691
Cl265	Cl	0.518667	0.175373	-0.313869
Cl266	Cl	0.852000	0.508706	0.019465
Cl267	Cl	1.185334	0.842039	0.352798
H268	H	-0.271845	0.000120	-0.037664
H269	H	0.061488	0.333453	0.295670
H270	H	0.394821	0.666787	0.629003
Cl271	Cl	-0.166673	0.000134	-0.069782
Cl272	Cl	0.166660	0.333468	0.263551
Cl273	Cl	0.499994	0.666801	0.596885
H274	H	0.490385	0.558197	0.078548
H275	H	0.823718	0.891531	0.411882
H276	H	1.157052	1.224864	0.745215
H277	H	0.651612	0.442160	0.136688
H278	H	0.984946	0.775493	0.470021
H279	H	1.318279	1.108826	0.803354
H280	H	0.656407	0.000051	-0.360526
H281	H	0.989741	0.333384	-0.027193
H282	H	1.323074	0.666718	0.306140
Cl283	Cl	0.108496	0.000126	-0.141622
Cl284	Cl	0.441830	0.333459	0.191711
Cl285	Cl	0.775163	0.666793	0.525045
Cl286	Cl	0.623347	-0.175171	-0.471006
Cl287	Cl	0.956681	0.158163	-0.137672
Cl288	Cl	1.290014	0.491496	0.195661
Cl289	Cl	-0.306483	0.000151	0.274003
Cl290	Cl	0.026850	0.333485	0.607337
Cl291	Cl	0.360183	0.666818	0.940670
Cl292	Cl	0.623323	0.175381	-0.470910
Cl293	Cl	0.956656	0.508715	-0.137576
Cl294	Cl	1.289989	0.842048	0.195757
Cl295	Cl	-0.080314	0.000155	0.354694
Cl296	Cl	0.253020	0.333489	0.688027
Cl297	Cl	0.586353	0.666822	1.021361
Cl298	Cl	0.549427	0.427181	-0.067138
Cl299	Cl	0.882760	0.760514	0.266195
Cl300	Cl	1.216093	1.093848	0.599528
Cl301	Cl	-0.042763	0.000131	-0.144280
Cl302	Cl	0.290570	0.333464	0.189053
Cl303	Cl	0.623903	0.666798	0.522386
H304	H	0.507630	0.442143	0.218463
H305	H	0.840964	0.775476	0.551797
H306	H	1.174297	1.108810	0.885130
Cl307	Cl	0.650238	0.572551	-0.030977
Cl308	Cl	0.983571	0.905884	0.302356
Cl309	Cl	1.316904	1.239217	0.635689
Cl310	Cl	0.184730	0.000127	0.359388
Cl311	Cl	0.518063	0.333461	0.692721
Cl312	Cl	0.851396	0.666794	1.026055
Cl313	Cl	0.308633	0.000118	0.284880
Cl314	Cl	0.641967	0.333452	0.618213
Cl315	Cl	0.975300	0.666785	0.951546
H316	H	0.208563	0.000143	-0.105876
H317	H	0.541897	0.333476	0.227458
H318	H	0.875230	0.666809	0.560791
H319	H	0.343247	0.000085	-0.026806
H320	H	0.676580	0.333418	0.306528
H321	H	1.009914	0.666752	0.639861
H322	H	0.057303	0.000131	-0.108540
H323	H	0.390636	0.333465	0.224794
H324	H	0.723969	0.666798	0.558127
