data_functionalizedCrystal
_audit_creation_method	'MofGen! by Chris Wilmer'
_symmetry_space_group_name_H-M	'P1'
_symmetry_Int_Tables_number	1
_symmetry_cell_setting	triclinic
loop_
_symmetry_equiv_pos_as_xyz
  x,y,z
_cell_length_a	15.538191
_cell_length_b	10.654550
_cell_length_c	9.130313
_cell_angle_alpha	90.000042
_cell_angle_beta	90.002806
_cell_angle_gamma	65.878498
loop_
_atom_site_label
_atom_site_type_symbol
_atom_site_fract_x
_atom_site_fract_y
_atom_site_fract_z
O1	O	0.131911	1.606169	-0.121775
O2	O	0.144479	1.234815	-0.121778
O3	O	0.001538	1.492779	-0.121783
O4	O	0.274853	1.348205	-0.121770
O5	O	0.001542	1.492775	0.121816
O6	O	0.144483	1.234811	0.121821
O7	O	0.131915	1.606164	0.121824
Cu8	Cu	0.138200	1.420487	0.144065
Cu9	Cu	0.138195	1.420492	-0.144019
O10	O	0.274856	1.348200	0.121829
C11	C	-0.033457	1.507903	0.000012
C12	C	-0.137736	1.552959	-0.000002
C13	C	0.143559	1.188446	0.000021
C14	C	0.140798	1.050294	0.000019
C15	C	0.132836	1.652533	0.000022
C16	C	0.135597	1.790686	0.000015
C17	C	-0.428451	1.105338	0.000025
C18	C	-0.526440	1.147707	0.000029
C19	C	-0.547326	1.386021	0.000030
C20	C	-0.449337	1.343672	0.000019
C21	C	-0.389906	1.203329	0.000018
C22	C	-0.410792	1.441663	0.000013
C23	C	-0.312812	1.399317	0.000010
C24	C	-0.253375	1.258980	0.000013
C25	C	-0.291926	1.160983	0.000015
C26	C	-0.470224	1.582005	0.000024
C27	C	-0.431680	1.679996	0.000018
C28	C	-0.333697	1.637651	0.000004
C29	C	-0.274261	1.497314	0.000008
C30	C	-0.295147	1.735648	0.000002
C31	C	-0.197166	1.693302	-0.000001
C32	C	-0.176280	1.454968	0.000004
C33	C	0.309851	1.333076	0.000031
C34	C	0.414130	1.288020	0.000035
N35	N	0.138202	1.420493	0.346688
C36	C	0.051435	1.909515	0.000005
C37	C	0.054035	2.039320	0.000012
C38	C	0.224966	1.931451	0.000032
C39	C	0.222365	1.801649	0.000036
C40	C	-0.047250	1.971794	-0.000013
C41	C	-0.044650	2.101599	-0.000006
N42	N	0.138185	1.420499	-0.346642
C43	C	0.074930	1.534731	0.423338
C44	C	0.074918	1.534733	0.576674
C45	C	0.201461	1.306251	0.576698
C46	C	0.201467	1.306246	0.423364
C47	C	0.001874	1.666646	0.423325
C48	C	0.001863	1.666648	0.576662
H49	H	-0.127888	1.340687	-0.000007
H50	H	-0.066356	1.668026	0.624205
O51	O	-0.084146	2.180547	0.139306
H52	H	-0.028878	2.204296	0.194386
O53	O	-0.359254	1.887011	0.000028
H54	H	-0.345466	1.936044	-0.099253
H55	H	0.290897	1.704898	0.000061
H56	H	-0.081828	2.160734	-0.101958
O57	O	-0.147695	1.213305	0.000025
H58	H	-0.112847	1.099255	0.000041
H59	H	-0.480081	1.794264	0.000024
O60	O	0.269698	1.183022	0.340687
H61	H	0.315718	1.214888	0.270822
O62	O	0.269702	1.183036	0.659396
H63	H	0.259073	1.202232	0.778897
H64	H	-0.078676	1.950854	-0.105195
H65	H	-0.165783	1.773097	-0.000005
O66	O	-0.568017	1.042011	0.000023
H67	H	-0.510227	0.937312	0.000010
O68	O	0.318549	1.943274	0.000044
H69	H	0.306220	2.053497	0.000034
H70	H	-0.070316	1.678951	0.381702
O71	O	-0.098363	1.956783	0.135017
H72	H	-0.121317	2.052372	0.201132
O73	O	0.023198	1.784498	0.631811
H74	H	-0.036669	1.854181	0.699316
H75	H	-0.243534	1.046702	0.000004
O76	O	0.032155	1.773283	0.360325
H77	H	0.104704	1.752163	0.397940
O78	O	-0.611426	1.537387	0.000035
H79	H	-0.686034	1.550373	0.000033
H80	H	-0.380059	0.991057	0.000013
H81	H	-0.550006	1.616479	0.000014
