data_functionalizedCrystal
_audit_creation_method	'MofGen! by Chris Wilmer'
_symmetry_space_group_name_H-M	'P1'
_symmetry_Int_Tables_number	1
_symmetry_cell_setting	triclinic
loop_
_symmetry_equiv_pos_as_xyz
  x,y,z
_cell_length_a	12.759401
_cell_length_b	12.759400
_cell_length_c	12.759393
_cell_angle_alpha	90.023884
_cell_angle_beta	90.020938
_cell_angle_gamma	90.004970
loop_
_atom_site_label
_atom_site_type_symbol
_atom_site_fract_x
_atom_site_fract_y
_atom_site_fract_z
Zn1	Zn	1.606349	-0.418173	0.594068
Zn2	Zn	1.606274	-0.593888	0.418409
Zn3	Zn	1.430647	-0.418229	0.418404
Zn4	Zn	1.430674	-0.593815	0.594046
O5	O	1.518486	-0.506026	0.506232
O6	O	1.753360	-0.441489	0.570778
O7	O	1.582935	-0.570641	0.271387
O8	O	1.453975	-0.271200	0.441713
O9	O	1.753305	-0.570586	0.441722
O10	O	1.583061	-0.271159	0.570773
O11	O	1.453902	-0.441584	0.271383
O12	O	1.283630	-0.441513	0.441691
O13	O	1.454019	-0.570461	0.741070
O14	O	1.283649	-0.570516	0.570735
O15	O	1.583087	-0.441418	0.741087
O16	O	1.582960	-0.740899	0.441700
O17	O	1.453947	-0.740846	0.570740
C18	C	1.245519	-0.506013	0.506211
C19	C	1.128742	-0.506033	0.506227
C20	C	1.518523	-0.231993	0.506245
C21	C	1.518539	-0.115216	0.506251
C22	C	1.518477	-0.778993	0.506241
C23	C	1.518569	-0.895770	0.506281
C24	C	1.073918	-0.573307	0.573314
C25	C	0.964194	-0.573311	0.573335
C26	C	0.964128	-0.438764	0.439172
C27	C	1.073850	-0.438756	0.439157
C28	C	0.814305	-0.611009	0.697200
C29	C	0.759477	-0.678299	0.764278
C30	C	0.795095	-0.780830	0.780238
C31	C	0.885539	-0.816092	0.729104
C32	C	0.940361	-0.748807	0.662018
C33	C	0.904745	-0.646262	0.646078
C34	C	1.223740	-0.401068	0.315291
C35	C	1.278565	-0.333788	0.248199
C36	C	1.242949	-0.231255	0.232229
C37	C	1.152501	-0.195998	0.283344
C38	C	1.097677	-0.263278	0.350436
C39	C	1.133300	-0.365809	0.366408
C40	C	1.792519	-0.506040	0.506253
C41	C	1.909296	-0.506046	0.506262
C42	C	1.518564	-0.505925	0.780265
C43	C	1.518598	-0.505882	0.897042
C44	C	1.451342	-0.060374	0.439062
C45	C	1.451354	0.049350	0.439079
C46	C	1.585770	0.049380	0.573477
C47	C	1.585752	-0.060342	0.573465
C48	C	1.327463	0.199299	0.401546
C49	C	1.260274	0.254145	0.334340
C50	C	1.244111	0.218504	0.231820
C51	C	1.295151	0.128019	0.196485
C52	C	1.362347	0.073179	0.263685
C53	C	1.378491	0.108818	0.366219
C54	C	1.709644	-0.210292	0.610987
C55	C	1.776846	-0.265135	0.678182
C56	C	1.793021	-0.229496	0.780704
C57	C	1.741999	-0.139008	0.816035
C58	C	1.674797	-0.084166	0.748840
C59	C	1.658621	-0.119812	0.646319
C60	C	1.518468	-0.506051	0.233264
C61	C	1.518638	-0.505798	0.116488
C62	C	1.585808	-0.438678	0.951914
C63	C	1.585826	-0.438633	1.061638
C64	C	1.451420	-0.573004	1.061608
C65	C	1.451398	-0.573044	0.951886
C66	C	1.623414	-0.314677	1.211602
C67	C	1.690641	-0.247482	1.266478
C68	C	1.793150	-0.231372	1.230885
C69	C	1.828454	-0.282471	1.140417
C70	C	1.761233	-0.349673	1.085547
C71	C	1.658709	-0.365764	1.121139
C72	C	1.413821	-0.697002	0.801920
C73	C	1.346604	-0.764210	0.747048
C74	C	1.244093	-0.780331	0.782639
C75	C	1.208793	-0.729250	0.873110
C76	C	1.276010	-0.662042	0.927982
C77	C	1.378520	-0.645919	0.892384
H78	H	1.013999	-0.777517	0.620385
C79	C	1.658709	0.109150	0.646326
C80	C	1.644367	0.216979	0.631936
C81	C	1.711554	0.272068	0.699015
H82	H	1.643418	0.091320	0.716957
H83	H	1.729315	0.091216	0.630943
H84	H	1.573777	0.234906	0.647327
H85	H	1.659666	0.234840	0.561319
H86	H	1.782160	0.254134	0.683632
H87	H	1.696257	0.254230	0.769642
H88	H	1.701839	0.345235	0.689254
H89	H	1.911932	-0.269355	1.111450
C90	C	1.133705	-0.646299	0.646025
C91	C	1.241531	-0.631916	0.631637
C92	C	1.296636	-0.699147	0.698594
H93	H	1.115885	-0.631073	0.716684
H94	H	1.115775	-0.716896	0.630529
H95	H	1.259454	-0.561335	0.647140
H96	H	1.259383	-0.647150	0.560991
H97	H	1.278705	-0.769744	0.683098
H98	H	1.278807	-0.683915	0.769249
H99	H	1.369801	-0.689404	0.688834
H100	H	0.914525	-0.899587	0.742095
H101	H	1.403905	-0.000490	0.234915
H102	H	0.750446	-0.835618	0.834856
C103	C	0.904339	-0.365840	0.366395
C104	C	0.796513	-0.380264	0.380745
C105	C	0.741406	-0.313113	0.313710
H106	H	0.922203	-0.295225	0.381820
H107	H	0.922224	-0.381136	0.295752
H108	H	0.778636	-0.364961	0.451371
H109	H	0.778618	-0.450865	0.365312
H110	H	0.759291	-0.328409	0.243068
H111	H	0.759279	-0.242502	0.329141
H112	H	0.668242	-0.322897	0.323431
H113	H	1.789978	-0.391281	1.011893
C114	C	1.378186	-0.119897	0.366228
C115	C	1.274247	-0.093210	0.389122
C116	C	1.206822	-0.148029	0.322060
H117	H	1.393403	-0.101982	0.295603
H118	H	1.387726	-0.193109	0.375849
H119	H	1.264711	-0.020015	0.379493
H120	H	1.258997	-0.111128	0.459735
H121	H	1.216362	-0.221241	0.331681
H122	H	1.222048	-0.130110	0.251439
H123	H	1.136292	-0.129937	0.337591
H124	H	1.847752	-0.274154	0.835410
C125	C	1.832443	-0.363261	0.639805
C126	C	1.940999	-0.348507	0.646134
C127	C	1.992248	-0.438870	0.610776
H128	H	1.812774	-0.421179	0.682213
H129	H	1.813250	-0.376638	0.569103
H130	H	1.960184	-0.335143	0.716824
H131	H	1.960699	-0.290607	0.603725
H132	H	1.973055	-0.452247	0.540074
H133	H	1.972570	-0.496781	0.653187
H134	H	2.065908	-0.428868	0.615056
C135	C	0.661369	-0.640096	0.819999
C136	C	0.676176	-0.646628	0.928534
C137	C	0.585819	-0.611462	0.979896
H138	H	0.647929	-0.569381	0.801029
H139	H	0.603471	-0.682544	0.800197
H140	H	0.734056	-0.604180	0.948328
H141	H	0.689602	-0.717333	0.947535
H142	H	0.527920	-0.653910	0.960094
H143	H	0.572385	-0.540748	0.960918
H144	H	0.595849	-0.615898	1.053542
H145	H	1.252754	-0.484556	0.328298
H146	H	1.352212	-0.362504	0.206578
C147	C	1.114021	-0.084621	0.265915
C148	C	1.181408	-0.033237	0.196242
C149	C	1.146003	0.069369	0.180167
H150	H	1.045298	-0.086260	0.237311
H151	H	1.113035	-0.048227	0.330881
H152	H	1.182383	-0.069621	0.131288
H153	H	1.250134	-0.031569	0.224827
H154	H	1.145016	0.105763	0.245133
H155	H	1.077279	0.067719	0.151566
H156	H	1.191724	0.104248	0.132901
C157	C	0.999605	-0.224875	0.406081
C158	C	1.024874	-0.138842	0.469383
C159	C	0.934562	-0.103449	0.520668
H160	H	0.948760	-0.204517	0.355648
H161	H	0.972055	-0.279587	0.448381
H162	H	1.052408	-0.084141	0.427085
H163	H	1.075704	-0.159175	0.519834
H164	H	0.907012	-0.158161	0.562969
H165	H	0.883724	-0.083096	0.470229
H166	H	0.951696	-0.045079	0.563632
C167	C	1.384931	-0.819865	0.648930
C168	C	1.378595	-0.928412	0.663672
C169	C	1.413900	-0.979711	0.573313
H170	H	1.342495	-0.800201	0.591004
H171	H	1.455628	-0.800706	0.635574
H172	H	1.307910	-0.947563	0.677015
H173	H	1.421033	-0.948106	0.721581
H174	H	1.484597	-0.960552	0.559956
H175	H	1.371461	-0.960039	0.515393
H176	H	1.409615	-1.053365	0.583306
H177	H	1.696467	-0.239328	0.527509
H178	H	0.785303	-0.527517	0.684222
H179	H	1.287592	-0.176480	0.177588
H180	H	1.340605	0.228318	0.485030
H181	H	1.539940	-0.327780	1.240586
C182	C	1.652525	-0.191944	1.364745
C183	C	1.733350	-0.129676	1.405200
C184	C	1.698289	-0.078515	1.495732
H185	H	1.594122	-0.148952	1.347931
H186	H	1.632334	-0.242478	1.415540
H187	H	1.753527	-0.079148	1.354415
H188	H	1.791760	-0.172642	1.422036
H189	H	1.678098	-0.129049	1.546527
H190	H	1.639885	-0.035528	1.478909
H191	H	1.753126	-0.036267	1.523197
H192	H	1.247260	-0.620450	1.001649
C193	C	1.171134	-0.853459	0.723229
C194	C	1.139563	-0.935117	0.789342
C195	C	1.072363	-1.002505	0.734651
H196	H	1.111293	-0.815605	0.700243
H197	H	1.206817	-0.881650	0.664272
H198	H	1.103880	-0.906928	0.848279
H199	H	1.199381	-0.972998	0.812331
H200	H	1.108046	-1.030695	0.675694
H201	H	1.012528	-0.964642	0.711667
H202	H	1.050942	-1.057923	0.779497
C203	C	1.378584	-0.645885	1.121346
C204	C	1.393007	-0.631490	1.229181
C205	C	1.325939	-0.698623	1.284241
H206	H	1.307949	-0.630577	1.103481
H207	H	1.393955	-0.716506	1.103421
H208	H	1.377629	-0.560885	1.247098
H209	H	1.463628	-0.646806	1.247077
H210	H	1.341310	-0.769244	1.266316
H211	H	1.255308	-0.683309	1.266368
H212	H	1.335723	-0.688872	1.357412
H213	H	1.125321	-0.742381	0.902092
H214	H	1.281994	0.099015	0.112998
C215	C	1.171079	0.278162	0.159030
C216	C	1.129826	0.365015	0.211922
C217	C	1.062531	0.419990	0.144912
H218	H	1.208953	0.301213	0.099248
H219	H	1.115524	0.233486	0.137490
H220	H	1.185372	0.409684	0.233446
H221	H	1.091934	0.341994	0.271698
H222	H	1.006976	0.375314	0.123373
H223	H	1.100412	0.443034	0.085134
H224	H	1.034525	0.478920	0.180793
H225	H	1.218718	0.327818	0.363120
C226	C	1.658628	-0.365577	0.892425
C227	C	1.635747	-0.261617	0.919101
C228	C	1.702796	-0.194242	0.864315
H229	H	1.729258	-0.380808	0.910374
H230	H	1.648984	-0.375151	0.819209
H231	H	1.645399	-0.252048	0.992301
H232	H	1.565129	-0.246353	0.901149
H233	H	1.693153	-0.203816	0.791098
H234	H	1.773422	-0.209483	0.882268
H235	H	1.687274	-0.123698	0.882399
H236	H	1.633255	-0.010483	0.777615
H237	H	1.497292	-0.683873	0.772928
C238	C	1.759677	-0.100484	0.927389
C239	C	1.829439	-0.167886	0.978678
C240	C	1.845756	-0.132430	1.081258
H241	H	1.788303	-0.031780	0.925703
H242	H	1.694793	-0.099434	0.963877
H243	H	1.894311	-0.168925	0.942200
H244	H	1.800833	-0.236592	0.980393
H245	H	1.780871	-0.131380	1.117745
H246	H	1.874379	-0.063727	1.079561
H247	H	1.893083	-0.178162	1.116073
H248	H	1.847887	-0.176659	1.275572
