data_functionalizedCrystal
_audit_creation_method	'MofGen! by Chris Wilmer'
_symmetry_space_group_name_H-M	'P1'
_symmetry_Int_Tables_number	1
_symmetry_cell_setting	triclinic
loop_
_symmetry_equiv_pos_as_xyz
  x,y,z
_cell_length_a	12.837943
_cell_length_b	12.837942
_cell_length_c	11.892095
_cell_angle_alpha	85.697431
_cell_angle_beta	85.689438
_cell_angle_gamma	85.171060
loop_
_atom_site_label
_atom_site_type_symbol
_atom_site_fract_x
_atom_site_fract_y
_atom_site_fract_z
O1	O	1.408367	-0.266110	-0.093982
O2	O	1.105234	-0.252667	-0.093989
O3	O	1.250078	-0.107822	-0.093979
O4	O	1.263522	-0.410955	-0.093992
O5	O	1.237999	-0.119879	0.094028
O6	O	1.093155	-0.264723	0.094018
O7	O	1.396288	-0.278167	0.094025
Zn8	Zn	1.242803	-0.273359	0.123871
Zn9	Zn	1.258718	-0.257474	-0.123836
O10	O	1.251443	-0.423011	0.094014
C11	C	1.060125	-0.254153	0.000014
C12	C	0.943710	-0.240609	0.000011
C13	C	0.718835	-0.403439	0.000020
C14	C	0.609453	-0.390717	0.000019
C15	C	0.615561	-0.202446	0.000015
C16	C	0.724943	-0.215167	0.000017
C17	C	0.776577	-0.315667	0.000017
C18	C	0.885961	-0.328387	0.000011
C19	C	0.892066	-0.140117	0.000015
C20	C	0.782684	-0.127395	0.000014
C21	C	1.239497	-0.074781	0.000024
C22	C	1.225953	0.041634	0.000022
C23	C	1.441397	-0.276680	0.000020
C24	C	1.557812	-0.290224	0.000015
C25	C	1.262024	-0.456052	0.000009
C26	C	1.275569	-0.572467	0.000004
N27	N	1.231950	-0.284200	0.292925
C28	C	1.388784	0.266509	0.000002
C29	C	1.376062	0.375892	-0.000000
C30	C	1.187791	0.369784	0.000007
C31	C	1.200512	0.260402	0.000009
C32	C	1.301011	0.208768	0.000008
C33	C	1.313731	0.099383	0.000019
C34	C	1.125461	0.093278	0.000018
C35	C	1.112740	0.202660	0.000016
N36	N	1.269579	-0.246626	-0.292889
C37	C	1.345098	-0.171130	0.529580
C38	C	1.337519	-0.178716	0.647922
C39	C	1.209210	-0.306952	0.647951
C40	C	1.216788	-0.299366	0.529610
C41	C	1.284736	-0.231454	0.470428
C42	C	1.292319	-0.223874	0.352085
C43	C	1.164005	-0.352104	0.352116
C44	C	1.156426	-0.359690	0.470458
H45	H	0.562444	-0.462191	0.000024
H46	H	1.030916	0.244716	0.000012
H47	H	1.053990	0.046252	0.000033
H48	H	1.347647	-0.168579	0.303901
C49	C	1.097617	-0.418476	0.287047
H50	H	1.111860	-0.404234	0.208091
H51	H	1.114656	-0.490710	0.306449
H52	H	1.025376	-0.401418	0.306447
C53	C	0.725887	-0.016853	0.000008
H54	H	0.775944	0.033598	0.000011
H55	H	0.687553	-0.003779	-0.065553
H56	H	0.679134	-0.012175	0.065579
C57	C	0.942757	-0.438930	0.000015
H58	H	0.892698	-0.489381	0.000028
H59	H	0.989513	-0.443611	-0.065546
H60	H	0.981086	-0.452004	0.065587
H61	H	1.400430	-0.115841	0.481394
C62	C	0.558756	-0.091907	0.000017
H63	H	0.608808	-0.041451	0.000022
H64	H	0.520419	-0.078833	-0.065541
H65	H	0.512006	-0.087238	0.065591
C66	C	0.955584	-0.043564	0.000011
H67	H	1.028123	-0.065531	0.000016
H68	H	0.943119	0.001399	-0.065552
H69	H	0.934704	-0.007002	0.065580
C70	C	1.403920	-0.112363	0.712986
H71	H	1.445475	-0.070838	0.660787
H72	H	1.359003	-0.068007	0.759162
H73	H	1.448267	-0.157314	0.759137
C74	C	1.134474	-0.381644	0.713063
H75	H	1.138612	-0.377522	0.792014
H76	H	1.064726	-0.362098	0.693684
H77	H	1.153994	-0.451403	0.693673
H78	H	1.395563	0.057344	0.000022
H79	H	1.470613	0.224468	0.000012
H80	H	1.447536	0.422901	-0.000009
H81	H	1.105969	0.411844	-0.000004
C82	C	0.775636	-0.513979	0.000011
H83	H	0.725581	-0.564433	0.000014
H84	H	0.822392	-0.518647	-0.065551
H85	H	0.813966	-0.527061	0.065582
C86	C	1.081696	-0.434391	0.535563
H87	H	1.085831	-0.430276	0.614515
H88	H	1.011947	-0.414851	0.516184
H89	H	1.101223	-0.504146	0.516164
