data_functionalizedCrystal
_audit_creation_method	'MofGen! by Chris Wilmer'
_symmetry_space_group_name_H-M	'P1'
_symmetry_Int_Tables_number	1
_symmetry_cell_setting	triclinic
loop_
_symmetry_equiv_pos_as_xyz
  x,y,z
_cell_length_a	19.805407
_cell_length_b	21.295416
_cell_length_c	19.805399
_cell_angle_alpha	90.029778
_cell_angle_beta	89.983114
_cell_angle_gamma	89.969669
loop_
_atom_site_label
_atom_site_type_symbol
_atom_site_fract_x
_atom_site_fract_y
_atom_site_fract_z
Zn1	Zn	1.034699	0.250615	-0.382716
Zn2	Zn	1.034612	0.355886	-0.269526
Zn3	Zn	0.921519	0.250635	-0.269541
Zn4	Zn	0.921470	0.355850	-0.382673
O5	O	0.978075	0.303247	-0.326114
O6	O	1.129404	0.264586	-0.367713
O7	O	1.019594	0.341948	-0.174811
O8	O	0.936590	0.162543	-0.284578
O9	O	1.129340	0.341929	-0.284553
O10	O	1.019743	0.162528	-0.367727
O11	O	0.936505	0.264620	-0.174822
O12	O	0.826796	0.264585	-0.284536
O13	O	0.936506	0.341867	-0.477395
O14	O	0.826760	0.341887	-0.367654
O15	O	1.019695	0.264551	-0.477427
O16	O	1.019546	0.443971	-0.284511
O17	O	0.936421	0.443945	-0.367640
C18	C	0.802219	0.303235	-0.326092
C19	C	0.726987	0.303245	-0.326099
C20	C	0.977987	0.466798	-0.326084
C21	C	0.978011	0.536766	-0.326094
C22	C	0.691642	0.343556	-0.369308
C23	C	0.620953	0.343557	-0.369318
C24	C	0.585611	0.303250	-0.326114
C25	C	0.620962	0.262934	-0.282903
C26	C	0.691649	0.262930	-0.282897
C27	C	0.335888	0.262948	-0.282925
C28	C	0.265196	0.262956	-0.282932
C29	C	0.265193	0.343575	-0.369346
C30	C	0.335880	0.343571	-0.369340
C31	C	0.371224	0.303253	-0.326132
C32	C	0.447872	0.303252	-0.326123
C33	C	0.508964	0.303254	-0.326119
C34	C	1.021333	0.569626	-0.282855
C35	C	1.021365	0.635368	-0.282873
C36	C	0.978063	0.668249	-0.326123
C37	C	0.934738	0.635381	-0.369371
C38	C	0.934712	0.569640	-0.369356
N39	N	0.918852	0.771515	-0.331281
N40	N	0.918879	0.833966	-0.331291
C41	C	0.978139	0.866324	-0.326171
N42	N	1.037373	0.833870	-0.321028
N43	N	1.037346	0.771413	-0.321015
C44	C	0.978086	0.739534	-0.326144
C45	C	1.021499	0.970469	-0.282950
C46	C	1.021532	1.036212	-0.282973
C47	C	0.934900	1.036224	-0.369467
C48	C	0.934873	0.970482	-0.369447
C49	C	0.978171	0.937608	-0.326185
C50	C	1.154618	0.303259	-0.326136
C51	C	1.229850	0.303265	-0.326146
C52	C	0.978183	1.139056	-0.326170
C53	C	0.978231	1.069088	-0.326224
C54	C	0.978105	0.303203	-0.502657
C55	C	0.978117	0.303184	-0.577889
C56	C	0.934865	0.262916	-0.613238
C57	C	0.934875	0.262904	-0.683926
C58	C	0.978140	0.303157	-0.719264
C59	C	1.021394	0.343430	-0.683910
C60	C	1.021380	0.343445	-0.613223
C61	C	1.021447	0.343371	-0.968984
C62	C	1.021459	0.343352	-1.039676
C63	C	0.934942	0.262830	-1.039687
C64	C	0.934928	0.262845	-0.969000
C65	C	0.978179	0.303120	-0.933652
C66	C	0.978168	0.303133	-0.857003
C67	C	0.978155	0.303141	-0.795912
C68	C	0.978084	0.303245	-0.150258
C69	C	0.978203	0.303086	-0.075026
H70	H	0.592178	0.376383	-0.404502
H71	H	1.056591	0.542862	-0.247630
H72	H	0.899723	0.230038	-1.068476
O73	O	1.063555	1.068232	-0.240990
C74	C	1.072845	1.142575	-0.149704
C75	C	1.025159	1.106344	-0.197181
H76	H	1.041821	1.173387	-0.114262
H77	H	1.108183	1.173314	-0.180858
H78	H	1.103840	1.107804	-0.118811
H79	H	0.994121	1.141069	-0.228083
H80	H	0.989867	1.075595	-0.165988
H81	H	0.899645	1.062995	-0.404685
O82	O	0.892721	0.537689	-0.411430
C83	C	0.883525	0.463377	-0.502755
C84	C	0.931158	0.499535	-0.455161
H85	H	0.914582	0.432510	-0.538114
H86	H	0.852594	0.498138	-0.533723
H87	H	0.848128	0.432679	-0.471623
H88	H	0.966597	0.530233	-0.486240
H89	H	0.962042	0.464739	-0.424190
O90	O	1.063493	0.382443	-0.718267
C91	C	1.154857	0.390904	-0.798113
C92	C	1.107231	0.346650	-0.759236
H93	H	1.190223	0.361983	-0.831257
H94	H	1.185818	0.419678	-0.760735
H95	H	1.123752	0.423820	-0.831164
H96	H	1.138285	0.313695	-0.726184
H97	H	1.076269	0.317920	-0.796651
H98	H	1.056692	0.376133	-1.068446
O99	O	0.892751	0.938488	-0.411350
C100	C	0.801306	0.864363	-0.420347
C101	C	0.848977	0.900545	-0.372813
H102	H	0.765894	0.833686	-0.389208
H103	H	0.832309	0.833491	-0.455750
H104	H	0.770392	0.899165	-0.451279
H105	H	0.879902	0.865788	-0.341837
H106	H	0.817936	0.931425	-0.337455
H107	H	1.056658	0.376172	-0.940212
H108	H	1.056645	0.662128	-0.247663
O109	O	0.230963	0.382792	-0.411350
C110	C	0.238422	0.462725	-0.497097
C111	C	0.277269	0.418357	-0.449552
H112	H	0.275844	0.491482	-0.528006
H113	H	0.205314	0.495648	-0.465999
H114	H	0.205342	0.433856	-0.532520
H115	H	0.310385	0.447176	-0.414120
H116	H	0.310334	0.385432	-0.480693
H117	H	0.236423	0.230129	-0.247751
H118	H	1.056758	0.943702	-0.247725
O119	O	0.892772	0.223794	-0.579018
C120	C	0.806980	0.143902	-0.586498
C121	C	0.854609	0.188184	-0.625333
H122	H	0.776123	0.115091	-0.623927
H123	H	0.771519	0.172779	-0.553411
H124	H	0.838078	0.111022	-0.553399
H125	H	0.823565	0.221074	-0.658469
H126	H	0.890072	0.159269	-0.658378
H127	H	1.056606	0.376231	-0.584443
O128	O	0.892652	0.667221	-0.411447
C129	C	0.806699	0.660296	-0.497210
C130	C	0.854335	0.624161	-0.449599
H131	H	0.775697	0.625498	-0.528057
H132	H	0.837731	0.691009	-0.532681
H133	H	0.771367	0.691141	-0.466098
H134	H	0.889677	0.593282	-0.480656
H135	H	0.823261	0.593488	-0.414126
H136	H	0.364652	0.376396	-0.404519
O137	O	0.725865	0.382731	-0.411341
C138	C	0.718392	0.462720	-0.497031
C139	C	0.679553	0.418377	-0.449470
H140	H	0.680966	0.491560	-0.527861
H141	H	0.751495	0.433889	-0.532521
H142	H	0.751477	0.495571	-0.465880
H143	H	0.646432	0.385518	-0.480567
H144	H	0.646493	0.447247	-0.413979
H145	H	0.364657	0.230123	-0.247737
O146	O	0.586528	0.223834	-0.240959
C147	C	0.477635	0.188078	-0.202702
C148	C	0.516544	0.232401	-0.250226
H149	H	0.421046	0.194979	-0.210188
H150	H	0.491456	0.199062	-0.148086
H151	H	0.491606	0.137341	-0.214683
H152	H	0.502595	0.283153	-0.238306
H153	H	0.502720	0.221362	-0.304829
O154	O	0.892780	0.223880	-0.718288
C155	C	0.801423	0.215397	-0.798097
C156	C	0.849053	0.259661	-0.759217
H157	H	0.766068	0.244307	-0.831208
H158	H	0.770453	0.186644	-0.760721
H159	H	0.832527	0.182460	-0.831182
H160	H	0.818001	0.292636	-0.726131
H161	H	0.880025	0.288369	-0.796629
O162	O	0.725957	0.223842	-0.240823
C163	C	0.747531	0.193125	-0.125749
C164	C	0.708648	0.237442	-0.173319
H165	H	0.733540	0.204095	-0.071163
H166	H	0.804131	0.200048	-0.133109
H167	H	0.733672	0.142384	-0.137768
H168	H	0.722450	0.288200	-0.161330
H169	H	0.652057	0.230464	-0.165951
O170	O	0.892837	0.223723	-0.934778
C171	C	0.807046	0.143829	-0.942251
C172	C	0.854672	0.188111	-0.981090
H173	H	0.776188	0.115016	-0.979677
H174	H	0.771585	0.172706	-0.909164
H175	H	0.838147	0.110950	-0.909152
H176	H	0.823626	0.220998	-1.014226
H177	H	0.890135	0.159195	-1.014135
