data_functionalizedCrystal
_audit_creation_method	'MofGen! by Chris Wilmer'
_symmetry_space_group_name_H-M	'P1'
_symmetry_Int_Tables_number	1
_symmetry_cell_setting	triclinic
loop_
_symmetry_equiv_pos_as_xyz
  x,y,z
_cell_length_a	42.774184
_cell_length_b	42.790298
_cell_length_c	42.784893
_cell_angle_alpha	89.996576
_cell_angle_beta	120.002638
_cell_angle_gamma	60.012247
loop_
_atom_site_label
_atom_site_type_symbol
_atom_site_fract_x
_atom_site_fract_y
_atom_site_fract_z
O1	O	-0.275789	-0.214385	-0.009293
O2	O	-0.211765	-0.168939	0.009258
O3	O	-0.275779	-0.168943	-0.054743
O4	O	-0.211775	-0.214381	0.054709
O5	O	-0.223793	-0.220913	-0.054743
O6	O	-0.159779	-0.220909	0.009259
O7	O	-0.223803	-0.266354	-0.009292
Zn8	Zn	-0.183537	-0.251883	-0.000017
Zn9	Zn	-0.252031	-0.183411	-0.000017
O10	O	-0.159789	-0.266350	0.054709
C11	C	-0.051260	-0.079146	0.028125
C12	C	-0.069886	-0.041539	0.028389
C13	C	0.005353	-0.079148	0.028123
C14	C	-0.013360	-0.041542	0.028386
C15	C	-0.051244	-0.022562	0.028123
C16	C	-0.013376	-0.098039	0.028389
C17	C	-0.096105	-0.170799	0.017884
C18	C	-0.116827	-0.188734	0.014988
C19	C	-0.155561	-0.169397	0.013535
C20	C	-0.178035	-0.188839	0.010388
C21	C	-0.173569	-0.132126	0.014980
C22	C	-0.152844	-0.114197	0.017881
C23	C	-0.114110	-0.133535	0.019333
C24	C	-0.153157	0.113892	0.017875
C25	C	-0.173989	0.152534	0.014977
C26	C	-0.156097	0.171919	0.013519
C27	C	-0.178684	0.213818	0.010372
C28	C	-0.117367	0.152657	0.014965
C29	C	-0.096532	0.114015	0.017869
C30	C	-0.114434	0.094635	0.019322
C31	C	0.131598	-0.170809	0.017874
C32	C	0.167353	-0.188744	0.014970
C33	C	0.185298	-0.169410	0.013514
C34	C	0.224065	-0.188855	0.010365
C35	C	0.167485	-0.132141	0.014958
C36	C	0.131730	-0.114207	0.017860
C37	C	0.113791	-0.133546	0.019321
C38	C	-0.091642	-0.114088	0.022474
C39	C	-0.073731	-0.098589	0.024980
C40	C	0.044119	-0.098594	0.024975
C41	C	0.075022	-0.114095	0.022467
C42	C	-0.073834	0.019337	0.024975
C43	C	-0.091840	0.052734	0.022468
C44	C	-0.384484	-0.079150	-0.361600
C45	C	-0.422365	-0.041545	-0.380496
C46	C	-0.384484	-0.079150	-0.305001
C47	C	-0.422365	-0.041545	-0.323984
C48	C	-0.441084	-0.022568	-0.361599
C49	C	-0.365851	-0.098041	-0.323984
C50	C	-0.282553	-0.170802	-0.396161
C51	C	-0.261715	-0.188736	-0.413976
C52	C	-0.279600	-0.169402	-0.451251
C53	C	-0.257003	-0.188844	-0.470566
C54	C	-0.318328	-0.132133	-0.470711
C55	C	-0.339167	-0.114203	-0.452898
C56	C	-0.321277	-0.133539	-0.415622
C57	C	-0.567326	0.113881	-0.453276
C58	C	-0.603081	0.152521	-0.471216
C59	C	-0.621017	0.171907	-0.451877
C60	C	-0.659780	0.213804	-0.471323
C61	C	-0.603197	0.152647	-0.414598
C62	C	-0.567448	0.114006	-0.396661
C63	C	-0.549513	0.094625	-0.416005
C64	C	-0.282553	-0.170801	-0.168515
C65	C	-0.261712	-0.188734	-0.129862
C66	C	-0.279597	-0.169400	-0.110472
C67	C	-0.257000	-0.188842	-0.068561
C68	C	-0.318322	-0.132132	-0.129736
C69	C	-0.339160	-0.114201	-0.168387
C70	C	-0.321274	-0.133540	-0.187775
C71	C	-0.343875	-0.114092	-0.396308
C72	C	-0.361887	-0.098593	-0.380913
C73	C	-0.361887	-0.098593	-0.263092
C74	C	-0.343875	-0.114092	-0.229686
C75	C	-0.479847	0.019330	-0.381048
C76	C	-0.510747	0.052726	-0.396551
C77	C	-0.440912	-0.356165	-0.028182
C78	C	-0.422197	-0.393771	-0.028447
C79	C	-0.384299	-0.356162	-0.028179
C80	C	-0.365670	-0.393768	-0.028444
C81	C	-0.384311	-0.412748	-0.028181
C82	C	-0.422185	-0.337271	-0.028445
C83	C	-0.567164	-0.264513	-0.017937
C84	C	-0.602924	-0.246579	-0.015041
C85	C	-0.620867	-0.265915	-0.013588
C86	C	-0.659636	-0.246474	-0.010440
C87	C	-0.603051	-0.303185	-0.015035
C88	C	-0.567298	-0.321115	-0.017936
C89	C	-0.549355	-0.301777	-0.019387
C90	C	-0.339521	-0.549201	-0.017938
C91	C	-0.318812	-0.587842	-0.015041
C92	C	-0.280077	-0.607227	-0.013584
C93	C	-0.257617	-0.649126	-0.010438
C94	C	-0.262054	-0.587965	-0.015029
C95	C	-0.282766	-0.549324	-0.017932
C96	C	-0.321501	-0.529944	-0.019384
C97	C	-0.339461	-0.264503	-0.017927
C98	C	-0.318737	-0.246567	-0.015024
C99	C	-0.280002	-0.265901	-0.013568
C100	C	-0.257529	-0.246457	-0.010418
C101	C	-0.261991	-0.303170	-0.015013
C102	C	-0.282715	-0.321104	-0.017915
C103	C	-0.321453	-0.301765	-0.019376
C104	C	-0.510583	-0.321223	-0.022529
C105	C	-0.479680	-0.336722	-0.025036
C106	C	-0.361829	-0.336717	-0.025031
C107	C	-0.343920	-0.321216	-0.022522
C108	C	-0.361854	-0.454646	-0.025035
C109	C	-0.343955	-0.488044	-0.022528
O110	O	0.327666	-0.266374	-0.009309
O111	O	0.236751	-0.220927	0.009240
O112	O	0.236748	-0.220933	-0.054761
O113	O	0.327669	-0.266368	0.054692
O114	O	0.236763	-0.168963	-0.054763
O115	O	0.236766	-0.168957	0.009238
O116	O	0.327680	-0.214404	-0.009311
Zn117	Zn	0.282226	-0.183429	-0.000037
Zn118	Zn	0.282206	-0.251902	-0.000034
O119	O	0.327684	-0.214397	0.054689
O120	O	-0.223887	0.337057	-0.009309
O121	O	-0.159901	0.227633	0.009240
O122	O	-0.223902	0.291612	-0.054761
O123	O	-0.159886	0.273078	0.054692
O124	O	-0.275898	0.291614	-0.054758
O125	O	-0.211898	0.227635	0.009242
O126	O	-0.275884	0.337059	-0.009306
Zn127	Zn	-0.252146	0.282347	-0.000032
Zn128	Zn	-0.183638	0.282345	-0.000035
O129	O	-0.211883	0.273080	0.054694
O130	O	-0.763373	0.337041	-0.496866
O131	O	-0.672469	0.227620	-0.451417
O132	O	-0.672455	0.291604	-0.451413
O133	O	-0.763386	0.273057	-0.496870
O134	O	-0.672457	0.291606	-0.503398
O135	O	-0.672470	0.227621	-0.503402
O136	O	-0.763374	0.337042	-0.548851
Zn137	Zn	-0.717922	0.282332	-0.534380
Zn138	Zn	-0.717921	0.282330	-0.465888
O139	O	-0.763387	0.273058	-0.548854
O140	O	-0.211771	-0.214385	-0.548611
O141	O	-0.275778	-0.168944	-0.503161
O142	O	-0.211762	-0.168942	-0.503157
O143	O	-0.275786	-0.214388	-0.548614
O144	O	-0.159777	-0.220910	-0.451173
O145	O	-0.223793	-0.220913	-0.451176
O146	O	-0.159786	-0.266353	-0.496627
Zn147	Zn	-0.183536	-0.251884	-0.465648
Zn148	Zn	-0.252028	-0.183414	-0.534139
O149	O	-0.223801	-0.266356	-0.496630
C150	C	0.005274	-0.412484	0.361565
C151	C	-0.013445	-0.393506	0.380462
C152	C	-0.051327	-0.355901	0.304967
C153	C	-0.069959	-0.337010	0.323951
C154	C	-0.051326	-0.355902	0.361566
C155	C	-0.013446	-0.393506	0.323950
C156	C	0.131515	-0.548932	0.396123
C157	C	0.167270	-0.587572	0.413937
C158	C	0.185206	-0.606957	0.451212
C159	C	0.223969	-0.648856	0.470526
C160	C	0.167387	-0.587697	0.470673
C161	C	0.131638	-0.549058	0.452861
C162	C	0.113702	-0.529675	0.415585
C163	C	-0.096137	-0.321352	0.453245
C164	C	-0.116849	-0.303543	0.471186
C165	C	-0.155580	-0.266280	0.451848
C166	C	-0.178045	-0.246970	0.471294
C167	C	-0.173595	-0.246825	0.414568
C168	C	-0.152879	-0.264631	0.396631
C169	C	-0.114148	-0.301898	0.415974
C170	C	-0.096139	-0.321349	0.168480
C171	C	-0.116856	-0.303542	0.129827
C172	C	-0.155587	-0.266277	0.110438
C173	C	-0.178052	-0.246968	0.068527
C174	C	-0.173601	-0.246824	0.129702
C175	C	-0.152885	-0.264634	0.168354
C176	C	-0.114150	-0.301896	0.187741
C177	C	0.074936	-0.487778	0.396272
C178	C	0.044037	-0.454381	0.380878
C179	C	-0.073789	-0.336593	0.263058
C180	C	-0.091692	-0.321203	0.229652
C181	C	-0.073787	-0.336594	0.381015
C182	C	-0.091690	-0.321204	0.396520
C183	C	-0.051263	-0.022840	-0.361620
C184	C	-0.069907	-0.041819	-0.380516
C185	C	0.005336	-0.079421	-0.305021
C186	C	-0.013394	-0.098314	-0.324003
C187	C	-0.051280	-0.079423	-0.361619
C188	C	-0.013377	-0.041817	-0.324005
C189	C	-0.096044	0.113608	-0.396184
C190	C	-0.116750	0.152249	-0.413999
C191	C	-0.155486	0.171632	-0.451274
C192	C	-0.177944	0.213531	-0.470590
C193	C	-0.173512	0.152371	-0.470734
C194	C	-0.152802	0.113732	-0.452920
C195	C	-0.114066	0.094351	-0.415644
C196	C	-0.153247	-0.113978	-0.453295
C197	C	-0.174095	-0.131788	-0.471234
C198	C	-0.156219	-0.169050	-0.451895
C199	C	-0.178824	-0.188362	-0.471340
C200	C	-0.117486	-0.188504	-0.414615
C201	C	-0.096634	-0.170697	-0.396679
C202	C	-0.114521	-0.133430	-0.416023
C203	C	0.131605	-0.113968	-0.168535
C204	C	0.167362	-0.131774	-0.129881
C205	C	0.185292	-0.169038	-0.110491
C206	C	0.224061	-0.188347	-0.068580
C207	C	0.167461	-0.188493	-0.129754
C208	C	0.131704	-0.170685	-0.168406
C209	C	0.113781	-0.133422	-0.187795
C210	C	-0.091615	0.052453	-0.396330
C211	C	-0.073718	0.019057	-0.380934
C212	C	0.044105	-0.098728	-0.263112
C213	C	0.075009	-0.114117	-0.229705
C214	C	-0.073888	-0.098732	-0.381067
C215	C	-0.091909	-0.114123	-0.396570
C216	C	0.615712	-0.356155	0.361548
C217	C	0.634339	-0.393759	0.380445
C218	C	0.559096	-0.356156	0.304950
C219	C	0.577809	-0.393760	0.323933
C220	C	0.615695	-0.412737	0.361548
C221	C	0.577826	-0.337264	0.323932
C222	C	0.660562	-0.264501	0.396107
C223	C	0.681285	-0.246566	0.413921
C224	C	0.720021	-0.265900	0.451196
C225	C	0.742497	-0.246458	0.470511
C226	C	0.738030	-0.303169	0.470657
C227	C	0.717303	-0.321099	0.452845
C228	C	0.678567	-0.301764	0.415568
C229	C	0.717610	-0.549184	0.453228
C230	C	0.738441	-0.587825	0.471169
C231	C	0.720548	-0.607211	0.451831
C232	C	0.743134	-0.649108	0.471277
C233	C	0.681815	-0.587952	0.414551
C234	C	0.660980	-0.549311	0.396614
C235	C	0.678884	-0.529930	0.415956
C236	C	0.432844	-0.264507	0.168462
C237	C	0.397087	-0.246575	0.129809
C238	C	0.379140	-0.265910	0.110420
C239	C	0.340371	-0.246469	0.068509
C240	C	0.396954	-0.303177	0.129684
C241	C	0.432711	-0.321108	0.168336
C242	C	0.450651	-0.301768	0.187723
C243	C	0.656097	-0.321211	0.396255
C244	C	0.638185	-0.336711	0.380861
C245	C	0.520327	-0.336714	0.263040
C246	C	0.489423	-0.321215	0.229634
C247	C	0.638284	-0.454634	0.380998
C248	C	0.656291	-0.488031	0.396502
C249	C	-0.440980	0.310430	-0.361607
C250	C	-0.422256	0.310690	-0.380504
C251	C	-0.384369	0.310440	-0.305012
C252	C	-0.365731	0.310699	-0.323995
C253	C	-0.384367	0.310428	-0.361609
C254	C	-0.422257	0.310702	-0.323993
C255	C	-0.567252	0.300184	-0.396160
C256	C	-0.603016	0.297285	-0.413972
C257	C	-0.620954	0.295824	-0.451246
C258	C	-0.659727	0.292674	-0.470559
C259	C	-0.603130	0.297265	-0.470707
C260	C	-0.567373	0.300169	-0.452897
C261	C	-0.549434	0.301628	-0.415622
C262	C	-0.339548	0.300163	-0.453287
C263	C	-0.318831	0.297262	-0.471228
C264	C	-0.280093	0.295808	-0.451891
C265	C	-0.257624	0.292657	-0.471337
C266	C	-0.262075	0.297261	-0.414613
C267	C	-0.282795	0.300169	-0.396676
C268	C	-0.321533	0.301617	-0.416017
C269	C	-0.339555	0.300222	-0.168527
C270	C	-0.318837	0.297327	-0.129875
C271	C	-0.280098	0.295876	-0.110487
C272	C	-0.257631	0.292736	-0.068577
C273	C	-0.262079	0.297315	-0.129752
C274	C	-0.282797	0.300208	-0.168402
C275	C	-0.321539	0.301664	-0.187788
C276	C	-0.510658	0.304773	-0.396311
C277	C	-0.479752	0.307282	-0.380918
C278	C	-0.361905	0.307301	-0.263103
C279	C	-0.343999	0.304801	-0.229698
C280	C	-0.361902	0.307277	-0.381059
C281	C	-0.343995	0.304766	-0.396563
O282	O	-0.275667	0.336769	-0.548633
O283	O	-0.211675	0.227346	-0.503184
O284	O	-0.275671	0.291326	-0.503178
O285	O	-0.211671	0.272789	-0.548639
O286	O	-0.223671	0.291328	-0.451195
O287	O	-0.159675	0.227347	-0.451201
O288	O	-0.223667	0.336771	-0.496650
Zn289	Zn	-0.183415	0.282059	-0.465672
Zn290	Zn	-0.251927	0.282057	-0.534162
O291	O	-0.159670	0.272790	-0.496656
C292	C	-0.051172	0.254263	0.361543
C293	C	-0.013284	0.254002	0.380438
C294	C	-0.051171	0.254253	0.304945
C295	C	-0.013283	0.253992	0.323926
C296	C	0.005439	0.254263	0.361540
C297	C	-0.069808	0.253992	0.323929
C298	C	-0.153119	0.264515	0.396108
C299	C	-0.173961	0.267415	0.413923
C300	C	-0.156072	0.268876	0.451197
C301	C	-0.178673	0.272027	0.470513
C302	C	-0.117338	0.267433	0.470655
C303	C	-0.096496	0.264528	0.452842
C304	C	-0.114389	0.263069	0.415567
C305	C	0.131707	0.264525	0.453210
C306	C	0.167470	0.267425	0.471147
C307	C	0.185410	0.268877	0.451808
C308	C	0.224181	0.272026	0.471251
C309	C	0.167587	0.267424	0.414529
C310	C	0.131831	0.264517	0.396595
C311	C	0.113891	0.263070	0.415939
C312	C	-0.153116	0.264472	0.168464
C313	C	-0.173960	0.267366	0.129811
C314	C	-0.156070	0.268817	0.110421
C315	C	-0.178669	0.271956	0.068511
C316	C	-0.117339	0.267376	0.129683
C317	C	-0.096498	0.264483	0.168333
C318	C	-0.114388	0.263028	0.187722
C319	C	-0.091788	0.259923	0.396253
C320	C	-0.073773	0.257413	0.380857
C321	C	-0.073771	0.257391	0.263037
C322	C	-0.091785	0.259891	0.229632
C323	C	0.044210	0.257413	0.380986
C324	C	0.075116	0.259922	0.396488
H325	H	0.182099	-0.116399	0.013774
H326	H	-0.205632	-0.115945	-0.501585
C327	C	-0.324486	-0.414352	-0.029017
C328	C	-0.303883	-0.393485	-0.029298
C329	C	-0.262701	-0.414069	-0.029871
C330	C	-0.242122	-0.455521	-0.030163
C331	C	-0.262726	-0.476391	-0.029882
C332	C	-0.303908	-0.455807	-0.029309
H333	H	-0.319116	-0.362798	-0.029082
H334	H	-0.247449	-0.398620	-0.030079
H335	H	-0.211636	-0.470759	-0.030587
H336	H	-0.247492	-0.507078	-0.030098
H337	H	-0.319160	-0.471256	-0.029101
C338	C	-0.219115	-0.229727	-0.392569
C339	C	-0.217861	-0.261959	-0.409131
C340	C	-0.175260	-0.302950	-0.387723
C341	C	-0.133914	-0.311709	-0.349754
C342	C	-0.135166	-0.279476	-0.333190
C343	C	-0.177767	-0.238485	-0.354597
H344	H	-0.248469	-0.255476	-0.437240
H345	H	-0.174333	-0.326811	-0.399985
H346	H	-0.102378	-0.342053	-0.333906
H347	H	-0.104558	-0.285959	-0.305080
H348	H	-0.178694	-0.214625	-0.342336
H349	H	-0.438031	-0.026311	-0.411403
H350	H	-0.335361	-0.128935	-0.308742
C351	C	-0.172793	0.262873	0.189794
C352	C	-0.178161	0.230301	0.193271
C353	C	-0.197835	0.228702	0.214603
C354	C	-0.212141	0.259674	0.232458
C355	C	-0.206774	0.292248	0.228981
C356	C	-0.187100	0.293847	0.207649
H357	H	-0.167570	0.207372	0.180053
H358	H	-0.201808	0.204588	0.217177
H359	H	-0.226705	0.258490	0.248250
H360	H	-0.217364	0.315177	0.242199
H361	H	-0.183126	0.317960	0.205075
H362	H	0.447451	-0.248757	0.184245
H363	H	-0.617666	-0.318925	-0.013853
H364	H	-0.102162	-0.219079	0.013811
C365	C	-0.216568	0.269006	0.392519
C366	C	-0.216211	0.235637	0.378788
C367	C	-0.258819	0.237229	0.357382
C368	C	-0.301784	0.272190	0.349708
C369	C	-0.302142	0.305560	0.363440
C370	C	-0.259534	0.303968	0.384845
H371	H	-0.184405	0.209755	0.384468
H372	H	-0.258554	0.212526	0.347217
H373	H	-0.333325	0.273368	0.333863
H374	H	-0.333949	0.331442	0.357759
H375	H	-0.259800	0.328672	0.395010
H376	H	0.002228	-0.408742	0.411371
C377	C	0.112094	-0.192086	-0.189596
C378	C	0.072763	-0.172498	-0.232111
C379	C	0.053153	-0.193900	-0.253300
C380	C	0.072874	-0.234889	-0.231975
C381	C	0.112208	-0.254478	-0.189458
C382	C	0.131818	-0.233076	-0.168268
H383	H	0.058162	-0.142154	-0.247899
H384	H	0.024036	-0.179398	-0.284774
H385	H	0.058358	-0.250731	-0.247660
H386	H	0.126809	-0.284822	-0.173669
H387	H	0.160935	-0.247578	-0.136794
C388	C	0.187069	0.269028	0.512148
C389	C	0.157862	0.301599	0.520906
C390	C	0.177460	0.303205	0.561907
C391	C	0.226266	0.272239	0.594149
C392	C	0.255476	0.239665	0.585391
C393	C	0.235878	0.238060	0.544390
H394	H	0.121731	0.324524	0.497038
H395	H	0.155837	0.327318	0.568390
H396	H	0.240774	0.273427	0.624500
H397	H	0.291607	0.216741	0.609259
H398	H	0.257501	0.213947	0.537907
H399	H	-0.230535	0.296083	-0.398870
C400	C	-0.547848	0.092822	-0.355657
C401	C	-0.547530	0.057539	-0.347660
C402	C	-0.527928	0.036355	-0.306655
C403	C	-0.508644	0.050454	-0.273646
C404	C	-0.508962	0.085739	-0.281642
C405	C	-0.528563	0.106923	-0.322647
H406	H	-0.561805	0.047100	-0.372096
H407	H	-0.527693	0.010235	-0.300736
H408	H	-0.494134	0.034773	-0.243291
H409	H	-0.494686	0.096178	-0.257206
H410	H	-0.528798	0.133043	-0.328566
C411	C	0.186866	-0.608758	0.392530
C412	C	0.206148	-0.594662	0.378794
C413	C	0.225743	-0.615848	0.357386
C414	C	0.226056	-0.651129	0.349714
C415	C	0.206773	-0.665227	0.363450
C416	C	0.187179	-0.644041	0.384858
H417	H	0.205916	-0.568543	0.384473
H418	H	0.240017	-0.605411	0.347217
H419	H	0.240561	-0.666812	0.333866
H420	H	0.207005	-0.691346	0.357770
H421	H	0.172905	-0.654477	0.395026
H422	H	-0.437928	0.311129	-0.308752
C423	C	-0.097037	-0.324944	0.512188
C424	C	-0.124343	-0.332615	0.520179
C425	C	-0.104532	-0.354017	0.561181
C426	C	-0.057414	-0.367748	0.594193
C427	C	-0.030105	-0.360078	0.586203
C428	C	-0.049917	-0.338676	0.545201
H429	H	-0.159225	-0.322450	0.495741
H430	H	-0.124748	-0.359695	0.567095
H431	H	-0.042748	-0.383591	0.624545
H432	H	0.004777	-0.370242	0.610642
H433	H	-0.029701	-0.332997	0.539287
C434	C	-0.219116	-0.229727	-0.108672
C435	C	-0.177767	-0.238495	-0.105302
C436	C	-0.135171	-0.279489	-0.084113
C437	C	-0.133925	-0.311716	-0.066294
C438	C	-0.175276	-0.302949	-0.069663
C439	C	-0.217871	-0.261954	-0.090852
H440	H	-0.178688	-0.214639	-0.118494
H441	H	-0.104561	-0.285979	-0.081619
H442	H	-0.102394	-0.342062	-0.050609
H443	H	-0.174354	-0.326805	-0.056472
H444	H	-0.248481	-0.255465	-0.093346
H445	H	-0.064567	-0.186549	0.019066
H446	H	-0.205104	-0.116387	0.013799
H447	H	0.117134	-0.533379	0.468709
C448	C	-0.622516	-0.205586	-0.013445
C449	C	-0.641787	-0.172585	-0.046816
C450	C	-0.661378	-0.131592	-0.045219
C451	C	-0.661698	-0.123602	-0.010250
C452	C	-0.642426	-0.156605	0.023124
C453	C	-0.622835	-0.197597	0.021527
H454	H	-0.641551	-0.178499	-0.072705
H455	H	-0.675644	-0.107161	-0.069925
H456	H	-0.676200	-0.093257	-0.009068
H457	H	-0.642662	-0.150691	0.049013
H458	H	-0.608568	-0.222028	0.046233
C459	C	-0.097680	0.173976	0.013365
C460	C	-0.125073	0.209288	-0.021606
C461	C	-0.105388	0.230609	-0.023208
C462	C	-0.058309	0.216617	0.010162
C463	C	-0.030913	0.181303	0.045135
C464	C	-0.050599	0.159983	0.046737
H465	H	-0.159926	0.219648	-0.046310
H466	H	-0.125668	0.256751	-0.049097
H467	H	-0.043737	0.232400	0.008976
H468	H	0.003940	0.170944	0.069839
H469	H	-0.030318	0.133841	0.072627
H470	H	-0.167507	-0.083852	0.019060
C471	C	0.737297	-0.527865	0.474512
C472	C	0.709900	-0.492551	0.482086
C473	C	0.729586	-0.471231	0.503370
C474	C	0.776667	-0.485226	0.517080
C475	C	0.804066	-0.520542	0.509506
C476	C	0.784381	-0.541862	0.488222
H477	H	0.675045	-0.482189	0.471936
H478	H	0.709303	-0.445088	0.508976
H479	H	0.791239	-0.469444	0.532836
H480	H	0.838921	-0.530904	0.519655
H481	H	0.804664	-0.568005	0.482616
C482	C	-0.216197	-0.205835	0.393294
C483	C	-0.215893	-0.172770	0.379596
C484	C	-0.258497	-0.131781	0.358321
C485	C	-0.301404	-0.123857	0.350744
C486	C	-0.301710	-0.156922	0.364443
C487	C	-0.259106	-0.197912	0.385718
H488	H	-0.184129	-0.178636	0.385205
H489	H	-0.258271	-0.107303	0.348181
H490	H	-0.332942	-0.093514	0.334995
H491	H	-0.333474	-0.151057	0.358834
H492	H	-0.259332	-0.222389	0.395858
H493	H	-0.102774	0.268621	0.501004
H494	H	-0.205523	0.168214	0.013800
C495	C	-0.547767	0.301753	-0.474302
C496	C	-0.498960	0.270779	-0.457733
C497	C	-0.479353	0.272362	-0.479138
C498	C	-0.508552	0.304918	-0.517112
C499	C	-0.557361	0.335894	-0.533683
C500	C	-0.576969	0.334312	-0.512278
H501	H	-0.477343	0.246676	-0.429621
H502	H	-0.443221	0.249431	-0.466871
H503	H	-0.494037	0.306090	-0.532957
H504	H	-0.578979	0.359997	-0.561795
H505	H	-0.613101	0.357243	-0.524545
C506	C	-0.382167	0.301819	-0.189852
C507	C	-0.381876	0.268458	-0.175853
C508	C	-0.424487	0.270054	-0.197180
C509	C	-0.467389	0.305011	-0.232506
C510	C	-0.467681	0.338374	-0.246508
C511	C	-0.425071	0.336778	-0.225181
H512	H	-0.350117	0.242579	-0.149700
H513	H	-0.424270	0.245356	-0.186815
H514	H	-0.498932	0.306192	-0.248294
H515	H	-0.499441	0.364253	-0.272660
H516	H	-0.425287	0.361476	-0.235545
C517	C	-0.338633	-0.609030	-0.013447
C518	C	-0.385750	-0.594938	-0.046820
C519	C	-0.405571	-0.616125	-0.045225
C520	C	-0.378274	-0.651405	-0.010256
C521	C	-0.331153	-0.665499	0.023120
C522	C	-0.311333	-0.644311	0.021525
H523	H	-0.405960	-0.568820	-0.072708
H524	H	-0.440452	-0.605692	-0.069932
H525	H	-0.392946	-0.667089	-0.009075
H526	H	-0.310944	-0.691617	0.049008
H527	H	-0.276451	-0.654745	0.046232
C528	C	-0.111138	-0.295270	0.303362
C529	C	-0.109273	-0.263788	0.319874
C530	C	-0.150450	-0.222050	0.299286
C531	C	-0.193492	-0.211793	0.262186
C532	C	-0.195359	-0.243276	0.245672
C533	C	-0.154182	-0.285015	0.266260
H534	H	-0.077409	-0.271379	0.347340
H535	H	-0.149068	-0.198744	0.311511
H536	H	-0.223974	-0.180896	0.246946
H537	H	-0.227223	-0.235685	0.218207
H538	H	-0.155564	-0.308320	0.254035
H539	H	-0.100303	0.253573	0.308689
H540	H	-0.268047	-0.351449	-0.019092
H541	H	-0.167548	-0.248787	0.366280
C542	C	-0.338657	0.295743	-0.108683
C543	C	-0.344067	0.263182	-0.105309
C544	C	-0.363889	0.261599	-0.084119
C545	C	-0.378299	0.292577	-0.066302
C546	C	-0.372889	0.325140	-0.069675
C547	C	-0.353068	0.326723	-0.090866
H548	H	-0.333399	0.240248	-0.118499
H549	H	-0.367894	0.237493	-0.081621
H550	H	-0.392972	0.291405	-0.050615
H551	H	-0.383557	0.348074	-0.056486
H552	H	-0.349063	0.350829	-0.093363
C553	C	-0.382070	-0.243233	-0.019529
C554	C	-0.401879	-0.202242	-0.017934
C555	C	-0.444487	-0.180975	-0.019535
C556	C	-0.467284	-0.200699	-0.022729
C557	C	-0.447474	-0.241693	-0.024324
C558	C	-0.404867	-0.262960	-0.022724
H559	H	-0.385003	-0.187638	-0.015569
H560	H	-0.459151	-0.150629	-0.018354
H561	H	-0.498824	-0.184956	-0.023914
H562	H	-0.464350	-0.256296	-0.026689
H563	H	-0.390203	-0.293306	-0.023905
C564	C	-0.216206	-0.205833	0.108378
C565	C	-0.259115	-0.197907	0.073053
C566	C	-0.301719	-0.156918	0.051730
C567	C	-0.301414	-0.123854	0.065733
C568	C	-0.258505	-0.131780	0.101059
C569	C	-0.215901	-0.172769	0.122382
H570	H	-0.259341	-0.222383	0.062686
H571	H	-0.333483	-0.151051	0.025579
H572	H	-0.332953	-0.093512	0.049948
H573	H	-0.258278	-0.107303	0.111426
H574	H	-0.184136	-0.178635	0.148534
H575	H	0.629022	-0.248754	0.365755
C576	C	-0.262976	0.301766	-0.355673
C577	C	-0.257568	0.334331	-0.346907
C578	C	-0.237748	0.335927	-0.305903
C579	C	-0.223335	0.304958	-0.273665
C580	C	-0.228742	0.272391	-0.282429
C581	C	-0.248563	0.270795	-0.323433
H582	H	-0.268238	0.357259	-0.370773
H583	H	-0.233746	0.360036	-0.299415
H584	H	-0.208663	0.306139	-0.243311
H585	H	-0.218073	0.249463	-0.258564
H586	H	-0.252565	0.246686	-0.329921
H587	H	0.769977	-0.603503	0.501520
H588	H	-0.438027	-0.026308	-0.308740
C589	C	0.111795	-0.527610	0.355124
C590	C	0.131398	-0.548790	0.333721
C591	C	0.111677	-0.527466	0.292723
C592	C	0.072354	-0.484963	0.273128
C593	C	0.052748	-0.463781	0.294532
C594	C	0.072469	-0.485104	0.335530
H595	H	0.160510	-0.580255	0.348226
H596	H	0.126191	-0.543147	0.276879
H597	H	0.057755	-0.469178	0.242779
H598	H	0.023637	-0.432315	0.280027
H599	H	0.057956	-0.469424	0.351374
H600	H	0.731968	-0.351443	0.468692
H601	H	0.117021	-0.083631	-0.184322
C602	C	-0.053893	0.262943	0.474244
C603	C	-0.034214	0.264551	0.515242
C604	C	0.008389	0.262967	0.536644
C605	C	0.031313	0.259775	0.517048
C606	C	0.011635	0.258166	0.476048
C607	C	-0.030968	0.259750	0.454646
H608	H	-0.051184	0.266914	0.529750
H609	H	0.022957	0.264158	0.566995
H610	H	0.062851	0.258602	0.532890
H611	H	0.028604	0.255803	0.461539
H612	H	-0.045536	0.258560	0.424295
H613	H	0.117104	0.263346	0.468963
H614	H	0.769567	-0.318906	0.501007
C615	C	0.556635	-0.414346	0.303346
C616	C	0.514881	-0.393482	0.261881
C617	C	0.493709	-0.414068	0.241296
C618	C	0.514292	-0.455518	0.262176
C619	C	0.556049	-0.476385	0.303644
C620	C	0.577220	-0.455799	0.324229
H621	H	0.499642	-0.362796	0.246422
H622	H	0.462798	-0.398621	0.210598
H623	H	0.498620	-0.470757	0.246938
H624	H	0.571288	-0.507071	0.319103
H625	H	0.608131	-0.471246	0.354927
H626	H	0.002385	0.253580	0.411345
H627	H	0.667242	-0.603735	0.398807
H628	H	-0.437848	-0.306374	-0.028867
H629	H	-0.268121	0.301378	-0.184085
H630	H	-0.064997	0.098334	0.019047
C631	C	0.007815	-0.020959	0.028960
C632	C	0.024661	-0.006309	0.062308
C633	C	0.045835	0.014272	0.062883
C634	C	0.050164	0.020203	0.030109
C635	C	0.033317	0.005553	-0.003241
C636	C	0.012143	-0.015029	-0.003815
H637	H	0.021457	-0.010699	0.086571
H638	H	0.058306	0.025117	0.087571
H639	H	0.065838	0.035439	0.030535
H640	H	0.036521	0.009943	-0.027504
H641	H	-0.000328	-0.025874	-0.028503
H642	H	-0.552650	0.301373	-0.365810
H643	H	0.002273	-0.129213	-0.308762
H644	H	-0.167555	-0.248791	0.184037
C645	C	-0.338646	0.295659	-0.512228
C646	C	-0.344047	0.263089	-0.520986
C647	C	-0.363862	0.261485	-0.561987
C648	C	-0.378277	0.292451	-0.594230
C649	C	-0.372877	0.325023	-0.585473
C650	C	-0.353062	0.326627	-0.544472
H651	H	-0.333376	0.240164	-0.497117
H652	H	-0.367860	0.237373	-0.568470
H653	H	-0.392946	0.291263	-0.624582
H654	H	-0.383548	0.347947	-0.609342
H655	H	-0.349064	0.350739	-0.537990
H656	H	-0.335240	0.311123	-0.308754
C657	C	0.377214	-0.324449	0.108360
C658	C	0.376853	-0.332026	0.073034
C659	C	0.357116	-0.353298	0.051711
C660	C	0.337739	-0.366993	0.065714
C661	C	0.338100	-0.359417	0.101042
C662	C	0.357837	-0.338145	0.122364
H663	H	0.391198	-0.321887	0.062667
H664	H	0.356849	-0.358906	0.025560
H665	H	0.323129	-0.382740	0.049930
H666	H	0.323756	-0.369556	0.111409
H667	H	0.358104	-0.332537	0.148516
H668	H	-0.332889	-0.116395	-0.501061
C669	C	0.187320	0.269017	0.393254
C670	C	0.236158	0.238049	0.409922
C671	C	0.255890	0.239645	0.388647
C672	C	0.226784	0.272209	0.350703
C673	C	0.177942	0.303180	0.334033
C674	C	0.158210	0.301584	0.355308
H675	H	0.257707	0.213941	0.438012
H676	H	0.292046	0.216718	0.400987
H677	H	0.241390	0.273390	0.334953
H678	H	0.156393	0.327288	0.305943
H679	H	0.122054	0.324511	0.342968
C680	C	-0.097817	-0.229494	-0.393340
C681	C	-0.083512	-0.261654	-0.410006
C682	C	-0.063843	-0.302644	-0.388731
C683	C	-0.058480	-0.311472	-0.350789
C684	C	-0.072786	-0.279311	-0.334121
C685	C	-0.092454	-0.238321	-0.355397
H686	H	-0.087481	-0.255120	-0.438095
H687	H	-0.053254	-0.326452	-0.401070
H688	H	-0.043921	-0.341815	-0.335040
H689	H	-0.068816	-0.285846	-0.306033
H690	H	-0.103044	-0.214513	-0.343058
C691	C	-0.622617	0.295695	-0.392565
C692	C	-0.593413	0.263134	-0.354593
C693	C	-0.613014	0.261543	-0.333185
C694	C	-0.661819	0.292513	-0.349748
C695	C	-0.691027	0.325077	-0.387722
C696	C	-0.671426	0.326668	-0.409130
H697	H	-0.557281	0.240206	-0.342330
H698	H	-0.591392	0.237437	-0.305074
H699	H	-0.676329	0.291336	-0.333901
H700	H	-0.727158	0.348005	-0.399985
H701	H	-0.693047	0.350774	-0.437241
H702	H	0.382592	-0.216234	0.114124
C703	C	-0.111090	-0.021240	-0.422269
C704	C	-0.131677	0.020213	-0.443147
C705	C	-0.172858	0.040790	-0.484898
C706	C	-0.193452	0.019915	-0.505771
C707	C	-0.172865	-0.021540	-0.484893
C708	C	-0.131684	-0.042118	-0.443142
H709	H	-0.116432	0.035669	-0.427695
H710	H	-0.188098	0.071478	-0.500353
H711	H	-0.223936	0.035147	-0.536677
H712	H	-0.188110	-0.036996	-0.500345
H713	H	-0.116444	-0.072806	-0.427687
C714	C	-0.219383	-0.324441	-0.013414
C715	C	-0.176474	-0.332012	0.021554
C716	C	-0.133867	-0.353283	0.023153
C717	C	-0.134170	-0.366982	-0.010217
C718	C	-0.177081	-0.359411	-0.045188
C719	C	-0.219687	-0.338140	-0.046787
H720	H	-0.176248	-0.321871	0.046259
H721	H	-0.102102	-0.358888	0.049042
H722	H	-0.102630	-0.382728	-0.009033
H723	H	-0.177307	-0.369552	-0.069893
H724	H	-0.251453	-0.332535	-0.072675
C725	C	0.112226	0.262920	0.355592
C726	C	0.131955	0.264517	0.334315
C727	C	0.112349	0.262922	0.293311
C728	C	0.073014	0.259730	0.273584
C729	C	0.053283	0.258133	0.294861
C730	C	0.072889	0.259728	0.335865
H731	H	0.161074	0.266880	0.348918
H732	H	0.126955	0.264104	0.277560
H733	H	0.058501	0.258549	0.243230
H734	H	0.024164	0.255770	0.280258
H735	H	0.058283	0.258546	0.351615
H736	H	-0.333403	-0.216223	-0.013845
H737	H	-0.205499	0.268544	0.114129
C738	C	-0.622862	0.295658	-0.511706
C739	C	-0.623223	0.260694	-0.519629
C740	C	-0.642954	0.259087	-0.560629
C741	C	-0.662324	0.292443	-0.593706
C742	C	-0.661964	0.327409	-0.585783
C743	C	-0.642233	0.329017	-0.544783
H744	H	-0.608883	0.236000	-0.495143
H745	H	-0.643220	0.233203	-0.566494
H746	H	-0.676931	0.291253	-0.624056
H747	H	-0.676304	0.352104	-0.610269
H748	H	-0.641967	0.354901	-0.538918
H749	H	-0.064961	0.263308	0.184014
H750	H	0.447212	-0.351451	0.184019
C751	C	-0.097041	-0.324938	0.108636
C752	C	-0.082623	-0.308370	0.090817
C753	C	-0.062806	-0.329765	0.069626
C754	C	-0.057408	-0.367728	0.066254
C755	C	-0.071827	-0.384298	0.084073
C756	C	-0.091643	-0.362903	0.105264
H757	H	-0.086618	-0.280265	0.093313
H758	H	-0.052133	-0.317498	0.056435
H759	H	-0.042739	-0.383566	0.050567
H760	H	-0.067831	-0.412403	0.081577
H761	H	-0.102317	-0.375170	0.118455
C762	C	-0.219466	0.295720	-0.108429
C763	C	-0.218271	0.326696	-0.090583
C764	C	-0.175661	0.325101	-0.069262
C765	C	-0.134246	0.292528	-0.065788
C766	C	-0.135439	0.261549	-0.083634
C767	C	-0.178050	0.263145	-0.104955
H768	H	-0.248931	0.350810	-0.093155
H769	H	-0.174778	0.348034	-0.056051
H770	H	-0.102703	0.291347	-0.050005
H771	H	-0.104780	0.237435	-0.081063
H772	H	-0.178933	0.240212	-0.118166
H773	H	0.002223	-0.408743	0.308711
C774	C	-0.622925	0.173967	-0.393324
C775	C	-0.642306	0.159972	-0.379626
C776	C	-0.662034	0.181293	-0.358351
C777	C	-0.662380	0.216609	-0.350774
C778	C	-0.642998	0.230605	-0.364472
C779	C	-0.623271	0.209284	-0.385747
H780	H	-0.642050	0.133828	-0.385234
H781	H	-0.676381	0.170932	-0.348211
H782	H	-0.676983	0.232392	-0.335025
H783	H	-0.643254	0.256749	-0.358863
H784	H	-0.608924	0.219645	-0.395887
C785	C	-0.262869	-0.192067	-0.189838
C786	C	-0.220266	-0.233054	-0.168648
C787	C	-0.200580	-0.254315	-0.189971
C788	C	-0.223497	-0.234589	-0.232484
C789	C	-0.266102	-0.193601	-0.253676
C790	C	-0.285789	-0.172340	-0.232354
H791	H	-0.203299	-0.247658	-0.137175
H792	H	-0.169040	-0.284658	-0.174282
H793	H	-0.208924	-0.250328	-0.248268
H794	H	-0.283069	-0.178997	-0.285149
H795	H	-0.317328	-0.141997	-0.248042
C796	C	0.111858	-0.192076	0.019474
C797	C	0.063015	-0.175409	-0.011504
C798	C	0.043271	-0.196672	-0.009905
C799	C	0.072370	-0.234601	0.022671
C800	C	0.121217	-0.251270	0.053652
C801	C	0.140961	-0.230007	0.052053
H802	H	0.041471	-0.147330	-0.035621
H803	H	0.007111	-0.184333	-0.032839
H804	H	0.057754	-0.250341	0.023855
H805	H	0.142761	-0.279349	0.077769
H806	H	0.177121	-0.242346	0.074987
H807	H	-0.064596	-0.351688	0.184265
H808	H	0.002384	0.253565	0.308683
C809	C	-0.382131	-0.527882	-0.019541
C810	C	-0.425031	-0.492568	-0.054509
C811	C	-0.467640	-0.471249	-0.056112
C812	C	-0.467348	-0.485245	-0.022745
C813	C	-0.424445	-0.520561	0.012226
C814	C	-0.381837	-0.541880	0.013829
H815	H	-0.425249	-0.482206	-0.079212
H816	H	-0.499399	-0.445105	-0.082000
H817	H	-0.498889	-0.469463	-0.023931
H818	H	-0.424228	-0.530924	0.036929
H819	H	-0.350078	-0.568024	0.039717
H820	H	0.002296	-0.026578	-0.308766
H821	H	0.181853	-0.219089	0.013793
H822	H	0.182064	-0.218837	-0.113965
H823	H	-0.267984	-0.186550	-0.365810
H824	H	0.117230	-0.083862	0.019037
H825	H	-0.370699	-0.083860	-0.468745
H826	H	0.629444	-0.533633	0.366262
H827	H	0.181995	-0.603482	0.501023
H828	H	-0.167734	0.098114	0.019060
C829	C	0.186975	-0.110375	-0.108691
C830	C	0.157778	-0.072412	-0.105322
C831	C	0.177391	-0.051013	-0.084132
C832	C	0.226202	-0.067577	-0.066311
C833	C	0.255402	-0.105542	-0.069679
C834	C	0.235788	-0.126941	-0.090870
H835	H	0.121643	-0.060148	-0.118514
H836	H	0.155776	-0.022909	-0.081638
H837	H	0.240721	-0.051736	-0.050625
H838	H	0.291537	-0.117806	-0.056487
H839	H	0.257404	-0.155045	-0.093363
C840	C	-0.053532	-0.362342	0.474522
C841	C	-0.033714	-0.383740	0.515526
C842	C	0.008890	-0.424730	0.536801
C843	C	0.031676	-0.444320	0.517071
C844	C	0.011859	-0.422922	0.476065
C845	C	-0.030745	-0.381933	0.454791
H846	H	-0.050582	-0.369238	0.530133
H847	H	0.023560	-0.440570	0.567157
H848	H	0.063214	-0.474663	0.532820
H849	H	0.028727	-0.437424	0.461458
H850	H	-0.045415	-0.366092	0.424435
C851	C	-0.097654	0.268969	0.108357
C852	C	-0.083338	0.237991	0.090511
C853	C	-0.063653	0.239584	0.069187
C854	C	-0.058284	0.272154	0.065709
C855	C	-0.072601	0.303135	0.083556
C856	C	-0.092286	0.301542	0.104880
H857	H	-0.087312	0.213878	0.093085
H858	H	-0.053055	0.216650	0.055975
H859	H	-0.043712	0.273333	0.049924
H860	H	-0.068627	0.327248	0.080982
H861	H	-0.102883	0.324476	0.118091
H862	H	-0.437929	0.311114	-0.411411
H863	H	0.664824	-0.408993	0.411352
H864	H	-0.100369	-0.026304	0.028819
C865	C	-0.053433	0.092289	-0.355183
C866	C	-0.033603	0.113471	-0.333779
C867	C	0.009007	0.092151	-0.292779
C868	C	0.031787	0.049649	-0.273181
C869	C	0.011957	0.028464	-0.294585
C870	C	-0.030653	0.049785	-0.335585
H871	H	-0.050466	0.144936	-0.348286
H872	H	0.023686	0.107833	-0.276935
H873	H	0.063329	0.033866	-0.242830
H874	H	0.028820	-0.003000	-0.280078
H875	H	-0.045332	0.034102	-0.351429
H876	H	-0.065098	-0.186540	-0.366328
H877	H	-0.552727	0.098102	-0.469029
H878	H	-0.102071	0.167928	-0.398153
H879	H	-0.437871	-0.409007	-0.028873
C880	C	-0.216118	0.173691	-0.511734
C881	C	-0.217303	0.191539	-0.543902
C882	C	-0.259912	0.212859	-0.584904
C883	C	-0.301334	0.216331	-0.593737
C884	C	-0.300150	0.198483	-0.561568
C885	C	-0.257542	0.177163	-0.520567
H886	H	-0.186639	0.188969	-0.537364
H887	H	-0.260788	0.226071	-0.608717
H888	H	-0.332876	0.232114	-0.624089
H889	H	-0.330815	0.201053	-0.568107
H890	H	-0.256666	0.163951	-0.496753
H891	H	0.002284	-0.128938	0.028814
H892	H	-0.617586	0.168200	-0.501568
H893	H	-0.371090	0.301344	-0.469039
H894	H	-0.167480	0.098052	-0.468767
C895	C	0.556667	-0.295524	0.303341
C896	C	0.577268	-0.274653	0.324212
C897	C	0.556109	-0.232914	0.303621
C898	C	0.514349	-0.212048	0.262159
C899	C	0.493745	-0.232919	0.241285
C900	C	0.514904	-0.274657	0.261876
H901	H	0.608184	-0.290099	0.354907
H902	H	0.571362	-0.217464	0.319073
H903	H	0.498686	-0.181151	0.246916
H904	H	0.462829	-0.217472	0.210590
H905	H	0.499651	-0.290107	0.246424
C906	C	0.661481	-0.205576	0.392514
C907	C	0.656088	-0.196818	0.354544
C908	C	0.636283	-0.155828	0.333136
C909	C	0.621872	-0.123595	0.349697
C910	C	0.627265	-0.132352	0.387668
C911	C	0.647069	-0.173342	0.409076
H912	H	0.666756	-0.220680	0.342283
H913	H	0.632291	-0.149346	0.305027
H914	H	0.607212	-0.093252	0.333849
H915	H	0.616597	-0.108490	0.399929
H916	H	0.651061	-0.179824	0.437185
H917	H	-0.167811	-0.083635	-0.469048
C918	C	-0.219449	-0.609284	-0.013430
C919	C	-0.176547	-0.644597	0.021539
C920	C	-0.133940	-0.665917	0.023140
C921	C	-0.134235	-0.651924	-0.010230
C922	C	-0.177138	-0.616610	-0.045202
C923	C	-0.219745	-0.595289	-0.046802
H924	H	-0.176327	-0.654957	0.046244
H925	H	-0.102180	-0.692060	0.049029
H926	H	-0.102695	-0.667707	-0.009045
H927	H	-0.177358	-0.606249	-0.069907
H928	H	-0.251505	-0.569147	-0.072691
H929	H	-0.370690	-0.083857	-0.184069
H930	H	-0.552559	-0.248763	-0.019120
C931	C	-0.338001	-0.110861	-0.108411
C932	C	-0.352326	-0.127521	-0.090561
C933	C	-0.372005	-0.106249	-0.069238
C934	C	-0.377361	-0.068318	-0.065764
C935	C	-0.363036	-0.051656	-0.083614
C936	C	-0.343356	-0.072928	-0.104938
H937	H	-0.348362	-0.155601	-0.093132
H938	H	-0.382610	-0.118584	-0.056024
H939	H	-0.391929	-0.052572	-0.049979
H940	H	-0.366999	-0.023576	-0.081044
H941	H	-0.332752	-0.060593	-0.118152
H942	H	-0.167691	0.263325	0.365758
H943	H	-0.552796	-0.351459	-0.019115
H944	H	-0.268090	-0.533643	-0.019109
