data_functionalizedCrystal
_audit_creation_method	'MofGen! by Chris Wilmer'
_symmetry_space_group_name_H-M	'P1'
_symmetry_Int_Tables_number	1
_symmetry_cell_setting	triclinic
loop_
_symmetry_equiv_pos_as_xyz
  x,y,z
_cell_length_a	23.532407
_cell_length_b	23.532407
_cell_length_c	9.130313
_cell_angle_alpha	89.990293
_cell_angle_beta	90.005122
_cell_angle_gamma	82.848713
loop_
_atom_site_label
_atom_site_type_symbol
_atom_site_fract_x
_atom_site_fract_y
_atom_site_fract_z
O1	O	0.755256	0.069132	-0.121643
O2	O	1.255256	0.569132	0.378357
O3	O	0.589393	0.079136	-0.121690
O4	O	1.089393	0.579136	0.378310
O5	O	0.677326	-0.008798	-0.121624
O6	O	1.177326	0.491202	0.378376
O7	O	0.667323	0.157066	-0.121709
O8	O	1.167323	0.657066	0.378291
O9	O	0.677325	-0.008795	0.121975
O10	O	1.177325	0.491205	0.621975
O11	O	0.589392	0.079138	0.121909
O12	O	1.089392	0.579138	0.621909
O13	O	0.755255	0.069135	0.121956
O14	O	1.255255	0.569135	0.621956
Cu15	Cu	0.672323	0.074136	0.144175
Cu16	Cu	1.172323	0.574136	0.644175
Cu17	Cu	0.672325	0.074134	-0.143909
Cu18	Cu	1.172325	0.574134	0.356091
O19	O	0.667322	0.157068	0.121890
O20	O	1.167322	0.657068	0.621890
C21	C	0.568176	0.078882	0.000104
C22	C	1.068176	0.578882	0.500104
C23	C	0.504959	0.078116	0.000088
C24	C	1.004959	0.578116	0.500088
C25	C	0.677071	-0.030013	0.000183
C26	C	1.177071	0.469987	0.500183
C27	C	0.676305	-0.093230	0.000205
C28	C	1.176305	0.406770	0.500205
C29	C	0.621110	-0.359397	0.000098
C30	C	1.121110	0.140603	0.500098
C31	C	0.621821	-0.299997	0.000109
C32	C	1.121821	0.200003	0.500109
O33	O	0.578035	-0.263252	0.000050
O34	O	1.078035	0.236748	0.500050
N35	N	0.674097	-0.277371	0.000141
N36	N	1.174097	0.222629	0.500141
C37	C	0.725666	-0.314148	0.000146
C38	C	1.225666	0.185852	0.500146
O39	O	0.770196	-0.289449	0.000173
O40	O	1.270196	0.210551	0.500173
C41	C	0.724954	-0.373547	0.000124
C42	C	1.224954	0.126453	0.500124
C43	C	0.672674	-0.396170	0.000107
C44	C	1.172674	0.103830	0.500107
C45	C	0.568834	-0.382020	0.000079
C46	C	1.068834	0.117980	0.500079
C47	C	0.568123	-0.441417	0.000071
C48	C	1.068123	0.058583	0.500071
C49	C	0.619687	-0.478189	0.000080
C50	C	1.119687	0.021811	0.500080
C51	C	0.671963	-0.455566	0.000099
C52	C	1.171963	0.044434	0.500099
C53	C	0.776521	-0.410324	0.000119
C54	C	1.276521	0.089676	0.500119
C55	C	0.775805	-0.469726	0.000096
C56	C	1.275805	0.030274	0.500096
C57	C	0.723525	-0.492349	0.000079
C58	C	1.223525	0.007651	0.500079
C59	C	0.722816	-0.551735	0.000099
C60	C	1.222816	-0.051735	0.500099
N61	N	0.670539	-0.574361	0.000068
N62	N	1.170539	-0.074361	0.500068
C63	C	0.618975	-0.537589	0.000058
C64	C	1.118975	-0.037589	0.500058
C65	C	0.727157	-0.189406	0.000190
C66	C	1.227157	0.310594	0.500190
C67	C	0.727870	-0.130008	0.000222
C68	C	1.227870	0.369992	0.500222
C69	C	0.624025	-0.115860	0.000182
C70	C	1.124025	0.384140	0.500182
C71	C	0.623313	-0.175260	0.000160
C72	C	1.123313	0.324740	0.500160
C73	C	0.674881	-0.212032	0.000158
C74	C	1.174881	0.287968	0.500158
C75	C	0.617486	-0.662325	0.000041
C76	C	1.117486	-0.162325	0.500041
C77	C	0.616779	-0.721727	0.000039
C78	C	1.116779	-0.221727	0.500039
C79	C	0.720623	-0.735869	0.000070
C80	C	1.220623	-0.235869	0.500070
C81	C	0.721330	-0.676473	0.000081
C82	C	1.221330	-0.176473	0.500081
C83	C	0.669757	-0.639701	0.000061
C84	C	1.169757	-0.139701	0.500061
O85	O	0.766579	-0.588514	0.000152
O86	O	1.266579	-0.088514	0.500152
O87	O	0.574452	-0.562296	0.000012
O88	O	1.074452	-0.062296	0.500012
C89	C	0.105856	0.125350	0.000130
C90	C	0.605856	0.625350	0.500130
C91	C	0.046456	0.124638	0.000140
C92	C	0.546456	0.624638	0.500140
O93	O	0.009712	0.168424	0.000170
O94	O	0.509712	0.668424	0.500170
N95	N	0.023830	0.072362	0.000164
N96	N	0.523830	0.572362	0.500164
C97	C	0.060607	0.020794	0.000194
C98	C	0.560607	0.520794	0.500194
O99	O	0.035908	-0.023737	0.000217
O100	O	0.535908	0.476263	0.500217
C101	C	0.120006	0.021506	0.000195
C102	C	0.620006	0.521506	0.500195
C103	C	0.142629	0.073785	0.000156
C104	C	0.642629	0.573785	0.500156
C105	C	0.128480	0.177625	0.000093
C106	C	0.628480	0.677625	0.500093
C107	C	0.187876	0.178336	0.000081
C108	C	0.687876	0.678336	0.500081
C109	C	0.224649	0.126772	0.000106
C110	C	0.724649	0.626772	0.500106
C111	C	0.202025	0.074496	0.000144
C112	C	0.702025	0.574496	0.500144
C113	C	0.156783	-0.030062	0.000235
C114	C	0.656783	0.469938	0.500235
C115	C	0.216185	-0.029345	0.000238
C116	C	0.716185	0.470655	0.500238
C117	C	0.238808	0.022934	0.000198
C118	C	0.738808	0.522934	0.500198
C119	C	0.298194	0.023643	0.000157
C120	C	0.798194	0.523643	0.500157
N121	N	0.320821	0.075920	0.000133
N122	N	0.820821	0.575920	0.500133
C123	C	0.284048	0.127484	0.000107
C124	C	0.784048	0.627484	0.500107
C125	C	-0.064135	0.019302	0.000194
C126	C	0.435865	0.519302	0.500194
C127	C	-0.123533	0.018589	0.000182
C128	C	0.376467	0.518589	0.500182
C129	C	-0.137680	0.122434	0.000131
C130	C	0.362320	0.622434	0.500131
C131	C	-0.078281	0.123146	0.000132
C132	C	0.421719	0.623146	0.500132
C133	C	-0.041509	0.071578	0.000170
C134	C	0.458491	0.571578	0.500170
C135	C	0.408784	0.128974	0.000081
C136	C	0.908784	0.628974	0.500081
C137	C	0.468186	0.129680	0.000063
C138	C	0.968186	0.629680	0.500063
C139	C	0.482329	0.025836	0.000122
C140	C	0.982329	0.525836	0.500122
C141	C	0.422932	0.025129	0.000132
C142	C	0.922932	0.525129	0.500132
C143	C	0.386160	0.076702	0.000117
C144	C	0.886160	0.576702	0.500117
O145	O	0.334974	-0.020119	0.000132
O146	O	0.834974	0.479881	0.500132
O147	O	0.308756	0.172007	0.000104
O148	O	0.808756	0.672007	0.500104
C149	C	0.776472	0.069388	0.000158
C150	C	1.276472	0.569388	0.500158
C151	C	0.839689	0.070154	0.000165
C152	C	1.339689	0.570154	0.500165
C153	C	0.667577	0.178283	0.000080
C154	C	1.167577	0.678283	0.500080
C155	C	0.668343	0.241500	0.000048
C156	C	1.168343	0.741500	0.500048
N157	N	0.672327	0.074138	0.346797
N158	N	1.172327	0.574138	0.846797
N159	N	0.672326	0.074128	-0.346532
N160	N	1.172326	0.574128	0.153468
C161	C	0.711273	0.035214	0.423479
C162	C	1.211273	0.535214	0.923479
C163	C	0.711272	0.035207	0.576815
C164	C	1.211272	0.535207	1.076815
C165	C	0.633375	0.113053	0.576776
C166	C	1.133375	0.613053	1.076776
C167	C	0.633375	0.113057	0.423442
C168	C	1.133375	0.613057	0.923442
C169	C	0.750225	-0.003705	0.346834
C170	C	1.250225	0.496295	0.846834
C171	C	0.789176	-0.042631	0.423515
C172	C	1.289176	0.457369	0.923515
C173	C	0.789174	-0.042638	0.576852
C174	C	1.289174	0.457362	1.076852
C175	C	0.750223	-0.003718	0.653507
C176	C	1.250223	0.496282	1.153507
H177	H	0.574205	-0.740143	0.000032
H178	H	1.074205	-0.240143	0.500032
H179	H	0.817799	-0.499664	0.000086
H180	H	1.317799	0.000336	0.500086
O181	O	-0.147927	-0.037800	0.000207
O182	O	0.352073	0.462200	0.500207
H183	H	-0.195409	-0.029639	0.000199
H184	H	0.304591	0.470361	0.500199
O185	O	0.566924	-0.199654	0.000133
O186	O	1.066924	0.300346	0.500133
H187	H	0.564110	-0.226385	0.099415
H188	H	1.064110	0.273615	0.599415
O189	O	0.777715	-0.652066	0.000104
O190	O	1.277715	-0.152066	0.500104
H191	H	0.813451	-0.687618	0.000103
H192	H	1.313451	-0.187618	0.500103
H193	H	0.582038	-0.085909	0.000176
H194	H	1.082038	0.414091	0.500176
H195	H	0.525552	-0.459830	0.000044
H196	H	1.025552	0.040170	0.500044
H197	H	0.098544	0.219617	0.000077
H198	H	0.598544	0.719617	0.500077
H199	H	0.819093	-0.391915	0.000131
H200	H	1.319093	0.108085	0.500131
H201	H	0.206289	0.220908	0.000048
H202	H	0.706289	0.720908	0.500048
O203	O	0.398530	-0.031258	0.000165
O204	O	0.898530	0.468742	0.500165
H205	H	0.371813	-0.034062	0.099462
H206	H	0.871813	0.465938	0.599462
O207	O	0.784256	-0.105609	0.000240
O208	O	1.284256	0.394391	0.500240
H209	H	0.819989	-0.141164	0.000230
H210	H	1.319989	0.358836	0.500230
O211	O	0.750230	-0.003700	0.181450
O212	O	1.250230	0.496300	0.681450
H213	H	0.716605	0.029907	0.141004
H214	H	1.216605	0.529907	0.641004
H215	H	-0.059866	0.165717	0.000108
H216	H	0.440134	0.665717	0.500108
H217	H	0.762606	-0.765820	0.000085
H218	H	1.262606	-0.265820	0.500085
O219	O	-0.177348	0.178053	0.000128
O220	O	0.322652	0.678053	0.500128
H221	H	-0.222451	0.168771	0.000155
H222	H	0.277549	0.668771	0.500155
O223	O	0.561862	-0.622669	0.000043
O224	O	1.061862	-0.122669	0.500043
H225	H	0.525396	-0.648388	0.000047
H226	H	1.025396	-0.148388	0.500047
O227	O	0.591377	0.155042	0.659445
O228	O	1.091377	0.655042	1.159445
H229	H	0.547020	0.148016	0.630028
H230	H	1.047020	0.648016	1.130028
H231	H	0.486602	0.172255	0.000030
H232	H	0.986602	0.672255	0.500030
O233	O	0.782780	-0.229068	0.000224
O234	O	1.282780	0.270932	0.500224
H235	H	0.819246	-0.203350	0.000267
H236	H	1.319246	0.296650	0.500267
H237	H	0.512280	-0.016146	0.000137
H238	H	1.012280	0.483854	0.500137
H239	H	0.378852	0.170970	0.000073
H240	H	0.878852	0.670970	0.500073
O241	O	-0.024473	-0.036321	0.000213
O242	O	0.475527	0.463679	0.500213
H243	H	-0.050191	-0.072787	0.000218
H244	H	0.449809	0.427213	0.500218
O245	O	0.255844	-0.084969	0.000285
O246	O	0.755844	0.415031	0.500285
H247	H	0.300950	-0.075696	0.000287
H248	H	0.800950	0.424304	0.500287
O249	O	0.831173	-0.084622	0.340850
O250	O	1.331173	0.415378	0.840850
H251	H	0.824631	-0.078080	0.221344
H252	H	1.324631	0.421920	0.721344
O253	O	0.132391	-0.086450	0.000308
O254	O	0.632391	0.413550	0.500308
H255	H	0.167949	-0.122180	0.000354
H256	H	0.667949	0.377820	0.500354
H257	H	0.526842	-0.352085	0.000067
H258	H	1.026842	0.147915	0.500067
H259	H	0.820885	-0.074337	0.639284
H260	H	1.320885	0.425663	1.139284
O261	O	0.591372	0.155041	0.340719
O262	O	1.091372	0.655041	0.840719
H263	H	0.564293	0.182109	0.419772
H264	H	1.064293	0.682109	0.919772
O265	O	0.750219	-0.003722	0.818894
O266	O	1.250219	0.496278	1.318894
H267	H	0.783847	-0.037326	0.859342
H268	H	1.283847	0.462674	1.359342
