data_functionalizedCrystal
_audit_creation_method	'MofGen! by Chris Wilmer'
_symmetry_space_group_name_H-M	'P1'
_symmetry_Int_Tables_number	1
_symmetry_cell_setting	triclinic
loop_
_symmetry_equiv_pos_as_xyz
  x,y,z
_cell_length_a	27.732048
_cell_length_b	27.732048
_cell_length_c	26.210047
_cell_angle_alpha	90.000479
_cell_angle_beta	89.996535
_cell_angle_gamma	97.357345
loop_
_atom_site_label
_atom_site_type_symbol
_atom_site_fract_x
_atom_site_fract_y
_atom_site_fract_z
O1	O	0.640931	-0.057510	-0.042369
O2	O	0.974264	0.275823	0.290965
O3	O	1.307598	0.609157	0.624298
O4	O	0.500138	-0.066256	-0.042385
O5	O	0.833471	0.267078	0.290948
O6	O	1.166804	0.600411	0.624282
O7	O	0.574907	0.008514	-0.042367
O8	O	0.908240	0.341847	0.290967
O9	O	1.241574	0.675181	0.624300
O10	O	0.566162	-0.132279	-0.042387
O11	O	0.899495	0.201054	0.290946
O12	O	1.232828	0.534387	0.624280
O13	O	0.574893	0.008502	0.042491
O14	O	0.908226	0.341836	0.375825
O15	O	1.241559	0.675169	0.709158
O16	O	0.500123	-0.066267	0.042473
O17	O	0.833457	0.267066	0.375806
O18	O	1.166790	0.600399	0.709140
O19	O	0.640917	-0.057522	0.042489
O20	O	0.974250	0.275812	0.375823
O21	O	1.307583	0.609145	0.709156
Cu22	Cu	0.570519	-0.061896	0.050229
Cu23	Cu	0.903852	0.271438	0.383563
Cu24	Cu	1.237185	0.604771	0.716896
Cu25	Cu	0.570536	-0.061882	-0.050125
Cu26	Cu	0.903869	0.271452	0.283208
Cu27	Cu	1.237202	0.604785	0.616542
O28	O	0.566147	-0.132291	0.042471
O29	O	0.899481	0.201042	0.375804
O30	O	1.232814	0.534375	0.709138
C31	C	0.482124	-0.066078	0.000042
C32	C	0.815457	0.267256	0.333376
C33	C	1.148790	0.600589	0.666709
C34	C	0.428469	-0.065525	0.000036
C35	C	0.761802	0.267808	0.333370
C36	C	1.095135	0.601142	0.666703
C37	C	0.089654	-0.106229	0.000053
C38	C	0.422987	0.227105	0.333386
C39	C	0.756320	0.560438	0.666719
C40	C	-0.112006	-0.104178	0.000057
C41	C	0.221327	0.229156	0.333391
C42	C	0.554661	0.562489	0.666724
O43	O	-0.143262	-0.141398	0.000074
O44	O	0.190072	0.191935	0.333408
O45	O	0.523405	0.525268	0.666741
N46	N	-0.131130	-0.059843	0.000063
N47	N	0.202204	0.273491	0.333396
N48	N	0.535537	0.606824	0.666730
C49	C	-0.099835	-0.016017	0.000071
C50	C	0.233498	0.317316	0.333404
C51	C	0.566832	0.650650	0.666737
O52	O	-0.120728	0.021740	0.000081
O53	O	0.212605	0.355073	0.333414
O54	O	0.545938	0.688407	0.666747
C55	C	0.101824	-0.018068	0.000069
C56	C	0.435157	0.315265	0.333403
C57	C	0.768490	0.648598	0.666736
C58	C	0.120944	-0.062407	0.000059
C59	C	0.454278	0.270927	0.333392
C60	C	0.787611	0.604260	0.666725
C61	C	0.108775	-0.150563	0.000043
C62	C	0.442108	0.182770	0.333376
C63	C	0.775442	0.516103	0.666709
C64	C	0.159187	-0.151076	0.000039
C65	C	0.492520	0.182258	0.333372
C66	C	0.825853	0.515591	0.666705
C67	C	0.190477	-0.107253	0.000045
C68	C	0.523811	0.226080	0.333378
C69	C	0.857144	0.559413	0.666711
C70	C	0.171356	-0.062919	0.000055
C71	C	0.504690	0.270415	0.333388
C72	C	0.838023	0.603748	0.666721
C73	C	0.133117	0.025757	0.000081
C74	C	0.466451	0.359090	0.333414
C75	C	0.799784	0.692423	0.666747
C76	C	0.183535	0.025240	0.000082
C77	C	0.516868	0.358573	0.333415
C78	C	0.850201	0.691906	0.666748
C79	C	0.202655	-0.019098	0.000071
C80	C	0.535989	0.314235	0.333404
C81	C	0.869322	0.647568	0.666738
C82	C	0.253059	-0.019609	0.000057
C83	C	0.586392	0.313724	0.333390
C84	C	0.919725	0.647058	0.666724
N85	N	0.272183	-0.063944	0.000051
N86	N	0.605516	0.269389	0.333385
N87	N	0.938849	0.602723	0.666718
C88	C	0.240892	-0.107766	0.000045
C89	C	0.574225	0.225567	0.333379
C90	C	0.907559	0.558900	0.666712
C91	C	-0.205709	-0.014943	0.000070
C92	C	0.127624	0.318390	0.333404
C93	C	0.460957	0.651724	0.666737
C94	C	-0.256124	-0.014430	0.000070
C95	C	0.077210	0.318903	0.333403
C96	C	0.410543	0.652237	0.666736
C97	C	-0.268291	-0.102591	0.000057
C98	C	0.065042	0.230742	0.333391
C99	C	0.398376	0.564076	0.666724
C100	C	-0.217876	-0.103104	0.000054
C101	C	0.115458	0.230230	0.333388
C102	C	0.448791	0.563563	0.666721
C103	C	-0.186585	-0.059278	0.000065
C104	C	0.146748	0.274055	0.333398
C105	C	0.480081	0.607388	0.666731
C106	C	0.346761	-0.108839	0.000036
C107	C	0.680094	0.224495	0.333370
C108	C	1.013428	0.557828	0.666703
C109	C	0.397178	-0.109347	0.000030
C110	C	0.730511	0.223986	0.333364
C111	C	1.063845	0.557319	0.666697
C112	C	0.409341	-0.021186	0.000045
C113	C	0.742674	0.312147	0.333379
C114	C	1.076008	0.645480	0.666712
C115	C	0.358929	-0.020678	0.000049
C116	C	0.692262	0.312656	0.333382
C117	C	1.025595	0.645989	0.666715
C118	C	0.327639	-0.064508	0.000046
C119	C	0.660973	0.268825	0.333379
C120	C	0.994306	0.602159	0.666713
O121	O	0.284343	0.017592	0.000046
O122	O	0.617676	0.350925	0.333379
O123	O	0.951009	0.684259	0.666713
O124	O	0.261794	-0.145518	0.000047
O125	O	0.595128	0.187816	0.333380
O126	O	0.928461	0.521149	0.666713
C127	C	0.039242	-0.105716	0.000057
C128	C	0.372575	0.227617	0.333390
C129	C	0.705908	0.560950	0.666723
C130	C	0.020120	-0.061382	0.000067
C131	C	0.353454	0.271951	0.333400
C132	C	0.686787	0.605285	0.666733
C133	C	0.051411	-0.017560	0.000073
C134	C	0.384744	0.315774	0.333406
C135	C	0.718078	0.649107	0.666740
C136	C	-0.030294	-0.060869	0.000066
C137	C	0.303039	0.272464	0.333399
C138	C	0.636373	0.605798	0.666733
C139	C	-0.061585	-0.104691	0.000060
C140	C	0.271749	0.228642	0.333393
C141	C	0.605082	0.561975	0.666727
C142	C	-0.042461	-0.149026	0.000054
C143	C	0.290872	0.184307	0.333388
C144	C	0.624206	0.517640	0.666721
C145	C	0.007951	-0.149539	0.000050
C146	C	0.341284	0.183795	0.333384
C147	C	0.674618	0.517128	0.666717
C148	C	0.032287	0.026775	0.000078
C149	C	0.365621	0.360109	0.333412
C150	C	0.698954	0.693442	0.666745
C151	C	-0.018125	0.027284	0.000082
C152	C	0.315208	0.360617	0.333415
C153	C	0.648541	0.693951	0.666749
C154	C	-0.049416	-0.016538	0.000076
C155	C	0.283917	0.316795	0.333409
C156	C	0.617251	0.650129	0.666742
C157	C	0.574716	0.026515	0.000064
C158	C	0.908050	0.359848	0.333397
C159	C	1.241383	0.693182	0.666731
C160	C	0.574164	0.080170	0.000068
C161	C	0.907497	0.413503	0.333401
C162	C	1.240830	0.746837	0.666735
C163	C	0.658931	-0.057699	0.000061
C164	C	0.992264	0.275634	0.333394
C165	C	1.325598	0.608967	0.666728
C166	C	0.712586	-0.058252	0.000064
C167	C	1.045919	0.275081	0.333397
C168	C	1.379252	0.608414	0.666730
C169	C	0.566338	-0.150292	0.000040
C170	C	0.899671	0.183041	0.333373
C171	C	1.233005	0.516374	0.666706
C172	C	0.566891	-0.203947	0.000032
C173	C	0.900224	0.129386	0.333365
C174	C	1.233557	0.462720	0.666699
N175	N	0.570510	-0.061905	0.120813
N176	N	0.903844	0.271428	0.454147
N177	N	1.237177	0.604762	0.787480
C178	C	0.614867	0.418985	0.000046
C179	C	0.948201	0.752318	0.333380
C180	C	1.281534	1.085652	0.666713
C181	C	0.612816	0.620645	0.000039
C182	C	0.946150	0.953978	0.333372
C183	C	1.279483	1.287311	0.666706
O184	O	0.650037	0.651900	0.000021
O185	O	0.983370	0.985234	0.333354
O186	O	1.316704	1.318567	0.666688
N187	N	0.568481	0.639768	0.000034
N188	N	0.901814	0.973102	0.333368
N189	N	1.235148	1.306435	0.666701
C190	C	0.524656	0.608474	0.000028
C191	C	0.857989	0.941807	0.333362
C192	C	1.191322	1.275140	0.666695
O193	O	0.486899	0.629367	0.000019
O194	O	0.820232	0.962700	0.333352
O195	O	1.153565	1.296033	0.666686
C196	C	0.526707	0.406815	0.000032
C197	C	0.860040	0.740148	0.333365
C198	C	1.193374	1.073482	0.666699
C199	C	0.571045	0.387694	0.000042
C200	C	0.904378	0.721028	0.333375
C201	C	1.237712	1.054361	0.666709
C202	C	0.659202	0.399864	0.000056
C203	C	0.992535	0.733197	0.333389
C204	C	1.325868	1.066530	0.666722
C205	C	0.659714	0.349452	0.000060
C206	C	0.993047	0.682785	0.333394
C207	C	1.326381	1.016118	0.666727
C208	C	0.615892	0.318161	0.000056
C209	C	0.949225	0.651494	0.333389
C210	C	1.282559	0.984828	0.666722
C211	C	0.571557	0.337282	0.000046
C212	C	0.904891	0.670616	0.333380
C213	C	1.238224	1.003949	0.666713
C214	C	0.482882	0.375521	0.000022
C215	C	0.816215	0.708855	0.333356
C216	C	1.149549	1.042188	0.666689
C217	C	0.483399	0.325104	0.000022
C218	C	0.816732	0.658437	0.333355
C219	C	1.150066	0.991771	0.666689
C220	C	0.527737	0.305983	0.000032
C221	C	0.861070	0.639317	0.333365
C222	C	1.194404	0.972650	0.666698
C223	C	0.528247	0.255580	0.000046
C224	C	0.861581	0.588913	0.333380
C225	C	1.194914	0.922246	0.666713
N226	N	0.572583	0.236456	0.000051
N227	N	0.905916	0.569789	0.333384
N228	N	1.239249	0.903123	0.666718
C229	C	0.616405	0.267747	0.000056
C230	C	0.949738	0.601080	0.333389
C231	C	1.283072	0.934413	0.666722
C232	C	0.523582	0.714348	0.000027
C233	C	0.856915	1.047681	0.333361
C234	C	1.190248	1.381014	0.666694
C235	C	0.523069	0.764762	0.000027
C236	C	0.856402	1.098096	0.333361
C237	C	1.189735	1.431429	0.666694
C238	C	0.611230	0.776930	0.000037
C239	C	0.944563	1.110263	0.333371
C240	C	1.277896	1.443596	0.666704
C241	C	0.611742	0.726514	0.000041
C242	C	0.945075	1.059848	0.333374
C243	C	1.278409	1.393181	0.666708
C244	C	0.567917	0.695224	0.000032
C245	C	0.901250	1.028557	0.333365
C246	C	1.234583	1.361891	0.666699
C247	C	0.617477	0.161878	0.000066
C248	C	0.950811	0.495211	0.333399
C249	C	1.284144	0.828544	0.666733
C250	C	0.617986	0.111461	0.000073
C251	C	0.951319	0.444794	0.333406
C252	C	1.284652	0.778127	0.666739
C253	C	0.529825	0.099298	0.000060
C254	C	0.863158	0.432631	0.333393
C255	C	1.196492	0.765964	0.666727
C256	C	0.529316	0.149710	0.000056
C257	C	0.862650	0.483043	0.333389
C258	C	1.195983	0.816377	0.666723
C259	C	0.573147	0.180999	0.000057
C260	C	0.906480	0.514333	0.333391
C261	C	1.239813	0.847666	0.666724
O262	O	0.491047	0.224296	0.000059
O263	O	0.824380	0.557629	0.333392
O264	O	1.157713	0.890962	0.666725
O265	O	0.654156	0.246844	0.000054
O266	O	0.987490	0.580177	0.333387
O267	O	1.320823	0.913511	0.666720
C268	C	0.614355	0.469397	0.000042
C269	C	0.947688	0.802730	0.333375
C270	C	1.281022	1.136064	0.666709
C271	C	0.570021	0.488518	0.000033
C272	C	0.903354	0.821852	0.333366
C273	C	1.236687	1.155185	0.666699
C274	C	0.526198	0.457228	0.000028
C275	C	0.859532	0.790561	0.333361
C276	C	1.192865	1.123894	0.666695
C277	C	0.569508	0.538933	0.000033
C278	C	0.902841	0.872266	0.333366
C279	C	1.236174	1.205599	0.666699
C280	C	0.613330	0.570223	0.000037
C281	C	0.946663	0.903557	0.333371
C282	C	1.279996	1.236890	0.666704
C283	C	0.657665	0.551100	0.000042
C284	C	0.990998	0.884433	0.333375
C285	C	1.324332	1.217766	0.666709
C286	C	0.658177	0.500688	0.000046
C287	C	0.991511	0.834021	0.333380
C288	C	1.324844	1.167354	0.666713
C289	C	0.481863	0.476351	0.000023
C290	C	0.815197	0.809685	0.333357
C291	C	1.148530	1.143018	0.666690
C292	C	0.481355	0.526764	0.000019
C293	C	0.814688	0.860097	0.333353
C294	C	1.148021	1.193430	0.666686
C295	C	0.525177	0.558054	0.000024
C296	C	0.858510	0.891388	0.333357
C297	C	1.191843	1.224721	0.666691
N298	N	0.570548	-0.061868	-0.120709
N299	N	0.903881	0.271465	0.212624
N300	N	1.237215	0.604798	0.545958
C301	C	0.603640	-0.028781	0.473336
C302	C	0.936974	0.304552	0.806669
C303	C	1.270307	0.637885	1.140002
C304	C	0.603651	-0.028774	0.686994
C305	C	0.936984	0.304559	1.020327
C306	C	1.270318	0.637892	1.353661
O307	O	0.631801	-0.000614	0.714623
O308	O	0.965134	0.332720	1.047956
O309	O	1.298467	0.666053	1.381290
N310	N	0.570538	-0.061871	0.713707
N311	N	0.903872	0.271462	1.047041
N312	N	1.237205	0.604796	1.380374
C313	C	0.537419	-0.094970	0.687003
C314	C	0.870752	0.238364	1.020336
C315	C	1.204085	0.571697	1.353669
O316	O	0.509251	-0.123117	0.714626
O317	O	0.842585	0.210216	1.047960
O318	O	1.175918	0.543550	1.381293
C319	C	0.537406	-0.094974	0.473345
C320	C	0.870739	0.238360	0.806678
C321	C	1.204073	0.571693	1.140012
C322	C	0.570524	-0.061878	0.446635
C323	C	0.903857	0.271455	0.779968
C324	C	1.237191	0.604788	1.113301
C325	C	0.636755	0.004312	0.446625
C326	C	0.970088	0.337645	0.779958
C327	C	1.303422	0.670979	1.113292
C328	C	0.636754	0.004308	0.393214
C329	C	0.970087	0.337642	0.726547
C330	C	1.303421	0.670975	1.059880
C331	C	0.603638	-0.028789	0.366513
C332	C	0.936971	0.304545	0.699846
C333	C	1.270304	0.637878	1.033179
C334	C	0.570523	-0.061882	0.393223
C335	C	0.903856	0.271451	0.726556
C336	C	1.237189	0.604785	1.059890
C337	C	0.504284	-0.128070	0.446641
C338	C	0.837618	0.205264	0.779975
C339	C	1.170951	0.538597	1.113308
C340	C	0.504283	-0.128067	0.393223
C341	C	0.837617	0.205266	0.726557
C342	C	1.170950	0.538600	1.059890
C343	C	0.537401	-0.094971	0.366513
C344	C	0.870735	0.238362	0.699846
C345	C	1.204068	0.571695	1.033180
C346	C	0.537405	-0.094983	0.313111
C347	C	0.870739	0.238351	0.646444
C348	C	1.204072	0.571684	0.979777
N349	N	0.570518	-0.061886	0.286397
N350	N	0.903851	0.271447	0.619731
N351	N	1.237185	0.604781	0.953064
C352	C	0.603634	-0.028789	0.313098
C353	C	0.936967	0.304544	0.646432
C354	C	1.270301	0.637878	0.979765
C355	C	0.537428	-0.094966	0.799176
C356	C	0.870762	0.238368	1.132509
C357	C	1.204095	0.571701	1.465843
C358	C	0.537432	-0.094965	0.852590
C359	C	0.870765	0.238368	1.185923
C360	C	1.204099	0.571701	1.519257
C361	C	0.603664	-0.028769	0.852578
C362	C	0.936997	0.304564	1.185911
C363	C	1.270330	0.637897	1.519245
C364	C	0.603662	-0.028773	0.799163
C365	C	0.936995	0.304561	1.132496
C366	C	1.270329	0.637894	1.465829
C367	C	0.570541	-0.061869	0.772463
C368	C	0.903874	0.271464	1.105796
C369	C	1.237207	0.604798	1.439129
C370	C	0.603629	-0.028800	0.200931
C371	C	0.936963	0.304533	0.534264
C372	C	1.270296	0.637867	0.867597
C373	C	0.603626	-0.028808	0.147514
C374	C	0.936960	0.304525	0.480848
C375	C	1.270293	0.637859	0.814181
C376	C	0.537393	-0.095002	0.147531
C377	C	0.870726	0.238331	0.480865
C378	C	1.204060	0.571665	0.814198
C379	C	0.537397	-0.094996	0.200943
C380	C	0.870731	0.238338	0.534276
C381	C	1.204064	0.571671	0.867609
C382	C	0.570517	-0.061891	0.227641
C383	C	0.903851	0.271443	0.560974
C384	C	1.237184	0.604776	0.894308
O385	O	0.509267	-0.123125	0.285449
O386	O	0.842600	0.210208	0.618782
O387	O	1.175933	0.543542	0.952116
O388	O	0.631790	-0.000639	0.285466
O389	O	0.965123	0.332694	0.618799
O390	O	1.298457	0.666028	0.952132
C391	C	0.603641	-0.028777	0.526747
C392	C	0.936975	0.304556	0.860080
C393	C	1.270308	0.637889	1.193414
C394	C	0.570527	-0.061871	0.553457
C395	C	0.903860	0.271463	0.886791
C396	C	1.237193	0.604796	1.220124
C397	C	0.537410	-0.094968	0.526756
C398	C	0.870744	0.238366	0.860090
C399	C	1.204077	0.571699	1.193423
C400	C	0.570530	-0.061870	0.606872
C401	C	0.903864	0.271463	0.940205
C402	C	1.237197	0.604796	1.273538
C403	C	0.603646	-0.028773	0.633573
C404	C	0.936980	0.304560	0.966906
C405	C	1.270313	0.637893	1.300239
C406	C	0.636759	0.004323	0.606859
C407	C	0.970092	0.337657	0.940193
C408	C	1.303426	0.670990	1.273526
C409	C	0.636758	0.004320	0.553448
C410	C	0.970091	0.337653	0.886781
C411	C	1.303424	0.670986	1.220115
C412	C	0.504298	-0.128064	0.553470
C413	C	0.837631	0.205269	0.886803
C414	C	1.170965	0.538602	1.220136
C415	C	0.504302	-0.128058	0.606881
C416	C	0.837635	0.205275	0.940214
C417	C	1.170969	0.538609	1.273548
C418	C	0.537418	-0.094961	0.633582
C419	C	0.870752	0.238372	0.966915
C420	C	1.204085	0.571706	1.300249
H421	H	0.174750	-0.187180	0.000030
H422	H	0.508083	0.146153	0.333363
H423	H	0.841417	0.479487	0.666696
C424	C	0.708490	0.328426	0.000066
C425	C	1.041823	0.661759	0.333399
C426	C	1.375157	0.995093	0.666732
N427	N	0.745230	0.312593	0.000068
N428	N	1.078564	0.645926	0.333401
N429	N	1.411897	0.979260	0.666734
H430	H	0.412743	-0.145454	0.000021
H431	H	0.746076	0.187879	0.333355
H432	H	1.079410	0.521213	0.666688
C433	C	-0.171295	0.033272	0.000078
C434	C	0.162038	0.366605	0.333411
C435	C	0.495371	0.699938	0.666744
N436	N	-0.145377	0.069587	0.000081
N437	N	0.187956	0.402921	0.333414
N438	N	0.521290	0.736254	0.666747
H439	H	0.477311	-0.155018	0.371487
H440	H	0.810644	0.178316	0.704820
H441	H	1.143977	0.511649	1.038153
C442	C	-0.039151	0.076063	0.000097
C443	C	0.294182	0.409396	0.333430
C444	C	0.627515	0.742730	0.666763
N445	N	-0.054987	0.112802	0.000114
N446	N	0.278347	0.446136	0.333447
N447	N	0.611680	0.779469	0.666780
C448	C	0.705870	0.585529	0.000046
C449	C	1.039203	0.918862	0.333379
C450	C	1.372536	1.252196	0.666713
N451	N	0.742175	0.611464	0.000046
N452	N	1.075508	0.944797	0.333379
N453	N	1.408842	1.278130	0.666713
C454	C	0.074362	-0.198776	0.000038
C455	C	0.407695	0.134558	0.333371
C456	C	0.741029	0.467891	0.666704
N457	N	0.048445	-0.235092	0.000031
N458	N	0.381778	0.098241	0.333364
N459	N	0.715112	0.431574	0.666698
C460	C	0.474293	0.785789	0.000023
C461	C	0.807627	1.119122	0.333356
C462	C	1.140960	1.452456	0.666690
N463	N	0.437554	0.801624	0.000016
N464	N	0.770887	1.134958	0.333350
N465	N	1.104221	1.468291	0.666683
H466	H	0.057760	0.062462	0.000085
H467	H	0.391093	0.395795	0.333418
H468	H	0.724427	0.729128	0.666751
C469	C	0.467899	-0.164510	0.524106
C470	C	0.801233	0.168824	0.857439
C471	C	1.134566	0.502157	1.190773
N472	N	0.440495	-0.191976	0.501991
N473	N	0.773828	0.141357	0.835325
N474	N	1.107162	0.474690	1.168658
C475	C	-0.196848	-0.151878	0.000048
C476	C	0.136485	0.181455	0.333382
C477	C	0.469819	0.514788	0.666715
N478	N	-0.181013	-0.188618	0.000046
N479	N	0.152321	0.144716	0.333379
N480	N	0.485654	0.478049	0.666712
C481	C	0.660517	0.705487	0.000047
C482	C	0.993850	1.038820	0.333381
C483	C	1.327184	1.372153	0.666714
N484	N	0.697256	0.689651	0.000050
N485	N	1.030589	1.022985	0.333383
N486	N	1.363923	1.356318	0.666717
H487	H	0.434827	0.014492	0.000048
H488	H	0.768160	0.347826	0.333382
H489	H	1.101494	0.681159	0.666715
C490	C	0.673186	0.040731	0.636241
C491	C	1.006519	0.374065	0.969574
C492	C	1.339852	0.707398	1.302908
N493	N	0.700619	0.068154	0.658374
N494	N	1.033952	0.401488	0.991707
N495	N	1.367285	0.734821	1.325040
H496	H	0.117558	0.061861	0.000090
H497	H	0.450892	0.395195	0.333423
H498	H	0.784225	0.728528	0.666757
C499	C	0.640089	0.007640	0.881959
C500	C	0.973423	0.340973	1.215292
C501	C	1.306756	0.674307	1.548626
N502	N	0.667521	0.035065	0.904091
N503	N	1.000854	0.368398	1.237425
N504	N	1.334187	0.701732	1.570758
C505	C	0.501003	-0.131376	0.881965
C506	C	0.834336	0.201957	1.215299
C507	C	1.167670	0.535290	1.548632
N508	N	0.473561	-0.158800	0.904089
N509	N	0.806894	0.174533	1.237423
N510	N	1.140227	0.507866	1.570756
C511	C	-0.076890	-0.197231	0.000050
C512	C	0.256443	0.136102	0.333383
C513	C	0.589776	0.469436	0.666716
N514	N	-0.102825	-0.233536	0.000050
N515	N	0.230508	0.099797	0.333383
N516	N	0.563842	0.433130	0.666716
H517	H	-0.293777	-0.138273	0.000053
H518	H	0.039557	0.195061	0.333386
H519	H	0.372890	0.528394	0.666719
C520	C	0.467867	-0.164468	0.636256
C521	C	0.801200	0.168865	0.969590
C522	C	1.134533	0.502199	1.302923
N523	N	0.440421	-0.191888	0.658380
N524	N	0.773754	0.141445	0.991714
N525	N	1.107087	0.474779	1.325047
H526	H	0.694282	0.485125	0.000054
H527	H	1.027615	0.818458	0.333388
H528	H	1.360949	1.151791	0.666721
H529	H	0.510456	-0.121918	0.777440
H530	H	0.843790	0.211415	1.110774
H531	H	1.177123	0.544748	1.444107
H532	H	0.446777	0.391080	0.000011
H533	H	0.780111	0.724414	0.333345
H534	H	1.113444	1.057747	0.666678
H535	H	0.321291	-0.144530	0.000036
H536	H	0.654624	0.188804	0.333369
H537	H	0.987957	0.522137	0.666703
C538	C	0.475367	0.679934	0.000018
C539	C	0.808700	1.013267	0.333351
C540	C	1.142034	1.346601	0.666685
N541	N	0.439051	0.654016	0.000013
N542	N	0.772384	0.987349	0.333346
N543	N	1.105718	1.320682	0.666679
H544	H	0.477317	-0.155019	0.468381
H545	H	0.810650	0.178315	0.801715
H546	H	1.143983	0.511648	1.135048
C547	C	0.337895	0.028096	0.000054
C548	C	0.671229	0.361429	0.333387
C549	C	1.004562	0.694763	0.666721
N550	N	0.322056	0.064833	0.000062
N551	N	0.655390	0.398167	0.333395
N552	N	0.988723	0.731500	0.666729
H553	H	-0.271687	0.021674	0.000070
H554	H	0.061646	0.355008	0.333404
H555	H	0.394980	0.688341	0.666737
C556	C	0.500969	-0.131405	0.230325
C557	C	0.834302	0.201928	0.563658
C558	C	1.167636	0.535262	0.896992
N559	N	0.473527	-0.158826	0.252452
N560	N	0.806861	0.174507	0.585785
N561	N	1.140194	0.507840	0.919119
C562	C	0.433652	0.441938	0.000017
C563	C	0.766986	0.775271	0.333351
C564	C	1.100319	1.108604	0.666684
N565	N	0.397337	0.416019	0.000015
N566	N	0.730670	0.749352	0.333348
N567	N	1.064003	1.082686	0.666682
H568	H	0.445246	0.542327	0.000016
H569	H	0.778580	0.875660	0.333349
H570	H	1.111913	1.208993	0.666682
H571	H	0.209009	0.060929	0.000091
H572	H	0.542343	0.394262	0.333424
H573	H	0.875676	0.727595	0.666757
C574	C	0.435186	0.290687	0.000014
C575	C	0.768519	0.624021	0.333347
C576	C	1.101853	0.957354	0.666681
N577	N	0.398872	0.264766	0.000010
N578	N	0.732206	0.598099	0.333343
N579	N	1.065539	0.931432	0.666677
H580	H	0.630597	-0.001858	0.125768
H581	H	0.963930	0.331476	0.459102
H582	H	1.297263	0.664809	0.792435
H583	H	0.646911	0.802415	0.000041
H584	H	0.980245	1.135749	0.333375
H585	H	1.313578	1.469082	0.666708
C586	C	0.500966	-0.131405	0.118150
C587	C	0.834299	0.201928	0.451483
C588	C	1.167632	0.535261	0.784817
N589	N	0.473525	-0.158822	0.096018
N590	N	0.806858	0.174512	0.429352
N591	N	1.140192	0.507845	0.762685
C592	C	0.640064	0.007616	0.230291
C593	C	0.973397	0.340950	0.563624
C594	C	1.306731	0.674283	0.896958
N595	N	0.667509	0.035043	0.252405
N596	N	1.000842	0.368376	0.585738
N597	N	1.334176	0.701709	0.919072
C598	C	0.666763	0.090432	0.000082
C599	C	1.000096	0.423765	0.333415
C600	C	1.333430	0.757098	0.666749
N601	N	0.703501	0.074594	0.000088
N602	N	1.036835	0.407927	0.333421
N603	N	1.370168	0.741261	0.666754
H604	H	0.494146	0.073812	0.000058
H605	H	0.827480	0.407145	0.333391
H606	H	1.160813	0.740478	0.666725
H607	H	0.663725	0.031269	0.531704
H608	H	0.997059	0.364602	0.865038
H609	H	1.330392	0.697936	1.198371
H610	H	0.653168	0.187348	0.000065
H611	H	0.986501	0.520681	0.333398
H612	H	1.319835	0.854015	0.666731
C613	C	0.707414	0.434277	0.000066
C614	C	1.040748	0.767610	0.333400
C615	C	1.374081	1.100943	0.666733
N616	N	0.743731	0.460194	0.000080
N617	N	1.077064	0.793527	0.333413
N618	N	1.410398	1.126860	0.666746
H619	H	0.023514	-0.185643	0.000042
H620	H	0.356847	0.147690	0.333376
H621	H	0.690181	0.481023	0.666709
C622	C	0.673182	0.040721	0.363839
C623	C	1.006515	0.374055	0.697173
C624	C	1.339848	0.707388	1.030506
N625	N	0.700619	0.068152	0.341718
N626	N	1.033952	0.401485	0.675051
N627	N	1.367285	0.734818	1.008384
C628	C	0.480543	0.170743	0.000049
C629	C	0.813876	0.504077	0.333382
C630	C	1.147209	0.837410	0.666715
N631	N	0.443805	0.186582	0.000037
N632	N	0.777139	0.519916	0.333371
N633	N	1.110472	0.853249	0.666704
H634	H	0.663722	0.031266	0.468360
H635	H	0.997056	0.364599	0.801694
H636	H	1.330389	0.697932	1.135027
H637	H	0.630629	-0.001823	0.777418
H638	H	0.963962	0.331510	1.110752
H639	H	1.297296	0.664844	1.444085
