data_functionalizedCrystal
_audit_creation_method	'MofGen! by Chris Wilmer'
_symmetry_space_group_name_H-M	'P1'
_symmetry_Int_Tables_number	1
_symmetry_cell_setting	triclinic
loop_
_symmetry_equiv_pos_as_xyz
  x,y,z
_cell_length_a	14.908571
_cell_length_b	16.625546
_cell_length_c	14.908308
_cell_angle_alpha	93.264070
_cell_angle_beta	90.175053
_cell_angle_gamma	86.718495
loop_
_atom_site_label
_atom_site_type_symbol
_atom_site_fract_x
_atom_site_fract_y
_atom_site_fract_z
Zn1	Zn	1.345280	-0.420778	-0.587557
Zn2	Zn	1.845280	0.079222	-0.087557
Zn3	Zn	1.353856	-0.548312	-0.437189
Zn4	Zn	1.853856	-0.048312	0.062811
Zn5	Zn	1.203596	-0.405291	-0.428555
Zn6	Zn	1.703596	0.094709	0.071445
Zn7	Zn	1.194884	-0.547354	-0.578841
Zn8	Zn	1.694884	-0.047354	-0.078841
O9	O	1.274404	-0.480434	-0.508036
O10	O	1.774404	0.019566	-0.008036
O11	O	1.472243	-0.444578	-0.574871
O12	O	1.972243	0.055422	-0.074871
O13	O	1.341159	-0.523260	-0.310220
O14	O	1.841159	-0.023260	0.189780
O15	O	1.222448	-0.294517	-0.449681
O16	O	1.722448	0.205483	0.050319
O17	O	1.478544	-0.538277	-0.464397
O18	O	1.978544	-0.038277	0.035603
O19	O	1.326543	-0.305896	-0.566499
O20	O	1.826543	0.194104	-0.066499
O21	O	1.230763	-0.418182	-0.303876
O22	O	1.730763	0.081818	0.196124
O23	O	1.076615	-0.417254	-0.441230
O24	O	1.576615	0.082746	0.058770
O25	O	1.207599	-0.536644	-0.705821
O26	O	1.707599	-0.036644	-0.205821
O27	O	1.070214	-0.521627	-0.551644
O28	O	1.570214	-0.021627	-0.051644
O29	O	1.318095	-0.443649	-0.712225
O30	O	1.818095	0.056351	-0.212225
O31	O	1.332711	-0.661013	-0.455945
O32	O	1.832711	-0.161013	0.044055
O33	O	1.215914	-0.660309	-0.560016
O34	O	1.715914	-0.160309	-0.060016
C35	C	1.040789	-0.467656	-0.494555
C36	C	1.540789	0.032344	0.005445
C37	C	0.940846	-0.462211	-0.488810
C38	C	1.440846	0.037789	0.011190
C39	C	1.274321	-0.689918	-0.507993
C40	C	1.774321	-0.189918	-0.007993
C41	C	1.274366	-0.779542	-0.508010
C42	C	1.774366	-0.279542	-0.008010
C43	C	0.746435	-0.560814	-0.592833
C44	C	1.246435	-0.060814	-0.092833
C45	C	0.652530	-0.555700	-0.587437
C46	C	1.152530	-0.055700	-0.087437
C47	C	0.659128	-0.446865	-0.472629
C48	C	1.159128	0.053135	0.027371
C49	C	0.753033	-0.451979	-0.478024
C50	C	1.253033	0.048021	0.021976
C51	C	0.796683	-0.508956	-0.538127
C52	C	1.296683	-0.008956	-0.038127
C53	C	0.890591	-0.514074	-0.543517
C54	C	1.390591	-0.014074	-0.043517
C55	C	0.897187	-0.405236	-0.428714
C56	C	1.397187	0.094764	0.071286
C57	C	0.803282	-0.400121	-0.423318
C58	C	1.303282	0.099879	0.076682
C59	C	1.274517	-1.107731	-0.508112
C60	C	1.774517	-0.607731	-0.008112
C61	C	1.274472	-1.016419	-0.508086
C62	C	1.774472	-0.516419	-0.008086
C63	C	1.274441	-0.943640	-0.508060
C64	C	1.774441	-0.443640	-0.008060
C65	C	1.274397	-0.852322	-0.508035
C66	C	1.774397	-0.352322	-0.008035
C67	C	1.508931	-0.493262	-0.521569
C68	C	2.008931	0.006738	-0.021569
C69	C	1.608873	-0.498728	-0.527336
C70	C	2.108873	0.001272	-0.027336
C71	C	1.260918	-0.491767	-0.742560
C72	C	1.760918	0.008233	-0.242560
C73	C	1.255172	-0.496597	-0.842501
C74	C	1.755172	0.003403	-0.342501
C75	C	1.274511	-0.270134	-0.508099
C76	C	1.774511	0.229866	-0.008099
C77	C	1.274556	-0.180516	-0.508127
C78	C	1.774556	0.319484	-0.008127
C79	C	1.359429	-0.408817	-1.036969
C80	C	1.859429	0.091183	-0.536969
C81	C	1.354033	-0.413353	-1.130872
C82	C	1.854033	0.086647	-0.630872
C83	C	1.238977	-0.510198	-1.124211
C84	C	1.738977	-0.010198	-0.624211
C85	C	1.244374	-0.505662	-1.030308
C86	C	1.744374	-0.005662	-0.530308
C87	C	1.304603	-0.454971	-0.986690
C88	C	1.804603	0.045029	-0.486690
C89	C	1.310004	-0.450441	-0.892786
C90	C	1.810004	0.049559	-0.392786
C91	C	1.194945	-0.547281	-0.886127
C92	C	1.694945	-0.047281	-0.386127
C93	C	1.189548	-0.551817	-0.980030
C94	C	1.689548	-0.051817	-0.480030
C95	C	1.287889	-0.469089	-0.274426
C96	C	1.787889	0.030911	0.225574
C97	C	1.293810	-0.464042	-0.174497
C98	C	1.793810	0.035958	0.325503
H99	H	0.926129	-0.560469	-0.592455
H100	H	1.426129	-0.060469	-0.092455
H101	H	1.398676	-0.375767	-1.171805
H102	H	1.898676	0.124233	-0.671805
C103	C	1.173664	-0.565197	-1.171745
C104	C	1.673664	-0.065197	-0.671745
C105	C	1.180683	-0.559292	-1.264742
C106	C	1.680683	-0.059292	-0.764742
C107	C	1.120533	-0.609949	-1.308559
C108	C	1.620533	-0.109949	-0.808559
H109	H	1.114102	-0.549397	-1.152973
H110	H	1.614102	-0.049397	-0.652973
H111	H	1.187676	-0.619372	-1.157165
H112	H	1.687676	-0.119372	-0.657165
H113	H	1.166665	-0.505129	-1.279315
H114	H	1.666665	-0.005129	-0.779315
H115	H	1.240232	-0.575099	-1.283540
H116	H	1.740232	-0.075099	-0.783540
H117	H	1.134545	-0.664124	-1.293979
H118	H	1.634545	-0.164124	-0.793979
H119	H	1.060974	-0.594144	-1.289780
H120	H	1.560974	-0.094144	-0.789780
H121	H	1.125293	-0.605955	-1.371662
H122	H	1.625293	-0.105955	-0.871662
C123	C	0.793665	-0.622700	-0.658170
C124	C	1.293665	-0.122700	-0.158170
C125	C	0.729559	-0.667012	-0.704938
C126	C	1.229559	-0.167012	-0.204938
C127	C	0.773032	-0.724021	-0.765144
C128	C	1.273032	-0.224021	-0.265144
H129	H	0.832261	-0.658188	-0.625909
H130	H	1.332261	-0.158188	-0.125909
H131	H	0.828036	-0.595820	-0.699561
H132	H	1.328036	-0.095820	-0.199561
H133	H	0.695203	-0.693890	-0.663553
H134	H	1.195203	-0.193890	-0.163553
H135	H	0.690960	-0.631546	-0.737218
H136	H	1.190960	-0.131546	-0.237218
H137	H	0.807402	-0.697141	-0.806535
H138	H	1.307402	-0.197141	-0.306535
H139	H	0.811627	-0.759503	-0.732875
H140	H	1.311627	-0.259503	-0.232875
H141	H	0.729542	-0.754088	-0.796889
H142	H	1.229542	-0.254088	-0.296889
C143	C	1.124220	-0.606979	-1.027280
C144	C	1.624220	-0.106979	-0.527280
C145	C	1.145068	-0.686717	-1.005531
C146	C	1.645068	-0.186717	-0.505531
C147	C	1.084902	-0.737557	-1.049030
C148	C	1.584902	-0.237557	-0.549030
H149	H	1.128799	-0.603177	-1.090417
H150	H	1.628799	-0.103177	-0.590417
H151	H	1.064681	-0.591185	-1.008389
H152	H	1.564681	-0.091185	-0.508389
H153	H	1.204592	-0.702507	-1.024428
H154	H	1.704592	-0.202507	-0.524428
H155	H	1.140483	-0.690545	-0.942402
H156	H	1.640483	-0.190545	-0.442402
H157	H	1.025363	-0.721763	-1.030138
H158	H	1.525363	-0.221763	-0.530138
H159	H	1.089486	-0.733748	-1.112165
H160	H	1.589486	-0.233748	-0.612165
H161	H	1.099034	-0.791664	-1.034273
H162	H	1.599034	-0.291664	-0.534273
H163	H	0.623571	-0.400472	-0.423701
H164	H	1.123571	0.099528	0.076299
C165	C	0.597918	-0.611872	-0.646939
C166	C	1.097918	-0.111872	-0.146939
C167	C	0.540730	-0.566150	-0.701577
C168	C	1.040730	-0.066150	-0.201577
C169	C	0.490416	-0.617869	-0.756413
C170	C	0.990416	-0.117869	-0.256413
H171	H	0.563170	-0.643314	-0.610471
H172	H	1.063170	-0.143314	-0.110471
H173	H	0.637334	-0.646523	-0.683557
H174	H	1.137334	-0.146523	-0.183557
H175	H	0.501318	-0.531513	-0.664963
H176	H	1.001318	-0.031513	-0.164963
H177	H	0.575454	-0.534710	-0.738064
H178	H	1.075454	-0.034710	-0.238064
H179	H	0.529833	-0.652520	-0.793031
H180	H	1.029833	-0.152520	-0.293031
H181	H	0.455674	-0.649308	-0.719938
H182	H	0.955674	-0.149308	-0.219938
H183	H	0.451615	-0.586854	-0.793497
H184	H	0.951615	-0.086854	-0.293497
C185	C	0.755722	-0.338342	-0.358094
C186	C	1.255722	0.161658	0.141906
C187	C	0.662729	-0.344971	-0.365064
C188	C	1.162729	0.155029	0.134936
C189	C	0.618891	-0.288079	-0.304984
C190	C	1.118891	0.211921	0.195016
H191	H	0.770264	-0.285623	-0.372180
H192	H	1.270264	0.214377	0.127820
H193	H	0.774515	-0.347982	-0.298518
H194	H	1.274515	0.152018	0.201482
H195	H	0.643943	-0.335325	-0.424627
H196	H	1.143943	0.164675	0.075373
H197	H	0.648160	-0.397677	-0.350970
H198	H	1.148160	0.102323	0.149030
H199	H	0.637683	-0.297719	-0.245407
H200	H	1.137683	0.202281	0.254593
H201	H	0.633439	-0.235365	-0.319075
H202	H	1.133439	0.264635	0.180925
H203	H	0.555791	-0.292574	-0.309699
H204	H	1.055791	0.207426	0.190301
C205	C	1.424707	-0.353651	-0.989645
C206	C	1.924707	0.146349	-0.489645
C207	C	1.403846	-0.273905	-1.011358
C208	C	1.903846	0.226095	-0.511358
C209	C	1.463954	-0.223062	-0.967772
C210	C	1.963954	0.276938	-0.467772
H211	H	1.484265	-0.369392	-1.008478
H212	H	1.984265	0.130608	-0.508478
H213	H	1.420060	-0.357506	-0.926510
H214	H	1.920060	0.142494	-0.426510
H215	H	1.408501	-0.270053	-1.074479
H216	H	1.908501	0.229947	-0.574479
H217	H	1.344298	-0.258139	-0.992524
H218	H	1.844298	0.241861	-0.492524
H219	H	1.459307	-0.226917	-0.904637
H220	H	1.959307	0.273083	-0.404637
H221	H	1.523508	-0.238811	-0.986608
H222	H	2.023508	0.261189	-0.486608
H223	H	1.449802	-0.168949	-0.982491
H224	H	1.949802	0.331051	-0.482491
H225	H	1.150303	-0.584866	-0.845180
H226	H	1.650303	-0.084866	-0.345180
H227	H	1.359047	-0.409167	-0.857274
H228	H	1.859047	0.090833	-0.357274
C229	C	0.951901	-0.348974	-0.369420
C230	C	1.451901	0.151026	0.130580
C231	C	1.043482	-0.365634	-0.387018
C232	C	1.543482	0.134366	0.112982
C233	C	1.093910	-0.313820	-0.332421
C234	C	1.593910	0.186180	0.167579
H235	H	0.940075	-0.356888	-0.308070
H236	H	1.440075	0.143112	0.191930
H237	H	0.935820	-0.294604	-0.381810
H238	H	1.435820	0.205396	0.118190
H239	H	1.059557	-0.419990	-0.374621
H240	H	1.559557	0.080010	0.125379
H241	H	1.055336	-0.357714	-0.448358
H242	H	1.555336	0.142286	0.051642
H243	H	1.077829	-0.259450	-0.344812
H244	H	1.577829	0.240550	0.155188
H245	H	1.082077	-0.321738	-0.271074
H246	H	1.582077	0.178262	0.228926
H247	H	1.156053	-0.325111	-0.344360
H248	H	1.656053	0.174889	0.155640
