data_functionalizedCrystal
_audit_creation_method	'MofGen! by Chris Wilmer'
_symmetry_space_group_name_H-M	'P1'
_symmetry_Int_Tables_number	1
_symmetry_cell_setting	triclinic
loop_
_symmetry_equiv_pos_as_xyz
  x,y,z
_cell_length_a	13.897449
_cell_length_b	13.033454
_cell_length_c	13.032721
_cell_angle_alpha	89.068673
_cell_angle_beta	97.205670
_cell_angle_gamma	97.161857
loop_
_atom_site_label
_atom_site_type_symbol
_atom_site_fract_x
_atom_site_fract_y
_atom_site_fract_z
Zn1	Zn	1.361107	-0.633451	-0.335478
Zn2	Zn	1.861107	-0.133451	0.164522
Zn3	Zn	1.355865	-0.483313	-0.529331
Zn4	Zn	1.855865	0.016687	-0.029331
Zn5	Zn	1.217383	-0.461501	-0.357378
Zn6	Zn	1.717383	0.038499	0.142622
Zn7	Zn	1.177060	-0.655230	-0.507417
Zn8	Zn	1.677060	-0.155230	-0.007417
O9	O	1.277854	-0.558374	-0.432401
O10	O	1.777854	-0.058374	0.067599
O11	O	1.495391	-0.613549	-0.361199
O12	O	1.995391	-0.113549	0.138801
O13	O	1.352176	-0.336510	-0.524857
O14	O	1.852176	0.163490	-0.024857
O15	O	1.255518	-0.466067	-0.210552
O16	O	1.755518	0.033933	0.289448
O17	O	1.491539	-0.503243	-0.503622
O18	O	1.991539	-0.003243	-0.003622
O19	O	1.361111	-0.592398	-0.194463
O20	O	1.861111	-0.092398	0.305537
O21	O	1.250435	-0.320485	-0.398524
O22	O	1.750435	0.179515	0.101476
O23	O	1.077055	-0.487186	-0.377275
O24	O	1.577055	0.012814	0.122725
O25	O	1.186793	-0.796251	-0.466273
O26	O	1.686793	-0.296251	0.033727
O27	O	1.047430	-0.629518	-0.487508
O28	O	1.547430	-0.129518	0.012492
O29	O	1.322011	-0.780250	-0.339950
O30	O	1.822011	-0.280250	0.160050
O31	O	1.313077	-0.524362	-0.670344
O32	O	1.813077	-0.024362	-0.170344
O33	O	1.181710	-0.650669	-0.654244
O34	O	1.681710	-0.150669	-0.154244
C35	C	1.027244	-0.558349	-0.432390
C36	C	1.527244	-0.058349	0.067610
C37	C	0.920026	-0.558366	-0.432407
C38	C	1.420026	-0.058366	0.067593
C39	C	1.242473	-0.592268	-0.699608
C40	C	1.742473	-0.092268	-0.199608
C41	C	1.227421	-0.606802	-0.813916
C42	C	1.727421	-0.106802	-0.313916
C43	C	1.250489	-0.826608	-0.398224
C44	C	1.750489	-0.326608	0.101776
C45	C	1.238827	-0.940913	-0.383660
C46	C	1.738827	-0.440913	0.116340
C47	C	0.723727	-0.558393	-0.432408
C48	C	1.223727	-0.058393	0.067592
C49	C	0.832962	-0.558374	-0.432405
C50	C	1.332962	-0.058374	0.067595
C51	C	1.529442	-0.558400	-0.432412
C52	C	2.029442	-0.058400	0.067588
C53	C	1.636654	-0.558411	-0.432417
C54	C	2.136654	-0.058411	0.067583
C55	C	1.283968	-0.999803	-0.439674
C56	C	1.783968	-0.499803	0.060326
C57	C	1.271917	-1.117944	-0.424623
C58	C	1.771917	-0.617944	0.075377
C59	C	1.305177	-0.291174	-0.466371
C60	C	1.805177	0.208826	0.033629
C61	C	1.317064	-0.176833	-0.480645
C62	C	1.817064	0.323167	0.019355
C63	C	1.285756	-0.550835	-0.872804
C64	C	1.785756	-0.050835	-0.372804
C65	C	1.270201	-0.565855	-0.990948
C66	C	1.770201	-0.065855	-0.490948
C67	C	1.313397	-0.524370	-0.164147
C68	C	1.813397	-0.024370	0.335853
C69	C	1.328543	-0.509880	-0.049834
C70	C	1.828543	-0.009880	0.450166
H71	H	1.224349	-1.154984	-0.365516
H72	H	1.724349	-0.654984	0.134484
O73	O	1.401990	-0.439559	-1.005682
O74	O	1.901990	0.060441	-0.505682
C75	C	1.492398	-0.465402	-1.028906
C76	C	1.992398	0.034598	-0.528906
H77	H	1.484960	-0.551294	-1.048002
H78	H	1.984960	-0.051294	-0.548002
H79	H	1.550205	-0.447662	-0.959294
H80	H	2.050205	0.052338	-0.459294
H81	H	1.515135	-0.418150	-1.098200
H82	H	2.015135	0.081850	-0.598200
H83	H	1.191263	-0.977958	-0.324557
H84	H	1.691263	-0.477958	0.175443
O85	O	1.340637	-0.955748	-0.510313
O86	O	1.840637	-0.455748	-0.010313
C87	C	1.303304	-0.994892	-0.609508
C88	C	1.803304	-0.494892	-0.109508
H89	H	1.258044	-1.073183	-0.601768
H90	H	1.758044	-0.573183	-0.101768
H91	H	1.366442	-1.004304	-0.655183
H92	H	1.866442	-0.504304	-0.155183
H93	H	1.255238	-0.938842	-0.651783
H94	H	1.755238	-0.438842	-0.151783
H95	H	1.347218	-0.491802	-0.835757
H96	H	1.847218	0.008198	-0.335757
O97	O	1.153986	-0.677170	-0.857999
O98	O	1.653986	-0.177170	-0.357999
C99	C	1.063574	-0.651298	-0.834823
C100	C	1.563574	-0.151298	-0.334823
H101	H	1.075831	-0.601915	-0.761854
H102	H	1.575831	-0.101915	-0.261854
H103	H	1.013162	-0.725028	-0.821819
H104	H	1.513162	-0.225028	-0.321819
H105	H	1.028617	-0.606031	-0.902054
H106	H	1.528617	-0.106031	-0.402054
O107	O	1.196896	-0.636216	-1.035303
O108	O	1.696896	-0.136216	-0.535303
C109	C	1.197695	-0.635564	-1.143387
C110	C	1.697695	-0.135564	-0.643387
H111	H	1.235536	-0.558069	-1.168064
H112	H	1.735536	-0.058069	-0.668064
H113	H	1.119380	-0.647642	-1.183474
H114	H	1.619380	-0.147642	-0.683474
H115	H	1.238814	-0.700451	-1.166022
H116	H	1.738814	-0.200451	-0.666022
O117	O	1.373742	-1.132787	-0.551285
O118	O	1.873742	-0.632787	-0.051285
C119	C	1.336415	-1.171933	-0.650480
C120	C	1.836415	-0.671933	-0.150480
H121	H	1.291148	-1.250220	-0.642741
H122	H	1.791148	-0.750220	-0.142741
H123	H	1.399557	-1.181355	-0.696148
H124	H	1.899557	-0.681355	-0.196148
H125	H	1.288358	-1.115880	-0.692763
H126	H	1.788358	-0.615880	-0.192763
