data_functionalizedCrystal
_audit_creation_method	'MofGen! by Chris Wilmer'
_symmetry_space_group_name_H-M	'P1'
_symmetry_Int_Tables_number	1
_symmetry_cell_setting	triclinic
loop_
_symmetry_equiv_pos_as_xyz
  x,y,z
_cell_length_a	14.519709
_cell_length_b	19.288865
_cell_length_c	17.766277
_cell_angle_alpha	90.011603
_cell_angle_beta	90.003743
_cell_angle_gamma	83.408197
loop_
_atom_site_label
_atom_site_type_symbol
_atom_site_fract_x
_atom_site_fract_y
_atom_site_fract_z
O1	O	-1.223296	-0.091051	-0.062505
O2	O	-0.723296	0.408949	0.437495
O3	O	-0.954751	-0.101773	-0.062529
O4	O	-0.454751	0.398227	0.437471
O5	O	-1.096783	0.004690	-0.062502
O6	O	-0.596783	0.504690	0.437498
O7	O	-1.081264	-0.197514	-0.062533
O8	O	-0.581264	0.302486	0.437467
O9	O	-1.096759	0.004696	0.062687
O10	O	-0.596759	0.504696	0.562687
O11	O	-0.954726	-0.101768	0.062659
O12	O	-0.454726	0.398232	0.562659
O13	O	-1.223271	-0.091045	0.062683
O14	O	-0.723271	0.408955	0.562683
Cu15	Cu	-1.088997	-0.096406	0.074102
Cu16	Cu	-0.588997	0.403594	0.574102
Cu17	Cu	-1.089026	-0.096413	-0.073948
Cu18	Cu	-0.589026	0.403587	0.426052
O19	O	-1.081239	-0.197509	0.062656
O20	O	-0.581239	0.302491	0.562656
C21	C	-0.920382	-0.101271	0.000062
C22	C	-0.420382	0.398729	0.500062
C23	C	-0.818010	-0.099773	0.000054
C24	C	-0.318010	0.400227	0.500054
C25	C	-1.257640	-0.091548	0.000090
C26	C	-0.757640	0.408452	0.500090
C27	C	-1.360012	-0.093045	0.000094
C28	C	-0.860012	0.406955	0.500094
C29	C	-1.096272	0.030571	0.000095
C30	C	-0.596272	0.530571	0.500095
C31	C	-1.094773	0.107680	0.000101
C32	C	-0.594773	0.607680	0.500101
C33	C	-0.443150	-0.094261	0.000089
C34	C	0.056850	0.405739	0.500089
C35	C	-0.547448	-0.095792	0.000079
C36	C	-0.047448	0.404208	0.500079
C37	C	-0.630577	-0.097017	0.000070
C38	C	-0.130577	0.402983	0.500070
C39	C	-0.734882	-0.098548	0.000062
C40	C	-0.234882	0.401452	0.500062
C41	C	-1.081751	-0.223390	0.000058
C42	C	-0.581751	0.276610	0.500058
C43	C	-1.083250	-0.300499	0.000046
C44	C	-0.583250	0.199501	0.500046
N45	N	-1.088983	-0.096401	0.178232
N46	N	-0.588983	0.403599	0.678232
C47	C	-1.178111	0.152077	0.000112
C48	C	-0.678111	0.652077	0.500112
C49	C	-1.176702	0.224529	0.000100
C50	C	-0.676702	0.724529	0.500100
C51	C	-1.091951	0.252581	0.000092
C52	C	-0.591951	0.752581	0.500092
C53	C	-1.008602	0.208175	0.000077
C54	C	-0.508602	0.708175	0.500077
C55	C	-1.010013	0.135725	0.000081
C56	C	-0.510013	0.635725	0.500081
C57	C	-1.025318	0.361110	0.043937
C58	C	-0.525318	0.861110	0.543937
C59	C	-1.023911	0.433560	0.043937
C60	C	-0.523911	0.933560	0.543937
C61	C	-1.087597	0.476043	0.000075
C62	C	-0.587597	0.976043	0.500075
C63	C	-1.152705	0.446068	-0.043778
C64	C	-0.652705	0.946068	0.456222
C65	C	-1.154116	0.373618	-0.043773
C66	C	-0.654116	0.873618	0.456227
C67	C	-1.090412	0.331141	0.000087
C68	C	-0.590412	0.831141	0.500087
C69	C	-1.169414	0.599000	0.000072
C70	C	-0.669414	1.099000	0.500072
C71	C	-1.168002	0.671454	0.000055
C72	C	-0.668002	1.171454	0.500055
C73	C	-0.999899	0.655098	0.000040
C74	C	-0.499899	1.155098	0.500040
C75	C	-1.001314	0.582647	0.000049
C76	C	-0.501314	1.082647	0.500049
C77	C	-1.086073	0.554602	0.000069
C78	C	-0.586073	1.054602	0.500069
N79	N	-1.089047	-0.096412	-0.178078
N80	N	-0.589047	0.403588	0.321922
C81	C	-1.151895	-0.049282	0.217631
C82	C	-0.651895	0.450718	0.717631
C83	C	-1.151900	-0.049279	0.296433
C84	C	-0.651900	0.450721	0.796433
C85	C	-1.089002	-0.096407	0.335833
C86	C	-0.589002	0.403593	0.835833
C87	C	-1.026078	-0.143529	0.296424
C88	C	-0.526078	0.356471	0.796424
C89	C	-1.026069	-0.143526	0.217624
C90	C	-0.526069	0.356474	0.717624
C91	C	-1.076656	-0.159650	0.460660
C92	C	-0.576656	0.340350	0.960660
C93	C	-1.076672	-0.159654	0.539459
C94	C	-0.576672	0.340346	1.039459
C95	C	-1.089027	-0.096415	0.578879
C96	C	-0.589027	0.403585	1.078879
C97	C	-1.101385	-0.033170	0.539491
C98	C	-0.601385	0.466830	1.039491
C99	C	-1.101375	-0.033167	0.460690
C100	C	-0.601375	0.466833	0.960690
C101	C	-1.089005	-0.096415	0.421279
C102	C	-0.589005	0.403585	0.921279
C103	C	-1.151948	-0.049289	0.703724
C104	C	-0.651948	0.450711	1.203724
C105	C	-1.151947	-0.049285	0.782528
C106	C	-0.651947	0.450715	1.282528
C107	C	-1.026129	-0.143541	0.782517
C108	C	-0.526129	0.356459	1.282517
C109	C	-1.026126	-0.143539	0.703715
C110	C	-0.526126	0.356461	1.203715
C111	C	-1.089040	-0.096414	0.664324
C112	C	-0.589040	0.403586	1.164324
H113	H	-1.247128	0.129248	0.000126
H114	H	-0.747128	0.629248	0.500126
H115	H	-1.207128	0.349216	-0.079481
H116	H	-0.707128	0.849216	0.420519
H117	H	-0.970892	0.457959	0.079640
H118	H	-0.470892	0.957959	0.579640
F119	F	-0.909700	0.684949	0.000027
F120	F	-0.409700	1.184949	0.500027
F121	F	-0.921309	0.088473	0.000069
F122	F	-0.421309	0.588473	0.500069
H123	H	-1.244568	0.260683	0.000106
H124	H	-0.744568	0.760683	0.500106
F125	F	-1.218904	0.000872	0.824461
F126	F	-0.718904	0.500872	1.324461
H127	H	-1.204564	0.480657	-0.079495
H128	H	-0.704564	0.980657	0.420505
F129	F	-0.959106	-0.193679	0.175691
F130	F	-0.459106	0.306321	0.675691
F131	F	-0.918404	0.238031	0.000063
F132	F	-0.418404	0.738031	0.500063
H133	H	-1.203121	-0.010909	0.185561
H134	H	-0.703121	0.489091	0.685561
H135	H	-1.238430	0.576166	0.000085
H136	H	-0.738430	1.076166	0.500085
F137	F	-1.256707	0.718704	0.000062
F138	F	-0.756707	1.218704	0.500062
H139	H	-1.203174	-0.010914	0.671650
H140	H	-0.703174	0.489086	1.171650
H141	H	-0.973455	0.326526	0.079659
H142	H	-0.473455	0.826526	0.579659
F143	F	-0.912613	0.535395	0.000040
F144	F	-0.412613	1.035395	0.500040
F145	F	-1.218863	0.000874	0.338372
F146	F	-0.718863	0.500874	0.838372
H147	H	-1.111435	0.018329	0.428623
H148	H	-0.611435	0.518329	0.928623
H149	H	-1.111445	0.018325	0.571585
H150	H	-0.611445	0.518325	1.071585
F151	F	-0.959183	-0.193693	0.824445
F152	F	-0.459183	0.306307	1.324445
F153	F	-0.959171	-0.193692	0.661780
F154	F	-0.459171	0.306308	1.161780
F155	F	-1.063526	-0.226964	0.581372
F156	F	-0.563526	0.273036	1.081372
H157	H	-1.066579	-0.211150	0.428571
H158	H	-0.566579	0.288850	0.928571
F159	F	-0.959134	-0.193684	0.338356
F160	F	-0.459134	0.306316	0.838356
