data_functionalizedCrystal
_audit_creation_method	'MofGen! by Chris Wilmer'
_symmetry_space_group_name_H-M	'P1'
_symmetry_Int_Tables_number	1
_symmetry_cell_setting	triclinic
loop_
_symmetry_equiv_pos_as_xyz
  x,y,z
_cell_length_a	23.532355
_cell_length_b	14.519709
_cell_length_c	13.596369
_cell_angle_alpha	90.006934
_cell_angle_beta	90.000488
_cell_angle_gamma	96.746178
loop_
_atom_site_label
_atom_site_type_symbol
_atom_site_fract_x
_atom_site_fract_y
_atom_site_fract_z
O1	O	0.755783	-0.111723	-0.081660
O2	O	1.255783	0.388277	0.418340
O3	O	0.589989	-0.127971	-0.081691
O4	O	1.089989	0.372029	0.418309
O5	O	0.677282	0.014445	-0.081666
O6	O	1.177282	0.514445	0.418334
O7	O	0.668490	-0.254139	-0.081685
O8	O	1.168490	0.245861	0.418315
O9	O	0.677273	0.014452	0.081917
O10	O	1.177273	0.514452	0.581917
O11	O	0.589980	-0.127964	0.081892
O12	O	1.089980	0.372036	0.581892
O13	O	0.755775	-0.111715	0.081923
O14	O	1.255775	0.388285	0.581923
Zn15	Zn	0.672876	-0.119838	0.107880
Zn16	Zn	1.172876	0.380162	0.607880
Zn17	Zn	0.672888	-0.119848	-0.107648
Zn18	Zn	1.172888	0.380152	0.392352
O19	O	0.668482	-0.254131	0.081898
O20	O	1.168482	0.245869	0.581898
C21	C	0.568766	-0.127561	0.000096
C22	C	1.068766	0.372439	0.500096
C23	C	0.505542	-0.126340	0.000084
C24	C	1.005542	0.373660	0.500084
C25	C	0.113489	-0.118664	0.089295
C26	C	0.613489	0.381336	0.589295
C27	C	0.054084	-0.117502	0.089299
C28	C	0.554084	0.382498	0.589299
O29	O	0.023359	-0.116866	0.165133
O30	O	0.523359	0.383134	0.665133
N31	N	0.024378	-0.116930	0.000130
N32	N	0.524378	0.383070	0.500130
C33	C	0.054080	-0.117510	-0.089048
C34	C	0.554080	0.382490	0.410952
O35	O	0.023358	-0.116916	-0.164893
O36	O	0.523358	0.383084	0.335107
C37	C	0.113484	-0.118665	-0.089051
C38	C	0.613484	0.381335	0.410949
C39	C	0.143187	-0.119247	0.000124
C40	C	0.643187	0.380753	0.500124
C41	C	0.143192	-0.119244	0.178462
C42	C	0.643192	0.380756	0.678462
C43	C	0.202592	-0.120407	0.178458
C44	C	0.702592	0.379593	0.678458
C45	C	0.232290	-0.120990	0.089287
C46	C	0.732290	0.379010	0.589287
C47	C	0.202587	-0.120410	0.000119
C48	C	0.702587	0.379590	0.500119
C49	C	0.143186	-0.119239	-0.178228
C50	C	0.643186	0.380761	0.321772
C51	C	0.202594	-0.120394	-0.178223
C52	C	0.702594	0.379606	0.321777
C53	C	0.232297	-0.120975	-0.089049
C54	C	0.732297	0.379025	0.410951
C55	C	0.291685	-0.122157	-0.089056
C56	C	0.791685	0.377843	0.410944
N57	N	0.321392	-0.122729	0.000112
N58	N	0.821392	0.377271	0.500112
C59	C	0.291694	-0.122146	0.089284
C60	C	0.791694	0.377854	0.589284
C61	C	-0.070672	-0.115083	-0.089035
C62	C	0.429328	0.384917	0.410965
C63	C	-0.130076	-0.113934	-0.089033
C64	C	0.369924	0.386066	0.410967
C65	C	-0.130067	-0.113924	0.089314
C66	C	0.369933	0.386076	0.589314
C67	C	-0.070663	-0.115079	0.089311
C68	C	0.429337	0.384921	0.589311
C69	C	-0.040966	-0.115655	0.000133
C70	C	0.459034	0.384345	0.500133
C71	C	0.416439	-0.124590	0.089268
C72	C	0.916439	0.375410	0.589268
C73	C	0.475844	-0.125757	0.089256
C74	C	0.975844	0.374243	0.589256
C75	C	0.475831	-0.125762	-0.089091
C76	C	0.975831	0.374238	0.410909
C77	C	0.416431	-0.124600	-0.089079
C78	C	0.916431	0.375400	0.410921
C79	C	0.386736	-0.124010	0.000108
C80	C	0.886736	0.375990	0.500108
O81	O	0.322449	-0.122789	-0.164852
O82	O	0.822449	0.377211	0.335148
O83	O	0.322424	-0.122728	0.165116
O84	O	0.822424	0.377272	0.665116
C85	C	0.676868	0.048803	0.000126
C86	C	1.176868	0.548803	0.500126
C87	C	0.675640	0.151170	0.000126
C88	C	1.175640	0.651170	0.500126
C89	C	0.776997	-0.112125	0.000133
C90	C	1.276997	0.387875	0.500133
C91	C	0.840222	-0.113346	0.000139
C92	C	1.340222	0.386654	0.500139
C93	C	0.668896	-0.288490	0.000104
C94	C	1.168896	0.211510	0.500104
C95	C	0.670124	-0.390856	0.000097
C96	C	1.170124	0.109144	0.500097
N97	N	0.672872	-0.119831	0.254971
N98	N	1.172872	0.380169	0.754971
C99	C	0.671120	0.526011	0.000100
C100	C	1.171120	1.026011	0.500100
C101	C	0.672375	0.421718	0.000107
C102	C	1.172375	0.921718	0.500107
C103	C	0.673380	0.338594	0.000114
C104	C	1.173380	0.838594	0.500114
C105	C	0.674635	0.234294	0.000120
C106	C	1.174635	0.734294	0.500120
N107	N	0.672896	-0.119848	-0.254740
N108	N	1.172896	0.380152	0.245260
C109	C	0.672887	-0.119849	0.656262
C110	C	1.172887	0.380151	1.156262
C111	C	0.672881	-0.119847	0.544611
C112	C	1.172881	0.380153	1.044611
C113	C	0.672880	-0.119841	0.455621
C114	C	1.172880	0.380159	0.955621
C115	C	0.672874	-0.119837	0.343962
C116	C	1.172874	0.380163	0.843962
H117	H	0.392268	-0.124118	0.161893
H118	H	0.892268	0.375882	0.661893
C119	C	0.235257	-0.121030	-0.276329
C120	C	0.735257	0.378970	0.223671
N121	N	0.259858	-0.121512	-0.350222
N122	N	0.759858	0.378488	0.149778
C123	C	0.110532	-0.118615	0.276567
C124	C	0.610532	0.381385	0.776567
N125	N	0.085937	-0.118153	0.350466
N126	N	0.585937	0.381847	0.850466
C127	C	-0.037995	-0.115710	0.187409
C128	C	0.462005	0.384290	0.687409
N129	N	-0.013393	-0.116181	0.261301
N130	N	0.486607	0.383819	0.761301
H131	H	-0.154256	-0.113476	-0.161648
H132	H	0.345744	0.386524	0.338352
C133	C	-0.038011	-0.115727	-0.187144
C134	C	0.461989	0.384273	0.312856
N135	N	-0.013414	-0.116211	-0.261040
N136	N	0.486586	0.383789	0.238960
H137	H	0.119012	-0.118765	-0.250844
H138	H	0.619012	0.381235	0.249156
C139	C	0.508511	-0.126397	-0.187175
C140	C	1.008511	0.373603	0.312825
N141	N	0.533127	-0.126867	-0.261052
N142	N	1.033127	0.373133	0.238948
C143	C	-0.162746	-0.113273	0.187405
C144	C	0.337254	0.386727	0.687405
N145	N	-0.187360	-0.112781	0.261283
N146	N	0.312640	0.387219	0.761283
H147	H	0.500025	-0.126233	0.161876
H148	H	1.000025	0.373767	0.661876
C149	C	0.383756	-0.123971	-0.187175
C150	C	0.883756	0.376029	0.312825
N151	N	0.359150	-0.123489	-0.261063
N152	N	0.859150	0.376511	0.238937
C153	C	0.235258	-0.121033	0.276558
C154	C	0.735258	0.378967	0.776558
N155	N	0.259859	-0.121499	0.350452
N156	N	0.759859	0.378501	0.850452
