data_functionalizedCrystal
_audit_creation_method	'MofGen! by Chris Wilmer'
_symmetry_space_group_name_H-M	'P1'
_symmetry_Int_Tables_number	1
_symmetry_cell_setting	triclinic
loop_
_symmetry_equiv_pos_as_xyz
  x,y,z
_cell_length_a	27.732048
_cell_length_b	27.731996
_cell_length_c	15.500227
_cell_angle_alpha	92.797931
_cell_angle_beta	87.184618
_cell_angle_gamma	82.632022
loop_
_atom_site_label
_atom_site_type_symbol
_atom_site_fract_x
_atom_site_fract_y
_atom_site_fract_z
O1	O	0.643179	0.055261	-0.071843
O2	O	1.143179	0.555261	0.428157
O3	O	0.502385	0.064006	-0.071871
O4	O	1.002385	0.564006	0.428129
O5	O	0.577167	-0.010765	-0.071837
O6	O	1.077167	0.489235	0.428163
O7	O	0.568397	0.130031	-0.071876
O8	O	1.068397	0.630031	0.428124
O9	O	0.572629	-0.006245	0.072050
O10	O	1.072629	0.493755	0.572050
O11	O	0.497847	0.068525	0.072016
O12	O	0.997847	0.568525	0.572016
O13	O	0.638641	0.059780	0.072044
O14	O	1.138641	0.559780	0.572044
Cu15	Cu	0.567830	0.064565	0.085168
Cu16	Cu	1.067830	0.564565	0.585168
Cu17	Cu	0.573196	0.059220	-0.084995
Cu18	Cu	1.073196	0.559220	0.415005
O19	O	0.563859	0.134551	0.072010
O20	O	1.063859	0.634551	0.572010
C21	C	0.482109	0.066082	0.000069
C22	C	0.982109	0.566082	0.500069
C23	C	0.428455	0.065529	0.000060
C24	C	0.928455	0.565529	0.500060
C25	C	0.089631	0.106234	0.000086
C26	C	0.589631	0.606234	0.500086
C27	C	-0.112028	0.104183	0.000094
C28	C	0.387972	0.604183	0.500094
O29	O	-0.143292	0.141406	0.000121
O30	O	0.356708	0.641406	0.500121
N31	N	-0.131144	0.059847	0.000105
N32	N	0.368856	0.559847	0.500105
C33	C	-0.099842	0.016021	0.000119
C34	C	0.400158	0.516021	0.500119
O35	O	-0.120728	-0.021736	0.000138
O36	O	0.379272	0.478264	0.500138
C37	C	0.101816	0.018073	0.000117
C38	C	0.601816	0.518073	0.500117
C39	C	0.120930	0.062411	0.000098
C40	C	0.620930	0.562411	0.500098
C41	C	0.108745	0.150569	0.000067
C42	C	0.608745	0.650569	0.500067
C43	C	0.159157	0.151081	0.000060
C44	C	0.659157	0.651081	0.500060
C45	C	0.190455	0.107258	0.000072
C46	C	0.690455	0.607258	0.500072
C47	C	0.171342	0.062923	0.000091
C48	C	0.671342	0.562923	0.500091
C49	C	0.133118	-0.025753	0.000138
C50	C	0.633118	0.474247	0.500138
C51	C	0.183535	-0.025236	0.000139
C52	C	0.683535	0.474764	0.500139
C53	C	0.202648	0.019103	0.000120
C54	C	0.702648	0.519103	0.500120
C55	C	0.253052	0.019612	0.000096
C56	C	0.753052	0.519612	0.500096
N57	N	0.272168	0.063948	0.000085
N58	N	0.772168	0.563948	0.500085
C59	C	0.240869	0.107771	0.000073
C60	C	0.740869	0.607771	0.500073
C61	C	-0.205716	0.014947	0.000119
C62	C	0.294284	0.514947	0.500119
C63	C	-0.256130	0.014434	0.000118
C64	C	0.243870	0.514434	0.500118
C65	C	-0.268313	0.102597	0.000094
C66	C	0.231687	0.602597	0.500094
C67	C	-0.217898	0.103109	0.000089
C68	C	0.282102	0.603109	0.500089
C69	C	-0.186600	0.059283	0.000108
C70	C	0.313400	0.559283	0.500108
C71	C	0.346739	0.108843	0.000058
C72	C	0.846739	0.608843	0.500058
C73	C	0.397156	0.109352	0.000048
C74	C	0.897156	0.609352	0.500048
C75	C	0.409335	0.021189	0.000076
C76	C	0.909335	0.521189	0.500076
C77	C	0.358922	0.020681	0.000082
C78	C	0.858922	0.520681	0.500082
C79	C	0.327625	0.064512	0.000076
C80	C	0.827625	0.564512	0.500076
O81	O	0.284344	-0.017590	0.000078
O82	O	0.784344	0.482410	0.500078
O83	O	0.261765	0.145524	0.000074
O84	O	0.761765	0.645524	0.500074
C85	C	0.039219	0.105722	0.000093
C86	C	0.539219	0.605722	0.500093
C87	C	0.020105	0.061387	0.000111
C88	C	0.520105	0.561387	0.500111
C89	C	0.051404	0.017564	0.000123
C90	C	0.551404	0.517564	0.500123
C91	C	-0.030309	0.060874	0.000110
C92	C	0.469691	0.560874	0.500110
C93	C	-0.061607	0.104697	0.000098
C94	C	0.438393	0.604697	0.500098
C95	C	-0.042492	0.149033	0.000088
C96	C	0.457508	0.649033	0.500088
C97	C	0.007920	0.149545	0.000081
C98	C	0.507920	0.649545	0.500081
C99	C	0.032288	-0.026772	0.000134
C100	C	0.532288	0.473228	0.500134
C101	C	-0.018124	-0.027280	0.000140
C102	C	0.481876	0.472720	0.500140
C103	C	-0.049423	0.016543	0.000128
C104	C	0.450577	0.516543	0.500128
C105	C	0.574718	-0.026512	0.000109
C106	C	1.074718	0.473488	0.500109
C107	C	0.574175	-0.080168	0.000118
C108	C	1.074175	0.419832	0.500118
C109	C	0.573235	-0.415350	-0.078358
C110	C	1.073235	0.084650	0.421642
C111	C	0.571175	-0.617008	-0.078373
C112	C	1.071175	-0.117008	0.421627
O113	O	0.572991	-0.645174	-0.145078
O114	O	1.072991	-0.145174	0.354922
N115	N	0.568445	-0.639762	0.000058
N116	N	1.068445	-0.139762	0.500058
C117	C	0.566227	-0.612097	0.078500
C118	C	1.066227	-0.112097	0.578500
O119	O	0.563853	-0.636077	0.145211
O120	O	1.063853	-0.136077	0.645211
C121	C	0.568284	-0.410439	0.078514
C122	C	1.068284	0.089561	0.578514
C123	C	0.571019	-0.387689	0.000078
C124	C	1.071019	0.112311	0.500078
C125	C	0.575969	-0.392599	-0.156788
C126	C	1.075969	0.107401	0.343212
C127	C	0.576487	-0.342188	-0.156784
C128	C	1.076487	0.157812	0.343216
C129	C	0.574271	-0.314527	-0.078348
C130	C	1.074271	0.185473	0.421652
C131	C	0.571537	-0.337277	0.000082
C132	C	1.071537	0.162723	0.500082
C133	C	0.566063	-0.382774	0.156955
C134	C	1.066063	0.117226	0.656955
C135	C	0.566576	-0.332357	0.156952
C136	C	1.066576	0.167643	0.656952
C137	C	0.569311	-0.309607	0.078515
C138	C	1.069311	0.190393	0.578515
C139	C	0.569838	-0.259205	0.078522
C140	C	1.069838	0.240795	0.578522
N141	N	0.572568	-0.236452	0.000090
N142	N	1.072568	0.263548	0.500090
C143	C	0.574784	-0.264112	-0.078345
C144	C	1.074784	0.235888	0.421655
C145	C	0.565148	-0.717971	0.078487
C146	C	1.065148	-0.217971	0.578487
C147	C	0.564635	-0.768385	0.078483
C148	C	1.064635	-0.268385	0.578483
C149	C	0.569581	-0.773293	-0.078390
C150	C	1.069581	-0.273293	0.421610
C151	C	0.570098	-0.722878	-0.078386
C152	C	1.070098	-0.222878	0.421614
C153	C	0.567878	-0.695217	0.000055
C154	C	1.067878	-0.195217	0.500055
C155	C	0.575871	-0.158245	-0.078329
C156	C	1.075871	0.341755	0.421671
C157	C	0.576391	-0.107829	-0.078317
C158	C	1.076391	0.392171	0.421683
C159	C	0.571442	-0.102926	0.078555
C160	C	1.071442	0.397074	0.578555
C161	C	0.570925	-0.153337	0.078544
C162	C	1.070925	0.346663	0.578544
C163	C	0.573138	-0.180996	0.000095
C164	C	1.073138	0.319004	0.500095
O165	O	0.568018	-0.231008	0.145192
O166	O	1.068018	0.268992	0.645192
O167	O	0.577147	-0.240122	-0.145046
O168	O	1.077147	0.259878	0.354954
C169	C	0.572717	-0.465761	-0.078362
C170	C	1.072717	0.034239	0.421638
C171	C	0.569983	-0.488511	0.000068
C172	C	1.069983	0.011489	0.500068
C173	C	0.567767	-0.460850	0.078503
C174	C	1.067767	0.039150	0.578503
C175	C	0.569470	-0.538926	0.000065
C176	C	1.069470	-0.038926	0.500065
C177	C	0.571686	-0.566587	-0.078371
C178	C	1.071686	-0.066587	0.421629
C179	C	0.574416	-0.543833	-0.156802
C180	C	1.074416	-0.043833	0.343198
C181	C	0.574933	-0.493422	-0.156798
C182	C	1.074933	0.006578	0.343202
C183	C	0.565038	-0.483604	0.156935
C184	C	1.065038	0.016396	0.656935
C185	C	0.564521	-0.534016	0.156924
C186	C	1.064521	-0.034016	0.656924
C187	C	0.566737	-0.561676	0.078489
C188	C	1.066737	-0.061676	0.578489
C189	C	0.658917	0.057704	0.000102
C190	C	1.158917	0.557704	0.500102
C191	C	0.712571	0.058257	0.000106
C192	C	1.212571	0.558257	0.500106
C193	C	0.566308	0.150298	0.000062
C194	C	1.066308	0.650298	0.500062
C195	C	0.566851	0.203954	0.000048
C196	C	1.066851	0.703954	0.500048
N197	N	0.564059	0.068324	0.204851
N198	N	1.064059	0.568324	0.704851
N199	N	0.576971	0.055458	-0.204678
N200	N	1.076971	0.555458	0.295322
C201	C	0.595757	0.036653	0.250142
C202	C	1.095757	0.536653	0.750142
C203	C	0.592910	0.039500	0.340714
C204	C	1.092910	0.539500	0.840714
C205	C	0.558365	0.074022	0.385993
C206	C	1.058365	0.574022	0.885993
C207	C	0.526663	0.105694	0.340696
C208	C	1.026663	0.605694	0.840696
C209	C	0.529509	0.102844	0.250126
C210	C	1.029509	0.602844	0.750126
C211	C	0.548115	0.084280	0.659455
C212	C	1.048115	0.584280	1.159455
C213	C	0.545272	0.087129	0.750031
C214	C	1.045272	0.587129	1.250031
C215	C	0.611518	0.020934	0.750043
C216	C	1.111518	0.520934	1.250043
C217	C	0.614363	0.018089	0.659471
C218	C	1.114363	0.518089	1.159471
C219	C	0.582659	0.049760	0.614182
C220	C	1.082659	0.549760	1.114182
C221	C	0.555455	0.076934	0.478571
C222	C	1.055455	0.576934	0.978571
C223	C	0.585568	0.046845	0.521605
C224	C	1.085568	0.546845	1.021605
H225	H	-0.271687	-0.021671	0.000120
H226	H	0.228313	0.478329	0.500120
O227	O	0.508007	0.124358	0.798874
O228	O	1.008007	0.624358	1.298874
H229	H	0.486434	0.145899	0.752166
H230	H	0.986434	0.645899	1.252166
O231	O	0.579427	-0.317657	-0.241390
O232	O	1.079427	0.182343	0.258610
H233	H	0.612741	-0.299366	-0.245154
H234	H	1.112741	0.200634	0.254846
O235	O	0.338302	-0.027139	0.000100
O236	O	0.838302	0.472861	0.500100
H237	H	0.368538	-0.057526	0.000111
H238	H	0.868538	0.442474	0.500111
H239	H	0.618721	0.013711	0.377589
H240	H	1.118721	0.513711	0.877589
O241	O	0.518203	0.114171	0.527415
O242	O	1.018203	0.614171	1.027415
H243	H	0.481113	0.107727	0.510054
H244	H	0.981113	0.607727	1.010054
H245	H	0.637330	-0.004852	0.786926
H246	H	1.137330	0.495148	1.286926
O247	O	0.578260	-0.188073	-0.162940
O248	O	1.078260	0.311927	0.337060
H249	H	0.545182	-0.206596	-0.166711
H250	H	1.045182	0.293404	0.333289
O251	O	0.179763	0.198907	0.000064
O252	O	0.679763	0.698907	0.500064
H253	H	0.169005	0.218110	-0.058577
H254	H	0.669005	0.718110	0.441423
H255	H	0.562416	-0.786905	0.142354
H256	H	1.062416	-0.286905	0.642354
H257	H	-0.202340	0.139213	0.000078
H258	H	0.297660	0.639213	0.500078
O259	O	0.651627	-0.019145	0.610650
O260	O	1.151627	0.480855	1.110650
H261	H	0.676262	-0.000252	0.569383
H262	H	1.176262	0.499748	1.069383
O263	O	0.578355	-0.422422	-0.241401
O264	O	1.078355	0.077578	0.258599
H265	H	0.611196	-0.450068	-0.245163
H266	H	1.111196	0.049932	0.254837
H267	H	-0.033681	-0.063389	0.000149
H268	H	0.466319	0.436611	0.500149
O269	O	0.571959	-0.803136	-0.162985
O270	O	1.071959	-0.303136	0.337015
H271	H	0.540279	-0.790077	-0.200586
H272	H	1.040279	-0.290077	0.299414
H273	H	0.623889	0.008544	0.213282
H274	H	1.123889	0.508544	0.713282
H275	H	0.412715	0.145459	0.000031
H276	H	0.912715	0.645459	0.500031
O277	O	0.513926	0.118442	0.610611
O278	O	1.013926	0.618442	1.110611
H279	H	0.489433	0.142929	0.657315
H280	H	0.989433	0.642929	1.157315
H281	H	0.498534	0.133801	0.377567
H282	H	0.998534	0.633801	0.877567
O283	O	-0.076258	0.196298	0.000082
O284	O	0.423742	0.696298	0.500082
H285	H	-0.067669	0.215695	-0.058572
H286	H	0.432331	0.715695	0.441428
H287	H	0.563343	-0.695454	0.142366
H288	H	1.063343	-0.195454	0.642366
O289	O	0.312986	0.156116	0.000044
O290	O	0.812986	0.656116	0.500044
H291	H	0.334754	0.187027	0.000022
H292	H	0.834754	0.687027	0.500022
O293	O	0.563109	-0.407304	0.241555
O294	O	1.063109	0.092696	0.741555
H295	H	0.561647	-0.379592	0.296088
H296	H	1.061647	0.120408	0.796088
O297	O	0.569054	-0.073087	0.163152
O298	O	1.069054	0.426913	0.663152
H299	H	0.536209	-0.045446	0.166894
H300	H	1.036209	0.454554	0.666894
O301	O	0.495323	0.137006	0.201269
O302	O	0.995323	0.637006	0.701269
H303	H	0.470827	0.161493	0.247969
H304	H	0.970827	0.661493	0.747969
O305	O	0.622815	0.009605	0.472765
O306	O	1.122815	0.509605	0.972765
H307	H	0.647448	0.028490	0.431481
H308	H	1.147448	0.528490	0.931481
O309	O	0.564187	-0.302522	0.241557
O310	O	1.064187	0.197478	0.741557
H311	H	0.562205	-0.326816	0.296092
H312	H	1.062205	0.173184	0.796092
H313	H	0.083266	0.186257	0.000061
H314	H	0.583266	0.686257	0.500061
O315	O	0.443096	-0.026076	0.000101
O316	O	0.943096	0.473924	0.500101
H317	H	0.481361	-0.018266	0.000107
H318	H	0.981361	0.481734	0.500107
O319	O	0.112513	-0.073577	0.000177
O320	O	0.612513	0.426423	0.500177
H321	H	0.126963	-0.096465	-0.058452
H322	H	0.626963	0.403535	0.441548
O323	O	0.567977	-0.177880	0.163140
O324	O	1.067977	0.322120	0.663140
H325	H	0.566521	-0.150174	0.217681
H326	H	1.066521	0.349826	0.717681
O327	O	0.217292	-0.072507	0.000166
O328	O	0.717292	0.427493	0.500166
H329	H	0.242401	-0.076228	-0.058477
H330	H	0.742401	0.423772	0.441523
O331	O	0.028533	0.197368	0.000077
O332	O	0.528533	0.697368	0.500077
H333	H	-0.001708	0.227751	0.000082
H334	H	0.498292	0.727751	0.500082
H335	H	-0.293805	0.138279	0.000085
H336	H	0.206195	0.638279	0.500085
H337	H	0.577160	-0.474903	-0.220669
H338	H	1.077160	0.025097	0.279331
H339	H	-0.180237	-0.020743	0.000134
H340	H	0.319763	0.479257	0.500134
O341	O	0.066043	-0.074041	0.000149
O342	O	0.566043	0.425959	0.500149
H343	H	0.061131	-0.097115	-0.058494
H344	H	0.561131	0.402885	0.441506
O345	O	0.579334	-0.083289	-0.162920
O346	O	1.079334	0.416711	0.337080
H347	H	0.580781	-0.110996	-0.217459
H348	H	1.080781	0.389004	0.282541
H349	H	0.572324	-0.704358	-0.142256
H350	H	1.072324	-0.204358	0.357744
O351	O	0.576802	-0.573671	-0.241404
O352	O	1.076802	-0.073671	0.258596
H353	H	0.575978	-0.612547	-0.228220
H354	H	1.075978	-0.112547	0.271780
H355	H	0.562298	-0.552534	0.220802
H356	H	1.062298	-0.052534	0.720802
O357	O	0.562656	-0.453773	0.241537
O358	O	1.062656	0.046227	0.741537
H359	H	0.560677	-0.478070	0.296068
H360	H	1.060677	0.021930	0.796068
