data_functionalizedCrystal
_audit_creation_method	'MofGen! by Chris Wilmer'
_symmetry_space_group_name_H-M	'P1'
_symmetry_Int_Tables_number	1
_symmetry_cell_setting	triclinic
loop_
_symmetry_equiv_pos_as_xyz
  x,y,z
_cell_length_a	27.732048
_cell_length_b	27.732064
_cell_length_c	9.482900
_cell_angle_alpha	99.261060
_cell_angle_beta	80.794297
_cell_angle_gamma	82.646039
loop_
_atom_site_label
_atom_site_type_symbol
_atom_site_fract_x
_atom_site_fract_y
_atom_site_fract_z
O1	O	0.648508	0.049904	-0.120695
O2	O	0.981842	0.383238	0.212638
O3	O	1.315175	0.716571	0.545971
O4	O	0.507718	0.058647	-0.120737
O5	O	0.841051	0.391980	0.212596
O6	O	1.174385	0.725314	0.545929
O7	O	0.582482	-0.016121	-0.120721
O8	O	0.915815	0.317212	0.212613
O9	O	1.249149	0.650546	0.545946
O10	O	0.573744	0.124672	-0.120712
O11	O	0.907078	0.458005	0.212621
O12	O	1.240411	0.791339	0.545955
O13	O	0.567295	-0.000873	0.121068
O14	O	0.900628	0.332460	0.454402
O15	O	1.233962	0.665793	0.787735
O16	O	0.492531	0.073894	0.121052
O17	O	0.825865	0.407228	0.454385
O18	O	1.159198	0.740561	0.787718
O19	O	0.633321	0.065152	0.121094
O20	O	0.966655	0.398485	0.454427
O21	O	1.299988	0.731818	0.787761
Cu22	Cu	0.561540	0.070915	0.143150
Cu23	Cu	0.894873	0.404249	0.476483
Cu24	Cu	1.228206	0.737582	0.809817
Cu25	Cu	0.579500	0.052883	-0.142794
Cu26	Cu	0.912833	0.386217	0.190540
Cu27	Cu	1.246166	0.719550	0.523873
O28	O	0.558558	0.139920	0.121077
O29	O	0.891891	0.473253	0.454411
O30	O	1.225224	0.806586	0.787744
C31	C	0.482118	0.066087	0.000152
C32	C	0.815451	0.399420	0.333485
C33	C	1.148785	0.732753	0.666818
C34	C	0.428464	0.065533	0.000135
C35	C	0.761797	0.398866	0.333468
C36	C	1.095131	0.732200	0.666802
C37	C	0.574704	-0.026504	0.000169
C38	C	0.908038	0.306829	0.333503
C39	C	1.241371	0.640163	0.666836
C40	C	0.574149	-0.080159	0.000156
C41	C	0.907482	0.253174	0.333489
C42	C	1.240816	0.586507	0.666822
C43	C	0.526183	-0.457233	0.000136
C44	C	0.859516	-0.123900	0.333469
C45	C	1.192850	0.209433	0.666802
C46	C	0.528229	-0.255573	0.000134
C47	C	0.861563	0.077760	0.333468
C48	C	1.194896	0.411093	0.666801
O49	O	0.491013	-0.224325	0.000065
O50	O	0.824346	0.109008	0.333398
O51	O	1.157679	0.442342	0.666732
N52	N	0.572563	-0.236445	0.000147
N53	N	0.905896	0.096888	0.333481
N54	N	1.239230	0.430222	0.666814
C55	C	0.616389	-0.267736	0.000151
C56	C	0.949722	0.065597	0.333485
C57	C	1.283055	0.398931	0.666818
O58	O	0.654145	-0.246840	0.000147
O59	O	0.987478	0.086494	0.333481
O60	O	1.320811	0.419827	0.666814
C61	C	0.614342	-0.469396	0.000142
C62	C	0.947676	-0.136062	0.333475
C63	C	1.281009	0.197271	0.666809
C64	C	0.570005	-0.488520	0.000144
C65	C	0.903338	-0.155187	0.333477
C66	C	1.236672	0.178147	0.666810
C67	C	0.481850	-0.476358	0.000136
C68	C	0.815183	-0.143025	0.333469
C69	C	1.148516	0.190308	0.666802
C70	C	0.481338	-0.526770	0.000144
C71	C	0.814671	-0.193437	0.333477
C72	C	1.148005	0.139897	0.666810
C73	C	0.525160	-0.558057	0.000152
C74	C	0.858493	-0.224723	0.333485
C75	C	1.191827	0.108610	0.666819
C76	C	0.569494	-0.538932	0.000152
C77	C	0.902827	-0.205598	0.333485
C78	C	1.236160	0.127735	0.666819
C79	C	0.658168	-0.500686	0.000136
C80	C	0.991501	-0.167353	0.333469
C81	C	1.324835	0.165980	0.666802
C82	C	0.657653	-0.551104	0.000130
C83	C	0.990986	-0.217771	0.333463
C84	C	1.324320	0.115563	0.666796
C85	C	0.613316	-0.570228	0.000131
C86	C	0.946649	-0.236895	0.333465
C87	C	1.279982	0.096438	0.666798
C88	C	0.612804	-0.620630	0.000168
C89	C	0.946137	-0.287297	0.333502
C90	C	1.279471	0.046037	0.666835
N91	N	0.568470	-0.639758	0.000155
N92	N	0.901804	-0.306425	0.333489
N93	N	1.235137	0.026909	0.666822
C94	C	0.524648	-0.608472	0.000147
C95	C	0.857982	-0.275138	0.333480
C96	C	1.191315	0.058195	0.666814
C97	C	0.617459	-0.161861	0.000159
C98	C	0.950793	0.171472	0.333492
C99	C	1.284126	0.504806	0.666826
C100	C	0.617971	-0.111446	0.000164
C101	C	0.951304	0.221887	0.333497
C102	C	1.284638	0.555221	0.666830
C103	C	0.529812	-0.099287	0.000144
C104	C	0.863145	0.234046	0.333477
C105	C	1.196479	0.567380	0.666811
C106	C	0.529300	-0.149702	0.000150
C107	C	0.862634	0.183631	0.333483
C108	C	1.195967	0.516964	0.666816
C109	C	0.573126	-0.180989	0.000146
C110	C	0.906459	0.152344	0.333479
C111	C	1.239793	0.485677	0.666812
C112	C	0.523577	-0.714340	0.000166
C113	C	0.856911	-0.381007	0.333499
C114	C	1.190244	-0.047673	0.666832
C115	C	0.523069	-0.764756	0.000180
C116	C	0.856403	-0.431423	0.333513
C117	C	1.189736	-0.098089	0.666847
C118	C	0.611228	-0.776911	0.000192
C119	C	0.944562	-0.443578	0.333525
C120	C	1.277895	-0.110244	0.666859
C121	C	0.611736	-0.726499	0.000185
C122	C	0.945070	-0.393166	0.333519
C123	C	1.278403	-0.059832	0.666852
C124	C	0.567907	-0.695214	0.000167
C125	C	0.901240	-0.361881	0.333501
C126	C	1.234574	-0.028548	0.666834
O127	O	0.650002	-0.651907	0.000221
O128	O	0.983335	-0.318574	0.333555
O129	O	1.316668	0.014759	0.666888
O130	O	0.486900	-0.629379	0.000119
O131	O	0.820233	-0.296046	0.333452
O132	O	1.153566	0.037288	0.666785
C133	C	0.526695	-0.406822	0.000127
C134	C	0.860028	-0.073489	0.333461
C135	C	1.193361	0.259845	0.666794
C136	C	0.571028	-0.387697	0.000127
C137	C	0.904362	-0.054364	0.333461
C138	C	1.237695	0.278970	0.666794
C139	C	0.614850	-0.418983	0.000135
C140	C	0.948184	-0.085650	0.333469
C141	C	1.281517	0.247683	0.666802
C142	C	0.571540	-0.337282	0.000132
C143	C	0.904873	-0.003949	0.333465
C144	C	1.238206	0.329385	0.666799
C145	C	0.527718	-0.305995	0.000124
C146	C	0.861051	0.027338	0.333457
C147	C	1.194385	0.360671	0.666791
C148	C	0.483384	-0.325124	0.000111
C149	C	0.816718	0.008210	0.333444
C150	C	1.150051	0.341543	0.666778
C151	C	0.482873	-0.375535	0.000119
C152	C	0.816206	-0.042202	0.333452
C153	C	1.149539	0.291131	0.666786
C154	C	0.659184	-0.399855	0.000149
C155	C	0.992517	-0.066522	0.333482
C156	C	1.325850	0.266811	0.666815
C157	C	0.659692	-0.349443	0.000142
C158	C	0.993025	-0.016110	0.333475
C159	C	1.326358	0.317224	0.666809
C160	C	0.615870	-0.318156	0.000134
C161	C	0.949203	0.015177	0.333467
C162	C	1.282536	0.348510	0.666800
C163	C	0.089647	0.106241	0.000200
C164	C	0.422981	0.439574	0.333534
C165	C	0.756314	0.772907	0.666867
C166	C	-0.112013	0.104190	0.000213
C167	C	0.221320	0.437524	0.333547
C168	C	0.554653	0.770857	0.666880
O169	O	-0.143271	0.141415	0.000279
O170	O	0.190063	0.474748	0.333612
O171	O	0.523396	0.808082	0.666945
N172	N	-0.131139	0.059855	0.000208
N173	N	0.202194	0.393188	0.333541
N174	N	0.535527	0.726522	0.666875
C175	C	-0.099847	0.016030	0.000209
C176	C	0.233486	0.349363	0.333542
C177	C	0.566819	0.682697	0.666876
O178	O	-0.120743	-0.021726	0.000220
O179	O	0.212590	0.311607	0.333553
O180	O	0.545923	0.644941	0.666886
C181	C	0.101812	0.018081	0.000207
C182	C	0.435145	0.351415	0.333540
C183	C	0.768478	0.684748	0.666873
C184	C	0.120936	0.062418	0.000197
C185	C	0.454269	0.395752	0.333530
C186	C	0.787602	0.729085	0.666864
C187	C	0.108772	0.150574	0.000193
C188	C	0.442105	0.483907	0.333526
C189	C	0.775438	0.817241	0.666859
C190	C	0.159184	0.151086	0.000182
C191	C	0.492518	0.484419	0.333515
C192	C	0.825851	0.817752	0.666848
C193	C	0.190473	0.107264	0.000178
C194	C	0.523806	0.440597	0.333512
C195	C	0.857139	0.773930	0.666845
C196	C	0.171348	0.062930	0.000186
C197	C	0.504682	0.396263	0.333519
C198	C	0.838015	0.729597	0.666853
C199	C	0.133102	-0.025743	0.000218
C200	C	0.466435	0.307591	0.333551
C201	C	0.799769	0.640924	0.666885
C202	C	0.183519	-0.025226	0.000221
C203	C	0.516852	0.308108	0.333554
C204	C	0.850186	0.641441	0.666888
C205	C	0.202643	0.019111	0.000212
C206	C	0.535976	0.352445	0.333545
C207	C	0.869310	0.685778	0.666878
C208	C	0.253049	0.019620	0.000171
C209	C	0.586383	0.352953	0.333505
C210	C	0.919716	0.686286	0.666838
N211	N	0.272175	0.063955	0.000177
N212	N	0.605509	0.397288	0.333510
N213	N	0.938842	0.730621	0.666843
C214	C	0.240887	0.107777	0.000180
C215	C	0.574220	0.441110	0.333514
C216	C	0.907554	0.774443	0.666847
C217	C	-0.205721	0.014956	0.000207
C218	C	0.127612	0.348289	0.333541
C219	C	0.460945	0.681623	0.666874
C220	C	-0.256136	0.014443	0.000205
C221	C	0.077198	0.347776	0.333539
C222	C	0.410531	0.681110	0.666872
C223	C	-0.268298	0.102604	0.000212
C224	C	0.065035	0.435937	0.333546
C225	C	0.398368	0.769270	0.666879
C226	C	-0.217882	0.103116	0.000204
C227	C	0.115451	0.436449	0.333537
C228	C	0.448784	0.769782	0.666871
C229	C	-0.186595	0.059291	0.000213
C230	C	0.146738	0.392624	0.333546
C231	C	0.480071	0.725958	0.666879
C232	C	0.346758	0.108848	0.000156
C233	C	0.680091	0.442181	0.333489
C234	C	1.013424	0.775514	0.666822
C235	C	0.397176	0.109355	0.000138
C236	C	0.730509	0.442688	0.333472
C237	C	1.063843	0.776022	0.666805
C238	C	0.409334	0.021195	0.000139
C239	C	0.742667	0.354528	0.333472
C240	C	1.076000	0.687862	0.666806
C241	C	0.358920	0.020687	0.000148
C242	C	0.692254	0.354020	0.333482
C243	C	1.025587	0.687354	0.666815
C244	C	0.327633	0.064518	0.000162
C245	C	0.660966	0.397851	0.333495
C246	C	0.994300	0.731184	0.666828
O247	O	0.284334	-0.017584	0.000123
O248	O	0.617667	0.315749	0.333456
O249	O	0.951001	0.649083	0.666789
O250	O	0.261790	0.145529	0.000202
O251	O	0.595124	0.478863	0.333535
O252	O	0.928457	0.812196	0.666868
C253	C	0.039235	0.105729	0.000212
C254	C	0.372568	0.439062	0.333545
C255	C	0.705901	0.772396	0.666878
C256	C	0.020110	0.061395	0.000219
C257	C	0.353444	0.394729	0.333553
C258	C	0.686777	0.728062	0.666886
C259	C	0.051399	0.017573	0.000216
C260	C	0.384732	0.350907	0.333549
C261	C	0.718065	0.684240	0.666883
C262	C	-0.030304	0.060882	0.000217
C263	C	0.303029	0.394216	0.333551
C264	C	0.636363	0.727549	0.666884
C265	C	-0.061592	0.104704	0.000221
C266	C	0.271741	0.438038	0.333554
C267	C	0.605074	0.771371	0.666887
C268	C	-0.042466	0.149039	0.000226
C269	C	0.290867	0.482373	0.333559
C270	C	0.624200	0.815706	0.666893
C271	C	0.007946	0.149551	0.000215
C272	C	0.341280	0.482884	0.333548
C273	C	0.674613	0.816218	0.666882
C274	C	0.032272	-0.026762	0.000211
C275	C	0.365606	0.306571	0.333544
C276	C	0.698939	0.639905	0.666877
C277	C	-0.018141	-0.027270	0.000220
C278	C	0.315193	0.306063	0.333554
C279	C	0.648526	0.639397	0.666887
C280	C	-0.049429	0.016552	0.000224
C281	C	0.283904	0.349885	0.333557
C282	C	0.617238	0.683219	0.666890
C283	C	0.658922	0.057712	0.000202
C284	C	0.992255	0.391045	0.333535
C285	C	1.325588	0.724378	0.666868
C286	C	0.712576	0.058265	0.000209
C287	C	1.045909	0.391598	0.333542
C288	C	1.379243	0.724932	0.666875
C289	C	0.566335	0.150303	0.000184
C290	C	0.899669	0.483636	0.333517
C291	C	1.233002	0.816969	0.666851
C292	C	0.566891	0.203957	0.000188
C293	C	0.900224	0.537291	0.333522
C294	C	1.233558	0.870624	0.666855
N295	N	0.548911	0.083598	0.344267
N296	N	0.882244	0.416931	0.677601
N297	N	1.215578	0.750264	1.010934
N298	N	0.592132	0.040197	-0.343911
N299	N	0.925466	0.373530	-0.010578
N300	N	1.258799	0.706864	0.322756
C301	C	0.575771	0.056622	0.416473
C302	C	0.909105	0.389955	0.749806
C303	C	1.242438	0.723288	1.083139
C304	C	0.565268	0.067177	0.583888
C305	C	0.898601	0.400511	0.917221
C306	C	1.231934	0.733844	1.250554
H307	H	0.486963	-0.780324	0.000188
H308	H	0.820296	-0.446990	0.333521
H309	H	1.153629	-0.113657	0.666855
C310	C	0.666741	-0.090414	0.000176
C311	C	1.000074	0.242920	0.333510
C312	C	1.333408	0.576253	0.666843
H313	H	0.692765	-0.116272	0.000166
H314	H	1.026098	0.217061	0.333500
H315	H	1.359431	0.550394	0.666833
H316	H	0.663482	-0.065682	0.084492
H317	H	0.996816	0.267651	0.417825
H318	H	1.330149	0.600985	0.751159
H319	H	0.674069	-0.076320	-0.084153
H320	H	1.007402	0.257014	0.249180
H321	H	1.340736	0.590347	0.582514
H322	H	-0.202316	0.139219	0.000205
H323	H	0.131017	0.472553	0.333538
H324	H	0.464351	0.805886	0.666871
C325	C	-0.277167	-0.034328	0.000190
C326	C	0.056166	0.299005	0.333523
C327	C	0.389499	0.632339	0.666856
H328	H	-0.311673	-0.028363	0.000176
H329	H	0.021660	0.304970	0.333510
H330	H	0.354994	0.638304	0.666843
H331	H	-0.271698	-0.047039	0.084503
H332	H	0.061636	0.286294	0.417837
H333	H	0.394969	0.619627	0.751170
H334	H	-0.261110	-0.057670	-0.084142
H335	H	0.072224	0.275663	0.249192
H336	H	0.405557	0.608997	0.582525
H337	H	0.117540	-0.061847	0.000227
H338	H	0.450874	0.271487	0.333560
H339	H	0.784207	0.604820	0.666893
H340	H	0.622905	0.009283	0.593971
H341	H	0.956238	0.342617	0.927305
H342	H	1.289572	0.675950	1.260638
C343	C	0.507332	0.125349	0.428172
C344	C	0.840666	0.458682	0.761505
C345	C	1.173999	0.792015	1.094838
H346	H	0.491838	0.140900	0.361161
H347	H	0.825172	0.474234	0.694494
H348	H	1.158505	0.807567	1.027828
H349	H	0.520918	0.149023	0.487561
H350	H	0.854251	0.482357	0.820894
H351	H	1.187584	0.815690	1.154228
H352	H	0.483581	0.111874	0.487538
H353	H	0.816914	0.445208	0.820872
H354	H	1.150247	0.778541	1.154205
H355	H	-0.033705	-0.063378	0.000216
H356	H	0.299628	0.269955	0.333550
H357	H	0.632961	0.603289	0.666883
C358	C	0.434103	-0.396567	0.000104
C359	C	0.767436	-0.063233	0.333437
C360	C	1.100769	0.270100	0.666771
H361	H	0.408082	-0.370709	0.000085
H362	H	0.741415	-0.037375	0.333418
H363	H	1.074748	0.295958	0.666751
H364	H	0.426770	-0.410663	0.084418
H365	H	0.760103	-0.077330	0.417751
H366	H	1.093437	0.256003	0.751084
H367	H	0.437365	-0.421297	-0.084227
H368	H	0.770698	-0.087964	0.249106
H369	H	1.104032	0.245370	0.582439
H370	H	0.083301	0.186262	0.000201
H371	H	0.416634	0.519595	0.333534
H372	H	0.749967	0.852928	0.666867
C373	C	0.523695	0.108937	0.667793
C374	C	0.857028	0.442270	1.001126
C375	C	1.190362	0.775604	1.334460
H376	H	0.522091	0.110556	0.769307
H377	H	0.855425	0.443889	1.102641
H378	H	1.188758	0.777223	1.435974
H379	H	0.493001	0.102444	0.642929
H380	H	0.826334	0.435778	0.976263
H381	H	1.159668	0.769111	1.309596
H382	H	0.530353	0.139578	0.642922
H383	H	0.863686	0.472911	0.976255
H384	H	1.197020	0.806245	1.309589
C385	C	0.475366	-0.679933	0.000157
C386	C	0.808699	-0.346600	0.333491
C387	C	1.142032	-0.013267	0.666824
H388	H	0.448892	-0.698549	0.000172
H389	H	0.782225	-0.365216	0.333505
H390	H	1.115558	-0.031883	0.666838
H391	H	0.479021	-0.665331	-0.084159
H392	H	0.812354	-0.331997	0.249174
H393	H	1.145688	0.001336	0.582508
H394	H	0.468437	-0.654696	0.084486
H395	H	0.801770	-0.321363	0.417819
H396	H	1.135103	0.011970	0.751153
C397	C	0.432568	-0.547802	0.000125
C398	C	0.765901	-0.214469	0.333458
C399	C	1.099235	0.118865	0.666792
H400	H	0.406547	-0.521944	0.000104
H401	H	0.739881	-0.188611	0.333437
H402	H	1.073214	0.144723	0.666771
H403	H	0.425235	-0.561899	0.084437
H404	H	0.758568	-0.228566	0.417771
H405	H	1.091901	0.104768	0.751104
H406	H	0.435832	-0.572532	-0.084208
H407	H	0.769165	-0.239199	0.249126
H408	H	1.102498	0.094135	0.582459
C409	C	0.418212	0.158126	0.000128
C410	C	0.751545	0.491460	0.333461
C411	C	1.084878	0.824793	0.666794
H412	H	0.452719	0.152157	0.000106
H413	H	0.786053	0.485490	0.333440
H414	H	1.119386	0.818824	0.666773
H415	H	0.402159	0.181472	0.084445
H416	H	0.735492	0.514805	0.417778
H417	H	1.068825	0.848139	0.751112
H418	H	0.412741	0.170833	-0.084200
H419	H	0.746074	0.504166	0.249133
H420	H	1.079407	0.837500	0.582467
C421	C	0.665670	-0.196270	0.000174
C422	C	0.999003	0.137064	0.333507
C423	C	1.332337	0.470397	0.666841
H424	H	0.692142	-0.177651	0.000199
H425	H	1.025475	0.155682	0.333532
H426	H	1.358808	0.489015	0.666865
H427	H	0.672605	-0.221508	-0.084140
H428	H	1.005938	0.111825	0.249193
H429	H	1.339271	0.445158	0.582527
H430	H	0.662007	-0.210869	0.084505
H431	H	0.995340	0.122464	0.417838
H432	H	1.328674	0.455798	0.751172
H433	H	0.446163	-0.450890	0.000124
H434	H	0.779496	-0.117556	0.333457
H435	H	1.112829	0.215777	0.666791
H436	H	0.321289	0.144539	0.000171
H437	H	0.654622	0.477872	0.333504
H438	H	0.987955	0.811206	0.666838
C439	C	0.480531	-0.170736	0.000130
C440	C	0.813865	0.162597	0.333463
C441	C	1.147198	0.495931	0.666797
H442	H	0.454509	-0.144879	0.000116
H443	H	0.787842	0.188454	0.333450
H444	H	1.121176	0.521788	0.666783
H445	H	0.473200	-0.184836	0.084439
H446	H	0.806534	0.148498	0.417772
H447	H	1.139867	0.481831	0.751105
H448	H	0.483795	-0.195465	-0.084206
H449	H	0.817129	0.137869	0.249127
H450	H	1.150462	0.471202	0.582460
C451	C	0.028975	0.198323	0.000219
C452	C	0.362309	0.531656	0.333553
C453	C	0.695642	0.864990	0.666886
H454	H	0.003115	0.224346	0.000236
H455	H	0.336448	0.557679	0.333569
H456	H	0.669781	0.891012	0.666903
H457	H	0.053682	0.195044	-0.084096
H458	H	0.387015	0.528377	0.249237
H459	H	0.720349	0.861711	0.582571
H460	H	0.043094	0.205675	0.084549
H461	H	0.376427	0.539008	0.417882
H462	H	0.709761	0.872342	0.751216
H463	H	0.606542	0.025710	0.354351
H464	H	0.939876	0.359043	0.687685
H465	H	1.273209	0.692376	1.021018
C466	C	0.481610	-0.064867	0.000115
C467	C	0.814943	0.268466	0.333448
C468	C	1.148277	0.601799	0.666782
H469	H	0.488270	-0.032105	0.000103
H470	H	0.821603	0.301228	0.333436
H471	H	1.154936	0.634561	0.666770
H472	H	0.458113	-0.065308	0.084416
H473	H	0.791446	0.268025	0.417750
H474	H	1.124779	0.601358	0.751083
H475	H	0.468718	-0.075950	-0.084229
H476	H	0.802051	0.257384	0.249105
H477	H	1.135385	0.590717	0.582438
H478	H	0.174750	0.187189	0.000173
H479	H	0.508083	0.520523	0.333507
H480	H	0.841417	0.853856	0.666840
H481	H	0.694272	-0.485125	0.000133
H482	H	1.027606	-0.151791	0.333467
H483	H	1.360939	0.181542	0.666800
H484	H	0.693343	-0.576577	0.000119
H485	H	1.026676	-0.243243	0.333452
H486	H	1.360009	0.090090	0.666785
C487	C	0.660505	-0.705460	0.000201
C488	C	0.993838	-0.372126	0.333534
C489	C	1.327171	-0.038793	0.666868
H490	H	0.686530	-0.731315	0.000204
H491	H	1.019863	-0.397982	0.333537
H492	H	1.353196	-0.064649	0.666871
H493	H	0.657243	-0.680725	0.084510
H494	H	0.990576	-0.347391	0.417843
H495	H	1.323909	-0.014058	0.751177
H496	H	0.667833	-0.691369	-0.084135
H497	H	1.001167	-0.358036	0.249198
H498	H	1.334500	-0.024703	0.582532
C499	C	-0.302720	0.150808	0.000223
C500	C	0.030614	0.484142	0.333556
C501	C	0.363947	0.817475	0.666890
H502	H	-0.284113	0.177290	0.000221
H503	H	0.049220	0.510623	0.333555
H504	H	0.382553	0.843956	0.666888
H505	H	-0.327932	0.157752	0.084541
H506	H	0.005401	0.491085	0.417874
H507	H	0.338735	0.824419	0.751207
H508	H	-0.317345	0.147123	-0.084104
H509	H	0.015988	0.480456	0.249229
H510	H	0.349321	0.813790	0.582562
C511	C	0.659429	-0.811333	0.000193
C512	C	0.992763	-0.477999	0.333527
C513	C	1.326096	-0.144666	0.666860
H514	H	0.652772	-0.844096	0.000181
H515	H	0.986105	-0.510763	0.333514
H516	H	1.319438	-0.177430	0.666847
H517	H	0.672335	-0.800256	0.084506
H518	H	1.005669	-0.466922	0.417839
H519	H	1.339002	-0.133589	0.751173
H520	H	0.682917	-0.810889	-0.084139
H521	H	1.016250	-0.477556	0.249194
H522	H	1.349583	-0.144223	0.582528
C523	C	-0.171310	-0.033255	0.000201
C524	C	0.162023	0.300078	0.333534
C525	C	0.495356	0.633412	0.666867
H526	H	-0.189925	-0.059730	0.000182
H527	H	0.143408	0.273603	0.333516
H528	H	0.476742	0.606937	0.666849
H529	H	-0.156682	-0.029577	0.084515
H530	H	0.176651	0.303756	0.417848
H531	H	0.509985	0.637090	0.751182
H532	H	-0.146098	-0.040206	-0.084130
H533	H	0.187235	0.293127	0.249203
H534	H	0.520568	0.626461	0.582537
C535	C	0.435182	-0.290703	0.000092
C536	C	0.768516	0.042631	0.333425
C537	C	1.101849	0.375964	0.666759
H538	H	0.441843	-0.257941	0.000075
H539	H	0.775176	0.075392	0.333409
H540	H	1.108509	0.408725	0.666742
H541	H	0.411687	-0.291143	0.084400
H542	H	0.745021	0.042190	0.417734
H543	H	1.078354	0.375524	0.751067
H544	H	0.422286	-0.301785	-0.084245
H545	H	0.755619	0.031548	0.249089
H546	H	1.088953	0.364882	0.582422
H547	H	0.695798	-0.333877	0.000152
H548	H	1.029132	-0.000543	0.333486
H549	H	1.362465	0.332790	0.666819
H550	H	0.694870	-0.425325	0.000154
H551	H	1.028203	-0.091991	0.333487
H552	H	1.361536	0.241342	0.666820
H553	H	0.208991	-0.060914	0.000229
H554	H	0.542325	0.272420	0.333562
H555	H	0.875658	0.605753	0.666896
C556	C	0.337884	-0.028083	0.000143
C557	C	0.671217	0.305250	0.333477
C558	C	1.004550	0.638584	0.666810
H559	H	0.363740	-0.054108	0.000143
H560	H	0.697074	0.279225	0.333477
H561	H	1.030407	0.612559	0.666810
H562	H	0.323758	-0.035433	-0.084164
H563	H	0.657091	0.297900	0.249169
H564	H	0.990425	0.631234	0.582503
H565	H	0.313181	-0.024797	0.084481
H566	H	0.646514	0.308536	0.417814
H567	H	0.979847	0.641869	0.751148
C568	C	0.443755	-0.027007	0.000128
C569	C	0.777088	0.306326	0.333461
C570	C	1.110422	0.639660	0.666794
H571	H	0.425149	-0.053488	0.000120
H572	H	0.758482	0.279845	0.333454
H573	H	1.091815	0.613178	0.666787
H574	H	0.458384	-0.023320	0.084440
H575	H	0.791717	0.310013	0.417773
H576	H	1.125051	0.643347	0.751107
H577	H	0.468966	-0.033955	-0.084205
H578	H	0.802299	0.299379	0.249128
H579	H	1.135632	0.632712	0.582462
H580	H	-0.067950	0.184721	0.000223
H581	H	0.265383	0.518054	0.333556
H582	H	0.598717	0.851387	0.666890
C583	C	0.066684	-0.074970	0.000195
C584	C	0.400017	0.258364	0.333528
C585	C	0.733351	0.591697	0.666861
H586	H	0.048069	-0.101445	0.000182
H587	H	0.381402	0.231889	0.333515
H588	H	0.714736	0.565222	0.666849
H589	H	0.081316	-0.071292	0.084503
H590	H	0.414649	0.262041	0.417836
H591	H	0.747982	0.595374	0.751170
H592	H	0.091893	-0.081920	-0.084142
H593	H	0.425227	0.251413	0.249191
H594	H	0.758560	0.584746	0.582525
