data_functionalizedCrystal
_audit_creation_method	'MofGen! by Chris Wilmer'
_symmetry_space_group_name_H-M	'P1'
_symmetry_Int_Tables_number	1
_symmetry_cell_setting	triclinic
loop_
_symmetry_equiv_pos_as_xyz
  x,y,z
_cell_length_a	23.532407
_cell_length_b	23.532407
_cell_length_c	22.010155
_cell_angle_alpha	89.995744
_cell_angle_beta	89.994271
_cell_angle_gamma	82.848747
loop_
_atom_site_label
_atom_site_type_symbol
_atom_site_fract_x
_atom_site_fract_y
_atom_site_fract_z
O1	O	0.755264	0.069127	-0.050498
O2	O	0.589400	0.079130	-0.050509
O3	O	0.677334	-0.008803	-0.050486
O4	O	0.667330	0.157061	-0.050521
O5	O	0.677318	-0.008790	0.050564
O6	O	0.589384	0.079144	0.050541
O7	O	0.755248	0.069141	0.050552
Cu8	Cu	0.672315	0.074143	0.059774
Cu9	Cu	0.672333	0.074128	-0.059730
O10	O	0.667314	0.157074	0.050530
C11	C	0.568176	0.078882	0.000015
C12	C	0.504959	0.078116	0.000012
C13	C	0.238792	0.022921	0.000040
C14	C	0.298192	0.023632	0.000039
O15	O	0.334937	-0.020153	0.000070
N16	N	0.320818	0.075909	0.000024
C17	C	0.284041	0.127477	0.000016
O18	O	0.308740	0.172007	0.000003
C19	C	0.224642	0.126765	0.000020
C20	C	0.202019	0.074485	0.000029
C21	C	0.216168	-0.029354	0.000049
C22	C	0.156772	-0.030066	0.000048
C23	C	0.119999	0.021499	0.000038
C24	C	0.142623	0.073774	0.000028
C25	C	0.187865	0.178333	0.000016
C26	C	0.128463	0.177616	0.000021
C27	C	0.105840	0.125336	0.000030
C28	C	0.046454	0.124627	0.000017
N29	N	0.023828	0.072351	0.000032
C30	C	0.060600	0.020787	0.000043
C31	C	0.408783	0.128968	0.000007
C32	C	0.468181	0.129681	-0.000002
C33	C	0.482328	0.025836	0.000023
C34	C	0.422929	0.025124	0.000027
C35	C	0.386157	0.076692	0.000022
C36	C	-0.064136	0.019297	0.000040
C37	C	-0.123538	0.018590	0.000037
C38	C	-0.137680	0.122435	0.000015
C39	C	-0.078284	0.123142	0.000016
C40	C	-0.041512	0.071568	0.000030
O41	O	0.009675	0.168390	-0.000011
O42	O	0.035892	-0.023737	0.000063
C43	C	0.677071	-0.030012	0.000042
C44	C	0.676305	-0.093229	0.000051
C45	C	0.621110	-0.359397	0.000010
C46	C	0.621821	-0.299997	0.000014
O47	O	0.578035	-0.263252	-0.000008
N48	N	0.674097	-0.277370	0.000025
C49	C	0.725666	-0.314148	0.000025
O50	O	0.770196	-0.289448	0.000033
C51	C	0.724953	-0.373547	0.000015
C52	C	0.672674	-0.396170	0.000011
C53	C	0.568834	-0.382020	0.000005
C54	C	0.568123	-0.441416	0.000001
C55	C	0.619687	-0.478189	0.000003
C56	C	0.671963	-0.455566	0.000008
C57	C	0.776521	-0.410323	0.000011
C58	C	0.775805	-0.469726	0.000001
C59	C	0.723525	-0.492348	-0.000003
C60	C	0.722816	-0.551735	0.000005
N61	N	0.670539	-0.574361	-0.000005
C62	C	0.618975	-0.537588	-0.000007
C63	C	0.727157	-0.189405	0.000043
C64	C	0.727870	-0.130007	0.000056
C65	C	0.624025	-0.115860	0.000045
C66	C	0.623313	-0.175259	0.000036
C67	C	0.674881	-0.212031	0.000032
C68	C	0.617485	-0.662325	-0.000014
C69	C	0.616779	-0.721727	-0.000015
C70	C	0.720623	-0.735869	-0.000007
C71	C	0.721330	-0.676472	-0.000002
C72	C	0.669757	-0.639701	-0.000008
O73	O	0.766579	-0.588514	0.000025
O74	O	0.574452	-0.562296	-0.000023
C75	C	0.776472	0.069389	0.000027
C76	C	0.839689	0.070155	0.000027
C77	C	0.667577	0.178283	-0.000000
C78	C	0.668343	0.241500	-0.000013
N79	N	0.672305	0.074154	0.143826
N80	N	0.672347	0.074113	-0.143783
C81	C	0.711273	0.035196	0.563616
C82	C	0.711275	0.035192	0.627223
O83	O	0.744383	0.002077	0.660123
N84	N	0.672333	0.074116	0.659033
C85	C	0.633382	0.113042	0.627232
O86	O	0.600259	0.146148	0.660130
C87	C	0.633377	0.113042	0.563626
C88	C	0.672326	0.074120	0.531819
C89	C	0.750217	-0.003723	0.531809
C90	C	0.750215	-0.003718	0.468206
C91	C	0.711268	0.035206	0.436409
C92	C	0.672324	0.074125	0.468216
C93	C	0.594424	0.151965	0.531826
C94	C	0.594422	0.151962	0.468215
C95	C	0.633370	0.113040	0.436409
C96	C	0.633375	0.113054	0.372816
N97	N	0.672317	0.074131	0.341006
C98	C	0.711263	0.035207	0.372803
C99	C	0.633395	0.113036	0.760810
C100	C	0.633402	0.113039	0.824415
C101	C	0.711294	0.035189	0.824402
C102	C	0.711290	0.035189	0.760795
C103	C	0.672337	0.074113	0.729000
C104	C	0.711256	0.035220	0.239231
C105	C	0.711252	0.035230	0.175623
C106	C	0.633358	0.113078	0.175642
C107	C	0.633364	0.113070	0.239245
C108	C	0.672315	0.074137	0.271038
O109	O	0.600282	0.146151	0.339876
O110	O	0.744376	0.002101	0.339897
H111	H	0.206274	0.220904	0.000006
H112	H	-0.141954	-0.023984	0.000043
H113	H	0.742971	0.003535	0.149727
C114	C	0.827214	-0.080664	0.525390
C115	C	0.793036	-0.046510	0.566752
H116	H	0.853654	-0.107076	0.546961
H117	H	0.803621	-0.101029	0.500592
H118	H	0.847551	-0.057048	0.500572
H119	H	0.772695	-0.070126	0.591567
H120	H	0.816632	-0.026143	0.591561
C121	C	0.521302	-0.107827	0.000031
C122	C	0.567342	-0.075432	0.000039
H123	H	0.486312	-0.082867	0.000031
H124	H	0.523188	-0.131283	-0.035207
H125	H	0.523177	-0.131295	0.035270
H126	H	0.565469	-0.051967	-0.035203
H127	H	0.565455	-0.051966	0.035281
C128	C	0.031127	0.222644	0.000018
C129	C	0.088043	0.234302	0.000014
H130	H	0.006175	0.257640	0.000016
H131	H	0.024304	0.201196	-0.035215
H132	H	0.024300	0.201197	0.035262
H133	H	0.094871	0.255746	-0.035233
H134	H	0.094868	0.255760	0.035250
H135	H	0.525551	-0.459830	-0.000008
H136	H	-0.059863	0.165712	0.000008
H137	H	0.601654	0.144769	0.265142
C138	C	-0.235021	0.167441	0.000017
C139	C	-0.178109	0.179112	0.000009
H140	H	-0.259979	0.202433	0.000021
H141	H	-0.241842	0.145994	-0.035217
H142	H	-0.241839	0.145989	0.035260
H143	H	-0.171289	0.200561	-0.035236
H144	H	-0.171285	0.200569	0.035247
H145	H	0.486595	0.172252	-0.000018
H146	H	0.526842	-0.352085	0.000001
H147	H	0.574205	-0.740143	-0.000015
H148	H	0.512280	-0.016150	0.000031
C149	C	0.400775	0.231687	-0.000030
C150	C	0.368365	0.185657	-0.000012
H151	H	0.375824	0.266683	-0.000045
H152	H	0.424232	0.229810	0.035207
H153	H	0.424243	0.229789	-0.035270
H154	H	0.344900	0.187553	0.035231
H155	H	0.344898	0.187535	-0.035252
C156	C	0.878523	-0.477739	0.000007
C157	C	0.832491	-0.510145	0.000000
H158	H	0.913518	-0.502692	0.000011
H159	H	0.876644	-0.454274	-0.035228
H160	H	0.876631	-0.454279	0.035250
H161	H	0.834382	-0.533602	-0.035245
H162	H	0.834372	-0.533620	0.035239
C163	C	0.150566	-0.118812	-0.051868
C164	C	0.131914	-0.087535	0.000067
H165	H	0.135226	-0.154295	-0.051851
H166	H	0.137918	-0.097606	-0.087106
H167	H	0.191206	-0.125753	-0.051863
H168	H	0.091274	-0.080590	0.000060
H169	H	0.144559	-0.108745	0.035314
C170	C	0.514767	-0.654324	-0.000017
C171	C	0.560795	-0.621912	-0.000015
H172	H	0.479770	-0.629373	-0.000011
H173	H	0.516657	-0.677779	-0.035256
H174	H	0.516655	-0.677793	0.035221
H175	H	0.558910	-0.598446	-0.035256
H176	H	0.558905	-0.598447	0.035228
C177	C	0.599347	0.211842	0.156042
C178	C	0.590549	0.155861	0.140681
H179	H	0.572919	0.238251	0.134454
H180	H	0.593769	0.217412	0.198470
H181	H	0.637321	0.217830	0.145612
H182	H	0.552577	0.149871	0.151116
H183	H	0.596123	0.150288	0.098244
C184	C	0.562274	-0.233835	-0.051927
C185	C	0.565847	-0.200125	0.000025
H186	H	0.526797	-0.249186	-0.051932
H187	H	0.564716	-0.210949	-0.087154
H188	H	0.592882	-0.264239	-0.051923
H189	H	0.535241	-0.169719	0.000018
H190	H	0.563399	-0.223013	0.035261
C191	C	0.830442	-0.149972	0.000065
C192	C	0.785337	-0.105145	0.000065
H193	H	0.865920	-0.134623	0.000064
H194	H	0.827997	-0.172847	0.035300
H195	H	0.828002	-0.172842	-0.035178
H196	H	0.787774	-0.082277	0.035310
H197	H	0.787783	-0.082261	-0.035173
C198	C	0.786626	-0.264398	-0.051905
C199	C	0.783847	-0.229822	0.000046
H200	H	0.821625	-0.289345	-0.051904
H201	H	0.755399	-0.286378	-0.051908
H202	H	0.784748	-0.240920	-0.087136
H203	H	0.785720	-0.253301	0.035278
H204	H	0.815082	-0.207841	0.000055
C205	C	0.291170	-0.088810	-0.051893
C206	C	0.256585	-0.086040	0.000056
H207	H	0.316120	-0.123807	-0.051889
H208	H	0.267702	-0.086928	-0.087122
H209	H	0.313150	-0.057577	-0.051893
H210	H	0.234601	-0.117271	0.000054
H211	H	0.280055	-0.087928	0.035294
C212	C	0.788281	-0.041761	0.767186
C213	C	0.754098	-0.007599	0.725837
H214	H	0.814707	-0.068180	0.745605
H215	H	0.808631	-0.018156	0.791985
H216	H	0.764687	-0.062122	0.792004
H217	H	0.777692	0.012766	0.701022
H218	H	0.733747	-0.031207	0.701027
H219	H	0.819093	-0.391915	0.000014
C220	C	0.782378	-0.617873	-0.051939
C221	C	0.778793	-0.651597	0.000007
H222	H	0.817853	-0.602516	-0.051934
H223	H	0.779951	-0.640752	-0.087170
H224	H	0.751766	-0.587474	-0.051935
H225	H	0.809404	-0.681999	0.000001
H226	H	0.781226	-0.628717	0.035247
C227	C	-0.056135	-0.083421	0.000052
C228	C	-0.023723	-0.037393	0.000048
H229	H	-0.031185	-0.118418	0.000049
H230	H	-0.079597	-0.081535	0.035290
H231	H	-0.079598	-0.081531	-0.035188
H232	H	-0.000263	-0.039281	0.035290
H233	H	-0.000252	-0.039281	-0.035193
C234	C	0.823342	-0.743901	-0.000003
C235	C	0.777302	-0.776297	-0.000008
H236	H	0.858332	-0.768862	-0.000004
H237	H	0.821465	-0.720434	-0.035236
H238	H	0.821458	-0.720444	0.035242
H239	H	0.779184	-0.799750	-0.035255
H240	H	0.779180	-0.799774	0.035228
H241	H	0.562708	0.183659	0.557714
C242	C	0.788842	0.022453	0.310740
C243	C	0.754074	-0.007574	0.274172
H244	H	0.815274	-0.003966	0.332312
H245	H	0.809184	0.046057	0.285922
H246	H	0.765646	0.045625	0.338791
H247	H	0.777270	-0.030743	0.246118
H248	H	0.733730	-0.031188	0.298992
H249	H	0.404515	-0.017447	0.000035
H250	H	0.743006	0.003494	0.850302
H251	H	0.781929	-0.035413	0.442312
C252	C	0.534625	0.146982	0.844005
C253	C	0.590592	0.155826	0.859374
H254	H	0.508195	0.173395	0.865589
H255	H	0.529058	0.152555	0.801577
H256	H	0.528665	0.109002	0.854436
H257	H	0.596554	0.193806	0.848939
H258	H	0.596162	0.150258	0.901812
C259	C	0.620588	0.190621	0.689284
C260	C	0.590582	0.155833	0.725862
H261	H	0.594156	0.217038	0.667709
H262	H	0.644176	0.210979	0.714093
H263	H	0.643773	0.167436	0.661234
H264	H	0.567399	0.179018	0.753915
H265	H	0.566983	0.135473	0.701051
C266	C	0.517426	0.228913	0.474622
C267	C	0.551606	0.194753	0.433267
H268	H	0.490998	0.255332	0.453046
H269	H	0.497080	0.205306	0.499432
H270	H	0.541022	0.249275	0.499430
H271	H	0.528010	0.174388	0.408462
H272	H	0.571954	0.218363	0.408447
