data_functionalizedCrystal
_audit_creation_method	'MofGen! by Chris Wilmer'
_symmetry_space_group_name_H-M	'P1'
_symmetry_Int_Tables_number	1
_symmetry_cell_setting	triclinic
loop_
_symmetry_equiv_pos_as_xyz
  x,y,z
_cell_length_a	10.654550
_cell_length_b	16.992695
_cell_length_c	9.130313
_cell_angle_alpha	89.995176
_cell_angle_beta	89.999724
_cell_angle_gamma	87.576577
loop_
_atom_site_label
_atom_site_type_symbol
_atom_site_fract_x
_atom_site_fract_y
_atom_site_fract_z
O1	O	1.677362	0.110190	-0.121691
O2	O	1.312790	0.120688	-0.121718
O3	O	1.493615	0.001288	-0.121693
O4	O	1.496538	0.229590	-0.121716
O5	O	1.493601	0.001285	0.121906
O6	O	1.312777	0.120685	0.121881
O7	O	1.677348	0.110186	0.121908
Cu8	Cu	1.495061	0.115435	0.144137
Cu9	Cu	1.495077	0.115439	-0.143947
O10	O	1.496524	0.229586	0.121883
C11	C	1.265919	0.119916	0.000078
C12	C	1.126277	0.117609	0.000068
C13	C	1.052866	0.187910	0.000065
C14	C	0.921658	0.185738	0.000091
C15	C	0.937282	0.042959	0.000116
C16	C	1.068488	0.045132	0.000101
C17	C	1.489848	-0.027946	0.000106
C18	C	1.478628	-0.115051	0.000105
C19	C	1.586879	-0.164703	0.000114
C20	C	1.576330	-0.246547	0.000099
C21	C	1.457529	-0.278738	0.000086
C22	C	1.349270	-0.229080	0.000072
C23	C	1.359820	-0.147237	0.000076
C24	C	1.413802	-0.522573	0.000062
C25	C	1.403260	-0.604422	0.000062
C26	C	1.630321	-0.621884	0.000087
C27	C	1.640861	-0.540039	0.000100
C28	C	1.532602	-0.490388	0.000079
N29	N	1.446743	-0.362395	0.000075
N30	N	1.543389	-0.406733	0.000079
C31	C	1.724220	0.110959	0.000108
C32	C	1.863862	0.113265	0.000109
C33	C	1.500291	0.258821	0.000080
C34	C	1.511510	0.345926	0.000072
N35	N	1.495059	0.115432	0.346759
N36	N	1.495089	0.115437	-0.346570
C37	C	1.575159	0.062584	0.423422
C38	C	1.575171	0.062584	0.576759
C39	C	1.414980	0.168287	0.576756
C40	C	1.414963	0.168282	0.423422
H41	H	0.890215	-0.016050	0.000152
H42	H	1.640377	0.019549	0.361007
H43	H	1.349769	0.211318	0.639191
H44	H	1.349730	0.211318	0.360999
O45	O	1.139622	-0.023236	0.000037
C46	C	1.060484	-0.087673	0.000093
H47	H	0.964661	-0.068297	-0.046021
H48	H	1.103858	-0.136973	-0.070624
H49	H	1.048942	-0.109853	0.116965
H50	H	1.640394	0.019550	0.639174
O51	O	1.681452	-0.294808	-0.000151
C52	C	1.682145	-0.342674	-0.126303
H53	H	1.620903	-0.313049	-0.214485
H54	H	1.782439	-0.351316	-0.168642
H55	H	1.643656	-0.402359	-0.097795
O56	O	1.233796	-0.260253	0.000249
C57	C	1.167309	-0.234962	0.126421
H58	H	1.207249	-0.178025	0.168488
H59	H	1.063816	-0.224168	0.098033
H60	H	1.177099	-0.282239	0.214765
H61	H	1.099913	0.246926	0.000049
H62	H	0.861892	0.242984	0.000091
O63	O	1.702311	-0.133474	-0.000135
C64	C	1.768812	-0.158795	-0.126277
H65	H	1.699487	-0.176179	-0.214460
H66	H	1.827248	-0.108932	-0.168623
H67	H	1.833475	-0.211749	-0.097753
O68	O	1.756361	-0.508902	0.000054
C69	C	1.849647	-0.570277	0.000102
H70	H	1.808855	-0.626054	-0.046034
H71	H	1.932108	-0.552731	-0.070599
H72	H	1.883414	-0.581676	0.116975
H73	H	1.718458	-0.662318	0.000102
H74	H	1.325649	-0.482157	0.000045
O75	O	1.287946	-0.635823	0.000110
C76	C	1.301855	-0.718706	0.000084
H77	H	1.397980	-0.737385	0.046216
H78	H	1.225338	-0.744238	0.070800
H79	H	1.293494	-0.741516	-0.116781
H80	H	1.271671	-0.106811	0.000068
