data_functionalizedCrystal
_audit_creation_method	'MofGen! by Chris Wilmer'
_symmetry_space_group_name_H-M	'P1'
_symmetry_Int_Tables_number	1
_symmetry_cell_setting	triclinic
loop_
_symmetry_equiv_pos_as_xyz
  x,y,z
_cell_length_a	10.868271
_cell_length_b	19.188931
_cell_length_c	11.792241
_cell_angle_alpha	96.330721
_cell_angle_beta	89.994719
_cell_angle_gamma	90.002859
loop_
_atom_site_label
_atom_site_type_symbol
_atom_site_fract_x
_atom_site_fract_y
_atom_site_fract_z
O1	O	-0.102280	-0.926947	0.141699
O2	O	-0.102292	-0.723744	0.160772
O3	O	-0.102277	-0.830276	-0.014009
O4	O	-0.102295	-0.820414	0.316480
O5	O	0.102367	-0.830267	-0.014015
O6	O	0.102352	-0.723735	0.160766
O7	O	0.102364	-0.926938	0.141692
Zn8	Zn	0.134850	-0.825335	0.151228
Zn9	Zn	-0.134778	-0.825347	0.151237
O10	O	0.102349	-0.820405	0.316473
C11	C	0.000029	-0.697725	0.160151
C12	C	0.000024	-0.620210	0.158297
N13	N	0.318864	-0.825332	0.151221
N14	N	-0.318792	-0.825355	0.151235
C15	C	-0.111514	-0.066884	0.145063
C16	C	-0.111519	-0.139718	0.146799
C17	C	0.000032	-0.176135	0.147669
C18	C	0.111597	-0.139714	0.146773
C19	C	0.111598	-0.066882	0.145026
N20	N	0.083062	-0.285533	0.214992
N21	N	0.083053	-0.354720	0.216655
C22	C	0.000034	-0.395574	0.152931
N23	N	-0.082993	-0.364626	0.087496
N24	N	-0.082988	-0.295432	0.085839
C25	C	0.000043	-0.255109	0.149563
C26	C	-0.111528	-0.510961	0.155700
C27	C	-0.111528	-0.583797	0.157429
C28	C	0.111591	-0.583791	0.157414
C29	C	0.111588	-0.510958	0.155674
C30	C	0.000025	-0.474547	0.154823
C31	C	0.569870	-0.825343	0.151234
C32	C	0.430193	-0.825335	0.151230
C33	C	0.000040	0.047043	0.142315
C34	C	0.000035	-0.030471	0.144174
C35	C	0.000044	-0.829652	-0.056294
C36	C	0.000043	-0.827798	-0.182280
C37	C	0.000022	-0.824389	-0.412941
C38	C	0.000034	-0.826283	-0.284584
C39	C	0.000025	-0.821029	0.358758
C40	C	0.000018	-0.822883	0.484744
H41	H	-0.202359	-0.169370	0.147529
H42	H	0.202424	-0.481310	0.154954
H43	H	0.202423	-0.169370	0.147479
H44	H	-0.202358	-0.037243	0.144365
O45	O	0.231917	-0.027601	0.144082
H46	H	0.309489	-0.065156	0.144984
O47	O	-0.231848	-0.471683	0.154753
H48	H	-0.309419	-0.509244	0.155639
H49	H	-0.202369	-0.613444	0.158144
H50	H	0.202418	-0.613442	0.158118
