data_functionalizedCrystal
_audit_creation_method	'MofGen! by Chris Wilmer'
_symmetry_space_group_name_H-M	'P1'
_symmetry_Int_Tables_number	1
_symmetry_cell_setting	triclinic
loop_
_symmetry_equiv_pos_as_xyz
  x,y,z
_cell_length_a	6.817900
_cell_length_b	16.417825
_cell_length_c	12.200875
_cell_angle_alpha	94.315196
_cell_angle_beta	107.143593
_cell_angle_gamma	103.385495
loop_
_atom_site_label
_atom_site_type_symbol
_atom_site_fract_x
_atom_site_fract_y
_atom_site_fract_z
V1	V	-4.067883	-0.116076	-0.358064
V2	V	-3.567883	0.383924	0.141936
O3	O	-4.055059	0.005382	-0.350834
O4	O	-3.555059	0.505382	0.149166
O5	O	-4.018691	-0.229971	-0.356013
O6	O	-3.518691	0.270029	0.143987
O7	O	-4.037613	-0.114376	-0.514046
O8	O	-3.537613	0.385624	-0.014046
O9	O	-4.036006	-0.111012	-0.191706
O10	O	-3.536006	0.388988	0.308294
V11	V	-4.549265	-0.101538	-0.338118
V12	V	-4.049265	0.398462	0.161882
O13	O	-4.333839	-0.147966	-0.401817
O14	O	-3.833839	0.352034	0.098183
O15	O	-4.733506	-0.069648	-0.294364
O16	O	-4.233506	0.430352	0.205636
O17	O	-4.375251	0.012357	-0.340169
O18	O	-3.875251	0.512357	0.159831
O19	O	-4.679486	-0.222996	-0.345347
O20	O	-4.179486	0.277004	0.154653
O21	O	-4.698539	-0.106601	-0.504475
O22	O	-4.198539	0.393399	-0.004475
O23	O	-4.356329	-0.103238	-0.182135
O24	O	-3.856329	0.396762	0.317865
C25	C	-3.862912	-0.257733	-0.350467
C26	C	-3.362912	0.242267	0.149533
C27	C	-3.904099	-0.350844	-0.349829
C28	C	-3.404099	0.149156	0.150171
C29	C	-3.946502	-0.553051	-0.243295
C30	C	-3.446502	-0.053051	0.256705
C31	C	-3.985225	-0.640540	-0.242705
C32	C	-3.485225	-0.140540	0.257295
C33	C	-4.090028	-0.664563	-0.452899
C34	C	-3.590028	-0.164563	0.047101
C35	C	-4.051320	-0.577075	-0.453488
C36	C	-3.551320	-0.077075	0.046512
C37	C	-3.979546	-0.521321	-0.348682
C38	C	-3.479546	-0.021321	0.151318
C39	C	-4.056977	-0.696298	-0.347503
C40	C	-3.556977	-0.196298	0.152497
C41	C	-4.098962	-0.791157	-0.346865
C42	C	-3.598962	-0.291157	0.153135
C43	C	-3.937561	-0.426456	-0.349320
C44	C	-3.437561	0.073544	0.150680
C45	C	-3.887048	-0.110280	-0.552052
C46	C	-3.387048	0.389720	-0.052052
C47	C	-3.943577	-0.109644	-0.679571
C48	C	-3.443577	0.390356	-0.179571
C49	C	-4.047033	-0.108481	-0.913042
C50	C	-3.547033	0.391519	-0.413042
C51	C	-3.989454	-0.109128	-0.783122
C52	C	-3.489454	0.390872	-0.283122
C53	C	-4.194371	0.040115	-0.345711
C54	C	-3.694371	0.540115	0.154289
C55	C	-4.132424	0.133225	-0.346356
C56	C	-3.632424	0.633225	0.153644
C57	C	-4.170235	-0.107337	-0.144123
C58	C	-3.670235	0.392663	0.355877
C59	C	-4.092945	-0.107968	-0.016603
C60	C	-3.592945	0.392032	0.483397
H61	H	-3.958317	-0.666370	-0.156889
H62	H	-3.458317	-0.166370	0.343111
O63	O	-3.869089	-0.492915	-0.130260
O64	O	-3.369089	0.007085	0.369740
H65	H	-3.988053	-0.507131	-0.084048
H66	H	-3.488053	-0.007131	0.415952
O67	O	-4.167435	-0.724695	-0.565937
O68	O	-3.667435	-0.224695	-0.065937
H69	H	-4.188786	-0.790862	-0.547824
H70	H	-3.688786	-0.290862	-0.047824
O71	O	-4.086945	-0.542842	-0.567160
O72	O	-3.586945	-0.042842	-0.067160
H73	H	-4.143323	-0.596307	-0.639937
H74	H	-3.643323	-0.096307	-0.139937
