data_functionalizedCrystal
_audit_creation_method	'MofGen! by Chris Wilmer'
_symmetry_space_group_name_H-M	'P1'
_symmetry_Int_Tables_number	1
_symmetry_cell_setting	triclinic
loop_
_symmetry_equiv_pos_as_xyz
  x,y,z
_cell_length_a	15.698487
_cell_length_b	21.606444
_cell_length_c	21.606444
_cell_angle_alpha	90.002006
_cell_angle_beta	60.000019
_cell_angle_gamma	60.003238
loop_
_atom_site_label
_atom_site_type_symbol
_atom_site_fract_x
_atom_site_fract_y
_atom_site_fract_z
Zr1	Zr	0.932392	-0.081195	0.596234
O2	O	1.110097	-0.180016	0.497409
O3	O	0.754683	-0.050903	0.626529
O4	O	0.932386	-0.180017	0.626529
O5	O	0.932400	0.050948	0.497409
O6	O	0.932386	-0.180015	0.728381
O7	O	0.932394	-0.050902	0.497409
O8	O	0.614508	0.050946	0.728381
O9	O	1.250278	-0.180013	0.497409
O10	O	0.827779	-0.037980	0.715460
O11	O	0.827783	0.038028	0.639449
O12	O	1.037006	-0.113987	0.639449
O13	O	1.037011	-0.037979	0.563438
Zr14	Zr	0.932402	0.081246	0.758675
Zr15	Zr	0.932392	-0.081192	0.758676
Zr16	Zr	0.932402	0.081244	0.596233
Zr17	Zr	1.155965	-0.081191	0.596233
Zr18	Zr	0.708829	0.081243	0.758676
O19	O	1.110111	0.050954	0.728380
O20	O	1.110097	-0.180012	0.728381
O21	O	1.110111	0.050951	0.497408
O22	O	0.754697	0.180068	0.857500
O23	O	0.754683	-0.050899	0.857501
O24	O	0.754697	0.180064	0.626528
O25	O	0.932394	-0.050896	0.857500
O26	O	0.932407	0.180069	0.728380
O27	O	0.932408	0.180067	0.626528
O28	O	0.932400	0.050954	0.857500
O29	O	1.250278	-0.180011	0.626528
O30	O	0.614515	0.180063	0.728381
O31	O	0.614515	0.180065	0.857500
O32	O	0.614508	0.050948	0.857501
O33	O	1.250286	-0.050896	0.497408
O34	O	1.250286	-0.050894	0.626528
O35	O	0.827788	0.114039	0.715460
O36	O	0.827783	0.038031	0.791471
O37	O	1.037010	-0.037976	0.715460
O38	O	1.037015	0.038032	0.639449
C39	C	0.652741	0.000021	0.677455
C40	C	0.557829	0.000020	0.677455
C41	C	0.932397	0.000023	0.474264
C42	C	0.932397	0.000022	0.405303
C43	C	0.932409	0.203212	0.677454
C44	C	0.932413	0.272171	0.677454
C45	C	0.384046	0.000033	0.677453
C46	C	0.480751	0.000028	0.677452
C47	C	1.212053	0.000031	0.677454
C48	C	1.306965	0.000032	0.677454
C49	C	0.932385	-0.203160	0.677455
C50	C	0.932381	-0.272119	0.677455
C51	C	1.041627	0.264896	0.637778
C52	C	1.041623	0.329693	0.637775
C53	C	0.932405	0.401765	0.677452
C54	C	0.823183	0.409039	0.717129
C55	C	0.823188	0.344243	0.717128
C56	C	0.823162	0.670357	0.717135
C57	C	0.823166	0.735155	0.717135
C58	C	1.041598	0.655808	0.637783
C59	C	1.041602	0.591011	0.637781
C60	C	0.932381	0.598291	0.677454
C61	C	0.932386	0.528030	0.677456
C62	C	0.932399	0.472025	0.677455
C63	C	0.932397	-0.056090	0.372905
C64	C	0.932391	-0.056087	0.308111
C65	C	0.932394	0.000025	0.275713
C66	C	0.932390	0.056142	0.308118
C67	C	0.932387	0.056142	0.372913
C68	C	0.932399	0.056145	0.046804
C69	C	0.932405	0.056140	-0.017998
C70	C	0.932403	-0.056084	-0.017999
C71	C	0.932400	-0.056085	0.046797
C72	C	0.932390	0.000035	0.079198
C73	C	0.932394	0.000032	0.149456
C74	C	0.932398	0.000025	0.205454
C75	C	0.932397	0.000029	0.880645
C76	C	0.932396	0.000030	0.949606
C77	C	0.652741	0.000024	0.880645
C78	C	0.557828	0.000024	0.949606
C79	C	0.652753	0.203207	0.677454
C80	C	0.557845	0.272165	0.677454
C81	C	0.652753	0.203210	0.880645
C82	C	0.557844	0.272169	0.949606
C83	C	1.212041	-0.203158	0.474264
C84	C	1.306949	-0.272117	0.405303
C85	C	1.212053	0.000027	0.474264
C86	C	1.306966	0.000028	0.405303
C87	C	1.212041	-0.203155	0.677455
C88	C	1.306949	-0.272113	0.677455
C89	C	0.513254	-0.039660	0.942314
C90	C	0.424086	-0.039675	1.007104
C91	C	0.379487	-0.000003	1.079185
C92	C	0.424070	0.039682	1.086476
C93	C	0.513243	0.039693	1.021687
C94	C	0.513277	0.344232	0.717131
C95	C	0.424113	0.409031	0.717128
C96	C	0.379512	0.401762	0.677453
C97	C	0.424088	0.329688	0.637771
C98	C	0.513257	0.264890	0.637770
C99	C	0.513272	0.264878	1.021674
C100	C	0.424108	0.329666	1.086477
C101	C	0.379511	0.401745	1.079209
C102	C	0.424093	0.409035	1.007133
C103	C	0.513261	0.344247	0.942332
C104	C	1.351533	-0.264826	0.333235
C105	C	1.440725	-0.329614	0.268432
C106	C	1.485326	-0.401693	0.275700
C107	C	1.440739	-0.408983	0.347776
C108	C	1.351554	-0.344196	0.412577
C109	C	1.351549	0.039705	0.412595
C110	C	1.440742	0.039703	0.347805
C111	C	1.485344	0.000027	0.275724
C112	C	1.440756	-0.039655	0.268433
C113	C	1.351571	-0.039656	0.333222
C114	C	1.351522	-0.264820	0.717138
C115	C	1.440686	-0.329607	0.717153
C116	C	1.485283	-0.401687	0.677479
C117	C	1.440702	-0.408978	0.637795
C118	C	1.351532	-0.344192	0.637785
H119	H	1.130556	0.323762	0.605468
N120	N	1.303451	-0.352069	0.490306
H121	H	1.240179	-0.300094	0.530261
H122	H	1.371552	-0.380722	0.496313
N123	N	0.283296	-0.000010	1.149060
H124	H	0.261798	0.031144	1.195834
H125	H	0.314407	-0.053771	1.149013
N126	N	0.283335	0.471655	0.677459
H127	H	0.261873	0.518409	0.708619
H128	H	0.209393	0.471621	0.700025
N129	N	1.303485	-0.082446	0.325342
H130	H	1.213970	-0.046057	0.350448
H131	H	1.319076	-0.122379	0.350441
H132	H	0.306904	0.454492	1.131980
N133	N	1.488790	-0.321746	0.190698
H134	H	1.578305	-0.346845	0.162039
H135	H	1.446903	-0.266240	0.195992
N136	N	0.375993	-0.082469	0.999235
H137	H	0.391519	-0.122406	1.024337
H138	H	0.417790	-0.107543	0.943727
H139	H	1.557891	-0.454434	0.677493
H140	H	0.549524	0.072013	1.027635
H141	H	0.387769	0.467730	1.001226
N142	N	0.561316	0.352113	0.864600
H143	H	0.650835	0.327004	0.835932
H144	H	0.519440	0.407620	0.869896
H145	H	1.315225	-0.206135	0.749445
H146	H	1.476975	-0.323655	0.749468
H147	H	1.315224	-0.206141	0.327302
H148	H	1.477026	-0.467674	0.605493
N149	N	1.303464	-0.352064	0.594979
H150	H	1.345255	-0.407558	0.569850
H151	H	1.318996	-0.326918	0.555084
N152	N	0.561356	0.187145	1.029536
H153	H	0.650875	0.158494	1.004418
H154	H	0.545746	0.158551	1.004440
H155	H	1.315241	0.072018	0.471281
H156	H	0.734255	0.350171	0.749434
N157	N	1.581516	-0.471567	0.205805
H158	H	1.602983	-0.456004	0.159049
H159	H	1.550414	-0.502727	0.205835
H160	H	0.549565	-0.071976	0.883628
H161	H	0.549532	0.206212	0.605463
N162	N	1.159427	0.187162	0.594997
H163	H	1.228612	0.192389	0.569864
H164	H	1.164200	0.158539	0.555106
H165	H	0.387761	0.323780	0.605468
H166	H	0.387829	0.467711	0.749445
N167	N	0.932407	-0.116616	0.407842
H168	H	0.932404	-0.152161	0.377484
H169	H	0.858132	-0.092080	0.461709
N170	N	1.488853	-0.082434	0.190686
H171	H	1.420811	-0.061614	0.184618
H172	H	1.525870	-0.137932	0.184648
H173	H	0.387818	0.323716	1.145158
N174	N	1.581536	0.000033	0.205847
H175	H	1.603003	0.031193	0.221411
H176	H	1.550436	0.022597	0.174688
N177	N	1.159400	0.513276	0.595010
H178	H	1.228589	0.518499	0.569880
H179	H	1.164184	0.484646	0.555118
N180	N	1.488849	-0.486727	0.355610
H181	H	1.552106	-0.526657	0.303619
H182	H	1.420746	-0.492736	0.384253
H183	H	0.387745	0.071983	1.145173
N184	N	1.159406	0.647954	0.594990
H185	H	1.142837	0.699936	0.601007
H186	H	1.207107	0.619298	0.539502
H187	H	1.477030	0.072019	0.353756
H188	H	0.734222	0.793842	0.749446
H189	H	0.734256	0.467726	0.749431
N190	N	0.705365	0.678211	0.759951
H191	H	0.636179	0.733701	0.785097
H192	H	0.700642	0.653054	0.799835
N193	N	0.932389	-0.116607	0.273167
H194	H	0.932395	-0.152156	0.303520
H195	H	1.006663	-0.146031	0.219299
H196	H	0.549581	0.350165	0.749440
H197	H	0.932404	-0.101778	0.073171
H198	H	0.932405	-0.101778	-0.044384
H199	H	0.932394	0.101838	0.073178
N200	N	0.932406	0.116663	-0.052943
H201	H	0.932396	0.152217	-0.022584
H202	H	0.858134	0.146083	-0.052847
H203	H	0.932385	0.101835	0.399292
N204	N	0.932372	0.116672	0.273185
H205	H	0.932374	0.108159	0.227221
H206	H	1.006643	0.114199	0.257530
