data_functionalizedCrystal
_audit_creation_method	'MofGen! by Chris Wilmer'
_symmetry_space_group_name_H-M	'P1'
_symmetry_Int_Tables_number	1
_symmetry_cell_setting	triclinic
loop_
_symmetry_equiv_pos_as_xyz
  x,y,z
_cell_length_a	11.026607
_cell_length_b	18.266242
_cell_length_c	11.026607
_cell_angle_alpha	89.998061
_cell_angle_beta	71.413983
_cell_angle_gamma	90.008118
loop_
_atom_site_label
_atom_site_type_symbol
_atom_site_fract_x
_atom_site_fract_y
_atom_site_fract_z
O1	O	1.726742	0.060879	-0.533625
O2	O	1.360162	0.060880	-0.472862
O3	O	1.513070	0.060877	-0.319953
O4	O	1.573833	0.060882	-0.686533
O5	O	1.513035	-0.060885	-0.319941
O6	O	1.360127	-0.060882	-0.472849
O7	O	1.726707	-0.060883	-0.533612
Zn8	Zn	1.543412	-0.080215	-0.503228
Zn9	Zn	1.543457	0.080212	-0.503245
O10	O	1.573799	-0.060880	-0.686520
C11	C	1.312485	-0.000001	-0.461645
C12	C	1.170471	-0.000000	-0.428228
N13	N	1.543390	-0.189702	-0.503218
C14	C	1.116821	0.000002	-0.520498
C15	C	0.970043	0.000002	-0.485962
C16	C	1.637559	-0.228003	-0.597439
C17	C	1.637579	-0.304648	-0.597440
C18	C	1.543410	-0.342988	-0.503230
C19	C	1.449232	-0.304677	-0.408992
C20	C	1.449222	-0.228034	-0.408987
N21	N	1.431035	-0.463341	-0.475368
N22	N	1.431050	-0.536149	-0.475381
C23	C	1.543436	-0.573911	-0.503240
N24	N	1.655814	-0.536114	-0.531110
N25	N	1.655799	-0.463300	-0.531103
C26	C	1.543411	-0.426095	-0.503225
C27	C	1.637635	-0.695320	-0.597468
C28	C	1.637656	-0.771966	-0.597460
C29	C	1.449299	-0.771994	-0.409017
C30	C	1.449288	-0.695349	-0.409020
C31	C	1.543456	-0.657017	-0.503252
C32	C	1.774384	-0.000000	-0.544828
C33	C	1.916398	0.000004	-0.578245
C34	C	1.501843	-0.000003	-0.272287
C35	C	1.468426	-0.000000	-0.130273
N36	N	1.543487	0.189699	-0.503248
C37	C	1.585026	0.000002	-0.734187
C38	C	1.618443	0.000004	-0.876200
C39	C	1.560695	0.000001	-0.076624
C40	C	1.526160	0.000003	0.070155
H41	H	1.179555	-0.000001	-0.625061
H42	H	1.714348	-0.803150	-0.674184
Cl43	Cl	1.755973	-0.352809	-0.715897
Cl44	Cl	1.013235	-0.000004	-0.739696
Cl45	Cl	0.873202	-0.000005	-0.324513
Cl46	Cl	1.779893	0.000007	0.026962
H47	H	1.714312	-0.664108	-0.674196
H48	H	1.372626	-0.803209	-0.332309
Cl49	Cl	1.364710	0.000011	0.166995
H50	H	1.372536	-0.196849	-0.332259
H51	H	1.363863	0.000005	-0.067540
H52	H	1.107738	0.000017	-0.323666
Cl53	Cl	1.722138	0.000005	-0.173469
Cl54	Cl	1.755921	-0.179818	-0.715920
H55	H	1.372560	-0.335899	-0.332285
Cl56	Cl	1.330877	-0.647195	-0.290584
