data_functionalizedCrystal
_audit_creation_method	'MofGen! by Chris Wilmer'
_symmetry_space_group_name_H-M	'P1'
_symmetry_Int_Tables_number	1
_symmetry_cell_setting	triclinic
loop_
_symmetry_equiv_pos_as_xyz
  x,y,z
_cell_length_a	10.489741
_cell_length_b	10.489741
_cell_length_c	8.140239
_cell_angle_alpha	89.996756
_cell_angle_beta	89.999967
_cell_angle_gamma	84.539174
loop_
_atom_site_label
_atom_site_type_symbol
_atom_site_fract_x
_atom_site_fract_y
_atom_site_fract_z
O1	O	1.694051	0.179966	-0.136511
O2	O	1.322855	0.196859	-0.136536
O3	O	1.516899	0.002815	-0.136513
O4	O	1.500006	0.374010	-0.136534
O5	O	1.516888	0.002812	0.136714
O6	O	1.322844	0.196857	0.136691
O7	O	1.694040	0.179964	0.136716
Zn8	Zn	1.508440	0.188410	0.180084
Zn9	Zn	1.508454	0.188413	-0.179904
O10	O	1.499996	0.374008	0.136693
C11	C	1.275318	0.195582	0.000074
C12	C	1.133688	0.191765	0.000064
C13	C	1.065548	0.068300	0.000087
C14	C	0.973427	0.126625	-0.134628
C15	C	0.973450	0.126652	0.134752
C16	C	1.043432	0.250140	-0.134762
C17	C	1.043465	0.250150	0.134740
C18	C	0.951371	0.308564	-0.000008
C19	C	1.515618	-0.044718	0.000099
C20	C	1.511801	-0.186348	0.000096
C21	C	1.388336	-0.254488	0.000076
C22	C	1.446654	-0.346611	0.134795
C23	C	1.446694	-0.346584	-0.134586
C24	C	1.570170	-0.276606	0.134926
C25	C	1.570192	-0.276569	-0.134575
C26	C	1.628600	-0.368665	0.000177
C27	C	1.741577	0.181241	0.000102
C28	C	1.883206	0.185058	0.000101
C29	C	1.501277	0.421541	0.000077
C30	C	1.505094	0.563170	0.000069
N31	N	1.508440	0.188407	0.425767
N32	N	1.508465	0.188406	-0.425587
H33	H	1.115238	-0.033196	-0.000076
H34	H	1.730204	-0.418089	0.000259
Cl35	Cl	1.365996	-0.394494	0.310630
H36	H	0.901947	0.410168	-0.000087
H37	H	0.942417	0.074385	-0.248516
H38	H	1.622393	-0.245523	-0.248469
Cl39	Cl	1.091027	0.330733	-0.310803
H40	H	1.074507	0.302347	0.248633
H41	H	1.394442	-0.377547	-0.248491
Cl42	Cl	0.925618	0.045965	0.310596
Cl43	Cl	1.231612	-0.177830	0.000263
Cl44	Cl	1.650752	-0.229014	0.310968
