data_functionalizedCrystal
_audit_creation_method	'MofGen! by Chris Wilmer'
_symmetry_space_group_name_H-M	'P1'
_symmetry_Int_Tables_number	1
_symmetry_cell_setting	triclinic
loop_
_symmetry_equiv_pos_as_xyz
  x,y,z
_cell_length_a	23.532407
_cell_length_b	10.908937
_cell_length_c	10.066280
_cell_angle_alpha	101.427019
_cell_angle_beta	80.126003
_cell_angle_gamma	108.532684
loop_
_atom_site_label
_atom_site_type_symbol
_atom_site_fract_x
_atom_site_fract_y
_atom_site_fract_z
O1	O	-0.093926	-1.688223	0.113506
O2	O	-0.049402	-1.313794	0.113509
O3	O	-0.155635	-1.512303	0.113482
O4	O	0.012308	-1.489714	0.113533
O5	O	-0.143904	-1.545758	-0.113487
O6	O	-0.037670	-1.347249	-0.113461
O7	O	-0.082194	-1.721678	-0.113464
Zn8	Zn	-0.058070	-1.539776	-0.149498
Zn9	Zn	-0.073526	-1.495697	0.149544
O10	O	0.024039	-1.523169	-0.113437
C11	C	-0.039375	-1.282628	0.000024
C12	C	-0.026983	-1.139918	0.000024
C13	C	-0.170932	-1.528456	-0.000006
C14	C	-0.233989	-1.526729	-0.000016
C15	C	-0.092221	-1.752845	0.000024
C16	C	-0.104613	-1.895553	0.000033
C17	C	-0.642927	-1.633345	0.000058
C18	C	-0.702180	-1.631738	0.000068
O19	O	-0.748040	-1.730575	0.000118
N20	N	-0.713925	-1.513726	0.000068
C21	C	-0.666415	-1.397313	0.000071
O22	O	-0.681847	-1.296788	0.000074
C23	C	-0.607164	-1.398921	0.000071
C24	C	-0.595422	-1.516942	0.000057
C25	C	-0.631183	-1.751357	0.000045
C26	C	-0.571934	-1.752964	0.000032
C27	C	-0.524429	-1.636560	0.000032
C28	C	-0.536173	-1.518549	0.000044
C29	C	-0.559656	-1.282507	0.000084
C30	C	-0.500402	-1.284125	0.000084
C31	C	-0.488660	-1.402146	0.000071
C32	C	-0.429419	-1.403753	0.000030
N33	N	-0.417673	-1.521764	0.000030
C34	C	-0.465179	-1.638168	0.000031
C35	C	-0.790847	-1.393946	0.000075
C36	C	-0.850097	-1.392338	0.000066
C37	C	-0.885857	-1.626763	0.000065
C38	C	-0.826606	-1.628371	0.000064
C39	C	-0.779102	-1.511957	0.000075
C40	C	-0.340750	-1.641535	0.000003
C41	C	-0.281494	-1.643133	-0.000016
C42	C	-0.245739	-1.408708	-0.000008
C43	C	-0.304990	-1.407110	0.000004
C44	C	-0.352495	-1.523533	0.000014
O45	O	-0.383529	-1.304967	-0.000014
O46	O	-0.449738	-1.738674	0.000047
C47	C	0.039336	-1.507016	0.000054
C48	C	0.102393	-1.508742	0.000074
N49	N	-0.047522	-1.569867	-0.353587
C50	C	-0.059398	-0.943987	0.000039
C51	C	-0.072205	-1.091489	0.000018
C52	C	-0.061743	-1.529333	-0.578553
C53	C	-0.069862	-1.506141	-0.421399
N54	N	-0.084079	-1.465615	0.353632
H55	H	-0.271939	-1.739244	-0.000031
H56	H	0.021213	-1.072190	0.000048
F57	F	0.003594	-0.855460	0.000079
H58	H	-0.152806	-0.963284	0.000021
H59	H	-0.022382	-1.641583	-0.411866
H60	H	-0.569204	-1.186401	0.000103
F61	F	-0.135202	-1.180009	0.000001
H62	H	-0.036607	-1.601048	-0.636839
H63	H	-0.094993	-1.434410	-0.363117
H64	H	-0.379425	-1.736337	0.000016
F65	F	-0.559448	-1.878575	0.000047
H66	H	-0.109209	-1.393889	-0.588081
H67	H	-0.817051	-1.724474	0.000054
F68	F	-0.681736	-1.875261	0.000047
H69	H	-0.924548	-1.721545	0.000071
F70	F	-0.862585	-1.266728	0.000056
H71	H	-0.752169	-1.299144	0.000072
H72	H	-0.461725	-1.189324	0.000095
F73	F	-0.317486	-1.281504	-0.000006
H74	H	-0.207050	-1.313936	-0.000013
