data_functionalizedCrystal
_audit_creation_method	'MofGen! by Chris Wilmer'
_symmetry_space_group_name_H-M	'P1'
_symmetry_Int_Tables_number	1
_symmetry_cell_setting	triclinic
loop_
_symmetry_equiv_pos_as_xyz
  x,y,z
_cell_length_a	10.540510
_cell_length_b	10.540510
_cell_length_c	9.616153
_cell_angle_alpha	90.000246
_cell_angle_beta	89.992871
_cell_angle_gamma	84.513311
loop_
_atom_site_label
_atom_site_type_symbol
_atom_site_fract_x
_atom_site_fract_y
_atom_site_fract_z
O1	O	1.685895	0.178718	-0.115646
O2	O	1.316475	0.195613	-0.115646
O3	O	1.509633	0.002456	-0.115646
O4	O	1.492737	0.371875	-0.115647
O5	O	1.509606	0.002460	0.115646
O6	O	1.316449	0.195617	0.115645
O7	O	1.685868	0.178722	0.115645
Zn8	Zn	1.501154	0.187170	0.152368
Zn9	Zn	1.501189	0.187165	-0.152369
O10	O	1.492711	0.371879	0.115645
C11	C	1.269159	0.194356	-0.000001
C12	C	1.128209	0.190589	-0.000001
C13	C	0.910739	0.324775	-0.000533
C14	C	1.057334	0.328793	-0.000003
C15	C	1.083442	0.119845	0.132075
C16	C	0.936681	0.116805	0.132177
C17	C	0.936905	0.113923	-0.130845
C18	C	1.083246	0.120478	-0.132582
C19	C	1.508361	-0.044846	-0.000003
C20	C	1.504594	-0.185795	-0.000011
C21	C	1.638780	-0.403265	0.000519
C22	C	1.642798	-0.256670	-0.000010
C23	C	1.433862	-0.230549	-0.132087
C24	C	1.430823	-0.377309	-0.132190
C25	C	1.427914	-0.377113	0.130831
C26	C	1.434469	-0.230773	0.132570
C27	C	1.733185	0.179979	-0.000003
C28	C	1.874135	0.183746	-0.000012
C29	C	1.493983	0.419181	-0.000001
C30	C	1.497750	0.560130	-0.000002
N31	N	1.501140	0.187173	0.360342
N32	N	1.501214	0.187152	-0.360343
C33	C	1.397498	0.290153	0.580712
C34	C	1.397726	0.290539	0.419544
C35	C	1.633862	0.217293	0.418792
C36	C	1.633297	0.218022	0.580010
C37	C	1.473381	0.053736	0.580254
C38	C	1.470335	0.054601	0.419027
H39	H	1.132325	0.019579	-0.140557
H40	H	1.111870	0.171951	-0.230291
H41	H	1.698142	-0.227330	0.094665
H42	H	0.867216	0.378309	0.093649
H43	H	1.471822	-0.419298	0.230945
C44	C	1.096998	0.403497	-0.127958
N45	N	1.126868	0.459743	-0.224355
C46	C	1.095692	0.404001	0.128131
N47	N	1.124582	0.460646	0.224651
H48	H	0.868791	0.378616	-0.095252
H49	H	1.549003	-0.022928	0.618370
C50	C	1.711512	-0.459958	0.128475
N51	N	1.766295	-0.502669	0.224855
H52	H	0.914763	0.010159	-0.131737
H53	H	1.485936	-0.202164	0.230278
H54	H	1.333569	-0.181695	0.140545
H55	H	1.540871	-0.025728	0.378733
C56	C	1.287740	-0.407042	0.132048
N57	N	1.182166	-0.429597	0.132959
C58	C	1.345370	0.015031	0.635237
N59	N	1.248945	-0.014107	0.676649
C60	C	0.882322	0.182149	0.265540
N61	N	0.841384	0.231377	0.365987
H62	H	0.913696	0.013438	0.138177
H63	H	1.114279	0.168979	0.230366
H64	H	1.698485	-0.228272	-0.094850
C65	C	1.264493	0.266081	0.366158
N66	N	1.164134	0.247667	0.325954
C67	C	1.338426	0.023759	0.367431
N68	N	1.239070	0.000534	0.328562
C69	C	1.263855	0.266073	0.633176
N70	N	1.163193	0.247940	0.672710
C71	C	1.740801	0.120644	0.632686
N72	N	1.821787	0.047316	0.672355
H73	H	1.130842	0.018102	0.136987
H74	H	0.894364	0.157504	-0.230952
H75	H	1.692323	-0.446778	-0.093664
C76	C	1.496174	-0.431653	-0.265557
N77	N	1.545406	-0.472580	-0.366008
H78	H	1.415155	0.388576	0.621210
C79	C	1.296415	-0.166505	-0.138734
N80	N	1.192890	-0.118263	-0.143740
C81	C	1.291182	-0.408364	-0.140315
N82	N	1.186006	-0.431749	-0.146448
H83	H	1.483005	-0.199699	-0.230378
H84	H	1.415615	0.389522	0.380964
H85	H	1.712925	0.144320	0.380439
C86	C	1.666160	0.349527	0.630792
N87	N	1.690904	0.448583	0.669035
H88	H	1.658749	0.313529	0.378401
