data_functionalizedCrystal
_audit_creation_method	'MofGen! by Chris Wilmer'
_symmetry_space_group_name_H-M	'P1'
_symmetry_Int_Tables_number	1
_symmetry_cell_setting	triclinic
loop_
_symmetry_equiv_pos_as_xyz
  x,y,z
_cell_length_a	21.395362
_cell_length_b	8.497374
_cell_length_c	21.395361
_cell_angle_alpha	89.984309
_cell_angle_beta	90.048968
_cell_angle_gamma	89.972946
loop_
_atom_site_label
_atom_site_type_symbol
_atom_site_fract_x
_atom_site_fract_y
_atom_site_fract_z
Zn1	Zn	-0.957730	0.892943	0.249242
Zn2	Zn	-0.957671	0.629112	0.353991
Zn3	Zn	-0.852983	0.629054	0.249265
Zn4	Zn	-0.852914	0.892727	0.354019
O5	O	-0.905324	0.760959	0.301629
O6	O	-1.045400	0.858060	0.263116
O7	O	-0.943788	0.408342	0.340097
O8	O	-0.866932	0.664125	0.161584
O9	O	-1.045356	0.664225	0.340075
O10	O	-0.943888	0.858003	0.161567
O11	O	-0.866874	0.408299	0.263155
O12	O	-0.765296	0.663916	0.263182
O13	O	-0.866814	1.113518	0.340122
O14	O	-0.765245	0.857635	0.340144
O15	O	-0.943821	1.113677	0.263143
O16	O	-0.943721	0.664015	0.441673
O17	O	-0.866756	0.857692	0.441693
C18	C	-0.742537	0.760747	0.301669
C19	C	-0.672895	0.760693	0.301701
C20	C	-0.640172	0.861406	0.341830
C21	C	-0.574737	0.861465	0.341817
C22	C	-0.542027	0.760782	0.301682
C23	C	-0.574758	0.660062	0.261546
C24	C	-0.640192	0.660018	0.261555
C25	C	-0.438323	0.618743	0.296634
C26	C	-0.372890	0.618784	0.296629
C27	C	-0.340206	0.760920	0.301650
C28	C	-0.372964	0.903018	0.306690
C29	C	-0.438398	0.902974	0.306699
C30	C	-0.471075	0.760820	0.301668
C31	C	-0.236531	0.861705	0.341767
C32	C	-0.171094	0.861766	0.341750
C33	C	-0.171117	0.660349	0.261482
C34	C	-0.236552	0.660302	0.261496
C35	C	-0.269255	0.760978	0.301642
C36	C	-0.068748	0.761128	0.301600
C37	C	-0.138389	0.761084	0.301614
C38	C	-0.905320	1.172439	0.301630
C39	C	-0.905321	1.351083	0.301637
C40	C	-0.905242	0.760871	0.464417
C41	C	-0.905263	0.760886	0.534058
C42	C	-0.905424	0.761082	0.138206
C43	C	-0.905467	0.761134	0.068564
C44	C	-0.945374	0.660142	0.566740
C45	C	-0.945403	0.660178	0.632175
C46	C	-0.905311	0.760940	0.664926
C47	C	-0.865197	0.861704	0.632237
C48	C	-0.865173	0.861677	0.566803
C49	C	-0.848894	0.773245	0.768660
C50	C	-0.848917	0.773261	0.834093
C51	C	-0.905384	0.761033	0.866747
C52	C	-0.961830	0.748756	0.833960
C53	C	-0.961806	0.748729	0.768526
C54	C	-0.905332	0.760982	0.735879
C55	C	-0.945529	0.660322	0.970381
C56	C	-0.945559	0.660368	1.035818
C57	C	-0.865347	0.861887	1.035878
C58	C	-0.865323	0.861849	0.970443
C59	C	-0.905413	0.761058	0.937698
H60	H	-0.548088	0.943483	0.374495
H61	H	-0.263195	0.578283	0.228822
O62	O	-0.794096	0.784913	0.865969
C63	C	-0.723957	0.664141	0.939986
C64	C	-0.786050	0.650721	0.903915
H65	H	-0.717438	0.555678	0.970683
H66	H	-0.683565	0.672807	0.905440
H67	H	-0.724922	0.773949	0.970572
H68	H	-0.785147	0.540918	0.873327
H69	H	-0.826415	0.642143	0.938494
H70	H	-0.978226	0.578333	1.062426
H71	H	-0.802908	0.783208	0.742079
H72	H	-0.346224	0.503079	0.292529
H73	H	-0.978069	0.578140	0.658790
H74	H	-0.832510	0.943717	0.540193
H75	H	-0.666835	0.578005	0.228876
O76	O	-0.826337	0.959661	0.664117
C77	C	-0.817865	1.172714	0.737941
C78	C	-0.861942	1.061842	0.701888
H79	H	-0.846634	1.255377	0.768477
H80	H	-0.785148	1.100274	0.768669
H81	H	-0.789177	1.244645	0.703328
H82	H	-0.890671	0.989887	0.736456
H83	H	-0.894618	1.134372	0.671150
O84	O	-0.826442	0.959868	0.938665
C85	C	-0.817909	1.172736	0.864733
C86	C	-0.862013	1.061843	0.900692
H87	H	-0.846649	1.255189	0.834013
H88	H	-0.789268	1.244876	0.899351
H89	H	-0.785149	1.100149	0.834179
H90	H	-0.894810	1.134308	0.931246
H91	H	-0.890609	0.989698	0.866040
H92	H	-0.465066	1.018675	0.310800
H93	H	-1.007811	0.738800	0.860546
H94	H	-0.548122	0.578089	0.228867
O95	O	-1.016666	0.736603	0.736746
C96	C	-1.108501	0.580526	0.716603
C97	C	-1.046394	0.594067	0.752643
H98	H	-1.132547	0.465278	0.729432
H99	H	-1.140140	0.683545	0.729424
H100	H	-1.098769	0.582690	0.664231
H101	H	-1.056067	0.591860	0.805023
H102	H	-1.014774	0.491053	0.739770
O103	O	-0.671842	0.959357	0.380843
C104	C	-0.664911	1.159061	0.460484
C105	C	-0.628966	1.048237	0.416326
H106	H	-0.630261	1.230925	0.489194
H107	H	-0.695580	1.241774	0.431806
H108	H	-0.695509	1.086434	0.493177
H109	H	-0.598333	1.120737	0.383624
H110	H	-0.598336	0.965518	0.445043
H111	H	-0.346354	1.018759	0.310777
H112	H	-0.978019	0.578077	0.540081
H113	H	-0.263159	0.943689	0.374453
H114	H	-0.978175	0.578257	0.943719
H115	H	-0.144485	0.578379	0.228801
O116	O	-0.139401	0.959652	0.380794
C117	C	-0.146287	1.159458	0.460394
C118	C	-0.182258	1.048659	0.416218
H119	H	-0.180921	1.231472	0.489036
H120	H	-0.115614	1.086963	0.493143
H121	H	-0.115690	1.242046	0.431669
H122	H	-0.212889	0.966049	0.444892
H123	H	-0.212891	1.121252	0.383467
O124	O	-0.469972	0.480513	0.291785
C125	C	-0.462992	0.198600	0.281790
C126	C	-0.427074	0.355019	0.287288
H127	H	-0.428326	0.097101	0.278139
H128	H	-0.493558	0.181632	0.324886
H129	H	-0.493692	0.201289	0.238226
H130	H	-0.396340	0.352443	0.330827
H131	H	-0.396548	0.371928	0.244161
H132	H	-0.832706	0.943937	1.062544
