data_functionalizedCrystal
_audit_creation_method	'MofGen! by Chris Wilmer'
_symmetry_space_group_name_H-M	'P1'
_symmetry_Int_Tables_number	1
_symmetry_cell_setting	triclinic
loop_
_symmetry_equiv_pos_as_xyz
  x,y,z
_cell_length_a	31.640172
_cell_length_b	31.640171
_cell_length_c	18.878441
_cell_angle_alpha	59.981811
_cell_angle_beta	59.997245
_cell_angle_gamma	89.983980
loop_
_atom_site_label
_atom_site_type_symbol
_atom_site_fract_x
_atom_site_fract_y
_atom_site_fract_z
Zr1	Zr	-0.055596	0.407188	0.775240
O2	O	-0.123091	0.427868	0.775248
O3	O	-0.034888	0.339699	0.775258
O4	O	-0.123070	0.339686	0.923057
O5	O	0.034631	0.497452	0.510840
O6	O	-0.123072	0.339686	1.039629
O7	O	-0.034909	0.427881	0.627449
O8	O	0.034669	0.339710	0.775244
O9	O	-0.123111	0.497427	0.775225
O10	O	-0.026079	0.384795	0.862238
O11	O	0.025820	0.436715	0.688217
O12	O	-0.078003	0.436699	0.862232
O13	O	-0.026104	0.488618	0.688211
Zr14	Zr	0.055309	0.518145	0.775181
Zr15	Zr	-0.055600	0.407188	0.961159
Zr16	Zr	0.055313	0.518145	0.589262
Zr17	Zr	-0.055627	0.518128	0.775204
Zr18	Zr	0.055340	0.407206	0.775217
O19	O	0.034601	0.585634	0.775163
O20	O	-0.123097	0.427868	1.039600
O21	O	0.034606	0.585633	0.510811
O22	O	0.122804	0.497466	0.775173
O23	O	-0.034893	0.339700	1.039610
O24	O	0.122810	0.497465	0.510821
O25	O	-0.034918	0.427882	1.039581
O26	O	0.122783	0.585647	0.627364
O27	O	0.122785	0.585647	0.510792
O28	O	0.034622	0.497452	0.922972
O29	O	-0.123113	0.497427	0.923006
O30	O	0.122826	0.427906	0.627416
O31	O	0.122823	0.427906	0.775196
O32	O	0.034666	0.339711	0.923024
O33	O	-0.034953	0.585623	0.627397
O34	O	-0.034956	0.585623	0.775178
O35	O	0.077716	0.488634	0.688189
O36	O	0.025817	0.436715	0.862210
O37	O	-0.026107	0.488618	0.862204
O38	O	0.025792	0.540538	0.688183
C39	C	-0.000105	0.323898	0.775256
C40	C	-0.000092	0.276802	0.775271
C41	C	-0.138907	0.462645	0.775240
C42	C	-0.186002	0.462637	0.775250
C43	C	0.038173	-0.059481	0.775215
C44	C	0.038201	0.117500	0.775244
O45	O	0.070782	0.140364	0.775281
N46	N	-0.000115	0.139641	0.775255
C47	C	-0.038444	0.117531	0.775266
O48	O	-0.071038	0.140420	0.775287
C49	C	-0.038474	-0.059452	0.775245
C50	C	-0.000152	-0.081587	0.775223
C51	C	0.076492	-0.081617	0.775195
C52	C	0.076486	-0.125858	0.775182
C53	C	0.038161	-0.147964	0.775190
C54	C	-0.000158	-0.125828	0.775210
C55	C	-0.076805	-0.081563	0.775263
C56	C	-0.076810	-0.125813	0.775260
C57	C	-0.038487	-0.147948	0.775238
C58	C	-0.038489	-0.192175	0.775205
N59	N	-0.000172	-0.214316	0.775194
C60	C	0.038153	-0.192210	0.775186
C61	C	-0.038425	0.210450	0.775276
C62	C	-0.038417	0.254696	0.775279
C63	C	0.038228	0.254662	0.775259
C64	C	0.038222	0.210417	0.775248
C65	C	-0.000108	0.188310	0.775264
C66	C	0.038138	-0.285119	0.775159
C67	C	0.038130	-0.329363	0.775142
C68	C	-0.038517	-0.329326	0.775168
C69	C	-0.038507	-0.285085	0.775179
C70	C	-0.000177	-0.262983	0.775178
O71	O	-0.071056	-0.215069	0.775180
O72	O	0.070735	-0.215113	0.775188
C73	C	0.038179	-0.015240	0.775228
C74	C	-0.000140	0.006895	0.775248
C75	C	-0.038465	-0.015211	0.775256
C76	C	-0.000132	0.051141	0.775252
C77	C	0.038193	0.073247	0.775244
C78	C	0.076510	0.051107	0.775233
C79	C	0.076504	0.006866	0.775220
C80	C	-0.076782	0.006930	0.775268
C81	C	-0.076773	0.051171	0.775279
C82	C	-0.038448	0.073277	0.775271
C83	C	-0.450917	0.489778	0.684364
C84	C	-0.627902	0.489791	0.684347
O85	O	-0.627749	0.512859	0.607093
N86	N	-0.677123	0.462689	0.775183
C87	C	-0.682096	0.435585	0.866030
O88	O	-0.728022	0.412538	0.943291
C89	C	-0.505111	0.435576	0.866046
C90	C	-0.455892	0.462675	0.775204
C91	C	-0.401700	0.516876	0.593530
C92	C	-0.357456	0.516870	0.593535
C93	C	-0.362431	0.489767	0.684375
C94	C	-0.411648	0.462669	0.775210
C95	C	-0.510085	0.408475	0.956892
C96	C	-0.465834	0.408476	0.956888
C97	C	-0.416614	0.435575	0.866046
C98	C	-0.372379	0.435560	0.866055
N99	N	-0.323159	0.462662	0.775219
C100	C	-0.318185	0.489765	0.684379
C101	C	-0.775013	0.435591	0.866015
C102	C	-0.819260	0.435593	0.866011
C103	C	-0.765063	0.489799	0.684328
C104	C	-0.720816	0.489795	0.684333
C105	C	-0.725793	0.462693	0.775179
C106	C	-0.225272	0.489751	0.684397
C107	C	-0.181027	0.489741	0.684410
C108	C	-0.235228	0.435536	0.866093
C109	C	-0.279469	0.435544	0.866080
C110	C	-0.274488	0.462655	0.775224
O111	O	-0.372494	0.412509	0.943268
O112	O	-0.272254	0.512818	0.607129
C113	C	-0.495161	0.489784	0.684359
C114	C	-0.544378	0.462686	0.775194
C115	C	-0.549353	0.435583	0.866034
C116	C	-0.588624	0.462688	0.775190
C117	C	-0.583650	0.489791	0.684350
C118	C	-0.534430	0.516893	0.593514
C119	C	-0.490186	0.516887	0.593519
C120	C	-0.598573	0.408481	0.956870
C121	C	-0.642814	0.408489	0.956857
C122	C	-0.637840	0.435592	0.866017
C123	C	0.138620	0.462688	0.775181
C124	C	0.185715	0.462696	0.775171
C125	C	-0.000139	0.462666	0.542655
C126	C	-0.000137	0.462666	0.463728
C127	C	-0.000182	0.601435	0.775165
C128	C	-0.000195	0.648531	0.775150
C129	C	0.026965	0.435572	0.426653
C130	C	0.026965	0.435574	0.352491
C131	C	-0.000140	0.462668	0.315411
C132	C	-0.027243	0.489766	0.352489
C133	C	-0.027240	0.489766	0.426644
C134	C	-0.027248	0.489762	0.197927
C135	C	-0.027252	0.489761	0.123768
C136	C	0.026957	0.435570	0.123775
C137	C	0.026960	0.435571	0.197930
C138	C	-0.000144	0.462668	0.235004
C139	C	-0.000148	0.462667	1.007766
C140	C	-0.000150	0.462667	1.086694
C141	C	-0.138873	0.323877	1.007841
C142	C	-0.185957	0.276773	1.086794
C143	C	-0.000110	0.323899	1.007812
C144	C	-0.000098	0.276802	1.086754
C145	C	0.138625	0.462688	0.542626
C146	C	0.185721	0.462696	0.463688
C147	C	-0.000177	0.601434	0.542609
C148	C	-0.000189	0.648531	0.463667
C149	C	0.138586	0.601456	0.542580
C150	C	0.185670	0.648560	0.463627
C151	C	-0.138912	0.462645	1.007796
C152	C	-0.186008	0.462638	1.086733
C153	C	-0.235176	0.281745	1.123876
C154	C	-0.279420	0.237490	1.198071
C155	C	-0.274444	0.188263	1.235177
C156	C	-0.225220	0.183292	1.198093
C157	C	-0.180976	0.227546	1.123904
C158	C	-0.027187	0.227579	1.123849
C159	C	-0.027186	0.183322	1.198034
C160	C	-0.000094	0.188290	1.235119
C161	C	0.026995	0.237519	1.198021
C162	C	0.026991	0.281774	1.123842
C163	C	0.234932	0.489805	0.426596
C164	C	0.279188	0.489822	0.352416
C165	C	0.274233	0.462727	0.315334
C166	C	0.225017	0.435616	0.352429
C167	C	0.180762	0.435602	0.426603
C168	C	0.026895	0.697754	0.426580
C169	C	0.026882	0.742011	0.352415
C170	C	-0.000211	0.737043	0.315333
C171	C	-0.027298	0.687814	0.352428
C172	C	-0.027288	0.643559	0.426596
C173	C	0.180677	0.697778	0.426539
C174	C	0.224913	0.742042	0.352345
C175	C	0.274141	0.737086	0.315244
C176	C	0.279133	0.687863	0.352335
C177	C	0.234897	0.643600	0.426524
C178	C	-0.181036	0.489736	1.123796
C179	C	-0.225284	0.489727	1.197975
C180	C	-0.274504	0.462623	1.235086
C181	C	-0.279474	0.435522	1.198020
C182	C	-0.235227	0.435528	1.123847
H183	H	0.069350	-0.267129	0.775158
O184	O	-0.127939	0.518968	0.586425
H185	H	-0.106483	0.548914	0.582069
H186	H	0.319257	0.511899	0.322225
O187	O	-0.240550	0.334838	1.083866
H188	H	-0.282211	0.330852	1.122135
O189	O	-0.872345	0.406365	0.963990
H190	H	-0.868364	0.387526	1.027151
O191	O	-0.000088	0.140556	1.315120
H192	H	-0.023472	0.105495	1.334670
O193	O	-0.332509	0.242858	1.238053
H194	H	-0.328532	0.284524	1.199767
O195	O	-0.219918	0.518961	1.237943
H196	H	-0.178258	0.537814	1.199660
H197	H	-0.140901	0.223491	1.093713
O198	O	-0.322224	0.462625	1.315082
H199	H	-0.357288	0.439224	1.334670
H200	H	-0.049309	0.511837	0.228094
H201	H	0.220838	0.782117	0.322157
O202	O	-0.056500	0.590470	0.466585
H203	H	-0.051948	0.560526	0.524395
O204	O	-0.322166	0.140533	1.315187
H205	H	-0.357225	0.152266	1.334724
O206	O	-0.056417	0.222214	1.083872
H207	H	-0.040762	0.200721	1.050104
O208	O	0.056117	0.703119	0.466570
H209	H	0.028762	0.684242	0.548391
H210	H	-0.140964	0.511809	1.093588
H211	H	-0.221176	0.143206	1.228317
H212	H	-0.319555	0.413455	1.228247
O213	O	-0.240591	0.406299	1.083873
H214	H	-0.221735	0.433657	1.002054
H215	H	0.069339	-0.347382	0.775121
H216	H	0.069427	0.192398	0.775231
H217	H	0.049052	0.321852	1.093641
H218	H	0.140694	0.413523	0.456802
H219	H	-0.469892	0.386407	1.030868
O220	O	0.056108	0.795103	0.312400
H221	H	0.040457	0.799597	0.374658
H222	H	0.049052	0.241556	1.228227
O223	O	0.117809	-0.149740	0.775193
H224	H	0.144451	-0.126935	0.775207
O225	O	0.240282	0.519034	0.466580
H226	H	0.281940	0.537890	0.428307
H227	H	0.049022	0.413503	0.093592
H228	H	0.310273	0.462743	0.254937
O229	O	-0.780395	0.406357	0.964015
H230	H	-0.761548	0.433713	0.968366
O231	O	0.127583	0.703130	0.466540
H232	H	0.131552	0.744794	0.428266
O233	O	0.219675	0.406376	0.312459
H234	H	0.258719	0.410934	0.254669
O235	O	-0.000203	0.784777	0.235308
H236	H	0.023193	0.819838	0.215739
H237	H	0.319220	0.683835	0.322117
O238	O	0.117834	-0.057775	0.775178
H239	H	0.144476	-0.080605	0.775156
O240	O	-0.056520	0.682461	0.312429
H241	H	-0.029162	0.701333	0.230611
O242	O	0.079561	0.278502	0.775269
H243	H	0.073121	0.312984	0.775287
H244	H	0.310156	0.773131	0.254834
H245	H	0.049026	0.413503	0.228127
H246	H	-0.049323	0.511823	0.093580
O247	O	0.240279	0.590512	0.466543
H248	H	0.221418	0.569059	0.548360
O249	O	-0.056402	0.130230	1.238037
H250	H	-0.040731	0.125734	1.175777
O251	O	-0.079750	0.278569	0.775303
H252	H	-0.106403	0.255755	0.775322
H253	H	-0.069639	0.192454	0.775288
H254	H	-0.108015	-0.063552	0.775292
H255	H	-0.108025	-0.143812	0.775277
O256	O	-0.056482	0.518983	0.312504
H257	H	-0.029139	0.548934	0.230678
H258	H	-0.069718	-0.347331	0.775169
O259	O	-0.079838	-0.261205	0.775199
H260	H	-0.106489	-0.284013	0.775207
H261	H	0.107710	-0.011153	0.775203
H262	H	0.107717	0.069115	0.775220
H263	H	-0.397640	0.538949	0.519553
O264	O	-0.118112	0.075040	0.775315
H265	H	-0.144765	0.052227	0.775333
H266	H	-0.221209	0.511827	0.610413
O267	O	-0.118119	-0.016911	0.775275
H268	H	-0.116233	0.011862	0.707355
O269	O	-0.304372	0.546100	0.495554
H270	H	-0.299878	0.587750	0.451993
O271	O	-0.667730	0.519026	0.586355
H272	H	-0.671711	0.537873	0.523194
H273	H	-0.550156	0.386409	1.030864
O274	O	-0.759699	0.519038	0.586346
H275	H	-0.798737	0.514488	0.601614
O276	O	-0.332559	0.406315	0.964055
H277	H	-0.328583	0.387470	1.027222
H278	H	-0.239271	0.413467	0.940054
H279	H	-0.530386	0.538958	0.519549
O280	O	-0.437101	0.546116	0.495539
H281	H	-0.432605	0.587766	0.451975
O282	O	-0.695902	0.379264	1.054843
H283	H	-0.691921	0.360425	1.118005
O284	O	-0.603936	0.379249	1.054846
H285	H	-0.625414	0.337600	1.098407
O286	O	0.056197	0.406347	0.466651
H287	H	0.097840	0.422015	0.404384
O288	O	0.056190	0.406342	0.312520
H289	H	0.097833	0.422000	0.278730
O290	O	-0.056474	0.518986	0.466643
H291	H	-0.075327	0.537821	0.428410
