data_functionalizedCrystal
_audit_creation_method	'MofGen! by Chris Wilmer'
_symmetry_space_group_name_H-M	'P1'
_symmetry_Int_Tables_number	1
_symmetry_cell_setting	triclinic
loop_
_symmetry_equiv_pos_as_xyz
  x,y,z
_cell_length_a	9.065215
_cell_length_b	10.723022
_cell_length_c	8.140239
_cell_angle_alpha	89.997644
_cell_angle_beta	89.997810
_cell_angle_gamma	84.740962
loop_
_atom_site_label
_atom_site_type_symbol
_atom_site_fract_x
_atom_site_fract_y
_atom_site_fract_z
O1	O	1.959360	0.182967	-0.136590
O2	O	1.529989	0.197980	-0.136597
O3	O	1.754580	0.008937	-0.136587
O4	O	1.734770	0.372010	-0.136600
O5	O	1.754568	0.008935	0.136640
O6	O	1.529977	0.197978	0.136630
O7	O	1.959348	0.182965	0.136637
Zn8	Zn	1.744660	0.190471	0.180014
Zn9	Zn	1.744677	0.190474	-0.179974
O10	O	1.734757	0.372007	0.136628
C11	C	1.475005	0.196537	0.000016
C12	C	1.311186	0.192225	0.000013
C13	C	1.753133	-0.037569	0.000024
C14	C	1.748821	-0.176141	0.000019
C15	C	1.619307	-0.225227	0.000014
C16	C	1.614848	-0.368448	0.000008
C17	C	2.014332	0.184408	0.000021
C18	C	2.178151	0.188719	0.000013
C19	C	1.736204	0.418514	0.000012
C20	C	1.740516	0.557086	0.000007
N21	N	1.744660	0.190468	0.425697
N22	N	1.744689	0.190467	-0.425657
H23	H	1.511727	-0.161221	0.000022
H24	H	1.856401	-0.240147	0.000026
C25	C	1.467128	-0.425027	0.000082
C26	C	1.492072	-0.555832	0.000116
C27	C	1.356024	-0.607996	0.000205
H28	H	1.412481	-0.398389	-0.095171
H29	H	1.412573	-0.398333	0.095402
H30	H	1.546604	-0.582514	-0.095194
H31	H	1.546696	-0.582505	0.095362
H32	H	1.301469	-0.581302	0.095525
H33	H	1.301388	-0.581348	-0.095050
H34	H	1.372930	-0.696751	0.000243
H35	H	1.851411	-0.400661	-0.000049
