data_functionalizedCrystal
_audit_creation_method	'MofGen! by Chris Wilmer'
_symmetry_space_group_name_H-M	'P1'
_symmetry_Int_Tables_number	1
_symmetry_cell_setting	triclinic
loop_
_symmetry_equiv_pos_as_xyz
  x,y,z
_cell_length_a	14.853566
_cell_length_b	27.732048
_cell_length_c	13.330367
_cell_angle_alpha	89.990394
_cell_angle_beta	89.995295
_cell_angle_gamma	83.138535
loop_
_atom_site_label
_atom_site_type_symbol
_atom_site_fract_x
_atom_site_fract_y
_atom_site_fract_z
O1	O	1.195343	0.063104	-0.083369
O2	O	0.932761	0.070622	-0.083386
O3	O	1.072207	-0.003496	-0.083358
O4	O	1.055897	0.137221	-0.083397
O5	O	1.072187	-0.003498	0.083489
O6	O	0.932741	0.070620	0.083461
O7	O	1.195323	0.063102	0.083479
Cu8	Cu	1.064030	0.066861	0.098704
Cu9	Cu	1.064054	0.066863	-0.098612
O10	O	1.055877	0.137220	0.083450
C11	C	0.899168	0.070280	0.000035
C12	C	0.799101	0.069260	0.000029
C13	C	0.375997	0.064945	-0.090900
C14	C	0.375996	0.064943	0.091003
C15	C	0.470015	0.065901	0.090999
C16	C	0.517029	0.066382	0.000045
C17	C	0.470024	0.065904	-0.090907
C18	C	0.517026	0.066384	0.181949
C19	C	0.611050	0.067343	0.181949
C20	C	0.658066	0.067820	0.090994
C21	C	0.611055	0.067342	0.000039
C22	C	0.658069	0.067823	-0.090916
C23	C	0.611061	0.067341	-0.181872
C24	C	0.517040	0.066382	-0.181862
C25	C	0.752087	0.068779	0.090984
C26	C	0.752096	0.068782	-0.090922
C27	C	1.071855	-0.021505	0.000068
C28	C	1.070824	-0.075165	0.000077
C29	C	1.146737	-0.413625	0.000030
C30	C	1.142912	-0.615303	0.000016
O31	O	1.212329	-0.646234	-0.000023
N32	N	1.060226	-0.634813	0.000011
C33	C	0.978491	-0.603900	0.000004
O34	O	0.908074	-0.625122	-0.000011
C35	C	0.982317	-0.402224	0.000011
C36	C	1.065008	-0.382717	0.000026
C37	C	1.229422	-0.394117	0.000044
C38	C	1.230377	-0.343701	0.000053
C39	C	1.148648	-0.312792	0.000048
C40	C	1.065963	-0.332300	0.000035
C41	C	0.900582	-0.371312	-0.000004
C42	C	0.901546	-0.320890	-0.000005
C43	C	0.984237	-0.301383	0.000010
C44	C	0.985190	-0.250975	0.000039
N45	N	1.067876	-0.231465	0.000044
C46	C	1.149605	-0.262373	0.000048
C47	C	0.976488	-0.709784	0.000002
C48	C	0.975531	-0.760203	0.000002
C49	C	1.139953	-0.771602	0.000013
C50	C	1.140908	-0.721182	0.000020
C51	C	1.059174	-0.690274	0.000007
C52	C	1.151605	-0.156495	0.000068
C53	C	1.152553	-0.106074	0.000081
C54	C	0.988132	-0.094679	0.000066
C55	C	0.987183	-0.145096	0.000058
C56	C	1.068927	-0.176003	0.000056
O57	O	0.915810	-0.220015	0.000067
O58	O	1.220011	-0.241142	0.000041
C59	C	1.145782	-0.464042	0.000021
C60	C	1.063097	-0.483549	0.000008
C61	C	0.981368	-0.452641	0.000003
C62	C	1.062140	-0.533968	0.000008
C63	C	1.143869	-0.564877	0.000012
C64	C	1.226555	-0.545367	0.000017
C65	C	1.227511	-0.494950	0.000026
C66	C	0.898682	-0.472151	-0.000002
C67	C	0.897734	-0.522568	-0.000010
C68	C	0.979463	-0.553476	-0.000005
C69	C	1.228916	0.063443	0.000055
C70	C	1.328983	0.064464	0.000054
C71	C	1.056229	0.155229	0.000021
C72	C	1.057260	0.208889	0.000007
N73	N	1.064020	0.066859	0.237486
N74	N	1.064071	0.066861	-0.237393
C75	C	1.002305	0.099669	0.710096
C76	C	1.125827	0.034053	0.710089
C77	C	1.125817	0.034051	0.605071
C78	C	1.064051	0.066860	0.552560
C79	C	1.002294	0.099670	0.605068
C80	C	1.187579	0.001245	0.552555
C81	C	1.187572	0.001243	0.447531
C82	C	1.125800	0.034049	0.395018
C83	C	1.064040	0.066860	0.447532
C84	C	1.002274	0.099669	0.395021
C85	C	0.940509	0.132478	0.447534
C86	C	0.940523	0.132476	0.552555
C87	C	1.125787	0.034051	0.289996
C88	C	1.002264	0.099669	0.289993
H89	H	1.218169	-0.181654	0.000063
O90	O	1.319570	-0.322668	0.000041
H91	H	1.358810	-0.335091	0.068036
H92	H	1.295979	-0.419279	0.000044
H93	H	0.790368	0.069172	-0.164990
H94	H	0.790355	0.069176	0.165039
H95	H	0.832127	-0.446989	-0.000008
H96	H	0.649351	0.067736	-0.255927
H97	H	0.649316	0.067734	0.256011
H98	H	1.219893	-0.090194	0.000096
O99	O	0.813383	-0.287556	-0.000008
H100	H	0.809885	-0.264307	-0.068012
H101	H	1.208243	-0.705303	0.000031
O102	O	1.228103	-0.804946	0.000019
H103	H	1.285768	-0.782915	0.000027
O104	O	0.325311	0.064423	-0.189005
H105	H	0.273982	0.096905	-0.193377
O106	O	0.886344	-0.781241	-0.000001
H107	H	0.829678	-0.751273	-0.000013
O108	O	0.888326	-0.676449	0.000009
H109	H	0.830677	-0.698491	0.000021
O110	O	0.324985	0.064689	0.188942
H111	H	0.290387	0.031426	0.193533
O112	O	0.935646	0.135057	0.233356
H113	H	0.892708	0.157872	0.287517
H114	H	0.919849	-0.160979	0.000073
O115	O	0.811394	-0.392345	-0.000024
H116	H	0.754733	-0.362375	-0.000039
O117	O	0.466341	0.065869	-0.279960
H118	H	0.393062	0.065128	-0.264672
H119	H	0.890222	0.159193	0.404767
H120	H	0.890237	0.159189	0.595317
H121	H	1.293102	-0.570542	0.000025
H122	H	0.478739	0.065996	0.255999
O123	O	0.899982	-0.061338	0.000059
H124	H	0.914547	-0.023003	0.000056
O125	O	0.935693	0.135058	0.766722
H126	H	0.946076	0.129550	0.848574
O127	O	1.316699	-0.473912	0.000022
H128	H	1.373361	-0.503882	0.000011
H129	H	0.830392	-0.538445	-0.000013
H130	H	1.176120	0.007343	0.752847
O131	O	1.254198	-0.034139	0.609186
H132	H	1.243820	-0.028631	0.691036
H133	H	1.237862	-0.025472	0.404782
H134	H	1.176078	0.007340	0.247246
