data_functionalizedCrystal
_audit_creation_method	'MofGen! by Chris Wilmer'
_symmetry_space_group_name_H-M	'P1'
_symmetry_Int_Tables_number	1
_symmetry_cell_setting	triclinic
loop_
_symmetry_equiv_pos_as_xyz
  x,y,z
_cell_length_a	16.974897
_cell_length_b	16.992696
_cell_length_c	15.455283
_cell_angle_alpha	92.849652
_cell_angle_beta	83.361580
_cell_angle_gamma	92.973182
loop_
_atom_site_label
_atom_site_type_symbol
_atom_site_fract_x
_atom_site_fract_y
_atom_site_fract_z
O1	O	1.062095	-0.106243	-0.146627
O2	O	1.562095	0.393757	0.353373
O3	O	0.831964	-0.118270	-0.130493
O4	O	1.331964	0.381730	0.369507
O5	O	0.946106	0.001889	-0.138471
O6	O	1.446106	0.501889	0.361529
O7	O	0.947954	-0.226402	-0.138648
O8	O	1.447954	0.273598	0.361352
O9	O	0.939538	0.008068	0.006254
O10	O	1.439538	0.508068	0.506254
O11	O	0.825396	-0.112092	0.014232
O12	O	1.325396	0.387908	0.514232
O13	O	1.055527	-0.100064	-0.001902
O14	O	1.555527	0.399936	0.498098
Cu15	Cu	0.939862	-0.105514	0.019380
Cu16	Cu	1.439862	0.394486	0.519380
Cu17	Cu	0.947630	-0.112821	-0.151774
Cu18	Cu	1.447630	0.387179	0.348226
O19	O	0.941386	-0.220223	0.006076
O20	O	1.441386	0.279777	0.506076
C21	C	0.799098	-0.114607	-0.056056
C22	C	1.299098	0.385393	0.443944
C23	C	0.710950	-0.112886	-0.049875
C24	C	1.210950	0.387114	0.450125
C25	C	0.673111	-0.115448	-0.125854
C26	C	1.173111	0.384552	0.374146
C27	C	0.590285	-0.113843	-0.120034
C28	C	1.090285	0.386157	0.379966
C29	C	0.545301	-0.109671	-0.038233
C30	C	1.045301	0.390329	0.461767
C31	C	0.583145	-0.107112	0.037752
C32	C	1.083145	0.392888	0.537752
C33	C	0.665969	-0.108722	0.031931
C34	C	1.165969	0.391278	0.531931
C35	C	0.297211	-0.104500	-0.012363
C36	C	0.797211	0.395500	0.487637
C37	C	0.214382	-0.102887	-0.006548
C38	C	0.714382	0.397113	0.493452
C39	C	0.221527	-0.109620	-0.164334
C40	C	0.721527	0.390380	0.335666
C41	C	0.304352	-0.111225	-0.170148
C42	C	0.804352	0.388775	0.329852
C43	C	0.342189	-0.108670	-0.094163
C44	C	0.842189	0.391330	0.405837
N45	N	0.460640	-0.108029	-0.032282
N46	N	0.960640	0.391971	0.467718
N47	N	0.426848	-0.110318	-0.100116
N48	N	0.926848	0.389682	0.399884
C49	C	0.940448	0.034196	-0.065938
C50	C	1.440448	0.534196	0.434062
C51	C	0.933365	0.121254	-0.065428
C52	C	1.433365	0.621254	0.434572
C53	C	1.001697	0.171361	-0.070211
C54	C	1.501697	0.671361	0.429789
C55	C	0.995037	0.253160	-0.069740
C56	C	1.495037	0.753160	0.430260
C57	C	0.920046	0.284853	-0.064480
C58	C	1.420046	0.784853	0.435520
C59	C	0.851709	0.234740	-0.059699
C60	C	1.351709	0.734740	0.440301
C61	C	0.858369	0.152941	-0.060177
C62	C	1.358369	0.652941	0.439823
C63	C	0.892442	0.528506	-0.062520
C64	C	1.392442	1.028506	0.437480
C65	C	0.885786	0.610311	-0.062040
C66	C	1.385786	1.110311	0.437960
C67	C	1.029116	0.628726	-0.072082
C68	C	1.529116	1.128726	0.427918
C69	C	1.035769	0.546925	-0.072554
C70	C	1.535769	1.046925	0.427446
C71	C	0.967433	0.496819	-0.067778
C72	C	1.467433	0.996819	0.432222
N73	N	0.913237	0.368465	-0.063996
N74	N	1.413237	0.868465	0.436004
N75	N	0.974243	0.413208	-0.068269
N76	N	1.474243	0.913208	0.431731
C77	C	1.088394	-0.103728	-0.076340
C78	C	1.588394	0.396272	0.423660
C79	C	1.176542	-0.105449	-0.082527
C80	C	1.676542	0.394551	0.417473
C81	C	0.947041	0.747471	-0.066421
C82	C	1.447041	1.247471	0.433579
C83	C	0.954118	0.660417	-0.066823
C84	C	1.454118	1.160417	0.433177
N85	N	0.953093	-0.117954	-0.272155
N86	N	1.453093	0.382046	0.227845
C87	C	0.904139	-0.072102	-0.314100
C88	C	1.404139	0.427898	0.185900
C89	C	0.908281	-0.075963	-0.405199
C90	C	1.408281	0.424037	0.094801
C91	C	0.961373	-0.125681	-0.454352
C92	C	1.461373	0.374319	0.045648
C93	C	1.010332	-0.171535	-0.412401
C94	C	1.510332	0.328465	0.087599
C95	C	1.006194	-0.167669	-0.321303
C96	C	1.506194	0.332331	0.178697
C97	C	0.979225	-0.142362	-0.727191
C98	C	1.479225	0.357638	-0.227191
C99	C	0.983359	-0.146226	-0.818295
C100	C	1.483359	0.353774	-0.318295
C101	C	0.881308	-0.050653	-0.811087
C102	C	1.381308	0.449347	-0.311087
C103	C	0.877171	-0.046795	-0.719988
C104	C	1.377171	0.453205	-0.219988
C105	C	0.926133	-0.092646	-0.678045
C106	C	1.426133	0.407354	-0.178045
N107	N	0.965606	-0.129630	-0.547471
N108	N	1.465606	0.370370	-0.047471
N109	N	0.921903	-0.088692	-0.584928
N110	N	1.421903	0.411308	-0.084928
N111	N	0.934405	-0.100374	0.139760
N112	N	1.434405	0.399626	0.639760
H113	H	0.709731	-0.118842	-0.192465
H114	H	1.209731	0.381158	0.307535
H115	H	1.084751	0.669530	-0.075972
H116	H	1.584751	1.169530	0.424028
N117	N	0.338005	-0.101743	0.069595
N118	N	0.838005	0.398257	0.569595
H119	H	0.325374	-0.051420	0.104872
H120	H	0.825374	0.448580	0.604872
H121	H	0.397287	-0.103432	0.053437
H122	H	0.897287	0.396568	0.553437
H123	H	1.046057	-0.205007	-0.287153
H124	H	1.546057	0.294993	0.212847
N125	N	0.818738	0.474472	-0.057367
N126	N	1.318738	0.974472	0.442633
H127	H	0.815868	0.442412	-0.003695
H128	H	1.315868	0.942412	0.496305
H129	H	0.820789	0.437884	-0.111033
H130	H	1.320789	0.937884	0.388967
N131	N	1.116649	0.512733	-0.078249
N132	N	1.616649	1.012733	0.421751
H133	H	1.120176	0.481495	-0.025026
H134	H	1.620176	0.981495	0.474974
H135	H	1.158888	0.556923	-0.081244
H136	H	1.658888	1.056923	0.418756
N137	N	0.534631	-0.102620	0.125981
N138	N	1.034631	0.397380	0.625981
H139	H	0.476355	-0.103054	0.118152
H140	H	0.976355	0.396946	0.618152
H141	H	0.550147	-0.052341	0.158733
H142	H	1.050147	0.447659	0.658733
H143	H	0.790649	0.260550	-0.055422
H144	H	1.290649	0.760550	0.444578
H145	H	0.559480	-0.115929	-0.181904
H146	H	1.059480	0.384071	0.318096
H147	H	0.841447	-0.013323	-0.845247
H148	H	1.341447	0.486677	-0.345247
H149	H	0.696776	-0.106640	0.093801
H150	H	1.196776	0.393360	0.593801
H151	H	0.802726	0.112145	-0.056282
H152	H	1.302726	0.612145	0.443718
N153	N	0.846875	-0.018478	-0.261088
N154	N	1.346875	0.481522	0.238912
H155	H	0.816494	0.009986	-0.301488
H156	H	1.316494	0.509986	0.198512
H157	H	0.877384	0.021317	-0.225531
H158	H	1.377384	0.521317	0.274469
N159	N	1.082583	0.137184	-0.075876
N160	N	1.582583	0.637184	0.424124
H161	H	1.115190	0.153149	-0.131638
H162	H	1.615190	0.653149	0.368362
H163	H	1.076367	0.077769	-0.075411
H164	H	1.576367	0.577769	0.424589
H165	H	0.868420	-0.038623	-0.439347
H166	H	1.368420	0.461377	0.060653
N167	N	0.352870	-0.115713	-0.258376
N168	N	0.852870	0.384287	0.241624
H169	H	0.316331	-0.117089	-0.305627
H170	H	0.816331	0.382911	0.194373
H171	H	0.384050	-0.165095	-0.264011
H172	H	0.884050	0.334905	0.235989
N173	N	0.819914	0.006838	-0.666979
N174	N	1.319914	0.506838	-0.166979
H175	H	0.824720	0.002328	-0.602904
H176	H	1.324720	0.502328	-0.102904
H177	H	0.763910	-0.009079	-0.678934
H178	H	1.263910	0.490921	-0.178934
H179	H	1.026591	-0.186718	-0.858313
H180	H	1.526591	0.313282	-0.358313
N181	N	1.068737	0.307205	-0.074893
N182	N	1.568737	0.807205	0.425107
H183	H	1.117254	0.274716	-0.078290
H184	H	1.617254	0.774716	0.421710
H185	H	1.066653	0.343838	-0.021261
H186	H	1.566653	0.843838	0.478739
N187	N	0.804899	0.644496	-0.056368
N188	N	1.304899	1.144496	0.443632
H189	H	0.762618	0.600343	-0.053418
H190	H	1.262618	1.100343	0.446582
H191	H	0.801457	0.675743	-0.109602
H192	H	1.301457	1.175743	0.390398
H193	H	1.019093	-0.179698	-0.693052
H194	H	1.519093	0.320302	-0.193052
H195	H	1.053565	-0.212012	-0.452429
H196	H	1.553565	0.287988	0.047571
H197	H	0.190711	-0.111701	-0.226197
H198	H	0.690711	0.388299	0.273803
H199	H	0.177755	-0.099512	0.060067
H200	H	0.677755	0.400488	0.560067
