data_functionalizedCrystal
_audit_creation_method	'MofGen! by Chris Wilmer'
_symmetry_space_group_name_H-M	'P1'
_symmetry_Int_Tables_number	1
_symmetry_cell_setting	triclinic
loop_
_symmetry_equiv_pos_as_xyz
  x,y,z
_cell_length_a	18.215407
_cell_length_b	12.827892
_cell_length_c	18.215407
_cell_angle_alpha	90.008103
_cell_angle_beta	90.010236
_cell_angle_gamma	90.015840
loop_
_atom_site_label
_atom_site_type_symbol
_atom_site_fract_x
_atom_site_fract_y
_atom_site_fract_z
Zn1	Zn	1.125051	-0.416194	0.416137
Zn2	Zn	1.375051	-0.166194	0.666137
Zn3	Zn	1.625051	0.083806	0.916137
Zn4	Zn	1.875051	0.333806	1.166137
Zn5	Zn	1.125000	-0.590905	0.293079
Zn6	Zn	1.375000	-0.340905	0.543079
Zn7	Zn	1.625000	-0.090905	0.793079
Zn8	Zn	1.875000	0.159095	1.043079
Zn9	Zn	1.002004	-0.416180	0.293084
Zn10	Zn	1.252004	-0.166180	0.543084
Zn11	Zn	1.502004	0.083820	0.793084
Zn12	Zn	1.752004	0.333820	1.043084
Zn13	Zn	1.001970	-0.590895	0.416104
Zn14	Zn	1.251970	-0.340895	0.666104
Zn15	Zn	1.501970	-0.090895	0.916104
Zn16	Zn	1.751970	0.159105	1.166104
O17	O	1.063506	-0.503543	0.354601
O18	O	1.313506	-0.253543	0.604601
O19	O	1.563506	-0.003543	0.854601
O20	O	1.813506	0.246457	1.104601
O21	O	1.228028	-0.439379	0.399824
O22	O	1.478028	-0.189379	0.649824
O23	O	1.728028	0.060621	0.899824
O24	O	1.978028	0.310621	1.149824
O25	O	1.108678	-0.567726	0.190096
O26	O	1.358678	-0.317726	0.440096
O27	O	1.608678	-0.067726	0.690096
O28	O	1.858678	0.182274	0.940096
O29	O	1.018362	-0.269946	0.309423
O30	O	1.268362	-0.019946	0.559423
O31	O	1.518362	0.230054	0.809423
O32	O	1.768362	0.480054	1.059423
O33	O	1.227991	-0.567739	0.309415
O34	O	1.477991	-0.317739	0.559415
O35	O	1.727991	-0.067739	0.809415
O36	O	1.977991	0.182261	1.059415
O37	O	1.108764	-0.269956	0.399829
O38	O	1.358764	-0.019956	0.649829
O39	O	1.608764	0.230044	0.899829
O40	O	1.858764	0.480044	1.149829
O41	O	1.018313	-0.439356	0.190099
O42	O	1.268313	-0.189356	0.440099
O43	O	1.518313	0.060644	0.690099
O44	O	1.768313	0.310644	0.940099
O45	O	0.899015	-0.439346	0.309391
O46	O	1.149015	-0.189346	0.559391
O47	O	1.399015	0.060654	0.809391
O48	O	1.649015	0.310654	1.059391
O49	O	1.018303	-0.567722	0.519093
O50	O	1.268303	-0.317722	0.769093
O51	O	1.518303	-0.067722	1.019093
O52	O	1.768303	0.182278	1.269093
O53	O	0.898990	-0.567708	0.399774
O54	O	1.148990	-0.317708	0.649774
O55	O	1.398990	-0.067708	0.899774
O56	O	1.648990	0.182292	1.149774
O57	O	1.108731	-0.439370	0.519117
O58	O	1.358731	-0.189370	0.769117
O59	O	1.608731	0.060630	1.019117
O60	O	1.858731	0.310630	1.269117
O61	O	1.108644	-0.737139	0.309383
O62	O	1.358644	-0.487139	0.559383
O63	O	1.608644	-0.237139	0.809383
O64	O	1.858644	0.012861	1.059383
O65	O	1.018254	-0.737132	0.399769
O66	O	1.268254	-0.487132	0.649769
O67	O	1.518254	-0.237132	0.899769
O68	O	1.768254	0.012868	1.149769
C69	C	0.872300	-0.503525	0.354580
C70	C	1.122300	-0.253525	0.604580
C71	C	1.372300	-0.003525	0.854580
C72	C	1.622300	0.246475	1.104580
C73	C	0.790501	-0.503543	0.354588
C74	C	1.040501	-0.253543	0.604588
C75	C	1.290501	-0.003543	0.854588
C76	C	1.540501	0.246457	1.104588
C77	C	1.063460	-0.775053	0.354588
C78	C	1.313460	-0.525053	0.604588
C79	C	1.563460	-0.275053	0.854588
C80	C	1.813460	-0.025053	1.104588
C81	C	1.063508	-0.891206	0.354607
C82	C	1.313508	-0.641206	0.604607
C83	C	1.563508	-0.391206	0.854607
C84	C	1.813508	-0.141206	1.104607
C85	C	0.602313	-0.570486	0.401591
C86	C	0.852313	-0.320486	0.651591
C87	C	1.102313	-0.070486	0.901591
C88	C	1.352313	0.179514	1.151591
C89	C	0.525454	-0.570489	0.401601
C90	C	0.775454	-0.320489	0.651601
C91	C	1.025454	-0.070489	0.901601
C92	C	1.275454	0.179511	1.151601
C93	C	0.525451	-0.436619	0.307627
C94	C	0.775451	-0.186619	0.557627
C95	C	1.025451	0.063381	0.807627
C96	C	1.275451	0.313381	1.057627
C97	C	0.602308	-0.436611	0.307622
C98	C	0.852308	-0.186611	0.557622
C99	C	1.102308	0.063389	0.807622
C100	C	1.352308	0.313389	1.057622
C101	C	0.640737	-0.503551	0.354603
C102	C	0.890737	-0.253551	0.604603
C103	C	1.140737	-0.003551	0.854603
C104	C	1.390737	0.246449	1.104603
C105	C	0.487021	-0.503562	0.354617
C106	C	0.737021	-0.253562	0.604617
C107	C	0.987021	-0.003562	0.854617
C108	C	1.237021	0.246438	1.104617
C109	C	0.403688	-0.503565	0.354627
C110	C	0.653688	-0.253565	0.604627
C111	C	0.903688	-0.003565	0.854627
C112	C	1.153688	0.246435	1.104627
C113	C	0.724076	-0.503547	0.354595
C114	C	0.974076	-0.253547	0.604595
C115	C	1.224076	-0.003547	0.854595
C116	C	1.474076	0.246453	1.104595
C117	C	1.108289	-0.942960	0.309931
C118	C	1.358289	-0.692960	0.559931
C119	C	1.608289	-0.442960	0.809931
C120	C	1.858289	-0.192960	1.059931
C121	C	1.108339	-1.063010	0.309950
C122	C	1.358339	-0.813010	0.559950
C123	C	1.608339	-0.563010	0.809950
C124	C	1.858339	-0.313010	1.059950
C125	C	1.255459	-0.503562	0.354623
C126	C	1.505459	-0.253562	0.604623
C127	C	1.755459	-0.003562	0.854623
C128	C	2.005459	0.246438	1.104623
C129	C	1.337258	-0.503570	0.354632
C130	C	1.587258	-0.253570	0.604632
C131	C	1.837258	-0.003570	0.854632
C132	C	2.087258	0.246430	1.104632
C133	C	1.063519	-0.503546	0.546554
C134	C	1.313519	-0.253546	0.796554
C135	C	1.563519	-0.003546	1.046554
C136	C	1.813519	0.246454	1.296554
C137	C	1.063524	-0.503547	0.628353
C138	C	1.313524	-0.253547	0.878353
C139	C	1.563524	-0.003547	1.128353
C140	C	1.813524	0.246453	1.378353
C141	C	1.063572	-0.230973	0.354630
C142	C	1.313572	0.019027	0.604630
C143	C	1.563572	0.269027	0.854630
C144	C	1.813572	0.519027	1.104630
C145	C	1.063601	-0.114820	0.354643
C146	C	1.313601	0.135180	0.604643
C147	C	1.563601	0.385180	0.854643
C148	C	1.813601	0.635180	1.104643
C149	C	1.110595	-0.436725	0.816560
C150	C	1.360595	-0.186725	1.066560
C151	C	1.610595	0.063275	1.316560
C152	C	1.860595	0.313275	1.566560
C153	C	1.110591	-0.436725	0.893419
C154	C	1.360591	-0.186725	1.143419
C155	C	1.610591	0.063275	1.393419
C156	C	1.860591	0.313275	1.643419
C157	C	1.016429	-0.570384	0.893383
C158	C	1.266429	-0.320384	1.143383
C159	C	1.516429	-0.070384	1.393383
C160	C	1.766429	0.179616	1.643383
C161	C	1.016430	-0.570379	0.816526
C162	C	1.266430	-0.320379	1.066526
C163	C	1.516430	-0.070379	1.316526
C164	C	1.766430	0.179621	1.566526
C165	C	1.063517	-0.503551	0.778116
C166	C	1.313517	-0.253551	1.028116
C167	C	1.563517	-0.003551	1.278116
C168	C	1.813517	0.246449	1.528116
C169	C	1.063512	-0.503556	0.931832
C170	C	1.313512	-0.253556	1.181832
C171	C	1.563512	-0.003556	1.431832
C172	C	1.813512	0.246444	1.681832
C173	C	1.063508	-0.503556	1.015166
C174	C	1.313508	-0.253556	1.265166
C175	C	1.563508	-0.003556	1.515166
C176	C	1.813508	0.246444	1.765166
C177	C	1.063521	-0.503549	0.694777
C178	C	1.313521	-0.253549	0.944777
C179	C	1.563521	-0.003549	1.194777
C180	C	1.813521	0.246451	1.444777
C181	C	1.063494	-0.503563	1.163395
C182	C	1.313494	-0.253563	1.413395
C183	C	1.563494	-0.003563	1.663395
C184	C	1.813494	0.246437	1.913395
C185	C	1.063505	-0.503559	1.081596
C186	C	1.313505	-0.253559	1.331596
C187	C	1.563505	-0.003559	1.581596
C188	C	1.813505	0.246441	1.831596
H189	H	0.494173	-0.624993	0.439864
H190	H	0.744173	-0.374993	0.689864
H191	H	0.994173	-0.124993	0.939864
H192	H	1.244173	0.125007	1.189864
O193	O	1.159123	-1.121960	0.259280
O194	O	1.409123	-0.871960	0.509280
O195	O	1.659123	-0.621960	0.759280
O196	O	1.909123	-0.371960	1.009280
H197	H	1.191883	-1.065740	0.226535
H198	H	1.441883	-0.815740	0.476535
H199	H	1.691883	-0.565740	0.726535
H200	H	1.941883	-0.315740	0.976535
H201	H	0.978089	-0.624795	0.785224
H202	H	1.228089	-0.374795	1.035224
H203	H	1.478089	-0.124795	1.285224
H204	H	1.728089	0.125205	1.535224
H205	H	0.978095	-0.624796	0.924665
H206	H	1.228095	-0.374796	1.174665
H207	H	1.478095	-0.124796	1.424665
H208	H	1.728095	0.125204	1.674665
O209	O	1.161364	-0.364651	0.934891
O210	O	1.411364	-0.114651	1.184891
O211	O	1.661364	0.135349	1.434891
O212	O	1.911364	0.385349	1.684891
H213	H	1.219121	-0.382582	0.920160
H214	H	1.469121	-0.132582	1.170160
H215	H	1.719121	0.117418	1.420160
H216	H	1.969121	0.367418	1.670160
H217	H	0.633600	-0.624990	0.439848
H218	H	0.883600	-0.374990	0.689848
H219	H	1.133600	-0.124990	0.939848
H220	H	1.383600	0.125010	1.189848
H221	H	1.025257	-1.070320	0.392891
H222	H	1.275257	-0.820320	0.642891
H223	H	1.525257	-0.570320	0.892891
H224	H	1.775257	-0.320320	1.142891
O225	O	0.643754	-0.364409	0.256938
O226	O	0.893754	-0.114409	0.506938
O227	O	1.143754	0.135591	0.756938
O228	O	1.393754	0.385591	1.006938
H229	H	0.703654	-0.375641	0.264836
H230	H	0.953654	-0.125641	0.514836
H231	H	1.203654	0.124359	0.764836
H232	H	1.453654	0.374359	1.014836
O233	O	1.012769	-0.950239	0.405289
O234	O	1.262769	-0.700239	0.655289
O235	O	1.512769	-0.450239	0.905289
O236	O	1.762769	-0.200239	1.155289
H237	H	1.025327	-0.929315	0.463071
H238	H	1.275327	-0.679315	0.713071
H239	H	1.525327	-0.429315	0.963071
H240	H	1.775327	-0.179315	1.213071
O241	O	0.484004	-0.364456	0.256931
O242	O	0.734004	-0.114456	0.506931
O243	O	0.984004	0.135544	0.756931
O244	O	1.234004	0.385544	1.006931
H245	H	0.424104	-0.375723	0.264815
H246	H	0.674104	-0.125723	0.514815
H247	H	0.924104	0.124277	0.764815
H248	H	1.174104	0.374277	1.014815
O249	O	1.159039	-0.883928	0.259261
O250	O	1.409039	-0.633928	0.509261
O251	O	1.659039	-0.383928	0.759261
O252	O	1.909039	-0.133928	1.009261
H253	H	1.126087	-0.834253	0.221807
H254	H	1.376087	-0.584253	0.471807
H255	H	1.626087	-0.334253	0.721807
H256	H	1.876087	-0.084253	0.971807
O257	O	1.161373	-0.364643	0.775129
O258	O	1.411373	-0.114643	1.025129
O259	O	1.661373	0.135357	1.275129
O260	O	1.911373	0.385357	1.525129
H261	H	1.194103	-0.318168	0.814778
H262	H	1.444103	-0.068168	1.064778
H263	H	1.694103	0.181832	1.314778
H264	H	1.944103	0.431832	1.564778
