data_functionalizedCrystal
_audit_creation_method	'MofGen! by Chris Wilmer'
_symmetry_space_group_name_H-M	'P1'
_symmetry_Int_Tables_number	1
_symmetry_cell_setting	triclinic
loop_
_symmetry_equiv_pos_as_xyz
  x,y,z
_cell_length_a	18.050591
_cell_length_b	18.050589
_cell_length_c	18.050582
_cell_angle_alpha	90.018005
_cell_angle_beta	89.980240
_cell_angle_gamma	89.968854
loop_
_atom_site_label
_atom_site_type_symbol
_atom_site_fract_x
_atom_site_fract_y
_atom_site_fract_z
Zn1	Zn	1.135259	0.295777	-0.420032
Zn2	Zn	1.635259	0.795777	0.079968
Zn3	Zn	1.135156	0.419960	-0.295852
Zn4	Zn	1.635156	0.919960	0.204148
Zn5	Zn	1.011078	0.295781	-0.295846
Zn6	Zn	1.511078	0.795781	0.204154
Zn7	Zn	1.011012	0.419922	-0.419990
Zn8	Zn	1.511012	0.919922	0.080010
O9	O	1.073126	0.357860	-0.357930
O10	O	1.573126	0.857860	0.142070
O11	O	1.239170	0.312265	-0.403579
O12	O	1.739170	0.812265	0.096421
O13	O	1.118681	0.403505	-0.191926
O14	O	1.618681	0.903505	0.308074
O15	O	1.027622	0.191856	-0.312334
O16	O	1.527622	0.691856	0.187666
O17	O	1.239094	0.403502	-0.312345
O18	O	1.739094	0.903502	0.187655
O19	O	1.118857	0.191853	-0.403573
O20	O	1.618857	0.691853	0.096427
O21	O	1.027522	0.312271	-0.191922
O22	O	1.527522	0.812271	0.308078
O23	O	0.907145	0.312234	-0.312293
O24	O	1.407145	0.812234	0.187707
O25	O	1.027509	0.403436	-0.523920
O26	O	1.527509	0.903436	-0.023920
O27	O	0.907096	0.403440	-0.403502
O28	O	1.407096	0.903440	0.096498
O29	O	1.118793	0.312227	-0.523951
O30	O	1.618793	0.812227	-0.023951
O31	O	1.118617	0.523880	-0.312304
O32	O	1.618617	1.023880	0.187696
O33	O	1.027409	0.523852	-0.403508
O34	O	1.527409	1.023852	0.096492
C35	C	0.880174	0.357834	-0.357893
C36	C	1.380174	0.857834	0.142107
C37	C	0.797628	0.357841	-0.357894
C38	C	1.297628	0.857841	0.142106
C39	C	1.073015	0.550812	-0.357918
C40	C	1.573015	1.050812	0.142082
C41	C	1.073035	0.633358	-0.357938
C42	C	1.573035	1.133358	0.142062
C43	C	0.548808	0.308192	-0.308413
C44	C	1.048808	0.808192	0.191587
C45	C	0.598242	0.290110	-0.376187
C46	C	1.098242	0.790110	0.123813
C47	C	0.500508	0.357879	-0.357955
C48	C	1.000508	0.857879	0.142045
C49	C	0.598156	0.375906	-0.290154
C50	C	1.098156	0.875906	0.209846
C51	C	0.646493	0.357858	-0.357922
C52	C	1.146493	0.857858	0.142078
C53	C	0.548855	0.339763	-0.425766
C54	C	1.048855	0.839763	0.074234
C55	C	0.548764	0.425589	-0.339687
C56	C	1.048764	0.925589	0.160313
C57	C	0.598176	0.407534	-0.407509
C58	C	1.098176	0.907534	0.092491
C59	C	0.416410	0.357888	-0.357973
C60	C	0.916410	0.857888	0.142027
C61	C	0.730590	0.357848	-0.357911
C62	C	1.230590	0.857848	0.142089
C63	C	1.023463	0.832820	-0.407518
C64	C	1.523463	1.332820	0.092482
C65	C	1.005359	0.882253	-0.339749
C66	C	1.505359	1.382253	0.160251
C67	C	1.073091	0.784488	-0.357948
C68	C	1.573091	1.284488	0.142052
C69	C	1.091214	0.882137	-0.425725
C70	C	1.591214	1.382137	0.074275
C71	C	1.073144	0.930473	-0.357964
C72	C	1.573144	1.430473	0.142036
C73	C	1.054952	0.832834	-0.290144
C74	C	1.554952	1.332834	0.209856
C75	C	1.140839	0.832714	-0.376165
C76	C	1.640839	1.332714	0.123835
C77	C	1.122761	0.882124	-0.308350
C78	C	1.622761	1.382124	0.191650
C79	C	1.073059	0.700390	-0.357940
C80	C	1.573059	1.200390	0.142060
C81	C	1.073176	1.014570	-0.357965
C82	C	1.573176	1.514570	0.142035
C83	C	1.266832	0.357887	-0.357968
C84	C	1.766832	0.857887	0.142032
C85	C	1.349378	0.357898	-0.357984
C86	C	1.849378	0.857898	0.142016
C87	C	1.073155	0.357827	-0.551635
C88	C	1.573155	0.857827	-0.051635
C89	C	1.073168	0.357813	-0.634181
C90	C	1.573168	0.857813	-0.134181
C91	C	1.073230	1.164154	-0.357959
C92	C	1.573230	1.664154	0.142041
C93	C	1.073202	1.081609	-0.357973
C94	C	1.573202	1.581609	0.142027
C95	C	1.023566	0.407345	-0.833615
C96	C	1.523566	0.907345	-0.333615
C97	C	1.091319	0.425502	-0.883014
C98	C	1.591319	0.925502	-0.383014
C99	C	1.073204	0.357756	-0.785312
C100	C	1.573204	0.857756	-0.285312
C101	C	1.005489	0.339578	-0.882995
C102	C	1.505489	0.839578	-0.382995
C103	C	1.073234	0.357703	-0.931297
C104	C	1.573234	0.857703	-0.431297
C105	C	1.140993	0.375950	-0.833623
C106	C	1.640993	0.875950	-0.333623
C107	C	1.055117	0.289994	-0.833600
C108	C	1.555117	0.789994	-0.333600
C109	C	1.122917	0.308126	-0.882976
C110	C	1.622917	0.808126	-0.382976
C111	C	1.073187	0.357789	-0.701213
C112	C	1.573187	0.857789	-0.201213
C113	C	1.073259	0.357670	-1.015394
C114	C	1.573259	0.857670	-0.515394
C115	C	1.073140	0.357839	-0.164978
C116	C	1.573140	0.857839	0.335022
C117	C	1.073272	0.357644	-0.082432
C118	C	1.573272	0.857644	0.417568
H119	H	0.527133	0.266150	-0.266582
H120	H	1.027133	0.766150	0.233418
H121	H	0.527016	0.482844	-0.324226
H122	H	1.027016	0.982844	0.175774
Cl123	Cl	0.631788	0.201689	-0.400035
Cl124	Cl	1.131788	0.701689	0.099965
H125	H	0.527289	0.324440	-0.483106
H126	H	1.027289	0.824440	0.016894
H127	H	0.619715	0.449544	-0.449439
H128	H	1.119715	0.949544	0.050561
H129	H	1.039781	0.232728	-0.811879
H130	H	1.539781	0.732728	-0.311879
Cl131	Cl	0.631595	0.399461	-0.201652
Cl132	Cl	1.131595	0.899461	0.298348
H133	H	0.981439	0.811171	-0.449378
H134	H	1.481439	1.311171	0.050622
Cl135	Cl	1.031216	0.799541	-0.201633
Cl136	Cl	1.531216	1.299541	0.298367
Cl137	Cl	0.958816	0.472170	-0.800150
Cl138	Cl	1.458816	0.972170	-0.300150
H139	H	0.948092	0.904030	-0.324355
H140	H	1.448092	1.404030	0.175645
Cl141	Cl	0.917056	0.315873	-0.916480
Cl142	Cl	1.417056	0.815873	-0.416480
H143	H	1.164956	0.266168	-0.904513
H144	H	1.664956	0.766168	-0.404513
H145	H	1.164753	0.903636	-0.266389
H146	H	1.664753	1.403636	0.233611
H147	H	1.106635	0.482785	-0.904719
H148	H	1.606635	0.982785	-0.404719
Cl149	Cl	1.229235	0.799091	-0.399983
Cl150	Cl	1.729235	1.299091	0.100017
H151	H	1.106522	0.903794	-0.483037
H152	H	1.606522	1.403794	0.016963
H153	H	1.198289	0.391368	-0.812027
H154	H	1.698289	0.891368	-0.312027
