data_functionalizedCrystal
_audit_creation_method	'MofGen! by Chris Wilmer'
_symmetry_space_group_name_H-M	'P1'
_symmetry_Int_Tables_number	1
_symmetry_cell_setting	triclinic
loop_
_symmetry_equiv_pos_as_xyz
  x,y,z
_cell_length_a	17.699097
_cell_length_b	17.699083
_cell_length_c	15.186229
_cell_angle_alpha	90.002712
_cell_angle_beta	89.993050
_cell_angle_gamma	83.285723
loop_
_atom_site_label
_atom_site_type_symbol
_atom_site_fract_x
_atom_site_fract_y
_atom_site_fract_z
O1	O	1.004068	0.095758	-0.073289
O2	O	0.783691	0.108200	-0.073273
O3	O	0.900106	-0.008210	-0.073290
O4	O	0.887654	0.212168	-0.073272
O5	O	0.900098	-0.008212	0.073167
O6	O	0.783684	0.108198	0.073184
O7	O	1.004061	0.095756	0.073168
Zn8	Zn	0.893871	0.101977	0.096429
Zn9	Zn	0.893881	0.101979	-0.096534
O10	O	0.887646	0.212166	0.073185
C11	C	0.755491	0.107752	-0.000043
C12	C	0.671473	0.106409	-0.000037
C13	C	0.155759	0.098181	-0.079908
C14	C	0.234703	0.099437	-0.079903
C15	C	0.274165	0.100065	-0.000065
C16	C	0.234679	0.099430	0.079773
C17	C	0.155738	0.098168	0.079767
C18	C	0.553044	0.104517	0.079796
C19	C	0.631991	0.105781	0.079796
C20	C	0.632009	0.105786	-0.079874
C21	C	0.553067	0.104524	-0.079879
C22	C	0.513589	0.103885	-0.000042
C23	C	0.427989	0.102521	-0.000048
C24	C	0.359763	0.101434	-0.000059
C25	C	0.899656	-0.036408	-0.000066
C26	C	0.898317	-0.120426	-0.000078
C27	C	1.032261	0.096205	-0.000064
C28	C	1.116279	0.097547	-0.000075
C29	C	0.888096	0.240364	-0.000041
C30	C	0.889435	0.324382	-0.000035
C31	C	0.821102	0.373000	-0.000030
C32	C	0.822364	0.451943	-0.000040
C33	C	0.891960	0.482267	-0.000050
C34	C	0.960298	0.433644	-0.000057
C35	C	0.959035	0.354702	-0.000053
C36	C	0.965393	0.752007	-0.000075
C37	C	0.966651	0.830955	-0.000076
C38	C	0.828722	0.849248	-0.000062
C39	C	0.827459	0.770307	-0.000058
C40	C	0.895797	0.721690	-0.000071
C41	C	0.894427	0.636090	-0.000061
C42	C	0.893330	0.567865	-0.000053
N43	N	0.893869	0.101975	0.228122
N44	N	0.893889	0.101975	-0.228227
C45	C	0.945435	0.050446	0.453837
C46	C	0.945438	0.050444	0.546027
C47	C	0.842317	0.153507	0.546051
C48	C	0.842312	0.153504	0.453863
C49	C	0.893875	0.101975	0.407759
C50	C	0.893883	0.101975	0.592136
C51	C	0.893885	0.101974	0.692092
C52	C	0.893872	0.101975	0.307796
H53	H	0.123634	0.097674	-0.144921
O54	O	0.792160	0.203590	0.590702
C55	C	0.689904	0.305840	0.580995
C56	C	0.746655	0.249149	0.530321
H57	H	0.653110	0.342700	0.532199
H58	H	0.652109	0.273247	0.624139
H59	H	0.722524	0.343579	0.624173
H60	H	0.714098	0.211395	0.487096
H61	H	0.784450	0.281788	0.487234
H62	H	0.800322	0.195465	0.416343
H63	H	0.987420	0.008487	0.416301
O64	O	0.995598	0.000362	0.590651
C65	C	1.097850	-0.101890	0.580892
C66	C	1.041096	-0.045198	0.530247
H67	H	1.134639	-0.138750	0.532077
H68	H	1.135651	-0.069298	0.624023
H69	H	1.065234	-0.139628	0.624080
H70	H	1.073650	-0.007445	0.487011
H71	H	1.003296	-0.077836	0.487172
H72	H	1.014679	0.315117	-0.000061
H73	H	0.664118	0.106293	0.144813
H74	H	1.021038	0.712432	-0.000079
O75	O	1.027952	0.463006	0.000047
C76	C	1.146212	0.471558	0.075931
C77	C	1.069626	0.438243	0.075910
H78	H	1.179920	0.451563	0.137269
H79	H	1.180025	0.451496	0.014676
H80	H	1.135362	0.536330	0.075887
H81	H	1.080406	0.373471	0.075985
H82	H	1.035837	0.458364	0.137160
H83	H	1.023328	0.855641	-0.000085
O84	O	0.272933	0.100082	-0.157531
C85	C	0.264627	0.099904	-0.315907
C86	C	0.221236	0.099194	-0.228054
H87	H	0.222851	0.099170	-0.372948
H88	H	0.294546	0.153450	-0.319955
H89	H	0.308624	0.047557	-0.319853
H90	H	0.177202	0.151504	-0.224049
H91	H	0.191370	0.045614	-0.224044
H92	H	0.664162	0.106304	-0.144882
O93	O	0.514856	0.103881	-0.157512
C94	C	0.523203	0.104058	-0.315888
C95	C	0.566571	0.104774	-0.228032
H96	H	0.564993	0.104795	-0.372926
H97	H	0.493292	0.050508	-0.319945
H98	H	0.479202	0.156400	-0.319830
H99	H	0.610609	0.052468	-0.224031
H100	H	0.596430	0.158358	-0.224013
O101	O	0.755934	0.499091	-0.000147
C102	C	0.638444	0.538900	-0.076028
C103	C	0.713644	0.485452	-0.076006
H104	H	0.604239	0.527903	-0.137362
H105	H	0.604137	0.527886	-0.014769
H106	H	0.651313	0.600526	-0.075993
H107	H	0.700844	0.423807	-0.076071
H108	H	0.747928	0.496533	-0.137259
O109	O	0.272898	0.100002	0.157407
C110	C	0.264536	0.099908	0.315782
C111	C	0.221165	0.099238	0.227924
H112	H	0.222726	0.099306	0.372819
H113	H	0.308499	0.047540	0.319831
H114	H	0.294492	0.153433	0.319735
H115	H	0.191163	0.045748	0.223912
H116	H	0.177244	0.151642	0.223913
O117	O	0.514803	0.103801	0.157407
C118	C	0.499318	0.037844	0.293855
C119	C	0.542698	0.038570	0.205996
H120	H	0.521844	-0.014898	0.333156
H121	H	0.507835	0.091003	0.333289
H122	H	0.436116	0.036868	0.280133
H123	H	0.605914	0.039520	0.219638
H124	H	0.534119	-0.014585	0.166590
O125	O	0.117368	0.097420	0.157294
C126	C	0.036886	0.030467	0.249924
C127	C	0.080317	0.031215	0.162101
H128	H	0.006906	-0.023046	0.253831
H129	H	0.078621	0.031084	0.307023
H130	H	-0.007068	0.082846	0.253908
H131	H	0.124271	-0.021155	0.158031
H132	H	0.038536	0.030637	0.105044
H133	H	0.764428	0.348317	-0.000012
O134	O	0.759834	0.740888	-0.000207
C135	C	0.641543	0.732405	-0.076051
C136	C	0.718110	0.765755	-0.075998
H137	H	0.607781	0.752510	-0.137312
H138	H	0.652333	0.667629	-0.076105
H139	H	0.607809	0.752429	-0.014730
H140	H	0.751884	0.745789	-0.137308
H141	H	0.707267	0.830528	-0.075897
O142	O	0.762357	0.896508	-0.000217
C143	C	0.683749	0.996276	-0.076064
C144	C	0.758924	0.942789	-0.076013
H145	H	0.680956	1.033719	-0.137329
H146	H	0.633762	0.961079	-0.076110
H147	H	0.680899	1.033664	-0.014747
H148	H	0.761848	0.905390	-0.137319
H149	H	0.808876	0.978031	-0.075921
