data_functionalizedCrystal
_audit_creation_method	'MofGen! by Chris Wilmer'
_symmetry_space_group_name_H-M	'P1'
_symmetry_Int_Tables_number	1
_symmetry_cell_setting	triclinic
loop_
_symmetry_equiv_pos_as_xyz
  x,y,z
_cell_length_a	16.120484
_cell_length_b	16.120542
_cell_length_c	13.032268
_cell_angle_alpha	85.358095
_cell_angle_beta	99.642751
_cell_angle_gamma	89.836765
loop_
_atom_site_label
_atom_site_type_symbol
_atom_site_fract_x
_atom_site_fract_y
_atom_site_fract_z
Zn1	Zn	-0.462338	-1.180621	-0.695185
Zn2	Zn	-0.129005	-0.847287	-0.361851
Zn3	Zn	0.204328	-0.513954	-0.028518
Zn4	Zn	-0.585460	-1.191127	-0.528926
Zn5	Zn	-0.252127	-0.857793	-0.195593
Zn6	Zn	0.081207	-0.524460	0.137741
Zn7	Zn	-0.437668	-1.061095	-0.511303
Zn8	Zn	-0.104335	-0.727762	-0.177969
Zn9	Zn	0.228998	-0.394428	0.155364
Zn10	Zn	-0.594189	-1.034575	-0.694224
Zn11	Zn	-0.260855	-0.701242	-0.360891
Zn12	Zn	0.072478	-0.367908	-0.027558
O13	O	-0.519914	-1.116854	-0.607409
O14	O	-0.186580	-0.783521	-0.274076
O15	O	0.146753	-0.450188	0.059257
O16	O	-0.485342	-1.297554	-0.680907
O17	O	-0.152009	-0.964220	-0.347574
O18	O	0.181325	-0.630887	-0.014241
O19	O	-0.551878	-1.189373	-0.380455
O20	O	-0.218544	-0.856040	-0.047122
O21	O	0.114789	-0.522706	0.286211
O22	O	-0.323910	-1.083653	-0.528721
O23	O	0.009424	-0.750319	-0.195388
O24	O	0.342757	-0.416986	0.137945
O25	O	-0.575799	-1.305272	-0.558758
O26	O	-0.242466	-0.971939	-0.225425
O27	O	0.090868	-0.638606	0.107909
O28	O	-0.342034	-1.171468	-0.663819
O29	O	-0.008701	-0.838134	-0.330485
O30	O	0.324632	-0.504801	0.002848
O31	O	-0.443296	-1.093840	-0.367508
O32	O	-0.109962	-0.760506	-0.034174
O33	O	0.223371	-0.427173	0.299159
O34	O	-0.451760	-0.942038	-0.527790
O35	O	-0.118426	-0.608704	-0.194457
O36	O	0.214907	-0.275371	0.138876
O37	O	-0.590676	-1.038453	-0.840485
O38	O	-0.257343	-0.705119	-0.507151
O39	O	0.075991	-0.371786	-0.173818
O40	O	-0.566754	-0.922554	-0.662182
O41	O	-0.233421	-0.589220	-0.328849
O42	O	0.099912	-0.255887	0.004485
O43	O	-0.493806	-1.145752	-0.841190
O44	O	-0.160473	-0.812419	-0.507857
O45	O	0.172861	-0.479085	-0.174523
O46	O	-0.703649	-1.163658	-0.557827
O47	O	-0.370316	-0.830324	-0.224494
O48	O	-0.036982	-0.496991	0.108840
O49	O	-0.710062	-1.048640	-0.679271
O50	O	-0.376729	-0.715306	-0.345937
O51	O	-0.043395	-0.381973	-0.012604
C52	C	-0.737204	-1.104431	-0.620381
C53	C	-0.403871	-0.771098	-0.287048
C54	C	-0.070537	-0.437764	0.046285
C55	C	-0.830169	-1.099188	-0.625971
C56	C	-0.496836	-0.765855	-0.292637
C57	C	-0.163503	-0.432521	0.040696
C58	C	-0.507528	-0.902338	-0.592970
C59	C	-0.174195	-0.569004	-0.259637
C60	C	0.159139	-0.235671	0.073696
C61	C	-0.502252	-0.810563	-0.586819
C62	C	-0.168918	-0.477229	-0.253486
C63	C	0.164415	-0.143896	0.079847
C64	C	-0.545966	-1.087972	-0.879788
C65	C	-0.212633	-0.754639	-0.546454
C66	C	0.120700	-0.421306	-0.213121
C67	C	-0.557068	-1.075664	-0.995859
C68	C	-0.223735	-0.742331	-0.662526
C69	C	0.109598	-0.408998	-0.329192
C70	C	-1.000380	-1.089618	-0.636197
C71	C	-0.667047	-0.756285	-0.302864
C72	C	-0.333713	-0.422951	0.030469
C73	C	-1.038617	-1.144237	-0.578649
C74	C	-0.705284	-0.810903	-0.245315
C75	C	-0.371951	-0.477570	0.088018
C76	C	-1.133328	-1.138912	-0.584339
C77	C	-0.799995	-0.805579	-0.251006
C78	C	-0.466662	-0.472245	0.082328
C79	C	-0.905660	-1.094942	-0.630508
C80	C	-0.572327	-0.761608	-0.297175
C81	C	-0.238994	-0.428275	0.036158
C82	C	-0.301779	-1.129346	-0.594411
C83	C	0.031555	-0.796013	-0.261078
C84	C	0.364888	-0.462680	0.072255
C85	C	-0.208823	-1.134670	-0.588872
C86	C	0.124511	-0.801336	-0.255539
C87	C	0.457844	-0.468003	0.077794
C88	C	-0.547253	-0.592022	-0.639258
C89	C	-0.213920	-0.258689	-0.305925
C90	C	0.119414	0.074645	0.027408
C91	C	-0.492626	-0.642532	-0.575588
C92	C	-0.159293	-0.309199	-0.242255
C93	C	0.174041	0.024134	0.091079
C94	C	-0.497983	-0.736033	-0.581839
C95	C	-0.164650	-0.402700	-0.248506
C96	C	0.168683	-0.069366	0.084828
C97	C	-0.541897	-0.498513	-0.633009
C98	C	-0.208564	-0.165180	-0.299675
C99	C	0.124770	0.168154	0.033658
C100	C	-0.532343	-0.332211	-0.621891
C101	C	-0.199010	0.001123	-0.288557
C102	C	0.134324	0.334456	0.044776
C103	C	-0.537625	-0.423987	-0.628024
C104	C	-0.204291	-0.090654	-0.294690
C105	C	0.129042	0.242680	0.038643
C106	C	-0.514089	-1.123267	-1.047956
C107	C	-0.180755	-0.789933	-0.714623
C108	C	0.152578	-0.456600	-0.381289
C109	C	-0.525562	-1.110547	-1.167922
C110	C	-0.192229	-0.777214	-0.834589
C111	C	0.141104	-0.443881	-0.501255
C112	C	-0.493905	-1.145675	-0.336091
C113	C	-0.160572	-0.812342	-0.002757
C114	C	0.172762	-0.479008	0.330576
C115	C	-0.482577	-1.158156	-0.220017
C116	C	-0.149243	-0.824823	0.113317
C117	C	0.184090	-0.491489	0.446650
H118	H	-1.000223	-1.194996	-0.525106
H119	H	-0.666890	-0.861662	-0.191773
H120	H	-0.333556	-0.528329	0.141561
H121	H	-0.468795	-1.173435	-1.003744
H122	H	-0.135462	-0.840101	-0.670411
H123	H	0.197872	-0.506768	-0.337077
Cl124	Cl	-0.414212	-0.600885	-0.484174
Cl125	Cl	-0.080878	-0.267552	-0.150841
Cl126	Cl	0.252455	0.065782	0.182493
Cl127	Cl	-0.595488	-1.033077	-1.236168
Cl128	Cl	-0.262155	-0.699743	-0.902835
Cl129	Cl	0.071178	-0.366410	-0.569501
H130	H	-0.437278	-1.208326	-1.175810
H131	H	-0.103944	-0.874993	-0.842476
H132	H	0.229389	-0.541660	-0.509143
Cl133	Cl	-1.059654	-1.011252	-0.718855
Cl134	Cl	-0.726321	-0.677919	-0.385521
Cl135	Cl	-0.392987	-0.344585	-0.052188
H136	H	-0.598040	-0.618998	-0.698458
H137	H	-0.264707	-0.285665	-0.365124
H138	H	0.068626	0.047668	-0.031791
H139	H	-0.602353	-1.025489	-1.040070
H140	H	-0.269020	-0.692155	-0.706737
H141	H	0.064313	-0.358822	-0.373403
