data_functionalizedCrystal
_audit_creation_method	'MofGen! by Chris Wilmer'
_symmetry_space_group_name_H-M	'P1'
_symmetry_Int_Tables_number	1
_symmetry_cell_setting	triclinic
loop_
_symmetry_equiv_pos_as_xyz
  x,y,z
_cell_length_a	14.519709
_cell_length_b	14.472310
_cell_length_c	14.519709
_cell_angle_alpha	89.997999
_cell_angle_beta	96.319855
_cell_angle_gamma	90.007418
loop_
_atom_site_label
_atom_site_type_symbol
_atom_site_fract_x
_atom_site_fract_y
_atom_site_fract_z
O1	O	1.223880	0.076723	-0.120885
O2	O	1.557213	0.410056	0.212448
O3	O	1.890546	0.743389	0.545782
O4	O	0.955403	0.076751	-0.135121
O5	O	1.288736	0.410084	0.198212
O6	O	1.622069	0.743418	0.531545
O7	O	1.096759	0.076728	0.006235
O8	O	1.430093	0.410061	0.339569
O9	O	1.763426	0.743394	0.672902
O10	O	1.082523	0.076746	-0.262242
O11	O	1.415856	0.410079	0.071092
O12	O	1.749190	0.743413	0.404425
O13	O	1.096723	-0.076954	0.006227
O14	O	1.430056	0.256379	0.339560
O15	O	1.763390	0.589712	0.672894
O16	O	0.955366	-0.076931	-0.135130
O17	O	1.288700	0.256402	0.198204
O18	O	1.622033	0.589736	0.531537
O19	O	1.223843	-0.076959	-0.120893
O20	O	1.557176	0.256374	0.212440
O21	O	1.890510	0.589707	0.545774
Cu22	Cu	1.089601	-0.090978	-0.128012
Cu23	Cu	1.422935	0.242356	0.205321
Cu24	Cu	1.756268	0.575689	0.538655
Cu25	Cu	1.089644	0.090769	-0.128002
Cu26	Cu	1.422978	0.424103	0.205331
Cu27	Cu	1.756311	0.757436	0.538664
O28	O	1.082486	-0.076936	-0.262250
O29	O	1.415820	0.256397	0.071084
O30	O	1.749153	0.589731	0.404417
C31	C	0.921025	-0.000086	-0.134462
C32	C	1.254358	0.333247	0.198871
C33	C	1.587691	0.666580	0.532205
C34	C	0.818643	-0.000076	-0.132474
C35	C	1.151977	0.333258	0.200859
C36	C	1.485310	0.666591	0.534193
N37	N	1.089578	-0.218808	-0.128018
N38	N	1.422911	0.114525	0.205315
N39	N	1.756244	0.447858	0.538648
C40	C	0.443748	-0.000118	-0.125154
C41	C	0.777081	0.333215	0.208179
C42	C	1.110414	0.666548	0.541512
C43	C	0.548056	-0.000106	-0.127187
C44	C	0.881389	0.333227	0.206146
C45	C	1.214722	0.666561	0.539480
C46	C	0.631192	-0.000096	-0.128814
C47	C	0.964526	0.333237	0.204519
C48	C	1.297859	0.666571	0.537853
C49	C	0.735507	-0.000086	-0.130847
C50	C	1.068840	0.333248	0.202486
C51	C	1.402173	0.666581	0.535820
C52	C	1.089643	-0.592900	-0.127999
C53	C	1.422977	-0.259566	0.205335
C54	C	1.756310	0.073767	0.538668
C55	C	1.013752	-0.553721	-0.203381
C56	C	1.347085	-0.220388	0.129952
C57	C	1.680418	0.112945	0.463285
C58	C	1.013927	-0.446633	-0.203657
C59	C	1.347261	-0.113300	0.129676
C60	C	1.680594	0.220033	0.463010
C61	C	1.089610	-0.407309	-0.128009
C62	C	1.422943	-0.073975	0.205325
C63	C	1.756277	0.259358	0.538658
C64	C	1.185870	-0.446154	-0.149184
C65	C	1.519204	-0.112821	0.184149
C66	C	1.852537	0.220512	0.517482
C67	C	1.185444	-0.553276	-0.149720
C68	C	1.518778	-0.219942	0.183613
C69	C	1.852111	0.113391	0.516946
C70	C	1.070132	-0.553433	-0.031218
C71	C	1.403466	-0.220100	0.302116
C72	C	1.736799	0.113234	0.635449
C73	C	1.067927	-0.446305	-0.031859
C74	C	1.401260	-0.112972	0.301474
C75	C	1.734593	0.220361	0.634807
C76	C	1.089597	-0.302420	-0.128012
C77	C	1.422931	0.030913	0.205321
C78	C	1.756264	0.364246	0.538655
C79	C	1.089662	-0.697788	-0.127997
C80	C	1.422996	-0.364454	0.205336
C81	C	1.756329	-0.031121	0.538670
C82	C	1.258221	-0.000120	-0.121553
C83	C	1.591554	0.333213	0.211781
C84	C	1.924888	0.666547	0.545114
C85	C	1.360602	-0.000124	-0.123541
C86	C	1.693936	0.333209	0.209793
C87	C	2.027269	0.666542	0.543126
C88	C	1.096078	-0.000113	0.040591
C89	C	1.429411	0.333220	0.373924
C90	C	1.762744	0.666553	0.707258
C91	C	1.094089	-0.000114	0.142972
C92	C	1.427423	0.333220	0.476306
C93	C	1.760756	0.666553	0.809639
N94	N	1.089675	0.218600	-0.127989
N95	N	1.423009	0.551933	0.205344
N96	N	1.756342	0.885267	0.538678
C97	C	1.083168	-0.000093	-0.296606
C98	C	1.416501	0.333240	0.036728
C99	C	1.749835	0.666574	0.370061
C100	C	1.085156	-0.000087	-0.398987
C101	C	1.418490	0.333247	-0.065653
C102	C	1.751823	0.666580	0.267680
C103	C	1.086770	-0.000089	0.517868
C104	C	1.420103	0.333245	0.851201
C105	C	1.753437	0.666578	1.184535
C106	C	1.088803	-0.000096	0.413560
C107	C	1.422136	0.333237	0.746893
C108	C	1.755469	0.666571	1.080227
C109	C	1.090430	-0.000102	0.330423
C110	C	1.423763	0.333231	0.663757
C111	C	1.757096	0.666565	0.997090
C112	C	1.092463	-0.000108	0.226109
C113	C	1.425796	0.333226	0.559442
C114	C	1.759129	0.666559	0.892776
H115	H	0.942380	-0.420371	-0.191017
H116	H	1.275714	-0.087037	0.142316
H117	H	1.609047	0.246296	0.475650
F118	F	1.261460	-0.412863	-0.079337
F119	F	1.594793	-0.079529	0.253996
F120	F	1.928127	0.253804	0.587330
H121	H	1.026403	-0.420996	-0.275473
H122	H	1.359736	-0.087662	0.057860
H123	H	1.693070	0.245671	0.391193
F124	F	0.980350	-0.588778	-0.004668
F125	F	1.313683	-0.255445	0.328665
F126	F	1.647017	0.077889	0.661998
H127	H	1.203446	-0.419314	-0.218967
H128	H	1.536779	-0.085981	0.114366
H129	H	1.870112	0.247352	0.447699
H130	H	1.026056	-0.580628	-0.274793
H131	H	1.359389	-0.247294	0.058540
H132	H	1.692722	0.086039	0.391874
F133	F	0.975371	-0.413122	-0.010857
F134	F	1.308704	-0.079789	0.322477
F135	F	1.642037	0.253544	0.655810
H136	H	1.202613	-0.578249	-0.220307
H137	H	1.535946	-0.244915	0.113026
H138	H	1.869280	0.088418	0.446360
F139	F	1.142467	-0.586548	0.042109
F140	F	1.475801	-0.253215	0.375442
F141	F	1.809134	0.080119	0.708775
H142	H	0.941973	-0.579502	-0.190947
H143	H	1.275306	-0.246169	0.142386
H144	H	1.608640	0.087164	0.475720
H145	H	1.119600	-0.419540	0.026878
H146	H	1.452933	-0.086207	0.360211
H147	H	1.786267	0.247126	0.693544
F148	F	1.261420	-0.587152	-0.080624
F149	F	1.594753	-0.253819	0.252709
F150	F	1.928087	0.079514	0.586042
