data_functionalizedCrystal
_audit_creation_method	'MofGen! by Chris Wilmer'
_symmetry_space_group_name_H-M	'P1'
_symmetry_Int_Tables_number	1
_symmetry_cell_setting	triclinic
loop_
_symmetry_equiv_pos_as_xyz
  x,y,z
_cell_length_a	14.971486
_cell_length_b	10.654541
_cell_length_c	13.448316
_cell_angle_alpha	89.993648
_cell_angle_beta	89.998199
_cell_angle_gamma	84.049029
loop_
_atom_site_label
_atom_site_type_symbol
_atom_site_fract_x
_atom_site_fract_y
_atom_site_fract_z
O1	O	1.187837	0.163659	-0.082577
O2	O	1.687837	0.663659	0.417423
O3	O	0.927543	0.183258	-0.082604
O4	O	1.427543	0.683258	0.417396
O5	O	1.063676	-0.009345	-0.082584
O6	O	1.563676	0.490655	0.417416
O7	O	1.051704	0.356262	-0.082597
O8	O	1.551704	0.856262	0.417403
O9	O	1.063659	-0.009357	0.082800
O10	O	1.563659	0.490643	0.582800
O11	O	0.927526	0.183246	0.082780
O12	O	1.427526	0.683246	0.582780
O13	O	1.187820	0.163648	0.082807
O14	O	1.687820	0.663648	0.582807
Cu15	Cu	1.057671	0.173446	0.097894
Cu16	Cu	1.557671	0.673446	0.597894
Cu17	Cu	1.057692	0.173460	-0.097691
Cu18	Cu	1.557692	0.673460	0.402309
O19	O	1.051687	0.356251	0.082787
O20	O	1.551687	0.856251	0.582787
C21	C	0.894205	0.182376	0.000085
C22	C	1.394205	0.682376	0.500085
C23	C	0.794894	0.179749	0.000074
C24	C	1.294894	0.679749	0.500074
C25	C	0.738284	0.292898	0.000072
C26	C	1.238284	0.792898	0.500072
C27	C	0.644971	0.290423	0.000087
C28	C	1.144971	0.790423	0.500087
C29	C	0.608270	0.174797	0.000097
C30	C	1.108270	0.674797	0.500097
C31	C	0.664887	0.061639	0.000103
C32	C	1.164887	0.561639	0.500103
C33	C	0.758199	0.064116	0.000095
C34	C	1.258199	0.564116	0.500095
C35	C	0.470397	0.056485	0.000117
C36	C	0.970397	0.556485	0.500117
C37	C	0.377079	0.054008	0.000123
C38	C	0.877079	0.554008	0.500123
C39	C	0.357169	0.282792	0.000108
C40	C	0.857169	0.782792	0.500108
C41	C	0.450480	0.285268	0.000100
C42	C	0.950480	0.785268	0.500100
C43	C	0.507091	0.172110	0.000104
C44	C	1.007091	0.672110	0.500104
C45	C	1.062789	-0.056140	0.000107
C46	C	1.562789	0.443860	0.500107
C47	C	1.060160	-0.195555	0.000106
C48	C	1.560160	0.304445	0.500106
C49	C	1.222944	-0.225272	0.000135
C50	C	1.722944	0.274728	0.500135
C51	C	1.303097	-0.305626	0.000152
C52	C	1.803097	0.194374	0.500152
C53	C	1.300621	-0.436618	0.000148
C54	C	1.800621	0.063382	0.500148
C55	C	1.217984	-0.487256	0.000125
C56	C	1.717984	0.012744	0.500125
C57	C	1.137831	-0.406902	0.000109
C58	C	1.637831	0.093098	0.500109
C59	C	1.140315	-0.275909	0.000115
C60	C	1.640315	0.224091	0.500115
C61	C	0.975050	-0.377185	0.000072
C62	C	1.475050	0.122815	0.500072
C63	C	0.977523	-0.246194	0.000083
C64	C	1.477523	0.253806	0.500083
C65	C	0.892412	-0.427824	0.000049
C66	C	1.392412	0.072176	0.500049
C67	C	0.812257	-0.347470	0.000040
C68	C	1.312257	0.152530	0.500040
C69	C	0.814736	-0.216471	0.000044
C70	C	1.314736	0.283529	0.500044
C71	C	0.897370	-0.165839	0.000066
C72	C	1.397370	0.334161	0.500066
C73	C	1.221158	0.164530	0.000116
C74	C	1.721158	0.664530	0.500116
C75	C	1.320469	0.167157	0.000120
C76	C	1.820469	0.667157	0.500120
C77	C	1.052574	0.403045	0.000093
C78	C	1.552574	0.903045	0.500093
C79	C	1.055203	0.542460	0.000089
C80	C	1.555203	1.042460	0.500089
N81	N	1.057663	0.173435	0.235458
N82	N	1.557663	0.673435	0.735458
N83	N	1.057707	0.173461	-0.235256
N84	N	1.557707	0.673461	0.264744
C85	C	1.117962	0.088186	0.287508
C86	C	1.617962	0.588186	0.787508
C87	C	1.117968	0.088185	0.391611
C88	C	1.617968	0.588185	0.891611
C89	C	1.057678	0.173440	0.443663
C90	C	1.557678	0.673440	0.943663
C91	C	0.997373	0.258694	0.391606
C92	C	1.497373	0.758694	0.891606
C93	C	0.997364	0.258688	0.287505
C94	C	1.497364	0.758688	0.787505
C95	C	0.997398	0.258702	0.608587
C96	C	1.497398	0.758702	1.108587
C97	C	0.997408	0.258710	0.712695
C98	C	1.497408	0.758710	1.212695
C99	C	1.118002	0.088199	0.712692
C100	C	1.618002	0.588199	1.212692
C101	C	1.117992	0.088193	0.608591
C102	C	1.617992	0.588193	1.108591
C103	C	1.057688	0.173449	0.556542
C104	C	1.557688	0.673449	1.056542
H105	H	0.347201	-0.040145	0.000132
H106	H	0.847201	0.459855	0.500132
H107	H	1.167066	0.018767	0.433989
H108	H	1.667066	0.518767	0.933989
F109	F	0.818448	-0.056313	0.000101
F110	F	1.318448	0.443687	0.500101
H111	H	0.948262	0.328105	0.245128
H112	H	1.448262	0.828105	0.745128
F113	F	0.296918	0.403224	0.000106
F114	F	0.796918	0.903224	0.500106
H115	H	0.948313	0.328133	0.755071
H116	H	1.448313	0.828133	1.255071
H117	H	0.768157	0.387054	0.000062
H118	H	1.268157	0.887054	0.500062
H119	H	0.948280	0.328106	0.433993
H120	H	1.448280	0.828106	0.933993
H121	H	0.749465	-0.151052	0.000026
H122	H	1.249465	0.348948	0.500026
F123	F	0.900015	-0.026428	0.000078
F124	F	1.400015	0.473572	0.500078
H125	H	0.598882	0.382560	0.000083
H126	H	1.098882	0.882560	0.500083
F127	F	0.489538	0.408330	0.000079
F128	F	0.989538	0.908330	0.500079
F129	F	0.724319	-0.401371	0.000004
F130	F	1.224319	0.098629	0.500004
F131	F	1.182136	-0.002551	0.232120
F132	F	1.682136	0.497449	0.732120
F133	F	1.391041	-0.251724	0.000171
F134	F	1.891041	0.248276	0.500171
F135	F	1.182182	-0.002534	0.768091
F136	F	1.682182	0.497466	1.268091
F137	F	0.530645	-0.063952	0.000124
F138	F	1.030645	0.436048	0.500124
H139	H	0.948289	0.328122	0.566211
H140	H	1.448289	0.828122	1.066211
H141	H	1.215976	-0.593918	0.000110
H142	H	1.715976	-0.093918	0.500110
H143	H	1.365889	-0.502043	0.000154
H144	H	1.865889	-0.002043	0.500154
H145	H	1.224967	-0.118613	0.000151
H146	H	1.724967	0.381387	0.500151
F147	F	0.889780	-0.567238	-0.000006
F148	F	1.389780	-0.067238	0.499994
H149	H	1.167089	0.018778	0.566211
H150	H	1.667089	0.518778	1.066211
F151	F	0.625825	-0.061419	0.000120
F152	F	1.125825	0.438581	0.500120
