data_functionalizedCrystal
_audit_creation_method	'MofGen! by Chris Wilmer'
_symmetry_space_group_name_H-M	'P1'
_symmetry_Int_Tables_number	1
_symmetry_cell_setting	triclinic
loop_
_symmetry_equiv_pos_as_xyz
  x,y,z
_cell_length_a	6.817900
_cell_length_b	16.255699
_cell_length_c	16.256277
_cell_angle_alpha	95.340838
_cell_angle_beta	103.500353
_cell_angle_gamma	103.489404
loop_
_atom_site_label
_atom_site_type_symbol
_atom_site_fract_x
_atom_site_fract_y
_atom_site_fract_z
V1	V	-4.026837	-0.117774	-0.264156
O2	O	-4.014317	0.004956	-0.258839
O3	O	-3.978384	-0.232849	-0.262627
O4	O	-3.978455	-0.116271	-0.379237
O5	O	-4.014245	-0.112429	-0.141422
V6	V	-4.510469	-0.103058	-0.249442
O7	O	-4.287855	-0.150056	-0.296432
O8	O	-4.699648	-0.070776	-0.217167
O9	O	-4.335716	0.012018	-0.250971
O10	O	-4.640386	-0.225788	-0.254760
O11	O	-4.640458	-0.108402	-0.372177
O12	O	-4.335645	-0.104561	-0.134362
C13	C	-3.823371	-0.260893	-0.258532
C14	C	-3.865042	-0.354970	-0.258049
C15	C	-3.775620	-0.577782	-0.252516
C16	C	-3.859243	-0.625224	-0.184318
C17	C	-3.941442	-0.527222	-0.257206
C18	C	-3.932094	-0.647411	-0.324552
C19	C	-4.015229	-0.693609	-0.256395
C20	C	-4.024487	-0.573416	-0.188956
C21	C	-4.097341	-0.595606	-0.329253
C22	C	-4.181083	-0.643024	-0.261041
C23	C	-3.898929	-0.431370	-0.257672
C24	C	-4.057752	-0.789459	-0.255923
C25	C	-3.823461	-0.112185	-0.407278
C26	C	-3.865187	-0.111717	-0.501359
C27	C	-4.156131	-0.114983	-0.733187
C28	C	-4.049601	-0.042353	-0.776103
C29	C	-3.941484	-0.110838	-0.673603
C30	C	-4.122315	-0.182584	-0.798314
C31	C	-4.015200	-0.109992	-0.839984
C32	C	-3.834374	-0.038156	-0.715271
C33	C	-3.907146	-0.178450	-0.737487
C34	C	-3.800457	-0.105800	-0.780372
C35	C	-3.899024	-0.111324	-0.577755
C36	C	-4.057641	-0.109499	-0.935829
C37	C	-4.154071	0.040056	-0.255064
C38	C	-4.091638	0.134133	-0.255553
C39	C	-4.153981	-0.108650	-0.106316
C40	C	-4.091493	-0.109113	-0.012234
H41	H	-4.197484	-0.582137	-0.390536
N42	N	-4.344143	-0.119772	-0.706987
N43	N	-4.500140	-0.181986	-0.738256
H44	H	-4.632920	-0.185369	-0.719751
N45	N	-3.733572	-0.642107	-0.107434
N46	N	-3.750380	-0.613033	-0.036209
H47	H	-3.661620	-0.624955	0.018089
N48	N	-4.396646	-0.678573	-0.265530
N49	N	-4.472760	-0.653550	-0.208037
H50	H	-4.624999	-0.678657	-0.211203
N51	N	-4.275560	-0.259138	-0.843531
N52	N	-4.443160	-0.254623	-0.892057
H53	H	-4.551401	-0.308686	-0.923991
N54	N	-3.883544	-0.687798	-0.396432
N55	N	-3.975851	-0.681751	-0.470783
H56	H	-3.941535	-0.710270	-0.521542
N57	N	-4.125635	0.029839	-0.797740
N58	N	-4.291599	0.038048	-0.782028
H59	H	-4.345311	0.089031	-0.797306
N60	N	-3.681233	0.038483	-0.670198
N61	N	-3.512846	0.034130	-0.622161
H62	H	-3.404690	0.088255	-0.590328
N63	N	-3.560060	-0.542023	-0.247889
N64	N	-3.421268	-0.547817	-0.184805
H65	H	-3.269028	-0.522564	-0.181535
H66	H	-3.650326	-0.101892	-0.801076
H67	H	-3.846607	-0.236002	-0.720218
H68	H	-4.063095	-0.541300	-0.131591
