data_functionalizedCrystal
_audit_creation_method	'MofGen! by Chris Wilmer'
_symmetry_space_group_name_H-M	'P1'
_symmetry_Int_Tables_number	1
_symmetry_cell_setting	triclinic
loop_
_symmetry_equiv_pos_as_xyz
  x,y,z
_cell_length_a	15.995292
_cell_length_b	15.995350
_cell_length_c	14.472310
_cell_angle_alpha	90.001162
_cell_angle_beta	89.985801
_cell_angle_gamma	83.480495
loop_
_atom_site_label
_atom_site_type_symbol
_atom_site_fract_x
_atom_site_fract_y
_atom_site_fract_z
O1	O	1.111027	0.107689	-0.076861
O2	O	1.611027	0.607689	0.423139
O3	O	0.867245	0.121067	-0.076857
O4	O	1.367245	0.621067	0.423143
O5	O	0.995800	-0.007511	-0.076858
O6	O	1.495800	0.492489	0.423142
O7	O	0.982472	0.236267	-0.076860
O8	O	1.482472	0.736267	0.423140
O9	O	0.995767	-0.007503	0.076824
O10	O	1.495767	0.492497	0.576824
O11	O	0.867212	0.121075	0.076825
O12	O	1.367212	0.621075	0.576825
O13	O	1.110994	0.107696	0.076821
O14	O	1.610994	0.607696	0.576821
Cu15	Cu	0.989100	0.114386	0.090855
Cu16	Cu	1.489100	0.614386	0.590855
Cu17	Cu	0.989139	0.114378	-0.090892
Cu18	Cu	1.489139	0.614378	0.409108
O19	O	0.982439	0.236275	0.076822
O20	O	1.482439	0.736275	0.576822
C21	C	0.836033	0.120527	-0.000016
C22	C	1.336033	0.620527	0.499984
C23	C	0.743080	0.118894	-0.000014
C24	C	1.243080	0.618894	0.499986
C25	C	0.995232	-0.038702	-0.000019
C26	C	1.495232	0.461298	0.499981
C27	C	0.993580	-0.131652	-0.000024
C28	C	1.493580	0.368348	0.499976
C29	C	0.405341	0.112893	-0.000025
C30	C	0.905341	0.612893	0.499975
C31	C	0.428654	0.205697	-0.000368
C32	C	0.928654	0.705697	0.499632
C33	C	0.525329	0.207461	-0.000018
C34	C	1.025329	0.707461	0.499982
C35	C	0.572897	0.115871	-0.000020
C36	C	1.072897	0.615871	0.499980
C37	C	0.543777	0.069477	0.087737
C38	C	1.043777	0.569477	0.587737
C39	C	0.446986	0.068360	0.087807
C40	C	0.946986	0.568360	0.587807
C41	C	0.447168	0.066457	-0.086958
C42	C	0.947168	0.566457	0.413042
C43	C	0.543661	0.069896	-0.088114
C44	C	1.043661	0.569896	0.411886
C45	C	0.667593	0.117549	-0.000014
C46	C	1.167593	0.617549	0.499986
C47	C	0.310646	0.111212	-0.000024
C48	C	0.810646	0.611212	0.499976
C49	C	0.987648	-0.469398	-0.000021
C50	C	1.487648	0.030602	0.499979
C51	C	0.896094	-0.421945	-0.000364
C52	C	1.396094	0.078055	0.499636
C53	C	0.897746	-0.325255	-0.000018
C54	C	1.397746	0.174745	0.499982
C55	C	0.990591	-0.301838	-0.000023
C56	C	1.490591	0.198162	0.499977
C57	C	1.035730	-0.342921	0.087734
C58	C	1.535730	0.157079	0.587734
C59	C	1.033430	-0.439556	0.087808
C60	C	1.533430	0.060444	0.587808
C61	C	1.035359	-0.439923	-0.086958
C62	C	1.535359	0.060077	0.413042
C63	C	1.035337	-0.342978	-0.088117
C64	C	1.535337	0.157022	0.411883
C65	C	0.992259	-0.207141	-0.000021
C66	C	1.492259	0.292859	0.499979
C67	C	0.985983	-0.564095	-0.000017
C68	C	1.485983	-0.064095	0.499983
C69	C	1.142206	0.108237	-0.000023
C70	C	1.642206	0.608237	0.499977
C71	C	1.235159	0.109870	-0.000030
C72	C	1.735159	0.609870	0.499970
C73	C	0.983006	0.267466	-0.000019
C74	C	1.483006	0.767466	0.499981
C75	C	0.984658	0.360416	-0.000020
C76	C	1.484658	0.860416	0.499980
N77	N	0.989078	0.114392	0.218686
N78	N	1.489078	0.614392	0.718686
N79	N	0.989167	0.114365	-0.218722
N80	N	1.489167	0.614365	0.281278
C81	C	0.989138	0.114374	0.592777
C82	C	1.489138	0.614374	1.092777
C83	C	0.920120	0.182943	0.553612
C84	C	1.420120	0.682943	1.053612
C85	C	0.920279	0.183193	0.446524
C86	C	1.420279	0.683193	0.946524
C87	C	0.989108	0.114383	0.407186
C88	C	1.489108	0.614383	0.907186
C89	C	1.076475	0.133447	0.446022
C90	C	1.576475	0.633447	0.946022
C91	C	1.076087	0.133934	0.553143
C92	C	1.576087	0.633934	1.053143
C93	C	0.971568	0.026538	0.553308
C94	C	1.471568	0.526538	1.053308
C95	C	0.969564	0.027124	0.446180
C96	C	1.469564	0.527124	0.946180
C97	C	0.989096	0.114386	0.302298
C98	C	1.489096	0.614386	0.802298
C99	C	0.989155	0.114373	0.697665
C100	C	1.489155	0.614373	1.197665
H101	H	0.544369	0.243790	-0.062928
H102	H	1.044369	0.743790	0.437072
H103	H	0.418855	0.095461	-0.153473
H104	H	0.918855	0.595461	0.346527
H105	H	1.002335	-0.315725	-0.153038
H106	H	1.502335	0.184275	0.346962
Cl107	Cl	1.139873	-0.319279	-0.096311
Cl108	Cl	1.639873	0.180721	0.403689
H109	H	0.562245	0.103675	-0.153037
H110	H	1.062245	0.603675	0.346963
Cl111	Cl	0.937211	0.283018	0.595136
Cl112	Cl	1.437211	0.783018	1.095136
Cl113	Cl	0.842549	-0.282211	0.097273
Cl114	Cl	1.342549	0.217789	0.597273
Cl115	Cl	0.870339	0.004783	0.406995
Cl116	Cl	1.370339	0.504783	0.906995
Cl117	Cl	0.385451	0.260926	-0.097535
Cl118	Cl	0.885451	0.760926	0.402465
Cl119	Cl	1.137204	-0.489370	0.093963
Cl120	Cl	1.637204	0.010630	0.593963
Cl121	Cl	1.049274	-0.052243	0.592409
Cl122	Cl	1.549274	0.447757	1.092409
H123	H	1.016569	-0.026291	0.419406
H124	H	1.516569	0.473709	0.919406
Cl125	Cl	0.989157	-0.471617	-0.189653
Cl126	Cl	1.489157	0.028383	0.310347
H127	H	1.103940	-0.328809	0.090994
H128	H	1.603940	0.171191	0.590994
Cl129	Cl	0.574720	0.119227	0.188574
Cl130	Cl	1.074720	0.619227	0.688574
H131	H	1.091569	0.197992	0.578118
H132	H	1.591569	0.697992	1.078118
Cl133	Cl	0.383831	0.260628	0.096249
Cl134	Cl	0.883831	0.760628	0.596249
H135	H	0.862262	-0.296829	-0.062926
H136	H	1.362262	0.203171	0.437074
Cl137	Cl	0.592967	-0.034584	0.092773
Cl138	Cl	1.092967	0.465416	0.592773
Cl139	Cl	0.553729	0.263899	0.097277
Cl140	Cl	1.053729	0.763899	0.597277
H141	H	1.102861	-0.471698	-0.087551
H142	H	1.602861	0.028302	0.412449
H143	H	0.855338	0.171838	0.420269
H144	H	1.355338	0.671838	0.920269
H145	H	0.854968	0.171775	0.579401
H146	H	1.354968	0.671775	1.079401
H147	H	0.576632	0.003044	-0.093416
H148	H	1.076632	0.503044	0.406584
H149	H	0.931499	0.248375	0.420889
H150	H	1.431499	0.748375	0.920889
Cl151	Cl	0.982563	-0.467800	0.189091
Cl152	Cl	1.482563	0.032200	0.689091
Cl153	Cl	0.425569	-0.039010	-0.087875
Cl154	Cl	0.925569	0.460990	0.412125
Cl155	Cl	0.839612	-0.450547	-0.097528
Cl156	Cl	1.339612	0.049453	0.402472
H157	H	0.859649	-0.441528	0.062219
H158	H	1.359649	0.058472	0.562219
Cl159	Cl	0.987285	-0.299092	0.188571
Cl160	Cl	1.487285	0.200908	0.688571
H161	H	0.420155	0.100497	0.153408
H162	H	0.920155	0.600497	0.653408
Cl163	Cl	1.157666	0.058390	0.406682
Cl164	Cl	1.657666	0.558390	0.906682
Cl165	Cl	1.157685	0.059677	0.593144
Cl166	Cl	1.657685	0.559677	1.093144
Cl167	Cl	0.424515	-0.036689	0.094014
Cl168	Cl	0.924515	0.463311	0.594014
Cl169	Cl	1.100954	0.231219	0.404590
Cl170	Cl	1.600954	0.731219	0.904590
H171	H	0.909244	0.008203	0.580376
H172	H	1.409244	0.508203	1.080376
