data_functionalizedCrystal
_audit_creation_method	'MofGen! by Chris Wilmer'
_symmetry_space_group_name_H-M	'P1'
_symmetry_Int_Tables_number	1
_symmetry_cell_setting	triclinic
loop_
_symmetry_equiv_pos_as_xyz
  x,y,z
_cell_length_a	15.538191
_cell_length_b	14.971482
_cell_length_c	14.048226
_cell_angle_alpha	89.994098
_cell_angle_beta	89.996115
_cell_angle_gamma	65.442351
loop_
_atom_site_label
_atom_site_type_symbol
_atom_site_fract_x
_atom_site_fract_y
_atom_site_fract_z
O1	O	0.122700	1.146988	-0.079139
O2	O	0.137399	0.881800	-0.079143
O3	O	-0.007022	1.066015	-0.079145
O4	O	0.267122	0.962773	-0.079137
O5	O	-0.007031	1.066001	0.079177
O6	O	0.137391	0.881787	0.079179
O7	O	0.122692	1.146974	0.079182
Zn8	Zn	0.130040	1.014378	0.104317
Zn9	Zn	0.130051	1.014396	-0.104278
O10	O	0.267113	0.962759	0.079184
C11	C	0.136738	0.848683	0.000017
C12	C	0.134770	0.750026	0.000016
C13	C	0.133839	0.703676	0.086318
C14	C	0.131974	0.610985	0.086319
C15	C	0.131048	0.564642	0.000017
C16	C	0.131977	0.611000	-0.086292
C17	C	0.133835	0.703693	-0.086292
C18	C	0.128108	0.417798	-0.086286
C19	C	0.126252	0.325099	-0.086286
C20	C	0.126248	0.325090	0.086325
C21	C	0.128105	0.417783	0.086325
C22	C	0.129036	0.464134	0.000016
C23	C	-0.042110	1.076810	0.000013
C24	C	-0.146648	1.108985	0.000004
C25	C	-0.434794	0.789334	0.000020
C26	C	-0.533026	0.819590	0.000023
C27	C	-0.555280	0.989773	0.000024
C28	C	-0.457048	0.959531	0.000017
C29	C	-0.396812	0.859310	0.000016
C30	C	-0.419066	1.029507	0.000013
C31	C	-0.320842	0.999268	0.000011
C32	C	-0.260600	0.899052	0.000013
C33	C	-0.298588	0.829071	0.000014
C34	C	-0.479303	1.129727	0.000021
C35	C	-0.441321	1.199704	0.000017
C36	C	-0.343095	1.169465	0.000008
C37	C	-0.282854	1.069249	0.000010
C38	C	-0.305107	1.239445	0.000007
C39	C	-0.206884	1.209206	0.000005
C40	C	-0.184630	1.039009	0.000008
C41	C	0.302201	0.951964	0.000024
C42	C	0.406739	0.919789	0.000027
C43	C	0.123353	1.180092	0.000020
C44	C	0.125321	1.278748	0.000016
N45	N	0.130032	1.014373	0.246678
N46	N	0.130052	1.014412	-0.246639
C47	C	0.066108	1.095953	0.296495
C48	C	0.066108	1.095960	0.396153
C49	C	0.130036	1.014387	0.445991
C50	C	0.193962	0.932799	0.396167
C51	C	0.193958	0.932790	0.296512
C52	C	0.193969	0.932822	0.603882
C53	C	0.193975	0.932831	0.703544
C54	C	0.066119	1.095991	0.703523
C55	C	0.066114	1.095983	0.603867
C56	C	0.130042	1.014395	0.554050
H57	H	0.131217	0.573264	-0.156561
H58	H	0.014056	1.162389	0.436713
H59	H	0.134595	0.741429	-0.156568
H60	H	0.128865	0.455510	0.156599
H61	H	-0.249540	0.747461	0.000006
H62	H	-0.135582	0.957399	-0.000000
H63	H	0.014054	1.162382	0.255923
H64	H	0.128866	0.455534	-0.156568
H65	H	-0.180621	0.874432	0.000016
H66	H	-0.559282	1.154345	0.000014
H67	H	-0.490378	1.281304	0.000022
H68	H	0.125490	0.287347	0.156600
H69	H	0.131200	0.573258	0.156594
H70	H	0.125499	0.287369	-0.156561
H71	H	-0.354165	1.321045	0.000018
H72	H	0.134600	0.741398	0.156595
H73	H	-0.385746	0.707725	0.000012
H74	H	-0.175959	1.266188	0.000003
H75	H	0.246009	0.866358	0.255951
H76	H	-0.563946	0.762599	0.000040
H77	H	-0.604337	1.071372	0.000029
H78	H	0.014064	1.162409	0.563289
H79	H	0.014067	1.162423	0.744090
H80	H	0.246031	0.866405	0.744118
H81	H	0.246023	0.866382	0.563324
H82	H	0.246011	0.866377	0.436752
