data_functionalizedCrystal
_audit_creation_method	'MofGen! by Chris Wilmer'
_symmetry_space_group_name_H-M	'P1'
_symmetry_Int_Tables_number	1
_symmetry_cell_setting	triclinic
loop_
_symmetry_equiv_pos_as_xyz
  x,y,z
_cell_length_a	14.044220
_cell_length_b	14.044220
_cell_length_c	12.503572
_cell_angle_alpha	93.843168
_cell_angle_beta	86.164750
_cell_angle_gamma	93.188878
loop_
_atom_site_label
_atom_site_type_symbol
_atom_site_fract_x
_atom_site_fract_y
_atom_site_fract_z
O1	O	1.282200	0.225116	-0.089210
O2	O	1.005530	0.216809	-0.089237
O3	O	1.139712	0.082627	-0.089213
O4	O	1.148019	0.359298	-0.089234
O5	O	1.129622	0.092737	0.089427
O6	O	0.995440	0.226918	0.089403
O7	O	1.272110	0.235226	0.089430
Cu8	Cu	1.132854	0.231995	0.105728
Cu9	Cu	1.144786	0.220040	-0.105535
O10	O	1.137929	0.369407	0.089406
C11	C	0.964864	0.218228	0.000080
C12	C	0.858721	0.207383	0.000070
C13	C	0.664382	0.187558	0.000092
C14	C	0.613253	0.264472	0.000091
C15	C	0.505116	0.253441	0.000104
C16	C	0.772529	0.198587	0.000080
C17	C	1.131031	0.052060	0.000107
C18	C	1.120187	-0.054082	0.000107
C19	C	1.100361	-0.248421	0.000090
C20	C	1.177275	-0.299551	0.000094
C21	C	1.166244	-0.407687	0.000084
C22	C	1.111391	-0.140274	0.000099
C23	C	1.312777	0.233807	0.000111
C24	C	1.418920	0.244651	0.000114
C25	C	1.146609	0.399974	0.000084
C26	C	1.157454	0.506117	0.000077
N27	N	1.124469	0.240404	0.254319
N28	N	1.153179	0.211624	-0.254126
C29	C	1.112134	0.252782	0.473432
C30	C	1.165511	0.199249	0.526768
C31	C	1.158648	0.206136	0.648690
C32	C	1.118996	0.245896	0.351499
H33	H	0.626945	0.113431	0.000104
H34	H	1.026234	-0.285859	0.000080
O35	O	1.226232	0.138447	0.472022
C36	C	1.389278	0.094339	0.436951
C37	C	1.320669	0.163250	0.499115
H38	H	1.465647	0.114380	0.458815
H39	H	1.369074	0.018041	0.458957
H40	H	1.383905	0.099620	0.346988
H41	H	1.326007	0.158054	0.589091
H42	H	1.340894	0.239519	0.477018
O43	O	1.051418	0.313504	0.528305
C44	C	0.915710	0.330023	0.655406
C45	C	0.984411	0.261152	0.593331
H46	H	0.861506	0.287722	0.707978
H47	H	0.958078	0.384061	0.708124
H48	H	0.876645	0.369276	0.596002
H49	H	1.023494	0.221833	0.652657
H50	H	0.941991	0.207174	0.540597
O51	O	0.658066	0.352840	0.000004
C52	C	0.808269	0.444549	-0.000018
C53	C	0.757636	0.344422	0.000075
H54	H	0.888779	0.437778	0.000063
H55	H	0.791012	0.480760	-0.074810
H56	H	0.782485	0.489247	0.074711
H57	H	0.783391	0.299648	-0.074603
H58	H	0.774892	0.308287	0.074917
H59	H	1.251413	-0.262115	0.000029
