data_functionalizedCrystal
_audit_creation_method	'MofGen! by Chris Wilmer'
_symmetry_space_group_name_H-M	'P1'
_symmetry_Int_Tables_number	1
_symmetry_cell_setting	triclinic
loop_
_symmetry_equiv_pos_as_xyz
  x,y,z
_cell_length_a	16.992695
_cell_length_b	16.109301
_cell_length_c	14.586319
_cell_angle_alpha	90.000787
_cell_angle_beta	89.995905
_cell_angle_gamma	92.935148
loop_
_atom_site_label
_atom_site_type_symbol
_atom_site_fract_x
_atom_site_fract_y
_atom_site_fract_z
O1	O	0.100784	-1.109856	-0.076183
O2	O	0.113326	-0.868631	-0.076198
O3	O	-0.007087	-0.988277	-0.076183
O4	O	0.221197	-0.990211	-0.076198
O5	O	-0.007089	-0.988268	0.076298
O6	O	0.113324	-0.868622	0.076283
O7	O	0.100782	-1.109847	0.076298
Cu8	Cu	0.107053	-0.989234	0.090213
Cu9	Cu	0.107055	-0.989244	-0.090113
O10	O	0.221196	-0.990202	0.076283
C11	C	0.112817	-0.837618	0.000041
C12	C	0.111294	-0.745221	0.000035
C13	C	-0.036300	-0.985784	0.000057
C14	C	-0.123343	-0.978361	0.000056
C15	C	0.101291	-1.140860	0.000057
C16	C	0.102814	-1.233257	0.000057
C17	C	-0.173601	-1.049987	0.000062
C18	C	-0.255386	-1.043007	0.000052
C19	C	-0.286911	-0.964400	0.000045
C20	C	-0.236645	-0.892768	0.000037
C21	C	-0.154862	-0.899749	0.000039
C22	C	-0.530501	-0.935467	0.000030
C23	C	-0.612291	-0.928491	0.000030
C24	C	-0.631026	-1.078731	0.000045
C25	C	-0.549240	-1.085704	0.000053
C26	C	-0.498982	-1.014073	0.000040
N27	N	-0.370508	-0.957263	0.000038
N28	N	-0.415387	-1.021210	0.000040
C29	C	0.250408	-0.992694	0.000041
C30	C	0.337451	-1.000118	0.000036
N31	N	0.107051	-0.989232	0.217045
C32	C	0.179203	-0.527480	0.000042
C33	C	0.177766	-0.440664	0.000048
C34	C	0.034899	-0.451005	0.000053
C35	C	0.036337	-0.537819	0.000054
C36	C	0.108492	-0.576055	0.000043
C37	C	0.105616	-0.402424	0.000049
C38	C	0.104057	-0.308294	0.000055
C39	C	0.110051	-0.670191	0.000039
N40	N	0.107051	-0.989252	-0.216945
C41	C	0.053750	-1.042231	0.452058
C42	C	0.053748	-1.042233	0.548039
C43	C	0.160355	-0.936247	0.548036
C44	C	0.160352	-0.936241	0.452056
C45	C	0.107051	-0.989238	0.404070
C46	C	0.107051	-0.989246	0.596030
C47	C	0.107050	-0.989248	0.700098
C48	C	0.107051	-0.989235	0.299996
H49	H	-0.147941	-1.113997	0.000074
C50	C	0.258571	-0.569540	0.000038
C51	C	0.260159	-0.665032	0.000035
C52	C	0.339529	-0.707089	0.000034
C53	C	0.417310	-0.653654	0.000036
C54	C	0.415724	-0.558156	0.000040
C55	C	0.336355	-0.516099	0.000041
H56	H	0.202578	-0.704593	0.000033
H57	H	0.340702	-0.777783	0.000031
H58	H	0.476064	-0.684787	0.000035
H59	H	0.473305	-0.518595	0.000042
H60	H	0.335181	-0.445405	0.000044
H61	H	0.010345	-1.085384	0.587108
H62	H	-0.489590	-0.877139	0.000020
H63	H	0.235347	-0.401118	0.000048
H64	H	-0.296304	-1.101332	0.000059
H65	H	0.203757	-0.893084	0.412982
C66	C	-0.514560	-1.172171	0.000056
C67	C	-0.460902	-1.197627	-0.079119
C68	C	-0.426219	-1.284093	-0.079113
C69	C	-0.445194	-1.345103	0.000069
C70	C	-0.498855	-1.319648	0.079250
C71	C	-0.533538	-1.233182	0.079243
H72	H	-0.446853	-1.152463	-0.137739
H73	H	-0.386496	-1.302936	-0.137728
H74	H	-0.419520	-1.409110	0.000074
H75	H	-0.512904	-1.364813	0.137870
H76	H	-0.573261	-1.214339	0.137858
H77	H	-0.262319	-0.828765	0.000024
H78	H	-0.113942	-0.841423	0.000035
C79	C	-0.686311	-1.157521	0.000048
C80	C	-0.745121	-1.173380	0.079223
C81	C	-0.800406	-1.252175	0.079222
C82	C	-0.796881	-1.315109	0.000046
C83	C	-0.738069	-1.299251	-0.079136
C84	C	-0.682784	-1.220457	-0.079135
H85	H	-0.747732	-1.126791	0.137840
H86	H	-0.843943	-1.263913	0.137838
H87	H	-0.837807	-1.373437	0.000045
H88	H	-0.735458	-1.345840	-0.137752
H89	H	-0.639247	-1.208718	-0.137750
H90	H	-0.023846	-0.419863	0.000067
C91	C	-0.041451	-0.591258	0.000054
C92	C	-0.100584	-0.583586	0.079233
C93	C	-0.178368	-0.637024	0.079237
C94	C	-0.197020	-0.698134	0.000062
C95	C	-0.137885	-0.705808	-0.079124
C96	C	-0.060101	-0.652370	-0.079128
H97	H	-0.086778	-0.538346	0.137849
H98	H	-0.222143	-0.631343	0.137856
H99	H	-0.254600	-0.737692	0.000065
H100	H	-0.151691	-0.751048	-0.137740
H101	H	-0.016326	-0.658052	-0.137747
H102	H	0.203753	-0.893100	0.587116
C103	C	-0.004886	-1.100519	0.399272
C104	C	-0.063519	-1.158806	0.452064
C105	C	-0.122159	-1.217094	0.399281
C106	C	-0.122166	-1.217095	0.293708
C107	C	-0.063531	-1.158805	0.240910
C108	C	-0.004891	-1.100518	0.293693
H109	H	-0.063516	-1.158808	0.530221
H110	H	-0.165565	-1.260244	0.438366
H111	H	-0.165575	-1.260243	0.254635
H112	H	-0.063534	-1.158804	0.162753
H113	H	0.038515	-1.057368	0.254608
H114	H	-0.637954	-0.864477	0.000039
