data_functionalizedCrystal
_audit_creation_method	'MofGen! by Chris Wilmer'
_symmetry_space_group_name_H-M	'P1'
_symmetry_Int_Tables_number	1
_symmetry_cell_setting	triclinic
loop_
_symmetry_equiv_pos_as_xyz
  x,y,z
_cell_length_a	18.050589
_cell_length_b	16.959455
_cell_length_c	16.959447
_cell_angle_alpha	89.984772
_cell_angle_beta	90.026643
_cell_angle_gamma	89.977010
loop_
_atom_site_label
_atom_site_type_symbol
_atom_site_fract_x
_atom_site_fract_y
_atom_site_fract_z
Zn1	Zn	-0.295748	-1.208339	0.446948
Zn2	Zn	0.204252	-0.708339	0.946948
Zn3	Zn	-0.419950	-1.208243	0.314778
Zn4	Zn	0.080050	-0.708243	0.814778
Zn5	Zn	-0.295767	-1.076167	0.314783
Zn6	Zn	0.204233	-0.576167	0.814783
Zn7	Zn	-0.419890	-1.076113	0.446914
Zn8	Zn	0.080110	-0.576113	0.946914
O9	O	-0.357839	-1.142216	0.380856
O10	O	0.142161	-0.642216	0.880856
O11	O	-0.312241	-1.318937	0.429427
O12	O	0.187759	-0.818937	0.929427
O13	O	-0.403510	-1.190705	0.204168
O14	O	0.096490	-0.690705	0.704168
O15	O	-0.191840	-1.093763	0.332332
O16	O	0.308160	-0.593763	0.832332
O17	O	-0.403492	-1.318866	0.332322
O18	O	0.096508	-0.818866	0.832322
O19	O	-0.191826	-1.190869	0.429432
O20	O	0.308174	-0.690869	0.929432
O21	O	-0.312273	-1.093670	0.204172
O22	O	0.187727	-0.593670	0.704172
O23	O	-0.312215	-0.965549	0.332299
O24	O	0.187785	-0.465549	0.832299
O25	O	-0.403389	-1.093671	0.557530
O26	O	0.096611	-0.593671	1.057530
O27	O	-0.403407	-0.965510	0.429375
O28	O	0.096593	-0.465510	0.929375
O29	O	-0.312183	-1.190817	0.557554
O30	O	0.187817	-0.690817	1.057554
O31	O	-0.523867	-1.190653	0.332290
O32	O	-0.023867	-0.690653	0.832290
O33	O	-0.523822	-1.093578	0.429370
O34	O	-0.023822	-0.593578	0.929370
C35	C	-0.357807	-0.936849	0.380835
C36	C	0.142193	-0.436849	0.880835
C37	C	-0.357811	-0.848993	0.380844
C38	C	0.142189	-0.348993	0.880844
C39	C	-0.310292	-0.477513	0.330403
C40	C	0.189708	0.022487	0.830403
C41	C	-0.405399	-0.477521	0.431333
C42	C	0.094601	0.022479	0.931333
C43	C	-0.405391	-0.560067	0.431329
C44	C	0.094609	-0.060067	0.931329
C45	C	-0.357834	-0.601340	0.380861
C46	C	0.142166	-0.101340	0.880861
C47	C	-0.310285	-0.560067	0.330397
C48	C	0.189715	-0.060067	0.830397
C49	C	-0.452945	-0.601346	0.481787
C50	C	0.047055	-0.101346	0.981787
C51	C	-0.452940	-0.683897	0.481785
C52	C	0.047060	-0.183897	0.981785
C53	C	-0.405379	-0.725171	0.431320
C54	C	0.094621	-0.225171	0.931320
C55	C	-0.357827	-0.683893	0.380854
C56	C	0.142173	-0.183893	0.880854
C57	C	-0.310269	-0.725166	0.330386
C58	C	0.189731	-0.225166	0.830386
C59	C	-0.262713	-0.683890	0.279924
C60	C	0.237287	-0.183890	0.779924
C61	C	-0.262723	-0.601342	0.279932
C62	C	0.237277	-0.101342	0.779932
C63	C	-0.405368	-0.807720	0.431312
C64	C	0.094632	-0.307720	0.931312
C65	C	-0.310262	-0.807720	0.330380
C66	C	0.189738	-0.307720	0.830380
C67	C	-0.550791	-1.142120	0.380843
C68	C	-0.050791	-0.642120	0.880843
C69	C	-0.633337	-1.142152	0.380864
C70	C	-0.133337	-0.642152	0.880864
C71	C	-0.832790	-1.089414	0.433637
C72	C	-0.332790	-0.589414	0.933637
C73	C	-0.882233	-1.070151	0.361510
C74	C	-0.382233	-0.570151	0.861510
C75	C	-0.784467	-1.142229	0.380874
C76	C	-0.284467	-0.642229	0.880874
C77	C	-0.882106	-1.161531	0.453009
C78	C	-0.382106	-0.661531	0.953009
C79	C	-0.930452	-1.142303	0.380890
C80	C	-0.430452	-0.642303	0.880890
C81	C	-0.832822	-1.122929	0.308708
C82	C	-0.332822	-0.622929	0.808708
C83	C	-0.832692	-1.214342	0.400256
C84	C	-0.332692	-0.714342	0.900256
C85	C	-0.882112	-1.195106	0.328080
C86	C	-0.382112	-0.695106	0.828080
C87	C	-0.700369	-1.142185	0.380866
C88	C	-0.200369	-0.642185	0.880866
C89	C	-1.014549	-1.142347	0.380890
C90	C	-0.514549	-0.642347	0.880890
C91	C	-0.164133	-1.142333	0.380886
C92	C	0.335867	-0.642333	0.880886
C93	C	-0.081587	-1.142383	0.380899
C94	C	0.418413	-0.642383	0.880899
C95	C	-0.357777	-1.142249	0.587024
C96	C	0.142223	-0.642249	1.087024
C97	C	-0.357751	-1.142263	0.674881
C98	C	0.142249	-0.642263	1.174881
C99	C	-0.357862	-0.348384	0.380874
C100	C	0.142138	0.151616	0.880874
C101	C	-0.357849	-0.436240	0.380871
C102	C	0.142151	0.063760	0.880871
C103	C	-0.357846	-1.142228	0.175490
C104	C	0.142154	-0.642228	0.675490
C105	C	-0.357663	-1.142368	0.087633
C106	C	0.142337	-0.642368	0.587633
C107	C	-0.405160	-1.091778	1.046346
C108	C	0.094840	-0.591778	1.546346
C109	C	-0.310186	-1.192936	1.046367
C110	C	0.189814	-0.692936	1.546367
C111	C	-0.310202	-1.192915	0.963821
C112	C	0.189798	-0.692915	1.463821
C113	C	-0.357698	-1.142326	0.922534
C114	C	0.142302	-0.642326	1.422534
C115	C	-0.405178	-1.091757	0.963793
C116	C	0.094822	-0.591757	1.463793
C117	C	-0.262728	-1.243489	0.922556
C118	C	0.237272	-0.743489	1.422556
C119	C	-0.262742	-1.243470	0.840005
C120	C	0.237258	-0.743470	1.340005
C121	C	-0.310235	-1.192876	0.798717
C122	C	0.189765	-0.692876	1.298717
C123	C	-0.357717	-1.142305	0.839980
C124	C	0.142283	-0.642305	1.339980
C125	C	-0.405213	-1.091715	0.798693
C126	C	0.094787	-0.591715	1.298693
C127	C	-0.452691	-1.041139	0.839956
C128	C	0.047309	-0.541139	1.339956
C129	C	-0.452671	-1.041162	0.922504
C130	C	0.047329	-0.541162	1.422504
C131	C	-0.310255	-1.192852	0.716168
C132	C	0.189745	-0.692852	1.216168
C133	C	-0.405232	-1.091694	0.716140
C134	C	0.094768	-0.591694	1.216140
H135	H	-0.444090	-0.841323	0.472395
H136	H	0.055910	-0.341323	0.972395
N137	N	-0.259064	-1.247402	0.671658
N138	N	0.240936	-0.747402	1.171658
H139	H	-0.205992	-1.235174	0.686028
H140	H	0.294008	-0.735174	1.186028
H141	H	-0.266352	-1.239682	0.613115
H142	H	0.233648	-0.739682	1.113115
N143	N	-0.456459	-1.037133	0.671603
N144	N	0.043541	-0.537133	1.171603
H145	H	-0.426277	-1.000517	0.637358
H146	H	0.073723	-0.500517	1.137358
H147	H	-0.486523	-1.005149	0.710314
H148	H	0.013477	-0.505149	1.210314
H149	H	-0.223995	-0.717505	0.238830
H150	H	0.276005	-0.217505	0.738830
N151	N	-0.910619	-1.254311	0.268919
N152	N	-0.410619	-0.754311	0.768919
H153	H	-0.942176	-1.226469	0.228348
H154	H	-0.442176	-0.726469	0.728348
H155	H	-0.941345	-1.295392	0.296988
H156	H	-0.441345	-0.795392	0.796988
H157	H	-0.271530	-0.841319	0.289287
H158	H	0.228470	-0.341319	0.789287
N159	N	-0.804092	-1.030178	0.492662
N160	N	-0.304092	-0.530178	0.992662
H161	H	-0.847222	-1.002969	0.519092
H162	H	-0.347222	-0.502969	1.019092
H163	H	-0.772562	-0.989772	0.464622
H164	H	-0.272562	-0.489772	0.964622
H165	H	-0.491328	-0.999989	0.956107
H166	H	0.008672	-0.499989	1.456107
H167	H	-0.491669	-0.567735	0.522869
H168	H	0.008331	-0.067735	1.022869
N169	N	-0.504220	-0.728410	0.536221
N170	N	-0.004220	-0.228410	1.036221
H171	H	-0.496998	-0.786968	0.528563
H172	H	0.003002	-0.286968	1.028563
H173	H	-0.557248	-0.713964	0.523826
H174	H	-0.057248	-0.213964	1.023826
N175	N	-0.456352	-1.037214	1.090843
N176	N	0.043648	-0.537214	1.590843
H177	H	-0.449131	-1.044895	1.149403
H178	H	0.050869	-0.544895	1.649403
H179	H	-0.509402	-1.049468	1.076410
H180	H	-0.009402	-0.549468	1.576410
N181	N	-0.803838	-1.295053	0.421998
N182	N	-0.303838	-0.795053	0.921998
H183	H	-0.773058	-1.316600	0.377190
H184	H	-0.273058	-0.816600	0.877190
H185	H	-0.846937	-1.331554	0.432406
H186	H	-0.346937	-0.831554	0.932406
N187	N	-0.910791	-1.183120	0.533802
N188	N	-0.410791	-0.683120	1.033802
H189	H	-0.892850	-1.143157	0.573605
H190	H	-0.392850	-0.643157	1.073605
H191	H	-0.891991	-1.237187	0.548778
H192	H	-0.391991	-0.737187	1.048778
H193	H	-0.224006	-0.567727	0.238847
H194	H	0.275994	-0.067727	0.738847
N195	N	-0.211529	-1.298005	0.795500
N196	N	0.288471	-0.798005	1.295500
H197	H	-0.241719	-1.334608	0.761240
H198	H	0.258281	-0.834608	1.261240
H199	H	-0.181446	-1.330004	0.834229
H200	H	0.318554	-0.830004	1.334229
N201	N	-0.503910	-0.986568	0.795419
N202	N	-0.003910	-0.486568	1.295419
H203	H	-0.533982	-0.954528	0.834079
H204	H	-0.033982	-0.454528	1.334079
H205	H	-0.538292	-1.018712	0.761161
H206	H	-0.038292	-0.518712	1.261161
H207	H	-0.904010	-1.009203	0.345131
H208	H	-0.404010	-0.509203	0.845131
N209	N	-0.258965	-1.247504	1.090893
N210	N	0.241035	-0.747504	1.590893
H211	H	-0.266159	-1.239845	1.149449
H212	H	0.233841	-0.739845	1.649449
H213	H	-0.205926	-1.235228	1.076480
H214	H	0.294074	-0.735228	1.576480
N215	N	-0.804274	-1.101252	0.227885
N216	N	-0.304274	-0.601252	0.727885
H217	H	-0.748322	-1.101335	0.228383
H218	H	-0.248322	-0.601335	0.728383
H219	H	-0.822787	-1.046999	0.213179
H220	H	-0.322787	-0.546999	0.713179
H221	H	-0.224063	-1.284681	0.956178
H222	H	0.275937	-0.784681	1.456178
H223	H	-0.271571	-0.443903	0.289320
H224	H	0.228429	0.056097	0.789320
H225	H	-0.444122	-0.443911	0.472417
H226	H	0.055878	0.056089	0.972417
