data_functionalizedCrystal
_audit_creation_method	'MofGen! by Chris Wilmer'
_symmetry_space_group_name_H-M	'P1'
_symmetry_Int_Tables_number	1
_symmetry_cell_setting	triclinic
loop_
_symmetry_equiv_pos_as_xyz
  x,y,z
_cell_length_a	21.395362
_cell_length_b	16.625546
_cell_length_c	21.395355
_cell_angle_alpha	89.981524
_cell_angle_beta	89.956060
_cell_angle_gamma	90.038346
loop_
_atom_site_label
_atom_site_type_symbol
_atom_site_fract_x
_atom_site_fract_y
_atom_site_fract_z
Zn1	Zn	0.957895	-0.320753	-0.354586
Zn2	Zn	1.457895	0.179247	0.145414
Zn3	Zn	0.957813	-0.455568	-0.249808
Zn4	Zn	1.457813	0.044432	0.250192
Zn5	Zn	0.853110	-0.320791	-0.249787
Zn6	Zn	1.353110	0.179209	0.250213
Zn7	Zn	0.853095	-0.455585	-0.354513
Zn8	Zn	1.353095	0.044415	0.145487
O9	O	0.905478	-0.388174	-0.302174
O10	O	1.405478	0.111826	0.197826
O11	O	1.045562	-0.338614	-0.340726
O12	O	1.545562	0.161386	0.159274
O13	O	0.943896	-0.437699	-0.162128
O14	O	1.443896	0.062301	0.337872
O15	O	0.867051	-0.207953	-0.263710
O16	O	1.367051	0.292047	0.236290
O17	O	1.045502	-0.437662	-0.263747
O18	O	1.545502	0.062338	0.236253
O19	O	0.944036	-0.207926	-0.340706
O20	O	1.444036	0.292074	0.159294
O21	O	0.866971	-0.338678	-0.162112
O22	O	1.366971	0.161322	0.337888
O23	O	0.765430	-0.338694	-0.263640
O24	O	1.265430	0.161306	0.236360
O25	O	0.867024	-0.437690	-0.442201
O26	O	1.367024	0.062310	0.057799
O27	O	0.765419	-0.437727	-0.340582
O28	O	1.265419	0.062273	0.159418
O29	O	0.944021	-0.338630	-0.442254
O30	O	1.444021	0.161370	0.057746
O31	O	0.943881	-0.568403	-0.263676
O32	O	1.443881	-0.068403	0.236324
O33	O	0.866945	-0.568415	-0.340602
O34	O	1.366945	-0.068415	0.159398
C35	C	0.742691	-0.388217	-0.302101
C36	C	1.242691	0.111783	0.197899
C37	C	0.673049	-0.388255	-0.302085
C38	C	1.173049	0.111745	0.197915
C39	C	0.905419	-0.597665	-0.302147
C40	C	1.405419	-0.097665	0.197853
C41	C	0.905451	-0.687286	-0.302157
C42	C	1.405451	-0.187286	0.197843
C43	C	0.640347	-0.439889	-0.342088
C44	C	1.140347	0.060111	0.157912
C45	C	0.574911	-0.439870	-0.342116
C46	C	1.074911	0.060130	0.157884
C47	C	0.542181	-0.388224	-0.302129
C48	C	1.042181	0.111776	0.197871
C49	C	0.574892	-0.336579	-0.262123
C50	C	1.074892	0.163421	0.237877
C51	C	0.640326	-0.336594	-0.262101
C52	C	1.140326	0.163406	0.237899
C53	C	0.438456	-0.381728	-0.245724
C54	C	0.938456	0.118272	0.254276
C55	C	0.373023	-0.381718	-0.245745
C56	C	0.873023	0.118282	0.254255
C57	C	0.340360	-0.388171	-0.302198
C58	C	0.840360	0.111829	0.197802
C59	C	0.373139	-0.394651	-0.358632
C60	C	0.873139	0.105349	0.141368
C61	C	0.438573	-0.394666	-0.358610
C62	C	0.938573	0.105334	0.141390
C63	C	0.471229	-0.388201	-0.302149
C64	C	0.971229	0.111799	0.197851
C65	C	0.236705	-0.439787	-0.342236
C66	C	0.736705	0.060213	0.157764
C67	C	0.171268	-0.439762	-0.342265
C68	C	0.671268	0.060238	0.157735
C69	C	0.171250	-0.336475	-0.262266
C70	C	0.671250	0.163525	0.237734
C71	C	0.236686	-0.336496	-0.262242
C72	C	0.736686	0.163504	0.237758
C73	C	0.269409	-0.388157	-0.302227
C74	C	0.769409	0.111843	0.197773
C75	C	0.905560	-1.015462	-0.302222
C76	C	1.405560	-0.515462	0.197778
C77	C	0.905528	-0.924153	-0.302206
C78	C	1.405528	-0.424153	0.197794
C79	C	0.905505	-0.851377	-0.302189
C80	C	1.405505	-0.351377	0.197811
C81	C	0.905474	-0.760063	-0.302174
C82	C	1.405474	-0.260063	0.197826
C83	C	1.068902	-0.388132	-0.302247
C84	C	1.568902	0.111868	0.197753
C85	C	1.138543	-0.388114	-0.302278
C86	C	1.638543	0.111886	0.197722
C87	C	0.905530	-0.388158	-0.465597
C88	C	1.405530	0.111842	0.034403
C89	C	0.905552	-0.388151	-0.535238
C90	C	1.405552	0.111849	-0.035238
C91	C	0.905555	-0.177865	-0.302214
C92	C	1.405555	0.322135	0.197786
C93	C	0.905588	-0.088244	-0.302231
C94	C	1.405588	0.411756	0.197769
C95	C	0.945643	-0.336568	-0.567980
C96	C	1.445643	0.163432	-0.067980
C97	C	0.945642	-0.336534	-0.633416
C98	C	1.445642	0.163466	-0.133416
C99	C	0.905557	-0.388096	-0.666107
C100	C	1.405557	0.111904	-0.166107
C101	C	0.865459	-0.439683	-0.633357
C102	C	1.365459	0.060317	-0.133357
C103	C	0.865457	-0.439710	-0.567923
C104	C	1.365457	0.060290	-0.067923
C105	C	0.900589	-0.460699	-0.769771
C106	C	1.400589	0.039301	-0.269771
C107	C	0.900596	-0.460672	-0.835204
C108	C	1.400596	0.039328	-0.335204
C109	C	0.905561	-0.388011	-0.867927
C110	C	1.405561	0.111989	-0.367927
C111	C	0.910532	-0.315373	-0.835210
C112	C	1.410532	0.184627	-0.335210
C113	C	0.910530	-0.315401	-0.769776
C114	C	1.410530	0.184599	-0.269776
C115	C	0.905555	-0.388072	-0.737059
C116	C	1.405555	0.111928	-0.237059
C117	C	0.945653	-0.336386	-0.971622
C118	C	1.445653	0.163614	-0.471622
C119	C	0.945648	-0.336350	-1.037059
C120	C	1.445648	0.163650	-0.537059
C121	C	0.865468	-0.439506	-1.036999
C122	C	1.365468	0.060494	-0.536999
C123	C	0.865470	-0.439535	-0.971563
C124	C	1.365470	0.060465	-0.471563
C125	C	0.905566	-0.387976	-0.938879
C126	C	1.405566	0.112024	-0.438879
C127	C	0.905463	-0.388132	-0.139386
C128	C	1.405463	0.111868	0.360614
C129	C	0.905562	-0.387912	-0.069745
C130	C	1.405562	0.112088	0.430255
H131	H	0.666986	-0.481954	-0.374647
H132	H	1.166986	0.018046	0.125353
Cl133	Cl	0.894353	-0.551987	-0.876327
Cl134	Cl	1.394353	-0.051987	-0.376327
Cl135	Cl	0.894366	-0.552056	-0.728639
Cl136	Cl	1.394366	-0.052056	-0.228639
H137	H	0.914576	-0.256257	-0.743141
H138	H	1.414576	0.243743	-0.243141
Cl139	Cl	0.815064	-0.504501	-0.674453
Cl140	Cl	1.315064	-0.004501	-0.174453
Cl141	Cl	0.996054	-0.271566	-0.930530
Cl142	Cl	1.496054	0.228434	-0.430530
H143	H	0.978293	-0.294340	-1.063716
H144	H	1.478293	0.205660	-0.563716
H145	H	0.144643	-0.481807	-0.374844
H146	H	0.644643	0.018193	0.125156
Cl147	Cl	0.815053	-0.504563	-0.526759
Cl148	Cl	1.315053	-0.004563	-0.026759
H149	H	0.465259	-0.399940	-0.404560
H150	H	0.965259	0.100060	0.095440
Cl151	Cl	0.533790	-0.504787	-0.392410
Cl152	Cl	1.033790	-0.004787	0.107590
Cl153	Cl	0.277800	-0.271583	-0.211947
Cl154	Cl	0.777800	0.228417	0.288053
H155	H	0.465044	-0.376470	-0.199750
H156	H	0.965044	0.123530	0.300250
Cl157	Cl	0.815070	-0.504390	-0.930400
Cl158	Cl	1.315070	-0.004390	-0.430400
H159	H	0.548239	-0.294527	-0.229567
H160	H	1.048239	0.205473	0.270433
Cl161	Cl	0.130110	-0.271543	-0.212000
Cl162	Cl	0.630110	0.228457	0.288000
H163	H	0.832824	-0.481481	-1.063615
H164	H	1.332824	0.018519	-0.563615
H165	H	0.263350	-0.481848	-0.374796
H166	H	0.763350	0.018152	0.125204
Cl167	Cl	0.332086	-0.402758	-0.429607
Cl168	Cl	0.832086	0.097242	0.070393
H169	H	0.914576	-0.256205	-0.861853
H170	H	1.414576	0.243795	-0.361853
H171	H	0.346339	-0.376447	-0.199794
H172	H	0.846339	0.123553	0.300206
H173	H	0.666952	-0.294545	-0.229525
H174	H	1.166952	0.205455	0.270475
Cl175	Cl	0.996045	-0.271747	-0.526895
Cl176	Cl	1.496045	0.228253	-0.026895
H177	H	0.978287	-0.294524	-0.660079
H178	H	1.478287	0.205476	-0.160079
