data_functionalizedCrystal
_audit_creation_method	'MofGen! by Chris Wilmer'
_symmetry_space_group_name_H-M	'P1'
_symmetry_Int_Tables_number	1
_symmetry_cell_setting	triclinic
loop_
_symmetry_equiv_pos_as_xyz
  x,y,z
_cell_length_a	16.109301
_cell_length_b	15.186229
_cell_length_c	16.109304
_cell_angle_alpha	89.997472
_cell_angle_beta	83.462059
_cell_angle_gamma	90.002891
loop_
_atom_site_label
_atom_site_type_symbol
_atom_site_fract_x
_atom_site_fract_y
_atom_site_fract_z
O1	O	1.103135	0.073167	0.106861
O2	O	0.861073	0.073181	0.120161
O3	O	0.988752	0.073174	-0.007520
O4	O	0.975456	0.073174	0.234542
O5	O	0.988737	-0.073283	-0.007513
O6	O	0.861058	-0.073277	0.120168
O7	O	1.103120	-0.073290	0.106869
Zn8	Zn	0.982087	-0.096537	0.113519
Zn9	Zn	0.982106	0.096427	0.113510
O10	O	0.975441	-0.073283	0.234549
C11	C	0.830091	-0.000046	0.119626
C12	C	0.737795	-0.000041	0.118010
N13	N	0.982079	-0.228229	0.113525
C14	C	0.988206	-0.000052	-0.038491
C15	C	0.986590	-0.000046	-0.130786
C16	C	0.515524	-0.000051	0.190018
C17	C	0.428803	-0.000057	0.188494
C18	C	0.448676	-0.000053	0.037005
C19	C	0.535395	-0.000054	0.038530
C20	C	0.568816	-0.000048	0.115039
C21	C	0.395377	-0.000053	0.111990
C22	C	0.301351	-0.000059	0.110337
C23	C	0.662848	-0.000044	0.116693
C24	C	1.134102	-0.000061	0.107404
C25	C	1.226398	-0.000061	0.109019
C26	C	1.032504	-0.453955	0.163954
C27	C	1.032513	-0.546145	0.163948
C28	C	0.931694	-0.546148	0.063063
C29	C	0.931690	-0.453960	0.063066
C30	C	0.982093	-0.407866	0.113515
C31	C	0.982106	-0.592243	0.113507
C32	C	0.982116	-0.692200	0.113501
C33	C	0.982085	-0.307903	0.113521
N34	N	0.982120	0.228120	0.113497
C35	C	0.982864	0.079784	-0.343128
C36	C	0.981338	0.079784	-0.429848
C37	C	0.981326	-0.079892	-0.429837
C38	C	0.982846	-0.079890	-0.343117
C39	C	0.983620	-0.000050	-0.299766
C40	C	0.980573	-0.000052	-0.473205
C41	C	0.978919	-0.000053	-0.567231
C42	C	0.985273	-0.000048	-0.205734
C43	C	0.975987	-0.000055	0.265520
C44	C	0.977603	-0.000055	0.357816
H45	H	0.542732	-0.000053	0.252316
Cl46	Cl	1.095890	-0.604081	0.227357
Cl47	Cl	1.095874	-0.396011	0.227369
Cl48	Cl	0.868327	-0.604101	-0.000349
Cl49	Cl	0.980387	0.180151	-0.484356
H50	H	0.385416	-0.000061	0.249550
Cl51	Cl	0.406654	-0.000054	-0.059172
Cl52	Cl	0.868310	-0.396015	-0.000346
H53	H	0.983492	0.144796	-0.307833
H54	H	0.980698	-0.144896	-0.465145
Cl55	Cl	0.602396	-0.000057	-0.055737
H56	H	0.983457	-0.144905	-0.307811
