data_functionalizedCrystal
_audit_creation_method	'MofGen! by Chris Wilmer'
_symmetry_space_group_name_H-M	'P1'
_symmetry_Int_Tables_number	1
_symmetry_cell_setting	triclinic
loop_
_symmetry_equiv_pos_as_xyz
  x,y,z
_cell_length_a	12.837943
_cell_length_b	14.472310
_cell_length_c	12.811415
_cell_angle_alpha	95.431886
_cell_angle_beta	89.411917
_cell_angle_gamma	90.012252
loop_
_atom_site_label
_atom_site_type_symbol
_atom_site_fract_x
_atom_site_fract_y
_atom_site_fract_z
O1	O	1.376650	0.099695	0.272970
O2	O	1.074786	0.098571	0.259486
O3	O	1.233309	0.086389	0.114196
O4	O	1.218126	0.111877	0.418260
O5	O	1.233268	-0.067293	0.114201
O6	O	1.074745	-0.055111	0.259491
O7	O	1.376609	-0.053986	0.272976
Cu8	Cu	1.225673	-0.068581	0.266234
Cu9	Cu	1.225722	0.113165	0.266228
O10	O	1.218085	-0.041805	0.418265
C11	C	1.036125	0.021349	0.254933
C12	C	0.920989	0.020213	0.241347
N13	N	1.225647	-0.196412	0.266238
C14	C	0.680738	0.033890	0.404676
C15	C	0.572557	0.032822	0.391916
C16	C	0.596444	0.017002	0.203067
C17	C	0.704625	0.018070	0.215827
C18	C	0.746768	0.026516	0.316635
C19	C	0.854951	0.027590	0.329395
C20	C	0.878835	0.011764	0.140546
C21	C	0.770654	0.010696	0.127786
C22	C	1.225720	-0.570504	0.266223
C23	C	1.140610	-0.524847	0.343647
C24	C	1.140809	-0.417731	0.343980
C25	C	1.225683	-0.384912	0.266231
C26	C	1.333995	-0.420839	0.300983
C27	C	1.333517	-0.527913	0.301547
C28	C	1.203482	-0.540449	0.153888
C29	C	1.201004	-0.433281	0.154375
C30	C	1.225668	-0.280024	0.266233
C31	C	1.225742	-0.675392	0.266223
C32	C	1.415270	0.023237	0.277528
C33	C	1.530406	0.024380	0.291114
C34	C	1.232437	0.006265	0.075009
C35	C	1.229886	-0.003517	-0.041763
N36	N	1.225756	0.240995	0.266216
C37	C	1.225119	0.145664	-0.261187
C38	C	1.222722	0.136477	-0.370905
C39	C	1.222689	-0.031077	-0.370920
C40	C	1.225085	-0.021890	-0.261201
C41	C	1.226302	0.066483	-0.206339
C42	C	1.228706	0.075669	-0.096619
C43	C	1.228665	-0.091884	-0.096635
C44	C	1.226268	-0.101071	-0.206353
C45	C	1.218958	0.038321	0.457452
C46	C	1.221508	0.048109	0.574225
H47	H	0.889262	0.034466	0.411478
O48	O	1.229632	-0.168780	-0.043306
C49	C	1.141328	-0.168235	0.023099
H50	H	1.077907	-0.123296	-0.007915
H51	H	1.111233	-0.242147	0.025312
H52	H	1.163436	-0.138824	0.105596
H53	H	0.715051	0.040768	0.486758
O54	O	1.044228	-0.557835	0.317488
C55	C	1.001086	-0.601204	0.401957
H56	H	1.039815	-0.572725	0.477981
H57	H	0.913837	-0.586667	0.407566
H58	H	1.014718	-0.679286	0.388629
H59	H	1.226119	0.217621	-0.216518
H60	H	1.398861	-0.399920	0.246544
H61	H	1.398853	-0.558312	0.247957
O62	O	1.356844	-0.549654	0.399603
C63	C	1.356690	-0.646914	0.401398
H64	H	1.370557	-0.681300	0.318646
H65	H	1.421197	-0.667990	0.454879
H66	H	1.278196	-0.670100	0.432119
H67	H	1.225274	-0.173021	-0.251037
O68	O	1.357704	-0.380793	0.398157
C69	C	1.280452	-0.403486	0.470453
H70	H	1.239241	-0.469941	0.438813
H71	H	1.318246	-0.414349	0.548498
H72	H	1.221402	-0.344520	0.482510
O73	O	0.508564	0.040040	0.477551
C74	C	0.568964	0.047699	0.569257
H75	H	0.649588	0.075235	0.550672
H76	H	0.529367	0.097541	0.631611
H77	H	0.576777	-0.023485	0.599645
O78	O	0.555324	0.008835	0.105224
C79	C	0.445681	0.009441	0.112847
H80	H	0.420652	0.045195	0.192252
H81	H	0.412194	0.048591	0.047693
H82	H	0.415538	-0.064969	0.104761
H83	H	1.221689	-0.103026	-0.415607
H84	H	0.736326	0.003809	0.045710
H85	H	1.221755	0.200954	-0.415559
O86	O	0.943082	0.004730	0.055094
C87	C	1.006368	0.084483	0.056815
H88	H	1.012213	0.118044	0.140710
H89	H	1.087491	0.063992	0.025820
H90	H	0.970575	0.135903	0.005307
O91	O	1.044702	-0.388671	0.317571
C92	C	0.970415	-0.415307	0.390787
H93	H	1.010681	-0.426183	0.467575
H94	H	0.908997	-0.358552	0.405425
H95	H	0.931496	-0.482722	0.358568
H96	H	1.154667	-0.544828	0.426304
O97	O	1.157627	-0.378783	0.443175
C98	C	1.072253	-0.321903	0.476787
H99	H	1.000443	-0.345330	0.429817
H100	H	1.056482	-0.327662	0.563661
H101	H	1.090797	-0.246724	0.464062
H102	H	1.126190	-0.570091	0.123157
O103	O	1.106020	-0.405462	0.123179
C104	C	1.106009	-0.308373	0.119752
H105	H	1.189401	-0.283090	0.110493
H106	H	1.057879	-0.289835	0.050402
H107	H	1.070737	-0.273687	0.195587
H108	H	1.258931	-0.411634	0.093222
H109	H	1.265543	-0.570617	0.096144
O110	O	1.229694	0.161535	-0.043372
C111	C	1.139416	0.210490	-0.067297
H112	H	1.076054	0.159104	-0.095419
H113	H	1.110880	0.254620	0.005831
H114	H	1.158312	0.257331	-0.131648
