data_functionalizedCrystal
_audit_creation_method	'MofGen! by Chris Wilmer'
_symmetry_space_group_name_H-M	'P1'
_symmetry_Int_Tables_number	1
_symmetry_cell_setting	triclinic
loop_
_symmetry_equiv_pos_as_xyz
  x,y,z
_cell_length_a	27.732048
_cell_length_b	27.731996
_cell_length_c	22.010155
_cell_angle_alpha	89.998256
_cell_angle_beta	89.997107
_cell_angle_gamma	82.632022
loop_
_atom_site_label
_atom_site_type_symbol
_atom_site_fract_x
_atom_site_fract_y
_atom_site_fract_z
O1	O	0.640920	0.057512	-0.050455
O2	O	1.140920	0.557512	0.449545
O3	O	0.500125	0.066257	-0.050474
O4	O	1.000125	0.566257	0.449526
O5	O	0.574908	-0.008514	-0.050451
O6	O	1.074908	0.491486	0.449549
O7	O	0.566136	0.132283	-0.050478
O8	O	1.066136	0.632283	0.449522
O9	O	0.574895	-0.008503	0.050600
O10	O	1.074895	0.491497	0.550600
O11	O	0.500111	0.066269	0.050576
O12	O	1.000111	0.566269	0.550576
O13	O	0.640906	0.057523	0.050596
O14	O	1.140906	0.557523	0.550596
Cu15	Cu	0.570508	0.061897	0.059813
Cu16	Cu	1.070508	0.561897	0.559813
Cu17	Cu	0.570524	0.061884	-0.059691
Cu18	Cu	1.070524	0.561884	0.440309
O19	O	0.566123	0.132294	0.050572
O20	O	1.066123	0.632294	0.550572
C21	C	0.482111	0.066079	0.000049
C22	C	0.982111	0.566079	0.500049
C23	C	0.428456	0.065527	0.000042
C24	C	0.928456	0.565527	0.500042
C25	C	0.574721	-0.026516	0.000077
C26	C	1.074721	0.473484	0.500077
C27	C	0.574179	-0.080172	0.000083
C28	C	1.074179	0.419828	0.500083
C29	C	0.089634	0.106232	0.000060
C30	C	0.589634	0.606232	0.500060
C31	C	-0.112026	0.104180	0.000066
C32	C	0.387974	0.604180	0.500066
O33	O	-0.143288	0.141402	0.000085
O34	O	0.356712	0.641402	0.500085
N35	N	-0.131141	0.059844	0.000074
N36	N	0.368859	0.559844	0.500074
C37	C	-0.099838	0.016017	0.000084
C38	C	0.400162	0.516017	0.500084
O39	O	-0.120724	-0.021740	0.000097
O40	O	0.379276	0.478260	0.500097
C41	C	0.101820	0.018069	0.000082
C42	C	0.601820	0.518069	0.500082
C43	C	0.120933	0.062408	0.000069
C44	C	0.620933	0.562408	0.500069
C45	C	0.108747	0.150567	0.000047
C46	C	0.608747	0.650567	0.500047
C47	C	0.159159	0.151079	0.000042
C48	C	0.659159	0.651079	0.500042
C49	C	0.190457	0.107256	0.000051
C50	C	0.690457	0.607256	0.500051
C51	C	0.171344	0.062920	0.000064
C52	C	0.671344	0.562920	0.500064
C53	C	0.133122	-0.025757	0.000097
C54	C	0.633122	0.474243	0.500097
C55	C	0.183539	-0.025240	0.000098
C56	C	0.683539	0.474760	0.500098
C57	C	0.202652	0.019099	0.000084
C58	C	0.702652	0.519099	0.500084
C59	C	0.253055	0.019609	0.000067
C60	C	0.753055	0.519609	0.500067
N61	N	0.272171	0.063946	0.000060
N62	N	0.772171	0.563946	0.500060
C63	C	0.240872	0.107769	0.000051
C64	C	0.740872	0.607769	0.500051
C65	C	-0.205712	0.014943	0.000083
C66	C	0.294288	0.514943	0.500083
C67	C	-0.256126	0.014430	0.000083
C68	C	0.243874	0.514430	0.500083
C69	C	-0.268310	0.102594	0.000066
C70	C	0.231690	0.602594	0.500066
C71	C	-0.217895	0.103106	0.000062
C72	C	0.282105	0.603106	0.500062
C73	C	-0.186597	0.059280	0.000076
C74	C	0.313403	0.559280	0.500076
C75	C	0.346741	0.108842	0.000041
C76	C	0.846741	0.608842	0.500041
C77	C	0.397158	0.109350	0.000034
C78	C	0.897158	0.609350	0.500034
C79	C	0.409337	0.021187	0.000053
C80	C	0.909337	0.521187	0.500053
C81	C	0.358925	0.020678	0.000057
C82	C	0.858925	0.520678	0.500057
C83	C	0.327627	0.064510	0.000053
C84	C	0.827627	0.564510	0.500053
O85	O	0.284346	-0.017592	0.000055
O86	O	0.784346	0.482408	0.500055
O87	O	0.261767	0.145521	0.000052
O88	O	0.761767	0.645521	0.500052
C89	C	0.039222	0.105719	0.000065
C90	C	0.539222	0.605719	0.500065
C91	C	0.020109	0.061384	0.000078
C92	C	0.520109	0.561384	0.500078
C93	C	0.051408	0.017560	0.000086
C94	C	0.551408	0.517560	0.500086
C95	C	-0.030305	0.060871	0.000077
C96	C	0.469695	0.560871	0.500077
C97	C	-0.061604	0.104694	0.000069
C98	C	0.438396	0.604694	0.500069
C99	C	-0.042489	0.149030	0.000062
C100	C	0.457511	0.649030	0.500062
C101	C	0.007923	0.149543	0.000057
C102	C	0.507923	0.649543	0.500057
C103	C	0.032292	-0.026776	0.000094
C104	C	0.532292	0.473224	0.500094
C105	C	-0.018120	-0.027285	0.000098
C106	C	0.481880	0.472715	0.500098
C107	C	-0.049419	0.016539	0.000090
C108	C	0.450581	0.516539	0.500090
C109	C	0.570771	-0.412894	-0.055030
C110	C	1.070771	0.087106	0.444970
C111	C	0.568710	-0.614553	-0.055041
C112	C	1.068710	-0.114553	0.444959
O113	O	0.568429	-0.640628	-0.101887
O114	O	1.068429	-0.140628	0.398113
N115	N	0.568447	-0.639764	0.000041
N116	N	1.068447	-0.139764	0.500041
C117	C	0.568696	-0.614557	0.055130
C118	C	1.068696	-0.114557	0.555130
O119	O	0.568419	-0.640627	0.101980
O120	O	1.068419	-0.140627	0.601980
C121	C	0.570753	-0.412899	0.055140
C122	C	1.070753	0.087101	0.555140
C123	C	0.571021	-0.387691	0.000054
C124	C	1.071021	0.112309	0.500054
C125	C	0.571039	-0.387687	-0.110111
C126	C	1.071039	0.112313	0.389889
C127	C	0.571557	-0.337275	-0.110108
C128	C	1.071557	0.162725	0.389892
C129	C	0.571807	-0.312072	-0.055023
C130	C	1.071807	0.187928	0.444977
C131	C	0.571539	-0.337280	0.000058
C132	C	1.071539	0.162720	0.500058
C133	C	0.570998	-0.387692	0.110228
C134	C	1.070998	0.112308	0.610228
C135	C	0.571512	-0.337274	0.110226
C136	C	1.071512	0.162726	0.610226
C137	C	0.571780	-0.312067	0.055140
C138	C	1.071780	0.187933	0.555140
C139	C	0.572307	-0.261665	0.055145
C140	C	1.072307	0.238335	0.555145
N141	N	0.572571	-0.236454	0.000063
N142	N	1.072571	0.263546	0.500063
C143	C	0.572321	-0.261658	-0.055021
C144	C	1.072321	0.238342	0.444979
C145	C	0.567616	-0.720430	0.055120
C146	C	1.067616	-0.220430	0.555120
C147	C	0.567103	-0.770844	0.055118
C148	C	1.067103	-0.270844	0.555118
C149	C	0.567117	-0.770837	-0.055053
C150	C	1.067117	-0.270837	0.444947
C151	C	0.567634	-0.720422	-0.055050
C152	C	1.067634	-0.220422	0.444950
C153	C	0.567880	-0.695219	0.000038
C154	C	1.067880	-0.195219	0.500038
C155	C	0.573409	-0.155791	-0.055010
C156	C	1.073409	0.344209	0.444990
C157	C	0.573928	-0.105375	-0.055002
C158	C	1.073928	0.394625	0.444998
C159	C	0.573912	-0.105387	0.055169
C160	C	1.073912	0.394613	0.555169
C161	C	0.573395	-0.155798	0.055161
C162	C	1.073395	0.344202	0.555161
C163	C	0.573141	-0.180999	0.000067
C164	C	1.073141	0.319001	0.500067
O165	O	0.572583	-0.235558	0.101967
O166	O	1.072583	0.264442	0.601967
O167	O	0.572586	-0.235578	-0.101864
O168	O	1.072586	0.264422	0.398136
C169	C	0.570253	-0.463306	-0.055033
C170	C	1.070253	0.036694	0.444967
C171	C	0.569986	-0.488513	0.000048
C172	C	1.069986	0.011487	0.500048
C173	C	0.570236	-0.463310	0.055132
C174	C	1.070236	0.036690	0.555132
C175	C	0.569472	-0.538928	0.000045
C176	C	1.069472	-0.038928	0.500045
C177	C	0.569222	-0.564131	-0.055039
C178	C	1.069222	-0.064131	0.444961
C179	C	0.569485	-0.538920	-0.110121
C180	C	1.069485	-0.038920	0.389879
C181	C	0.570003	-0.488509	-0.110118
C182	C	1.070003	0.011491	0.389882
C183	C	0.569972	-0.488521	0.110214
C184	C	1.069972	0.011479	0.610214
C185	C	0.569455	-0.538932	0.110206
C186	C	1.069455	-0.038932	0.610206
C187	C	0.569205	-0.564136	0.055122
C188	C	1.069205	-0.064136	0.555122
C189	C	0.658920	0.057701	0.000072
C190	C	1.158920	0.557701	0.500072
C191	C	0.712575	0.058254	0.000074
C192	C	1.212575	0.558254	0.500074
C193	C	0.566310	0.150296	0.000044
C194	C	1.066310	0.650296	0.500044
C195	C	0.566853	0.203952	0.000034
C196	C	1.066853	0.703952	0.500034
N197	N	0.570500	0.061906	0.143865
N198	N	1.070500	0.561906	0.643865
N199	N	0.570535	0.061871	-0.143744
N200	N	1.070535	0.561871	0.356256
C201	C	0.603640	0.028779	0.563655
C202	C	1.103640	0.528779	1.063655
C203	C	0.603642	0.028776	0.627263
C204	C	1.103642	0.528776	1.127263
O205	O	0.631799	0.000617	0.660163
O206	O	1.131799	0.500617	1.160163
N207	N	0.570523	0.061873	0.659072
N208	N	1.070523	0.561873	1.159072
C209	C	0.537397	0.094973	0.627271
C210	C	1.037397	0.594973	1.127271
O211	O	0.509227	0.123124	0.660168
O212	O	1.009227	0.623124	1.160168
C213	C	0.537393	0.094974	0.563665
C214	C	1.037393	0.594974	1.063665
C215	C	0.570517	0.061877	0.531858
C216	C	1.070517	0.561877	1.031858
C217	C	0.636760	-0.004314	0.531848
C218	C	1.136760	0.495686	1.031848
C219	C	0.636759	-0.004310	0.468245
C220	C	1.136759	0.495690	0.968245
C221	C	0.603636	0.028788	0.436449
C222	C	1.103636	0.528788	0.936449
C223	C	0.570515	0.061881	0.468255
C224	C	1.070515	0.561881	0.968255
C225	C	0.504265	0.128071	0.531865
C226	C	1.004265	0.628071	1.031865
C227	C	0.504263	0.128068	0.468254
C228	C	1.004263	0.628068	0.968254
C229	C	0.537387	0.094972	0.436447
C230	C	1.037387	0.594972	0.936447
C231	C	0.537391	0.094984	0.372855
C232	C	1.037391	0.594984	0.872855
N233	N	0.570509	0.061886	0.341045
N234	N	1.070509	0.561886	0.841045
C235	C	0.603632	0.028788	0.372842
C236	C	1.103632	0.528788	0.872842
C237	C	0.537408	0.094969	0.760849
C238	C	1.037408	0.594969	1.260849
C239	C	0.537414	0.094971	0.824454
C240	C	1.037414	0.594971	1.324454
C241	C	0.603658	0.028773	0.824441
C242	C	1.103658	0.528773	1.324441
C243	C	0.603654	0.028774	0.760835
C244	C	1.103654	0.528774	1.260835
C245	C	0.570526	0.061871	0.729039
C246	C	1.070526	0.561871	1.229039
C247	C	0.603626	0.028800	0.239271
C248	C	1.103626	0.528800	0.739271
C249	C	0.603622	0.028808	0.175662
C250	C	1.103622	0.528808	0.675662
C251	C	0.537377	0.095004	0.175680
C252	C	1.037377	0.595004	0.675680
C253	C	0.537382	0.094997	0.239284
C254	C	1.037382	0.594997	0.739284
C255	C	0.570508	0.061891	0.271077
C256	C	1.070508	0.561891	0.771077
O257	O	0.509247	0.123127	0.339914
O258	O	1.009247	0.623127	0.839914
O259	O	0.631793	0.000637	0.339937
O260	O	1.131793	0.500637	0.839937
H261	H	0.412716	0.145458	0.000022
H262	H	0.912716	0.645458	0.500022
H263	H	0.477292	0.155020	0.557753
H264	H	0.977292	0.655020	1.057753
H265	H	0.510433	0.121925	0.734964
H266	H	1.010433	0.621925	1.234964
H267	H	0.566892	-0.791365	0.099974
H268	H	1.066892	-0.291365	0.599974
C269	C	0.640061	-0.007604	0.140679
C270	C	1.140061	0.492396	0.640679
N271	N	0.667505	-0.035030	0.114331
N272	N	1.167505	0.464970	0.614331
C273	C	0.312320	0.157058	0.000033
C274	C	0.812320	0.657058	0.500033
N275	N	0.286395	0.193375	0.000022
N276	N	0.786395	0.693375	0.500022
C277	C	-0.196876	0.151882	0.000054
C278	C	0.303124	0.651882	0.500054
N279	N	-0.181048	0.188622	0.000050
N280	N	0.318952	0.688622	0.500050
C281	C	0.567924	-0.692698	-0.115648
C282	C	1.067924	-0.192698	0.384352
N283	N	0.568141	-0.671818	-0.161293
N284	N	1.068141	-0.171818	0.338707
C285	C	0.180175	0.199856	0.000040
C286	C	0.680175	0.699856	0.500040
N287	N	0.196001	0.236598	0.000043
N288	N	0.696001	0.736598	0.500043
C289	C	0.570785	-0.415405	-0.170714
C290	C	1.070785	0.084595	0.329286
N291	N	0.570604	-0.436281	-0.216364
N292	N	1.070604	0.063719	0.283636
H293	H	0.570221	-0.467989	-0.154974
H294	H	1.070221	0.032011	0.345026
H295	H	0.566913	-0.791366	-0.099905
H296	H	1.066913	-0.291366	0.400095
H297	H	-0.293803	0.138276	0.000060
H298	H	0.206197	0.638276	0.500060
C299	C	0.066715	-0.074988	0.000100
C300	C	0.566715	0.425012	0.500100
N301	N	0.092641	-0.111305	0.000101
N302	N	0.592641	0.388695	0.500101
C303	C	0.217965	-0.073454	0.000110
C304	C	0.717965	0.426546	0.500110
N305	N	0.243893	-0.109769	0.000117
N306	N	0.743893	0.390231	0.500117
H307	H	0.573181	-0.176324	0.100016
H308	H	1.073181	0.323676	0.600016
C309	C	-0.039137	-0.076065	0.000117
C310	C	0.460863	0.423935	0.500117
N311	N	-0.054965	-0.112805	0.000138
N312	N	0.445035	0.387195	0.500138
H313	H	0.630628	0.001822	0.850342
H314	H	1.130628	0.501822	1.350342
C315	C	0.573138	-0.183505	-0.115616
C316	C	1.073138	0.316495	0.384384
N317	N	0.572940	-0.204380	-0.161265
N318	N	1.072940	0.295620	0.338735
C319	C	0.640068	-0.007618	0.274234
C320	C	1.140068	0.492382	0.774234
N321	N	0.667518	-0.035045	0.300569
N322	N	1.167518	0.464955	0.800569
H323	H	0.567819	-0.699915	0.099982
H324	H	1.067819	-0.199915	0.599982
H325	H	-0.271683	-0.021675	0.000084
H326	H	0.228317	0.478325	0.500084
C327	C	0.574182	-0.077653	0.115759
C328	C	1.074182	0.422347	0.615759
N329	N	0.574381	-0.056762	0.161396
N330	N	1.074381	0.443238	0.661396
H331	H	0.569284	-0.559450	-0.154973
H332	H	1.069284	-0.059450	0.345027
H333	H	0.663733	-0.031269	0.557732
H334	H	1.163733	0.468731	1.057732
H335	H	0.570781	-0.408208	0.155085
H336	H	1.070781	0.091792	0.655085
H337	H	0.569240	-0.559453	0.155067
H338	H	1.069240	-0.059453	0.655067
H339	H	0.477285	0.155020	0.442369
H340	H	0.977285	0.655020	0.942369
H341	H	0.510414	0.121952	0.265181
H342	H	1.010414	0.621952	0.765181
H343	H	0.510447	0.121926	0.850347
H344	H	1.010447	0.621926	1.350347
H345	H	0.574148	-0.084854	-0.099861
H346	H	1.074148	0.415146	0.400139
H347	H	0.571705	-0.316756	0.155086
H348	H	1.071705	0.183244	0.655086
H349	H	0.117570	-0.061863	0.000108
H350	H	0.617570	0.438137	0.500108
H351	H	0.630626	0.001824	0.734942
H352	H	1.130626	0.501824	1.234942
C353	C	0.570249	-0.460805	0.170815
C354	C	1.070249	0.039195	0.670815
N355	N	0.570461	-0.439931	0.216463
N356	N	1.070461	0.060069	0.716463
H357	H	0.571774	-0.316755	-0.154964
H358	H	1.071774	0.183245	0.345036
C359	C	0.500942	0.131408	0.140692
C360	C	1.000942	0.631408	0.640692
N361	N	0.473496	0.158825	0.114337
N362	N	0.973496	0.658825	0.614337
C363	C	0.074325	0.198781	0.000040
C364	C	0.574325	0.698781	0.500040
N365	N	0.048401	0.235099	0.000032
N366	N	0.548401	0.735099	0.500032
C367	C	-0.171289	-0.033272	0.000093
C368	C	0.328711	0.466728	0.500093
N369	N	-0.145364	-0.069589	0.000098
N370	N	0.354636	0.430411	0.500098
C371	C	0.673193	-0.040724	0.433267
C372	C	1.173193	0.459276	0.933267
N373	N	0.700635	-0.068155	0.406924
N374	N	1.200635	0.431845	0.906924
H375	H	0.434830	-0.014493	0.000058
H376	H	0.934830	0.485507	0.500058
C377	C	-0.076927	0.197236	0.000055
C378	C	0.423073	0.697236	0.500055
N379	N	-0.102869	0.233542	0.000054
N380	N	0.397131	0.733542	0.500054
C381	C	0.337900	-0.028097	0.000065
C382	C	0.837900	0.471903	0.500065
N383	N	0.322069	-0.064835	0.000075
N384	N	0.822069	0.435165	0.500075
H385	H	0.023479	0.185648	0.000046
H386	H	0.523479	0.685648	0.500046
