data_functionalizedCrystal
_audit_creation_method	'MofGen! by Chris Wilmer'
_symmetry_space_group_name_H-M	'P1'
_symmetry_Int_Tables_number	1
_symmetry_cell_setting	triclinic
loop_
_symmetry_equiv_pos_as_xyz
  x,y,z
_cell_length_a	16.120490
_cell_length_b	11.169416
_cell_length_c	11.169409
_cell_angle_alpha	90.031365
_cell_angle_beta	92.919204
_cell_angle_gamma	87.102791
loop_
_atom_site_label
_atom_site_type_symbol
_atom_site_fract_x
_atom_site_fract_y
_atom_site_fract_z
Zn1	Zn	1.274677	-0.570971	0.771557
Zn2	Zn	1.774677	-0.070971	1.271557
Zn3	Zn	1.274600	-0.771705	0.570872
Zn4	Zn	1.774600	-0.271705	1.070872
Zn5	Zn	1.135248	-0.560840	0.560718
Zn6	Zn	1.635248	-0.060840	1.060718
Zn7	Zn	1.135254	-0.761410	0.761349
Zn8	Zn	1.635254	-0.261410	1.261349
O9	O	1.204945	-0.666231	0.666124
O10	O	1.704945	-0.166231	1.166124
O11	O	1.391334	-0.606147	0.753457
O12	O	1.891334	-0.106147	1.253457
O13	O	1.256080	-0.743803	0.401572
O14	O	1.756080	-0.243803	0.901572
O15	O	1.153773	-0.394236	0.588709
O16	O	1.653773	0.105764	1.088709
O17	O	1.391278	-0.753626	0.606014
O18	O	1.891278	-0.253626	1.106014
O19	O	1.256211	-0.401679	0.743611
O20	O	1.756211	0.098321	1.243611
O21	O	1.153699	-0.588880	0.394112
O22	O	1.653699	-0.088880	0.894112
O23	O	1.018581	-0.578897	0.578811
O24	O	1.518581	-0.078897	1.078811
O25	O	1.153783	-0.736078	0.930655
O26	O	1.653783	-0.236078	1.430655
O27	O	1.018585	-0.726255	0.726214
O28	O	1.518585	-0.226255	1.226214
O29	O	1.256216	-0.596164	0.938155
O30	O	1.756216	-0.096164	1.438155
O31	O	1.256086	-0.938287	0.596116
O32	O	1.756086	-0.438287	1.096116
O33	O	1.153709	-0.930723	0.736059
O34	O	1.653709	-0.430723	1.236059
C35	C	0.988333	-0.650360	0.650303
C36	C	1.488333	-0.150360	1.150303
C37	C	0.895665	-0.643599	0.643564
C38	C	1.395665	-0.143599	1.143564
C39	C	1.204912	-0.978054	0.666110
C40	C	1.704912	-0.478054	1.166110
C41	C	1.204975	-1.111458	0.666149
C42	C	1.704975	-0.611458	1.166149
C43	C	0.684735	-0.701292	0.701085
C44	C	1.184735	-0.201292	1.201085
C45	C	0.726005	-0.631267	0.631257
C46	C	1.226005	-0.131267	1.131257
C47	C	0.820413	-0.638131	0.638107
C48	C	1.320413	-0.138131	1.138107
C49	C	0.590320	-0.694429	0.694237
C50	C	1.090320	-0.194429	1.194237
C51	C	1.422403	-0.682165	0.682007
C52	C	1.922403	-0.182165	1.182007
C53	C	1.515071	-0.688956	0.688775
C54	C	2.015071	-0.188956	1.188775
C55	C	1.205009	-0.666103	0.979171
C56	C	1.705009	-0.166103	1.479171
C57	C	1.205036	-0.666048	1.112573
C58	C	1.705036	-0.166048	1.612573
C59	C	1.205000	-0.353193	0.666166
C60	C	1.705000	0.146807	1.166166
C61	C	1.205023	-0.219795	0.666184
C62	C	1.705023	0.280205	1.166184
C63	C	1.204929	-0.666276	0.354298
C64	C	1.704929	-0.166276	0.854298
C65	C	1.205063	-0.666005	0.220908
C66	C	1.705063	-0.166005	0.720908
H67	H	0.720303	-0.766393	0.766004
H68	H	1.220303	-0.266393	1.266004
H69	H	0.690435	-0.566161	0.566332
H70	H	1.190435	-0.066161	1.066332
