data_functionalizedCrystal
_audit_creation_method	'MofGen! by Chris Wilmer'
_symmetry_space_group_name_H-M	'P1'
_symmetry_Int_Tables_number	1
_symmetry_cell_setting	triclinic
loop_
_symmetry_equiv_pos_as_xyz
  x,y,z
_cell_length_a	16.109302
_cell_length_b	16.109301
_cell_length_c	14.048226
_cell_angle_alpha	89.992144
_cell_angle_beta	89.991597
_cell_angle_gamma	83.461631
loop_
_atom_site_label
_atom_site_type_symbol
_atom_site_fract_x
_atom_site_fract_y
_atom_site_fract_z
O1	O	1.103134	0.106872	-0.079206
O2	O	0.861072	0.120171	-0.079199
O3	O	0.988752	-0.007510	-0.079193
O4	O	0.975453	0.234552	-0.079212
O5	O	0.988737	-0.007517	0.079128
O6	O	0.861056	0.120163	0.079122
O7	O	1.103118	0.106864	0.079115
Zn8	Zn	0.982085	0.113512	0.104255
Zn9	Zn	0.982105	0.113522	-0.104340
O10	O	0.975438	0.234545	0.079109
C11	C	0.830089	0.119628	-0.000038
C12	C	0.737794	0.118013	-0.000035
C13	C	0.988206	-0.038488	-0.000032
C14	C	0.986591	-0.130784	-0.000031
C15	C	0.525445	0.114273	0.086257
C16	C	0.438725	0.112747	0.086254
C17	C	0.438752	0.112759	-0.086357
C18	C	0.525471	0.114280	-0.086352
C19	C	0.568815	0.115041	-0.000043
C20	C	0.395375	0.111994	-0.000050
C21	C	0.301350	0.110338	-0.000054
C22	C	0.662847	0.116695	-0.000038
C23	C	1.058599	-0.353056	-0.000048
C24	C	1.057074	-0.439776	-0.000056
C25	C	0.905586	-0.419902	-0.000048
C26	C	0.907111	-0.333184	-0.000047
C27	C	0.983620	-0.299763	-0.000042
C28	C	0.980571	-0.473202	-0.000051
C29	C	0.978918	-0.567228	-0.000059
C30	C	0.985273	-0.205731	-0.000035
C31	C	1.134101	0.107407	-0.000049
C32	C	1.226396	0.109022	-0.000058
C33	C	0.975984	0.265523	-0.000054
C34	C	0.977599	0.357819	-0.000062
N35	N	0.982077	0.113505	0.246616
N36	N	0.982119	0.113523	-0.246700
C37	C	1.038632	0.056992	0.296437
C38	C	1.038638	0.056991	0.396094
C39	C	0.982092	0.113509	0.445930
C40	C	0.925531	0.170025	0.396102
C41	C	0.925522	0.170021	0.296446
C42	C	0.925555	0.170031	0.603816
C43	C	0.925565	0.170037	0.703479
C44	C	1.038670	0.057001	0.703465
C45	C	1.038662	0.056997	0.603809
C46	C	0.982102	0.113515	0.553988
H47	H	0.560732	0.114893	0.156536
H48	H	0.843295	-0.447124	-0.000049
F49	F	0.392617	0.111932	-0.178208
H50	H	0.403417	0.112122	0.156528
F51	F	0.865379	0.230190	0.756510
H52	H	1.084709	0.010980	0.563233
H53	H	1.084723	0.010983	0.744034
F54	F	0.865354	0.230182	0.550797
F55	F	0.865346	0.230172	0.449141
H56	H	0.879469	0.216039	0.255883
H57	H	0.560784	0.114903	-0.156632
H58	H	1.118130	-0.483165	-0.000063
F59	F	1.140026	-0.317490	-0.000044
H60	H	0.846050	-0.289790	-0.000045
H61	H	1.084688	0.010973	0.436658
F62	F	1.098821	-0.003160	0.243408
