data_functionalizedCrystal
_audit_creation_method	'MofGen! by Chris Wilmer'
_symmetry_space_group_name_H-M	'P1'
_symmetry_Int_Tables_number	1
_symmetry_cell_setting	triclinic
loop_
_symmetry_equiv_pos_as_xyz
  x,y,z
_cell_length_a	16.109301
_cell_length_b	15.021413
_cell_length_c	16.109301
_cell_angle_alpha	89.997407
_cell_angle_beta	83.461481
_cell_angle_gamma	90.004594
loop_
_atom_site_label
_atom_site_type_symbol
_atom_site_fract_x
_atom_site_fract_y
_atom_site_fract_z
O1	O	1.103137	0.073979	0.106856
O2	O	1.353137	0.323979	0.356856
O3	O	1.603137	0.573979	0.606856
O4	O	1.853137	0.823979	0.856856
O5	O	0.861075	0.073993	0.120155
O6	O	1.111075	0.323993	0.370155
O7	O	1.361075	0.573993	0.620155
O8	O	1.611075	0.823993	0.870155
O9	O	0.988755	0.073976	-0.007525
O10	O	1.238755	0.323976	0.242475
O11	O	1.488755	0.573976	0.492475
O12	O	1.738755	0.823976	0.742475
O13	O	0.975456	0.073995	0.234537
O14	O	1.225456	0.323995	0.484537
O15	O	1.475456	0.573995	0.734537
O16	O	1.725456	0.823995	0.984537
O17	O	0.988735	-0.074088	-0.007507
O18	O	1.238735	0.175912	0.242493
O19	O	1.488735	0.425912	0.492493
O20	O	1.738735	0.675912	0.742493
O21	O	0.861054	-0.074071	0.120174
O22	O	1.111054	0.175929	0.370174
O23	O	1.361054	0.425929	0.620174
O24	O	1.611054	0.675929	0.870174
O25	O	1.103116	-0.074086	0.106874
O26	O	1.353116	0.175914	0.356874
O27	O	1.603116	0.425914	0.606874
O28	O	1.853116	0.675914	0.856874
Zn29	Zn	0.982082	-0.097587	0.113527
Zn30	Zn	1.232082	0.152413	0.363527
Zn31	Zn	1.482082	0.402413	0.613527
Zn32	Zn	1.732082	0.652413	0.863527
Zn33	Zn	0.982109	0.097494	0.113503
Zn34	Zn	1.232109	0.347494	0.363503
Zn35	Zn	1.482109	0.597494	0.613503
Zn36	Zn	1.732109	0.847494	0.863503
O37	O	0.975436	-0.074069	0.234555
O38	O	1.225436	0.175931	0.484555
O39	O	1.475436	0.425931	0.734555
O40	O	1.725436	0.675931	0.984555
C41	C	0.830090	-0.000037	0.119626
C42	C	1.080090	0.249963	0.369626
C43	C	1.330090	0.499963	0.619626
C44	C	1.580090	0.749963	0.869626
C45	C	0.737794	-0.000032	0.118011
C46	C	0.987794	0.249968	0.368011
C47	C	1.237794	0.499968	0.618011
C48	C	1.487794	0.749968	0.868011
N49	N	0.982070	-0.230724	0.113543
N50	N	1.232070	0.019276	0.363543
N51	N	1.482070	0.269276	0.613543
N52	N	1.732070	0.519276	0.863543
C53	C	0.515522	-0.000037	0.190018
C54	C	0.765522	0.249963	0.440018
C55	C	1.015522	0.499963	0.690018
C56	C	1.265522	0.749963	0.940018
C57	C	0.428801	-0.000043	0.188494
C58	C	0.678801	0.249957	0.438494
C59	C	0.928801	0.499957	0.688494
C60	C	1.178801	0.749957	0.938494
C61	C	0.448676	-0.000051	0.037006
C62	C	0.698676	0.249949	0.287006
C63	C	0.948676	0.499949	0.537006
C64	C	1.198676	0.749949	0.787006
C65	C	0.535394	-0.000051	0.038530
C66	C	0.785394	0.249949	0.288530
C67	C	1.035394	0.499949	0.538530
C68	C	1.285394	0.749949	0.788530
C69	C	0.568815	-0.000040	0.115039
C70	C	0.818815	0.249960	0.365039
C71	C	1.068815	0.499960	0.615039
C72	C	1.318815	0.749960	0.865039
C73	C	0.395376	-0.000045	0.111990
C74	C	0.645376	0.249955	0.361990
C75	C	0.895376	0.499955	0.611990
C76	C	1.145376	0.749955	0.861990
C77	C	0.301350	-0.000051	0.110337
C78	C	0.551350	0.249949	0.360337
C79	C	0.801350	0.499949	0.610337
C80	C	1.051350	0.749949	0.860337
C81	C	0.662847	-0.000035	0.116693
C82	C	0.912847	0.249965	0.366693
C83	C	1.162847	0.499965	0.616693
C84	C	1.412847	0.749965	0.866693
C85	C	0.923021	-0.470400	0.172554
C86	C	1.173021	-0.220400	0.422554
C87	C	1.423021	0.029600	0.672554
C88	C	1.673021	0.279600	0.922554
C89	C	0.998143	-0.529737	0.188671
C90	C	1.248143	-0.279737	0.438671
C91	C	1.498143	-0.029737	0.688671
C92	C	1.748143	0.220263	0.938671
C93	C	0.982091	-0.412331	0.113522
C94	C	1.232091	-0.162331	0.363522
C95	C	1.482091	0.087669	0.613522
C96	C	1.732091	0.337669	0.863522
C97	C	0.906990	-0.529735	0.097424
C98	C	1.156990	-0.279735	0.347424
C99	C	1.406990	-0.029735	0.597424
C100	C	1.656990	0.220265	0.847424
C101	C	0.982105	-0.587755	0.113504
C102	C	1.232105	-0.337755	0.363504
C103	C	1.482105	-0.087755	0.613504
C104	C	1.732105	0.162245	0.863504
C105	C	1.057251	-0.470362	0.129676
C106	C	1.307251	-0.220362	0.379676
C107	C	1.557251	0.029638	0.629676
C108	C	1.807251	0.279638	0.879676
C109	C	0.966048	-0.470355	0.038396
C110	C	1.216048	-0.220355	0.288396
C111	C	1.466048	0.029645	0.538396
C112	C	1.716048	0.279645	0.788396
C113	C	1.041224	-0.529666	0.054481
C114	C	1.291224	-0.279666	0.304481
C115	C	1.541224	-0.029666	0.554481
C116	C	1.791224	0.220334	0.804481
C117	C	0.982082	-0.311274	0.113535
C118	C	1.232082	-0.061274	0.363535
C119	C	1.482082	0.188726	0.613535
C120	C	1.732082	0.438726	0.863535
C121	C	0.982123	-0.688811	0.113491
C122	C	1.232123	-0.438811	0.363491
C123	C	1.482123	-0.188811	0.613491
C124	C	1.732123	0.061189	0.863491
C125	C	1.134101	-0.000053	0.107404
C126	C	1.384101	0.249947	0.357404
C127	C	1.634101	0.499947	0.607404
C128	C	1.884101	0.749947	0.857404
C129	C	1.226397	-0.000053	0.109019
C130	C	1.476397	0.249947	0.359019
C131	C	1.726397	0.499947	0.609019
C132	C	1.976397	0.749947	0.859019
C133	C	0.988206	-0.000056	-0.038491
C134	C	1.238206	0.249944	0.211509
C135	C	1.488206	0.499944	0.461509
C136	C	1.738206	0.749944	0.711509
C137	C	0.986591	-0.000057	-0.130786
C138	C	1.236591	0.249943	0.119214
C139	C	1.486591	0.499943	0.369214
C140	C	1.736591	0.749943	0.619214
N141	N	0.982128	0.230632	0.113480
N142	N	1.232128	0.480632	0.363480
N143	N	1.482128	0.730632	0.613480
N144	N	1.732128	0.980632	0.863480
C145	C	1.058599	-0.000048	-0.353059
C146	C	1.308599	0.249952	-0.103059
C147	C	1.558599	0.499952	0.146941
C148	C	1.808599	0.749952	0.396941
C149	C	1.057075	-0.000040	-0.439779
C150	C	1.307075	0.249960	-0.189779
C151	C	1.557075	0.499960	0.060221
C152	C	1.807075	0.749960	0.310221
C153	C	0.905586	-0.000035	-0.419905
C154	C	1.155586	0.249965	-0.169905
C155	C	1.405586	0.499965	0.080095
C156	C	1.655586	0.749965	0.330095
C157	C	0.907111	-0.000036	-0.333186
C158	C	1.157111	0.249964	-0.083186
C159	C	1.407111	0.499964	0.166814
C160	C	1.657111	0.749964	0.416814
C161	C	0.983620	-0.000047	-0.299766
C162	C	1.233620	0.249953	-0.049766
C163	C	1.483620	0.499953	0.200234
C164	C	1.733620	0.749953	0.450234
C165	C	0.980571	-0.000038	-0.473205
C166	C	1.230571	0.249962	-0.223205
C167	C	1.480571	0.499962	0.026795
C168	C	1.730571	0.749962	0.276795
C169	C	0.978918	-0.000030	-0.567231
C170	C	1.228918	0.249970	-0.317231
C171	C	1.478918	0.499970	-0.067231
C172	C	1.728918	0.749970	0.182769
C173	C	0.985273	-0.000053	-0.205734
C174	C	1.235273	0.249947	0.044266
C175	C	1.485273	0.499947	0.294266
C176	C	1.735273	0.749947	0.544266
C177	C	0.975984	-0.000034	0.265521
C178	C	1.225984	0.249966	0.515521
C179	C	1.475984	0.499966	0.765521
C180	C	1.725984	0.749966	1.015521
C181	C	0.977600	-0.000027	0.357816
C182	C	1.227600	0.249973	0.607816
C183	C	1.477600	0.499973	0.857816
C184	C	1.727600	0.749973	1.107816
H185	H	0.385413	-0.000042	0.249550
H186	H	0.635413	0.249958	0.499550
H187	H	0.885413	0.499958	0.749550
H188	H	1.135413	0.749958	0.999550
O189	O	1.137946	-0.000043	-0.497261
O190	O	1.387946	0.249957	-0.247261
O191	O	1.637946	0.499957	0.002739
O192	O	1.887946	0.749957	0.252739
H193	H	1.140862	-0.060386	-0.537248
H194	H	1.390862	0.189614	-0.287248
H195	H	1.640862	0.439614	-0.037248
H196	H	1.890862	0.689614	0.212752
H197	H	0.846050	-0.000032	-0.289792
H198	H	1.096050	0.249968	-0.039792
H199	H	1.346050	0.499968	0.210208
H200	H	1.596050	0.749968	0.460208
O201	O	0.551573	-0.000043	0.272534
O202	O	0.801573	0.249957	0.522534
O203	O	1.051573	0.499957	0.772534
O204	O	1.301573	0.749957	1.022534
H205	H	0.499942	-0.000053	0.324415
H206	H	0.749942	0.249947	0.574415
H207	H	0.999942	0.499947	0.824415
H208	H	1.249942	0.749947	1.074415
O209	O	0.412631	-0.000057	-0.045513
O210	O	0.662631	0.249943	0.204487
O211	O	0.912631	0.499943	0.454487
O212	O	1.162631	0.749943	0.704487
H213	H	0.343376	-0.000047	-0.033979
H214	H	0.593376	0.249953	0.216021
H215	H	0.843376	0.499953	0.466021
H216	H	1.093376	0.749953	0.716021
O217	O	0.592885	-0.000056	-0.042343
O218	O	0.842885	0.249944	0.207657
O219	O	1.092885	0.499944	0.457657
O220	O	1.342885	0.749944	0.707657
H221	H	0.555079	-0.000052	-0.095801
H222	H	0.805079	0.249948	0.154199
H223	H	1.055079	0.499948	0.404199
H224	H	1.305079	0.749948	0.654199
H225	H	0.873118	-0.444378	0.222517
H226	H	1.123118	-0.194378	0.472517
H227	H	1.373118	0.055622	0.722517
H228	H	1.623118	0.305622	0.972517
H229	H	1.120897	-0.000055	-0.325851
H230	H	1.370897	0.249945	-0.075851
H231	H	1.620897	0.499945	0.174149
H232	H	1.870897	0.749945	0.424149
O233	O	0.823067	-0.000042	-0.455950
O234	O	1.073067	0.249958	-0.205950
O235	O	1.323067	0.499958	0.044050
O236	O	1.573067	0.749958	0.294050
H237	H	0.834602	-0.000054	-0.525205
H238	H	1.084602	0.249946	-0.275205
H239	H	1.334602	0.499946	-0.025205
H240	H	1.584602	0.749946	0.224795
O241	O	1.016110	-0.564344	0.272802
O242	O	1.266110	-0.314344	0.522802
O243	O	1.516110	-0.064344	0.772802
O244	O	1.766110	0.185656	1.022802
H245	H	0.966979	-0.540633	0.321706
H246	H	1.216979	-0.290633	0.571706
H247	H	1.466979	-0.040633	0.821706
H248	H	1.716979	0.209367	1.071706
O249	O	1.141407	-0.435974	0.147806
O250	O	1.391407	-0.185974	0.397806
O251	O	1.641407	0.064026	0.647806
O252	O	1.891407	0.314026	0.897806
H253	H	1.140730	-0.362087	0.147705
H254	H	1.390730	-0.112087	0.397705
H255	H	1.640730	0.137913	0.647705
H256	H	1.890730	0.387913	0.897705
H257	H	1.091238	-0.555525	0.004548
H258	H	1.341238	-0.305525	0.254548
H259	H	1.591238	-0.055525	0.504548
H260	H	1.841238	0.194475	0.754548
O261	O	0.948037	-0.435769	-0.045723
O262	O	1.198037	-0.185769	0.204277
O263	O	1.448037	0.064231	0.454277
O264	O	1.698037	0.314231	0.704277
H265	H	0.890801	-0.394077	-0.037763
H266	H	1.140801	-0.144077	0.212237
H267	H	1.390801	0.105923	0.462237
H268	H	1.640801	0.355923	0.712237
O269	O	0.822858	-0.564284	0.079388
O270	O	1.072858	-0.314284	0.329388
O271	O	1.322858	-0.064284	0.579388
O272	O	1.572858	0.185716	0.829388
H273	H	0.773935	-0.540538	0.128483
H274	H	1.023935	-0.290538	0.378483
H275	H	1.273935	-0.040538	0.628483
H276	H	1.523935	0.209462	0.878483
