data_functionalizedCrystal
_audit_creation_method	'MofGen! by Chris Wilmer'
_symmetry_space_group_name_H-M	'P1'
_symmetry_Int_Tables_number	1
_symmetry_cell_setting	triclinic
loop_
_symmetry_equiv_pos_as_xyz
  x,y,z
_cell_length_a	29.839135
_cell_length_b	25.639239
_cell_length_c	25.639233
_cell_angle_alpha	89.975333
_cell_angle_beta	90.016634
_cell_angle_gamma	89.957589
loop_
_atom_site_label
_atom_site_type_symbol
_atom_site_fract_x
_atom_site_fract_y
_atom_site_fract_z
Zn1	Zn	0.686730	0.208179	0.295644
Zn2	Zn	1.186730	0.708179	0.795644
Zn3	Zn	0.686662	0.295598	0.208199
Zn4	Zn	1.186662	0.795598	0.708199
Zn5	Zn	0.611611	0.208182	0.208216
Zn6	Zn	1.111611	0.708182	0.708216
Zn7	Zn	0.611562	0.295589	0.295597
Zn8	Zn	1.111562	0.795589	0.795597
O9	O	0.649141	0.251887	0.251914
O10	O	1.149141	0.751887	0.751914
O11	O	0.749588	0.219778	0.284056
O12	O	1.249588	0.719778	0.784056
O13	O	0.676699	0.284007	0.135036
O14	O	1.176699	0.784007	0.635036
O15	O	0.621624	0.135017	0.219840
O16	O	1.121624	0.635017	0.719840
O17	O	0.749538	0.284004	0.219811
O18	O	1.249538	0.784004	0.719811
O19	O	0.676813	0.135014	0.284073
O20	O	1.176813	0.635014	0.784073
O21	O	0.621559	0.219783	0.135049
O22	O	1.121559	0.719783	0.635049
O23	O	0.548737	0.219775	0.219795
O24	O	1.048737	0.719775	0.719795
O25	O	0.621541	0.283989	0.368769
O26	O	1.121541	0.783989	0.868769
O27	O	0.548701	0.283992	0.283994
O28	O	1.048701	0.783992	0.783994
O29	O	0.676766	0.219769	0.368803
O30	O	1.176766	0.719769	0.868803
O31	O	0.676651	0.368762	0.219766
O32	O	1.176651	0.868762	0.719766
O33	O	0.621476	0.368756	0.283977
O34	O	1.121476	0.868756	0.783977
C35	C	0.532419	0.251883	0.251892
C36	C	1.032419	0.751883	0.751892
C37	C	0.482484	0.251894	0.251894
C38	C	0.982484	0.751894	0.751894
C39	C	0.172864	0.218495	0.285416
C40	C	0.672864	0.718495	0.785416
C41	C	-0.014810	0.218499	0.285431
C42	C	0.485190	0.718499	0.785431
O43	O	-0.039055	0.190090	0.313907
O44	O	0.460945	0.690090	0.813907
N45	N	-0.038301	0.251888	0.251933
N46	N	0.461699	0.751888	0.751933
C47	C	-0.014871	0.285276	0.218427
C48	C	0.485129	0.785276	0.718427
O49	O	-0.039158	0.313671	0.189932
O50	O	0.460842	0.813671	0.689932
C51	C	0.172801	0.285269	0.218410
C52	C	0.672801	0.785269	0.718410
C53	C	0.196290	0.251882	0.251913
C54	C	0.696290	0.751882	0.751913
C55	C	0.196353	0.185110	0.318916
C56	C	0.696353	0.685110	0.818916
C57	C	0.243268	0.185112	0.318914
C58	C	0.743268	0.685112	0.818914
C59	C	0.266694	0.218498	0.285412
C60	C	0.766694	0.718498	0.785412
C61	C	0.243205	0.251883	0.251911
C62	C	0.743205	0.751883	0.751911
C63	C	0.196230	0.318654	0.184902
C64	C	0.696230	0.818654	0.684902
C65	C	0.243151	0.318648	0.184900
C66	C	0.743151	0.818648	0.684900
C67	C	0.266640	0.285261	0.218403
C68	C	0.766640	0.785261	0.718403
C69	C	0.313547	0.285271	0.218407
C70	C	0.813547	0.785271	0.718407
N71	N	0.337039	0.251882	0.251904
N72	N	0.837039	0.751882	0.751904
C73	C	0.313612	0.218496	0.285407
C74	C	0.813612	0.718496	0.785407
C75	C	-0.113402	0.285277	0.218439
C76	C	0.386598	0.785277	0.718439
C77	C	-0.160320	0.285280	0.218444
C78	C	0.339680	0.785280	0.718444
C79	C	-0.160255	0.218502	0.285447
C80	C	0.339745	0.718502	0.785447
C81	C	-0.113336	0.218503	0.285444
C82	C	0.386664	0.718503	0.785444
C83	C	-0.089910	0.251889	0.251937
C84	C	0.410090	0.751889	0.751937
C85	C	0.412138	0.218502	0.285400
C86	C	0.912138	0.718502	0.785400
C87	C	0.459058	0.218508	0.285397
C88	C	0.959058	0.718508	0.785397
C89	C	0.458989	0.285283	0.218392
C90	C	0.958989	0.785283	0.718392
C91	C	0.412073	0.285279	0.218397
C92	C	0.912073	0.785279	0.718397
C93	C	0.388649	0.251884	0.251903
C94	C	0.888649	0.751884	0.751903
O95	O	0.337822	0.313661	0.189942
O96	O	0.837822	0.813661	0.689942
O97	O	0.337908	0.190096	0.313889
O98	O	0.837908	0.690096	0.813889
C99	C	0.125948	0.218494	0.285418
C100	C	0.625948	0.718494	0.785418
C101	C	0.102459	0.251879	0.251918
C102	C	0.602459	0.751879	0.751918
C103	C	0.125885	0.285265	0.218415
C104	C	0.625885	0.785265	0.718415
C105	C	0.055541	0.251881	0.251922
C106	C	0.555541	0.751881	0.751922
C107	C	0.032115	0.218495	0.285425
C108	C	0.532115	0.718495	0.785425
C109	C	0.055606	0.185106	0.318922
C110	C	0.555606	0.685106	0.818922
C111	C	0.102522	0.185107	0.318920
C112	C	0.602522	0.685107	0.818920
C113	C	0.102394	0.318654	0.184918
C114	C	0.602394	0.818654	0.684918
C115	C	0.055479	0.318650	0.184923
C116	C	0.555479	0.818650	0.684923
C117	C	0.032052	0.285264	0.218425
C118	C	0.532052	0.785264	0.718425
C119	C	0.649063	0.387730	0.251876
C120	C	1.149063	0.887730	0.751876
C121	C	0.649071	0.445844	0.251877
C122	C	1.149071	0.945844	0.751877
C123	C	0.677833	0.806167	0.285432
C124	C	1.177833	1.306167	0.785432
C125	C	0.677841	0.860771	0.285444
C126	C	1.177841	1.360771	0.785444
O127	O	0.702250	0.888975	0.313926
O128	O	1.202250	1.388975	0.813926
N129	N	0.649135	0.888126	0.251978
N130	N	1.149135	1.388126	0.751978
C131	C	0.620418	0.860874	0.218502
C132	C	1.120418	1.360874	0.718502
O133	O	0.596002	0.889155	0.190039
O134	O	1.096002	1.389155	0.690039
C135	C	0.620408	0.806270	0.218494
C136	C	1.120408	1.306270	0.718494
C137	C	0.649119	0.778919	0.251958
C138	C	1.149119	1.278919	0.751958
C139	C	0.706541	0.778815	0.318894
C140	C	1.206541	1.278815	0.818894
C141	C	0.706534	0.724215	0.318882
C142	C	1.206534	1.224215	0.818882
C143	C	0.677819	0.696966	0.285407
C144	C	1.177819	1.196966	0.785407
C145	C	0.649112	0.724318	0.251945
C146	C	1.149112	1.224318	0.751945
C147	C	0.591689	0.779019	0.185021
C148	C	1.091689	1.279019	0.685021
C149	C	0.591682	0.724412	0.185015
C150	C	1.091682	1.224412	0.685015
C151	C	0.620392	0.697060	0.218479
C152	C	1.120392	1.197060	0.718479
C153	C	0.620390	0.642469	0.218458
C154	C	1.120390	1.142469	0.718458
N155	N	0.649096	0.615114	0.251924
N156	N	1.149096	1.115114	0.751924
C157	C	0.677810	0.642363	0.285398
C158	C	1.177810	1.142363	0.785398
C159	C	0.620439	0.975544	0.218524
C160	C	1.120439	1.475544	0.718524
C161	C	0.620450	1.030147	0.218530
C162	C	1.120450	1.530147	0.718530
C163	C	0.677873	1.030041	0.285472
C164	C	1.177873	1.530041	0.785472
C165	C	0.677863	0.975437	0.285464
C166	C	1.177863	1.475437	0.785464
C167	C	0.649144	0.948190	0.251990
C168	C	1.149144	1.448190	0.751990
C169	C	0.677794	0.527698	0.285369
C170	C	1.177794	1.027698	0.785369
C171	C	0.677785	0.473092	0.285352
C172	C	1.177785	0.973092	0.785352
C173	C	0.620361	0.473203	0.218411
C174	C	1.120361	0.973203	0.718411
C175	C	0.620371	0.527804	0.218426
C176	C	1.120371	1.027804	0.718426
C177	C	0.649089	0.555050	0.251909
C178	C	1.149089	1.055050	0.751909
O179	O	0.595992	0.614231	0.189993
O180	O	1.095992	1.114231	0.689993
O181	O	0.702217	0.614075	0.313862
O182	O	1.202217	1.114075	0.813862
C183	C	0.766319	0.251892	0.251937
C184	C	1.266319	0.751892	0.751937
C185	C	0.816254	0.251893	0.251946
C186	C	1.316254	0.751893	0.751946
C187	C	0.649156	0.251878	0.388287
C188	C	1.149156	0.751878	0.888287
C189	C	0.649162	0.251874	0.446401
C190	C	1.149162	0.751874	0.946401
C191	C	0.649205	1.115514	0.251969
C192	C	1.149205	1.615514	0.751969
C193	C	0.649163	1.057400	0.252007
C194	C	1.149163	1.557400	0.752007
C195	C	0.649153	0.251859	0.116071
C196	C	1.149153	0.751859	0.616071
C197	C	0.649233	0.251715	0.057958
C198	C	1.149233	0.751715	0.557958
C199	C	0.677954	0.218335	0.806788
C200	C	1.177954	0.718335	1.306788
C201	C	0.677960	0.218321	0.861392
C202	C	1.177960	0.718321	1.361392
O203	O	0.702403	0.189867	0.889649
O204	O	1.202403	0.689867	1.389649
N205	N	0.649211	0.251751	0.888684
N206	N	1.149211	0.751751	1.388684
C207	C	0.620452	0.285195	0.861368
C208	C	1.120452	0.785195	1.361368
O209	O	0.596000	0.313628	0.889596
O210	O	1.096000	0.813628	1.389596
C211	C	0.620445	0.285206	0.806765
C212	C	1.120445	0.785206	1.306765
C213	C	0.649198	0.251777	0.779476
C214	C	1.149198	0.751777	1.279476
C215	C	0.706705	0.184909	0.779499
C216	C	1.206705	0.684909	1.279499
C217	C	0.706700	0.184924	0.724898
C218	C	1.206700	0.684924	1.224898
C219	C	0.677944	0.218366	0.697587
C220	C	1.177944	0.718366	1.197587
C221	C	0.649193	0.251793	0.724876
C222	C	1.149193	0.751793	1.224876
C223	C	0.591684	0.318647	0.779451
C224	C	1.091684	0.818647	1.279451
C225	C	0.591679	0.318655	0.724844
C226	C	1.091679	0.818655	1.224844
C227	C	0.620432	0.285226	0.697555
C228	C	1.120432	0.785226	1.197555
C229	C	0.620432	0.285250	0.642963
C230	C	1.120432	0.785250	1.142963
N231	N	0.649181	0.251819	0.615672
N232	N	1.149181	0.751819	1.115672
C233	C	0.677936	0.218377	0.642983
C234	C	1.177936	0.718377	1.142983
C235	C	0.620470	0.285168	0.976039
C236	C	1.120470	0.785168	1.476039
C237	C	0.620479	0.285159	1.030641
C238	C	1.120479	0.785159	1.530641
C239	C	0.677986	0.218285	1.030661
C240	C	1.177986	0.718285	1.530661
C241	C	0.677978	0.218296	0.976058
C242	C	1.177978	0.718296	1.476058
C243	C	0.649218	0.251737	0.948747
C244	C	1.149218	0.751737	1.448747
C245	C	0.677924	0.218412	0.528318
C246	C	1.177924	0.718412	1.028318
C247	C	0.677918	0.218432	0.473713
C248	C	1.177918	0.718432	0.973713
C249	C	0.620409	0.285305	0.473698
C250	C	1.120409	0.785305	0.973698
C251	C	0.620417	0.285287	0.528298
C252	C	1.120417	0.785287	1.028298
C253	C	0.649176	0.251837	0.555607
C254	C	1.149176	0.751837	1.055607
O255	O	0.596000	0.313688	0.614672
O256	O	1.096000	0.813688	1.114672
O257	O	0.702381	0.189944	0.614749
O258	O	1.202381	0.689944	1.114749
H259	H	0.036524	0.157923	0.346203
H260	H	0.536524	0.657923	0.846203
H261	H	0.597076	1.052412	0.191274
H262	H	1.097076	1.552412	0.691274
H263	H	0.597049	0.312402	0.953806
H264	H	1.097049	0.812402	1.453806
F265	F	0.708359	0.556687	0.321005
F266	F	1.208359	1.056687	0.821005
H267	H	0.177113	0.345841	0.157619
H268	H	0.677113	0.845841	0.657619
F269	F	0.737104	0.807807	0.354528
F270	F	1.237104	1.307807	0.854528
H271	H	0.568270	0.345868	0.801660
H272	H	1.068270	0.845868	1.301660
F273	F	0.589804	0.444194	0.182787
F274	F	1.089804	0.944194	0.682787
F275	F	0.708420	0.946332	0.321081
F276	F	1.208420	1.446332	0.821081
F277	F	0.708433	1.059050	0.321100
F278	F	1.208433	1.559050	0.821100
H279	H	0.121642	0.157920	0.346202
H280	H	0.621642	0.657920	0.846202
F281	F	0.708523	0.182852	0.444673
F282	F	1.208523	0.682852	0.944673
F283	F	0.589873	0.946550	0.182891
F284	F	1.089873	1.446550	0.682891
F285	F	0.737317	0.149317	0.808558
F286	F	1.237317	0.649317	1.308558
H287	H	0.036358	0.345843	0.157641
H288	H	0.536358	0.845843	0.657641
F289	F	0.561130	0.808117	0.149404
F290	F	1.061130	1.308117	0.649404
F291	F	0.127320	0.354186	0.149253
F292	F	0.627320	0.854186	0.649253
F293	F	0.708345	0.443985	0.320969
F294	F	1.208345	0.943985	0.820969
H295	H	0.730113	0.157702	0.702684
H296	H	1.230113	0.657702	1.202684
H297	H	0.729911	0.701948	0.346132
H298	H	1.229911	1.201948	0.846132
H299	H	0.568294	0.702230	0.157757
H300	H	1.068294	1.202230	0.657757
F301	F	0.589820	0.556915	0.182804
F302	F	1.089820	1.056915	0.682804
F303	F	0.708590	0.182691	1.059738
F304	F	1.208590	0.682691	1.559738
H305	H	0.701340	0.191172	0.550547
H306	H	1.201340	0.691172	1.050547
F307	F	0.561066	0.354248	0.695781
F308	F	1.061066	0.854248	1.195781
F309	F	0.589818	0.320869	0.557342
F310	F	1.089818	0.820869	1.057342
F311	F	0.589807	0.320894	0.444621
F312	F	1.089807	0.820894	0.944621
F313	F	0.708581	0.182716	0.947020
F314	F	1.208581	0.682716	1.447020
H315	H	0.597070	0.312386	1.052855
H316	H	1.097070	0.812386	1.552855
H317	H	0.478180	0.191319	0.312681
H318	H	0.978180	0.691319	0.812681
H319	H	0.393072	0.191307	0.312682
H320	H	0.893072	0.691307	0.812682
H321	H	0.177284	0.157920	0.346198
H322	H	0.677284	0.657920	0.846198
F323	F	-0.088341	0.182967	0.321102
F324	F	0.411659	0.682967	0.821102
F325	F	-0.185195	0.182969	0.321102
F326	F	0.314805	0.682969	0.821102
F327	F	-0.185313	0.320820	0.182790
F328	F	0.314687	0.820820	0.682790
F329	F	-0.088476	0.320810	0.182770
F330	F	0.411524	0.820810	0.682770
F331	F	0.268261	0.149575	0.354572
F332	F	0.768261	0.649575	0.854572
H333	H	0.262222	0.345835	0.157612
H334	H	0.762222	0.845835	0.657612
H335	H	0.478071	0.312466	0.191117
H336	H	0.978071	0.812466	0.691117
F337	F	0.387074	0.320827	0.182753
F338	F	0.887074	0.820827	0.682753
