data_functionalizedCrystal
_audit_creation_method	'MofGen! by Chris Wilmer'
_symmetry_space_group_name_H-M	'P1'
_symmetry_Int_Tables_number	1
_symmetry_cell_setting	triclinic
loop_
_symmetry_equiv_pos_as_xyz
  x,y,z
_cell_length_a	11.026607
_cell_length_b	17.038272
_cell_length_c	10.065875
_cell_angle_alpha	99.426590
_cell_angle_beta	79.302338
_cell_angle_gamma	99.848786
loop_
_atom_site_label
_atom_site_type_symbol
_atom_site_fract_x
_atom_site_fract_y
_atom_site_fract_z
O1	O	1.661277	0.323101	-0.113507
O2	O	1.304065	0.285271	-0.113508
O3	O	1.480547	0.190072	-0.113497
O4	O	1.484796	0.418300	-0.113518
O5	O	1.446904	0.208319	0.113490
O6	O	1.270422	0.303517	0.113479
O7	O	1.627634	0.341348	0.113479
Zn8	Zn	1.443687	0.325329	0.149518
Zn9	Zn	1.488013	0.301289	-0.149547
O10	O	1.451153	0.436546	0.113468
C11	C	1.241312	0.287415	-0.000014
C12	C	1.104451	0.266610	-0.000014
C13	C	1.036576	0.324055	-0.000020
C14	C	0.895122	0.302554	-0.000020
C15	C	1.459863	0.169523	-0.000004
C16	C	1.448341	0.081107	-0.000004
C17	C	1.554125	0.045899	-0.000002
C18	C	1.543294	-0.037179	-0.000015
C19	C	1.426676	-0.085047	-0.000020
C20	C	1.320885	-0.049835	-0.000026
C21	C	1.331719	0.033241	-0.000022
C22	C	1.388403	-0.336200	-0.000039
C23	C	1.377576	-0.419281	-0.000038
C24	C	1.599986	-0.406621	-0.000030
C25	C	1.610809	-0.323543	-0.000019
C26	C	1.505019	-0.288338	-0.000032
C27	C	1.415601	-0.169966	-0.000029
C28	C	1.516096	-0.203421	-0.000032
C29	C	1.690387	0.339203	-0.000017
C30	C	1.827251	0.360008	-0.000026
C31	C	1.471837	0.457095	-0.000028
C32	C	1.483360	0.545511	-0.000036
N33	N	1.413444	0.341737	0.353622
N34	N	1.518264	0.284877	-0.353650
C35	C	1.477482	0.306992	0.421405
C36	C	1.454217	0.319627	0.578571
H37	H	1.649086	0.084868	0.000010
H38	H	1.225934	-0.088816	-0.000038
N39	N	1.567795	0.257861	0.348338
N40	N	1.679425	0.275978	0.364160
H41	H	1.743178	0.241244	0.312591
N42	N	1.608654	0.235811	0.573230
N43	N	1.576053	0.174718	0.493489
H44	H	1.639894	0.140067	0.441856
H45	H	1.341390	0.380834	0.411944
N46	N	1.363819	0.368672	0.651738
N47	N	1.345043	0.378863	0.779305
H48	H	1.281199	0.413500	0.830984
H49	H	1.282604	-0.458252	-0.000020
H50	H	1.245578	0.061906	-0.000024
H51	H	1.083188	0.389155	-0.000019
H52	H	0.848520	0.237447	-0.000049
H53	H	0.873855	0.425112	-0.000023
N54	N	1.280343	-0.300250	-0.000059
N55	N	1.218853	-0.321457	-0.095738
H56	H	1.142529	-0.296065	-0.095750
N57	N	1.045966	0.184946	0.000011
N58	N	0.931139	0.167596	0.000020
H59	H	0.889834	0.109919	0.000041
H60	H	1.705771	-0.284574	-0.000015
N61	N	1.651364	-0.073124	0.000005
N62	N	1.712841	-0.051917	0.095694
H63	H	1.789173	-0.077301	0.095709
N64	N	1.708028	-0.442595	-0.000015
N65	N	1.698346	-0.516770	-0.000015
H66	H	1.774655	-0.542178	-0.000007
H67	H	1.611050	-0.164446	-0.000059
H68	H	1.320650	-0.208950	-0.000030
