data_functionalizedCrystal
_audit_creation_method	'MofGen! by Chris Wilmer'
_symmetry_space_group_name_H-M	'P1'
_symmetry_Int_Tables_number	1
_symmetry_cell_setting	triclinic
loop_
_symmetry_equiv_pos_as_xyz
  x,y,z
_cell_length_a	6.817900
_cell_length_b	7.190329
_cell_length_c	7.076027
_cell_angle_alpha	62.357579
_cell_angle_beta	52.479303
_cell_angle_gamma	113.843368
loop_
_atom_site_label
_atom_site_type_symbol
_atom_site_fract_x
_atom_site_fract_y
_atom_site_fract_z
V1	V	2.180245	-1.769465	1.391688
O2	O	3.893160	-0.380842	-0.288756
O3	O	0.518770	-3.060495	2.972879
O4	O	2.068170	-1.946664	1.272924
O5	O	2.333034	-1.502383	1.422968
V6	V	2.881142	-1.579217	1.202191
O7	O	1.964677	-2.186792	1.807365
O8	O	3.546907	-1.161890	0.786514
O9	O	4.319410	-0.288187	-0.379000
O10	O	1.285623	-2.967840	2.882635
O11	O	2.845749	-1.846300	1.170912
O12	O	2.770010	-1.402018	1.320955
C13	C	-0.026587	-3.368851	3.361392
C14	C	-1.328193	-4.445469	4.677697
C15	C	1.949899	-1.947983	1.192864
C16	C	1.928497	-2.104274	1.104579
V17	V	-3.183195	-6.209960	6.812516
O18	O	-4.836912	-7.626348	8.520743
O19	O	-1.653341	-4.857161	5.169543
O20	O	-3.203041	-5.970636	6.869143
O21	O	-3.276484	-6.505166	6.809377
V22	V	-3.223885	-6.710287	7.312052
O23	O	-2.659071	-5.937509	6.541682
O24	O	-3.599907	-7.263724	7.863833
O25	O	-4.827167	-7.923773	8.815732
O26	O	-1.531548	-5.367171	5.677087
O27	O	-3.091976	-6.488353	7.388453
O28	O	-3.277467	-6.810299	7.116132
C29	C	4.528047	0.020104	-0.767439
C30	C	5.784857	1.076834	-2.059450
C31	C	6.611475	1.628866	-2.721969
C32	C	7.792448	2.621831	-3.935976
C33	C	8.146766	3.062724	-4.487433
C34	C	7.320053	2.510628	-3.824828
C35	C	6.139117	1.517703	-2.610852
C36	C	-3.305032	-5.865861	6.845761
C37	C	-3.283991	-5.709355	6.933827
C38	C	-6.571571	-9.188755	10.400552
C39	C	-5.263013	-8.125305	9.097423
V40	V	-8.646613	-10.660573	12.241925
O41	O	-6.994341	-9.379650	10.669194
O42	O	-10.173990	-11.782481	13.653993
O43	O	-8.623968	-10.669352	11.954739
O44	O	-8.555093	-10.500485	12.380211
V45	V	-8.616203	-11.096105	12.678139
O46	O	-9.175115	-11.338462	12.918121
O47	O	-8.244974	-10.974452	12.558111
O48	O	-7.010851	-9.698417	10.990324
O49	O	-10.309487	-12.522077	14.395900
O50	O	-8.748735	-11.401242	12.684884
O51	O	-8.560874	-10.811546	12.689577
C52	C	-8.548751	-10.608619	12.568064
C53	C	-8.520855	-10.464869	12.668901
C54	C	-10.495711	-11.876233	13.827929
C55	C	-11.772884	-12.894419	15.081367
C56	C	-12.494880	-13.645168	15.942563
C57	C	-13.694968	-14.601942	17.120354
C58	C	-14.173022	-14.807927	17.436919
C59	C	-13.450939	-14.057098	16.575621
C60	C	-12.250889	-13.100364	15.397860
H61	H	6.323179	1.270025	-2.273138
C62	C	-15.647810	-15.810827	18.913357
C63	C	-15.492144	-15.859600	18.731561
H64	H	-16.462183	-16.460091	19.712613
H65	H	-15.300706	-15.546212	18.705098
H66	H	-15.286256	-15.393213	18.445766
H67	H	-15.853626	-16.277159	19.199090
H68	H	-15.839400	-16.124354	18.939952
H69	H	8.465423	3.071211	-4.475304
H70	H	9.108398	3.871238	-5.475940
H71	H	7.608727	2.869759	-4.274012
H72	H	5.466125	1.068281	-2.071503
H73	H	-12.105808	-13.477603	15.685007
H74	H	-14.282731	-15.213164	17.821494
H75	H	-13.840357	-14.224966	16.833556
H76	H	-11.663104	-12.489125	14.696721
