data_functionalizedCrystal
_audit_creation_method	'MofGen! by Chris Wilmer'
_symmetry_space_group_name_H-M	'P1'
_symmetry_Int_Tables_number	1
_symmetry_cell_setting	triclinic
loop_
_symmetry_equiv_pos_as_xyz
  x,y,z
_cell_length_a	25.639242
_cell_length_b	25.639240
_cell_length_c	13.033352
_cell_angle_alpha	82.842620
_cell_angle_beta	82.830280
_cell_angle_gamma	90.027658
loop_
_atom_site_label
_atom_site_type_symbol
_atom_site_fract_x
_atom_site_fract_y
_atom_site_fract_z
Zn1	Zn	0.761622	-0.245868	0.590984
Zn2	Zn	0.772681	-0.322173	0.416219
Zn3	Zn	0.685323	-0.234747	0.416242
Zn4	Zn	0.674160	-0.333260	0.590873
O5	O	0.723446	-0.284012	0.503580
O6	O	0.836252	-0.256005	0.567838
O7	O	0.770393	-0.301282	0.269998
O8	O	0.695488	-0.163061	0.439478
O9	O	0.844377	-0.312066	0.439439
O10	O	0.751545	-0.171231	0.567861
O11	O	0.706212	-0.237050	0.270015
O12	O	0.610680	-0.247801	0.439370
O13	O	0.676462	-0.330961	0.737111
O14	O	0.602478	-0.320177	0.567671
O15	O	0.740720	-0.266755	0.737193
O16	O	0.759568	-0.396805	0.439331
O17	O	0.687185	-0.404951	0.567648
C18	C	0.587608	-0.283986	0.503512
C19	C	0.529495	-0.283988	0.503507
C20	C	0.723378	-0.419849	0.503498
C21	C	0.723394	-0.477963	0.503498
C22	C	0.282551	-0.246277	0.436889
C23	C	0.337156	-0.246271	0.436876
O24	O	0.369010	-0.214173	0.380176
N25	N	0.360217	-0.283998	0.503560
C26	C	0.328670	-0.321730	0.570269
O27	O	0.353299	-0.353819	0.626988
C28	C	0.274065	-0.321733	0.570287
C29	C	0.251008	-0.284007	0.503591
C30	C	0.259493	-0.208554	0.370199
C31	C	0.204892	-0.208560	0.370212
C32	C	0.173348	-0.246290	0.436913
C33	C	0.196406	-0.284013	0.503603
C34	C	0.242518	-0.359462	0.637000
C35	C	0.187910	-0.359462	0.637013
C36	C	0.164853	-0.321735	0.570317
C37	C	0.110262	-0.321750	0.570317
N38	N	0.087201	-0.284023	0.503633
C39	C	0.118744	-0.246293	0.436931
C40	C	0.443343	-0.321720	0.570228
C41	C	0.497947	-0.321720	0.570206
C42	C	0.506429	-0.246261	0.436813
C43	C	0.451825	-0.246264	0.436831
C44	C	0.420282	-0.283994	0.503544
C45	C	0.004077	-0.246309	0.436961
C46	C	-0.050529	-0.246321	0.436976
C47	C	-0.059008	-0.321778	0.570372
C48	C	-0.004406	-0.321769	0.570353
C49	C	0.027135	-0.284030	0.503644
O50	O	0.078375	-0.353830	0.626991
O51	O	0.094107	-0.214205	0.380231
C52	C	0.752644	-0.842555	0.570549
C53	C	0.752658	-0.897161	0.570570
O54	O	0.777445	-0.928988	0.627495
N55	N	0.723513	-0.920257	0.503681
C56	C	0.694347	-0.888746	0.436773
O57	O	0.669557	-0.913405	0.379881
C58	C	0.694330	-0.834141	0.436758
C59	C	0.723482	-0.811048	0.503644
C60	C	0.781793	-0.819461	0.637431
C61	C	0.781779	-0.764859	0.637408
C62	C	0.752617	-0.733351	0.570503
C63	C	0.723468	-0.756446	0.503621
C64	C	0.665162	-0.802631	0.369856
C65	C	0.665147	-0.748023	0.369847
C66	C	0.694299	-0.724930	0.436734
C67	C	0.694293	-0.670336	0.436694
N68	N	0.723438	-0.647239	0.503583
C69	C	0.752601	-0.678747	0.570488
C70	C	0.694384	-1.003419	0.436811
C71	C	0.694403	-1.058022	0.436820
C72	C	0.752713	-1.066433	0.570619
C73	C	0.752697	-1.011829	0.570604
C74	C	0.723529	-0.980322	0.503701
C75	C	0.752571	-0.564079	0.570434
C76	C	0.752556	-0.509471	0.570402
C77	C	0.694244	-0.501065	0.436608
C78	C	0.694260	-0.555667	0.436635
C79	C	0.723425	-0.587173	0.503557
O80	O	0.669517	-0.638476	0.379800
O81	O	0.777380	-0.654081	0.627380
C82	C	0.859815	-0.284039	0.503649
C83	C	0.917927	-0.284050	0.503678
C84	C	0.706112	-0.301335	0.776127
C85	C	0.698725	-0.308717	0.892270
C86	C	0.723528	-0.147646	0.503685
C87	C	0.723563	-0.089534	0.503729
C88	C	0.727225	-0.280240	0.944091
C89	C	0.719591	-0.287869	1.064131
C90	C	0.740709	-0.266769	1.232093
C91	C	0.748096	-0.259389	1.115949
H92	H	0.029751	-0.215577	0.382645
H93	H	0.641424	-0.821424	0.315389
C94	C	0.658129	-0.349285	0.952380
H95	H	0.658327	-0.349094	1.025175
H96	H	0.624130	-0.340506	0.934536
H97	H	0.666892	-0.383290	0.934522
C98	C	0.633063	-0.713369	0.296249
H99	H	0.615709	-0.734947	0.256416
H100	H	0.607722	-0.694610	0.336163
H101	H	0.655972	-0.689175	0.250746
C102	C	0.179534	-0.167056	0.296858
H103	H	0.206147	-0.144584	0.257144
H104	H	0.161115	-0.184116	0.251250
H105	H	0.155706	-0.146851	0.336933
C106	C	0.678993	-0.328440	1.124237
H107	H	0.679191	-0.328249	1.197032
H108	H	0.644995	-0.319660	1.106393
H109	H	0.687756	-0.362445	1.106379
C110	C	0.426466	-0.204762	0.363476
H111	H	0.453077	-0.182291	0.323756
H112	H	0.408045	-0.221825	0.317874
H113	H	0.402638	-0.184556	0.403550
H114	H	0.778147	-0.229356	1.071451
C115	C	0.294183	-0.167050	0.296815
H116	H	0.272623	-0.144589	0.257101
H117	H	0.312958	-0.146839	0.336852
H118	H	0.318364	-0.184118	0.251194
H119	H	-0.069300	-0.215598	0.382661
H120	H	0.516716	-0.352446	0.624505
C121	C	0.541133	-0.204754	0.363452
H122	H	0.576954	-0.210154	0.373008
H123	H	0.536640	-0.207881	0.293213
H124	H	0.531221	-0.170617	0.378897
C125	C	0.813878	-0.854111	0.711026
H126	H	0.831235	-0.832529	0.750844
H127	H	0.790980	-0.878311	0.756528
H128	H	0.839225	-0.872863	0.671101
H129	H	0.776458	-1.092097	0.625099
C130	C	0.784753	-0.986432	0.644196
H131	H	0.802117	-1.013022	0.684048
H132	H	0.810084	-0.962581	0.604285
H133	H	0.761826	-0.968032	0.689682
H134	H	0.261282	-0.390183	0.691311
C135	C	0.408650	-0.363224	0.643620
H136	H	0.430208	-0.385691	0.683325
H137	H	0.384469	-0.346157	0.689233
H138	H	0.389875	-0.383436	0.603576
C139	C	0.153214	-0.400948	0.710438
H140	H	0.174769	-0.423410	0.750159
H141	H	0.129039	-0.383865	0.756035
H142	H	0.134432	-0.421168	0.670420
H143	H	0.014369	-0.352492	0.624654
H144	H	0.776315	-0.589725	0.624935
C145	C	0.767821	-0.239670	0.883986
H146	H	0.784709	-0.222790	0.932064
H147	H	0.793278	-0.256983	0.841400
H148	H	0.750516	-0.214199	0.841425
C149	C	-0.093712	-0.363275	0.643743
H150	H	-0.129534	-0.357869	0.634202
H151	H	-0.083805	-0.397415	0.628325
H152	H	-0.089215	-0.360134	0.713980
C153	C	0.784622	-0.484069	0.643980
H154	H	0.780443	-0.447035	0.634383
H155	H	0.772480	-0.497465	0.714175
H156	H	0.820730	-0.492029	0.628758
C157	C	0.813844	-0.739463	0.710987
H158	H	0.831209	-0.766055	0.750836
H159	H	0.839177	-0.715618	0.671064
H160	H	0.790925	-0.721058	0.756476
C161	C	0.662340	-1.083419	0.363239
H162	H	0.644969	-1.056829	0.323399
H163	H	0.685254	-1.101828	0.317758
H164	H	0.637005	-1.107261	0.403175
H165	H	0.670527	-0.574470	0.382163
C166	C	0.662305	-0.968765	0.363199
H167	H	0.644955	-0.990344	0.323362
H168	H	0.636960	-0.950007	0.403105
H169	H	0.685214	-0.944571	0.317700
C170	C	0.662165	-0.466400	0.363023
H171	H	0.666330	-0.430573	0.372604
H172	H	0.674306	-0.470897	0.292830
H173	H	0.626062	-0.476339	0.378259
