data_functionalizedCrystal
_audit_creation_method	'MofGen! by Chris Wilmer'
_symmetry_space_group_name_H-M	'P1'
_symmetry_Int_Tables_number	1
_symmetry_cell_setting	triclinic
loop_
_symmetry_equiv_pos_as_xyz
  x,y,z
_cell_length_a	29.839131
_cell_length_b	19.805407
_cell_length_c	19.805399
_cell_angle_alpha	90.019197
_cell_angle_beta	89.970435
_cell_angle_gamma	89.962430
loop_
_atom_site_label
_atom_site_type_symbol
_atom_site_fract_x
_atom_site_fract_y
_atom_site_fract_z
Zn1	Zn	-0.178910	-1.034665	-0.382703
Zn2	Zn	-0.254037	-1.034550	-0.269511
Zn3	Zn	-0.178917	-0.921480	-0.269529
Zn4	Zn	-0.254009	-0.921414	-0.382659
O5	O	-0.216468	-0.978027	-0.326101
O6	O	-0.188885	-1.129366	-0.367700
O7	O	-0.244088	-1.019531	-0.174797
O8	O	-0.116049	-0.936570	-0.284568
O9	O	-0.244081	-1.129282	-0.284538
O10	O	-0.116044	-1.019726	-0.367717
O11	O	-0.188897	-0.936458	-0.174810
O12	O	-0.188869	-0.826754	-0.284524
O13	O	-0.244031	-0.936457	-0.477381
O14	O	-0.244038	-0.826706	-0.367640
O15	O	-0.188857	-1.019662	-0.477414
O16	O	-0.316901	-1.019467	-0.284495
O17	O	-0.316880	-0.936346	-0.367623
C18	C	-0.216452	-0.802171	-0.326080
C19	C	-0.216456	-0.726939	-0.326087
C20	C	-0.187765	-0.691640	-0.369454
C21	C	-0.187767	-0.620951	-0.369455
C22	C	-0.216461	-0.585564	-0.326092
C23	C	-0.245152	-0.620868	-0.282720
C24	C	-0.245148	-0.691555	-0.282716
C25	C	-0.245169	-0.335795	-0.282733
C26	C	-0.245172	-0.265103	-0.282742
C27	C	-0.187787	-0.265191	-0.369473
C28	C	-0.187783	-0.335878	-0.369469
C29	C	-0.216473	-0.371176	-0.326095
C30	C	-0.216470	-0.447825	-0.326093
C31	C	-0.216466	-0.508916	-0.326096
C32	C	-0.333191	-0.977905	-0.326067
C33	C	-0.383125	-0.977915	-0.326075
C34	C	-0.692767	-1.021387	-0.282879
C35	C	-0.880440	-1.021470	-0.282905
O36	O	-0.904704	-1.058335	-0.246152
N37	N	-0.903910	-0.978167	-0.326152
C38	C	-0.880459	-0.934844	-0.369398
O39	O	-0.904729	-0.898019	-0.406188
C40	C	-0.692787	-0.934764	-0.369375
C41	C	-0.669319	-0.978065	-0.326120
C42	C	-0.669299	-1.064685	-0.239628
C43	C	-0.622384	-1.064661	-0.239619
C44	C	-0.598936	-1.021339	-0.282861
C45	C	-0.622404	-0.978041	-0.326112
C46	C	-0.669337	-0.891444	-0.412624
C47	C	-0.622416	-0.891429	-0.412616
C48	C	-0.598948	-0.934730	-0.369361
C49	C	-0.552041	-0.934695	-0.369344
N50	N	-0.528571	-0.977998	-0.326098
C51	C	-0.552018	-1.021320	-0.282856
C52	C	-0.978990	-0.934888	-0.369406
C53	C	-1.025908	-0.934906	-0.369411
C54	C	-1.025885	-1.021534	-0.282919
C55	C	-0.978967	-1.021512	-0.282911
C56	C	-0.955520	-0.978191	-0.326160
C57	C	-0.453493	-1.021266	-0.282840
C58	C	-0.406573	-1.021236	-0.282834
C59	C	-0.406600	-0.934611	-0.369328
C60	C	-0.453515	-0.934638	-0.369333
C61	C	-0.476960	-0.977971	-0.326087
O62	O	-0.527749	-0.897855	-0.406084
O63	O	-0.527741	-1.058150	-0.246083
C64	C	-0.739683	-1.021411	-0.282887
C65	C	-0.763150	-0.978113	-0.326138
C66	C	-0.739703	-0.934791	-0.369379
C67	C	-0.810068	-0.978132	-0.326143
C68	C	-0.833516	-1.021454	-0.282901
C69	C	-0.810046	-1.064757	-0.239654
C70	C	-0.763130	-1.064733	-0.239646
C71	C	-0.763173	-0.891488	-0.412626
C72	C	-0.810088	-0.891515	-0.412631
C73	C	-0.833536	-0.934837	-0.369389
C74	C	-0.099290	-0.978168	-0.326149
C75	C	-0.049355	-0.978228	-0.326170
C76	C	-0.216440	-0.978065	-0.502643
C77	C	-0.216428	-0.978081	-0.577875
C78	C	-0.216482	-0.154570	-0.326116
C79	C	-0.216479	-0.229802	-0.326106
C80	C	-0.187697	-1.021407	-0.613238
C81	C	-0.187684	-1.021414	-0.683926
C82	C	-0.216404	-0.978098	-0.719251
C83	C	-0.245137	-0.934767	-0.683884
C84	C	-0.245147	-0.934757	-0.613197
C85	C	-0.245095	-0.934806	-0.968957
C86	C	-0.245083	-0.934820	-1.039649
C87	C	-0.187632	-1.021462	-1.039687
C88	C	-0.187642	-1.021452	-0.969000
C89	C	-0.216372	-0.978119	-0.933639
C90	C	-0.216386	-0.978112	-0.856990
C91	C	-0.216394	-0.978109	-0.795898
C92	C	-0.216464	-0.978028	-0.150245
C93	C	-0.216350	-0.978143	-0.075013
H94	H	-0.164400	-0.720447	-0.404768
Br95	Br	-0.148666	-1.080244	-0.921062
Br96	Br	-0.284138	-0.875951	-0.565204
Br97	Br	-0.841932	-0.832741	-0.471337
H98	H	-0.164311	-1.056682	-0.584481
Br99	Br	-0.701112	-1.123489	-0.180936
Br100	Br	-0.374727	-1.080005	-0.224126
Br101	Br	-0.284112	-0.875976	-0.731824
Br102	Br	-0.731358	-0.832689	-0.471319
Br103	Br	-0.148829	-0.573047	-0.428314
H104	H	-0.164419	-0.364687	-0.404782
H105	H	-0.268511	-0.720295	-0.247401
H106	H	-0.164425	-0.236442	-0.404788
H107	H	-0.268539	-0.236292	-0.247428
Br108	Br	-0.284085	-0.875995	-0.920976
H109	H	-0.164290	-1.056696	-0.712715
Br110	Br	-0.284093	-0.383691	-0.223851
Br111	Br	-0.590598	-0.832636	-0.471316
Br112	Br	-0.284092	-0.572843	-0.223863
Br113	Br	-0.148639	-1.080272	-1.087681
Br114	Br	-0.485304	-1.080076	-0.224149
Br115	Br	-0.841877	-1.123547	-0.180967
Br116	Br	-0.590542	-1.123440	-0.180924
H117	H	-0.959862	-1.056771	-0.247690
H118	H	-1.044984	-1.056809	-0.247710
Br119	Br	-0.284064	-0.876031	-1.087590
H120	H	-1.045011	-0.899640	-0.404627
Br121	Br	-0.947176	-0.876088	-0.428107
Br122	Br	-0.485365	-0.875856	-0.428019
Br123	Br	-0.374769	-0.875823	-0.428013
H124	H	-0.688437	-0.856180	-0.447843
H125	H	-0.744026	-1.099993	-0.204424
