data_functionalizedCrystal
_audit_creation_method	'MofGen! by Chris Wilmer'
_symmetry_space_group_name_H-M	'P1'
_symmetry_Int_Tables_number	1
_symmetry_cell_setting	triclinic
loop_
_symmetry_equiv_pos_as_xyz
  x,y,z
_cell_length_a	29.839131
_cell_length_b	29.839135
_cell_length_c	29.839125
_cell_angle_alpha	89.984512
_cell_angle_beta	89.974637
_cell_angle_gamma	90.037758
loop_
_atom_site_label
_atom_site_type_symbol
_atom_site_fract_x
_atom_site_fract_y
_atom_site_fract_z
Zn1	Zn	-0.178886	0.686739	-0.254023
Zn2	Zn	0.154447	1.020072	0.079310
Zn3	Zn	0.487781	1.353406	0.412643
Zn4	Zn	-0.253998	0.686679	-0.178883
Zn5	Zn	0.079335	1.020013	0.154450
Zn6	Zn	0.412669	1.353346	0.487783
Zn7	Zn	-0.178886	0.611622	-0.178901
Zn8	Zn	0.154447	0.944955	0.154432
Zn9	Zn	0.487781	1.278288	0.487765
Zn10	Zn	-0.253993	0.611578	-0.253980
Zn11	Zn	0.079340	0.944911	0.079353
Zn12	Zn	0.412674	1.278244	0.412686
O13	O	-0.216441	0.649154	-0.216447
O14	O	0.116893	0.982488	0.116886
O15	O	0.450226	1.315821	0.450220
O16	O	-0.188852	0.749598	-0.244066
O17	O	0.144482	1.082931	0.089267
O18	O	0.477815	1.416265	0.422600
O19	O	-0.244036	0.676716	-0.116019
O20	O	0.089297	1.010049	0.217315
O21	O	0.422630	1.343383	0.550648
O22	O	-0.116019	0.621630	-0.188892
O23	O	0.217314	0.954963	0.144441
O24	O	0.550648	1.288296	0.477774
O25	O	-0.244036	0.749554	-0.188861
O26	O	0.089297	1.082888	0.144472
O27	O	0.422630	1.416221	0.477805
O28	O	-0.116019	0.676818	-0.244084
O29	O	0.217314	1.010151	0.089249
O30	O	0.550648	1.343485	0.422583
O31	O	-0.188852	0.621572	-0.116032
O32	O	0.144481	0.954905	0.217301
O33	O	0.477815	1.288238	0.550635
O34	O	-0.188847	0.548749	-0.188850
O35	O	0.144486	0.882082	0.144483
O36	O	0.477819	1.215415	0.477816
O37	O	-0.244028	0.621554	-0.316853
O38	O	0.089306	0.954888	0.016480
O39	O	0.422639	1.288221	0.349814
O40	O	-0.244028	0.548716	-0.244010
O41	O	0.089305	0.882050	0.089323
O42	O	0.422639	1.215383	0.422656
O43	O	-0.188847	0.676775	-0.316885
O44	O	0.144486	1.010108	0.016449
O45	O	0.477820	1.343442	0.349782
O46	O	-0.316864	0.676673	-0.188819
O47	O	0.016469	1.010007	0.144514
O48	O	0.349802	1.343340	0.477847
O49	O	-0.316861	0.621497	-0.243993
O50	O	0.016473	0.954830	0.089341
O51	O	0.349806	1.288163	0.422674
C52	C	-0.216437	0.532432	-0.216428
C53	C	0.116896	0.865765	0.116905
C54	C	0.450229	1.199098	0.450239
C55	C	-0.216447	0.482497	-0.216430
C56	C	0.116887	0.815831	0.116903
C57	C	0.450220	1.149164	0.450236
C58	C	-0.187750	0.172874	-0.245235
C59	C	0.145584	0.506207	0.088099
C60	C	0.478917	0.839541	0.421432
C61	C	-0.187753	-0.014799	-0.245247
C62	C	0.145580	0.318534	0.088086
C63	C	0.478914	0.651867	0.421419
O64	O	-0.163344	-0.039047	-0.269717
O65	O	0.169990	0.294286	0.063617
O66	O	0.503323	0.627620	0.396950
N67	N	-0.216441	-0.038288	-0.216464
N68	N	0.116892	0.295046	0.116870
N69	N	0.450225	0.628379	0.450203
C70	C	-0.245129	-0.014855	-0.187672
C71	C	0.088204	0.318478	0.145661
C72	C	0.421538	0.651812	0.478994
O73	O	-0.269527	-0.039140	-0.163187
O74	O	0.063806	0.294194	0.170147
O75	O	0.397140	0.627527	0.503480
C76	C	-0.245123	0.172817	-0.187658
C77	C	0.088210	0.506150	0.145676
C78	C	0.421544	0.839484	0.479009
C79	C	-0.216436	0.196303	-0.216447
C80	C	0.116897	0.529637	0.116887
C81	C	0.450231	0.862970	0.450220
C82	C	-0.159065	0.196360	-0.274021
C83	C	0.174269	0.529693	0.059312
C84	C	0.507602	0.863027	0.392646
C85	C	-0.159066	0.243275	-0.274019
C86	C	0.174267	0.576609	0.059314
C87	C	0.507601	0.909942	0.392647
C88	C	-0.187752	0.266705	-0.245231
C89	C	0.145581	0.600038	0.088102
C90	C	0.478914	0.933371	0.421436
C91	C	-0.216437	0.243219	-0.216445
C92	C	0.116896	0.576552	0.116888
C93	C	0.450229	0.909885	0.450222
C94	C	-0.273808	0.196249	-0.158864
C95	C	0.059525	0.529582	0.174469
C96	C	0.392859	0.862916	0.507802
C97	C	-0.273803	0.243170	-0.158862
C98	C	0.059530	0.576503	0.174471
C99	C	0.392863	0.909837	0.507804
C100	C	-0.245116	0.266656	-0.187651
C101	C	0.088217	0.599989	0.145682
C102	C	0.421550	0.933323	0.479015
C103	C	-0.245125	0.313563	-0.187655
C104	C	0.088208	0.646897	0.145678
C105	C	0.421542	0.980230	0.479012
N106	N	-0.216437	0.337052	-0.216439
N107	N	0.116897	0.670385	0.116894
N108	N	0.450230	1.003719	0.450228
C109	C	-0.187750	0.313623	-0.245227
C110	C	0.145583	0.646956	0.088106
C111	C	0.478916	0.980289	0.421440
C112	C	-0.245130	-0.113386	-0.187683
C113	C	0.088203	0.219948	0.145651
C114	C	0.421536	0.553281	0.478984
C115	C	-0.245133	-0.160304	-0.187687
C116	C	0.088201	0.173030	0.145647
C117	C	0.421534	0.506363	0.478980
C118	C	-0.187756	-0.160244	-0.245262
C119	C	0.145578	0.173089	0.088072
C120	C	0.478911	0.506422	0.421405
C121	C	-0.187756	-0.113326	-0.245259
C122	C	0.145577	0.220008	0.088074
C123	C	0.478910	0.553341	0.421407
C124	C	-0.216442	-0.089897	-0.216467
C125	C	0.116891	0.243436	0.116867
C126	C	0.450225	0.576769	0.450200
C127	C	-0.187755	0.412148	-0.245221
C128	C	0.145578	0.745482	0.088112
C129	C	0.478911	1.078815	0.421445
C130	C	-0.187760	0.459068	-0.245218
C131	C	0.145573	0.792401	0.088115
C132	C	0.478906	1.125735	0.421448
C133	C	-0.245135	0.459005	-0.187642
C134	C	0.088198	0.792338	0.145691
C135	C	0.421531	1.125672	0.479024
C136	C	-0.245132	0.412089	-0.187647
C137	C	0.088201	0.745423	0.145687
C138	C	0.421535	1.078756	0.479020
C139	C	-0.216438	0.388662	-0.216438
C140	C	0.116895	0.721996	0.116896
C141	C	0.450228	1.055329	0.450229
O142	O	-0.269518	0.337840	-0.163195
O143	O	0.063815	0.671174	0.170138
O144	O	0.397149	1.004507	0.503472
O145	O	-0.163349	0.337915	-0.269702
O146	O	0.169985	0.671249	0.063632
O147	O	0.503318	1.004582	0.396965
C148	C	-0.187749	0.125958	-0.245236
C149	C	0.145585	0.459292	0.088097
C150	C	0.478918	0.792625	0.421430
C151	C	-0.216434	0.102472	-0.216450
C152	C	0.116900	0.435806	0.116883
C153	C	0.450233	0.769139	0.450217
C154	C	-0.245120	0.125902	-0.187662
C155	C	0.088213	0.459235	0.145671
C156	C	0.421547	0.792568	0.479005
C157	C	-0.216436	0.055554	-0.216454
C158	C	0.116898	0.388888	0.116879
C159	C	0.450231	0.722221	0.450212
C160	C	-0.187749	0.032125	-0.245242
C161	C	0.145584	0.365458	0.088091
C162	C	0.478917	0.698792	0.421424
C163	C	-0.159061	0.055614	-0.274026
C164	C	0.174272	0.388947	0.059307
C165	C	0.507606	0.722280	0.392640
C166	C	-0.159062	0.102529	-0.274025
C167	C	0.174271	0.435862	0.059309
C168	C	0.507604	0.769196	0.392642
C169	C	-0.273808	0.102413	-0.158878
C170	C	0.059525	0.435746	0.174455
C171	C	0.392858	0.769080	0.507789
C172	C	-0.273805	0.055498	-0.158883
C173	C	0.059528	0.388831	0.174451
C174	C	0.392862	0.722164	0.507784
C175	C	-0.245119	0.032068	-0.187671
C176	C	0.088215	0.365402	0.145663
C177	C	0.421548	0.698735	0.478996
C178	C	-0.333163	0.649086	-0.216409
C179	C	0.000170	0.982419	0.116924
C180	C	0.333503	1.315753	0.450257
C181	C	-0.383098	0.649098	-0.216408
C182	C	-0.049764	0.982431	0.116925
C183	C	0.283569	1.315764	0.450259
C184	C	-0.692706	0.677885	-0.245226
C185	C	-0.359373	1.011218	0.088107
C186	C	-0.026040	1.344551	0.421440
C187	C	-0.880379	0.677933	-0.245253
C188	C	-0.547046	1.011267	0.088080
C189	C	-0.213713	1.344600	0.421413
O190	O	-0.904614	0.702342	-0.269728
O191	O	-0.571281	1.035675	0.063606
O192	O	-0.237948	1.369009	0.396939
N193	N	-0.903883	0.649231	-0.216497
N194	N	-0.570549	0.982564	0.116836
N195	N	-0.237216	1.315897	0.450170
C196	C	-0.880465	0.620512	-0.187734
C197	C	-0.547132	0.953845	0.145600
C198	C	-0.213799	1.287178	0.478933
O199	O	-0.904763	0.596096	-0.163279
O200	O	-0.571429	0.929429	0.170055
O201	O	-0.238096	1.262763	0.503388
C202	C	-0.692793	0.620461	-0.187709
C203	C	-0.359460	0.953794	0.145624
C204	C	-0.026126	1.287128	0.478957
C205	C	-0.669292	0.649169	-0.216464
C206	C	-0.335959	0.982502	0.116869
C207	C	-0.002625	1.315835	0.450202
C208	C	-0.669205	0.706590	-0.273979
C209	C	-0.335872	1.039923	0.059354
C210	C	-0.002538	1.373256	0.392687
C211	C	-0.622290	0.706579	-0.273971
C212	C	-0.288956	1.039912	0.059363
C213	C	0.044377	1.373246	0.392696
C214	C	-0.598875	0.677863	-0.245209
C215	C	-0.265542	1.011196	0.088125
C216	C	0.067791	1.344530	0.421458
C217	C	-0.622377	0.649158	-0.216456
C218	C	-0.289043	0.982491	0.116878
C219	C	0.044290	1.315825	0.450211
C220	C	-0.669376	0.591740	-0.158949
C221	C	-0.336043	0.925073	0.174385
C222	C	-0.002710	1.258407	0.507718
C223	C	-0.622455	0.591729	-0.158946
C224	C	-0.289122	0.925062	0.174387
C225	C	0.044211	1.258396	0.507721
C226	C	-0.598954	0.620437	-0.187701
C227	C	-0.265621	0.953770	0.145632
C228	C	0.067712	1.287103	0.478965
C229	C	-0.552047	0.620431	-0.187685
C230	C	-0.218713	0.953765	0.145648
C231	C	0.114620	1.287098	0.478982
N232	N	-0.528543	0.649134	-0.216441
N233	N	-0.195210	0.982467	0.116892
N234	N	0.138123	1.315801	0.450225
C235	C	-0.551957	0.677850	-0.245203
C236	C	-0.218624	1.011183	0.088130
C237	C	0.114709	1.344517	0.421463
C238	C	-0.978996	0.620541	-0.187748
C239	C	-0.645663	0.953874	0.145585
C240	C	-0.312329	1.287208	0.478919
C241	C	-1.025914	0.620554	-0.187753
C242	C	-0.692580	0.953887	0.145580
C243	C	-0.359247	1.287221	0.478913
C244	C	-1.025824	0.677975	-0.245274
C245	C	-0.692491	1.011309	0.088060
C246	C	-0.359158	1.344642	0.421393
C247	C	-0.978906	0.677964	-0.245266
C248	C	-0.645572	1.011297	0.088068
C249	C	-0.312239	1.344631	0.421401
C250	C	-0.955492	0.649244	-0.216504
C251	C	-0.622159	0.982577	0.116829
C252	C	-0.288826	1.315910	0.450162
C253	C	-0.453432	0.677826	-0.245183
C254	C	-0.120098	1.011159	0.088151
C255	C	0.213235	1.344492	0.421484
C256	C	-0.406512	0.677814	-0.245170
C257	C	-0.073179	1.011147	0.088163
C258	C	0.260155	1.344480	0.421497
C259	C	-0.406605	0.620391	-0.187651
C260	C	-0.073272	0.953724	0.145682
C261	C	0.260061	1.287057	0.479015
C262	C	-0.453521	0.620404	-0.187662
C263	C	-0.120188	0.953738	0.145671
C264	C	0.213146	1.287071	0.479004
C265	C	-0.476933	0.649123	-0.216431
C266	C	-0.143600	0.982456	0.116902
C267	C	0.189734	1.315790	0.450235
O268	O	-0.527783	0.596032	-0.163227
O269	O	-0.194449	0.929365	0.170106
O270	O	0.138884	1.262699	0.503440
O271	O	-0.527652	0.702255	-0.269662
O272	O	-0.194319	1.035588	0.063671
O273	O	0.139015	1.368922	0.397005
C274	C	-0.739622	0.677895	-0.245235
C275	C	-0.406288	1.011229	0.088098
C276	C	-0.072955	1.344562	0.421432
C277	C	-0.763123	0.649190	-0.216482
C278	C	-0.429790	0.982524	0.116851
C279	C	-0.096456	1.315857	0.450185
C280	C	-0.739709	0.620474	-0.187720
C281	C	-0.406375	0.953808	0.145613
C282	C	-0.073042	1.287141	0.478947
C283	C	-0.810041	0.649203	-0.216487
C284	C	-0.476707	0.982537	0.116846
C285	C	-0.143374	1.315870	0.450179
C286	C	-0.833455	0.677919	-0.245249
C287	C	-0.500122	1.011253	0.088084
C288	C	-0.166788	1.344586	0.421417
C289	C	-0.809951	0.706622	-0.274006
C290	C	-0.476618	1.039955	0.059328
C291	C	-0.143285	1.373289	0.392661
C292	C	-0.763036	0.706611	-0.273997
C293	C	-0.429703	1.039945	0.059336
C294	C	-0.096369	1.373278	0.392670
C295	C	-0.763212	0.591772	-0.158964
C296	C	-0.429879	0.925105	0.174370
C297	C	-0.096545	1.258438	0.507703
C298	C	-0.810128	0.591785	-0.158974
C299	C	-0.476794	0.925118	0.174359
C300	C	-0.143461	1.258452	0.507692
C301	C	-0.833542	0.620501	-0.187736
C302	C	-0.500209	0.953834	0.145597
C303	C	-0.166875	1.287168	0.478930
C304	C	-0.099262	0.649235	-0.216495
C305	C	0.234071	0.982569	0.116838
C306	C	0.567404	1.315902	0.450172
C307	C	-0.049328	0.649270	-0.216515
C308	C	0.284005	0.982603	0.116818
C309	C	0.617339	1.315937	0.450151
C310	C	-0.216437	0.649167	-0.333625
C311	C	0.116897	0.982500	-0.000292
C312	C	0.450230	1.315833	0.333041
C313	C	-0.216435	0.649172	-0.383560
C314	C	0.116898	0.982505	-0.050227
C315	C	0.450232	1.315838	0.283107
C316	C	-0.216445	0.766333	-0.216467
C317	C	0.116889	1.099666	0.116867
C318	C	0.450222	1.432999	0.450200
C319	C	-0.216446	0.816267	-0.216475
C320	C	0.116887	1.149600	0.116858
C321	C	0.450220	1.482934	0.450192
C322	C	-0.187627	0.677955	-0.693223
C323	C	0.145706	1.011289	-0.359890
C324	C	0.479040	1.344622	-0.026556
C325	C	-0.187589	0.677978	-0.880896
C326	C	0.145744	1.011311	-0.547563
C327	C	0.479078	1.344644	-0.214229
O328	O	-0.163138	0.702417	-0.905177
O329	O	0.170195	1.035750	-0.571844
O330	O	0.503529	1.369084	-0.238511
N331	N	-0.216315	0.649231	-0.904345
N332	N	0.117019	0.982565	-0.571012
N333	N	0.450352	1.315898	-0.237679
C334	C	-0.245050	0.620475	-0.880873
C335	C	0.088283	0.953809	-0.547540
C336	C	0.421617	1.287142	-0.214207
O337	O	-0.269479	0.596022	-0.905124
O338	O	0.063854	0.929355	-0.571791
O339	O	0.397188	1.262689	-0.238458
C340	C	-0.245086	0.620451	-0.693201
C341	C	0.088247	0.953784	-0.359868
C342	C	0.421581	1.287118	-0.026534
C343	C	-0.216361	0.649202	-0.669754
C344	C	0.116972	0.982536	-0.336421
C345	C	0.450305	1.315869	-0.003088
C346	C	-0.158905	0.706704	-0.669776
C347	C	0.174429	1.040037	-0.336443
C348	C	0.507762	1.373371	-0.003110
C349	C	-0.158916	0.706700	-0.622861
C350	C	0.174417	1.040033	-0.289527
C351	C	0.507750	1.373367	0.043806
C352	C	-0.187650	0.677947	-0.599392
C353	C	0.145683	1.011280	-0.266059
C354	C	0.479016	1.344614	0.067275
C355	C	-0.216373	0.649198	-0.622839
C356	C	0.116960	0.982532	-0.289505
C357	C	0.450294	1.315865	0.043828
C358	C	-0.273819	0.591693	-0.669730
C359	C	0.059515	0.925026	-0.336396
C360	C	0.392848	1.258360	-0.003063
C361	C	-0.273824	0.591689	-0.622809
C362	C	0.059509	0.925022	-0.289475
C363	C	0.392842	1.258355	0.043858
C364	C	-0.245100	0.620440	-0.599362
C365	C	0.088234	0.953773	-0.266029
C366	C	0.421567	1.287107	0.067305
C367	C	-0.245119	0.620441	-0.552455
C368	C	0.088215	0.953775	-0.219121
C369	C	0.421548	1.287108	0.114212
N370	N	-0.216393	0.649188	-0.529005
N371	N	0.116941	0.982521	-0.195672
N372	N	0.450274	1.315854	0.137661
C373	C	-0.187659	0.677941	-0.552474
C374	C	0.145675	1.011274	-0.219141
C375	C	0.479008	1.344607	0.114193
C376	C	-0.245030	0.620491	-0.979404
C377	C	0.088303	0.953824	-0.646070
C378	C	0.421637	1.287157	-0.312737
C379	C	-0.245022	0.620497	-1.026322
C380	C	0.088312	0.953830	-0.692988
C381	C	0.421645	1.287164	-0.359655
C382	C	-0.187560	0.677999	-1.026341
C383	C	0.145774	1.011332	-0.693008
C384	C	0.479107	1.344666	-0.359675
C385	C	-0.187571	0.677994	-0.979423
C386	C	0.145763	1.011328	-0.646089
C387	C	0.479096	1.344661	-0.312756
C388	C	-0.216304	0.649237	-0.955955
C389	C	0.117029	0.982570	-0.622621
C390	C	0.450363	1.315904	-0.289288
C391	C	-0.187685	0.677930	-0.453948
C392	C	0.145648	1.011263	-0.120615
C393	C	0.478981	1.344597	0.212718
C394	C	-0.187701	0.677925	-0.407029
C395	C	0.145632	1.011258	-0.073695
C396	C	0.478966	1.344591	0.259638
C397	C	-0.245161	0.620421	-0.407013
C398	C	0.088172	0.953755	-0.073680
C399	C	0.421506	1.287088	0.259654
C400	C	-0.245147	0.620428	-0.453929
C401	C	0.088186	0.953761	-0.120595
C402	C	0.421519	1.287095	0.212738
C403	C	-0.216406	0.649184	-0.477395
C404	C	0.116927	0.982517	-0.144062
C405	C	0.450261	1.315851	0.189272
O406	O	-0.269553	0.596011	-0.528144
O407	O	0.063780	0.929344	-0.194811
O408	O	0.397113	1.262678	0.138523
O409	O	-0.163226	0.702383	-0.528215
O410	O	0.170107	1.035717	-0.194882
O411	O	0.503440	1.369050	0.138452
C412	C	-0.187616	0.677960	-0.740138
C413	C	0.145718	1.011293	-0.406805
C414	C	0.479051	1.344626	-0.073472
C415	C	-0.216338	0.649211	-0.763585
C416	C	0.116995	0.982544	-0.430252
C417	C	0.450329	1.315877	-0.096918
C418	C	-0.245072	0.620458	-0.740116
C419	C	0.088261	0.953791	-0.406783
C420	C	0.421594	1.287124	-0.073450
C421	C	-0.216330	0.649217	-0.810503
C422	C	0.117003	0.982551	-0.477170
C423	C	0.450337	1.315884	-0.143836
C424	C	-0.187596	0.677970	-0.833972
C425	C	0.145738	1.011304	-0.500638
C426	C	0.479071	1.344637	-0.167305
C427	C	-0.158870	0.706717	-0.810523
C428	C	0.174464	1.040050	-0.477189
C429	C	0.507797	1.373383	-0.143856
C430	C	-0.158881	0.706712	-0.763607
C431	C	0.174452	1.040046	-0.430274
C432	C	0.507785	1.373379	-0.096940
C433	C	-0.273798	0.591711	-0.763566
C434	C	0.059535	0.925045	-0.430232
C435	C	0.392869	1.258378	-0.096899
C436	C	-0.273785	0.591718	-0.810481
C437	C	0.059549	0.925052	-0.477148
C438	C	0.392882	1.258385	-0.143814
C439	C	-0.245050	0.620471	-0.833950
C440	C	0.088283	0.953805	-0.500616
C441	C	0.421616	1.287138	-0.167283
C442	C	-0.216412	0.649168	-0.099725
C443	C	0.116921	0.982501	0.233609
C444	C	0.450254	1.315835	0.566942
C445	C	-0.216288	0.649250	-0.049790
C446	C	0.117046	0.982583	0.283543
C447	C	0.450379	1.315917	0.616876
H448	H	-0.268497	-0.179422	-0.164249
H449	H	0.064836	0.153911	0.169084
H450	H	0.398169	0.487245	0.502418
N451	N	-0.127897	0.737723	-0.738324
N452	N	0.205436	1.071056	-0.404991
N453	N	0.538769	1.404390	-0.071658
H454	H	-0.107080	0.719481	-0.718860
H455	H	0.226254	1.052814	-0.385526
H456	H	0.559587	1.386148	-0.052193
H457	H	-0.146190	0.758524	-0.718884
H458	H	0.187144	1.091857	-0.385551
H459	H	0.520477	1.425190	-0.052218
H460	H	-0.164180	0.701406	-0.960335
H461	H	0.169154	1.034739	-0.627002
H462	H	0.502487	1.368072	-0.293669
N463	N	-0.597204	0.560755	-0.127919
N464	N	-0.263871	0.894089	0.205415
N465	N	0.069462	1.227422	0.538748
H466	H	-0.563915	0.565102	-0.132274
H467	H	-0.230582	0.898436	0.201059
H468	H	0.102751	1.231769	0.534393
H469	H	-0.605430	0.528667	-0.134881
H470	H	-0.272097	0.862001	0.198452
H471	H	0.061237	1.195334	0.531786
H472	H	-0.268417	0.597090	-1.045408
H473	H	0.064916	0.930423	-0.712075
H474	H	0.398250	1.263756	-0.378741
N475	N	-0.128123	0.268604	-0.305069
N476	N	0.205210	0.601937	0.028264
N477	N	0.538543	0.935270	0.361598
H478	H	-0.109952	0.246636	-0.323303
H479	H	0.223381	0.579969	0.010030
H480	H	0.556714	0.913303	0.343364
H481	H	-0.107303	0.288076	-0.286822
H482	H	0.226030	0.621410	0.046511
H483	H	0.559363	0.954743	0.379845
N484	N	-0.953560	0.708926	-0.276280
N485	N	-0.620226	1.042260	0.057053
N486	N	-0.286893	1.375593	0.390387
H487	H	-0.975516	0.727119	-0.294499
H488	H	-0.642183	1.060452	0.038834
H489	H	-0.308850	1.393786	0.372168
H490	H	-0.934100	0.690620	-0.297052
H491	H	-0.600767	1.023954	0.036281
H492	H	-0.267433	1.357287	0.369614
N493	N	-1.051255	0.589593	-0.156734
N494	N	-0.717922	0.922926	0.176599
N495	N	-0.384588	1.256260	0.509933
H496	H	-1.070730	0.568765	-0.174971
H497	H	-0.737397	0.902098	0.158362
H498	H	-0.404064	1.235431	0.491695
H499	H	-1.070689	0.607900	-0.135939
H500	H	-0.737356	0.941233	0.197395
H501	H	-0.404023	1.274566	0.530728
N502	N	-0.127879	0.737731	-0.835840
N503	N	0.205454	1.071064	-0.502506
N504	N	0.538787	1.404398	-0.169173
H505	H	-0.132234	0.733368	-0.869119
H506	H	0.201099	1.066701	-0.535786
H507	H	0.534433	1.400035	-0.202452
H508	H	-0.095795	0.730760	-0.827647
H509	H	0.237538	1.064093	-0.494314
H510	H	0.570872	1.397426	-0.160980
N511	N	-0.276148	0.589407	-0.381694
N512	N	0.057186	0.922741	-0.048361
N513	N	0.390519	1.256074	0.284972
H514	H	-0.294344	0.571193	-0.403664
H515	H	0.038989	0.904526	-0.070331
H516	H	0.372323	1.237860	0.263002
H517	H	-0.296943	0.607677	-0.362224
H518	H	0.036391	0.941010	-0.028891
H519	H	0.369724	1.274343	0.304442
N520	N	-0.156806	-0.185515	-0.276307
N521	N	0.176527	0.147818	0.057027
N522	N	0.509860	0.481152	0.390360
H523	H	-0.163824	-0.177347	-0.308394
H524	H	0.169509	0.155986	0.024939
H525	H	0.502843	0.489319	0.358273
H526	H	-0.161173	-0.218793	-0.271901
H527	H	0.172160	0.114540	0.061432
H528	H	0.505493	0.447874	0.394766
N529	N	-0.156813	0.386882	-0.276276
N530	N	0.176520	0.720216	0.057057
N531	N	0.509854	1.053549	0.390390
H532	H	-0.135963	0.367424	-0.258065
H533	H	0.197371	0.700758	0.075269
H534	H	0.530704	1.034091	0.408602
H535	H	-0.138674	0.408912	-0.294506
H536	H	0.194660	0.742245	0.038828
H537	H	0.527993	1.075579	0.372161
H538	H	-0.297218	0.568265	-0.603704
H539	H	0.036115	0.901599	-0.270370
H540	H	0.369448	1.234932	0.062963
N541	N	-0.128121	0.171101	-0.305078
N542	N	0.205212	0.504434	0.028255
N543	N	0.538546	0.837767	0.361589
H544	H	-0.146408	0.151632	-0.325866
H545	H	0.186925	0.484965	0.007467
H546	H	0.520258	0.818299	0.340801
H547	H	-0.107275	0.151666	-0.286838
H548	H	0.226058	0.485000	0.046495
H549	H	0.559392	0.818333	0.379828
N550	N	-0.304796	0.560695	-0.738266
N551	N	0.028537	0.894028	-0.404932
N552	N	0.361871	1.227362	-0.071599
H553	H	-0.325625	0.578932	-0.718799
H554	H	0.007709	0.912265	-0.385466
H555	H	0.341042	1.245598	-0.052132
H556	H	-0.286517	0.539887	-0.718826
H557	H	0.046816	0.873220	-0.385493
H558	H	0.380150	1.206553	-0.052159
N559	N	-0.156820	0.484399	-0.276272
N560	N	0.176513	0.817733	0.057061
N561	N	0.509847	1.151066	0.390395
H562	H	-0.138647	0.462435	-0.294508
H563	H	0.194686	0.795768	0.038825
H564	H	0.528020	1.129101	0.372159
H565	H	-0.136001	0.503875	-0.258027
H566	H	0.197332	0.837208	0.075307
H567	H	0.530665	1.170542	0.408640
N568	N	-0.304771	0.560708	-0.835767
N569	N	0.028563	0.894042	-0.502434
N570	N	0.361896	1.227375	-0.169101
H571	H	-0.322973	0.542494	-0.813776
H572	H	0.010360	0.875827	-0.480443
H573	H	0.343694	1.209160	-0.147110
H574	H	-0.286477	0.539932	-0.855232
H575	H	0.046856	0.873265	-0.521899
H576	H	0.380189	1.206598	-0.188566
H577	H	-0.688503	0.568363	-0.135533
H578	H	-0.355170	0.901696	0.197800
H579	H	-0.021836	1.235030	0.531134
H580	H	-0.164396	-0.094206	-0.268701
H581	H	0.168937	0.239127	0.064632
H582	H	0.502271	0.572460	0.397966
H583	H	-0.164164	0.701411	-1.045458
H584	H	0.169170	1.034745	-0.712124
H585	H	0.502503	1.368078	-0.378791
H586	H	-0.268496	0.392966	-0.164210
H587	H	0.064837	0.726299	0.169124
H588	H	0.398170	1.059633	0.502457
N589	N	-1.051084	0.708932	-0.276311
N590	N	-0.717751	1.042266	0.057023
N591	N	-0.384418	1.375599	0.390356
H592	H	-1.029080	0.727111	-0.294534
H593	H	-0.695747	1.060444	0.038799
H594	H	-0.362413	1.393778	0.372132
H595	H	-1.070549	0.729745	-0.258059
H596	H	-0.737216	1.063079	0.075274
H597	H	-0.403883	1.396412	0.408607
N598	N	-0.953746	0.589564	-0.156722
N599	N	-0.620413	0.922898	0.176611
N600	N	-0.287079	1.256231	0.509944
H601	H	-0.975759	0.571388	-0.138507
H602	H	-0.642425	0.904721	0.194826
H603	H	-0.309092	1.238054	0.528159
H604	H	-0.934276	0.607862	-0.135947
H605	H	-0.600942	0.941195	0.197386
H606	H	-0.267609	1.274528	0.530720
N607	N	-0.276014	0.589462	-0.954095
N608	N	0.057319	0.922796	-0.620762
N609	N	0.390653	1.256129	-0.287428
H610	H	-0.294205	0.571253	-0.976073
H611	H	0.039128	0.904586	-0.642740
H612	H	0.372461	1.237920	-0.309407
H613	H	-0.296814	0.607721	-0.934620
H614	H	0.036520	0.941055	-0.601287
H615	H	0.369853	1.274388	-0.267954
N616	N	-0.478872	0.589447	-0.156644
N617	N	-0.145539	0.922781	0.176690
N618	N	0.187795	1.256114	0.510023
H619	H	-0.456918	0.571256	-0.138421
H620	H	-0.123584	0.904589	0.194913
H621	H	0.209749	1.237923	0.528246
H622	H	-0.498343	0.568647	-0.174914
H623	H	-0.165010	0.901980	0.158419
H624	H	0.168323	1.235313	0.491752
N625	N	-0.381347	0.589422	-0.156628
N626	N	-0.048014	0.922756	0.176705
N627	N	0.285320	1.256089	0.510039
H628	H	-0.348059	0.593773	-0.160990
H629	H	-0.014726	0.927107	0.172344
H630	H	0.318607	1.260440	0.505677
H631	H	-0.389571	0.557334	-0.163591
H632	H	-0.056237	0.890667	0.169742
H633	H	0.277096	1.224001	0.503076
H634	H	-0.743905	0.729988	-0.297412
H635	H	-0.410571	1.063321	0.035921
H636	H	-0.077238	1.396654	0.369254
H637	H	-0.268491	-0.094314	-0.164235
H638	H	0.064842	0.239019	0.169098
H639	H	0.398175	0.572352	0.502432
N640	N	-0.304745	0.030167	-0.127827
N641	N	0.028588	0.363501	0.205506
N642	N	0.361922	0.696834	0.538839
H643	H	-0.325595	0.010691	-0.146039
H644	H	0.007739	0.344024	0.187295
H645	H	0.341072	0.677357	0.520628
H646	H	-0.322885	0.052161	-0.109596
H647	H	0.010448	0.385494	0.223737
H648	H	0.343782	0.718827	0.557071
H649	H	-0.268492	0.478089	-0.164205
H650	H	0.064842	0.811423	0.169129
H651	H	0.398175	1.144756	0.502462
N652	N	-0.304748	0.170925	-0.127811
N653	N	0.028586	0.504258	0.205522
N654	N	0.361919	0.837592	0.538856
H655	H	-0.322914	0.192893	-0.109574
H656	H	0.010419	0.526227	0.223759
H657	H	0.343752	0.859560	0.557093
H658	H	-0.286427	0.151466	-0.107058
H659	H	0.046906	0.484799	0.226276
H660	H	0.380240	0.818133	0.559609
H661	H	-0.829023	0.730005	-0.297423
H662	H	-0.495690	1.063338	0.035910
H663	H	-0.162357	1.396672	0.369243
H664	H	-0.297163	0.262243	-0.135415
H665	H	0.036171	0.595576	0.197919
H666	H	0.369504	0.928910	0.531252
N667	N	-0.835473	0.560823	-0.127955
N668	N	-0.502139	0.894156	0.205379
N669	N	-0.168806	1.227490	0.538712
H670	H	-0.813516	0.542631	-0.109735
H671	H	-0.480183	0.875964	0.223598
H672	H	-0.146850	1.209298	0.556932
H673	H	-0.854945	0.540023	-0.146225
H674	H	-0.521612	0.873356	0.187108
H675	H	-0.188278	1.206690	0.520442
N676	N	-0.478683	0.708801	-0.276206
N677	N	-0.145350	1.042135	0.057127
N678	N	0.187983	1.375468	0.390460
H679	H	-0.498153	0.690537	-0.297013
H680	H	-0.164820	1.023870	0.036320
H681	H	0.168514	1.357203	0.369654
H682	H	-0.456645	0.726979	-0.294389
H683	H	-0.123312	1.060312	0.038945
H684	H	0.210021	1.393645	0.372278
H685	H	-0.297168	0.121485	-0.135434
H686	H	0.036165	0.454818	0.197899
H687	H	0.369499	0.788151	0.531232
N688	N	-0.304798	0.560681	-0.695012
N689	N	0.028535	0.894014	-0.361679
N690	N	0.361868	1.227347	-0.028345
H691	H	-0.336899	0.567632	-0.686837
H692	H	-0.003566	0.900965	-0.353503
H693	H	0.329768	1.234299	-0.020170
H694	H	-0.297778	0.528601	-0.686829
H695	H	0.035555	0.861934	-0.353495
H696	H	0.368889	1.195267	-0.020162
N697	N	-0.737960	0.560802	-0.127938
N698	N	-0.404627	0.894135	0.205395
N699	N	-0.071294	1.227468	0.538729
H700	H	-0.746151	0.528699	-0.134882
H701	H	-0.412818	0.862033	0.198452
H702	H	-0.079485	1.195366	0.531785
H703	H	-0.746154	0.567847	-0.095862
H704	H	-0.412820	0.901180	0.237471
H705	H	-0.079487	1.234514	0.570805
N706	N	-0.128122	0.030339	-0.305079
N707	N	0.205211	0.363672	0.028255
N708	N	0.538545	0.697006	0.361588
H709	H	-0.132478	-0.002946	-0.300708
H710	H	0.200856	0.330387	0.032625
H711	H	0.534189	0.663720	0.365958
H712	H	-0.096026	0.038556	-0.298148
H713	H	0.237308	0.371890	0.035185
H714	H	0.570641	0.705223	0.368518
H715	H	-0.135702	0.121647	-0.297467
H716	H	0.197631	0.454981	0.035866
H717	H	0.530965	0.788314	0.369199
N718	N	-0.381164	0.708779	-0.276185
N719	N	-0.047831	1.042112	0.057148
N720	N	0.285502	1.375445	0.390482
H721	H	-0.403120	0.726970	-0.294407
H722	H	-0.069786	1.060303	0.038926
H723	H	0.263547	1.393636	0.372260
H724	H	-0.361701	0.690473	-0.296954
H725	H	-0.028368	1.023806	0.036379
H726	H	0.304965	1.357139	0.369712
H727	H	-0.164310	0.701339	-0.387940
H728	H	0.169024	1.034672	-0.054607
H729	H	0.502357	1.368006	0.278726
H730	H	-0.164280	0.701344	-0.473049
H731	H	0.169053	1.034678	-0.139716
H732	H	0.502387	1.368011	0.193618
N733	N	-0.596944	0.737537	-0.304990
N734	N	-0.263610	1.070870	0.028344
N735	N	0.069723	1.404204	0.361677
H736	H	-0.605085	0.769643	-0.298048
H737	H	-0.271752	1.102977	0.035285
H738	H	0.061581	1.436310	0.368619
H739	H	-0.605111	0.730496	-0.337068
H740	H	-0.271778	1.063829	-0.003735
H741	H	0.061555	1.397162	0.329598
N742	N	-0.694454	0.737553	-0.305015
N743	N	-0.361121	1.070886	0.028318
N744	N	-0.027788	1.404220	0.361651
H745	H	-0.672441	0.755729	-0.323230
H746	H	-0.339107	1.089062	0.010103
H747	H	-0.005774	1.422395	0.343436
H748	H	-0.713916	0.758368	-0.286763
H749	H	-0.380583	1.091701	0.046570
H750	H	-0.047250	1.425035	0.379904
N751	N	-0.127933	0.737709	-0.597575
N752	N	0.205400	1.071043	-0.264242
N753	N	0.538733	1.404376	0.069092
H754	H	-0.109730	0.755921	-0.619568
H755	H	0.223603	1.089255	-0.286234
H756	H	0.556936	1.422588	0.047099
H757	H	-0.107145	0.719435	-0.578112
H758	H	0.226189	1.052768	-0.244778
H759	H	0.559522	1.386102	0.088555
H760	H	-0.135503	0.730118	-0.688879
H761	H	0.197830	1.063452	-0.355546
H762	H	0.531163	1.396785	-0.022213
N763	N	-0.276133	0.589424	-0.479221
N764	N	0.057200	0.922758	-0.145888
N765	N	0.390533	1.256091	0.187446
H766	H	-0.294339	0.571211	-0.457232
H767	H	0.038994	0.904544	-0.123899
H768	H	0.372327	1.237877	0.209434
H769	H	-0.257841	0.568647	-0.498685
H770	H	0.075493	0.901980	-0.165352
H771	H	0.408826	1.235313	0.167981
