data_functionalizedCrystal
_audit_creation_method	'MofGen! by Chris Wilmer'
_symmetry_space_group_name_H-M	'P1'
_symmetry_Int_Tables_number	1
_symmetry_cell_setting	triclinic
loop_
_symmetry_equiv_pos_as_xyz
  x,y,z
_cell_length_a	27.440280
_cell_length_b	27.440280
_cell_length_c	14.446369
_cell_angle_alpha	59.991108
_cell_angle_beta	90.003285
_cell_angle_gamma	60.007024
loop_
_atom_site_label
_atom_site_type_symbol
_atom_site_fract_x
_atom_site_fract_y
_atom_site_fract_z
Zr1	Zr	0.469578	0.533360	-0.121457
O2	O	0.391773	0.635039	-0.269302
O3	O	0.493419	0.431690	-0.076123
O4	O	0.493432	0.533362	-0.269261
O5	O	0.391761	0.533364	0.076173
O6	O	0.573635	0.533352	-0.269242
O7	O	0.391760	0.533368	-0.076164
O8	O	0.573612	0.351481	0.076246
O9	O	0.391784	0.715235	-0.269315
O10	O	0.563454	0.473498	-0.056789
O11	O	0.503601	0.473502	0.056885
O12	O	0.503616	0.593207	-0.170510
O13	O	0.443763	0.593211	-0.056837
Zr14	Zr	0.597495	0.533338	0.121533
Zr15	Zr	0.597492	0.533345	-0.121427
Zr16	Zr	0.469580	0.533353	0.121503
Zr17	Zr	0.469597	0.661263	-0.121479
Zr18	Zr	0.597476	0.405435	0.121555
O19	O	0.573653	0.635008	0.076199
O20	O	0.573650	0.635018	-0.269259
O21	O	0.391776	0.635029	0.076156
O22	O	0.675300	0.431659	0.269378
O23	O	0.675297	0.431669	-0.076080
O24	O	0.493423	0.431680	0.269335
O25	O	0.675312	0.533335	-0.076097
O26	O	0.573640	0.533337	0.269337
O27	O	0.493438	0.533346	0.269318
O28	O	0.675313	0.533330	0.076240
O29	O	0.493459	0.715223	-0.269291
O30	O	0.573614	0.351475	0.269367
O31	O	0.675288	0.351463	0.269392
O32	O	0.675287	0.351469	0.076271
O33	O	0.391786	0.715230	-0.076195
O34	O	0.493461	0.715218	-0.076170
O35	O	0.563456	0.473492	0.170586
O36	O	0.623310	0.473488	0.056913
O37	O	0.563472	0.593197	-0.056809
O38	O	0.503618	0.593200	0.056865
C39	C	0.533513	0.373362	0.000065
C40	C	0.533505	0.319064	0.000074
C41	C	0.577721	0.040173	0.083985
C42	C	0.577715	0.091195	0.083989
O43	O	0.615296	0.080012	0.155356
N44	N	0.533531	0.160894	0.000051
C45	C	0.489352	0.179570	-0.083903
O46	O	0.451769	0.243540	-0.155299
C47	C	0.489360	0.128549	-0.083911
C48	C	0.533544	0.058850	0.000039
C49	C	0.621902	-0.029522	0.167927
C50	C	0.621907	-0.080541	0.167924
C51	C	0.577730	-0.061863	0.083978
C52	C	0.533549	0.007832	0.000035
C53	C	0.445184	0.147226	-0.167869
C54	C	0.445197	0.096197	-0.167871
C55	C	0.489381	0.026499	-0.083921
C56	C	0.489377	-0.024509	-0.083914
N57	N	0.533562	-0.094208	0.000024
C58	C	0.577739	-0.112885	0.083970
C59	C	0.489338	0.286716	-0.083881
C60	C	0.489326	0.337737	-0.083869
C61	C	0.577691	0.249358	0.084022
C62	C	0.577700	0.198336	0.084014
C63	C	0.533523	0.217017	0.000057
C64	C	0.577745	-0.220024	0.083956
C65	C	0.577744	-0.271043	0.083948
C66	C	0.489382	-0.182659	-0.083946
C67	C	0.489380	-0.131645	-0.083935
C68	C	0.533567	-0.150332	0.000022
O69	O	0.451818	-0.013378	-0.155247
O70	O	0.615320	-0.176854	0.155345
C71	C	0.373535	0.533368	-0.000000
C72	C	0.319232	0.533374	-0.000013
C73	C	0.013769	0.470851	0.059431
C74	C	-0.037249	0.470847	0.059441
O75	O	-0.037073	0.417705	0.109960
N76	N	-0.094001	0.533333	0.000078
C77	C	-0.099733	0.595827	-0.059289
O78	O	-0.152689	0.648976	-0.109780
C79	C	-0.048715	0.595830	-0.059292
C80	C	0.008036	0.533340	0.000065
C81	C	0.070518	0.408366	0.118784
C82	C	0.121533	0.408370	0.118772
C83	C	0.115799	0.470859	0.059407
C84	C	0.059051	0.533344	0.000053
C85	C	-0.054448	0.658323	-0.118652
C86	C	-0.003424	0.658321	-0.118648
C87	C	0.053327	0.595831	-0.059291
C88	C	0.104332	0.595837	-0.059324
N89	N	0.161083	0.533351	0.000039
C90	C	0.166817	0.470862	0.059404
C91	C	-0.206872	0.595816	-0.059277
C92	C	-0.257889	0.595814	-0.059282
C93	C	-0.195401	0.470833	0.059450
C94	C	-0.144383	0.470837	0.059447
C95	C	-0.150120	0.533330	0.000086
C96	C	0.273949	0.470876	0.059374
C97	C	0.324966	0.470885	0.059352
C98	C	0.262474	0.595865	-0.059374
C99	C	0.211462	0.595856	-0.059358
C100	C	0.217203	0.533356	0.000024
O101	O	0.104202	0.648953	-0.109814
O102	O	0.219775	0.417722	0.109899
C103	C	0.693537	0.533330	0.000076
C104	C	0.747840	0.533324	0.000089
C105	C	0.533533	0.533358	-0.303868
C106	C	0.533532	0.533361	-0.407011
C107	C	0.533560	0.693336	0.000011
C108	C	0.533568	0.747634	0.000002
C109	C	0.495610	0.608853	-0.625401
C110	C	0.495771	0.608904	-0.518170
C111	C	0.598565	0.495854	-0.410313
C112	C	0.598362	0.496333	-0.518082
C113	C	0.506960	0.494789	-0.516740
C114	C	0.505640	0.496212	-0.410771
C115	C	0.533539	0.533340	0.303944
C116	C	0.533540	0.533337	0.407087
C117	C	0.693514	0.373343	0.000103
C118	C	0.747809	0.319039	0.000125
C119	C	0.533516	0.373353	0.303971
C120	C	0.533509	0.319052	0.407123
C121	C	0.693517	0.373335	0.304009
C122	C	0.747813	0.319027	0.407174
C123	C	0.373556	0.693364	-0.303933
C124	C	0.319260	0.747671	-0.407098
C125	C	0.373559	0.693355	-0.000027
C126	C	0.319264	0.747660	-0.000049
C127	C	0.533557	0.693345	-0.303895
C128	C	0.533564	0.747646	-0.407047
C129	C	0.742063	0.293542	-0.059226
C130	C	0.793074	0.242524	-0.059228
C131	C	0.849831	0.217001	0.000128
C132	C	0.855576	0.242502	0.059481
C133	C	0.804565	0.293523	0.059475
C134	C	0.564750	0.293546	0.514925
C135	C	0.564741	0.242532	0.611857
C136	C	0.533495	0.217021	0.600983
C137	C	0.502250	0.242531	0.493169
C138	C	0.502256	0.293548	0.396240
C139	C	0.804559	0.293522	0.396285
C140	C	0.855581	0.242501	0.493210
C141	C	0.849855	0.216983	0.601023
C142	C	0.793103	0.242494	0.611910
C143	C	0.742083	0.293517	0.514986
C144	C	0.262514	0.773183	-0.396209
C145	C	0.211492	0.824219	-0.493134
C146	C	0.217218	0.849740	-0.600947
C147	C	0.273970	0.824226	-0.611833
C148	C	0.324990	0.773194	-0.514909
C149	C	0.325010	0.773162	0.059292
C150	C	0.273999	0.824193	0.059268
C151	C	0.217242	0.849719	-0.000092
C152	C	0.211497	0.824215	-0.059440
C153	C	0.262507	0.773187	-0.059422
C154	C	0.564816	0.773141	-0.396137
C155	C	0.564834	0.824156	-0.493050
C156	C	0.533596	0.849679	-0.600871
C157	C	0.502343	0.824178	-0.611779
C158	C	0.502329	0.773161	-0.514867
H159	H	0.613725	-0.327796	0.152315
Br160	Br	0.932594	0.207889	0.478408
Br161	Br	0.402031	0.738533	0.139858
H162	H	0.901794	0.221713	0.107806
Br163	Br	0.148019	0.918971	-0.000106
H164	H	0.613662	0.234158	0.152376
H165	H	0.476910	0.844967	-0.699581
Br166	Br	0.607148	0.207920	0.758161
H167	H	0.533613	0.891221	-0.679774
H168	H	0.788450	0.221710	0.699704
Br169	Br	-0.131457	0.743137	-0.199204
Br170	Br	0.254726	0.738557	-0.249903
Br171	Br	0.254698	0.738581	-0.139958
H172	H	0.278689	0.844950	0.107600
Br173	Br	0.785262	0.207925	-0.139781
H174	H	0.453412	-0.167463	-0.152289
H175	H	0.167738	0.357484	0.167102
H176	H	0.695879	0.314277	0.523867
H177	H	0.891362	0.175456	0.000124
H178	H	0.175669	0.891293	-0.679859
Br179	Br	0.459905	0.738572	-0.529694
Br180	Br	0.812375	0.328116	0.140038
H181	H	0.613726	-0.235249	0.152322
Br182	Br	0.134479	0.858833	-0.478332
H183	H	0.657888	-0.137289	0.236281
Br184	Br	0.919104	0.147737	0.732553
H185	H	0.657879	-0.044742	0.236288
H186	H	0.590194	0.314312	0.523801
H187	H	0.590254	0.752369	-0.308352
H188	H	0.533495	0.175479	0.679919
H189	H	0.613678	0.141587	0.152373
H190	H	0.476810	0.221752	0.484333
H191	H	0.165279	0.845006	-0.107769
Br192	Br	0.459856	0.328154	0.249940
H193	H	0.590284	0.844913	-0.484146
H194	H	-0.008102	0.709212	-0.166974
H195	H	0.453341	0.394486	-0.152217
H196	H	0.075197	0.357477	0.167132
Br197	Br	0.281730	0.858867	-0.758160
Br198	Br	0.812346	0.328145	0.249979
H199	H	0.453359	0.301936	-0.152248
H200	H	0.165252	0.646740	-0.107706
H201	H	0.409223	0.111416	-0.236243
Br202	Br	0.385214	0.241809	-0.281806
H203	H	0.453387	-0.074891	-0.152266
H204	H	0.371175	0.419996	0.107692
H205	H	0.278633	0.419982	0.107729
H206	H	-0.098177	0.419952	0.107791
Br207	Br	-0.187629	0.386026	0.140017
Br208	Br	-0.214666	0.680637	-0.139856
H209	H	0.447599	0.638494	-0.679370
H210	H	0.619993	0.521895	-0.408171
Br211	Br	0.402001	0.738574	-0.529708
H212	H	0.257816	0.646742	-0.107712
Br213	Br	0.415958	0.657888	-0.520825
Br214	Br	-0.334903	0.680625	-0.139861
Br215	Br	0.526496	0.658256	-0.522255
Br216	Br	0.526047	0.658010	-0.717051
H217	H	0.628158	0.440928	-0.491412
Br218	Br	0.633825	0.540747	-0.601998
H219	H	0.695853	0.314323	-0.107575
Br220	Br	0.647715	0.403274	-0.279837
H221	H	0.459798	0.518957	-0.566778
H222	H	0.457729	0.523560	-0.411306
H223	H	0.530394	0.441099	-0.331598
H224	H	0.534456	0.439159	-0.489276
