data_functionalizedCrystal
_audit_creation_method	'MofGen! by Chris Wilmer'
_symmetry_space_group_name_H-M	'P1'
_symmetry_Int_Tables_number	1
_symmetry_cell_setting	triclinic
loop_
_symmetry_equiv_pos_as_xyz
  x,y,z
_cell_length_a	20.299480
_cell_length_b	20.298645
_cell_length_c	20.294903
_cell_angle_alpha	60.007695
_cell_angle_beta	60.015306
_cell_angle_gamma	59.991039
loop_
_atom_site_label
_atom_site_type_symbol
_atom_site_fract_x
_atom_site_fract_y
_atom_site_fract_z
O1	O	0.091305	-0.962534	0.804873
O2	O	0.034397	-0.749399	0.648508
O3	O	0.169355	-0.884263	0.648401
O4	O	-0.043654	-0.827670	0.804979
O5	O	0.214132	-0.839502	0.693072
O6	O	0.079173	-0.704639	0.693178
O7	O	0.136081	-0.917774	0.849544
Zn8	Zn	0.114736	-0.804099	0.778453
Zn9	Zn	0.055742	-0.863073	0.719598
O10	O	0.001122	-0.782910	0.849650
N11	N	0.155000	-0.763857	0.818624
N12	N	0.015485	-0.903322	0.679427
C13	C	0.179343	-0.615641	0.842971
C14	C	0.179443	-0.739552	0.966834
C15	C	0.303264	-0.739536	0.842917
C16	C	0.179356	-0.739528	0.842952
C17	C	0.210353	-0.708565	0.873918
C18	C	-0.132622	-0.927446	0.654695
C19	C	-0.008595	-0.927622	0.530981
C20	C	-0.008820	-1.051459	0.654914
C21	C	-0.008800	-0.927618	0.654995
C22	C	-0.039709	-0.958538	0.623897
N23	N	0.376268	-0.763873	0.818558
O24	O	0.652281	-0.777347	0.619856
O25	O	0.652556	-0.934198	0.832777
O26	O	0.652445	-0.933836	0.697731
O27	O	0.652392	-0.777709	0.754902
O28	O	0.518259	-0.889182	0.742556
O29	O	0.518369	-0.889544	0.877602
O30	O	0.518095	-0.732693	0.664680
Zn31	Zn	0.496927	-0.804029	0.778258
Zn32	Zn	0.673724	-0.862862	0.719200
O33	O	0.518205	-0.733055	0.799726
N34	N	0.794383	-0.903019	0.678891
N35	N	0.154981	-0.542636	0.818657
O36	O	-0.043628	-0.266455	0.805024
O37	O	0.169291	-0.266451	0.648191
O38	O	0.034217	-0.266468	0.648577
O39	O	0.091446	-0.266438	0.804638
O40	O	0.078998	-0.400670	0.693303
O41	O	0.214071	-0.400653	0.692918
O42	O	0.001152	-0.400657	0.849750
Zn43	Zn	0.114722	-0.421963	0.778435
Zn44	Zn	0.055722	-0.245145	0.719506
O45	O	0.136226	-0.400640	0.849364
N46	N	0.015453	-0.124472	0.679286
N47	N	0.155155	-0.763898	1.039838
O48	O	0.141555	-0.962488	1.315987
O49	O	-0.015254	-0.749480	1.316022
O50	O	-0.014890	-0.884527	1.315962
O51	O	0.141192	-0.827441	1.316047
O52	O	0.029815	-0.839777	1.181768
O53	O	0.029452	-0.704730	1.181828
O54	O	0.186261	-0.917739	1.181793
Zn55	Zn	0.114954	-0.804130	1.160504
Zn56	Zn	0.056053	-0.863089	1.337311
O57	O	0.185897	-0.782692	1.181853
N58	N	0.015850	-0.903330	1.457977
C59	C	0.051451	-0.700162	0.649301
C60	C	0.218580	-0.867175	0.649169
C61	C	0.119026	-0.967011	0.848750
C62	C	-0.048103	-0.799998	0.848882
C63	C	0.585495	-0.933471	0.882014
C64	C	0.585361	-0.933023	0.714775
C65	C	0.585151	-0.733419	0.615444
C66	C	0.585291	-0.733869	0.782682
C67	C	0.218449	-0.333386	0.648902
C68	C	0.051232	-0.333573	0.649435
C69	C	-0.048061	-0.333556	0.848984
C70	C	0.119212	-0.333537	0.848507
C71	C	-0.014496	-0.700269	1.248929
C72	C	-0.014037	-0.867500	1.248828
C73	C	0.185503	-0.966949	1.248886
C74	C	0.185054	-0.799709	1.248957
H75	H	0.039295	-0.638935	0.600193
H76	H	0.585279	-0.684826	0.794916
H77	H	0.585062	-0.684173	0.554297
H78	H	-0.063051	-0.879692	1.248749
C79	C	-0.081005	-0.617629	1.248943
H80	H	-0.061521	-0.583735	1.248972
H81	H	-0.095675	-0.593476	1.202141
H82	H	-0.126849	-0.624693	1.295740
C83	C	0.301223	-0.883464	0.582738
H84	H	0.301351	-0.836752	0.535847
H85	H	0.342269	-0.896235	0.601261
H86	H	0.311025	-0.927449	0.570112
C87	C	0.252012	-1.049589	1.248871
H88	H	0.232525	-1.083486	1.248852
H89	H	0.297858	-1.042528	1.202082
H90	H	0.266676	-1.073744	1.295681
C91	C	0.135440	-1.049721	0.915093
H92	H	0.188853	-1.083521	0.895449
H93	H	0.129414	-1.042736	0.960960
H94	H	0.098183	-1.073940	0.929787
H95	H	0.131466	-0.333527	0.897533
C96	C	0.251301	-0.783215	1.248974
H97	H	0.231584	-0.729779	1.248981
H98	H	0.266012	-0.820445	1.295767
H99	H	0.297177	-0.789233	1.202168
C100	C	0.585386	-0.999284	0.698256
H101	H	0.585459	-1.046261	0.744882
H102	H	0.538568	-0.980667	0.685480
H103	H	0.632162	-1.011816	0.654219
H104	H	0.038975	-0.333574	0.600406
C105	C	-0.130750	-0.783708	0.915307
H106	H	-0.164604	-0.730294	0.895737
H107	H	-0.154932	-0.820995	0.930005
H108	H	-0.123700	-0.789773	0.961158
C109	C	-0.130663	-0.333557	0.915501
H110	H	-0.164584	-0.333559	0.896021
H111	H	-0.123570	-0.380352	0.961354
H112	H	-0.154804	-0.286747	0.930155
C113	C	0.300879	-0.332874	0.582216
H114	H	0.334760	-0.332756	0.601658
H115	H	0.325211	-0.379569	0.567336
H116	H	0.293517	-0.285966	0.536514
H117	H	0.585565	-0.982710	0.943168
