data_functionalizedCrystal
_audit_creation_method	'MofGen! by Chris Wilmer'
_symmetry_space_group_name_H-M	'P1'
_symmetry_Int_Tables_number	1
_symmetry_cell_setting	triclinic
loop_
_symmetry_equiv_pos_as_xyz
  x,y,z
_cell_length_a	16.120530
_cell_length_b	16.120507
_cell_length_c	16.120297
_cell_angle_alpha	95.611825
_cell_angle_beta	89.871860
_cell_angle_gamma	89.824460
loop_
_atom_site_label
_atom_site_type_symbol
_atom_site_fract_x
_atom_site_fract_y
_atom_site_fract_z
Zn1	Zn	1.224927	0.422262	0.554794
Zn2	Zn	1.724927	0.922262	1.054794
Zn3	Zn	1.224803	0.554945	0.422093
Zn4	Zn	1.724803	1.054945	0.922093
Zn5	Zn	1.093668	0.408178	0.408037
Zn6	Zn	1.593668	0.908178	0.908037
Zn7	Zn	1.078800	0.554178	0.554026
Zn8	Zn	1.578800	1.054178	1.054026
O9	O	1.155550	0.484891	0.484738
O10	O	1.655550	0.984891	0.984738
O11	O	1.340945	0.446078	0.543395
O12	O	1.840945	0.946078	1.043395
O13	O	1.213578	0.529903	0.303596
O14	O	1.713578	1.029903	0.803596
O15	O	1.117353	0.293416	0.421944
O16	O	1.617353	0.793416	0.921944
O17	O	1.340854	0.543560	0.445900
O18	O	1.840854	1.043560	0.945900
O19	O	1.213789	0.303764	0.529766
O20	O	1.713789	0.803764	1.029766
O21	O	1.117234	0.422074	0.293269
O22	O	1.617234	0.922074	0.793269
O23	O	0.975661	0.421330	0.421199
O24	O	1.475661	0.921330	0.921199
O25	O	1.092014	0.542252	0.670760
O26	O	1.592014	1.042252	1.170760
O27	O	0.964738	0.528595	0.528456
O28	O	1.464738	1.028595	1.028456
O29	O	1.199372	0.445334	0.671325
O30	O	1.699372	0.945334	1.171325
O31	O	1.199162	0.671474	0.445155
O32	O	1.699162	1.171474	0.945155
O33	O	1.091894	0.670910	0.542085
O34	O	1.591894	1.170910	1.042085
C35	C	0.940113	0.473351	0.473219
C36	C	1.440113	0.973351	0.973219
C37	C	0.847946	0.468436	0.468313
C38	C	1.347946	0.968436	0.968313
C39	C	0.679196	0.459442	0.459360
C40	C	1.179196	0.959442	0.959360
C41	C	0.632737	0.510404	0.510179
C42	C	1.132737	1.010404	1.010179
C43	C	0.538839	0.505400	0.505197
C44	C	1.038839	1.005400	1.005197
C45	C	0.773103	0.464445	0.464340
C46	C	1.273103	0.964445	0.964340
C47	C	1.143923	0.701435	0.495081
C48	C	1.643923	1.201435	0.995081
C49	C	1.139023	0.794078	0.499538
C50	C	1.639023	1.294078	0.999538
C51	C	1.181035	1.005235	0.461749
C52	C	1.681035	1.505235	0.961749
C53	C	1.130093	0.963695	0.507685
C54	C	1.630093	1.463695	1.007685
C55	C	1.135063	0.869312	0.503151
C56	C	1.635063	1.369312	1.003151
C57	C	1.176066	1.099627	0.466283
C58	C	1.676066	1.599627	0.966283
C59	C	1.371828	0.496476	0.496301
C60	C	1.871828	0.996476	0.996301
C61	C	1.463992	0.501413	0.501229
C62	C	1.963992	1.001413	1.001229
C63	C	1.144049	0.495278	0.702129
C64	C	1.644049	0.995278	1.202129
C65	C	1.139147	0.499705	0.794769
C66	C	1.639147	0.999705	1.294769
C67	C	1.167212	1.267501	0.474359
C68	C	1.667212	1.767501	0.974359
C69	C	1.172102	1.174857	0.469899
C70	C	1.672102	1.674857	0.969899
C71	C	1.167057	0.474486	0.268191
C72	C	1.667057	0.974486	0.768191
C73	C	1.172131	0.469833	0.175550
C74	C	1.672131	0.969833	0.675550
C75	C	1.130170	0.507767	0.964380
C76	C	1.630170	1.007767	1.464380
C77	C	1.181106	0.461774	1.005944
C78	C	1.681106	0.961774	1.505944
C79	C	1.176111	0.466259	1.100321
C80	C	1.676111	0.966259	1.600321
C81	C	1.135164	0.503282	0.869994
C82	C	1.635164	1.003282	1.369994
H83	H	0.663483	0.557791	0.557427
H84	H	1.163483	1.057791	1.057427
H85	H	0.648452	0.412058	0.412116
H86	H	1.148452	0.912058	0.912116
Br87	Br	1.051176	1.022562	0.578907
Br88	Br	1.551176	1.522562	1.078907
H89	H	1.228378	0.969917	0.419020
H90	H	1.728378	1.469917	0.919020
H91	H	1.228464	0.419028	0.970649
H92	H	1.728464	0.919028	1.470649
H93	H	1.082815	0.550509	0.999673
H94	H	1.582815	1.050509	1.499673
