data_functionalizedCrystal
_audit_creation_method	'MofGen! by Chris Wilmer'
_symmetry_space_group_name_H-M	'P1'
_symmetry_Int_Tables_number	1
_symmetry_cell_setting	triclinic
loop_
_symmetry_equiv_pos_as_xyz
  x,y,z
_cell_length_a	19.077105
_cell_length_b	13.897447
_cell_length_c	13.897449
_cell_angle_alpha	90.008998
_cell_angle_beta	92.303612
_cell_angle_gamma	87.715989
loop_
_atom_site_label
_atom_site_type_symbol
_atom_site_fract_x
_atom_site_fract_y
_atom_site_fract_z
Zn1	Zn	1.075917	-0.443531	0.604590
Zn2	Zn	1.409250	-0.110197	0.937924
Zn3	Zn	1.742584	0.223136	1.271257
Zn4	Zn	1.075866	-0.604792	0.443293
Zn5	Zn	1.409199	-0.271459	0.776626
Zn6	Zn	1.742533	0.061874	1.109959
Zn7	Zn	0.958246	-0.437024	0.436834
Zn8	Zn	1.291579	-0.103691	0.770168
Zn9	Zn	1.624912	0.229642	1.103501
Zn10	Zn	0.958198	-0.598291	0.598071
Zn11	Zn	1.291531	-0.264958	0.931404
Zn12	Zn	1.624865	0.068375	1.264737
O13	O	1.017057	-0.520910	0.520697
O14	O	1.350390	-0.187576	0.854030
O15	O	1.683723	0.145757	1.187364
O16	O	1.174401	-0.470366	0.588625
O17	O	1.507734	-0.137032	0.921959
O18	O	1.841067	0.196301	1.255292
O19	O	1.060262	-0.582535	0.307454
O20	O	1.393595	-0.249202	0.640788
O21	O	1.726929	0.084131	0.974121
O22	O	0.973896	-0.302908	0.459113
O23	O	1.307229	0.030425	0.792446
O24	O	1.640563	0.363759	1.125780
O25	O	1.174363	-0.588844	0.470121
O26	O	1.507697	-0.255511	0.803454
O27	O	1.841030	0.077823	1.136787
O28	O	1.060349	-0.307688	0.582363
O29	O	1.393682	0.025645	0.915696
O30	O	1.727015	0.358979	1.249029
O31	O	0.973847	-0.459277	0.302709
O32	O	1.307180	-0.125943	0.636043
O33	O	1.640513	0.207390	0.969376
O34	O	0.859749	-0.452973	0.452791
O35	O	1.193082	-0.119640	0.786124
O36	O	1.526416	0.213693	1.119458
O37	O	0.973815	-0.577764	0.733917
O38	O	1.307149	-0.244431	1.067251
O39	O	1.640482	0.088902	1.400584
O40	O	0.859714	-0.571455	0.571251
O41	O	1.193047	-0.238122	0.904584
O42	O	1.526381	0.095211	1.237917
O43	O	1.060303	-0.464062	0.738707
O44	O	1.393636	-0.130729	1.072041
O45	O	1.726969	0.202605	1.405374
O46	O	1.060216	-0.738909	0.463799
O47	O	1.393549	-0.405576	0.797132
O48	O	1.726883	-0.072243	1.130465
O49	O	0.973766	-0.734133	0.577513
O50	O	1.307099	-0.400800	0.910847
O51	O	1.640433	-0.067466	1.244180
C52	C	0.834194	-0.510804	0.510613
C53	C	1.167527	-0.177470	0.843947
C54	C	1.500861	0.155863	1.177280
C55	C	0.755964	-0.506503	0.506322
C56	C	1.089298	-0.173170	0.839655
C57	C	1.422631	0.160163	1.172989
C58	C	0.719212	-0.566263	0.565885
C59	C	1.052546	-0.232930	0.899218
C60	C	1.385879	0.100403	1.232552
C61	C	0.645707	-0.562210	0.561858
C62	C	0.979041	-0.228877	0.895191
C63	C	1.312374	0.104456	1.228524
C64	C	0.608956	-0.498401	0.498262
C65	C	0.942289	-0.165068	0.831596
C66	C	1.275623	0.168266	1.164929
C67	C	0.645713	-0.438635	0.438697
C68	C	0.979047	-0.105301	0.772030
C69	C	1.312380	0.228032	1.105364
C70	C	0.719217	-0.442684	0.442730
C71	C	1.052550	-0.109350	0.776063
C72	C	1.385883	0.223983	1.109396
C73	C	0.389124	-0.479662	0.479602
C74	C	0.722457	-0.146329	0.812936
C75	C	1.055790	0.187005	1.146269
C76	C	0.315615	-0.475619	0.475572
C77	C	0.648948	-0.142286	0.808905
C78	C	0.982282	0.191047	1.142239
C79	C	0.315614	-0.599194	0.598735
C80	C	0.648948	-0.265861	0.932068
C81	C	0.982281	0.067472	1.265401
C82	C	0.389119	-0.603242	0.602758
C83	C	0.722453	-0.269908	0.936091
C84	C	1.055786	0.063425	1.269424
C85	C	0.425870	-0.543472	0.543196
C86	C	0.759204	-0.210138	0.876529
C87	C	1.092537	0.123195	1.209863
N88	N	0.533822	-0.494259	0.494142
N89	N	0.867155	-0.160925	0.827475
N90	N	1.200489	0.172408	1.160809
N91	N	0.501003	-0.547610	0.547322
N92	N	0.834336	-0.214277	0.880655
N93	N	1.167669	0.119057	1.213988
C94	C	1.016999	-0.771521	0.520671
C95	C	1.350333	-0.438187	0.854005
C96	C	1.683666	-0.104854	1.187338
C97	C	1.017039	-0.878737	0.520696
C98	C	1.350373	-0.545404	0.854030
C99	C	1.683706	-0.212070	1.187363
C100	C	1.017073	-0.965809	0.520720
C101	C	1.350407	-0.632475	0.854054
C102	C	1.683740	-0.299142	1.187387
C103	C	1.017123	-1.075044	0.520748
C104	C	1.350456	-0.741710	0.854081
C105	C	1.683789	-0.408377	1.187414
C106	C	1.200633	-0.531056	0.530821
C107	C	1.533967	-0.197722	0.864154
C108	C	1.867300	0.135611	1.197487
C109	C	1.278863	-0.535380	0.535135
C110	C	1.612196	-0.202046	0.868468
C111	C	1.945530	0.131287	1.201802
C112	C	1.017059	-0.520914	0.772290
C113	C	1.350393	-0.187580	1.105623
C114	C	1.683726	0.145753	1.438957
C115	C	1.017060	-0.520916	0.879504
C116	C	1.350394	-0.187582	1.212837
C117	C	1.683727	0.145751	1.546171
C118	C	1.017133	-0.269321	0.520745
C119	C	1.350467	0.064013	0.854078
C120	C	1.683800	0.397346	1.187411
C121	C	1.017166	-0.162109	0.520765
C122	C	1.350499	0.171225	0.854098
C123	C	1.683833	0.504558	1.187432
C124	C	1.017043	-0.520919	1.075798
C125	C	1.350376	-0.187586	1.409132
C126	C	1.683709	0.145748	1.742465
C127	C	1.017050	-0.520920	0.966566
C128	C	1.350384	-0.187586	1.299899
C129	C	1.683717	0.145747	1.633233
C130	C	1.017047	-0.520925	1.270082
C131	C	1.350381	-0.187591	1.603415
C132	C	1.683714	0.145742	1.936749
C133	C	1.017042	-0.520917	1.162868
C134	C	1.350375	-0.187583	1.496201
C135	C	1.683708	0.145750	1.829535
H136	H	0.749130	-0.618227	0.617668
H137	H	1.082463	-0.284894	0.951001
H138	H	1.415797	0.048440	1.284335
H139	H	0.615787	-0.610874	0.610359
H140	H	0.949120	-0.277541	0.943692
H141	H	1.282454	0.055793	1.277026
H142	H	0.419037	-0.431000	0.431096
H143	H	0.752371	-0.097667	0.764429
H144	H	1.085704	0.235667	1.097763
H145	H	0.419037	-0.655204	0.654542
H146	H	0.752371	-0.321871	0.987875
H147	H	1.085704	0.011463	1.321208
C148	C	0.275183	-0.664930	0.664255
C149	C	0.608516	-0.331597	0.997588
C150	C	0.941849	0.001737	1.330922
N151	N	0.244729	-0.714441	0.713611
N152	N	0.578062	-0.381108	1.046944
N153	N	0.911396	-0.047775	1.380278
H154	H	0.285694	-0.423647	0.423791
H155	H	0.619027	-0.090314	0.757124
H156	H	0.952361	0.243019	1.090458
C157	C	0.605284	-0.368441	0.368743
C158	C	0.938617	-0.035108	0.702077
C159	C	1.271951	0.298225	1.035410
N160	N	0.574833	-0.315572	0.316051
N161	N	0.908167	0.017761	0.649384
N162	N	1.241500	0.351094	0.982717
C163	C	0.759644	-0.376945	0.377204
C164	C	1.092977	-0.043611	0.710537
C165	C	1.426310	0.289722	1.043870
N166	N	0.790092	-0.327426	0.327849
N167	N	1.123426	0.005907	0.661182
N168	N	1.456759	0.339240	0.994516
