data_functionalizedCrystal
_audit_creation_method	'MofGen! by Chris Wilmer'
_symmetry_space_group_name_H-M	'P1'
_symmetry_Int_Tables_number	1
_symmetry_cell_setting	triclinic
loop_
_symmetry_equiv_pos_as_xyz
  x,y,z
_cell_length_a	14.908742
_cell_length_b	14.908520
_cell_length_c	12.827885
_cell_angle_alpha	93.263516
_cell_angle_beta	93.281513
_cell_angle_gamma	89.837416
loop_
_atom_site_label
_atom_site_type_symbol
_atom_site_fract_x
_atom_site_fract_y
_atom_site_fract_z
Zn1	Zn	1.353922	-0.437199	-0.529381
Zn2	Zn	1.345135	-0.587576	-0.365266
Zn3	Zn	1.203559	-0.428571	-0.364145
Zn4	Zn	1.194857	-0.578842	-0.549444
O5	O	1.274369	-0.508047	-0.452059
O6	O	1.478576	-0.464413	-0.499683
O7	O	1.326319	-0.566528	-0.218886
O8	O	1.230824	-0.303893	-0.377199
O9	O	1.472120	-0.574894	-0.379108
O10	O	1.341296	-0.310232	-0.498596
O11	O	1.222304	-0.449708	-0.218063
O12	O	1.076585	-0.441239	-0.396654
O13	O	1.215993	-0.560008	-0.693013
O14	O	1.070192	-0.551642	-0.532792
O15	O	1.332857	-0.455944	-0.678273
O16	O	1.317881	-0.712239	-0.398563
O17	O	1.207473	-0.705822	-0.533878
C18	C	1.040765	-0.494557	-0.466779
C19	C	0.940827	-0.488808	-0.473102
C20	C	0.803321	-0.423284	-0.544895
C21	C	0.897222	-0.428678	-0.538958
C22	C	0.890525	-0.543548	-0.413181
C23	C	0.796624	-0.538154	-0.419118
C24	C	0.753025	-0.478019	-0.484976
C25	C	0.659123	-0.472621	-0.490907
C26	C	0.652428	-0.587494	-0.365135
C27	C	0.746329	-0.592889	-0.359199
C28	C	1.260804	-0.741657	-0.468540
C29	C	1.255083	-0.841601	-0.475621
C30	C	1.359420	-1.036034	-0.348122
C31	C	1.354047	-1.129940	-0.354772
C32	C	1.238971	-1.123322	-0.495572
C33	C	1.244344	-1.029415	-0.488923
C34	C	1.304569	-0.985775	-0.415195
C35	C	1.309936	-0.891866	-0.408541
C36	C	1.194865	-0.885250	-0.549346
C37	C	1.189493	-0.979157	-0.555996
C38	C	1.508884	-0.521590	-0.437282
C39	C	1.608821	-0.527361	-0.430985
C40	C	1.274435	-0.507964	-0.724619
C41	C	1.274463	-0.507929	-0.840768
C42	C	1.288011	-0.273526	-0.435535
C43	C	1.293824	-0.173588	-0.428493
C44	C	1.332298	-0.456424	-0.885258
C45	C	1.332328	-0.456386	-1.005304
C46	C	1.274358	-0.508067	-0.180551
C47	C	1.274519	-0.507859	-0.064374
H48	H	0.767823	-0.374311	-0.598509
Br49	Br	0.949709	-0.625165	-0.323824
Br50	Br	1.414868	-0.382895	-1.069111
H51	H	0.781839	-0.641851	-0.305581
Br52	Br	1.191961	-0.581374	-0.925402
Br53	Br	1.157259	-1.182565	-0.595641
H54	H	0.623627	-0.423652	-0.544527
Br55	Br	1.428496	-1.198147	-0.263746
Br56	Br	0.584165	-0.661774	-0.283801
H57	H	0.938169	-0.384108	-0.587751
Br58	Br	1.391663	-0.832639	-0.308477
H59	H	1.225005	-0.551960	-1.026093
Br60	Br	1.414767	-0.382942	-0.800624
Br61	Br	1.120404	-0.817036	-0.640362
Br62	Br	1.441134	-0.976801	-0.248047
Br63	Br	1.107768	-1.038392	-0.656056
