data_functionalizedCrystal
_audit_creation_method	'MofGen! by Chris Wilmer'
_symmetry_space_group_name_H-M	'P1'
_symmetry_Int_Tables_number	1
_symmetry_cell_setting	triclinic
loop_
_symmetry_equiv_pos_as_xyz
  x,y,z
_cell_length_a	16.109301
_cell_length_b	16.992695
_cell_length_c	14.586319
_cell_angle_alpha	89.995905
_cell_angle_beta	89.999213
_cell_angle_gamma	87.064852
loop_
_atom_site_label
_atom_site_type_symbol
_atom_site_fract_x
_atom_site_fract_y
_atom_site_fract_z
O1	O	1.109856	0.100784	-0.076183
O2	O	0.868631	0.113326	-0.076198
O3	O	0.988277	-0.007087	-0.076183
O4	O	0.990211	0.221197	-0.076198
O5	O	0.988268	-0.007089	0.076298
O6	O	0.868622	0.113324	0.076283
O7	O	1.109847	0.100782	0.076298
Cu8	Cu	0.989234	0.107053	0.090213
Cu9	Cu	0.989244	0.107055	-0.090113
O10	O	0.990202	0.221196	0.076283
C11	C	0.837618	0.112817	0.000041
C12	C	0.745221	0.111294	0.000035
C13	C	0.527480	0.179203	0.000042
C14	C	0.440664	0.177766	0.000048
C15	C	0.451005	0.034899	0.000053
C16	C	0.537819	0.036337	0.000054
C17	C	0.576055	0.108492	0.000043
C18	C	0.402424	0.105616	0.000049
C19	C	0.308294	0.104057	0.000055
C20	C	0.670191	0.110051	0.000039
C21	C	0.985784	-0.036300	0.000057
C22	C	0.978361	-0.123343	0.000056
C23	C	1.049987	-0.173601	0.000062
C24	C	1.043007	-0.255386	0.000052
C25	C	0.964400	-0.286911	0.000045
C26	C	0.892768	-0.236645	0.000037
C27	C	0.899749	-0.154862	0.000039
C28	C	0.935467	-0.530501	0.000030
C29	C	0.928491	-0.612291	0.000030
C30	C	1.078731	-0.631026	0.000045
C31	C	1.085704	-0.549240	0.000053
C32	C	1.014073	-0.498982	0.000040
N33	N	0.957263	-0.370508	0.000038
N34	N	1.021210	-0.415387	0.000040
C35	C	1.140860	0.101291	0.000057
C36	C	1.233257	0.102814	0.000057
C37	C	0.992694	0.250408	0.000041
C38	C	1.000118	0.337451	0.000036
N39	N	0.989232	0.107051	0.217045
N40	N	0.989252	0.107051	-0.216945
C41	C	1.042231	0.053750	0.452058
C42	C	1.042233	0.053748	0.548039
C43	C	0.936247	0.160355	0.548036
C44	C	0.936241	0.160352	0.452056
C45	C	0.989238	0.107051	0.404070
C46	C	0.989246	0.107051	0.596030
C47	C	0.989248	0.107050	0.700098
C48	C	0.989235	0.107051	0.299996
H49	H	0.419863	-0.023846	0.000067
O50	O	0.584887	-0.032429	0.000013
C51	C	0.585990	-0.174285	0.000075
C52	C	0.532587	-0.096472	0.000094
H53	H	0.543728	-0.226084	0.000159
H54	H	0.626876	-0.177234	-0.063752
H55	H	0.626910	-0.177139	0.063874
H56	H	0.491618	-0.093566	-0.063662
H57	H	0.491755	-0.093555	0.063963
O58	O	1.126410	-0.143112	0.000026
C59	C	1.274688	-0.170337	0.000082
C60	C	1.188189	-0.204966	0.000106
H61	H	1.324660	-0.220328	0.000165
H62	H	1.281770	-0.132541	-0.063746
H63	H	1.281669	-0.132494	0.063880
H64	H	1.181149	-0.242845	-0.063649
H65	H	1.181147	-0.242717	0.063976
H66	H	0.828765	-0.262319	0.000024
H67	H	0.893100	0.203753	0.587116
H68	H	0.401118	0.235347	0.000048
O69	O	1.093672	0.001866	0.594553
C70	C	1.133306	-0.134460	0.623968
C71	C	1.075012	-0.075787	0.571219
H72	H	1.118228	-0.197255	0.605136
H73	H	1.200585	-0.124288	0.605073
H74	H	1.124222	-0.125268	0.700806
H75	H	1.084022	-0.084945	0.494369
H76	H	1.007753	-0.085974	0.590190
O77	O	1.162084	-0.518661	-0.000102
C78	C	1.292658	-0.509693	-0.079049
C79	C	1.206176	-0.544358	-0.079006
H80	H	1.328338	-0.530468	-0.142825
H81	H	1.285399	-0.442603	-0.079103
H82	H	1.328285	-0.530389	-0.015202
H83	H	1.170502	-0.523722	-0.142841
H84	H	1.213494	-0.611443	-0.078903
H85	H	1.101332	-0.296304	0.000059
O86	O	0.884851	0.212242	0.405477
C87	C	0.845155	0.348566	0.376133
C88	C	0.903418	0.289894	0.428924
H89	H	0.860134	0.411361	0.395085
H90	H	0.854255	0.339475	0.299281
H91	H	0.777893	0.338291	0.395001
H92	H	0.970702	0.300134	0.410133
H93	H	0.894246	0.298999	0.505764
O94	O	0.564489	0.249359	0.000080
C95	C	0.545065	0.390911	0.000027
C96	C	0.503049	0.311513	0.000002
H97	H	0.495410	0.441183	-0.000056
H98	H	0.585424	0.395206	0.063855
H99	H	0.585477	0.395119	-0.063771
H100	H	0.462596	0.307252	0.063757
H101	H	0.462740	0.307252	-0.063868
O102	O	1.148284	-0.679879	-0.000114
C103	C	1.227575	-0.783114	-0.079085
C104	C	1.148778	-0.727821	-0.079025
H105	H	1.227991	-0.821901	-0.142868
H106	H	1.284985	-0.746574	-0.079140
H107	H	1.228053	-0.821841	-0.015245
H108	H	1.148218	-0.689082	-0.142854
H109	H	1.091403	-0.764408	-0.078922
H110	H	0.864477	-0.637954	0.000039
H111	H	0.877139	-0.489590	0.000020
H112	H	0.841423	-0.113942	0.000035
H113	H	1.085383	0.010347	0.412989
