data_functionalizedCrystal
_audit_creation_method	'MofGen! by Chris Wilmer'
_symmetry_space_group_name_H-M	'P1'
_symmetry_Int_Tables_number	1
_symmetry_cell_setting	triclinic
loop_
_symmetry_equiv_pos_as_xyz
  x,y,z
_cell_length_a	11.026607
_cell_length_b	9.198806
_cell_length_c	10.723023
_cell_angle_alpha	89.998149
_cell_angle_beta	83.473218
_cell_angle_gamma	90.003539
loop_
_atom_site_label
_atom_site_type_symbol
_atom_site_fract_x
_atom_site_fract_y
_atom_site_fract_z
O1	O	1.614519	0.120888	-0.523503
O2	O	2.114519	0.620888	-0.023503
O3	O	1.260717	0.120891	-0.463891
O4	O	1.760717	0.620891	0.036109
O5	O	1.445780	0.120884	-0.313882
O6	O	1.945780	0.620884	0.186118
O7	O	1.429457	0.120894	-0.673512
O8	O	1.929457	0.620894	-0.173512
O9	O	1.445765	-0.120901	-0.313879
O10	O	1.945765	0.379099	0.186121
O11	O	1.260702	-0.120895	-0.463888
O12	O	1.760702	0.379105	0.036112
O13	O	1.614504	-0.120897	-0.523499
O14	O	2.114504	0.379103	-0.023499
Cu15	Cu	1.437602	-0.142973	-0.493693
Cu16	Cu	1.937602	0.357027	0.006307
Cu17	Cu	1.437619	0.142966	-0.493697
Cu18	Cu	1.937619	0.642966	0.006303
O19	O	1.429442	-0.120891	-0.673508
O20	O	1.929442	0.379109	-0.173508
C21	C	1.215407	-0.000002	-0.452892
C22	C	1.715407	0.499998	0.047108
C23	C	1.080420	-0.000001	-0.420109
C24	C	1.580420	0.499999	0.079891
N25	N	1.437599	-0.344087	-0.493691
N26	N	1.937599	0.155913	0.006309
C27	C	1.444585	-0.000006	-0.267125
C28	C	1.944585	0.499994	0.232875
C29	C	1.441031	-0.000001	-0.127803
C30	C	1.941031	0.499999	0.372197
C31	C	1.007368	0.000003	-0.510629
C32	C	1.507368	0.500003	-0.010629
C33	C	0.867852	0.000004	-0.476748
C34	C	1.367852	0.500004	0.023252
C35	C	1.659814	-0.000002	-0.534498
C36	C	2.159814	0.499998	-0.034498
C37	C	1.794801	0.000007	-0.567281
C38	C	2.294801	0.500007	-0.067281
C39	C	1.515301	-0.416286	-0.430355
C40	C	2.015301	0.083714	0.069645
C41	C	1.515320	-0.583698	-0.430355
C42	C	2.015320	-0.083698	0.069645
N43	N	1.437632	0.344080	-0.493692
N44	N	1.937632	0.844080	0.006308
C45	C	1.430637	0.000003	-0.720266
C46	C	1.930637	0.500003	-0.220266
C47	C	1.434190	0.000007	-0.859587
C48	C	1.934190	0.500007	-0.359587
C49	C	1.439439	-0.125250	-0.065681
C50	C	1.939439	0.374750	0.434319
C51	C	1.435767	-0.125247	0.078314
C52	C	1.935767	0.374753	0.578314
H53	H	0.827112	0.000038	-0.374161
H54	H	1.327112	0.500038	0.125839
N55	N	1.603448	-0.665929	-0.358530
N56	N	2.103448	-0.165929	0.141470
H57	H	1.689931	-0.639493	-0.392114
H58	H	2.189931	-0.139493	0.107886
H59	H	1.590865	-0.773839	-0.368740
H60	H	2.090865	-0.273839	0.131260
H61	H	1.435549	0.107243	0.086999
H62	H	1.935549	0.607243	0.586999
N63	N	1.349501	-0.573710	-0.565529
N64	N	1.849501	-0.073710	-0.065529
H65	H	1.396621	-0.510546	-0.631192
H66	H	1.896621	-0.010546	-0.131192
H67	H	1.295194	-0.510656	-0.505645
H68	H	1.795194	-0.010656	-0.005645
H69	H	1.581808	-0.354162	-0.376124
H70	H	2.081808	0.145838	0.123876
H71	H	1.371084	-0.406213	-0.547910
H72	H	1.871084	0.093787	-0.047910
N73	N	1.441251	-0.267302	-0.136426
N74	N	1.941251	0.232698	0.363574
H75	H	1.443623	-0.247168	-0.229265
H76	H	1.943623	0.252832	0.270735
H77	H	1.365430	-0.324896	-0.106825
H78	H	1.865430	0.175104	0.393175
H79	H	1.039675	0.000034	-0.317529
H80	H	1.539675	0.500034	0.182471
H81	H	1.048113	-0.000003	-0.613209
H82	H	1.548113	0.499997	-0.113209
H83	H	1.439681	0.107232	-0.074384
H84	H	1.939681	0.607232	0.425616
N85	N	1.433954	-0.267296	0.149065
N86	N	1.933954	0.232704	0.649065
H87	H	1.431590	-0.247159	0.241901
H88	H	1.931590	0.252841	0.741901
H89	H	1.509773	-0.324879	0.119462
H90	H	2.009773	0.175121	0.619462
H91	H	0.835539	0.000000	-0.669869
H92	H	1.335539	0.500000	-0.169869
