data_functionalizedCrystal
_audit_creation_method	'MofGen! by Chris Wilmer'
_symmetry_space_group_name_H-M	'P1'
_symmetry_Int_Tables_number	1
_symmetry_cell_setting	triclinic
loop_
_symmetry_equiv_pos_as_xyz
  x,y,z
_cell_length_a	10.967916
_cell_length_b	10.967829
_cell_length_c	10.065875
_cell_angle_alpha	86.921207
_cell_angle_beta	86.879757
_cell_angle_gamma	92.751242
loop_
_atom_site_label
_atom_site_type_symbol
_atom_site_fract_x
_atom_site_fract_y
_atom_site_fract_z
O1	O	-1.622283	0.210052	0.218652
O2	O	-1.288950	0.543385	0.551986
O3	O	-0.955617	0.876718	0.885319
O4	O	-1.272393	0.213492	0.135550
O5	O	-0.939060	0.546825	0.468883
O6	O	-0.605726	0.880159	0.802217
O7	O	-1.449084	0.036852	0.218656
O8	O	-1.115751	0.370185	0.551990
O9	O	-0.782418	0.703519	0.885323
O10	O	-1.445592	0.386692	0.135546
O11	O	-1.112259	0.720025	0.468879
O12	O	-0.778925	1.053358	0.802213
O13	O	-1.415398	0.070676	0.429766
O14	O	-1.082065	0.404010	0.763099
O15	O	-0.748731	0.737343	1.096433
O16	O	-1.238707	0.247316	0.346660
O17	O	-0.905373	0.580650	0.679993
O18	O	-0.572040	0.913983	1.013327
O19	O	-1.588597	0.243876	0.429762
O20	O	-1.255264	0.577209	0.763095
O21	O	-0.921930	0.910543	1.096429
Zn22	Zn	-1.408303	0.250966	0.421729
Zn23	Zn	-1.074970	0.584300	0.755062
Zn24	Zn	-0.741637	0.917633	1.088396
Zn25	Zn	-1.452687	0.206401	0.143583
Zn26	Zn	-1.119353	0.539735	0.476916
Zn27	Zn	-0.786020	0.873068	0.810250
O28	O	-1.411906	0.420516	0.346656
O29	O	-1.078572	0.753849	0.679989
O30	O	-0.745239	1.087183	1.013323
C31	C	-1.210631	0.227598	0.231200
C32	C	-0.877297	0.560931	0.564534
C33	C	-0.543964	0.894265	0.897867
C34	C	-1.076786	0.219223	0.201690
C35	C	-0.743453	0.552556	0.535023
C36	C	-0.410119	0.885889	0.868357
C37	C	-0.999663	0.233011	0.297895
C38	C	-0.666330	0.566344	0.631228
C39	C	-0.332996	0.899678	0.964561
C40	C	-0.861327	0.224355	0.267397
C41	C	-0.527994	0.557688	0.600730
C42	C	-0.194660	0.891022	0.934064
C43	C	-1.429442	0.008851	0.334114
C44	C	-1.096109	0.342184	0.667448
C45	C	-0.762775	0.675518	1.000781
C46	C	-1.421087	-0.124977	0.363619
C47	C	-1.087753	0.208356	0.696953
C48	C	-0.754420	0.541689	1.030286
C49	C	-1.434812	-0.202158	0.267411
C50	C	-1.101479	0.131175	0.600744
C51	C	-0.768146	0.464509	0.934078
C52	C	-1.426177	-0.340477	0.297904
C53	C	-1.092844	-0.007143	0.631237
C54	C	-0.759510	0.326190	0.964570
C55	C	-0.650359	0.229770	0.334110
C56	C	-0.317026	0.563103	0.667444
C57	C	0.016307	0.896436	1.000777
C58	C	-0.784205	0.238145	0.363615
C59	C	-0.450872	0.571479	0.696949
C60	C	-0.117538	0.904812	1.030282
C61	C	-1.431548	0.448517	0.231195
C62	C	-1.098215	0.781850	0.564528
C63	C	-0.764882	1.115183	0.897862
C64	C	-1.439905	0.582343	0.201682
C65	C	-1.106572	0.915677	0.535015
C66	C	-0.773239	1.249010	0.868348
N67	N	-1.378022	0.281381	0.611559
N68	N	-1.044688	0.614714	0.944892
N69	N	-0.711355	0.948047	1.278225
N70	N	-1.482977	0.175978	-0.046242
N71	N	-1.149644	0.509312	0.287091
N72	N	-0.816311	0.842645	0.620424
C73	C	-1.442143	0.216975	0.709568
C74	C	-1.108809	0.550309	1.042901
C75	C	-0.775476	0.883642	1.376234
C76	C	-1.418847	0.240393	0.855748
C77	C	-1.085514	0.573726	1.189081
C78	C	-0.752180	0.907059	1.522414
H79	H	-0.820584	0.256355	0.468566
H80	H	-0.487251	0.589688	0.801900
H81	H	-0.153917	0.923022	1.135233
H82	H	-1.514282	0.144494	0.685259
H83	H	-1.180948	0.477828	1.018592
H84	H	-0.847615	0.811161	1.351926
Cl85	Cl	-1.393063	-0.181046	0.525644
Cl86	Cl	-1.059730	0.152287	0.858978
Cl87	Cl	-0.726397	0.485620	1.192311
Cl88	Cl	-1.307449	0.352292	0.893263
Cl89	Cl	-0.974116	0.685625	1.226596
Cl90	Cl	-0.640782	1.018958	1.559930
H91	H	-0.824947	0.206138	0.162448
H92	H	-0.491613	0.539471	0.495782
H93	H	-0.158280	0.872805	0.829115
Cl94	Cl	-1.594638	0.064340	0.916247
Cl95	Cl	-1.261305	0.397673	1.249580
Cl96	Cl	-0.927971	0.731007	1.582914
H97	H	-1.305874	0.353852	0.635869
H98	H	-0.972541	0.687186	0.969203
H99	H	-0.639207	1.020519	1.302536
H100	H	-1.036050	0.251217	0.402839
H101	H	-0.702717	0.584550	0.736172
H102	H	-0.369383	0.917883	1.069505
H103	H	-1.452951	-0.165834	0.162468
H104	H	-1.119618	0.167500	0.495801
H105	H	-0.786284	0.500833	0.829135
Cl106	Cl	-1.020621	0.191094	0.039664
Cl107	Cl	-0.687287	0.524427	0.372997
Cl108	Cl	-0.353954	0.857760	0.706331
H109	H	-1.408024	-0.376794	0.402850
H110	H	-1.074691	-0.043461	0.736184
H111	H	-0.741358	0.289872	1.069517
Cl112	Cl	-1.467874	-0.361592	0.039634
Cl113	Cl	-1.134540	-0.028259	0.372967
Cl114	Cl	-0.801207	0.305074	0.706301
