data_functionalizedCrystal
_audit_creation_method	'MofGen! by Chris Wilmer'
_symmetry_space_group_name_H-M	'P1'
_symmetry_Int_Tables_number	1
_symmetry_cell_setting	triclinic
loop_
_symmetry_equiv_pos_as_xyz
  x,y,z
_cell_length_a	12.759401
_cell_length_b	12.759394
_cell_length_c	12.759393
_cell_angle_alpha	89.969400
_cell_angle_beta	89.981504
_cell_angle_gamma	90.014017
loop_
_atom_site_label
_atom_site_type_symbol
_atom_site_fract_x
_atom_site_fract_y
_atom_site_fract_z
Zn1	Zn	1.606262	-0.418200	-0.593988
Zn2	Zn	1.606158	-0.593919	-0.418311
Zn3	Zn	1.430564	-0.418255	-0.418328
Zn4	Zn	1.430555	-0.593838	-0.593953
O5	O	1.518385	-0.506053	-0.506145
O6	O	1.753269	-0.441520	-0.570692
O7	O	1.582826	-0.570674	-0.271293
O8	O	1.453917	-0.271227	-0.441651
O9	O	1.753193	-0.570620	-0.441623
O10	O	1.583002	-0.271186	-0.570708
O11	O	1.453817	-0.441614	-0.271305
O12	O	1.283541	-0.441536	-0.441617
O13	O	1.453902	-0.570482	-0.740979
O14	O	1.283535	-0.570536	-0.570648
O15	O	1.582993	-0.441442	-0.741005
O16	O	1.582817	-0.740929	-0.441589
O17	O	1.453802	-0.740870	-0.570632
C18	C	1.245417	-0.506034	-0.506131
C19	C	1.128641	-0.506051	-0.506150
C20	C	1.073803	-0.573329	-0.573225
C21	C	0.964079	-0.573342	-0.573236
C22	C	0.964040	-0.438796	-0.439088
C23	C	1.073762	-0.438779	-0.439083
C24	C	1.073824	-0.651011	-0.650671
C25	C	0.964100	-0.651024	-0.650683
C26	C	1.518326	-0.779021	-0.506128
C27	C	1.518397	-0.895797	-0.506156
C28	C	1.652713	-0.895597	-0.640643
C29	C	1.719903	-0.950358	-0.707895
C30	C	1.719966	-1.060079	-0.707918
C31	C	1.652828	-1.115043	-0.640684
C32	C	1.585637	-1.060282	-0.573432
C33	C	1.585584	-0.950558	-0.573414
C34	C	1.451318	-1.060482	-0.438951
C35	C	1.451260	-0.950761	-0.438921
C36	C	1.384181	-1.115446	-0.371717
C37	C	1.316994	-1.060685	-0.304458
C38	C	1.316935	-0.950957	-0.304437
C39	C	1.384069	-0.896000	-0.371669
C40	C	1.792418	-0.506073	-0.506160
C41	C	1.909194	-0.506082	-0.506166
C42	C	1.518458	-0.505947	-0.780179
C43	C	1.518489	-0.505902	-0.896955
C44	C	1.518472	-0.232020	-0.506186
C45	C	1.518509	-0.115243	-0.506203
C46	C	1.585716	-0.438704	-0.951833
C47	C	1.585741	-0.438666	-1.061557
C48	C	1.451310	-0.573033	-1.061517
C49	C	1.451280	-0.573065	-0.951795
C50	C	1.663333	-0.361132	-0.951857
C51	C	1.663358	-0.361094	-1.061581
C52	C	1.518372	-0.506083	-0.233178
C53	C	1.518544	-0.505832	-0.116402
H54	H	0.930102	-0.621980	-0.728034
F55	F	1.245541	-1.119186	-0.232919
F56	F	1.652642	-0.778821	-0.640635
H57	H	1.396534	-0.627780	-0.907118
H58	H	1.118407	-0.383988	-0.384471
H59	H	0.934306	-0.732374	-0.628752
F60	F	1.112790	-0.622650	-0.757073
H61	H	1.774564	-0.905597	-0.762639
H62	H	1.107839	-0.728263	-0.621388
H63	H	1.774667	-1.104665	-0.762691
H64	H	1.262216	-0.906376	-0.249677
F65	F	1.653014	-1.231818	-0.640595
F66	F	1.769716	-0.389565	-1.100509
H67	H	1.384232	-1.204787	-0.371744
H68	H	1.384032	-0.806659	-0.371655
F69	F	1.379784	-0.644508	-1.119890
F70	F	1.634878	-0.254785	-0.912957
F71	F	1.764333	-0.399252	-0.907364
F72	F	1.625185	-0.260093	-1.106088
H73	H	0.919345	-0.384025	-0.384486
