data_functionalizedCrystal
_audit_creation_method	'MofGen! by Chris Wilmer'
_symmetry_space_group_name_H-M	'P1'
_symmetry_Int_Tables_number	1
_symmetry_cell_setting	triclinic
loop_
_symmetry_equiv_pos_as_xyz
  x,y,z
_cell_length_a	14.853567
_cell_length_b	15.021413
_cell_length_c	14.853567
_cell_angle_alpha	89.992183
_cell_angle_beta	83.634930
_cell_angle_gamma	90.004355
loop_
_atom_site_label
_atom_site_type_symbol
_atom_site_fract_x
_atom_site_fract_y
_atom_site_fract_z
O1	O	1.196370	0.073963	0.117692
O2	O	0.933910	0.073977	0.131714
O3	O	1.072151	0.073972	-0.006527
O4	O	1.058129	0.073968	0.255933
O5	O	1.072129	-0.074092	-0.006507
O6	O	0.933888	-0.074087	0.131733
O7	O	1.196348	-0.074101	0.117712
Zn8	Zn	1.065115	-0.097602	0.124726
Zn9	Zn	1.065144	0.097479	0.124700
O10	O	1.058107	-0.074096	0.255952
C11	C	0.900311	-0.000053	0.131088
C12	C	0.800227	-0.000047	0.129184
N13	N	1.065101	-0.230740	0.124743
C14	C	0.387693	-0.000065	0.039019
C15	C	0.366412	-0.000067	0.203251
C16	C	0.460446	-0.000065	0.205042
C17	C	0.518108	-0.000061	0.123819
C18	C	0.481736	-0.000060	0.040806
C19	C	0.496825	-0.000056	0.288053
C20	C	0.590864	-0.000053	0.289846
C21	C	0.648528	-0.000055	0.208623
C22	C	0.612150	-0.000055	0.125607
C23	C	0.669812	-0.000052	0.044384
C24	C	0.633437	-0.000058	-0.038633
C25	C	0.539399	-0.000062	-0.040417
C26	C	0.742565	-0.000051	0.210407
C27	C	0.763855	-0.000046	0.046172
C28	C	1.001169	-0.470421	0.188635
C29	C	1.082654	-0.529761	0.206235
C30	C	1.065124	-0.412347	0.124720
C31	C	0.983661	-0.529749	0.107141
C32	C	1.065139	-0.587771	0.124701
C33	C	1.146651	-0.470380	0.142361
C34	C	1.047604	-0.470363	0.043231
C35	C	1.129148	-0.529676	0.060796
C36	C	1.065114	-0.311290	0.124734
C37	C	1.065159	-0.688826	0.124686
C38	C	1.229947	-0.000069	0.118337
C39	C	1.330031	-0.000069	0.120241
C40	C	1.071504	-0.000057	-0.040106
C41	C	1.069601	-0.000049	-0.140189
N42	N	1.065164	0.230616	0.124675
C43	C	0.979435	-0.000061	-0.552723
C44	C	1.143668	-0.000070	-0.574004
C45	C	1.145458	-0.000065	-0.479971
C46	C	1.064235	-0.000059	-0.422309
C47	C	0.981223	-0.000059	-0.458680
C48	C	1.228469	-0.000075	-0.443591
C49	C	1.230262	-0.000070	-0.349552
C50	C	1.149039	-0.000058	-0.291889
C51	C	1.066023	-0.000057	-0.328266
C52	C	0.984800	-0.000051	-0.270604
C53	C	0.901783	-0.000043	-0.306979
C54	C	0.899999	-0.000047	-0.401017
C55	C	1.150823	-0.000055	-0.197851
C56	C	0.986588	-0.000049	-0.176561
C57	C	1.058754	-0.000065	0.289531
C58	C	1.060657	-0.000067	0.389615
H59	H	0.810798	-0.000046	-0.019971
H60	H	1.218414	-0.000067	-0.168238
C61	C	0.434373	-0.000008	0.376330
C62	C	0.486353	0.000026	0.449412
C63	C	0.428848	0.000084	0.530750
H64	H	0.397224	-0.051630	0.379185
H65	H	0.397261	0.051643	0.379080
H66	H	0.523449	-0.051620	0.446663
H67	H	0.523499	0.051644	0.446587
H68	H	0.391737	0.051735	0.533500
H69	H	0.391703	-0.051539	0.533596
H70	H	0.464108	0.000115	0.580346
C71	C	0.891884	-0.564643	0.087186
C72	C	0.902588	-0.615877	0.007984
C73	C	0.818063	-0.648042	-0.010411
H74	H	0.852692	-0.515978	0.079276
H75	H	0.866483	-0.600391	0.136343
H76	H	0.927975	-0.580131	-0.041161
H77	H	0.941763	-0.664556	0.015874
H78	H	0.792662	-0.683790	0.038746
H79	H	0.778877	-0.599371	-0.018317
H80	H	0.825315	-0.682814	-0.064146
C81	C	1.320418	0.000113	-0.310115
C82	C	1.369522	0.076297	-0.339413
C83	C	1.452573	0.076505	-0.303091
H84	H	1.353968	-0.051462	-0.329863
H85	H	1.309893	0.000167	-0.245848
H86	H	1.380051	0.076235	-0.403666
H87	H	1.336000	0.127884	-0.319666
H88	H	1.442047	0.076559	-0.238824
H89	H	1.486115	0.024927	-0.322842
H90	H	1.485897	0.128199	-0.322958
H91	H	1.215564	-0.444411	0.157304
H92	H	0.680397	-0.000049	-0.104764
H93	H	1.209795	-0.000082	-0.620958
C94	C	0.813532	0.000102	-0.244476
C95	C	0.763557	0.076272	-0.260947
C96	C	0.682253	0.076430	-0.203391
H97	H	0.826364	0.000144	-0.183233
H98	H	0.779437	-0.051501	-0.255516
H99	H	0.797645	0.127861	-0.249899
H100	H	0.750700	0.076246	-0.322179
H101	H	0.648158	0.024827	-0.214432
H102	H	0.695095	0.076470	-0.142151
H103	H	0.648331	0.128106	-0.214565
H104	H	0.947139	-0.444404	0.242730
C105	C	0.630396	0.000143	0.379952
C106	C	0.683743	0.076335	0.385773
C107	C	0.720163	0.076554	0.468772
H108	H	0.666698	-0.051427	0.384172
H109	H	0.582606	0.000193	0.428089
H110	H	0.731527	0.076277	0.337649
H111	H	0.647462	0.127916	0.381569
H112	H	0.672372	0.076604	0.516910
H113	H	0.756460	0.024981	0.472985
H114	H	0.756355	0.128253	0.472736
H115	H	1.294596	-0.000087	-0.490546
H116	H	0.920445	-0.000040	-0.129618
H117	H	0.911844	-0.000051	-0.582344
H118	H	1.183298	-0.555530	0.006734
C119	C	1.027923	-0.435661	-0.048702
C120	C	1.094124	-0.467005	-0.115631
C121	C	1.076006	-0.435062	-0.200331
H122	H	1.028640	-0.372431	-0.048312
H123	H	0.970009	-0.455978	-0.061155
H124	H	1.152023	-0.446684	-0.103182
H125	H	1.093418	-0.530231	-0.116051
H126	H	1.018091	-0.455379	-0.212784
H127	H	1.076722	-0.371833	-0.199931
H128	H	1.120914	-0.456331	-0.245753
H129	H	0.509774	-0.000089	-0.108005
H130	H	0.832411	-0.000041	-0.430643
H131	H	1.097487	-0.555850	0.275140
H132	H	0.358072	-0.000074	-0.028572
H133	H	0.319459	-0.000063	0.269379
H134	H	0.772178	-0.000047	0.277998
