data_functionalizedCrystal
_audit_creation_method	'MofGen! by Chris Wilmer'
_symmetry_space_group_name_H-M	'P1'
_symmetry_Int_Tables_number	1
_symmetry_cell_setting	triclinic
loop_
_symmetry_equiv_pos_as_xyz
  x,y,z
_cell_length_a	14.044220
_cell_length_b	19.188930
_cell_length_c	13.101039
_cell_angle_alpha	93.345801
_cell_angle_beta	86.340132
_cell_angle_gamma	88.166830
loop_
_atom_site_label
_atom_site_type_symbol
_atom_site_fract_x
_atom_site_fract_y
_atom_site_fract_z
O1	O	1.262233	0.164759	-0.085127
O2	O	1.595566	0.498092	0.248206
O3	O	1.928899	0.831425	0.581540
O4	O	0.986290	0.158685	-0.085152
O5	O	1.319624	0.492018	0.248181
O6	O	1.652957	0.825352	0.581514
O7	O	1.132223	0.060581	-0.085119
O8	O	1.465557	0.393914	0.248214
O9	O	1.798890	0.727248	0.581548
O10	O	1.116300	0.262863	-0.085160
O11	O	1.449633	0.596196	0.248173
O12	O	1.782966	0.929530	0.581506
O13	O	1.121753	0.067633	0.085309
O14	O	1.455086	0.400966	0.418642
O15	O	1.788419	0.734299	0.751975
O16	O	0.975820	0.165737	0.085275
O17	O	1.309153	0.499070	0.418609
O18	O	1.642486	0.832403	0.751942
O19	O	1.251762	0.171810	0.085300
O20	O	1.585095	0.505144	0.418634
O21	O	1.918429	0.838477	0.751967
Zn22	Zn	1.112128	0.169893	0.112347
Zn23	Zn	1.445462	0.503226	0.445680
Zn24	Zn	1.778795	0.836560	0.779014
Zn25	Zn	1.125924	0.160602	-0.112199
Zn26	Zn	1.459257	0.493936	0.221135
Zn27	Zn	1.792591	0.827269	0.554468
O28	O	1.105829	0.269914	0.085267
O29	O	1.439162	0.603248	0.418600
O30	O	1.772496	0.936581	0.751934
C31	C	0.945752	0.159553	0.000059
C32	C	1.279085	0.492886	0.333392
C33	C	1.612418	0.826219	0.666725
C34	C	0.840559	0.151623	0.000050
C35	C	1.173893	0.484957	0.333383
C36	C	1.507226	0.818290	0.666717
C37	C	0.647957	0.137129	0.000073
C38	C	0.981290	0.470462	0.333407
C39	C	1.314623	0.803796	0.666740
C40	C	0.590091	0.193363	0.000066
C41	C	0.923424	0.526696	0.333399
C42	C	1.256757	0.860030	0.666733
C43	C	0.482920	0.185298	0.000079
C44	C	0.816253	0.518631	0.333412
C45	C	1.149587	0.851965	0.666746
C46	C	0.755137	0.145193	0.000060
C47	C	1.088471	0.478526	0.333394
C48	C	1.421804	0.811859	0.666727
C49	C	1.126472	0.038063	0.000098
C50	C	1.459805	0.371396	0.333431
C51	C	1.793139	0.704729	0.666764
C52	C	1.124923	-0.039541	0.000106
C53	C	1.458257	0.293792	0.333440
C54	C	1.791590	0.627125	0.666773
C55	C	1.210553	-0.078939	0.000119
C56	C	1.543886	0.254394	0.333452
C57	C	1.877219	0.587728	0.666786
C58	C	1.209099	-0.151857	0.000103
C59	C	1.542432	0.181476	0.333436
C60	C	1.875766	0.514809	0.666769
C61	C	1.122010	-0.185374	0.000094
C62	C	1.455344	0.147959	0.333427
C63	C	1.788677	0.481292	0.666761
C64	C	1.036370	-0.145968	0.000075
C65	C	1.369703	0.187366	0.333409
C66	C	1.703037	0.520699	0.666742
C67	C	1.037827	-0.073051	0.000082
C68	C	1.371160	0.260282	0.333415
C69	C	1.704493	0.593615	0.666748
N70	N	1.051878	-0.295275	0.058088
N71	N	1.385211	0.038058	0.391421
N72	N	1.718544	0.371391	0.724754
N73	N	1.050500	-0.364543	0.058084
N74	N	1.383833	-0.031210	0.391417
N75	N	1.717167	0.302123	0.724750
C76	C	1.117617	-0.405067	0.000073
C77	C	1.450950	-0.071734	0.333406
C78	C	1.784283	0.261599	0.666739
N79	N	1.186177	-0.373707	-0.057921
N80	N	1.519510	-0.040374	0.275412
N81	N	1.852844	0.292960	0.608745
N82	N	1.187558	-0.304433	-0.057913
N83	N	1.520891	0.028900	0.275420
N84	N	1.854224	0.362234	0.608754
C85	C	1.120421	-0.264440	0.000086
C86	C	1.453755	0.068894	0.333420
C87	C	1.787088	0.402227	0.666753
C88	C	1.201676	-0.523532	0.000066
C89	C	1.535009	-0.190198	0.333399
C90	C	1.868342	0.143135	0.666733
C91	C	1.200219	-0.596452	0.000043
C92	C	1.533552	-0.263118	0.333377
C93	C	1.866886	0.070215	0.666710
C94	C	1.027487	-0.590560	0.000026
C95	C	1.360820	-0.257227	0.333360
C96	C	1.694154	0.076107	0.666693
C97	C	1.028947	-0.517642	0.000039
C98	C	1.362280	-0.184309	0.333372
C99	C	1.695613	0.149025	0.666706
C100	C	1.116043	-0.484132	0.000064
C101	C	1.449377	-0.150799	0.333397
C102	C	1.782710	0.182534	0.666730
C103	C	1.292301	0.170943	0.000087
C104	C	1.625634	0.504276	0.333421
C105	C	1.958967	0.837609	0.666754
C106	C	1.397494	0.178872	0.000089
C107	C	1.730827	0.512205	0.333423
C108	C	2.064160	0.845538	0.666756
C109	C	1.111580	0.292433	0.000048
C110	C	1.444914	0.625766	0.333382
C111	C	1.778247	0.959099	0.666715
C112	C	1.113129	0.370037	0.000033
C113	C	1.446463	0.703370	0.333366
C114	C	1.779796	1.036703	0.666699
N115	N	1.102720	0.176234	0.265593
N116	N	1.436054	0.509567	0.598927
N117	N	1.769387	0.842900	0.932260
N118	N	1.135340	0.154257	-0.265445
N119	N	1.468673	0.487590	0.067888
N120	N	1.802006	0.820923	0.401222
C121	C	1.089920	0.184867	0.474633
C122	C	1.423254	0.518200	0.807966
C123	C	1.756587	0.851534	1.141300
C124	C	1.148137	0.145626	0.525522
C125	C	1.481470	0.478959	0.858855
C126	C	1.814803	0.812292	1.192189
C127	C	1.141014	0.150429	0.641839
C128	C	1.474348	0.483762	0.975172
C129	C	1.807681	0.817096	1.308505
C130	C	1.097041	0.180064	0.358306
C131	C	1.430374	0.513398	0.691639
C132	C	1.763708	0.846731	1.024972
H133	H	0.617011	0.082932	0.000090
H134	H	0.950344	0.416266	0.333423
H135	H	1.283678	0.749599	0.666757
H136	H	0.621038	0.247564	0.000050
H137	H	0.954371	0.580897	0.333383
H138	H	1.287705	0.914231	0.666717
C139	C	0.934752	-0.474302	0.000042
C140	C	1.268086	-0.140969	0.333376
C141	C	1.601419	0.192365	0.666709
H142	H	0.882675	-0.504704	0.000044
H143	H	1.216009	-0.171371	0.333377
H144	H	1.549342	0.161962	0.666710
H145	H	0.935378	-0.448183	-0.059385
H146	H	1.268712	-0.114850	0.273949
H147	H	1.602045	0.218483	0.607282
H148	H	0.928083	-0.443286	0.059486
H149	H	1.261416	-0.109953	0.392820
H150	H	1.594749	0.223381	0.726153
C151	C	1.294414	-0.639793	0.000045
C152	C	1.627748	-0.306460	0.333379
C153	C	1.961081	0.026874	0.666712
H154	H	1.281076	-0.688020	0.000023
H155	H	1.614409	-0.354687	0.333356
H156	H	1.947743	-0.021353	0.666689
H157	H	1.326489	-0.626607	0.059483
H158	H	1.659822	-0.293274	0.392816
H159	H	1.993155	0.040060	0.726149
H160	H	1.333787	-0.631499	-0.059389
H161	H	1.667120	-0.298166	0.273945
H162	H	2.000454	0.035167	0.607278
C163	C	1.306356	-0.042083	0.000128
C164	C	1.639689	0.291251	0.333461
C165	C	1.973022	0.624584	0.666795
H166	H	1.357146	-0.075995	0.000123
H167	H	1.690480	0.257339	0.333456
H168	H	2.023813	0.590672	0.666790
H169	H	1.306868	-0.011306	0.059559
H170	H	1.640202	0.322028	0.392892
H171	H	1.973535	0.655361	0.726225
H172	H	1.314164	-0.016217	-0.059312
H173	H	1.647497	0.317117	0.274021
H174	H	1.980830	0.650450	0.607354
C175	C	1.303294	-0.195203	0.000124
C176	C	1.636627	0.138130	0.333457
C177	C	1.969961	0.471463	0.666791
H178	H	1.355372	-0.164802	0.000146
H179	H	1.688706	0.168531	0.333479
H180	H	2.022039	0.501865	0.666812
H181	H	1.309973	-0.226225	-0.059306
H182	H	1.643307	0.107109	0.274027
H183	H	1.976640	0.440442	0.607360
H184	H	1.302652	-0.221315	0.059565
H185	H	1.635986	0.112018	0.392898
H186	H	1.969319	0.445352	0.726231
C187	C	0.940575	-0.182833	0.000070
C188	C	1.273908	0.150500	0.333403
C189	C	1.607242	0.483834	0.666736
H190	H	0.951970	-0.231902	0.000079
H191	H	1.285303	0.101431	0.333412
H192	H	1.618637	0.434765	0.666745
H193	H	0.908979	-0.172127	-0.059365
H194	H	1.242312	0.161207	0.273968
H195	H	1.575645	0.494540	0.607302
H196	H	0.901679	-0.167220	0.059506
H197	H	1.235012	0.166114	0.392840
H198	H	1.568346	0.499447	0.726173
H199	H	0.968095	-0.040974	0.000072
H200	H	1.301428	0.292360	0.333405
H201	H	1.634761	0.625693	0.666738
H202	H	1.203327	0.108423	0.481732
H203	H	1.536660	0.441756	0.815066
H204	H	1.869993	0.775090	1.148399
C205	C	1.297477	-0.486668	0.000082
C206	C	1.630810	-0.153335	0.333415
C207	C	1.964143	0.179998	0.666748
H208	H	1.348269	-0.520579	0.000072
H209	H	1.681602	-0.187246	0.333405
H210	H	2.014936	0.146087	0.666738
H211	H	1.297985	-0.455897	0.059518
H212	H	1.631319	-0.122563	0.392851
H213	H	1.964652	0.210770	0.726185
H214	H	1.305285	-0.460796	-0.059353
H215	H	1.638618	-0.127463	0.273980
H216	H	1.971951	0.205871	0.607314
C217	C	0.931691	-0.627420	0.000014
C218	C	1.265024	-0.294087	0.333347
C219	C	1.598358	0.039247	0.666680
H220	H	0.943086	-0.676489	0.000016
H221	H	1.276419	-0.343156	0.333349
H222	H	1.609752	-0.009823	0.666683
H223	H	0.900096	-0.616709	-0.059420
H224	H	1.233430	-0.283376	0.273913
H225	H	1.566763	0.049957	0.607247
H226	H	0.892794	-0.611810	0.059451
H227	H	1.226127	-0.278477	0.392784
H228	H	1.559460	0.054857	0.726118
H229	H	1.034735	0.222068	0.518417
H230	H	1.368068	0.555402	0.851751
H231	H	1.701402	0.888735	1.185084
