data_functionalizedCrystal
_audit_creation_method	'MofGen! by Chris Wilmer'
_symmetry_space_group_name_H-M	'P1'
_symmetry_Int_Tables_number	1
_symmetry_cell_setting	triclinic
loop_
_symmetry_equiv_pos_as_xyz
  x,y,z
_cell_length_a	23.532407
_cell_length_b	23.532407
_cell_length_c	8.140239
_cell_angle_alpha	89.991844
_cell_angle_beta	89.999964
_cell_angle_gamma	82.848712
loop_
_atom_site_label
_atom_site_type_symbol
_atom_site_fract_x
_atom_site_fract_y
_atom_site_fract_z
O1	O	0.755258	0.069134	-0.136526
O2	O	1.255258	0.569134	0.363474
O3	O	0.589395	0.079138	-0.136555
O4	O	1.089395	0.579138	0.363445
O5	O	0.677328	-0.008796	-0.136510
O6	O	1.177328	0.491204	0.363490
O7	O	0.667325	0.157068	-0.136571
O8	O	1.167325	0.657068	0.363429
O9	O	0.677323	-0.008797	0.136718
O10	O	1.177323	0.491203	0.636718
O11	O	0.589390	0.079137	0.136672
O12	O	1.089390	0.579137	0.636672
O13	O	0.755253	0.069133	0.136701
O14	O	1.255253	0.569133	0.636701
Zn15	Zn	0.672321	0.074135	0.180067
Zn16	Zn	1.172321	0.574135	0.680067
Zn17	Zn	0.672327	0.074136	-0.179921
Zn18	Zn	1.172327	0.574136	0.320079
O19	O	0.667320	0.157067	0.136656
O20	O	1.167320	0.657067	0.636656
C21	C	0.568176	0.078882	0.000056
C22	C	1.068176	0.578882	0.500056
C23	C	0.504959	0.078116	0.000046
C24	C	1.004959	0.578116	0.500046
C25	C	0.238792	0.022921	0.000112
C26	C	0.738792	0.522921	0.500112
C27	C	0.298192	0.023632	0.000111
C28	C	0.798192	0.523632	0.500111
O29	O	0.334937	-0.020153	0.000184
O30	O	0.834937	0.479847	0.500184
N31	N	0.320818	0.075909	0.000080
N32	N	0.820818	0.575909	0.500080
C33	C	0.284041	0.127477	0.000067
C34	C	0.784041	0.627477	0.500067
O35	O	0.308740	0.172007	0.000042
O36	O	0.808740	0.672007	0.500042
C37	C	0.224642	0.126765	0.000079
C38	C	0.724642	0.626765	0.500079
C39	C	0.202019	0.074485	0.000093
C40	C	0.702019	0.574485	0.500093
C41	C	0.216169	-0.029354	0.000127
C42	C	0.716169	0.470646	0.500127
C43	C	0.156772	-0.030066	0.000125
C44	C	0.656772	0.469934	0.500125
C45	C	0.119999	0.021499	0.000107
C46	C	0.619999	0.521499	0.500107
C47	C	0.142623	0.073774	0.000091
C48	C	0.642623	0.573774	0.500091
C49	C	0.187865	0.178333	0.000078
C50	C	0.687865	0.678333	0.500078
C51	C	0.128463	0.177616	0.000092
C52	C	0.628463	0.677616	0.500092
C53	C	0.105840	0.125336	0.000106
C54	C	0.605840	0.625336	0.500106
C55	C	0.046454	0.124627	0.000070
C56	C	0.546454	0.624627	0.500070
N57	N	0.023828	0.072351	0.000101
N58	N	0.523828	0.572351	0.500101
C59	C	0.060600	0.020787	0.000119
C60	C	0.560600	0.520787	0.500119
C61	C	0.408783	0.128968	0.000044
C62	C	0.908783	0.628968	0.500044
C63	C	0.468181	0.129681	0.000019
C64	C	0.968181	0.629681	0.500019
C65	C	0.482328	0.025836	0.000066
C66	C	0.982328	0.525836	0.500066
C67	C	0.422929	0.025124	0.000079
C68	C	0.922929	0.525124	0.500079
C69	C	0.386157	0.076692	0.000074
C70	C	0.886157	0.576692	0.500074
C71	C	-0.064136	0.019297	0.000113
C72	C	0.435864	0.519297	0.500113
C73	C	-0.123538	0.018590	0.000104
C74	C	0.376462	0.518590	0.500104
C75	C	-0.137680	0.122435	0.000065
C76	C	0.362320	0.622435	0.500065
C77	C	-0.078284	0.123142	0.000066
C78	C	0.421716	0.623142	0.500066
C79	C	-0.041512	0.071568	0.000095
C80	C	0.458488	0.571568	0.500095
O81	O	0.009675	0.168390	0.000004
O82	O	0.509675	0.668390	0.500004
O83	O	0.035892	-0.023737	0.000165
O84	O	0.535892	0.476263	0.500165
C85	C	0.677071	-0.030012	0.000108
C86	C	1.177071	0.469988	0.500108
C87	C	0.676305	-0.093229	0.000121
C88	C	1.176305	0.406771	0.500121
C89	C	0.723538	-0.492332	0.000039
C90	C	1.223538	0.007668	0.500039
C91	C	0.722827	-0.551733	0.000026
C92	C	1.222827	-0.051733	0.500026
O93	O	0.766613	-0.588477	-0.000027
O94	O	1.266613	-0.088477	0.499973
N95	N	0.670551	-0.574359	0.000018
N96	N	1.170551	-0.074359	0.500018
C97	C	0.618982	-0.537581	0.000007
C98	C	1.118982	-0.037581	0.500007
O99	O	0.574452	-0.562281	-0.000003
O100	O	1.074452	-0.062281	0.499997
C101	C	0.619695	-0.478182	0.000007
C102	C	1.119695	0.021818	0.500007
C103	C	0.671974	-0.455559	0.000032
C104	C	1.171974	0.044441	0.500032
C105	C	0.775814	-0.469709	0.000061
C106	C	1.275814	0.030291	0.500061
C107	C	0.776525	-0.410313	0.000077
C108	C	1.276525	0.089687	0.500077
C109	C	0.724961	-0.373540	0.000070
C110	C	1.224961	0.126460	0.500070
C111	C	0.672685	-0.396163	0.000047
C112	C	1.172685	0.103837	0.500047
C113	C	0.568127	-0.441406	-0.000016
C114	C	1.068127	0.058594	0.499984
C115	C	0.568843	-0.382003	-0.000017
C116	C	1.068843	0.117997	0.499983
C117	C	0.621123	-0.359381	0.000008
C118	C	1.121123	0.140619	0.500008
C119	C	0.621832	-0.299994	0.000056
C120	C	1.121832	0.200006	0.500056
N121	N	0.674109	-0.277368	0.000064
N122	N	1.174109	0.222632	0.500064
C123	C	0.725673	-0.314141	0.000071
C124	C	1.225673	0.185859	0.500071
C125	C	0.617491	-0.662324	0.000002
C126	C	1.117491	-0.162324	0.500002
C127	C	0.616778	-0.721722	0.000013
C128	C	1.116778	-0.221722	0.500013
C129	C	0.720623	-0.735869	0.000029
C130	C	1.220623	-0.235869	0.500029
C131	C	0.721335	-0.676470	0.000030
C132	C	1.221335	-0.176470	0.500030
C133	C	0.669767	-0.639698	0.000010
C134	C	1.169767	-0.139698	0.500010
C135	C	0.727163	-0.189404	0.000105
C136	C	1.227163	0.310596	0.500105
C137	C	0.727869	-0.130002	0.000128
C138	C	1.227869	0.369998	0.500128
C139	C	0.624025	-0.115860	0.000102
C140	C	1.124025	0.384140	0.500102
C141	C	0.623318	-0.175257	0.000089
C142	C	1.123318	0.324743	0.500089
C143	C	0.674891	-0.212028	0.000084
C144	C	1.174891	0.287972	0.500084
O145	O	0.578069	-0.263215	0.000103
O146	O	1.078069	0.236785	0.500103
O147	O	0.770196	-0.289433	0.000058
O148	O	1.270196	0.210567	0.500058
C149	C	0.776472	0.069389	0.000087
C150	C	1.276472	0.569389	0.500087
C151	C	0.839689	0.070155	0.000085
C152	C	1.339689	0.570155	0.500085
C153	C	0.667577	0.178283	0.000034
C154	C	1.167577	0.678283	0.500034
C155	C	0.668343	0.241500	0.000011
C156	C	1.168343	0.741500	0.500011
N157	N	0.672321	0.074134	0.425750
N158	N	1.172321	0.574134	0.925750
N159	N	0.672332	0.074133	-0.425604
N160	N	1.172332	0.574133	0.074396
H161	H	0.512280	-0.016150	0.000081
H162	H	1.012280	0.483850	0.500081
H163	H	0.763906	-0.658055	0.000049
H164	H	1.263906	-0.158055	0.500049
C165	C	0.131896	-0.087578	0.000180
C166	C	0.631896	0.412422	0.500180
N167	N	0.113163	-0.130899	0.000237
N168	N	0.613163	0.369101	0.500237
H169	H	0.817806	-0.499644	0.000061
H170	H	1.317806	0.000356	0.500061
H171	H	0.769159	-0.219337	0.000095
H172	H	1.269159	0.280663	0.500095
H173	H	0.246104	-0.071347	0.000147
H174	H	0.746104	0.428653	0.500147
H175	H	-0.059864	0.165712	0.000053
H176	H	0.440136	0.665712	0.500053
C177	C	0.834037	-0.385436	0.000086
C178	C	1.334037	0.114564	0.500086
N179	N	0.877359	-0.366703	0.000087
N180	N	1.377359	0.133297	0.500087
H181	H	0.762610	-0.765821	0.000029
H182	H	1.262610	-0.265821	0.500029
H183	H	0.574207	-0.740135	0.000021
H184	H	1.074207	-0.240135	0.500021
C185	C	-0.148419	-0.038924	0.000134
C186	C	0.351581	0.461076	0.500134
N187	N	-0.167157	-0.082242	0.000165
N188	N	0.332843	0.417758	0.500165
C189	C	0.560758	-0.621878	0.000001
C190	C	1.060758	-0.121878	0.500001
N191	N	0.518027	-0.591418	-0.000001
N192	N	1.018027	-0.091418	0.499999
C193	C	0.398050	-0.032387	0.000113
C194	C	0.898050	0.467613	0.500113
N195	N	0.379315	-0.075707	0.000147
N196	N	0.879315	0.424293	0.500147
H197	H	0.525555	-0.459814	-0.000046
H198	H	1.025555	0.040186	0.499954
H199	H	0.486595	0.172252	-0.000015
H200	H	0.986595	0.672252	0.499985
C201	C	0.368338	0.185701	0.000021
C202	C	0.868338	0.685701	0.500021
N203	N	0.337877	0.228432	0.000006
N204	N	0.837877	0.728432	0.500006
H205	H	0.526850	-0.352065	-0.000036
H206	H	1.026850	0.147935	0.499964
H207	H	0.206274	0.220904	0.000059
H208	H	0.706274	0.720904	0.500059
H209	H	0.582043	-0.085909	0.000103
H210	H	1.082043	0.414091	0.500103
H211	H	0.098525	0.219610	0.000095
H212	H	0.598525	0.719610	0.500095
C213	C	0.565808	-0.200142	0.000072
C214	C	1.065808	0.299858	0.500072
N215	N	0.522490	-0.218882	0.000043
N216	N	1.022490	0.281118	0.500043
H217	H	-0.034204	-0.022699	0.000136
H218	H	0.465796	0.477301	0.500136
H219	H	-0.167631	0.164417	0.000042
H220	H	0.332369	0.664417	0.500042
H221	H	0.770443	-0.111587	0.000152
H222	H	1.270443	0.388413	0.500152
