data_functionalizedCrystal
_audit_creation_method	'MofGen! by Chris Wilmer'
_symmetry_space_group_name_H-M	'P1'
_symmetry_Int_Tables_number	1
_symmetry_cell_setting	triclinic
loop_
_symmetry_equiv_pos_as_xyz
  x,y,z
_cell_length_a	14.853566
_cell_length_b	17.038272
_cell_length_c	13.930277
_cell_angle_alpha	89.995405
_cell_angle_beta	89.995631
_cell_angle_gamma	87.372985
loop_
_atom_site_label
_atom_site_type_symbol
_atom_site_fract_x
_atom_site_fract_y
_atom_site_fract_z
O1	O	1.204051	0.102081	-0.079768
O2	O	1.704051	0.602081	0.420232
O3	O	0.942507	0.114243	-0.079784
O4	O	1.442507	0.614243	0.420216
O5	O	1.071724	-0.005655	-0.079769
O6	O	1.571724	0.494345	0.420231
O7	O	1.074833	0.221980	-0.079784
O8	O	1.574833	0.721980	0.420216
O9	O	1.071705	-0.005658	0.079893
O10	O	1.571705	0.494342	0.579893
O11	O	0.942487	0.114241	0.079878
O12	O	1.442487	0.614241	0.579878
O13	O	1.204032	0.102079	0.079894
O14	O	1.704032	0.602079	0.579894
Zn15	Zn	1.073256	0.108159	0.105236
Zn16	Zn	1.573256	0.608159	0.605236
Zn17	Zn	1.073282	0.108163	-0.105126
Zn18	Zn	1.573282	0.608163	0.394874
O19	O	1.074814	0.221977	0.079878
O20	O	1.574814	0.721977	0.579878
C21	C	0.908867	0.113691	0.000045
C22	C	1.408867	0.613691	0.500045
C23	C	0.808659	0.112040	0.000039
C24	C	1.308659	0.612040	0.500039
C25	C	0.384959	0.105059	-0.086975
C26	C	0.884959	0.605059	0.413025
C27	C	0.384959	0.105057	0.087094
C28	C	0.884959	0.605057	0.587094
C29	C	0.479110	0.106607	0.087091
C30	C	0.979110	0.606607	0.587091
C31	C	0.526189	0.107385	0.000054
C32	C	1.026189	0.607385	0.500054
C33	C	0.479118	0.106612	-0.086981
C34	C	0.979118	0.606612	0.413019
C35	C	0.526188	0.107388	0.174124
C36	C	1.026188	0.607388	0.674124
C37	C	0.620344	0.108939	0.174125
C38	C	1.120344	0.608939	0.674125
C39	C	0.667426	0.109711	0.087086
C40	C	1.167426	0.609711	0.587086
C41	C	0.620349	0.108937	0.000048
C42	C	1.120349	0.608937	0.500048
C43	C	0.667428	0.109715	-0.086990
C44	C	1.167428	0.609715	0.413010
C45	C	0.620353	0.108935	-0.174029
C46	C	1.120353	0.608935	0.325971
C47	C	0.526200	0.107384	-0.174020
C48	C	1.026200	0.607384	0.325980
C49	C	0.761579	0.111263	0.087077
C50	C	1.261579	0.611263	0.587077
C51	C	0.761588	0.111267	-0.086996
C52	C	1.261588	0.611267	0.413004
C53	C	1.068887	-0.034788	0.000062
C54	C	1.568887	0.465212	0.500062
C55	C	1.060451	-0.121592	0.000061
C56	C	1.560451	0.378408	0.500061
C57	C	1.137904	-0.171605	0.000067
C58	C	1.637904	0.328395	0.500067
C59	C	1.129972	-0.253166	0.000057
C60	C	1.629972	0.246834	0.500057
C61	C	1.044586	-0.284713	0.000049
C62	C	1.544586	0.215287	0.500049
C63	C	0.967127	-0.234694	0.000040
C64	C	1.467127	0.265306	0.500040
C65	C	0.975060	-0.153134	0.000043
C66	C	1.475060	0.346866	0.500043
C67	C	1.016561	-0.530507	0.000034
C68	C	1.516561	-0.030507	0.500034
C69	C	1.008634	-0.612073	0.000034
C70	C	1.508634	-0.112073	0.500034
C71	C	1.171480	-0.630540	0.000050
C72	C	1.671480	-0.130540	0.500050
C73	C	1.179405	-0.548978	0.000058
C74	C	1.679405	-0.048978	0.500058
C75	C	1.101946	-0.498966	0.000044
C76	C	1.601946	0.001034	0.500044
C77	C	1.036476	-0.368081	0.000042
C78	C	1.536476	0.131919	0.500042
C79	C	1.110057	-0.415600	0.000044
C80	C	1.610057	0.084400	0.500044
C81	C	1.237671	0.102631	0.000063
C82	C	1.737671	0.602631	0.500063
C83	C	1.337879	0.104282	0.000062
C84	C	1.837879	0.604282	0.500062
C85	C	1.077651	0.251110	0.000045
C86	C	1.577651	0.751110	0.500045
C87	C	1.086087	0.337914	0.000040
C88	C	1.586087	0.837914	0.500040
N89	N	1.073245	0.108156	0.248802
N90	N	1.573245	0.608156	0.748802
N91	N	1.073299	0.108159	-0.248692
N92	N	1.573299	0.608159	0.251308
C93	C	1.016060	0.161233	0.701064
C94	C	1.516060	0.661233	1.201064
C95	C	1.130528	0.055086	0.701047
C96	C	1.630528	0.555086	1.201047
C97	C	1.130517	0.055084	0.600551
C98	C	1.630517	0.555084	1.100551
C99	C	1.073278	0.108157	0.550307
C100	C	1.573278	0.608157	1.050307
C101	C	1.016050	0.161233	0.600559
C102	C	1.516050	0.661233	1.100559
C103	C	1.187751	0.002014	0.550292
C104	C	1.687751	0.502014	1.050292
C105	C	1.187743	0.002010	0.449790
C106	C	1.687743	0.502010	0.949790
C107	C	1.130498	0.055081	0.399544
C108	C	1.630498	0.555081	0.899544
C109	C	1.073267	0.108158	0.449802
C110	C	1.573267	0.608158	0.949802
C111	C	1.016028	0.161232	0.399558
C112	C	1.516028	0.661232	0.899558
C113	C	0.958791	0.214306	0.449814
C114	C	1.458791	0.714306	0.949814
C115	C	0.958805	0.214304	0.550313
C116	C	1.458805	0.714304	1.050313
C117	C	1.130485	0.055083	0.299046
C118	C	1.630485	0.555083	0.799046
C119	C	1.016017	0.161232	0.299053
C120	C	1.516017	0.661232	0.799053
H121	H	0.346627	0.104421	-0.157840
H122	H	0.846627	0.604421	0.342160
H123	H	1.234358	-0.041193	0.591204
H124	H	1.734358	0.458807	1.091204
Cl125	Cl	0.859784	-0.274352	0.000018
Cl126	Cl	1.359784	0.225648	0.500018
Cl127	Cl	0.820754	0.112248	0.196488
Cl128	Cl	1.320754	0.612248	0.696488
H129	H	0.912191	0.257522	0.408894
H130	H	1.412191	0.757522	0.908894
Cl131	Cl	1.227347	-0.316036	0.000067
Cl132	Cl	1.727347	0.183964	0.500067
Cl133	Cl	0.929137	-0.407747	0.000027
Cl134	Cl	1.429137	0.092253	0.500027
H135	H	1.177135	0.011879	0.741959
H136	H	1.677135	0.511879	1.241959
Cl137	Cl	0.820766	0.112239	-0.196421
Cl138	Cl	1.320766	0.612239	0.303579
Cl139	Cl	0.325772	0.104088	0.196507
Cl140	Cl	0.825772	0.604088	0.696507
H141	H	1.207435	-0.145927	0.000080
H142	H	1.707435	0.354073	0.500080
H143	H	0.487848	0.106760	0.244985
H144	H	0.987848	0.606760	0.744985
Cl145	Cl	0.944105	0.227949	0.764238
Cl146	Cl	1.444105	0.727949	1.264238
H147	H	1.179578	-0.389911	0.000030
H148	H	1.679578	0.110089	0.500030
H149	H	0.939099	-0.637754	0.000043
H150	H	1.439099	-0.137754	0.500043
H151	H	1.177090	0.011874	0.258132
H152	H	1.677090	0.511874	0.758132
H153	H	1.234347	-0.041206	0.408878
H154	H	1.734347	0.458794	0.908878
H155	H	0.658697	0.109574	-0.244895
H156	H	1.158697	0.609574	0.255105
H157	H	1.248935	-0.523300	0.000065
H158	H	1.748935	-0.023300	0.500065
H159	H	0.969402	0.204449	0.258151
H160	H	1.469402	0.704449	0.758151
Cl161	Cl	0.877686	-0.090260	0.000032
Cl162	Cl	1.377686	0.409740	0.500032
Cl163	Cl	0.886860	0.281023	0.613494
Cl164	Cl	1.386860	0.781023	1.113494
H165	H	0.487863	0.106748	-0.244882
H166	H	0.987863	0.606748	0.255118
Cl167	Cl	1.268850	-0.693416	0.000064
Cl168	Cl	1.768850	-0.193416	0.500064
H169	H	0.953488	-0.489797	0.000023
H170	H	1.453488	0.010203	0.500023
Cl171	Cl	0.679515	0.109916	0.283543
Cl172	Cl	1.179515	0.609916	0.783543
