data_functionalizedCrystal
_audit_creation_method	'MofGen! by Chris Wilmer'
_symmetry_space_group_name_H-M	'P1'
_symmetry_Int_Tables_number	1
_symmetry_cell_setting	triclinic
loop_
_symmetry_equiv_pos_as_xyz
  x,y,z
_cell_length_a	12.594517
_cell_length_b	13.897449
_cell_length_c	13.897441
_cell_angle_alpha	89.981404
_cell_angle_beta	90.022260
_cell_angle_gamma	89.992087
loop_
_atom_site_label
_atom_site_type_symbol
_atom_site_fract_x
_atom_site_fract_y
_atom_site_fract_z
Zn1	Zn	0.423682	1.474756	-0.545431
Zn2	Zn	0.923682	1.974756	-0.045431
Zn3	Zn	0.601690	1.474688	-0.384153
Zn4	Zn	1.101690	1.974688	0.115847
Zn5	Zn	0.423730	1.313452	-0.384149
Zn6	Zn	0.923730	1.813452	0.115851
Zn7	Zn	0.601623	1.313458	-0.545405
Zn8	Zn	1.101623	1.813458	-0.045405
O9	O	0.512681	1.394088	-0.464784
O10	O	1.012681	1.894088	0.035216
O11	O	0.447303	1.609729	-0.524049
O12	O	0.947303	2.109729	-0.024049
O13	O	0.578131	1.453268	-0.249171
O14	O	1.078131	1.953268	0.250829
O15	O	0.274778	1.334875	-0.405552
O16	O	0.774778	1.834875	0.094448
O17	O	0.578085	1.609678	-0.405559
O18	O	1.078085	2.109678	0.094441
O19	O	0.274743	1.453385	-0.524045
O20	O	0.774743	1.953385	-0.024045
O21	O	0.447384	1.334808	-0.249168
O22	O	0.947384	1.834808	0.250832
O23	O	0.447319	1.178471	-0.405528
O24	O	0.947319	1.678471	0.094472
O25	O	0.577971	1.334887	-0.680390
O26	O	1.077971	1.834887	-0.180390
O27	O	0.578017	1.178476	-0.524002
O28	O	1.078017	1.678476	-0.024002
O29	O	0.447238	1.453392	-0.680409
O30	O	0.947238	1.953392	-0.180409
O31	O	0.750627	1.453274	-0.405534
O32	O	1.250627	1.953274	0.094466
O33	O	0.750577	1.334820	-0.524006
O34	O	1.250577	1.834820	-0.024006
C35	C	0.512667	1.143474	-0.464762
C36	C	1.012667	1.643474	0.035238
C37	C	0.512686	1.036260	-0.464776
C38	C	1.012686	1.536260	0.035224
C39	C	0.235060	1.394137	-0.464801
C40	C	0.735060	1.894137	0.035199
C41	C	0.116755	1.394157	-0.464808
C42	C	0.616755	1.894157	0.035192
C43	C	0.512690	0.839965	-0.464801
C44	C	1.012690	1.339965	0.035199
C45	C	0.512685	0.949198	-0.464784
C46	C	1.012685	1.449198	0.035216
C47	C	0.047483	1.458608	-0.529260
C48	C	0.547483	1.958608	-0.029260
C49	C	-0.023276	1.482178	-0.441264
C50	C	0.476724	1.982178	0.058736
C51	C	-0.023286	1.370618	-0.552810
C52	C	0.476714	1.870618	-0.052810
C53	C	0.047555	1.417774	-0.376765
C54	C	0.547555	1.917774	0.123235
C55	C	0.047551	1.306172	-0.488371
C56	C	0.547551	1.806172	0.011629
C57	C	-0.023176	1.329709	-0.400313
C58	C	0.476824	1.829709	0.099687
C59	C	0.789222	1.394066	-0.464789
C60	C	1.289222	1.894066	0.035211
C61	C	0.907527	1.394145	-0.464823
C62	C	1.407527	1.894145	0.035177
C63	C	0.512592	1.394147	-0.716377
C64	C	1.012592	1.894147	-0.216377
C65	C	0.512554	1.394173	-0.823591
C66	C	1.012554	1.894173	-0.323591
C67	C	0.512696	1.645681	-0.464807
C68	C	1.012696	2.145681	0.035193
C69	C	0.512702	1.752895	-0.464817
C70	C	1.012702	2.252895	0.035183
C71	C	0.512523	1.394192	-0.910661
C72	C	1.012523	1.894192	-0.410661
C73	C	0.512476	1.394220	-1.019894
C74	C	1.012476	1.894220	-0.519894
C75	C	0.512693	1.394085	-0.214170
C76	C	1.012693	1.894085	0.285830
C77	C	0.512431	1.394247	-0.106957
C78	C	1.012431	1.894247	0.393043
H79	H	-0.054385	1.556580	-0.421334
H80	H	0.445615	2.056580	0.078666
O81	O	-0.060267	1.346967	-0.641661
O82	O	0.439733	1.846967	-0.141661
C83	C	-0.024279	1.415126	-0.709367
C84	C	0.475721	1.915126	-0.209367
H85	H	0.050240	1.451877	-0.680775
H86	H	0.550240	1.951877	-0.180775
H87	H	-0.088776	1.471294	-0.722011
H88	H	0.411224	1.971294	-0.222011
C89	C	-0.090030	1.318921	-0.839984
C90	C	0.409970	1.818921	-0.339984
C91	C	0.001500	1.364054	-0.804870
C92	C	0.501500	1.864054	-0.304870
H93	H	-0.074133	1.287419	-0.898897
H94	H	0.425867	1.787419	-0.398897
H95	H	-0.114280	1.273002	-0.794370
H96	H	0.385720	1.773002	-0.294370
H97	H	-0.143770	1.365736	-0.850513
H98	H	0.356230	1.865736	-0.350513
H99	H	0.055233	1.317237	-0.794330
H100	H	0.555233	1.817237	-0.294330
H101	H	0.025760	1.409963	-0.850485
H102	H	0.525760	1.909963	-0.350485
H103	H	0.078508	1.513158	-0.583692
H104	H	0.578508	2.013158	-0.083692
O105	O	-0.059916	1.264790	-0.335095
O106	O	0.440084	1.764790	0.164905
C107	C	-0.023601	1.289946	-0.242481
C108	C	0.476399	1.789946	0.257519
H109	H	-0.003855	1.369975	-0.240653
H110	H	0.496145	1.869975	0.259347
H111	H	0.050583	1.246465	-0.224557
H112	H	0.550583	1.746465	0.275443
C113	C	-0.135068	1.169762	-0.170241
C114	C	0.364932	1.669762	0.329759
C115	C	-0.110825	1.268057	-0.167994
C116	C	0.389175	1.768057	0.332006
H117	H	-0.188869	1.156256	-0.124293
H118	H	0.311131	1.656256	0.375707
H119	H	-0.159532	1.152811	-0.232637
H120	H	0.340468	1.652811	0.267363
H121	H	-0.073241	1.133540	-0.155307
H122	H	0.426759	1.633540	0.344693
H123	H	-0.172648	1.304277	-0.182940
H124	H	0.327352	1.804277	0.317060
H125	H	-0.086373	1.285014	-0.105599
H126	H	0.413627	1.785014	0.394401
H127	H	0.078541	1.437770	-0.302329
H128	H	0.578541	1.937770	0.197671
H129	H	0.078682	1.231791	-0.508325
H130	H	0.578682	1.731791	-0.008325
