data_functionalizedCrystal
_audit_creation_method	'MofGen! by Chris Wilmer'
_symmetry_space_group_name_H-M	'P1'
_symmetry_Int_Tables_number	1
_symmetry_cell_setting	triclinic
loop_
_symmetry_equiv_pos_as_xyz
  x,y,z
_cell_length_a	18.050591
_cell_length_b	25.639240
_cell_length_c	18.050582
_cell_angle_alpha	90.031820
_cell_angle_beta	90.010544
_cell_angle_gamma	90.031599
loop_
_atom_site_label
_atom_site_type_symbol
_atom_site_fract_x
_atom_site_fract_y
_atom_site_fract_z
Zn1	Zn	1.135269	-0.208200	0.419778
Zn2	Zn	1.135170	-0.295628	0.295568
Zn3	Zn	1.011088	-0.208207	0.295612
Zn4	Zn	1.011026	-0.295605	0.419726
O5	O	1.073138	-0.251910	0.357671
O6	O	1.239180	-0.219805	0.403305
O7	O	1.118695	-0.284044	0.191649
O8	O	1.027628	-0.135041	0.312123
O9	O	1.239108	-0.284038	0.312048
O10	O	1.118864	-0.135036	0.403347
O11	O	1.027532	-0.219816	0.191681
O12	O	0.907155	-0.219793	0.312072
O13	O	1.027523	-0.283998	0.523658
O14	O	0.907110	-0.284004	0.403258
O15	O	1.118804	-0.219782	0.523696
O16	O	1.118635	-0.368790	0.311998
O17	O	1.027427	-0.368773	0.403216
C18	C	0.880186	-0.251897	0.357665
C19	C	0.797640	-0.251904	0.357680
C20	C	0.548812	-0.286894	0.407199
C21	C	0.598180	-0.299617	0.339410
C22	C	0.500520	-0.251921	0.357678
C23	C	0.598233	-0.239215	0.425464
C24	C	0.646505	-0.251914	0.357683
C25	C	0.548801	-0.264668	0.289854
C26	C	0.548850	-0.204244	0.375953
C27	C	0.598196	-0.216948	0.308117
C28	C	0.416422	-0.251926	0.357677
C29	C	0.730602	-0.251909	0.357677
C30	C	1.073033	-0.387752	0.357613
C31	C	1.073056	-0.445866	0.357613
C32	C	1.120668	-0.806189	0.405257
C33	C	1.120690	-0.860793	0.405272
O34	O	1.161046	-0.888995	0.445722
N35	N	1.073241	-0.888149	0.357743
C36	C	1.025763	-0.860898	0.310200
O37	O	0.985405	-0.889180	0.269774
C38	C	1.025737	-0.806294	0.310189
C39	C	1.073194	-0.778941	0.357717
C40	C	1.168121	-0.778835	0.452781
C41	C	1.168099	-0.724235	0.452765
C42	C	1.120626	-0.696988	0.405225
C43	C	1.073173	-0.724341	0.357701
C44	C	0.978255	-0.779044	0.262651
C45	C	0.978234	-0.724437	0.262645
C46	C	1.025691	-0.697084	0.310172
C47	C	1.025679	-0.642493	0.310144
N48	N	1.073127	-0.615137	0.357674
C49	C	1.120601	-0.642384	0.405214
C50	C	1.025818	-0.975568	0.310227
C51	C	1.025846	-1.030171	0.310234
C52	C	1.120773	-1.030062	0.405307
C53	C	1.120748	-0.975459	0.405296
C54	C	1.073267	-0.948212	0.357757
C55	C	1.120553	-0.527719	0.405176
C56	C	1.120530	-0.473114	0.405153
C57	C	1.025601	-0.473227	0.310083
C58	C	1.025627	-0.527828	0.310102
C59	C	1.073105	-0.555072	0.357655
O60	O	0.985341	-0.614256	0.269717
O61	O	1.160944	-0.614095	0.445640
C62	C	1.266844	-0.251923	0.357677
C63	C	1.349390	-0.251929	0.357680
C64	C	1.073167	-0.251887	0.551377
C65	C	1.073180	-0.251877	0.633922
C66	C	1.073264	-0.115537	0.357746
C67	C	1.073317	-0.057423	0.357777
C68	C	1.073152	-0.251895	0.164719
C69	C	1.073284	-0.251758	0.082173
C70	C	1.023579	-0.286750	0.833352
C71	C	1.091333	-0.299531	0.882736
C72	C	1.073217	-0.251837	0.785053
C73	C	1.005500	-0.239041	0.882751
C74	C	1.073246	-0.251799	0.931038
C75	C	1.141006	-0.264643	0.833349
C76	C	1.055127	-0.204131	0.833360
C77	C	1.122927	-0.216894	0.882721
C78	C	1.073199	-0.251860	0.700955
C79	C	1.073272	-0.251776	1.015135
H80	H	0.527164	-0.163939	0.391433
H81	H	0.619946	-0.228471	0.482788
C82	C	0.476875	-0.301182	0.517217
C83	C	0.519534	-0.326851	0.463662
H84	H	0.458805	-0.325851	0.552073
H85	H	0.436310	-0.284249	0.493904
H86	H	0.506587	-0.276044	0.542001
H87	H	0.489820	-0.351987	0.438874
H88	H	0.560105	-0.343793	0.486977
H89	H	0.619849	-0.339933	0.323950
C90	C	1.217626	-0.279213	0.726614
C91	C	1.218352	-0.279302	0.804184
H92	H	1.265374	-0.288267	0.708610
H93	H	1.204693	-0.245446	0.709303
H94	H	1.182326	-0.303871	0.709325
H95	H	1.253649	-0.254641	0.821474
H96	H	1.231295	-0.313074	0.821503
H97	H	0.527180	-0.275460	0.232514
H98	H	1.039789	-0.163815	0.811655
H99	H	0.619743	-0.187369	0.266193
H100	H	1.159178	-0.450844	0.443856
H101	H	1.159210	-0.549895	0.443903
H102	H	0.939567	-0.702256	0.223933
C103	C	1.261925	-0.729629	0.546744
C104	C	1.220260	-0.694173	0.505016
H105	H	1.294123	-0.711072	0.579006
H106	H	1.290360	-0.750923	0.514413
H107	H	1.229545	-0.750933	0.575121
H108	H	1.252640	-0.672871	0.476634
H109	H	1.191822	-0.672870	0.537350
H110	H	1.164965	-0.187354	0.904261
C111	C	1.178420	-0.840177	0.552714
C112	C	1.220312	-0.808779	0.505043
H113	H	1.210648	-0.858657	0.584980
H114	H	1.150177	-0.864287	0.524417
H115	H	1.146034	-0.818878	0.581086
H116	H	1.252695	-0.830079	0.476667
H117	H	1.248568	-0.784666	0.533343
H118	H	1.159391	-0.953191	0.443998
C119	C	1.162942	-1.113722	0.447545
C120	C	1.172951	-1.060020	0.457573
H121	H	1.195150	-1.132216	0.479813
H122	H	1.173852	-1.122685	0.397664
H123	H	1.113035	-1.122685	0.458369
H124	H	1.222857	-1.051056	0.446743
H125	H	1.162046	-1.051053	0.507465
H126	H	0.987155	-0.953387	0.271509
H127	H	0.986989	-0.550100	0.271396
C128	C	0.932014	-1.024780	0.216260
C129	C	0.973684	-1.060234	0.257986
H130	H	0.899805	-1.043339	0.184009
H131	H	0.964384	-1.003481	0.187877
H132	H	0.903582	-1.003480	0.248597
H133	H	1.002121	-1.081530	0.225648
H134	H	0.941310	-1.081541	0.286371
H135	H	0.948221	-0.228234	0.904452
C136	C	0.896230	-0.313757	0.830097
C137	C	0.966966	-0.326655	0.804083
H138	H	0.861284	-0.338396	0.812029
H139	H	0.883256	-0.279897	0.813187
H140	H	0.896176	-0.314239	0.882719
H141	H	0.967022	-0.326169	0.751461
H142	H	0.979943	-0.360524	0.820989
H143	H	0.986951	-0.451034	0.271374
C144	C	0.884409	-0.773644	0.168695
C145	C	0.926082	-0.809101	0.210412
H146	H	0.852193	-0.792200	0.136448
H147	H	0.916776	-0.752345	0.140309
H148	H	0.855984	-0.752344	0.201039
H149	H	0.954511	-0.830398	0.178068
H150	H	0.893710	-0.830409	0.238800
H151	H	1.106652	-0.339859	0.904424
