data_functionalizedCrystal
_audit_creation_method	'MofGen! by Chris Wilmer'
_symmetry_space_group_name_H-M	'P1'
_symmetry_Int_Tables_number	1
_symmetry_cell_setting	triclinic
loop_
_symmetry_equiv_pos_as_xyz
  x,y,z
_cell_length_a	11.169417
_cell_length_b	18.215405
_cell_length_c	11.169409
_cell_angle_alpha	90.039798
_cell_angle_beta	90.019824
_cell_angle_gamma	90.025764
loop_
_atom_site_label
_atom_site_type_symbol
_atom_site_fract_x
_atom_site_fract_y
_atom_site_fract_z
Zn1	Zn	1.834841	-0.292907	0.678481
Zn2	Zn	2.334841	0.207093	1.178481
Zn3	Zn	1.834679	-0.415999	0.477771
Zn4	Zn	2.334679	0.084001	0.977771
Zn5	Zn	1.634127	-0.292952	0.477815
Zn6	Zn	2.134127	0.207048	0.977815
Zn7	Zn	1.634083	-0.415939	0.678416
Zn8	Zn	2.134083	0.084061	1.178416
O9	O	1.734433	-0.354449	0.578121
O10	O	2.234433	0.145551	1.078121
O11	O	2.002769	-0.309242	0.651865
O12	O	2.502769	0.190758	1.151865
O13	O	1.808026	-0.399720	0.309827
O14	O	2.308026	0.100280	0.809827
O15	O	1.660838	-0.189962	0.504479
O16	O	2.160838	0.310038	1.004479
O17	O	2.002651	-0.399677	0.504404
O18	O	2.502651	0.100323	1.004404
O19	O	1.808302	-0.189929	0.651907
O20	O	2.308302	0.310071	1.151907
O21	O	1.660681	-0.309319	0.309859
O22	O	2.160681	0.190681	0.809859
O23	O	1.466171	-0.309260	0.504416
O24	O	1.966171	0.190740	1.004416
O25	O	1.660764	-0.399574	0.846375
O26	O	2.160764	0.100426	1.346375
O27	O	1.466140	-0.399618	0.651797
O28	O	1.966140	0.100382	1.151797
O29	O	1.808260	-0.309184	0.846422
O30	O	2.308260	0.190816	1.346422
O31	O	1.807984	-0.518975	0.504342
O32	O	2.307984	-0.018975	1.004342
O33	O	1.660607	-0.518931	0.651755
O34	O	2.160607	-0.018931	1.151755
C35	C	1.422608	-0.354438	0.578105
C36	C	1.922608	0.145562	1.078105
C37	C	1.289208	-0.354451	0.578127
C38	C	1.789208	0.145549	1.078127
C39	C	1.734306	-0.545656	0.578063
C40	C	2.234306	-0.045656	1.078063
C41	C	1.734362	-0.627454	0.578078
C42	C	2.234362	-0.127454	1.078078
C43	C	1.811281	-0.815647	0.501462
C44	C	2.311281	-0.315647	1.001462
C45	C	1.811335	-0.892506	0.501491
C46	C	2.311335	-0.392506	1.001491
C47	C	1.657738	-0.892500	0.654866
C48	C	2.157738	-0.392500	1.154866
C49	C	1.657691	-0.815642	0.654842
C50	C	2.157691	-0.315642	1.154842
C51	C	1.734461	-0.777218	0.578133
C52	C	2.234461	-0.277218	1.078133
C53	C	1.734561	-0.930934	0.578186
C54	C	2.234561	-0.430934	1.078186
C55	C	1.734619	-1.014268	0.578218
C56	C	2.234619	-0.514268	1.078218
C57	C	1.734405	-0.693879	0.578102
C58	C	2.234405	-0.193879	1.078102
C59	C	2.047475	-0.354461	0.578137
C60	C	2.547475	0.145539	1.078137
C61	C	2.180875	-0.354466	0.578144
C62	C	2.680875	0.145534	1.078144
C63	C	1.734525	-0.354368	0.891163
C64	C	2.234525	0.145632	1.391163
C65	C	1.734564	-0.354333	1.024563
C66	C	2.234564	0.145667	1.524563
C67	C	1.734593	-0.162496	0.578205
C68	C	2.234593	0.337504	1.078205
C69	C	1.734661	-0.080697	0.578241
C70	C	2.234661	0.419303	1.078241
C71	C	1.734410	-0.354478	0.266296
C72	C	2.234410	0.145522	0.766296
C73	C	1.734603	-0.354305	0.132897
C74	C	2.234603	0.145695	0.632897
H75	H	1.873793	-0.784363	0.439002
H76	H	2.373793	-0.284363	0.939002
H77	H	1.873891	-0.923791	0.439059
H78	H	2.373891	-0.423791	0.939059
C79	C	1.589598	-1.010315	0.722994
C80	C	2.089598	-0.510315	1.222994
C81	C	1.573343	-0.934739	0.739169
C82	C	2.073343	-0.434739	1.239169
H83	H	1.537486	-1.036388	0.775034
H84	H	2.037486	-0.536388	1.275034
H85	H	1.670223	-1.022858	0.740642
H86	H	2.170223	-0.522858	1.240642
H87	H	1.572087	-1.022953	0.642338
H88	H	2.072087	-0.522953	1.142338
H89	H	1.590862	-0.922099	0.819824
H90	H	2.090862	-0.422099	1.319824
H91	H	1.492699	-0.922190	0.721529
H92	H	1.992699	-0.422190	1.221529
C93	C	1.505857	-0.823350	0.806448
C94	C	2.005857	-0.323350	1.306448
C95	C	1.573241	-0.773395	0.739124
C96	C	2.073241	-0.273395	1.239124
H97	H	1.453723	-0.797267	0.858473
H98	H	1.953723	-0.297267	1.358473
H99	H	1.558138	-0.853275	0.852412
H100	H	2.058138	-0.353275	1.352412
H101	H	1.459996	-0.853380	0.754113
H102	H	1.959996	-0.353380	1.254113
H103	H	1.619110	-0.743369	0.791458
H104	H	2.119110	-0.243369	1.291458
H105	H	1.520954	-0.743458	0.693156
H106	H	2.020954	-0.243458	1.193156
