data_functionalizedCrystal
_audit_creation_method	'MofGen! by Chris Wilmer'
_symmetry_space_group_name_H-M	'P1'
_symmetry_Int_Tables_number	1
_symmetry_cell_setting	triclinic
loop_
_symmetry_equiv_pos_as_xyz
  x,y,z
_cell_length_a	18.050589
_cell_length_b	13.897449
_cell_length_c	13.897441
_cell_angle_alpha	90.026069
_cell_angle_beta	89.972127
_cell_angle_gamma	89.971851
loop_
_atom_site_label
_atom_site_type_symbol
_atom_site_fract_x
_atom_site_fract_y
_atom_site_fract_z
Zn1	Zn	-0.295637	-1.474632	-0.545537
Zn2	Zn	0.204363	-0.974632	-0.045537
Zn3	Zn	-0.419841	-1.474496	-0.384246
Zn4	Zn	0.080159	-0.974496	0.115754
Zn5	Zn	-0.295670	-1.313321	-0.384240
Zn6	Zn	0.204330	-0.813321	0.115760
Zn7	Zn	-0.419790	-1.313273	-0.545483
Zn8	Zn	0.080210	-0.813273	-0.045483
O9	O	-0.357734	-1.393931	-0.464876
O10	O	0.142266	-0.893931	0.035124
O11	O	-0.312121	-1.609596	-0.524166
O12	O	0.187879	-1.109596	-0.024166
O13	O	-0.403405	-1.453080	-0.249263
O14	O	0.096595	-0.953080	0.250737
O15	O	-0.191741	-1.334796	-0.405656
O16	O	0.308259	-0.834796	0.094344
O17	O	-0.403374	-1.609496	-0.405666
O18	O	0.096626	-1.109496	0.094334
O19	O	-0.191717	-1.453311	-0.524160
O20	O	0.308283	-0.953311	-0.024160
O21	O	-0.312176	-1.334665	-0.249259
O22	O	0.187824	-0.834665	0.250741
O23	O	-0.312126	-1.178333	-0.405605
O24	O	0.187874	-0.678333	0.094395
O25	O	-0.403285	-1.334715	-0.680472
O26	O	0.096715	-0.834715	-0.180472
O27	O	-0.403317	-1.178298	-0.524069
O28	O	0.096683	-0.678298	-0.024069
O29	O	-0.312071	-1.453264	-0.680511
O30	O	0.187929	-0.953264	-0.180511
O31	O	-0.523759	-1.453033	-0.405614
O32	O	-0.023759	-0.953033	0.094386
O33	O	-0.523721	-1.334583	-0.524075
O34	O	-0.023721	-0.834583	-0.024075
C35	C	-0.357720	-1.143316	-0.464831
C36	C	0.142280	-0.643316	0.035169
C37	C	-0.357732	-1.036103	-0.464835
C38	C	0.142268	-0.536103	0.035165
C39	C	-0.357733	-0.949033	-0.464847
C40	C	0.142267	-0.449033	0.035153
C41	C	-0.357737	-0.839800	-0.464871
C42	C	0.142263	-0.339800	0.035129
C43	C	-0.550687	-1.393814	-0.464860
C44	C	-0.050687	-0.893814	0.035140
C45	C	-0.633232	-1.393853	-0.464886
C46	C	-0.133232	-0.893853	0.035114
C47	C	-0.832689	-1.329503	-0.529282
C48	C	-0.332689	-0.829503	-0.029282
C49	C	-0.882135	-1.305986	-0.441261
C50	C	-0.382135	-0.805986	0.058739
C51	C	-0.784363	-1.393948	-0.464898
C52	C	-0.284363	-0.893948	0.035102
C53	C	-0.881999	-1.417512	-0.552929
C54	C	-0.381999	-0.917512	-0.052929
C55	C	-0.930348	-1.394037	-0.464918
C56	C	-0.430348	-0.894037	0.035082
C57	C	-0.832721	-1.370384	-0.376831
C58	C	-0.332721	-0.870384	0.123169
C59	C	-0.832581	-1.481951	-0.488558
C60	C	-0.332581	-0.981951	0.011442
C61	C	-0.882004	-1.458468	-0.400477
C62	C	-0.382004	-0.958468	0.099523
C63	C	-0.700264	-1.393893	-0.464888
C64	C	-0.200264	-0.893893	0.035112
C65	C	-1.014444	-1.394092	-0.464919
C66	C	-0.514444	-0.894092	0.035081
C67	C	-0.164029	-1.394074	-0.464914
C68	C	0.335971	-0.894074	0.035086
C69	C	-0.081483	-1.394135	-0.464930
C70	C	0.418517	-0.894135	0.035070
C71	C	-0.357669	-1.393999	-0.716470
C72	C	0.142331	-0.893999	-0.216470
C73	C	-0.357641	-1.394028	-0.823684
C74	C	0.142359	-0.894028	-0.323684
C75	C	-0.357746	-0.645524	-0.464911
C76	C	0.142254	-0.145524	0.035089
C77	C	-0.357744	-0.752738	-0.464896
C78	C	0.142256	-0.252738	0.035104
C79	C	-0.357591	-1.394055	-1.019979
C80	C	0.142409	-0.894055	-0.519979
C81	C	-0.357621	-1.394037	-0.910746
C82	C	0.142379	-0.894037	-0.410746
C83	C	-0.357746	-1.393918	-0.214262
C84	C	0.142254	-0.893918	0.285738
C85	C	-0.357565	-1.394076	-0.107049
C86	C	0.142435	-0.894076	0.392951
H87	H	-0.811035	-1.274924	-0.583652
H88	H	-0.311035	-0.774924	-0.083652
H89	H	-0.903917	-1.231606	-0.421268
H90	H	-0.403917	-0.731606	0.078732
H91	H	-0.811164	-1.350403	-0.302372
H92	H	-0.311164	-0.850403	0.197628
H93	H	-0.810800	-1.556314	-0.508594
H94	H	-0.310800	-1.056314	-0.008594
H95	H	-0.903521	-1.513005	-0.345975
H96	H	-0.403521	-1.013005	0.154025
N97	N	-0.909156	-1.442457	-0.646313
N98	N	-0.409156	-0.942457	-0.146313
N99	N	-0.893343	-1.391218	-0.717303
N100	N	-0.393343	-0.891218	-0.217303
H101	H	-0.912522	-1.408827	-0.783257
H102	H	-0.412522	-0.908827	-0.283257
