data_functionalizedCrystal
_audit_creation_method	'MofGen! by Chris Wilmer'
_symmetry_space_group_name_H-M	'P1'
_symmetry_Int_Tables_number	1
_symmetry_cell_setting	triclinic
loop_
_symmetry_equiv_pos_as_xyz
  x,y,z
_cell_length_a	19.805407
_cell_length_b	19.805405
_cell_length_c	19.805399
_cell_angle_alpha	89.969291
_cell_angle_beta	89.983114
_cell_angle_gamma	90.026410
loop_
_atom_site_label
_atom_site_type_symbol
_atom_site_fract_x
_atom_site_fract_y
_atom_site_fract_z
Zn1	Zn	1.034718	-0.269469	-0.382712
Zn2	Zn	1.034638	-0.382661	-0.269520
Zn3	Zn	0.921538	-0.269491	-0.269536
Zn4	Zn	0.921496	-0.382622	-0.382667
O5	O	0.978097	-0.326061	-0.326109
O6	O	1.129424	-0.284492	-0.367708
O7	O	1.019619	-0.367674	-0.174805
O8	O	0.936602	-0.174771	-0.284575
O9	O	1.129365	-0.367653	-0.284547
O10	O	1.019755	-0.174756	-0.367724
O11	O	0.936525	-0.284528	-0.174817
O12	O	0.826816	-0.284491	-0.284531
O13	O	0.936531	-0.367587	-0.477389
O14	O	0.826785	-0.367608	-0.367648
O15	O	1.019715	-0.284454	-0.477422
O16	O	1.019578	-0.477372	-0.284503
O17	O	0.936454	-0.477344	-0.367632
C18	C	0.802241	-0.326048	-0.326087
C19	C	0.727009	-0.326059	-0.326093
C20	C	0.691667	-0.369403	-0.369302
C21	C	0.620978	-0.369404	-0.369312
C22	C	0.585634	-0.326064	-0.326109
C23	C	0.620981	-0.282715	-0.282898
C24	C	0.691668	-0.282711	-0.282892
C25	C	0.335908	-0.282730	-0.282920
C26	C	0.265216	-0.282739	-0.282928
C27	C	0.265218	-0.369423	-0.369340
C28	C	0.335905	-0.369419	-0.369334
C29	C	0.371246	-0.326068	-0.326126
C30	C	0.447895	-0.326066	-0.326117
C31	C	0.508987	-0.326068	-0.326114
C32	C	0.978021	-0.501917	-0.326076
C33	C	0.978050	-0.577149	-0.326084
C34	C	1.021376	-0.612485	-0.282845
C35	C	1.021404	-0.683174	-0.282860
C36	C	0.978104	-0.718524	-0.326111
C37	C	0.934777	-0.683183	-0.369356
C38	C	0.934752	-0.612496	-0.369344
C39	C	0.934877	-0.968256	-0.369406
C40	C	0.934904	-1.038948	-0.369413
C41	C	1.021529	-1.038934	-0.282922
C42	C	1.021504	-0.968247	-0.282910
C43	C	0.978180	-0.932912	-0.326157
C44	C	0.978150	-0.856263	-0.326141
C45	C	0.978130	-0.795171	-0.326124
C46	C	1.154640	-0.326074	-0.326131
C47	C	1.229872	-0.326080	-0.326140
C48	C	0.978127	-0.326014	-0.502651
C49	C	0.978140	-0.325994	-0.577883
C50	C	0.978192	-0.149518	-0.326156
C51	C	0.978233	-0.074286	-0.326177
C52	C	0.934885	-0.282696	-0.613233
C53	C	0.934894	-0.282683	-0.683922
C54	C	0.978162	-0.325964	-0.719259
C55	C	1.021419	-0.369267	-0.683904
C56	C	1.021406	-0.369283	-0.613217
C57	C	1.021473	-0.369204	-0.968978
C58	C	1.021484	-0.369183	-1.039670
C59	C	0.934961	-0.282603	-1.039682
C60	C	0.934948	-0.282619	-0.968995
C61	C	0.978202	-0.325924	-0.933647
C62	C	0.978190	-0.325939	-0.856998
C63	C	0.978178	-0.325947	-0.795906
C64	C	0.978107	-0.326059	-0.150253
C65	C	0.978225	-0.325888	-0.075021
H66	H	0.720443	-0.247412	-0.247711
Cl67	Cl	0.880286	-0.568072	-0.423707
H68	H	1.056684	-0.711942	-0.247649
H69	H	0.592206	-0.404700	-0.404496
H70	H	0.364679	-0.404713	-0.404512
H71	H	1.056808	-1.067713	-0.247711
H72	H	0.592198	-0.247424	-0.247724
Cl73	Cl	1.075809	-0.423683	-0.728328
H74	H	0.720439	-0.404697	-0.404481
H75	H	0.899740	-0.247344	-1.068472
Cl76	Cl	0.880411	-0.923844	-0.423772
H77	H	0.364674	-0.247436	-0.247733
H78	H	0.236435	-0.404719	-0.404524
H79	H	1.056633	-0.583707	-0.247621
Cl80	Cl	1.075783	-0.423720	-0.568777
H81	H	0.236440	-0.247442	-0.247747
Cl82	Cl	1.075941	-0.923810	-0.228535
Cl83	Cl	0.880466	-1.083388	-0.423793
H84	H	0.899655	-0.247447	-0.584467
Cl85	Cl	0.880346	-0.727624	-0.423734
Cl86	Cl	0.880482	-0.228280	-0.728359
H87	H	0.899717	-0.247373	-0.940227
Cl88	Cl	1.075881	-0.423600	-1.084093
Cl89	Cl	1.075854	-0.423639	-0.924549
