data_functionalizedCrystal
_audit_creation_method	'MofGen! by Chris Wilmer'
_symmetry_space_group_name_H-M	'P1'
_symmetry_Int_Tables_number	1
_symmetry_cell_setting	triclinic
loop_
_symmetry_equiv_pos_as_xyz
  x,y,z
_cell_length_a	18.101398
_cell_length_b	29.839131
_cell_length_c	18.101398
_cell_angle_alpha	90.007809
_cell_angle_beta	90.009734
_cell_angle_gamma	90.036686
loop_
_atom_site_label
_atom_site_type_symbol
_atom_site_fract_x
_atom_site_fract_y
_atom_site_fract_z
Zn1	Zn	1.131961	-0.179017	0.418824
Zn2	Zn	1.631961	0.320983	0.918824
Zn3	Zn	1.131866	-0.254116	0.294976
Zn4	Zn	1.631866	0.245884	0.794976
Zn5	Zn	1.008152	-0.178995	0.294985
Zn6	Zn	1.508152	0.321005	0.794985
Zn7	Zn	1.008049	-0.254114	0.418764
Zn8	Zn	1.508049	0.245886	0.918764
O9	O	1.070007	-0.216561	0.356887
O10	O	1.570007	0.283439	0.856887
O11	O	1.235581	-0.188989	0.402416
O12	O	1.735581	0.311011	0.902416
O13	O	1.115459	-0.244142	0.191344
O14	O	1.615459	0.255858	0.691344
O15	O	1.024658	-0.116130	0.311441
O16	O	1.524658	0.383870	0.811441
O17	O	1.235512	-0.244164	0.311426
O18	O	1.735512	0.255836	0.811426
O19	O	1.115620	-0.116147	0.402425
O20	O	1.615620	0.383853	0.902425
O21	O	1.024566	-0.188951	0.191351
O22	O	1.524566	0.311049	0.691351
O23	O	0.904505	-0.188949	0.311383
O24	O	1.404505	0.311051	0.811383
O25	O	1.024482	-0.244161	0.522405
O26	O	1.524482	0.255839	1.022405
O27	O	0.904429	-0.244140	0.402324
O28	O	1.404429	0.255860	0.902324
O29	O	1.115520	-0.188988	0.522449
O30	O	1.615520	0.311012	1.022449
O31	O	1.115359	-0.316983	0.311368
O32	O	1.615359	0.183017	0.811368
O33	O	1.024390	-0.316982	0.402315
O34	O	1.524390	0.183018	0.902315
C35	C	0.877596	-0.216542	0.356849
C36	C	1.377596	0.283458	0.856849
C37	C	0.795282	-0.216545	0.356850
C38	C	1.295282	0.283455	0.856850
C39	C	1.069873	-0.333283	0.356851
C40	C	1.569873	0.166717	0.856851
C41	C	1.069884	-0.383218	0.356860
C42	C	1.569884	0.116782	0.856860
C43	C	0.496191	-0.216573	0.356912
C44	C	0.996191	0.283427	0.856912
C45	C	0.527539	-0.181676	0.299974
C46	C	1.027539	0.318324	0.799974
C47	C	0.613158	-0.181769	0.299731
C48	C	1.113158	0.318231	0.799731
C49	C	0.644574	-0.216559	0.356881
C50	C	1.144574	0.283441	0.856881
C51	C	0.613447	-0.263878	0.335553
C52	C	1.113447	0.236122	0.835553
C53	C	0.527802	-0.263684	0.335157
C54	C	1.027802	0.236316	0.835157
C55	C	0.527790	-0.204563	0.435312
C56	C	1.027790	0.295437	0.935312
C57	C	0.613441	-0.203509	0.434884
C58	C	1.113441	0.296491	0.934884
C59	C	0.728433	-0.216554	0.356865
C60	C	1.228433	0.283446	0.856865
C61	C	0.412332	-0.216582	0.356926
C62	C	0.912332	0.283418	0.856926
C63	C	1.117460	-0.692849	0.309600
C64	C	1.617460	-0.192849	0.809600
C65	C	1.117552	-0.880522	0.309629
C66	C	1.617552	-0.380522	0.809629
O67	O	1.157897	-0.904776	0.269420
O68	O	1.657897	-0.404776	0.769420
N69	N	1.070160	-0.904003	0.356943
N70	N	1.570160	-0.404003	0.856943
C71	C	1.022746	-0.880562	0.404257
C72	C	1.522746	-0.380562	0.904257
O73	O	0.982445	-0.904840	0.444506
O74	O	1.482445	-0.404840	0.944506
C75	C	1.022659	-0.692890	0.404231
C76	C	1.522659	-0.192890	0.904231
C77	C	1.070048	-0.669412	0.356909
C78	C	1.570048	-0.169412	0.856909
C79	C	1.164846	-0.669371	0.262283
C80	C	1.664846	-0.169371	0.762283
C81	C	1.164820	-0.622455	0.262273
C82	C	1.664820	-0.122455	0.762273
C83	C	1.117408	-0.599018	0.309581
C84	C	1.617408	-0.099018	0.809581
C85	C	1.070022	-0.622496	0.356899
C86	C	1.570022	-0.122496	0.856899
C87	C	0.975250	-0.669450	0.451548
C88	C	1.475250	-0.169450	0.951548
C89	C	0.975233	-0.622529	0.451539
C90	C	1.475233	-0.122529	0.951539
C91	C	1.022622	-0.599051	0.404216
C92	C	1.522622	-0.099051	0.904216
C93	C	1.022584	-0.552144	0.404198
C94	C	1.522584	-0.052144	0.904198
N95	N	1.069975	-0.528663	0.356884
N96	N	1.569975	-0.028663	0.856884
C97	C	1.117387	-0.552100	0.309576
C98	C	1.617387	-0.052100	0.809576
C99	C	1.022795	-0.979093	0.404266
C100	C	1.522795	-0.479093	0.904266
C101	C	1.022815	-1.026011	0.404271
C102	C	1.522815	-0.526011	0.904271
C103	C	1.117622	-1.025967	0.309645
C104	C	1.617622	-0.525967	0.809645
C105	C	1.117597	-0.979048	0.309636
C106	C	1.617597	-0.479048	0.809636
C107	C	1.070186	-0.955612	0.356952
C108	C	1.570186	-0.455612	0.856952
C109	C	1.117328	-0.453574	0.309559
C110	C	1.617328	0.046426	0.809559
C111	C	1.117296	-0.406655	0.309551
C112	C	1.617296	0.093345	0.809551
C113	C	1.022492	-0.406702	0.404180
C114	C	1.522492	0.093298	0.904180
C115	C	1.022522	-0.453618	0.404185
C116	C	1.522522	0.046382	0.904185
C117	C	1.069946	-0.477053	0.356872
C118	C	1.569946	0.022947	0.856872
O119	O	0.982266	-0.527860	0.444392
O120	O	1.482266	-0.027860	0.944392
O121	O	1.157694	-0.527814	0.269344
O122	O	1.657694	-0.027814	0.769344
C123	C	1.117486	-0.739764	0.309610
C124	C	1.617486	-0.239764	0.809610
C125	C	1.070101	-0.763243	0.356928
C126	C	1.570101	-0.263243	0.856928
C127	C	1.022689	-0.739805	0.404236
C128	C	1.522689	-0.239805	0.904236
C129	C	1.070121	-0.810160	0.356933
C130	C	1.570121	-0.310160	0.856933
C131	C	1.117533	-0.833598	0.309625
C132	C	1.617533	-0.333598	0.809625
C133	C	1.164924	-0.810117	0.262311
C134	C	1.664924	-0.310117	0.762311
C135	C	1.164898	-0.763201	0.262302
C136	C	1.664898	-0.263201	0.762302
C137	C	0.975298	-0.763286	0.451550
C138	C	1.475298	-0.263286	0.951550
C139	C	0.975327	-0.810202	0.451555
C140	C	1.475327	-0.310202	0.951555
C141	C	1.022739	-0.833639	0.404247
C142	C	1.522739	-0.333639	0.904247
C143	C	1.263169	-0.216579	0.356926
C144	C	1.763169	0.283421	0.856926
C145	C	1.345483	-0.216587	0.356943
C146	C	1.845483	0.283413	0.856943
C147	C	1.070000	-0.216577	0.550049
C148	C	1.570000	0.283423	1.050049
C149	C	1.069998	-0.216584	0.632363
C150	C	1.569998	0.283416	1.132363
C151	C	1.070161	-0.099382	0.356940
C152	C	1.570161	0.400618	0.856940
C153	C	1.070227	-0.049448	0.356963
C154	C	1.570227	0.450552	0.856963
C155	C	1.069992	-0.216576	0.783072
C156	C	1.569992	0.283424	1.283072
C157	C	1.012716	-0.251289	0.814398
C158	C	1.512716	0.248711	1.314398
C159	C	1.012489	-0.251183	0.900016
C160	C	1.512489	0.248817	1.400016
C161	C	1.069987	-0.216570	0.931454
C162	C	1.569987	0.283430	1.431454
C163	C	1.049121	-0.169189	0.900374
C164	C	1.549121	0.330811	1.400374
C165	C	1.048708	-0.169393	0.814729
C166	C	1.548708	0.330607	1.314729
C167	C	1.148278	-0.228830	0.814646
C168	C	1.648278	0.271170	1.314646
C169	C	1.147855	-0.229871	0.900296
C170	C	1.647855	0.270129	1.400296
C171	C	1.069985	-0.216564	1.015314
C172	C	1.569985	0.283436	1.515314
C173	C	1.069992	-0.216580	0.699212
C174	C	1.569992	0.283420	1.199212
C175	C	1.070000	-0.216558	1.164477
C176	C	1.570000	0.283442	1.664477
C177	C	1.069981	-0.216563	1.082163
C178	C	1.569981	0.283437	1.582163
H179	H	0.634205	-0.146679	0.313100
H180	H	1.134205	0.353321	0.813100
H181	H	0.506976	-0.146479	0.313196
H182	H	1.006976	0.353521	0.813196
C183	C	0.500781	-0.277442	0.257725
C184	C	1.000781	0.222558	0.757725
N185	N	0.480432	-0.287802	0.199400
N186	N	0.980432	0.212198	0.699400
H187	H	1.203487	-0.744089	0.223768
H188	H	1.703487	-0.244089	0.723768
H189	H	0.936690	-0.744207	0.490075
H190	H	1.436690	-0.244207	0.990075
C191	C	1.030075	-0.298642	0.928406
C192	C	1.530075	0.201358	1.428406
N193	N	1.043316	-0.334391	0.949786
N194	N	1.543316	0.165609	1.449786
C195	C	0.923119	-0.695266	0.503609
C196	C	1.423119	-0.195266	1.003609
N197	N	0.883853	-0.714709	0.542827
N198	N	1.383853	-0.214709	1.042827
H199	H	0.634873	-0.274243	0.278857
H200	H	1.134873	0.225757	0.778857
H201	H	1.167331	-0.262797	0.793043
H202	H	1.667331	0.237203	1.293043
C203	C	0.499781	-0.300001	0.388733
C204	C	0.999781	0.199999	0.888733
N205	N	0.478679	-0.327356	0.429084
N206	N	0.978679	0.172644	0.929084
H207	H	0.506223	-0.170660	0.454703
H208	H	1.006223	0.329340	0.954703
C209	C	0.640943	-0.299948	0.389816
C210	C	1.140943	0.200052	0.889816
N211	N	0.661658	-0.327115	0.430685
N212	N	1.161658	0.172885	0.930685
H213	H	0.506002	-0.189524	0.242218
H214	H	1.006002	0.310476	0.742218
C215	C	1.169120	-0.276979	0.927736
C216	C	1.669120	0.223021	1.427736
N217	N	1.185135	-0.312462	0.948408
N218	N	1.685135	0.187538	1.448408
C219	C	0.923076	-0.596752	0.503592
C220	C	1.423076	-0.096752	1.003592
N221	N	0.883791	-0.577338	0.542797
N222	N	1.383791	-0.077338	1.042797
H223	H	1.088627	-0.142638	0.794006
H224	H	1.588627	0.357362	1.294006
C225	C	1.217077	-0.835907	0.210271
C226	C	1.717077	-0.335907	0.710271
N227	N	1.256358	-0.855334	0.171079
N228	N	1.756358	-0.355334	0.671079
C229	C	0.640923	-0.156464	0.456608
C230	C	1.140923	0.343536	0.956608
N231	N	0.661625	-0.121028	0.472967
N232	N	1.161625	0.378972	0.972967
C233	C	0.640809	-0.192496	0.221249
C234	C	1.140809	0.307504	0.721249
N235	N	0.661636	-0.200577	0.162134
N236	N	1.161636	0.299423	0.662134
H237	H	0.634827	-0.227076	0.479581
H238	H	1.134827	0.272924	0.979581
C239	C	1.169779	-1.051757	0.257609
C240	C	1.669779	-0.551757	0.757609
N241	N	1.209066	-1.071184	0.218422
N242	N	1.709066	-0.571184	0.718422
H243	H	0.955037	-0.243265	0.792870
H244	H	1.455037	0.256735	1.292870
C245	C	0.970677	-1.051831	0.456322
C246	C	1.470677	-0.551831	0.956322
N247	N	0.931407	-1.071278	0.495532
N248	N	1.431407	-0.571278	0.995532
H249	H	0.507515	-0.229982	0.477736
H250	H	1.007515	0.270018	0.977736
C251	C	1.169426	-0.380831	0.257487
C252	C	1.669426	0.119169	0.757487
N253	N	1.208689	-0.361383	0.218273
N254	N	1.708689	0.138617	0.718273
C255	C	0.970345	-0.380912	0.456220
C256	C	1.470345	0.119088	0.956220
N257	N	0.931071	-0.361486	0.495421
N258	N	1.431071	0.138514	0.995421
H259	H	1.155947	-0.472649	0.271033
H260	H	1.655947	0.027351	0.771033
H261	H	1.203410	-0.603342	0.223741
H262	H	1.703410	-0.103342	0.723741
C263	C	1.217003	-0.695144	0.210231
C264	C	1.717003	-0.195144	0.710231
N265	N	1.256287	-0.714554	0.171017
N266	N	1.756287	-0.214554	0.671017
C267	C	0.970389	-0.479444	0.456239
C268	C	1.470389	0.020556	0.956239
N269	N	0.931128	-0.498894	0.495453
N270	N	1.431128	0.001106	0.995453
H271	H	1.156185	-0.959935	0.271102
H272	H	1.656185	-0.459935	0.771102
H273	H	0.984185	-0.960014	0.442797
H274	H	1.484185	-0.460014	0.942797
C275	C	1.030096	-0.298899	0.786564
C276	C	1.530096	0.201101	1.286564
N277	N	1.043186	-0.334759	0.765591
N278	N	1.543186	0.165241	1.265591
H279	H	1.190948	-0.203546	0.794393
H280	H	1.690948	0.296454	1.294393
C281	C	0.923190	-0.836022	0.503616
C282	C	1.423190	-0.336022	1.003616
N283	N	0.883927	-0.855469	0.542832
N284	N	1.383927	-0.355469	1.042832
H285	H	0.954478	-0.243059	0.920499
H286	H	1.454478	0.256941	1.420499
C287	C	0.971410	-0.155392	0.787733
C288	C	1.471410	0.344608	1.287733
N289	N	0.913186	-0.144848	0.767404
N290	N	1.413186	0.355152	1.267404
C291	C	1.103733	-0.133286	0.927909
C292	C	1.603733	0.366714	1.427909
N293	N	1.144862	-0.106243	0.948658
N294	N	1.644862	0.393757	1.448658
H295	H	0.992532	-0.158642	0.921819
H296	H	1.492532	0.341358	1.421819
H297	H	1.192788	-0.206444	0.921700
H298	H	1.692788	0.293556	1.421700
