data_functionalizedCrystal
_audit_creation_method	'MofGen! by Chris Wilmer'
_symmetry_space_group_name_H-M	'P1'
_symmetry_Int_Tables_number	1
_symmetry_cell_setting	triclinic
loop_
_symmetry_equiv_pos_as_xyz
  x,y,z
_cell_length_a	18.760487
_cell_length_b	14.560438
_cell_length_c	18.760492
_cell_angle_alpha	59.999761
_cell_angle_beta	90.035544
_cell_angle_gamma	60.019919
loop_
_atom_site_label
_atom_site_type_symbol
_atom_site_fract_x
_atom_site_fract_y
_atom_site_fract_z
Zr1	Zr	0.686679	1.005282	-0.093110
O2	O	0.572859	1.196890	-0.206996
O3	O	0.721571	0.813679	-0.058199
O4	O	0.721567	1.005288	-0.206907
O5	O	0.572866	1.005276	0.059016
O6	O	0.838870	1.005287	-0.206835
O7	O	0.572863	1.005281	-0.058289
O8	O	0.838877	0.662535	0.059176
O9	O	0.572859	1.348028	-0.206995
O10	O	0.823993	0.892487	-0.043255
O11	O	0.736454	0.892483	0.044235
O12	O	0.736449	1.118077	-0.130849
O13	O	0.648909	1.118073	-0.043360
Zr14	Zr	0.873768	1.005274	0.094093
Zr15	Zr	0.873763	1.005282	-0.092995
Zr16	Zr	0.686683	1.005274	0.093978
Zr17	Zr	0.686678	1.246331	-0.093107
Zr18	Zr	0.873768	0.764225	0.094090
O19	O	0.838876	1.196877	0.059182
O20	O	0.838869	1.196889	-0.206833
O21	O	0.572865	1.196877	0.059018
O22	O	0.987587	0.813666	0.207979
O23	O	0.987581	0.813679	-0.058036
O24	O	0.721577	0.813667	0.207815
O25	O	0.987581	1.005280	-0.058034
O26	O	0.838880	1.005268	0.207890
O27	O	0.721577	1.005269	0.207817
O28	O	0.987583	1.005275	0.059271
O29	O	0.721566	1.348028	-0.206903
O30	O	0.838880	0.662528	0.207886
O31	O	0.987588	0.662528	0.207977
O32	O	0.987584	0.662535	0.059267
O33	O	0.572862	1.348021	-0.058285
O34	O	0.721570	1.348021	-0.058193
O35	O	0.823997	0.892479	0.131832
O36	O	0.911537	0.892483	0.044342
O37	O	0.823993	1.118073	-0.043252
O38	O	0.736453	1.118069	0.044237
C39	C	0.780224	0.703763	0.000488
C40	C	0.780224	0.601431	0.000487
C41	C	0.825916	0.553359	-0.045183
C42	C	0.825918	0.457201	-0.045177
C43	C	0.734529	0.457201	0.046171
C44	C	0.734533	0.553350	0.046169
C45	C	0.878675	0.553362	-0.097926
C46	C	0.878677	0.457205	-0.097919
C47	C	0.546209	1.005278	0.000347
C48	C	0.466787	1.005279	0.000298
C49	C	0.085272	1.123038	-0.045080
C50	C	0.176675	0.887518	0.046370
C51	C	0.251297	0.887516	0.046295
C52	C	0.242909	1.005277	0.000531
C53	C	0.159900	1.123040	-0.045159
C54	C	0.334311	0.769755	0.091976
C55	C	0.408939	0.769749	0.091902
C56	C	0.400553	0.887511	0.046142
C57	C	0.317537	1.005279	0.000452
C58	C	0.309150	1.123040	-0.045312
C59	C	0.226134	1.240809	-0.090998
C60	C	0.151513	1.240803	-0.090919
C61	C	0.475174	0.887518	0.046063
C62	C	0.383777	1.123042	-0.045391
C63	C	1.014237	1.005278	0.000635
C64	C	1.093660	1.005277	0.000684
C65	C	0.780218	1.005289	-0.233527
C66	C	0.780216	1.005292	-0.312951
C67	C	0.780223	1.306793	0.000495
C68	C	0.780222	1.409125	0.000496
C69	C	0.715588	1.005297	-0.350305
C70	C	0.844846	1.005281	-0.350222
C71	C	0.844850	1.005278	-0.424842
C72	C	0.780222	1.005282	-0.462196
C73	C	0.715591	1.005289	-0.424930
C74	C	0.909485	1.005257	-0.462108
C75	C	0.909491	1.005252	-0.536732
C76	C	0.844859	1.005265	-0.574091
C77	C	0.780225	1.005274	-0.536821
C78	C	0.715597	1.005278	-0.574176
C79	C	0.650958	1.005297	-0.536911
C80	C	0.650959	1.005303	-0.462290
C81	C	0.844858	1.005259	-0.648712
C82	C	0.715600	1.005271	-0.648801
C83	C	0.780229	1.005267	0.234510
C84	C	0.780231	1.005264	0.313933
C85	C	1.014238	0.703762	0.000632
C86	C	1.093661	0.601431	0.000680
C87	C	0.780229	0.703752	0.234506
C88	C	0.780231	0.601417	0.313929
C89	C	1.014244	0.703752	0.234650
C90	C	1.093668	0.601416	0.314122
C91	C	0.546203	1.306804	-0.233668
C92	C	0.466778	1.409140	-0.313139
C93	C	0.546208	1.306794	0.000351
C94	C	0.466786	1.409125	0.000303
C95	C	0.780217	1.306804	-0.233524
C96	C	0.780215	1.409139	-0.312946
C97	C	1.085261	0.553377	-0.045031
C98	C	1.159880	0.457239	-0.045003
C99	C	1.242897	0.409150	0.000740
C100	C	1.251295	0.457213	0.046452
C101	C	1.176677	0.553356	0.046419
C102	C	0.825929	0.553357	0.396959
C103	C	0.825928	0.457216	0.471592
C104	C	0.780233	0.409129	0.463193
C105	C	0.734530	0.457199	0.380154
C106	C	0.734526	0.553345	0.305523
C107	C	1.176669	0.553361	0.305774
C108	C	1.251304	0.457219	0.380438
C109	C	1.242936	0.409129	0.463450
C110	C	1.159926	0.457194	0.471796
C111	C	1.085293	0.553340	0.397132
C112	C	0.383777	1.457207	-0.304791
C113	C	0.309142	1.553378	-0.379456
C114	C	0.317510	1.601474	-0.462467
C115	C	0.400521	1.553403	-0.470814
C116	C	0.475153	1.457240	-0.396150
C117	C	0.475185	1.457189	0.046005
C118	C	0.400566	1.553354	0.045957
C119	C	0.317549	1.601446	0.000212
C120	C	0.309151	1.553378	-0.045497
C121	C	0.383769	1.457222	-0.045453
C122	C	0.825919	1.457195	-0.304519
C123	C	0.825934	1.553337	-0.379138
C124	C	0.780239	1.601428	-0.462183
C125	C	0.734534	1.553363	-0.470608
C126	C	0.734525	1.457216	-0.395990
H127	H	0.946243	0.361426	-0.063064
H128	H	0.476527	0.673854	0.129101
C129	C	1.185896	0.606249	0.214467
N130	N	1.192853	0.646086	0.145697
C131	C	0.839016	0.508306	-0.192336
N132	N	0.809144	0.546794	-0.263448
H133	H	0.542775	1.418039	0.083263
C134	C	0.579868	1.005309	-0.421288
N135	N	0.526326	1.005307	-0.390399
H136	H	1.303714	0.330840	0.524239
C137	C	0.343529	0.640227	0.142310
N138	N	0.350471	0.542662	0.180224
H139	H	1.017671	0.592530	-0.082291
C140	C	0.980600	1.005216	-0.577710
N141	N	1.034162	1.005185	-0.608574
C142	C	0.876210	1.606197	-0.369850
N143	N	0.914077	1.646009	-0.362852
C144	C	0.684231	1.404383	-0.405275
N145	N	0.646344	1.364596	-0.412275
H146	H	1.318888	0.418094	0.373627
C147	C	1.150735	0.404269	0.563118
N148	N	1.143816	0.364396	0.631903
C149	C	0.876195	0.606241	0.406220
N150	N	0.914053	0.646074	0.413202
C151	C	0.374550	1.404328	-0.213485
N152	N	0.367594	1.364513	-0.144715
C153	C	0.235475	1.707216	0.000177
N154	N	0.173660	1.786878	0.000157
C155	C	0.060196	1.370337	-0.141180
N156	N	-0.008587	1.467901	-0.179042
C157	C	0.409823	1.606200	0.096250
N158	N	0.416798	1.645999	0.134132
H159	H	1.017712	0.592455	0.403942
H160	H	0.697331	1.592533	-0.538233
H161	H	1.153025	0.418117	-0.082227
C162	C	0.216919	1.370342	-0.141340
N163	N	0.209983	1.467903	-0.179256
H164	H	0.662969	1.005281	-0.679213
C165	C	0.409711	1.606310	-0.562135
N166	N	0.416631	1.646155	-0.630921
H167	H	0.780254	1.679717	-0.522934
C168	C	0.644490	1.005314	-0.309313
N169	N	0.590939	1.005324	-0.278435
H170	H	0.697338	0.592472	0.083370
C171	C	0.566484	0.757980	0.096314
N172	N	0.635260	0.660405	0.134168
H173	H	0.948550	0.515529	-0.068533
C174	C	0.217824	1.606276	-0.095800
N175	N	0.149034	1.646112	-0.133679
C176	C	0.876195	1.404306	-0.213176
N177	N	0.914071	1.364469	-0.144378
H178	H	0.697329	0.418042	0.083364
H179	H	0.843858	0.649141	-0.165509
C180	C	0.579875	1.005287	-0.578005
N181	N	0.526338	1.005277	-0.608959
H182	H	0.017679	1.218923	-0.082274
H183	H	0.376937	1.218938	-0.082649
H184	H	0.962106	1.005244	-0.431688
C185	C	0.915950	1.005233	-0.309112
N186	N	0.969512	1.005185	-0.278141
H187	H	1.303649	0.330863	0.000761
H188	H	0.241559	1.592502	-0.372643
C189	C	0.915955	1.005242	-0.689701
N190	N	0.969507	1.005235	-0.720576
H191	H	0.183497	0.791642	0.083626
H192	H	0.256732	1.679776	-0.523256
H193	H	1.318898	0.418045	0.083694
H194	H	0.780243	0.330841	0.523969
H195	H	0.863148	0.418089	0.539199
H196	H	1.183528	0.592469	0.083646
H197	H	0.376918	1.418091	-0.082667
H198	H	0.697317	0.592463	0.237918
C199	C	0.684273	0.404283	0.370929
N200	N	0.646426	0.364417	0.363984
H201	H	0.542735	1.418104	-0.402957
