data_functionalizedCrystal
_audit_creation_method	'MofGen! by Chris Wilmer'
_symmetry_space_group_name_H-M	'P1'
_symmetry_Int_Tables_number	1
_symmetry_cell_setting	triclinic
loop_
_symmetry_equiv_pos_as_xyz
  x,y,z
_cell_length_a	17.639398
_cell_length_b	17.640280
_cell_length_c	18.050582
_cell_angle_alpha	101.219235
_cell_angle_beta	78.781491
_cell_angle_gamma	92.153217
loop_
_atom_site_label
_atom_site_type_symbol
_atom_site_fract_x
_atom_site_fract_y
_atom_site_fract_z
Zn1	Zn	1.222173	0.067533	-0.639237
Zn2	Zn	1.247789	0.194517	-0.495823
Zn3	Zn	1.095187	0.093228	-0.486067
Zn4	Zn	1.120835	0.220158	-0.590994
O5	O	1.171496	0.143859	-0.553030
O6	O	1.331846	0.062893	-0.644486
O7	O	1.227532	0.181104	-0.390597
O8	O	1.090578	-0.016444	-0.522493
O9	O	1.350666	0.156188	-0.539120
O10	O	1.183874	-0.035322	-0.635026
O11	O	1.115416	0.106688	-0.383430
O12	O	0.992314	0.131550	-0.475713
O13	O	1.134292	0.199889	-0.701325
O14	O	1.011158	0.224805	-0.552803
O15	O	1.208744	0.087756	-0.736769
O16	O	1.252403	0.304182	-0.492340
O17	O	1.159130	0.323020	-0.562262
C18	C	0.974180	0.183749	-0.507965
C19	C	0.889772	0.200832	-0.488700
C20	C	1.211350	0.341150	-0.523146
C21	C	1.228469	0.425537	-0.510402
C22	C	1.171522	0.143816	-0.746749
C23	C	1.171533	0.143798	-0.829300
C24	C	1.369583	0.103814	-0.598273
C25	C	1.453995	0.086750	-0.617552
C26	C	1.780604	0.273467	-0.406668
C27	C	1.859920	0.257417	-0.424796
C28	C	1.840314	0.160277	-0.534504
C29	C	1.760996	0.176322	-0.516387
C30	C	1.731147	0.232917	-0.452467
C31	C	1.711539	0.135772	-0.562187
C32	C	1.632227	0.151813	-0.544069
C33	C	1.602372	0.208404	-0.480151
C34	C	1.651836	0.248958	-0.434349
C35	C	1.741388	0.079174	-0.626103
C36	C	1.691931	0.038624	-0.671903
C37	C	1.612618	0.054668	-0.653788
C38	C	1.582764	0.111259	-0.589870
C39	C	1.563155	0.014114	-0.699590
C40	C	1.483843	0.030155	-0.681472
C41	C	1.503452	0.127300	-0.571752
C42	C	1.131507	-0.054206	-0.583053
C43	C	1.114467	-0.138610	-0.595847
C44	C	1.041756	0.752297	-0.650187
C45	C	1.057843	0.831592	-0.638189
C46	C	1.155028	0.811898	-0.565489
C47	C	1.138951	0.732600	-0.577485
C48	C	1.082314	0.702806	-0.619833
C49	C	1.179509	0.683108	-0.547131
C50	C	1.163431	0.603817	-0.559122
C51	C	1.106794	0.574017	-0.601467
C52	C	1.066235	0.623515	-0.631825
C53	C	1.236143	0.712904	-0.504777
C54	C	1.276701	0.663413	-0.474424
C55	C	1.260626	0.584120	-0.486419
C56	C	1.203990	0.554320	-0.528764
C57	C	1.301185	0.534622	-0.456062
C58	C	1.285107	0.455331	-0.468053
C59	C	1.187911	0.475029	-0.540755
C60	C	1.131076	0.204684	-1.058875
C61	C	1.098503	0.139181	-1.015727
C62	C	1.171574	0.143674	-1.126453
C63	C	1.204090	0.209241	-1.022496
C64	C	1.171553	0.143739	-0.980451
C65	C	1.138958	0.078141	-1.084389
C66	C	1.244587	0.148241	-1.091163
C67	C	1.212030	0.082686	-1.048050
C68	C	1.171585	0.143637	-1.210560
C69	C	1.171540	0.143767	-0.896347
C70	C	1.171503	0.143838	-0.360084
C71	C	1.171596	0.143613	-0.277599
H72	H	1.479150	0.173392	-0.519708
H73	H	0.995641	0.728037	-0.684679
N74	N	1.005143	0.591375	-0.677496
H75	H	1.001112	0.533634	-0.680482
H76	H	1.019729	0.602817	-0.731147
H77	H	1.141797	0.450769	-0.575247
H78	H	1.249234	0.777469	-0.495018
N79	N	1.619635	0.310009	-0.365415
H80	H	1.663000	0.333269	-0.339150
H81	H	1.580480	0.285764	-0.328211
N82	N	1.089446	0.488497	-0.614397
H83	H	1.137649	0.458815	-0.642884
H84	H	1.047391	0.477203	-0.645805
H85	H	1.537789	0.221452	-0.465391
N86	N	1.326366	0.153358	-1.134514
H87	H	1.357215	0.107820	-1.130284
H88	H	1.350838	0.202935	-1.111821
H89	H	1.024821	0.871885	-0.662921
N90	N	1.216105	0.844037	-0.519805
H91	H	1.220135	0.901778	-0.516810
H92	H	1.267518	0.819168	-0.545895
H93	H	1.322813	0.687683	-0.439941
N94	N	1.362257	0.566764	-0.410371
H95	H	1.366283	0.624505	-0.407375
H96	H	1.413673	0.541899	-0.436457
H97	H	1.756302	0.319559	-0.354623
N98	N	1.328845	0.401946	-0.435312
H99	H	1.367165	0.432851	-0.406666
H100	H	1.357288	0.361903	-0.478574
H101	H	1.096793	0.256202	-1.064257
N102	N	1.913263	0.301159	-0.375394
H103	H	1.968036	0.282410	-0.396568
H104	H	1.897003	0.292150	-0.320978
N105	N	1.595359	-0.046916	-0.768534
H106	H	1.621158	-0.088757	-0.751209
H107	H	1.634470	-0.022643	-0.805752
H108	H	1.231601	0.264662	-0.995512
N109	N	1.724130	-0.022401	-0.740855
H110	H	1.781879	-0.026406	-0.745388
H111	H	1.712654	-0.007765	-0.788926
N112	N	1.826942	0.061924	-0.645648
H113	H	1.848849	0.072023	-0.698844
H114	H	1.835511	0.005981	-0.644220
N115	N	1.016705	0.134091	-0.972396
H116	H	0.986163	0.180176	-0.975794
H117	H	1.017408	0.133621	-0.916673
N118	N	1.102422	0.004724	-1.119987
H119	H	1.102634	0.005162	-1.175896
H120	H	1.047431	0.001195	-1.091748
H121	H	1.864627	0.114196	-0.586546
N122	N	1.257371	0.014316	-1.041115
H123	H	1.222711	-0.019210	-1.009380
H124	H	1.302278	0.033273	-1.015276
N125	N	1.430494	-0.013580	-0.730865
H126	H	1.461437	-0.051865	-0.774108
H127	H	1.403833	0.023980	-0.753030
