data_functionalizedCrystal
_audit_creation_method	'MofGen! by Chris Wilmer'
_symmetry_space_group_name_H-M	'P1'
_symmetry_Int_Tables_number	1
_symmetry_cell_setting	triclinic
loop_
_symmetry_equiv_pos_as_xyz
  x,y,z
_cell_length_a	13.033291
_cell_length_b	13.032868
_cell_length_c	19.805399
_cell_angle_alpha	82.846750
_cell_angle_beta	82.791837
_cell_angle_gamma	74.808427
loop_
_atom_site_label
_atom_site_type_symbol
_atom_site_fract_x
_atom_site_fract_y
_atom_site_fract_z
Zn1	Zn	1.570155	0.216863	-0.529915
Zn2	Zn	2.070155	0.716863	-0.029915
Zn3	Zn	1.547452	0.394503	-0.429463
Zn4	Zn	2.047452	0.894503	0.070537
Zn5	Zn	1.392521	0.239428	-0.403960
Zn6	Zn	1.892521	0.739428	0.096040
Zn7	Zn	1.369906	0.416973	-0.529829
Zn8	Zn	1.869906	0.916973	-0.029829
O9	O	1.470008	0.316942	-0.473292
O10	O	1.970008	0.816942	0.026708
O11	O	1.715787	0.221580	-0.527299
O12	O	2.215787	0.721580	-0.027299
O13	O	1.526864	0.373972	-0.331364
O14	O	2.026864	0.873972	0.168636
O15	O	1.435050	0.087789	-0.410031
O16	O	1.935050	0.587789	0.089969
O17	O	1.699108	0.352092	-0.453497
O18	O	2.199108	0.852092	0.046503
O19	O	1.565557	0.071211	-0.502570
O20	O	2.065557	0.571211	-0.002570
O21	O	1.413036	0.260039	-0.312627
O22	O	1.913036	0.760039	0.187373
O23	O	1.240877	0.281827	-0.409948
O24	O	1.740877	0.781827	0.090052
O25	O	1.396506	0.390388	-0.624557
O26	O	1.896506	0.890388	-0.124557
O27	O	1.224261	0.412268	-0.502424
O28	O	1.724261	0.912268	-0.002424
O29	O	1.543628	0.243368	-0.624620
O30	O	2.043628	0.743368	-0.124620
O31	O	1.504934	0.546130	-0.453414
O32	O	2.004934	1.046130	0.046586
O33	O	1.374492	0.562638	-0.527153
O34	O	1.874492	1.062638	-0.027153
C35	C	1.194027	0.351935	-0.453410
C36	C	1.694027	0.851935	0.046590
C37	C	1.075958	0.366931	-0.444922
C38	C	1.575958	0.866931	0.055078
C39	C	0.909532	0.324631	-0.468956
C40	C	1.409532	0.824631	0.031044
C41	C	1.031563	0.309134	-0.477728
C42	C	1.531563	0.809134	0.022272
C43	C	1.434824	0.592922	-0.493058
C44	C	1.934824	1.092922	0.006942
C45	C	1.419870	0.710976	-0.501544
C46	C	1.919870	1.210976	-0.001544
C47	C	1.477800	0.755398	-0.468878
C48	C	1.977800	1.255398	0.031122
C49	C	1.462345	0.877412	-0.477648
C50	C	1.962345	1.377412	0.022352
C51	C	1.747067	0.281812	-0.493252
C52	C	2.247067	0.781812	0.006748
C53	C	1.865133	0.266842	-0.501758
C54	C	2.365133	0.766842	-0.001758
C55	C	1.470076	0.316867	-0.649834
C56	C	1.970076	0.816867	-0.149834
C57	C	1.470105	0.316836	-0.725066
C58	C	1.970105	0.816836	-0.225066
C59	C	1.505324	1.039884	-0.453455
C60	C	2.005324	1.539884	0.046545
C61	C	1.520283	0.921830	-0.444977
C62	C	2.020283	1.421830	0.055023
C63	C	1.546714	0.240279	-0.760444
C64	C	2.046714	0.740279	-0.260444
C65	C	1.546729	0.240247	-0.831131
C66	C	2.046729	0.740247	-0.331131
C67	C	1.470139	0.316777	-0.866440
C68	C	1.970139	0.816777	-0.366440
C69	C	1.393522	0.393338	-0.831056
C70	C	1.893522	0.893338	-0.331056
C71	C	1.393504	0.393364	-0.760370
C72	C	1.893504	0.893364	-0.260370
C73	C	1.393595	0.393231	-1.116127
C74	C	1.893595	0.893231	-0.616127
C75	C	1.393622	0.393200	-1.186819
C76	C	1.893622	0.893200	-0.686819
C77	C	1.546820	0.240114	-1.186888
C78	C	2.046820	0.740114	-0.686888
C79	C	1.546801	0.240140	-1.116202
C80	C	2.046801	0.740140	-0.616202
C81	C	1.470182	0.316697	-1.080824
C82	C	1.970182	0.816697	-0.580824
C83	C	1.470166	0.316730	-1.004177
C84	C	1.970166	0.816730	-0.504177
C85	C	1.470159	0.316750	-0.943086
C86	C	1.970159	0.816750	-0.443086
C87	C	1.470011	0.316932	-0.297435
C88	C	1.970011	0.816932	0.202565
C89	C	1.470226	0.316638	-0.222197
C90	C	1.970226	0.816638	0.277803
H91	H	0.917465	0.205890	-0.536332
H92	H	1.417465	0.705890	-0.036332
C93	C	1.560260	0.684756	-0.422326
C94	C	2.060260	1.184756	0.077674
H95	H	1.559825	0.612016	-0.422536
H96	H	2.059825	1.112016	0.077464
H97	H	1.629350	0.693759	-0.438697
H98	H	2.129350	1.193759	0.061303
H99	H	1.542463	0.704905	-0.377018
H100	H	2.042463	1.204905	0.122982
H101	H	1.358836	0.763274	-0.536007
H102	H	1.858836	1.263274	-0.036007
C103	C	1.309327	0.477444	-1.077218
C104	C	1.809327	0.977444	-0.577218
H105	H	1.320272	0.466498	-1.030062
H106	H	1.820272	0.966498	-0.530062
H107	H	1.315770	0.546838	-1.095031
H108	H	1.815770	1.046838	-0.595031
H109	H	1.239941	0.470936	-1.082548
H110	H	1.739941	0.970936	-0.582548
H111	H	1.401307	0.929707	-0.512112
H112	H	1.901307	1.429707	-0.012112
C113	C	1.631003	0.156039	-0.870044
C114	C	2.131003	0.656039	-0.370044
H115	H	1.676622	0.110474	-0.838894
H116	H	2.176622	0.610474	-0.338894
H117	H	1.596289	0.114892	-0.891378
H118	H	2.096289	0.614892	-0.391378
H119	H	1.672107	0.190804	-0.903863
H120	H	2.172107	0.690804	-0.403863
H121	H	1.609204	0.177774	-1.215700
H122	H	2.109204	0.677774	-0.715700
C123	C	1.602724	0.851197	-0.398405
C124	C	2.102724	1.351197	0.101595
H125	H	1.602284	0.778458	-0.398609
H126	H	2.102284	1.278458	0.101391
H127	H	1.671824	0.860187	-0.414761
H128	H	2.171824	1.360187	0.085239
H129	H	1.584902	0.871363	-0.353102
H130	H	2.084902	1.371363	0.146898
C131	C	1.630960	0.156090	-0.721610
C132	C	2.130960	0.656090	-0.221610
H133	H	1.676579	0.110484	-0.752805
H134	H	2.176579	0.610484	-0.252805
H135	H	1.672054	0.190858	-0.700276
H136	H	2.172054	0.690858	-0.200276
H137	H	1.596213	0.114969	-0.687796
H138	H	2.096213	0.614969	-0.187796
H139	H	1.331248	0.455523	-1.215565
H140	H	1.831248	0.955523	-0.715565
H141	H	1.609172	0.177825	-1.087457
H142	H	2.109172	0.677825	-0.587457
C143	C	0.838847	0.406969	-0.422245
C144	C	1.338847	0.906969	0.077755
H145	H	0.766101	0.406589	-0.422480
H146	H	1.266101	0.906589	0.077520
H147	H	0.858936	0.389053	-0.376955
H148	H	1.358936	0.889053	0.123045
H149	H	0.847887	0.476075	-0.438491
H150	H	1.347887	0.976075	0.061509
H151	H	1.331158	0.455646	-0.859810
H152	H	1.831158	0.955646	-0.359810
C153	C	1.309258	0.477599	-0.721458
C154	C	1.809258	0.977599	-0.221458
H155	H	1.263658	0.523187	-0.752611
H156	H	1.763658	1.023187	-0.252611
H157	H	1.268143	0.442867	-0.687632
H158	H	1.768143	0.942867	-0.187632
H159	H	1.344007	0.518733	-0.700134
H160	H	1.844007	1.018733	-0.200134
H161	H	1.083891	0.248178	-0.512305
H162	H	1.583891	0.748178	-0.012305
C163	C	1.005278	0.449280	-0.398211
C164	C	1.505278	0.949280	0.101789
H165	H	0.932531	0.448903	-0.398447
H166	H	1.432531	0.948903	0.101553
H167	H	1.025365	0.431369	-0.352921
H168	H	1.525365	0.931369	0.147079
H169	H	1.014322	0.518383	-0.414461
H170	H	1.514322	1.018383	0.085539
