data_functionalizedCrystal
_audit_creation_method	'MofGen! by Chris Wilmer'
_symmetry_space_group_name_H-M	'P1'
_symmetry_Int_Tables_number	1
_symmetry_cell_setting	triclinic
loop_
_symmetry_equiv_pos_as_xyz
  x,y,z
_cell_length_a	9.065218
_cell_length_b	10.654550
_cell_length_c	8.140239
_cell_angle_alpha	90.006249
_cell_angle_beta	89.998314
_cell_angle_gamma	95.249606
loop_
_atom_site_label
_atom_site_type_symbol
_atom_site_fract_x
_atom_site_fract_y
_atom_site_fract_z
O1	O	0.207232	-1.668659	-0.136742
O2	O	0.707232	-1.168659	0.363258
O3	O	0.226976	-1.303259	-0.136715
O4	O	0.726976	-0.803259	0.363285
O5	O	0.002421	-1.493512	-0.136725
O6	O	0.502421	-0.993512	0.363275
O7	O	0.431788	-1.478406	-0.136731
O8	O	0.931788	-0.978406	0.363269
O9	O	0.002418	-1.493501	0.136502
O10	O	0.502418	-0.993501	0.636502
O11	O	0.226974	-1.303248	0.136513
O12	O	0.726974	-0.803248	0.636513
O13	O	0.207230	-1.668648	0.136486
O14	O	0.707230	-1.168648	0.636486
Zn15	Zn	0.217101	-1.485947	0.179880
Zn16	Zn	0.717101	-0.985947	0.679880
Zn17	Zn	0.217105	-1.485961	-0.180109
Zn18	Zn	0.717105	-0.985961	0.319891
O19	O	0.431786	-1.478395	0.136496
O20	O	0.931786	-0.978395	0.636496
C21	C	0.225525	-1.256450	-0.000098
C22	C	0.725525	-0.756450	0.499902
C23	C	0.221188	-1.116989	-0.000087
C24	C	0.721188	-0.616989	0.499913
C25	C	-0.052559	-1.492055	-0.000114
C26	C	0.447441	-0.992055	0.499886
C27	C	-0.216378	-1.487714	-0.000122
C28	C	0.283622	-0.987714	0.499878
N29	N	0.217098	-1.485946	0.425562
N30	N	0.717098	-0.985946	0.925562
C31	C	0.486766	-1.479852	-0.000118
C32	C	0.986766	-0.979852	0.499882
C33	C	0.650585	-1.484193	-0.000122
C34	C	1.150585	-0.984193	0.499878
C35	C	0.208681	-1.715457	-0.000135
C36	C	0.708681	-1.215457	0.499865
C37	C	0.213018	-1.854918	-0.000156
C38	C	0.713018	-1.354918	0.499844
C39	C	0.353403	-1.038027	-0.000113
C40	C	0.853403	-0.538027	0.499887
C41	C	0.349319	-0.906990	-0.000141
C42	C	0.849319	-0.406990	0.499859
C43	C	0.080793	-0.933890	-0.000125
C44	C	0.580793	-0.433890	0.499875
C45	C	0.084879	-1.064925	-0.000085
C46	C	0.584879	-0.564925	0.499915
C47	C	0.508434	-1.022496	-0.000129
C48	C	1.008434	-0.522496	0.499871
C49	C	0.504350	-0.891459	-0.000158
C50	C	1.004350	-0.391459	0.499842
N51	N	0.217096	-1.485971	-0.425791
N52	N	0.717096	-0.985971	0.074209
H53	H	-0.022783	-1.129212	-0.000041
H54	H	0.477217	-0.629212	0.499959
H55	H	0.569065	-1.052063	0.114221
H56	H	1.069065	-0.552063	0.614221
N57	N	0.581709	-0.836467	-0.151625
N58	N	1.081709	-0.336467	0.348375
H59	H	0.688150	-0.857388	-0.151690
H60	H	1.188150	-0.357388	0.348310
H61	H	0.529896	-0.873262	-0.252886
H62	H	1.029896	-0.373262	0.247114
H63	H	0.557800	-1.058351	-0.118094
H64	H	1.057800	-0.558351	0.381906
H65	H	-0.030185	-0.891483	-0.000149
H66	H	0.469815	-0.391483	0.499851
H67	H	0.551201	-0.845968	0.117801
H68	H	1.051201	-0.345968	0.617801
