data_functionalizedCrystal
_audit_creation_method	'MofGen! by Chris Wilmer'
_symmetry_space_group_name_H-M	'P1'
_symmetry_Int_Tables_number	1
_symmetry_cell_setting	triclinic
loop_
_symmetry_equiv_pos_as_xyz
  x,y,z
_cell_length_a	6.817900
_cell_length_b	12.840933
_cell_length_c	16.417823
_cell_angle_alpha	81.381955
_cell_angle_beta	103.385419
_cell_angle_gamma	88.345099
loop_
_atom_site_label
_atom_site_type_symbol
_atom_site_fract_x
_atom_site_fract_y
_atom_site_fract_z
V1	V	-3.897709	0.325581	-0.117860
O2	O	-3.888322	0.319012	0.003633
O3	O	-3.849491	0.323711	-0.231744
O4	O	-3.793307	0.467415	-0.116938
O5	O	-3.944895	0.174313	-0.111967
V6	V	-4.388570	0.307445	-0.103223
O7	O	-4.142871	0.365364	-0.149968
O8	O	-4.593606	0.267661	-0.071115
O9	O	-4.213583	0.309314	0.010661
O10	O	-4.515354	0.314014	-0.224716
O11	O	-4.458782	0.458712	-0.109115
O12	O	-4.269767	0.165610	-0.104145
C13	C	-3.696347	0.318667	-0.259479
C14	C	-3.737836	0.318084	-0.352586
C15	C	-3.869884	0.220689	-0.641761
C16	C	-3.830880	0.221221	-0.554274
C17	C	-3.835765	0.412347	-0.579334
C18	C	-3.874754	0.411814	-0.666819
C19	C	-3.891822	0.315983	-0.698030
C20	C	-3.813829	0.317047	-0.523058
C21	C	-3.771540	0.317623	-0.428201
C22	C	-3.934111	0.315406	-0.792893
C23	C	-3.624691	0.501974	-0.113028
C24	C	-3.620538	0.620106	-0.113027
C25	C	-4.101724	0.131046	-0.108053
C26	C	-4.084728	0.012913	-0.108052
V27	V	-3.880658	0.811745	-0.117866
O28	O	-3.917225	0.962932	-0.111972
O29	O	-3.786402	0.664558	-0.116944
O30	O	-3.830900	0.853504	-0.231748
O31	O	-3.872419	0.772679	0.003627
V32	V	-4.369573	0.849145	-0.103233
O33	O	-4.127757	0.796318	-0.149976
O34	O	-4.571877	0.887257	-0.071127
O35	O	-4.241015	0.985083	-0.104152
O36	O	-4.450196	0.703873	-0.109128
O37	O	-4.495002	0.894126	-0.224727
O38	O	-4.196518	0.796138	0.010651
C39	C	-4.030069	0.314355	0.038391
C40	C	-3.967816	0.314945	0.131498
C41	C	-3.677308	0.861124	-0.259476
C42	C	-3.717461	0.898406	-0.352582
C43	C	-4.014044	0.771549	0.038388
C44	C	-3.953166	0.733231	0.131495
C45	C	-3.916361	0.921381	-0.400609
C46	C	-3.954117	0.956427	-0.488090
C47	C	-3.792970	0.968489	-0.527545
C48	C	-3.594054	0.945514	-0.479512
C49	C	-3.556300	0.910476	-0.392031
C50	C	-3.750497	0.702826	0.170932
C51	C	-3.693264	0.666834	0.258418
C52	C	-3.838705	0.661241	0.306464
C53	C	-4.041391	0.691652	0.267022
C54	C	-4.098619	0.727650	0.179538
H55	H	-3.892610	0.489418	-0.712637
O56	O	-3.474652	0.634037	0.300948
H57	H	-3.461492	0.550029	0.331235
O58	O	-3.833593	1.006304	-0.621894
H59	H	-3.759057	1.080928	-0.633677
O60	O	-3.341758	0.885693	-0.340240
H61	H	-3.342548	0.859308	-0.272778
H62	H	-3.462860	0.955341	-0.511649
H63	H	-3.813015	0.143623	-0.508462
O64	O	-3.776974	0.622403	0.400821
H65	H	-3.611608	0.602192	0.420163
H66	H	-4.116096	0.975126	-0.527187
H67	H	-3.883773	0.142657	-0.667169
H68	H	-4.047600	0.911561	-0.368498
O69	O	-3.593607	0.708868	0.119122
H70	H	-3.443067	0.681690	0.161257
O71	O	-4.198256	0.685606	0.318845
H72	H	-4.124394	0.655452	0.386298
O73	O	-4.317226	0.760424	0.137002
H74	H	-4.408731	0.750471	0.185113
O75	O	-3.817760	0.515718	-0.545683
H76	H	-3.787123	0.500086	-0.475399
