data_functionalizedCrystal
_audit_creation_method	'MofGen! by Chris Wilmer'
_symmetry_space_group_name_H-M	'P1'
_symmetry_Int_Tables_number	1
_symmetry_cell_setting	triclinic
loop_
_symmetry_equiv_pos_as_xyz
  x,y,z
_cell_length_a	10.686220
_cell_length_b	16.120484
_cell_length_c	10.686551
_cell_angle_alpha	91.292191
_cell_angle_beta	89.691918
_cell_angle_gamma	97.070967
loop_
_atom_site_label
_atom_site_type_symbol
_atom_site_fract_x
_atom_site_fract_y
_atom_site_fract_z
Zn1	Zn	1.957921	-0.203137	0.579045
Zn2	Zn	2.291254	0.130196	0.912379
Zn3	Zn	2.624587	0.463530	1.245712
Zn4	Zn	1.931025	-0.353948	0.381655
Zn5	Zn	2.264359	-0.020615	0.714988
Zn6	Zn	2.597692	0.312718	1.048322
Zn7	Zn	1.730532	-0.224452	0.387111
Zn8	Zn	2.063865	0.108882	0.720444
Zn9	Zn	2.397198	0.442215	1.053778
Zn10	Zn	1.737575	-0.352260	0.607294
Zn11	Zn	2.070908	-0.018926	0.940628
Zn12	Zn	2.404242	0.314407	1.273961
O13	O	1.839263	-0.283449	0.488776
O14	O	2.172597	0.049884	0.822110
O15	O	2.505930	0.383218	1.155443
O16	O	2.130476	-0.214929	0.538756
O17	O	2.463809	0.118405	0.872089
O18	O	2.797142	0.451738	1.205422
O19	O	1.890226	-0.346397	0.207623
O20	O	2.223559	-0.013064	0.540956
O21	O	2.556893	0.320270	0.874289
O22	O	1.769004	-0.105021	0.403033
O23	O	2.102337	0.228312	0.736366
O24	O	2.435670	0.561646	1.069699
O25	O	2.110716	-0.325729	0.393734
O26	O	2.444049	0.007604	0.727067
O27	O	2.777383	0.340937	1.060400
O28	O	1.936065	-0.089361	0.544046
O29	O	2.269399	0.243972	0.877379
O30	O	2.602732	0.577305	1.210713
O31	O	1.742924	-0.251257	0.211631
O32	O	2.076258	0.082077	0.544965
O33	O	2.409591	0.415410	0.878298
O34	O	1.555343	-0.249619	0.430424
O35	O	1.888677	0.083714	0.763758
O36	O	2.222010	0.417047	1.097091
O37	O	1.781008	-0.322851	0.778303
O38	O	2.114341	0.010482	1.111636
O39	O	2.447674	0.343815	1.444970
O40	O	1.560518	-0.343519	0.592192
O41	O	1.893851	-0.010186	0.925525
O42	O	2.227185	0.323147	1.258859
O43	O	1.942895	-0.213292	0.757549
O44	O	2.276228	0.120042	1.090882
O45	O	2.609561	0.453375	1.424215
O46	O	1.897056	-0.470327	0.421125
O47	O	2.230389	-0.136994	0.754459
O48	O	2.563722	0.196339	1.087792
O49	O	1.754928	-0.469087	0.586902
O50	O	2.088262	-0.135753	0.920235
O51	O	2.421595	0.197580	1.253568
C52	C	1.512264	-0.298700	0.514966
C53	C	1.845597	0.034634	0.848300
C54	C	2.178931	0.367967	1.181633
C55	C	1.372373	-0.305242	0.526202
C56	C	1.705706	0.028091	0.859535
C57	C	2.039040	0.361425	1.192868
C58	C	1.823874	-0.499938	0.506511
C59	C	2.157207	-0.166605	0.839845
C60	C	2.490541	0.166729	1.173178
C61	C	1.817409	-0.592545	0.514131
C62	C	2.150742	-0.259212	0.847464
C63	C	2.484076	0.074122	1.180798
C64	C	1.805615	-0.762098	0.528067
C65	C	2.138948	-0.428764	0.861401
C66	C	2.472282	-0.095431	1.194734
C67	C	1.873138	-0.803948	0.449488
C68	C	2.206472	-0.470615	0.782821
C69	C	2.539805	-0.137282	1.116155
C70	C	1.866576	-0.898293	0.457242
C71	C	2.199910	-0.564960	0.790576
C72	C	2.533243	-0.231627	1.123909
C73	C	1.812176	-0.667744	0.520315
C74	C	2.145509	-0.334411	0.853648
C75	C	2.478842	-0.001078	1.186981
C76	C	2.167539	-0.268140	0.462485
C77	C	2.500873	0.065194	0.795818
C78	C	2.834206	0.398527	1.129152
C79	C	2.307431	-0.261616	0.451281
C80	C	2.640764	0.071718	0.784615
C81	C	2.974098	0.405051	1.117948
C82	C	1.865737	-0.265505	0.814505
C83	C	2.199070	0.067828	1.147838
C84	C	2.532404	0.401161	1.481172
C85	C	1.877019	-0.257859	0.953311
C86	C	2.210352	0.075474	1.286645
C87	C	2.543685	0.408808	1.619978
C88	C	1.854749	-0.066112	0.470997
C89	C	2.188082	0.267221	0.804330
C90	C	2.521416	0.600555	1.137664
C91	C	1.861348	0.026504	0.463420
C92	C	2.194681	0.359838	0.796754
C93	C	2.528015	0.693171	1.130087
C94	C	1.812969	-0.301259	0.164304
C95	C	2.146302	0.032074	0.497638
C96	C	2.479636	0.365407	0.830971
C97	C	1.801948	-0.308660	0.025460
C98	C	2.135281	0.024673	0.358793
C99	C	2.468615	0.358007	0.692127
H100	H	1.935874	-0.768923	0.376390
H101	H	2.269208	-0.435589	0.709723
H102	H	2.602541	-0.102256	1.043056
H103	H	1.742882	-0.797121	0.601158
H104	H	2.076215	-0.463788	0.934492
H105	H	2.409549	-0.130455	1.267825
O106	O	1.715136	-0.367568	0.972324
O107	O	2.048469	-0.034234	1.305657
O108	O	2.381802	0.299099	1.638991
C109	C	1.776904	-0.422162	0.895555
C110	C	2.110237	-0.088829	1.228889
C111	C	2.443571	0.244505	1.562222
H112	H	1.872819	-0.389381	0.866103
H113	H	2.206153	-0.056048	1.199436
H114	H	2.539486	0.277285	1.532769
H115	H	1.717477	-0.440715	0.808787
H116	H	2.050810	-0.107382	1.142120
H117	H	2.384143	0.225951	1.475454
H118	H	1.790363	-0.480535	0.949697
H119	H	2.123696	-0.147202	1.283030
H120	H	2.457030	0.186132	1.616363
H121	H	1.949930	-0.208516	0.997738
H122	H	2.283264	0.124817	1.331071
H123	H	2.616597	0.458150	1.664405
H124	H	1.358852	-0.219261	0.378542
H125	H	1.692185	0.114072	0.711875
H126	H	2.025519	0.447406	1.045209
H127	H	1.320945	-0.347606	0.598938
H128	H	1.654278	-0.014272	0.932271
H129	H	1.987612	0.319061	1.265605
