data_functionalizedCrystal
_audit_creation_method	'MofGen! by Chris Wilmer'
_symmetry_space_group_name_H-M	'P1'
_symmetry_Int_Tables_number	1
_symmetry_cell_setting	triclinic
loop_
_symmetry_equiv_pos_as_xyz
  x,y,z
_cell_length_a	25.639243
_cell_length_b	25.639239
_cell_length_c	16.625539
_cell_angle_alpha	89.968745
_cell_angle_beta	89.976850
_cell_angle_gamma	90.041410
loop_
_atom_site_label
_atom_site_type_symbol
_atom_site_fract_x
_atom_site_fract_y
_atom_site_fract_z
Zn1	Zn	0.799262	-0.208112	-0.455948
Zn2	Zn	0.799175	-0.295550	-0.321109
Zn3	Zn	0.711828	-0.208134	-0.321123
Zn4	Zn	0.711784	-0.295522	-0.455892
O5	O	0.755512	-0.251830	-0.388518
O6	O	0.872416	-0.219713	-0.438079
O7	O	0.787570	-0.283975	-0.208278
O8	O	0.723481	-0.134966	-0.339037
O9	O	0.872351	-0.283953	-0.339013
O10	O	0.787719	-0.134950	-0.438093
O11	O	0.723396	-0.219751	-0.208288
O12	O	0.638657	-0.219724	-0.338983
O13	O	0.723406	-0.283906	-0.568732
O14	O	0.638624	-0.283928	-0.437997
O15	O	0.787676	-0.219686	-0.568773
O16	O	0.787527	-0.368711	-0.338959
O17	O	0.723321	-0.368691	-0.437984
C18	C	0.619669	-0.251826	-0.388486
C19	C	0.561555	-0.251837	-0.388491
C20	C	0.755424	-0.387672	-0.388481
C21	C	0.755434	-0.445786	-0.388492
C22	C	0.201220	-0.218432	-0.440188
C23	C	0.146616	-0.218432	-0.440193
O24	O	0.118403	-0.190020	-0.484107
N25	N	0.119273	-0.251828	-0.388540
C26	C	0.146537	-0.285223	-0.336873
O27	O	0.118266	-0.313629	-0.292939
C28	C	0.201140	-0.285221	-0.336865
C29	C	0.228481	-0.251826	-0.388527
C30	C	0.228560	-0.185040	-0.491845
C31	C	0.283161	-0.185041	-0.491841
C32	C	0.310421	-0.218435	-0.440179
C33	C	0.283081	-0.251827	-0.388523
C34	C	0.228404	-0.318613	-0.285195
C35	C	0.283011	-0.318607	-0.285190
C36	C	0.310351	-0.285212	-0.336852
C37	C	0.364942	-0.285222	-0.336857
N38	N	0.392285	-0.251826	-0.388510
C39	C	0.365025	-0.218432	-0.440171
C40	C	0.031866	-0.285225	-0.336894
C41	C	-0.022736	-0.285231	-0.336906
C42	C	-0.022653	-0.218439	-0.440225
C43	C	0.031950	-0.218436	-0.440216
C44	C	0.059209	-0.251829	-0.388547
C45	C	0.479690	-0.218438	-0.440159
C46	C	0.534295	-0.218443	-0.440153
C47	C	0.534208	-0.285233	-0.336831
C48	C	0.479607	-0.285230	-0.336840
C49	C	0.452349	-0.251828	-0.388507
O50	O	0.393190	-0.313618	-0.292963
O51	O	0.393303	-0.190026	-0.484091
C52	C	0.789031	-0.806147	-0.337044
C53	C	0.789052	-0.860751	-0.337054
O54	O	0.817526	-0.888986	-0.293270
N55	N	0.755604	-0.888069	-0.388571
C56	C	0.722138	-0.860779	-0.440087
O57	O	0.693690	-0.889028	-0.483908
C58	C	0.722120	-0.806175	-0.440080
C59	C	0.755566	-0.778861	-0.388553
C60	C	0.822475	-0.778833	-0.285522
C61	C	0.822454	-0.724232	-0.285510
C62	C	0.788989	-0.696946	-0.337020
C63	C	0.755545	-0.724260	-0.388542
C64	C	0.688657	-0.778886	-0.491599
C65	C	0.688643	-0.724279	-0.491587
C66	C	0.722089	-0.696965	-0.440061
C67	C	0.722059	-0.642374	-0.440040
N68	N	0.755507	-0.615057	-0.388523
C69	C	0.788972	-0.642343	-0.337013
C70	C	0.722177	-0.975449	-0.440099
C71	C	0.722191	-1.030051	-0.440103
C72	C	0.789106	-1.030021	-0.337071
C73	C	0.789089	-0.975417	-0.337064
C74	C	0.755625	-0.948132	-0.388582
C75	C	0.788925	-0.527678	-0.336992
C76	C	0.788899	-0.473072	-0.336982
C77	C	0.721987	-0.473108	-0.440017
C78	C	0.722010	-0.527709	-0.440024
C79	C	0.755483	-0.554992	-0.388508
O80	O	0.693601	-0.614104	-0.483804
O81	O	0.817419	-0.614087	-0.293207
C82	C	0.891885	-0.251833	-0.388551
C83	C	0.949999	-0.251835	-0.388564
C84	C	0.755546	-0.251791	-0.598827
C85	C	0.755561	-0.251774	-0.688448
C86	C	0.755615	-0.115456	-0.388573
C87	C	0.755658	-0.057342	-0.388596
C88	C	0.755585	-0.251715	-1.016624
C89	C	0.755576	-0.251733	-0.925316
C90	C	0.755573	-0.251745	-0.852539
C91	C	0.755564	-0.251762	-0.761225
C92	C	0.755508	-0.251831	-0.179027
C93	C	0.755595	-0.251700	-0.089407
H94	H	0.556553	-0.191249	-0.482225
O95	O	0.453298	-0.185977	-0.490427
C96	C	0.489147	-0.156500	-0.536001
H97	H	0.528053	-0.177922	-0.538717
H98	H	0.473400	-0.150978	-0.599551
H99	H	0.494975	-0.116766	-0.506590
H100	H	0.556413	-0.312423	-0.294772
O101	O	0.309774	-0.152572	-0.541906
C102	C	0.341356	-0.118754	-0.496089
H103	H	0.349509	-0.137146	-0.434935
H104	H	0.379766	-0.111767	-0.528950
H105	H	0.320332	-0.080004	-0.487334
H106	H	0.054058	-0.312423	-0.294821
O107	O	0.821440	-0.446621	-0.286903
C108	C	0.850972	-0.482418	-0.241431
H109	H	0.852784	-0.521323	-0.274471
H110	H	0.892165	-0.466601	-0.232887
H111	H	0.831850	-0.488274	-0.180167
O112	O	0.452990	-0.317599	-0.286622
C113	C	0.421426	-0.287787	-0.234611
H114	H	0.413282	-0.248188	-0.263160
H115	H	0.383011	-0.309073	-0.223740
H116	H	0.442462	-0.281993	-0.174877
O117	O	0.689576	-0.554223	-0.490186
C118	C	0.700960	-0.540817	-0.570559
H119	H	0.742721	-0.525755	-0.574684
H120	H	0.696460	-0.576713	-0.610399
H121	H	0.672907	-0.509146	-0.591585
H122	H	0.206153	-0.345806	-0.243125
O123	O	0.821370	-0.554238	-0.286921
C124	C	0.791641	-0.585873	-0.234787
H125	H	0.752009	-0.594087	-0.263159
H126	H	0.812961	-0.624250	-0.224030
H127	H	0.785914	-0.564864	-0.175018
H128	H	0.849729	-0.801043	-0.243576
H129	H	0.305202	-0.345799	-0.243113
O130	O	0.854998	-0.697784	-0.235440
C131	C	0.884528	-0.733585	-0.189974
H132	H	0.886330	-0.772491	-0.223014
H133	H	0.925724	-0.717776	-0.181438
H134	H	0.865411	-0.739438	-0.128705
O135	O	0.821629	-0.948967	-0.286989
C136	C	0.851155	-0.984766	-0.241513
H137	H	0.852963	-1.023673	-0.274551
H138	H	0.892349	-0.968955	-0.232967
H139	H	0.832031	-0.990619	-0.180250
O140	O	0.821636	-1.056613	-0.287167
C141	C	0.814487	-1.110663	-0.298246
H142	H	0.797292	-1.118094	-0.360419
H143	H	0.853673	-1.131360	-0.292940
H144	H	0.786715	-1.126240	-0.250338
H145	H	0.694922	-0.953236	-0.482049
O146	O	0.689409	-0.446622	-0.489973
C147	C	0.637306	-0.460032	-0.472308
H148	H	0.634684	-0.475072	-0.407893
H149	H	0.611466	-0.424145	-0.479220
H150	H	0.623638	-0.491723	-0.515526
H151	H	0.206371	-0.157844	-0.533914
H152	H	0.694951	-1.052286	-0.482054
O153	O	0.656152	-0.805330	-0.541731
C154	C	0.626610	-0.769527	-0.587175
H155	H	0.648016	-0.730582	-0.589978
H156	H	0.621018	-0.785274	-0.650703
H157	H	0.586908	-0.763773	-0.557594
H158	H	0.054207	-0.191242	-0.482282
H159	H	-0.044859	-0.191246	-0.482288
O160	O	0.656108	-0.697719	-0.541522
C161	C	0.622331	-0.666201	-0.495566
H162	H	0.640787	-0.658023	-0.434487
H163	H	0.615296	-0.627800	-0.528397
H164	H	0.583597	-0.687294	-0.486655
O165	O	-0.049210	-0.317692	-0.286652
C166	C	-0.013434	-0.347173	-0.241074
H167	H	0.025503	-0.325753	-0.238344
H168	H	-0.029229	-0.352701	-0.177530
H169	H	-0.007645	-0.386906	-0.270492
