data_functionalizedCrystal
_audit_creation_method	'MofGen! by Chris Wilmer'
_symmetry_space_group_name_H-M	'P1'
_symmetry_Int_Tables_number	1
_symmetry_cell_setting	triclinic
loop_
_symmetry_equiv_pos_as_xyz
  x,y,z
_cell_length_a	10.654550
_cell_length_b	17.038272
_cell_length_c	9.130313
_cell_angle_alpha	89.998262
_cell_angle_beta	89.996220
_cell_angle_gamma	87.798229
loop_
_atom_site_label
_atom_site_type_symbol
_atom_site_fract_x
_atom_site_fract_y
_atom_site_fract_z
O1	O	1.678036	0.109874	-0.121922
O2	O	1.313530	0.120343	-0.121899
O3	O	1.493617	0.001281	-0.121899
O4	O	1.497950	0.228936	-0.121923
O5	O	1.493615	0.001284	0.121700
O6	O	1.313528	0.120346	0.121700
O7	O	1.678034	0.109878	0.121676
Cu8	Cu	1.495781	0.115112	0.143931
Cu9	Cu	1.495783	0.115108	-0.144153
O10	O	1.497948	0.228939	0.121676
C11	C	1.266660	0.119576	-0.000097
C12	C	1.127003	0.117276	-0.000087
C13	C	1.054026	0.187378	-0.000116
C14	C	0.922804	0.185212	-0.000141
C15	C	0.937548	0.042837	-0.000115
C16	C	1.068767	0.045004	-0.000080
C17	C	1.045513	0.269577	-0.000137
C18	C	0.914292	0.267411	-0.000162
C19	C	1.489675	-0.027867	-0.000100
C20	C	1.477918	-0.114726	-0.000099
C21	C	1.585862	-0.164237	-0.000105
C22	C	1.574808	-0.245850	-0.000118
C23	C	1.455808	-0.277949	-0.000115
C24	C	1.347856	-0.228431	-0.000114
C25	C	1.358911	-0.146821	-0.000111
C26	C	1.416750	-0.523925	-0.000133
C27	C	1.405702	-0.605542	-0.000131
C28	C	1.632656	-0.622955	-0.000137
C29	C	1.643701	-0.541342	-0.000126
C30	C	1.535749	-0.491831	-0.000133
C31	C	1.444505	-0.361370	-0.000124
C32	C	1.547052	-0.408412	-0.000134
C33	C	1.724905	0.110645	-0.000129
C34	C	1.864562	0.112944	-0.000148
C35	C	1.501889	0.258088	-0.000126
C36	C	1.513646	0.344947	-0.000136
N37	N	1.495788	0.115114	0.346553
N38	N	1.495785	0.115100	-0.346776
C39	C	1.575554	0.062412	0.423205
C40	C	1.575550	0.062403	0.576542
C41	C	1.416010	0.167805	0.576561
C42	C	1.416009	0.167810	0.423227
C43	C	1.667667	0.001561	0.423195
C44	C	1.667663	0.001552	0.576532
H45	H	0.890116	-0.016005	-0.000131
H46	H	1.271011	-0.106509	-0.000107
C47	C	1.298000	-0.469474	-0.000114
C48	C	1.202855	-0.473515	-0.126589
C49	C	1.084097	-0.419062	-0.126562
C50	C	1.060485	-0.360568	-0.000060
C51	C	1.155633	-0.356525	0.126426
C52	C	1.274391	-0.410978	0.126399
H53	H	1.220332	-0.516818	-0.220243
H54	H	1.013663	-0.422055	-0.220196
H55	H	0.972573	-0.320259	-0.000040
H56	H	1.138156	-0.313222	0.220079
H57	H	1.344825	-0.407985	0.220032
C58	C	0.855698	0.300971	0.141905
C59	C	0.877155	0.386633	0.186149
C60	C	0.818562	0.420188	0.328215
C61	C	0.738512	0.368081	0.426037
C62	C	0.717052	0.282413	0.381795
C63	C	0.775645	0.248858	0.239729
H64	H	0.936416	0.425211	0.113733
H65	H	0.834449	0.483605	0.360965
H66	H	0.695138	0.392921	0.531203
H67	H	0.657791	0.243836	0.454210
H68	H	0.759758	0.185441	0.206978
H69	H	1.250963	-0.254573	-0.000121
C70	C	1.799716	0.019673	0.632745
C71	C	1.818410	0.092243	0.729715
C72	C	1.950456	0.110372	0.785922
C73	C	2.063808	0.055931	0.745159
C74	C	2.045118	-0.016644	0.648185
C75	C	1.913072	-0.034772	0.591978
H76	H	1.734496	0.132548	0.759894
H77	H	1.964290	0.164097	0.857709
H78	H	2.161556	0.069351	0.786767
H79	H	2.129031	-0.056948	0.618005
H80	H	1.899237	-0.088497	0.520191
C81	C	1.096980	0.304940	-0.142209
C82	C	1.005886	0.333008	-0.263986
C83	C	1.057353	0.368369	-0.406059
C84	C	1.199915	0.375661	-0.426356
C85	C	1.291018	0.347592	-0.304575
C86	C	1.239550	0.312231	-0.162502
H87	H	0.900345	0.327610	-0.248965
H88	H	0.989913	0.389148	-0.496209
H89	H	1.238015	0.401838	-0.531527
H90	H	1.396558	0.352990	-0.319596
H91	H	1.306991	0.291453	-0.072351
C92	C	1.631149	-0.079665	0.366965
C93	C	1.711811	-0.153378	0.407698
C94	C	1.675291	-0.234601	0.351467
C95	C	1.558109	-0.242111	0.254503
C96	C	1.477440	-0.168395	0.213764
C97	C	1.513959	-0.087172	0.269995
H98	H	1.798563	-0.147821	0.479482
H99	H	1.735009	-0.289170	0.381626
H100	H	1.531075	-0.302237	0.212878
H101	H	1.390688	-0.173952	0.141981
H102	H	1.454242	-0.032603	0.239837
H103	H	1.128180	-0.012080	-0.000035
C104	C	1.693552	-0.300309	-0.000119
C105	C	1.788677	-0.296275	0.126379
C106	C	1.907429	-0.350733	0.126374
C107	C	1.931057	-0.409225	-0.000128
C108	C	1.835930	-0.413261	-0.126636
C109	C	1.717177	-0.358803	-0.126631
H110	H	1.771189	-0.252974	0.220032
H111	H	1.977849	-0.347745	0.220024
H112	H	2.018964	-0.449538	-0.000132
H113	H	1.853418	-0.456562	-0.220289
H114	H	1.646758	-0.361791	-0.220281
H115	H	1.760620	0.020614	0.375629
C116	C	1.619346	-0.075220	0.640773
C117	C	1.704966	-0.126834	0.740399
C118	C	1.656659	-0.203607	0.804635
C119	C	1.522731	-0.228766	0.769244
C120	C	1.437103	-0.177151	0.669613
C121	C	1.485410	-0.100378	0.605378
H122	H	1.804115	-0.108211	0.766602
H123	H	1.720047	-0.241816	0.878388
H124	H	1.486971	-0.285598	0.816795
H125	H	1.337954	-0.195774	0.643410
H126	H	1.422022	-0.062169	0.531624
H127	H	1.077829	0.301726	0.101811
H128	H	0.875436	0.298381	-0.102119
H129	H	1.682764	-0.138109	-0.000098
H130	H	1.740603	-0.515213	-0.000128
H131	H	1.347615	-0.387514	-0.000119
H132	H	1.308794	-0.631674	-0.000105
H133	H	1.720544	-0.663275	-0.000135
H134	H	1.643941	-0.382273	-0.000169
H135	H	1.351046	0.210718	0.360818
H136	H	1.351055	0.210708	0.639006
