data_functionalizedCrystal
_audit_creation_method	'MofGen! by Chris Wilmer'
_symmetry_space_group_name_H-M	'P1'
_symmetry_Int_Tables_number	1
_symmetry_cell_setting	triclinic
loop_
_symmetry_equiv_pos_as_xyz
  x,y,z
_cell_length_a	10.686220
_cell_length_b	10.686685
_cell_length_c	11.169409
_cell_angle_alpha	85.655528
_cell_angle_beta	85.651653
_cell_angle_gamma	89.688259
loop_
_atom_site_label
_atom_site_type_symbol
_atom_site_fract_x
_atom_site_fract_y
_atom_site_fract_z
Zn1	Zn	1.956151	-0.351966	0.561788
Zn2	Zn	2.289484	-0.018633	0.895121
Zn3	Zn	2.622817	0.314700	1.228455
Zn4	Zn	1.972122	-0.561767	0.375266
Zn5	Zn	2.305456	-0.228434	0.708599
Zn6	Zn	2.638789	0.104900	1.041932
Zn7	Zn	1.746374	-0.368150	0.377582
Zn8	Zn	2.079707	-0.034816	0.710915
Zn9	Zn	2.413041	0.298517	1.044249
Zn10	Zn	1.762455	-0.577763	0.592349
Zn11	Zn	2.095789	-0.244429	0.925682
Zn12	Zn	2.429122	0.088904	1.259015
O13	O	1.859276	-0.464911	0.476746
O14	O	2.192609	-0.131578	0.810079
O15	O	2.525942	0.201755	1.143413
O16	O	2.133808	-0.366330	0.523286
O17	O	2.467142	-0.032996	0.856620
O18	O	2.800475	0.300337	1.189953
O19	O	1.942131	-0.536162	0.207632
O20	O	2.275464	-0.202829	0.540966
O21	O	2.608797	0.130505	0.874299
O22	O	1.760787	-0.190477	0.390197
O23	O	2.094120	0.142856	0.723530
O24	O	2.427454	0.476190	1.056864
O25	O	2.145543	-0.520469	0.386249
O26	O	2.478876	-0.187136	0.719583
O27	O	2.812209	0.146197	1.052916
O28	O	1.914909	-0.178587	0.525532
O29	O	2.248242	0.154747	0.858866
O30	O	2.581576	0.488080	1.192199
O31	O	1.776274	-0.393912	0.209334
O32	O	2.109607	-0.060579	0.542667
O33	O	2.442941	0.272754	0.876001
O34	O	1.572968	-0.409423	0.419830
O35	O	1.906302	-0.076089	0.753164
O36	O	2.239635	0.257244	1.086497
O37	O	1.788195	-0.547732	0.756235
O38	O	2.121529	-0.214398	1.089569
O39	O	2.454862	0.118935	1.422902
O40	O	1.584783	-0.563424	0.577619
O41	O	1.918117	-0.230091	0.910952
O42	O	2.251450	0.103242	1.244285
O43	O	1.930503	-0.381840	0.733783
O44	O	2.263836	-0.048507	1.067116
O45	O	2.597169	0.284827	1.400449
O46	O	1.957724	-0.739415	0.415883
O47	O	2.291057	-0.406082	0.749216
O48	O	2.624391	-0.072748	1.082549
O49	O	1.803683	-0.751167	0.575372
O50	O	2.137016	-0.417834	0.908706
O51	O	2.470349	-0.084500	1.242039
C52	C	1.533361	-0.489916	0.502293
C53	C	1.866694	-0.156583	0.835626
C54	C	2.200027	0.176750	1.168960
C55	C	1.393935	-0.500644	0.513252
C56	C	1.727268	-0.167310	0.846586
C57	C	2.060602	0.166023	1.179919
C58	C	1.884216	-0.790800	0.498716
C59	C	2.217549	-0.457467	0.832049
C60	C	2.550882	-0.124134	1.165383
C61	C	1.895000	-0.930208	0.508146
C62	C	2.228333	-0.596875	0.841479
C63	C	2.561666	-0.263542	1.174813
C64	C	2.186463	-0.439810	0.451100
C65	C	2.519797	-0.106477	0.784434
C66	C	2.853130	0.226857	1.117767
C67	C	2.325891	-0.429113	0.440172
C68	C	2.659225	-0.095780	0.773505
C69	C	2.992558	0.237553	1.106838
C70	C	1.859361	-0.464765	0.789772
C71	C	2.192695	-0.131431	1.123105
C72	C	2.526028	0.201902	1.456438
C73	C	1.859398	-0.464702	0.923165
C74	C	2.192731	-0.131369	1.256498
C75	C	2.526064	0.201964	1.589831
C76	C	1.834272	-0.137747	0.454714
C77	C	2.167606	0.195586	0.788047
C78	C	2.500939	0.528919	1.121381
C79	C	1.823618	0.001671	0.445325
C80	C	2.156951	0.335004	0.778659
C81	C	2.490284	0.668337	1.111992
C82	C	1.859256	-0.464962	0.164927
C83	C	2.192589	-0.131628	0.498260
C84	C	2.525922	0.201705	0.831593
C85	C	1.859435	-0.464652	0.031491
C86	C	2.192768	-0.131319	0.364825
C87	C	2.526102	0.202015	0.698158
H88	H	1.345520	-0.570102	0.584203
H89	H	1.678854	-0.236769	0.917536
H90	H	2.012187	0.096565	1.250869
H91	H	1.754255	-0.949995	0.384324
H92	H	2.087588	-0.616661	0.717658
H93	H	2.420922	-0.283328	1.050991
O94	O	1.389999	-0.337109	0.346188
O95	O	1.723332	-0.003776	0.679522
O96	O	2.056666	0.329558	1.012855
H97	H	1.493121	-0.342826	0.352048
H98	H	1.826454	-0.009493	0.685381
H99	H	2.159787	0.323840	1.018715
O100	O	1.986876	-0.994212	0.588951
O101	O	2.320209	-0.660879	0.922284
O102	O	2.653542	-0.327545	1.255617
H103	H	1.981203	-1.097337	0.583931
H104	H	2.314536	-0.764004	0.917264
H105	H	2.647869	-0.430671	1.250598
