data_functionalizedCrystal
_audit_creation_method	'MofGen! by Chris Wilmer'
_symmetry_space_group_name_H-M	'P1'
_symmetry_Int_Tables_number	1
_symmetry_cell_setting	triclinic
loop_
_symmetry_equiv_pos_as_xyz
  x,y,z
_cell_length_a	19.288864
_cell_length_b	19.288865
_cell_length_c	17.766277
_cell_angle_alpha	90.012963
_cell_angle_beta	90.012907
_cell_angle_gamma	83.136245
loop_
_atom_site_label
_atom_site_type_symbol
_atom_site_fract_x
_atom_site_fract_y
_atom_site_fract_z
O1	O	0.921342	0.086651	0.062844
O2	O	0.719082	0.098340	0.062794
O3	O	0.826056	-0.008635	0.062806
O4	O	0.814368	0.193626	0.062832
O5	O	0.826059	-0.008645	-0.062383
O6	O	0.719084	0.098329	-0.062395
O7	O	0.921345	0.086641	-0.062344
Cu8	Cu	0.820215	0.092484	-0.073800
Cu9	Cu	0.820212	0.092497	0.074250
O10	O	0.814370	0.193615	-0.062356
C11	C	0.693207	0.097959	0.000193
C12	C	0.616103	0.096830	0.000173
C13	C	0.571407	0.159598	0.000193
C14	C	0.498960	0.158537	0.000201
C15	C	0.471212	0.094705	0.000205
C16	C	0.515918	0.031929	0.000180
C17	C	0.588364	0.032991	0.000164
C18	C	0.362949	0.044529	0.044082
C19	C	0.290505	0.043469	0.044103
C20	C	0.247767	0.091425	0.000250
C21	C	0.277480	0.140452	-0.043614
C22	C	0.349926	0.141515	-0.043630
C23	C	0.392658	0.093546	0.000221
C24	C	0.124514	0.153047	0.000278
C25	C	0.052066	0.151984	0.000281
C26	C	0.069026	0.025374	0.000267
C27	C	0.141473	0.026439	0.000256
C28	C	0.169212	0.090278	0.000265
C29	C	0.825682	-0.034516	0.000209
C30	C	0.824553	-0.111620	0.000202
C31	C	0.887321	-0.156316	0.000214
C32	C	0.886260	-0.228763	0.000226
C33	C	0.822428	-0.256511	0.000210
C34	C	0.759652	-0.211805	0.000203
C35	C	0.760714	-0.139359	0.000198
C36	C	0.772249	-0.364802	-0.043653
C37	C	0.771189	-0.437246	-0.043654
C38	C	0.819148	-0.479956	0.000226
C39	C	0.868179	-0.450215	0.044097
C40	C	0.869241	-0.377769	0.044093
C41	C	0.821269	-0.335065	0.000215
C42	C	0.880770	-0.603209	0.000252
C43	C	0.879707	-0.675657	0.000268
C44	C	0.753097	-0.658697	0.000238
C45	C	0.754162	-0.586250	0.000229
C46	C	0.818000	-0.558511	0.000232
C47	C	0.947220	0.087022	0.000258
C48	C	1.024324	0.088151	0.000283
C49	C	0.814745	0.219497	0.000242
C50	C	0.815874	0.296601	0.000254
N51	N	0.820210	0.092501	0.178380
N52	N	0.820222	0.092475	-0.177931
C53	C	0.867663	0.045224	0.217772
C54	C	0.867669	0.045223	0.296574
C55	C	0.820210	0.092492	0.335981
C56	C	0.772754	0.139777	0.296579
C57	C	0.772754	0.139781	0.217779
C58	C	0.756923	0.101637	0.460811
C59	C	0.756922	0.101627	0.539610
C60	C	0.820210	0.092482	0.579027
C61	C	0.883503	0.083330	0.539636
C62	C	0.883503	0.083335	0.460836
C63	C	0.820205	0.092492	0.421426
C64	C	0.867673	0.045202	0.703865
C65	C	0.867680	0.045205	0.782668
C66	C	0.772760	0.139755	0.782672
C67	C	0.772759	0.139755	0.703870
C68	C	0.820215	0.092474	0.664471
H69	H	0.015674	0.203099	0.000293
C70	C	0.038513	-0.044840	0.000275
H71	H	-0.011035	-0.036485	0.000293
H72	H	0.053853	-0.070684	-0.043384
H73	H	0.053886	-0.070667	0.043934
H74	H	0.906312	0.006724	0.328653
H75	H	0.906306	0.006727	0.185696
H76	H	0.731263	-0.461456	-0.079371
C77	C	0.920932	-0.497185	0.092372
H78	H	0.913273	-0.544590	0.086102
H79	H	0.967063	-0.491476	0.076966
H80	H	0.914994	-0.484475	0.143838
H81	H	0.266317	0.003551	0.079822
H82	H	0.709599	-0.102967	0.000188
C83	C	0.953118	0.073280	0.417508
H84	H	0.990813	0.067837	0.452264
H85	H	0.954730	0.032828	0.386752
H86	H	0.956762	0.112985	0.386785
C87	C	0.682881	-0.689207	0.000224
H88	H	0.645649	-0.652208	0.000219
H89	H	0.679833	-0.717129	-0.043429
H90	H	0.679836	-0.717101	0.043888
H91	H	0.177866	-0.024674	0.000244
C92	C	0.719490	-0.317827	-0.091923
H93	H	0.690146	-0.345915	-0.118057
H94	H	0.691858	-0.285801	-0.060313
H95	H	0.743924	-0.292794	-0.127189
H96	H	0.147101	0.205028	0.000274
C97	C	0.953124	0.073282	0.582984
H98	H	0.944063	0.074602	0.635556
H99	H	0.978116	0.029451	0.570069
H100	H	0.980140	0.109609	0.570079
H101	H	0.705386	0.109071	0.571676
C102	C	0.689438	-0.242324	0.000183
H103	H	0.697795	-0.291872	0.000179
H104	H	0.663601	-0.226958	0.043832
H105	H	0.663605	-0.226977	-0.043485
C106	C	0.919875	-0.006800	0.660523
H107	H	0.948145	-0.034951	0.695273
H108	H	0.895041	-0.035703	0.629771
H109	H	0.948656	0.018178	0.629796
H110	H	0.397742	0.005477	0.079797
H111	H	0.593987	0.211580	0.000202
C112	C	0.449785	0.227584	0.000235
H113	H	0.476682	0.265755	0.000244
H114	H	0.421149	0.229805	-0.043410
H115	H	0.421195	0.229793	0.043908
C116	C	0.485399	-0.038285	0.000188
H117	H	0.435851	-0.029928	0.000209
H118	H	0.500736	-0.064127	-0.043473
H119	H	0.500774	-0.064114	0.043844
H120	H	0.705382	0.109088	0.428724
C121	C	0.919880	-0.006802	0.826000
H122	H	0.948136	-0.034962	0.791247
H123	H	0.948663	0.018165	0.856754
H124	H	0.895040	-0.035707	0.856725
C125	C	0.720551	0.191770	0.339923
H126	H	0.727342	0.184992	0.392496
H127	H	0.727857	0.238134	0.327026
H128	H	0.674243	0.184252	0.326993
H129	H	0.374116	0.181432	-0.079347
C130	C	0.230477	0.193210	-0.091850
H131	H	0.183077	0.185554	-0.085566
H132	H	0.236202	0.239339	-0.076422
H133	H	0.243149	0.187276	-0.143324
C134	C	0.720563	0.191757	0.826009
H135	H	0.727358	0.184983	0.878583
H136	H	0.727874	0.238117	0.813106
H137	H	0.674252	0.184244	0.813086
C138	C	0.637532	-0.036057	0.000151
H139	H	0.610633	-0.074226	0.000158
H140	H	0.666133	-0.038279	-0.043508
H141	H	0.666156	-0.038267	0.043810
C142	C	0.720556	0.191754	0.660536
H143	H	0.692288	0.219903	0.695289
H144	H	0.745388	0.220660	0.629811
H145	H	0.691774	0.166779	0.629783
H146	H	0.734112	0.178280	0.185705
H147	H	0.939303	-0.133736	0.000220
H148	H	0.937375	-0.265162	0.000238
H149	H	0.909162	-0.353556	0.079815
H150	H	0.932751	-0.580622	0.000258
C151	C	0.948755	-0.724823	0.000280
H152	H	0.986924	-0.697924	0.000274
H153	H	0.950978	-0.753426	0.043938
H154	H	0.950967	-0.753448	-0.043379
C155	C	0.685116	-0.537082	0.000203
H156	H	0.646947	-0.563981	0.000189
H157	H	0.682896	-0.508454	0.043855
H158	H	0.682903	-0.508483	-0.043463
