data_functionalizedCrystal
_audit_creation_method	'MofGen! by Chris Wilmer'
_symmetry_space_group_name_H-M	'P1'
_symmetry_Int_Tables_number	1
_symmetry_cell_setting	triclinic
loop_
_symmetry_equiv_pos_as_xyz
  x,y,z
_cell_length_a	18.050591
_cell_length_b	21.295417
_cell_length_c	18.050582
_cell_angle_alpha	89.973245
_cell_angle_beta	89.979078
_cell_angle_gamma	90.026512
loop_
_atom_site_label
_atom_site_type_symbol
_atom_site_fract_x
_atom_site_fract_y
_atom_site_fract_z
Zn1	Zn	1.135281	-0.250716	-0.420010
Zn2	Zn	1.135186	-0.355977	-0.295811
Zn3	Zn	1.011100	-0.250719	-0.295821
Zn4	Zn	1.011043	-0.355944	-0.419946
O5	O	1.073153	-0.303339	-0.357897
O6	O	1.239193	-0.264692	-0.403557
O7	O	1.118710	-0.342030	-0.191887
O8	O	1.027636	-0.162629	-0.312326
O9	O	1.239124	-0.342027	-0.312308
O10	O	1.118871	-0.162627	-0.403567
O11	O	1.027545	-0.264697	-0.191895
O12	O	0.907168	-0.264664	-0.312264
O13	O	1.027539	-0.341971	-0.523879
O14	O	0.907126	-0.341973	-0.403458
O15	O	1.118816	-0.264660	-0.523926
O16	O	1.118655	-0.444062	-0.312247
O17	O	1.027448	-0.444038	-0.403449
C18	C	0.880200	-0.303316	-0.357856
C19	C	0.797655	-0.303321	-0.357856
C20	C	1.073055	-0.466891	-0.357856
C21	C	1.073081	-0.536859	-0.357863
C22	C	0.598205	-0.261232	-0.308379
C23	C	0.548783	-0.318646	-0.290098
C24	C	0.646524	-0.303340	-0.357889
C25	C	0.548865	-0.245945	-0.376169
C26	C	0.500539	-0.303353	-0.357920
C27	C	0.598189	-0.360785	-0.339573
C28	C	0.598276	-0.288045	-0.425676
C29	C	0.548875	-0.345499	-0.407420
C30	C	0.730623	-0.303331	-0.357870
C31	C	0.416443	-0.303368	-0.357940
C32	C	1.120615	-0.569717	-0.310423
C33	C	1.120650	-0.635460	-0.310440
C34	C	1.073138	-0.668341	-0.357889
C35	C	1.025600	-0.635475	-0.405338
C36	C	1.025572	-0.569734	-0.405325
N37	N	1.008171	-0.771604	-0.363536
N38	N	1.008200	-0.834055	-0.363544
C39	C	1.073221	-0.866416	-0.357931
N40	N	1.138214	-0.833966	-0.352296
N41	N	1.138184	-0.771509	-0.352284
C42	C	1.073163	-0.739627	-0.357908
C43	C	1.120797	-0.970560	-0.310507
C44	C	1.120833	-1.036304	-0.310529
C45	C	1.025776	-1.036318	-0.405423
C46	C	1.025747	-0.970575	-0.405405
C47	C	1.073256	-0.937700	-0.357943
C48	C	1.266858	-0.303363	-0.357939
C49	C	1.349404	-0.303373	-0.357956
C50	C	1.073182	-0.303311	-0.551603
C51	C	1.073194	-0.303299	-0.634148
C52	C	1.073270	-0.139149	-0.357954
C53	C	1.073321	-0.069181	-0.357979
C54	C	1.023596	-0.345283	-0.833574
C55	C	1.091350	-0.360675	-0.882971
C56	C	1.073231	-0.303251	-0.785279
C57	C	1.005513	-0.287842	-0.882964
C58	C	1.073260	-0.303206	-0.931264
C59	C	1.141021	-0.318673	-0.833589
C60	C	1.055138	-0.245814	-0.833577
C61	C	1.122940	-0.261183	-0.882952
C62	C	1.073213	-0.303279	-0.701181
C63	C	1.073286	-0.303178	-1.015361
C64	C	1.073166	-0.303322	-0.164945
C65	C	1.073298	-0.303156	-0.082399
H66	H	0.619865	-0.225660	-0.266464
H67	H	0.987037	-0.943820	-0.444032
H68	H	0.981660	-0.380875	-0.811894
C69	C	1.112046	-0.426269	-0.912286
N70	N	1.127629	-0.475675	-0.934365
C71	C	0.973513	-1.072484	-0.457619
N72	N	0.934148	-1.099727	-0.496936
H73	H	0.527352	-0.381156	-0.449303
C74	C	1.218425	-0.336335	-0.804414
N75	N	1.276723	-0.349641	-0.782438
C76	C	1.179726	-0.213137	-0.912059
N77	N	1.222500	-0.176951	-0.933984
C78	C	1.034412	-0.180239	-0.804238
N79	N	1.018792	-0.130848	-0.782137
H80	H	0.527159	-0.197408	-0.391591
C81	C	0.519409	-0.336134	-0.212673
N82	N	0.497285	-0.349301	-0.154356
C83	C	0.627335	-0.426383	-0.318609
N84	N	0.649289	-0.475790	-0.302815
C85	C	0.627675	-0.270528	-0.503076
N86	N	0.649823	-0.257326	-0.561374
H87	H	1.159302	-0.542953	-0.271778
H88	H	0.948233	-0.274828	-0.904653
C89	C	0.973334	-0.671646	-0.457529
N90	N	0.933966	-0.698890	-0.496842
C91	C	1.172940	-0.671612	-0.258246
N92	N	1.212322	-0.698839	-0.218931
C93	C	1.173068	-0.934396	-0.258309
N94	N	1.212442	-0.907158	-0.218996
C95	C	0.973288	-0.533588	-0.457525
N96	N	0.933910	-0.506363	-0.496845
C97	C	1.173126	-1.072448	-0.258337
N98	N	1.212513	-1.099672	-0.219024
