data_functionalizedCrystal
_audit_creation_method	'MofGen! by Chris Wilmer'
_symmetry_space_group_name_H-M	'P1'
_symmetry_Int_Tables_number	1
_symmetry_cell_setting	triclinic
loop_
_symmetry_equiv_pos_as_xyz
  x,y,z
_cell_length_a	13.330367
_cell_length_b	14.853567
_cell_length_c	14.853567
_cell_angle_alpha	83.634930
_cell_angle_beta	89.999156
_cell_angle_gamma	89.995418
loop_
_atom_site_label
_atom_site_type_symbol
_atom_site_fract_x
_atom_site_fract_y
_atom_site_fract_z
O1	O	0.083346	-1.196369	-0.117704
O2	O	0.083362	-0.933909	-0.131725
O3	O	0.083356	-1.072150	0.006515
O4	O	0.083351	-1.058128	-0.255944
O5	O	-0.083491	-1.072130	0.006519
O6	O	-0.083485	-0.933889	-0.131722
O7	O	-0.083501	-1.196349	-0.117700
Cu8	Cu	-0.098728	-1.065117	-0.124711
Cu9	Cu	0.098588	-1.065141	-0.124715
O10	O	-0.083496	-1.058108	-0.255941
C11	C	-0.000060	-0.900311	-0.131088
C12	C	-0.000053	-0.800227	-0.129184
C13	C	-0.000064	-1.071504	0.040106
C14	C	-0.000055	-1.069601	0.140189
N15	N	-0.237509	-1.065107	-0.124708
C16	C	-0.710130	-1.003925	-0.185903
C17	C	-0.710103	-1.126381	-0.063519
C18	C	-0.605084	-1.126371	-0.063516
C19	C	-0.552584	-1.065138	-0.124709
C20	C	-0.605102	-1.003915	-0.185904
C21	C	-0.552559	-1.187598	-0.002328
C22	C	-0.447534	-1.187591	-0.002323
C23	C	-0.395031	-1.126353	-0.063512
C24	C	-0.447556	-1.065127	-0.124710
C25	C	-0.395055	-1.003895	-0.185902
C26	C	-0.447578	-0.942664	-0.247096
C27	C	-0.552599	-0.942677	-0.247093
C28	C	-0.290010	-1.126340	-0.063515
C29	C	-0.290027	-1.003884	-0.185903
N30	N	0.237370	-1.065158	-0.124711
C31	C	-0.000078	-1.229947	-0.118337
C32	C	-0.000078	-1.330031	-0.120241
C33	C	-0.000074	-0.387693	-0.039019
C34	C	-0.000076	-0.366412	-0.203251
C35	C	-0.000073	-0.460446	-0.205042
C36	C	-0.000069	-0.518108	-0.123819
C37	C	-0.000067	-0.481736	-0.040806
C38	C	-0.000064	-0.496825	-0.288053
C39	C	-0.000059	-0.590864	-0.289846
C40	C	-0.000062	-0.648528	-0.208623
C41	C	-0.000062	-0.612150	-0.125607
C42	C	-0.000058	-0.669812	-0.044384
C43	C	-0.000065	-0.633437	0.038633
C44	C	-0.000070	-0.539399	0.040417
C45	C	-0.000057	-0.742565	-0.210407
C46	C	-0.000052	-0.763855	-0.046172
C47	C	-0.000073	-1.058754	-0.289531
C48	C	-0.000075	-1.060657	-0.389615
C49	C	-0.000069	-0.979435	0.552723
C50	C	-0.000079	-1.143668	0.574004
C51	C	-0.000073	-1.145458	0.479971
C52	C	-0.000067	-1.064235	0.422309
C53	C	-0.000066	-0.981223	0.458680
C54	C	-0.000084	-1.228469	0.443591
C55	C	-0.000079	-1.230262	0.349552
C56	C	-0.000066	-1.149039	0.291889
C57	C	-0.000064	-1.066023	0.328266
C58	C	-0.000058	-0.984800	0.270604
C59	C	-0.000049	-0.901783	0.306979
C60	C	-0.000053	-0.899999	0.401017
C61	C	-0.000062	-1.150823	0.197851
C62	C	-0.000055	-0.986588	0.176561
H63	H	-0.247288	-0.954018	-0.235731
H64	H	-0.247251	-1.176197	-0.013696
C65	C	-0.329709	-1.206735	0.120522
C66	C	-0.389930	-1.254783	0.065144
H67	H	-0.294179	-1.248186	0.162230
H68	H	-0.370780	-1.169070	0.152808
H69	H	-0.283314	-1.170373	0.084082
H70	H	-0.436330	-1.291140	0.101584
H71	H	-0.348855	-1.292464	0.032856
H72	H	-0.000057	-0.449870	-0.354180
H73	H	-0.000083	-0.358072	0.028572
C74	C	0.085686	-0.248312	-0.296511
C75	C	-0.000080	-0.303029	-0.292526
H76	H	0.085677	-0.209176	-0.351626
H77	H	0.143859	-0.285443	-0.293806
H78	H	0.085677	-0.213198	-0.246811
H79	H	-0.000068	-0.338149	-0.342223
H80	H	-0.058268	-0.265895	-0.295240
H81	H	-0.752896	-0.954070	-0.235724
H82	H	-0.000053	-0.620472	-0.357443
H83	H	-0.000053	-0.772178	-0.277998
C84	C	-0.742434	-1.179114	0.092456
C85	C	-0.767813	-1.193677	0.003747
H86	H	-0.778063	-1.220663	0.133986
H87	H	-0.759657	-1.118942	0.102340
H88	H	-0.672369	-1.187877	0.101207
H89	H	-0.837876	-1.184907	-0.005006
H90	H	-0.750596	-1.253864	-0.006141
C91	C	0.085706	-0.528594	0.180950
C92	C	-0.000066	-0.499414	0.131664
H93	H	0.085707	-0.503909	0.237282
H94	H	0.143875	-0.508813	0.147497
H95	H	0.085694	-0.592852	0.191507
H96	H	-0.000050	-0.435156	0.121100
H97	H	-0.058250	-0.519190	0.165123
H98	H	-0.000045	-0.920445	0.129618
C99	C	0.085707	-0.802726	0.494438
C100	C	-0.000054	-0.808755	0.441007
H101	H	0.085699	-0.746399	0.519134
H102	H	0.143884	-0.806833	0.458198
H103	H	0.085691	-0.850852	0.542230
H104	H	-0.000034	-0.760633	0.393212
H105	H	-0.058245	-0.804640	0.477249
H106	H	-0.404820	-0.892811	-0.296924
C107	C	0.085683	-1.283108	0.621103
C108	C	-0.000086	-1.232945	0.637383
H109	H	0.085674	-1.338228	0.660230
H110	H	0.143854	-1.249079	0.632148
H111	H	0.085676	-1.296049	0.559890
H112	H	-0.000076	-1.219998	0.698594
H113	H	-0.058273	-1.266980	0.626345
H114	H	-0.000052	-0.810798	0.019971
C115	C	-0.000043	-0.831613	0.153373
C116	C	-0.000040	-0.812505	0.243591
H117	H	-0.000032	-0.776497	0.114239
H118	H	-0.058228	-0.865632	0.142345
H119	H	0.058139	-0.865659	0.142346
H120	H	-0.058227	-0.778465	0.254619
H121	H	0.058150	-0.778472	0.254623
H122	H	-0.000058	-0.911844	0.582344
H123	H	-0.595308	-1.237457	0.047489
C124	C	0.085672	-1.367913	0.490689
C125	C	-0.000091	-1.317744	0.506974
H126	H	0.085664	-1.423031	0.529820
H127	H	0.143847	-1.333886	0.501726
H128	H	0.085657	-1.380858	0.429477
H129	H	-0.000072	-1.304793	0.568184
H130	H	-0.058281	-1.351777	0.495944
H131	H	-0.000055	-0.680397	0.104764
H132	H	-0.000085	-1.297860	0.319944
C133	C	-0.000072	-1.312979	0.228337
C134	C	-0.000064	-1.242066	0.157867
H135	H	-0.000064	-1.369311	0.203651
H136	H	-0.058256	-1.308860	0.264563
H137	H	0.058111	-1.308866	0.264579
H138	H	-0.058250	-1.246176	0.121627
H139	H	0.058127	-1.246187	0.121625
C140	C	-0.713601	-0.888335	-0.301443
C141	C	-0.610334	-0.875386	-0.314361
H142	H	-0.749244	-0.846797	-0.342977
H143	H	-0.730813	-0.878468	-0.241264
H144	H	-0.730781	-0.948519	-0.311342
H145	H	-0.593152	-0.815203	-0.304456
H146	H	-0.593115	-0.885245	-0.374555
