data_functionalizedCrystal
_audit_creation_method	'MofGen! by Chris Wilmer'
_symmetry_space_group_name_H-M	'P1'
_symmetry_Int_Tables_number	1
_symmetry_cell_setting	triclinic
loop_
_symmetry_equiv_pos_as_xyz
  x,y,z
_cell_length_a	19.288867
_cell_length_b	17.766277
_cell_length_c	19.288865
_cell_angle_alpha	90.011603
_cell_angle_beta	83.136658
_cell_angle_gamma	90.007874
loop_
_atom_site_label
_atom_site_type_symbol
_atom_site_fract_x
_atom_site_fract_y
_atom_site_fract_z
O1	O	0.921352	0.062576	0.086655
O2	O	1.254685	0.395910	0.419989
O3	O	1.588019	0.729243	0.753322
O4	O	0.719092	0.062585	0.098343
O5	O	1.052425	0.395918	0.431676
O6	O	1.385758	0.729252	0.765009
O7	O	0.826066	0.062566	-0.008631
O8	O	1.159400	0.395899	0.324702
O9	O	1.492733	0.729232	0.658035
O10	O	0.814378	0.062596	0.193629
O11	O	1.147711	0.395929	0.526963
O12	O	1.481044	0.729262	0.860296
O13	O	0.826048	-0.062623	-0.008637
O14	O	1.159381	0.270710	0.324697
O15	O	1.492714	0.604044	0.658030
O16	O	0.719073	-0.062604	0.098337
O17	O	1.052406	0.270730	0.431671
O18	O	1.385740	0.604063	0.765004
O19	O	0.921333	-0.062612	0.086650
O20	O	1.254667	0.270721	0.419983
O21	O	1.588000	0.604055	0.753317
Cu22	Cu	0.820201	-0.074039	0.092493
Cu23	Cu	1.153535	0.259295	0.425826
Cu24	Cu	1.486868	0.592628	0.759160
Cu25	Cu	0.820224	0.074011	0.092500
Cu26	Cu	1.153557	0.407345	0.425833
Cu27	Cu	1.486890	0.740678	0.759166
O28	O	0.814359	-0.062593	0.193624
O29	O	1.147692	0.270741	0.526957
O30	O	1.481025	0.604074	0.860291
C31	C	0.693206	-0.000009	0.097964
C32	C	1.026539	0.333325	0.431297
C33	C	1.359873	0.666658	0.764630
C34	C	0.616102	-0.000006	0.096834
C35	C	0.949436	0.333327	0.430167
C36	C	1.282769	0.666661	0.763501
N37	N	0.820191	-0.178169	0.092488
N38	N	1.153524	0.155164	0.425822
N39	N	1.486858	0.488498	0.759155
C40	C	0.060547	0.068224	0.088701
C41	C	0.393881	0.401558	0.422034
C42	C	0.727214	0.734891	0.755367
C43	C	0.132995	0.068227	0.089758
C44	C	0.466328	0.401561	0.423091
C45	C	0.799661	0.734894	0.756425
C46	C	0.169213	-0.000013	0.090287
C47	C	0.502546	0.333321	0.423620
C48	C	0.835880	0.666654	0.756954
C49	C	0.132980	-0.068261	0.089741
C50	C	0.466314	0.265073	0.423074
C51	C	0.799647	0.598406	0.756407
C52	C	0.060535	-0.068262	0.088676
C53	C	0.393868	0.265072	0.422010
C54	C	0.727202	0.598405	0.755343
C55	C	0.278533	-0.052287	0.132652
C56	C	0.611866	0.281046	0.465986
C57	C	0.945199	0.614380	0.799319
C58	C	0.350976	-0.052283	0.133721
C59	C	0.684309	0.281050	0.467054
C60	C	1.017643	0.614383	0.800387
C61	C	0.392659	-0.000012	0.093566
C62	C	0.725992	0.333321	0.426899
C63	C	1.059325	0.666654	0.760233
C64	C	0.361888	0.052267	0.052352
C65	C	0.695221	0.385601	0.385685
C66	C	1.028555	0.718934	0.719018
C67	C	0.289443	0.052266	0.051288
C68	C	0.622776	0.385600	0.384621
C69	C	0.956110	0.718933	0.717954
C70	C	0.247768	-0.000019	0.091440
C71	C	0.581101	0.333314	0.424774
C72	C	0.914435	0.666648	0.758107
C73	C	0.507439	0.068235	0.095254
C74	C	0.840773	0.401568	0.428587
C75	C	1.174106	0.734901	0.761920
C76	C	0.579889	0.068235	0.096306
C77	C	0.913222	0.401568	0.429640
C78	C	1.246556	0.734901	0.762973
C79	C	0.579872	-0.068255	0.096296
C80	C	0.913205	0.265078	0.429629
C81	C	1.246539	0.598411	0.762963
C82	C	0.507425	-0.068253	0.095236
C83	C	0.840758	0.265080	0.428570
C84	C	1.174092	0.598413	0.761903
C85	C	0.471213	-0.000006	0.094718
C86	C	0.804546	0.333327	0.428052
C87	C	1.137879	0.666660	0.761385
C88	C	0.867575	-0.217564	0.045143
C89	C	1.200908	0.115769	0.378477
C90	C	1.534241	0.449102	0.711810
C91	C	0.867579	-0.296366	0.045140
C92	C	1.200912	0.036967	0.378473
C93	C	1.534245	0.370300	0.711807
C94	C	0.820206	-0.335769	0.092494
C95	C	1.153539	-0.002436	0.425827
C96	C	1.486872	0.330897	0.759160
C97	C	0.772813	-0.296364	0.139842
C98	C	1.106146	0.036969	0.473176
C99	C	1.439480	0.370302	0.806509
C100	C	0.772806	-0.217564	0.139839
C101	C	1.106139	0.115769	0.473173
C102	C	1.439472	0.449102	0.806506
C103	C	0.810907	-0.460598	0.155781
C104	C	1.144240	-0.127264	0.489115
C105	C	1.477573	0.206069	0.822448
C106	C	0.810919	-0.539397	0.155785
C107	C	1.144252	-0.206063	0.489118
C108	C	1.477586	0.127270	0.822452
C109	C	0.820224	-0.578816	0.092502
C110	C	1.153557	-0.245482	0.425835
C111	C	1.486891	0.087851	0.759169
C112	C	0.829532	-0.539426	0.029213
C113	C	1.162865	-0.206093	0.362546
C114	C	1.496199	0.127240	0.695879
C115	C	0.829525	-0.460626	0.029210
C116	C	1.162858	-0.127293	0.362543
C117	C	1.496191	0.206040	0.695877
C118	C	0.820208	-0.421215	0.092502
C119	C	1.153541	-0.087882	0.425835
C120	C	1.486875	0.245452	0.759168
C121	C	0.867615	-0.703657	0.045150
C122	C	1.200948	-0.370324	0.378483
C123	C	1.534281	-0.036991	0.711816
C124	C	0.867614	-0.782460	0.045146
C125	C	1.200947	-0.449127	0.378479
C126	C	1.534281	-0.115794	0.711812
C127	C	0.772852	-0.782457	0.139854
C128	C	1.106185	-0.449124	0.473187
C129	C	1.439518	-0.115791	0.806520
C130	C	0.772849	-0.703655	0.139852
C131	C	1.106183	-0.370322	0.473185
C132	C	1.439516	-0.036989	0.806519
C133	C	0.820234	-0.664260	0.092501
C134	C	1.153568	-0.330927	0.425834
C135	C	1.486901	0.002406	0.759167
C136	C	0.947219	-0.000017	0.087029
C137	C	1.280552	0.333316	0.420362
C138	C	1.613886	0.666650	0.753696
C139	C	1.024323	-0.000015	0.088159
C140	C	1.357656	0.333319	0.421492
C141	C	1.690989	0.666652	0.754825
N142	N	0.820240	0.178142	0.092499
N143	N	1.153573	0.511475	0.425832
N144	N	1.486906	0.844808	0.759166
C145	C	0.825681	-0.000031	-0.034510
C146	C	1.159014	0.333302	0.298823
C147	C	1.492347	0.666636	0.632156
C148	C	0.824552	-0.000038	-0.111614
C149	C	1.157885	0.333296	0.221719
C150	C	1.491218	0.666629	0.555053
C151	C	0.887320	-0.000044	-0.156310
C152	C	1.220653	0.333289	0.177024
C153	C	1.553986	0.666623	0.510357
C154	C	0.886259	-0.000032	-0.228757
C155	C	1.219592	0.333301	0.104576
C156	C	1.552926	0.666635	0.437910
C157	C	0.822427	-0.000029	-0.256505
C158	C	1.155760	0.333305	0.076828
C159	C	1.489093	0.666638	0.410162
C160	C	0.759651	-0.000018	-0.211799
C161	C	1.092984	0.333315	0.121534
C162	C	1.426317	0.666648	0.454867
C163	C	0.760713	-0.000023	-0.139354
C164	C	1.094047	0.333311	0.193980
C165	C	1.427380	0.666644	0.527313
C166	C	0.772241	-0.043877	-0.364795
C167	C	1.105574	0.289456	-0.031461
C168	C	1.438907	0.622789	0.301872
C169	C	0.771181	-0.043878	-0.437239
C170	C	1.104514	0.289456	-0.103906
C171	C	1.437848	0.622789	0.229428
C172	C	0.819147	-0.000012	-0.479951
C173	C	1.152481	0.333322	-0.146617
C174	C	1.485814	0.666655	0.186716
C175	C	0.868185	0.043845	-0.450210
C176	C	1.201518	0.377178	-0.116877
C177	C	1.534852	0.710511	0.216456
C178	C	0.869248	0.043840	-0.377765
C179	C	1.202581	0.377174	-0.044431
C180	C	1.535914	0.710507	0.288902
C181	C	0.821268	-0.000024	-0.335059
C182	C	1.154601	0.333310	-0.001726
C183	C	1.487934	0.666643	0.331608
C184	C	0.880769	-0.000004	-0.603202
C185	C	1.214103	0.333329	-0.269869
C186	C	1.547436	0.666663	0.063464
C187	C	0.879706	0.000013	-0.675650
C188	C	1.213039	0.333346	-0.342317
C189	C	1.546373	0.666679	-0.008984
C190	C	0.753096	0.000019	-0.658691
C191	C	1.086429	0.333352	-0.325358
C192	C	1.419763	0.666685	0.007976
C193	C	0.754161	0.000010	-0.586245
C194	C	1.087494	0.333343	-0.252911
C195	C	1.420828	0.666676	0.080422
C196	C	0.818000	-0.000005	-0.558505
C197	C	1.151333	0.333328	-0.225172
C198	C	1.484666	0.666661	0.108162
C199	C	0.814744	0.000005	0.219503
C200	C	1.148078	0.333339	0.552836
C201	C	1.481411	0.666672	0.886170
C202	C	0.815873	0.000017	0.296607
C203	C	1.149207	0.333350	0.629940
C204	C	1.482540	0.666684	0.963273
H205	H	0.162494	0.123798	0.090203
H206	H	0.495827	0.457131	0.423537
H207	H	0.829161	0.790464	0.756870
H208	H	0.162474	-0.123822	0.090170
H209	H	0.495808	0.209511	0.423503
H210	H	0.829141	0.542845	0.756837
N211	N	0.721753	-0.661154	0.190924
N212	N	1.055086	-0.327821	0.524257
N213	N	1.388420	0.005513	0.857591
H214	H	0.691083	-0.628474	0.164457
H215	H	1.024416	-0.295141	0.497790
H216	H	1.357750	0.038192	0.831124
H217	H	0.691788	-0.698114	0.220913
H218	H	1.025121	-0.364781	0.554247
H219	H	1.358455	-0.031448	0.887580
N220	N	0.618958	0.141843	0.096883
N221	N	0.952291	0.475177	0.430216
N222	N	1.285624	0.808510	0.763550
H223	H	0.600589	0.171680	0.139751
H224	H	0.933923	0.505013	0.473084
H225	H	1.267256	0.838346	0.806418
H226	H	0.670339	0.131433	0.097604
H227	H	1.003673	0.464766	0.430937
H228	H	1.337006	0.798099	0.764270
N229	N	0.686461	0.000012	-0.538031
N230	N	1.019794	0.333345	-0.204698
N231	N	1.353128	0.666679	0.128635
H232	H	0.645861	0.000015	-0.566600
H233	H	0.979195	0.333349	-0.233267
H234	H	1.312528	0.666682	0.100066
H235	H	0.684138	-0.046399	-0.507614
H236	H	1.017471	0.286935	-0.174281
H237	H	1.350804	0.620268	0.159052
N238	N	0.800876	-0.581878	0.224042
N239	N	1.134210	-0.248544	0.557376
N240	N	1.467543	0.084789	0.890709
H241	H	0.794969	-0.544951	0.264131
H242	H	1.128302	-0.211617	0.597464
H243	H	1.461635	0.121716	0.930798
H244	H	0.757887	-0.614581	0.225595
H245	H	1.091220	-0.281248	0.558929
H246	H	1.424554	0.052086	0.892262
N247	N	0.721752	-0.824948	0.190924
N248	N	1.055085	-0.491614	0.524257
N249	N	1.388418	-0.158281	0.857591
H250	H	0.691732	-0.788029	0.220917
H251	H	1.025065	-0.454696	0.554251
H252	H	1.358399	-0.121363	0.887584
H253	H	0.691137	-0.857652	0.164402
H254	H	1.024470	-0.524318	0.497736
H255	H	1.357804	-0.190985	0.831069
H256	H	0.031068	0.123797	0.088276
H257	H	0.364401	0.457130	0.421610
H258	H	0.697735	0.790463	0.754943
N259	N	0.918732	-0.824949	-0.005918
N260	N	1.252066	-0.491615	0.327415
N261	N	1.585399	-0.158282	0.660749
H262	H	0.892304	-0.857658	-0.036615
H263	H	1.225637	-0.524324	0.296718
H264	H	1.558970	-0.190991	0.630051
H265	H	0.948733	-0.787978	-0.035859
H266	H	1.282067	-0.454644	0.297475
H267	H	1.615400	-0.121311	0.630808
H268	H	0.477954	0.123805	0.094830
H269	H	0.811287	0.457139	0.428163
H270	H	1.144621	0.790472	0.761496
H271	H	0.734220	-0.185488	0.178394
H272	H	1.067553	0.147846	0.511727
H273	H	1.400886	0.481179	0.845061
N274	N	0.618926	-0.141859	0.096859
N275	N	0.952260	0.191474	0.430192
N276	N	1.285593	0.524808	0.763525
H277	H	0.670318	-0.131505	0.097613
H278	H	1.003651	0.201828	0.430946
H279	H	1.336985	0.535161	0.764279
H280	H	0.600495	-0.171657	0.139719
H281	H	0.933829	0.161676	0.473053
H282	H	1.267162	0.495010	0.806386
N283	N	0.918692	-0.338874	-0.005918
N284	N	1.252025	-0.005541	0.327415
N285	N	1.585358	0.327793	0.660748
H286	H	0.892256	-0.371586	-0.036606
H287	H	1.225589	-0.038253	0.296727
H288	H	1.558922	0.295081	0.630060
H289	H	0.948697	-0.301915	-0.035869
H290	H	1.282031	0.031418	0.297464
H291	H	1.615364	0.364751	0.630798
N292	N	0.839561	-0.418141	-0.039045
N293	N	1.172894	-0.084807	0.294288
N294	N	1.506227	0.248526	0.627621
H295	H	0.845458	-0.455064	-0.079137
H296	H	1.178791	-0.121730	0.254196
H297	H	1.512124	0.211603	0.587529
H298	H	0.797375	-0.385458	-0.042993
H299	H	1.130709	-0.052125	0.290341
H300	H	1.464042	0.281208	0.623674
N301	N	0.021460	-0.141866	0.088091
N302	N	0.354793	0.191468	0.421424
N303	N	0.688127	0.524801	0.754757
H304	H	0.055458	-0.185095	0.088103
H305	H	0.388791	0.148238	0.421437
H306	H	0.722125	0.481571	0.754770
H307	H	-0.014037	-0.145060	0.130943
H308	H	0.319296	0.188273	0.464277
H309	H	0.652629	0.521606	0.797610
H310	H	0.906157	-0.185491	0.006586
H311	H	1.239490	0.147842	0.339919
H312	H	1.572823	0.481176	0.673252
N313	N	0.721714	-0.338858	0.190914
N314	N	1.055047	-0.005525	0.524247
N315	N	1.388380	0.327809	0.857580
H316	H	0.728909	-0.394756	0.183733
H317	H	1.062242	-0.061423	0.517066
H318	H	1.395575	0.271910	0.850399
H319	H	0.729575	-0.325068	0.240169
H320	H	1.062909	0.008266	0.573503
H321	H	1.396242	0.341599	0.906836
H322	H	0.803317	-0.428509	0.207317
H323	H	1.136651	-0.095176	0.540651
H324	H	1.469984	0.238158	0.873984
H325	H	0.939302	-0.000053	-0.133729
H326	H	1.272635	0.333280	0.199604
H327	H	1.605969	0.666613	0.532937
H328	H	0.937374	-0.000034	-0.265155
H329	H	1.270707	0.333299	0.068178
H330	H	1.604040	0.666633	0.401511
N331	N	0.256252	0.108637	0.006829
N332	N	0.589585	0.441970	0.340163
N333	N	0.922919	0.775304	0.673496
H334	H	0.222021	0.140800	0.037551
H335	H	0.555355	0.474133	0.370885
H336	H	0.888688	0.807467	0.704218
H337	H	0.293687	0.141702	-0.018445
H338	H	0.627021	0.475035	0.314889
H339	H	0.960354	0.808369	0.648222
H340	H	0.837109	-0.571520	-0.022318
H341	H	1.170442	-0.238186	0.311015
H342	H	1.503775	0.095147	0.644348
N343	N	0.922132	0.091139	-0.345685
N344	N	1.255465	0.424473	-0.012352
N345	N	1.588799	0.757806	0.320981
H346	H	0.952360	0.118931	-0.383731
H347	H	1.285693	0.452264	-0.050397
H348	H	1.619027	0.785597	0.282936
H349	H	0.897017	0.128600	-0.312196
H350	H	1.230350	0.461933	0.021137
H351	H	1.563683	0.795266	0.354471
N352	N	0.918717	-0.661159	-0.005920
N353	N	1.252051	-0.327826	0.327413
N354	N	1.585384	0.005507	0.660746
H355	H	0.948733	-0.698077	-0.035919
H356	H	1.282066	-0.364744	0.297415
H357	H	1.615400	-0.031411	0.630748
H358	H	0.892223	-0.628477	-0.036560
H359	H	1.225556	-0.295143	0.296774
H360	H	1.558890	0.038190	0.630107
N361	N	0.468348	-0.141855	0.094655
N362	N	0.801681	0.191479	0.427988
N363	N	1.135015	0.524812	0.761321
H364	H	0.502346	-0.185084	0.094667
H365	H	0.835679	0.148249	0.428001
H366	H	1.169013	0.481582	0.761334
H367	H	0.432851	-0.145049	0.137507
H368	H	0.766184	0.188284	0.470841
H369	H	1.099517	0.521618	0.804174
H370	H	0.907244	0.079565	-0.484985
H371	H	1.240577	0.412898	-0.151651
H372	H	1.573910	0.746232	0.181682
H373	H	0.707678	-0.000014	-0.234396
H374	H	1.041011	0.333319	0.098937
H375	H	1.374345	0.666653	0.432270
H376	H	0.932750	-0.000013	-0.580616
H377	H	1.266084	0.333321	-0.247282
H378	H	1.599417	0.666654	0.086051
N379	N	0.406838	0.108640	0.009028
N380	N	0.740172	0.441973	0.342361
N381	N	1.073505	0.775306	0.675694
H382	H	0.376353	0.141754	-0.017243
H383	H	0.709687	0.475087	0.316090
H384	H	1.043020	0.808420	0.649424
H385	H	0.432727	0.140753	0.040670
H386	H	0.766060	0.474086	0.374003
H387	H	1.099394	0.807420	0.707337
H388	H	0.709598	-0.000018	-0.102962
H389	H	1.042932	0.333316	0.230372
H390	H	1.376265	0.666649	0.563705
N391	N	0.947409	0.000009	-0.723862
N392	N	1.280742	0.333342	-0.390529
N393	N	1.614075	0.666676	-0.057196
H394	H	0.988008	-0.000004	-0.695293
H395	H	1.321342	0.333330	-0.361960
H396	H	1.654675	0.666663	-0.028626
H397	H	0.949712	-0.046398	-0.754301
H398	H	1.283046	0.286936	-0.420968
H399	H	1.616379	0.620269	-0.087634
H400	H	0.701123	0.000025	-0.681283
H401	H	1.034456	0.333358	-0.347949
H402	H	1.367789	0.666692	-0.014616
H403	H	0.733179	-0.079602	-0.330024
H404	H	1.066512	0.253731	0.003309
H405	H	1.399846	0.587064	0.336643
N406	N	0.384152	-0.108669	0.178176
N407	N	0.717485	0.224665	0.511509
N408	N	1.050819	0.557998	0.844843
H409	H	0.373573	-0.161352	0.162790
H410	H	0.706906	0.171981	0.496123
H411	H	1.040240	0.505315	0.829457
H412	H	0.436360	-0.100674	0.172749
H413	H	0.769693	0.232659	0.506082
H414	H	1.103027	0.565993	0.839415
H415	H	0.244600	-0.094861	0.165348
H416	H	0.577934	0.238473	0.498681
H417	H	0.911267	0.571806	0.832014
H418	H	0.731248	-0.079584	-0.461447
H419	H	1.064582	0.253749	-0.128114
H420	H	1.397915	0.587083	0.205219
