data_functionalizedCrystal
_audit_creation_method	'MofGen! by Chris Wilmer'
_symmetry_space_group_name_H-M	'P1'
_symmetry_Int_Tables_number	1
_symmetry_cell_setting	triclinic
loop_
_symmetry_equiv_pos_as_xyz
  x,y,z
_cell_length_a	10.654550
_cell_length_b	19.288865
_cell_length_c	9.730223
_cell_angle_alpha	89.990377
_cell_angle_beta	89.999957
_cell_angle_gamma	83.810589
loop_
_atom_site_label
_atom_site_type_symbol
_atom_site_fract_x
_atom_site_fract_y
_atom_site_fract_z
O1	O	1.665751	0.097555	-0.114205
O2	O	2.165751	0.597555	0.385795
O3	O	1.300073	0.106849	-0.114232
O4	O	1.800073	0.606849	0.385768
O5	O	1.493478	0.001141	-0.114191
O6	O	1.993478	0.501141	0.385809
O7	O	1.472346	0.203263	-0.114247
O8	O	1.972346	0.703263	0.385753
O9	O	1.493466	0.001138	0.114389
O10	O	1.993466	0.501138	0.614389
O11	O	1.300061	0.106846	0.114348
O12	O	1.800061	0.606846	0.614348
O13	O	1.665738	0.097552	0.114375
O14	O	2.165738	0.597552	0.614375
Zn15	Zn	1.482898	0.102198	0.150653
Zn16	Zn	1.982898	0.602198	0.650653
Zn17	Zn	1.482914	0.102202	-0.150511
Zn18	Zn	1.982914	0.602202	0.349489
O19	O	1.472333	0.203260	0.114333
O20	O	1.972333	0.703260	0.614333
C21	C	1.253284	0.106165	0.000055
C22	C	1.753284	0.606165	0.500055
C23	C	1.113884	0.104123	0.000046
C24	C	1.613884	0.604123	0.500046
C25	C	1.492792	-0.024742	0.000103
C26	C	1.992792	0.475258	0.500103
C27	C	1.490751	-0.101859	0.000115
C28	C	1.990751	0.398141	0.500115
C29	C	1.033066	0.166363	0.000033
C30	C	1.533066	0.666363	0.500033
C31	C	0.902087	0.164440	0.000057
C32	C	1.402087	0.664440	0.500057
C33	C	0.932756	0.038033	0.000102
C34	C	1.432756	0.538033	0.500102
C35	C	1.063733	0.039956	0.000088
C36	C	1.563733	0.539956	0.500088
C37	C	1.604232	-0.145812	0.000131
C38	C	2.104232	0.354188	0.500131
C39	C	1.602315	-0.218272	0.000109
C40	C	2.102315	0.281728	0.500109
C41	C	1.486909	-0.246775	0.000099
C42	C	1.986909	0.253225	0.500099
C43	C	1.373413	-0.202812	0.000076
C44	C	1.873413	0.297188	0.500076
C45	C	1.375334	-0.130354	0.000085
C46	C	1.875334	0.369646	0.500085
C47	C	1.396183	-0.355657	0.080159
C48	C	1.896183	0.144343	0.580159
C49	C	1.394267	-0.428114	0.080160
C50	C	1.894267	0.071886	0.580160
C51	C	1.480980	-0.470259	0.000068
C52	C	1.980980	0.029741	0.500068
C53	C	1.569631	-0.439940	-0.080006
C54	C	2.069631	0.060060	0.419994
C55	C	1.571552	-0.367482	-0.079998
C56	C	2.071552	0.132518	0.420002
C57	C	1.484814	-0.325343	0.000090
C58	C	1.984814	0.174657	0.500090
C59	C	1.592390	-0.592782	0.000057
C60	C	2.092390	-0.092782	0.500057
C61	C	1.590467	-0.665243	0.000027
C62	C	2.090467	-0.165243	0.500027
C63	C	1.361562	-0.649781	0.000009
C64	C	1.861562	-0.149781	0.500009
C65	C	1.363488	-0.577322	0.000025
C66	C	1.863488	-0.077322	0.500025
C67	C	1.478905	-0.548827	0.000056
C68	C	1.978905	-0.048827	0.500056
C69	C	1.712528	0.098236	0.000085
C70	C	2.212528	0.598236	0.500085
C71	C	1.851928	0.100277	0.000085
C72	C	2.351928	0.600277	0.500085
C73	C	1.473020	0.229142	0.000036
C74	C	1.973020	0.729142	0.500036
C75	C	1.475061	0.306259	0.000015
C76	C	1.975061	0.806259	0.500015
N77	N	1.482896	0.102195	0.356190
N78	N	1.982896	0.602195	0.856190
N79	N	1.482926	0.102200	-0.356047
N80	N	1.982926	0.602200	0.143953
C81	C	1.568564	0.055408	0.428134
C82	C	2.068564	0.555408	0.928134
C83	C	1.568577	0.055408	0.572017
C84	C	2.068577	0.555408	1.072017
C85	C	1.397248	0.148990	0.571999
C86	C	1.897248	0.648990	1.071999
C87	C	1.397231	0.148986	0.428118
C88	C	1.897231	0.648986	0.928118
H89	H	1.073895	0.218611	0.000009
H90	H	1.573895	0.718611	0.500009
Cl91	Cl	1.744988	-0.273537	0.000126
Cl92	Cl	2.244988	0.226463	0.500126
H93	H	1.327463	0.187086	0.369537
H94	H	1.827463	0.687086	0.869537
H95	H	1.325567	-0.321348	0.145387
H96	H	1.825567	0.178652	0.645387
H97	H	0.836289	0.215122	0.000049
H98	H	1.336289	0.715122	0.500049
H99	H	1.129539	-0.010730	0.000102
H100	H	1.629539	0.489270	0.500102
Cl101	Cl	1.749328	-0.109993	0.000131
Cl102	Cl	2.249328	0.390007	0.500131
Cl103	Cl	1.682985	-0.329367	-0.180667
Cl104	Cl	2.182985	0.170633	0.319333
Cl105	Cl	0.869698	-0.042629	0.000146
Cl106	Cl	1.369698	0.457371	0.500146
Cl107	Cl	1.678648	-0.492914	-0.180702
Cl108	Cl	2.178648	0.007086	0.319298
Cl109	Cl	1.737482	-0.556956	0.000104
Cl110	Cl	2.237482	-0.056956	0.500104
H111	H	1.682881	-0.701029	0.000032
H112	H	2.182881	-0.201029	0.500032
Cl113	Cl	1.676253	-0.003417	0.337715
Cl114	Cl	2.176253	0.496583	0.837715
H115	H	1.267597	-0.672988	-0.000006
H116	H	1.767597	-0.172988	0.499994
H117	H	1.327503	0.187086	0.630577
H118	H	1.827503	0.687086	1.130577
H119	H	1.271079	-0.541534	0.000021
H120	H	1.771079	-0.041534	0.500021
Cl121	Cl	1.228332	-0.238643	0.000054
Cl122	Cl	1.728332	0.261357	0.500054
H123	H	1.322077	-0.452794	0.145353
H124	H	1.822077	0.047206	0.645353
H125	H	1.282921	-0.094566	0.000073
H126	H	1.782921	0.405434	0.500073
Cl127	Cl	1.676276	-0.003415	0.662457
Cl128	Cl	2.176276	0.496585	1.162457
