data_functionalizedCrystal
_audit_creation_method	'MofGen! by Chris Wilmer'
_symmetry_space_group_name_H-M	'P1'
_symmetry_Int_Tables_number	1
_symmetry_cell_setting	triclinic
loop_
_symmetry_equiv_pos_as_xyz
  x,y,z
_cell_length_a	14.971506
_cell_length_b	15.995343
_cell_length_c	14.048226
_cell_angle_alpha	89.988845
_cell_angle_beta	89.993237
_cell_angle_gamma	83.555786
loop_
_atom_site_label
_atom_site_type_symbol
_atom_site_fract_x
_atom_site_fract_y
_atom_site_fract_z
O1	O	1.186808	0.109197	-0.079178
O2	O	0.926395	0.122247	-0.079179
O3	O	1.063724	-0.006159	-0.079161
O4	O	1.049479	0.237602	-0.079196
O5	O	1.063707	-0.006166	0.079161
O6	O	0.926378	0.122239	0.079142
O7	O	1.186791	0.109190	0.079144
Zn8	Zn	1.056582	0.115713	0.104280
Zn9	Zn	1.056604	0.115723	-0.104315
O10	O	1.049463	0.237595	0.079125
C11	C	0.893063	0.121656	-0.000019
C12	C	0.793769	0.119898	-0.000018
C13	C	0.355406	0.188625	-0.000038
C14	C	0.448704	0.190270	-0.000042
C15	C	0.506012	0.114828	-0.000027
C16	C	0.470018	0.037734	-0.000017
C17	C	0.376722	0.036090	-0.000020
C18	C	0.664477	0.041167	-0.000010
C19	C	0.757780	0.042811	-0.000006
C20	C	0.736460	0.195347	-0.000033
C21	C	0.643163	0.193703	-0.000035
C22	C	0.607175	0.116610	-0.000023
C23	C	1.063128	-0.037358	0.000002
C24	C	1.061366	-0.130310	0.000010
C25	C	1.058168	-0.300500	-0.000012
C26	C	0.959038	-0.323952	-0.000014
C27	C	0.957173	-0.420632	-0.000384
C28	C	1.055018	-0.468063	-0.000032
C29	C	1.104872	-0.438907	-0.090259
C30	C	1.106048	-0.342113	-0.090324
C31	C	1.107480	-0.342225	0.089723
C32	C	1.103821	-0.438724	0.090898
C33	C	1.053243	-0.562764	-0.000047
C34	C	1.059946	-0.205800	-0.000004
C35	C	1.220123	0.109780	-0.000019
C36	C	1.319417	0.111538	-0.000025
C37	C	1.050059	0.268794	-0.000040
C38	C	1.051820	0.361747	-0.000054
N39	N	1.056574	0.115706	0.246641
N40	N	1.056619	0.115724	-0.246676
C41	C	1.117402	0.058872	0.296467
C42	C	1.117408	0.058871	0.396124
C43	C	1.056590	0.115710	0.445954
C44	C	0.995755	0.172546	0.396121
C45	C	0.995745	0.172542	0.296465
C46	C	0.995781	0.172553	0.603835
C47	C	0.995791	0.172558	0.703498
C48	C	1.117444	0.058881	0.703495
C49	C	1.117434	0.058877	0.603839
C50	C	1.056600	0.115715	0.554012
H51	H	0.596504	0.255135	-0.000041
H52	H	1.178743	-0.327461	-0.094169
F53	F	1.056368	-0.463041	0.178150
H54	H	0.946240	0.218834	0.563270
F55	F	0.531013	-0.042558	-0.000004
F56	F	0.909640	-0.286112	-0.084461
F57	F	0.626179	-0.040885	0.000006
F58	F	1.061466	-0.307136	-0.178817
F59	F	1.182168	-0.001611	0.550806
H60	H	0.946231	0.218823	0.436698
F61	F	1.198998	-0.480428	-0.094317
H62	H	0.347422	-0.026682	-0.000011
H63	H	0.918348	-0.439102	-0.065447
F64	F	1.066591	-0.305331	0.179145
F65	F	0.774761	0.277396	-0.000037
H66	H	1.175218	-0.471596	0.096618
F67	F	0.818771	-0.037484	0.000005
H68	H	1.166976	0.012602	0.744069
F69	F	1.182139	-0.001621	0.243444
H70	H	0.918140	-0.439700	0.064275
F71	F	0.908801	-0.287406	0.084544
F72	F	1.182147	-0.001619	0.449154
H73	H	1.070679	-0.459025	-0.157664
H74	H	0.478001	0.253042	-0.000062
H75	H	1.180444	-0.328126	0.090600
F76	F	0.931058	0.233053	0.756523
F77	F	0.931001	0.233031	0.243438
H78	H	0.308751	0.250060	-0.000043
