data_functionalizedCrystal
_audit_creation_method	'MofGen! by Chris Wilmer'
_symmetry_space_group_name_H-M	'P1'
_symmetry_Int_Tables_number	1
_symmetry_cell_setting	triclinic
loop_
_symmetry_equiv_pos_as_xyz
  x,y,z
_cell_length_a	14.519709
_cell_length_b	10.654550
_cell_length_c	9.130313
_cell_angle_alpha	89.997756
_cell_angle_beta	89.999392
_cell_angle_gamma	95.917463
loop_
_atom_site_label
_atom_site_type_symbol
_atom_site_fract_x
_atom_site_fract_y
_atom_site_fract_z
O1	O	-1.224722	0.164626	-0.121576
O2	O	-0.956346	0.184013	-0.121623
O3	O	-1.096704	-0.008479	-0.121605
O4	O	-1.084364	0.357118	-0.121595
O5	O	-1.096690	-0.008491	0.121994
O6	O	-0.956331	0.184001	0.121975
O7	O	-1.224708	0.164614	0.122022
Cu8	Cu	-1.090518	0.174306	0.144241
Cu9	Cu	-1.090535	0.174320	-0.143842
O10	O	-1.084349	0.357106	0.122004
C11	C	-0.921974	0.183103	0.000170
C12	C	-0.819579	0.180396	0.000151
C13	C	-0.444631	0.170428	0.000212
C14	C	-0.548954	0.173196	0.000195
C15	C	-0.632102	0.175412	0.000180
C16	C	-0.736431	0.178180	0.000166
C17	C	-1.095791	-0.055275	0.000190
C18	C	-1.093080	-0.194692	0.000175
N19	N	-1.090513	0.174295	0.346864
C20	C	-0.259079	0.165524	0.000222
C21	C	-0.361475	0.168231	0.000220
C22	C	-1.085262	0.403901	0.000206
C23	C	-1.087973	0.543318	0.000211
C24	C	-1.005332	0.623599	0.000193
C25	C	-1.007885	0.754595	0.000170
C26	C	-1.175727	0.725018	0.000189
C27	C	-1.173174	0.594024	0.000201
C28	C	-1.034116	0.097978	0.576898
C29	C	-1.034106	0.097960	0.423561
C30	C	-1.146940	0.250643	0.423512
C31	C	-1.146955	0.250653	0.576846
N32	N	-1.090537	0.174322	0.653535
H33	H	-0.940590	0.819955	0.000153
H34	H	-0.935957	0.582319	0.000205
H35	H	-1.245095	0.766319	0.000196
C36	C	-1.262832	0.506702	0.000446
C37	C	-1.266252	0.430612	0.125756
C38	C	-1.348820	0.350144	0.126013
H39	H	-1.314015	0.555499	0.000522
H40	H	-1.265328	0.454913	-0.084456
H41	H	-1.263765	0.482395	0.210637
H42	H	-1.215088	0.381787	0.125707
H43	H	-1.351316	0.298355	0.041111
H44	H	-1.399997	0.398952	0.126086
H45	H	-1.351148	0.298499	0.211027
H46	H	-0.988163	0.035792	0.361170
H47	H	-1.192905	0.312822	0.639246
H48	H	-1.192872	0.312790	0.361053
H49	H	-0.988178	0.035823	0.639333
