data_functionalizedCrystal
_audit_creation_method	'MofGen! by Chris Wilmer'
_symmetry_space_group_name_H-M	'P1'
_symmetry_Int_Tables_number	1
_symmetry_cell_setting	triclinic
loop_
_symmetry_equiv_pos_as_xyz
  x,y,z
_cell_length_a	27.731994
_cell_length_b	14.853567
_cell_length_c	13.330367
_cell_angle_alpha	90.008763
_cell_angle_beta	90.000738
_cell_angle_gamma	96.872268
loop_
_atom_site_label
_atom_site_type_symbol
_atom_site_fract_x
_atom_site_fract_y
_atom_site_fract_z
O1	O	0.641447	-0.107024	0.083273
O2	O	1.141447	0.392976	0.583273
O3	O	0.500727	-0.123385	0.083305
O4	O	1.000727	0.376615	0.583305
O5	O	0.574846	0.016088	0.083291
O6	O	1.074846	0.516088	0.583291
O7	O	0.567328	-0.246497	0.083287
O8	O	1.067328	0.253503	0.583287
O9	O	0.574835	0.016065	-0.083556
O10	O	1.074835	0.516065	0.416444
O11	O	0.500715	-0.123408	-0.083542
O12	O	1.000715	0.376592	0.416458
O13	O	0.641436	-0.107046	-0.083574
O14	O	1.141436	0.392954	0.416426
Cu15	Cu	0.571075	-0.115229	-0.098793
Cu16	Cu	1.071075	0.384771	0.401207
Cu17	Cu	0.571088	-0.115203	0.098523
Cu18	Cu	1.071088	0.384797	0.598523
O19	O	0.567317	-0.246519	-0.083560
O20	O	1.067317	0.253481	0.416440
C21	C	0.482712	-0.123061	-0.000114
C22	C	0.982712	0.376939	0.499886
C23	C	0.429051	-0.122049	-0.000102
C24	C	0.929051	0.377951	0.499898
C25	C	0.574500	0.049659	-0.000129
C26	C	1.074500	0.549659	0.499871
C27	C	0.573479	0.149726	-0.000121
C28	C	1.073479	0.649726	0.499879
N29	N	0.571069	-0.115247	-0.237574
N30	N	1.071069	0.384753	0.262426
C31	C	0.096297	-0.115691	-0.091089
C32	C	0.596297	0.384309	0.408911
C33	C	-0.105380	-0.111846	-0.091100
C34	C	0.394620	0.388154	0.408900
O35	O	-0.131460	-0.111321	-0.168448
O36	O	0.368540	0.388679	0.331552
N37	N	-0.130590	-0.111356	-0.000152
N38	N	0.369410	0.388644	0.499848
C39	C	-0.105379	-0.111822	0.090806
C40	C	0.394621	0.388178	0.590806
O41	O	-0.131449	-0.111308	0.168163
O42	O	0.368551	0.388692	0.668163
C43	C	0.096297	-0.115661	0.090816
C44	C	0.596297	0.384339	0.590816
C45	C	0.121504	-0.116159	-0.000138
C46	C	0.621504	0.383841	0.499862
C47	C	0.121504	-0.116189	-0.182035
C48	C	0.621504	0.383811	0.317965
C49	C	0.171920	-0.117155	-0.182032
C50	C	0.671920	0.382845	0.317968
C51	C	0.197128	-0.117623	-0.091081
C52	C	0.697128	0.382377	0.408919
C53	C	0.171920	-0.117125	-0.000134
C54	C	0.671920	0.382875	0.499866
C55	C	0.121508	-0.116120	0.181773
C56	C	0.621508	0.383880	0.681773
C57	C	0.171930	-0.117077	0.181767
C58	C	0.671930	0.382923	0.681767
C59	C	0.197138	-0.117576	0.090813
C60	C	0.697138	0.382424	0.590813
C61	C	0.247544	-0.118560	0.090820
C62	C	0.747544	0.381440	0.590820
N63	N	0.272755	-0.119050	-0.000128
N64	N	0.772755	0.380950	0.499872
C65	C	0.247547	-0.118581	-0.091079
C66	C	0.747547	0.381419	0.408921
C67	C	-0.211262	-0.109809	0.090794
C68	C	0.288738	0.390191	0.590794
C69	C	-0.261680	-0.108851	0.090792
C70	C	0.238320	0.391149	0.590792
C71	C	-0.261678	-0.108873	-0.091114
C72	C	0.238322	0.391127	0.408886
C73	C	-0.211258	-0.109838	-0.091111
C74	C	0.288742	0.390162	0.408889
C75	C	-0.186051	-0.110298	-0.000154
C76	C	0.313949	0.389702	0.499846
C77	C	0.353423	-0.120611	-0.091064
C78	C	0.853423	0.379389	0.408936
C79	C	0.403843	-0.121581	-0.091052
C80	C	0.903843	0.378419	0.408948
C81	C	0.403836	-0.121554	0.090853
C82	C	0.903836	0.378446	0.590853
C83	C	0.353420	-0.120589	0.090842
C84	C	0.853420	0.379411	0.590842
C85	C	0.328215	-0.120114	-0.000125
C86	C	0.828215	0.379886	0.499875
O87	O	0.273656	-0.119076	0.168127
O88	O	0.773656	0.380924	0.668127
O89	O	0.273627	-0.119075	-0.168424
O90	O	0.773627	0.380925	0.331576
C91	C	0.045881	-0.114725	-0.091092
C92	C	0.545881	0.385275	0.408908
C93	C	0.020673	-0.114227	-0.000146
C94	C	0.520673	0.385773	0.499854
C95	C	0.045881	-0.114695	0.090805
C96	C	0.545881	0.385305	0.590805
C97	C	-0.029746	-0.113269	-0.000148
C98	C	0.470254	0.386731	0.499852
C99	C	-0.054954	-0.112801	-0.091098
C100	C	0.445046	0.387199	0.408902
C101	C	-0.029743	-0.113290	-0.182047
C102	C	0.470257	0.386710	0.317953
C103	C	0.020673	-0.114257	-0.182043
C104	C	0.520673	0.385743	0.317957
C105	C	0.020670	-0.114206	0.181753
C106	C	0.520670	0.385794	0.681753
C107	C	-0.029746	-0.113241	0.181742
C108	C	0.470254	0.386759	0.681742
C109	C	-0.054954	-0.112772	0.090792
C110	C	0.445046	0.387228	0.590792
C111	C	0.659451	-0.107371	-0.000153
C112	C	1.159451	0.392629	0.499847
C113	C	0.713112	-0.108382	-0.000159
C114	C	1.213112	0.391618	0.499841
C115	C	0.567663	-0.280091	-0.000138
C116	C	1.067663	0.219909	0.499862
C117	C	0.568684	-0.380158	-0.000140
C118	C	1.068684	0.119842	0.499860
C119	C	0.525135	0.561456	-0.000129
C120	C	1.025135	1.061456	0.499871
C121	C	0.613191	0.584201	-0.000149
C122	C	1.113191	1.084201	0.499851
C123	C	0.614151	0.490184	-0.000143
C124	C	1.114151	0.990184	0.499857
C125	C	0.570602	0.431798	-0.000132
C126	C	1.070602	0.931798	0.499868
C127	C	0.526094	0.467429	-0.000126
C128	C	1.026094	0.967429	0.499874
C129	C	0.658658	0.454545	-0.000159
C130	C	1.158658	0.954545	0.499841
C131	C	0.659620	0.360522	-0.000154
C132	C	1.159620	0.860522	0.499846
C133	C	0.616071	0.302134	-0.000136
C134	C	1.116071	0.802134	0.499864
C135	C	0.571561	0.337771	-0.000129
C136	C	1.071561	0.837771	0.499871
C137	C	0.528012	0.279385	-0.000118
C138	C	1.028012	0.779385	0.499882
C139	C	0.483502	0.315020	-0.000104
C140	C	0.983502	0.815020	0.499896
C141	C	0.482545	0.409041	-0.000107
C142	C	0.982545	0.909041	0.499893
C143	C	0.617027	0.208112	-0.000132
C144	C	1.117027	0.708112	0.499868
C145	C	0.528971	0.185358	-0.000115
C146	C	1.028971	0.685358	0.499885
C147	C	0.600446	-0.169478	-0.710195
C148	C	1.100446	0.330522	-0.210195
C149	C	0.541745	-0.060891	-0.710168
C150	C	1.041745	0.439109	-0.210168
C151	C	0.541738	-0.060905	-0.605149
C152	C	1.041738	0.439095	-0.105149
C153	C	0.571086	-0.115205	-0.552649
C154	C	1.071086	0.384795	-0.052649
C155	C	0.600441	-0.169491	-0.605166
C156	C	1.100441	0.330509	-0.105166
C157	C	0.512387	-0.006613	-0.552624
C158	C	1.012387	0.493387	-0.052624
C159	C	0.512379	-0.006624	-0.447599
C160	C	1.012379	0.493376	0.052401
C161	C	0.541725	-0.060930	-0.395096
C162	C	1.041725	0.439070	0.104904
C163	C	0.571081	-0.115219	-0.447621
C164	C	1.071081	0.384781	0.052379
C165	C	0.600429	-0.169519	-0.395120
C166	C	1.100429	0.330481	0.104880
C167	C	0.629782	-0.223814	-0.447642
C168	C	1.129782	0.276186	0.052358
C169	C	0.629787	-0.223797	-0.552664
C170	C	1.129787	0.276203	-0.052664
C171	C	0.541721	-0.060947	-0.290075
C172	C	1.041721	0.439053	0.209925
C173	C	0.600424	-0.169533	-0.290092
C174	C	1.100424	0.330467	0.209908
N175	N	0.571098	-0.115177	0.237305
N176	N	1.071098	0.384823	0.737305
H177	H	0.424365	-0.121990	-0.165121
H178	H	0.924365	0.378010	0.334879
N179	N	0.707623	0.322084	-0.000152
N180	N	1.207623	0.822084	0.499848
H181	H	0.709981	0.283567	-0.061998
H182	H	1.209981	0.783567	0.438002
H183	H	0.735037	0.373386	-0.000121
H184	H	1.235037	0.873386	0.499879
H185	H	-0.190742	-0.110183	0.164866
H186	H	0.309258	0.389817	0.664866
H187	H	0.653686	-0.267999	-0.595437
H188	H	1.153686	0.232001	-0.095437
H189	H	-0.282201	-0.108459	0.164856
H190	H	0.217799	0.391541	0.664856
H191	H	0.332894	-0.120197	0.164905
H192	H	0.832894	0.379803	0.664905
N193	N	0.632106	-0.228038	-0.766827
N194	N	1.132106	0.271962	-0.266827
H195	H	0.611093	-0.272441	-0.810416
H196	H	1.111093	0.227559	-0.310416
H197	H	0.655738	-0.188410	-0.810327
H198	H	1.155738	0.311590	-0.310327
H199	H	0.624320	-0.213756	-0.247353
H200	H	1.124320	0.286244	0.252647
H201	H	0.332907	-0.120233	-0.165138
H202	H	0.832907	0.379767	0.334862
N203	N	0.665029	0.169678	-0.000159
N204	N	1.165029	0.669678	0.499841
H205	H	0.667399	0.131184	0.061689
H206	H	1.167399	0.631184	0.561689
H207	H	0.667349	0.131209	-0.062052
H208	H	1.167349	0.631209	0.437948
N209	N	0.660156	0.647177	-0.000173
N210	N	1.160156	1.147177	0.499827
H211	H	0.661724	0.686709	0.061673
H212	H	1.161724	1.186709	0.561673
H213	H	0.688471	0.610277	-0.000215
H214	H	1.188471	1.110277	0.499785
H215	H	0.100985	-0.115805	-0.256103
H216	H	0.600985	0.384195	0.243897
N217	N	0.510097	-0.002319	-0.766787
N218	N	1.010097	0.497681	-0.266787
H219	H	0.514556	-0.010545	-0.841288
H220	H	1.014556	0.489455	-0.341288
H221	H	0.474953	-0.020597	-0.748448
H222	H	0.974953	0.479403	-0.248448
N223	N	0.434540	0.447473	-0.000108
N224	N	0.934540	0.947473	0.499892
H225	H	0.415461	0.426156	0.061746
H226	H	0.915461	0.926156	0.561746
H227	H	0.440582	0.515889	-0.000157
H228	H	0.940582	1.015889	0.499843
H229	H	0.192440	-0.117556	-0.256096
H230	H	0.692440	0.382444	0.243904
N231	N	0.705622	0.517524	-0.000184
N232	N	1.205622	1.017524	0.499816
H233	H	0.707191	0.557050	0.061666
H234	H	1.207191	1.057050	0.561666
H235	H	0.733939	0.480628	-0.000235
H236	H	1.233939	0.980628	0.499765
N237	N	0.431034	-0.122052	0.188942
N238	N	0.931034	0.377948	0.688942
H239	H	0.426145	-0.065969	0.228699
H240	H	0.926145	0.434031	0.728699
H241	H	0.418367	-0.177819	0.228636
H242	H	0.918367	0.322181	0.728636
N243	N	0.661440	-0.282371	-0.391013
N244	N	1.161440	0.217629	0.108987
H245	H	0.656983	-0.274132	-0.316514
H246	H	1.156983	0.225868	0.183486
H247	H	0.651934	-0.348066	-0.409381
H248	H	1.151934	0.151934	0.090619
N249	N	0.477129	0.599883	-0.000108
N250	N	0.977129	1.099883	0.499892
H251	H	0.483127	0.668305	-0.000109
H252	H	0.983127	1.168305	0.499891
H253	H	0.458067	0.578471	-0.061957
H254	H	0.958067	1.078471	0.438043
N255	N	0.482000	0.122386	-0.000094
N256	N	0.982000	0.622386	0.499906
H257	H	0.453660	0.159230	-0.000085
H258	H	0.953660	0.659230	0.499915
H259	H	0.480473	0.082871	-0.061946
H260	H	0.980473	0.582871	0.438054
H261	H	0.448045	0.267470	-0.000101
H262	H	0.948045	0.767470	0.499899
H263	H	0.488477	0.037585	-0.404844
H264	H	0.988477	0.537585	0.095156
H265	H	0.100993	-0.115712	0.255838
H266	H	0.600993	0.384288	0.755838
H267	H	0.488498	0.037603	-0.595377
H268	H	0.988498	0.537603	-0.095377
N269	N	0.510069	-0.002386	-0.233427
N270	N	1.010069	0.497614	0.266573
H271	H	0.474913	-0.020623	-0.251714
H272	H	0.974913	0.479377	0.248286
H273	H	0.514560	-0.010659	-0.158948
H274	H	1.014560	0.489341	0.341052
N275	N	-0.184072	-0.110377	-0.189210
N276	N	0.315928	0.389623	0.310790
H277	H	-0.207696	-0.109938	-0.246822
H278	H	0.292304	0.390062	0.253178
H279	H	-0.159270	-0.054866	-0.193179
H280	H	0.340730	0.445134	0.306821
N281	N	0.047857	-0.114798	-0.280144
N282	N	0.547857	0.385202	0.219856
H283	H	0.024231	-0.114355	-0.337753
H284	H	0.524231	0.385645	0.162247
H285	H	0.072661	-0.059290	-0.284114
H286	H	0.572661	0.440710	0.215886
H287	H	-0.282211	-0.108494	-0.165170
H288	H	0.217789	0.391506	0.334830
H289	H	0.192452	-0.117453	0.255837
H290	H	0.692452	0.382547	0.755837
H291	H	-0.050276	-0.112914	-0.256102
H292	H	0.449724	0.387086	0.243898
H293	H	-0.050266	-0.112842	0.255814
H294	H	0.449734	0.387158	0.755814
H295	H	0.041190	-0.114584	0.255818
H296	H	0.541190	0.385416	0.755818
