data_functionalizedCrystal
_audit_creation_method	'MofGen! by Chris Wilmer'
_symmetry_space_group_name_H-M	'P1'
_symmetry_Int_Tables_number	1
_symmetry_cell_setting	triclinic
loop_
_symmetry_equiv_pos_as_xyz
  x,y,z
_cell_length_a	6.817900
_cell_length_b	11.164071
_cell_length_c	11.102237
_cell_angle_alpha	88.369950
_cell_angle_beta	71.395199
_cell_angle_gamma	109.525831
loop_
_atom_site_label
_atom_site_type_symbol
_atom_site_fract_x
_atom_site_fract_y
_atom_site_fract_z
V1	V	4.122531	0.396262	-0.175859
O2	O	4.081358	0.388716	0.008431
O3	O	4.099230	0.393555	-0.348679
O4	O	4.104112	0.569085	-0.173162
O5	O	4.076442	0.211971	-0.168301
V6	V	4.599022	0.374219	-0.153814
O7	O	4.399215	0.444616	-0.224214
O8	O	4.772536	0.325866	-0.105459
O9	O	4.399117	0.376927	0.019006
O10	O	4.757593	0.381765	-0.338104
O11	O	4.762508	0.558511	-0.161372
O12	O	4.394235	0.201397	-0.156511
C13	C	3.949367	0.387304	-0.390809
C14	C	4.011802	0.386243	-0.532092
C15	C	4.104543	0.502131	-0.616618
C16	C	4.163200	0.501133	-0.749368
C17	C	4.036371	0.268346	-0.713052
C18	C	3.977702	0.269346	-0.580305
C19	C	4.177776	0.636529	-0.637585
C20	C	4.236433	0.635531	-0.770335
C21	C	3.955592	0.611209	-0.166918
C22	C	4.021982	0.752492	-0.165857
C23	C	4.237358	0.825340	-0.171697
C24	C	4.299713	0.958087	-0.170675
C25	C	3.931297	0.945125	-0.157978
C26	C	3.868940	0.812380	-0.158990
C27	C	4.450064	0.832825	-0.179033
C28	C	4.512418	0.965572	-0.178011
C29	C	4.213069	1.159267	-0.162761
C30	C	4.146693	1.017984	-0.163822
C31	C	4.212323	0.383174	0.061129
C32	C	4.129128	0.384244	0.202411
H33	H	4.328191	0.683564	-0.608040
C34	C	4.474587	0.769186	-0.062500
C35	C	4.557347	0.852000	0.032475
C36	C	4.581868	0.788360	0.149004
C37	C	4.523628	0.641906	0.170559
C38	C	4.440863	0.559082	0.075581
C39	C	4.416342	0.622722	-0.040949
H40	H	4.600464	0.960423	0.016522
H41	H	4.643136	0.849673	0.219313
H42	H	4.541779	0.594795	0.256821
H43	H	4.397745	0.450660	0.091534
H44	H	4.355073	0.561410	-0.111258
C45	C	4.578003	0.799764	-0.307067
C46	C	4.751876	0.908200	-0.415735
C47	C	4.879806	0.875137	-0.543772
C48	C	4.833862	0.733638	-0.563142
C49	C	4.659980	0.625191	-0.454470
C50	C	4.532051	0.658255	-0.326433
H51	H	4.785894	1.012955	-0.401400
H52	H	5.008524	0.955417	-0.624218
H53	H	4.928562	0.709162	-0.657922
H54	H	4.625962	0.520436	-0.468806
H55	H	4.403332	0.577975	-0.245988
H56	H	4.131484	0.671932	-0.812894
H57	H	3.806703	0.993902	-0.152385
C58	C	4.562805	1.004896	-0.056120
C59	C	4.381167	0.950429	0.077258
C60	C	4.431544	0.989753	0.199149
C61	C	4.663559	1.083543	0.187662
C62	C	4.845212	1.138015	0.054279
C63	C	4.794835	1.098692	-0.067612
H64	H	4.209402	0.880995	0.085766
H65	H	4.297071	0.949428	0.297887
H66	H	4.700851	1.112653	0.277893
H67	H	5.016977	1.207450	0.045771
H68	H	4.929308	1.139016	-0.166351
H69	H	4.421873	0.691726	-0.819379
H70	H	4.657580	1.018420	-0.269906
H71	H	4.008613	0.173173	-0.752324
H72	H	3.902166	0.174977	-0.511486
H73	H	3.693567	0.753072	-0.154236
H74	H	4.048570	0.683538	-0.604646
