data_functionalizedCrystal
_audit_creation_method	'MofGen! by Chris Wilmer'
_symmetry_space_group_name_H-M	'P1'
_symmetry_Int_Tables_number	1
_symmetry_cell_setting	triclinic
loop_
_symmetry_equiv_pos_as_xyz
  x,y,z
_cell_length_a	15.995350
_cell_length_b	15.995343
_cell_length_c	14.472310
_cell_angle_alpha	89.994209
_cell_angle_beta	89.990621
_cell_angle_gamma	83.490780
loop_
_atom_site_label
_atom_site_type_symbol
_atom_site_fract_x
_atom_site_fract_y
_atom_site_fract_z
O1	O	1.110994	0.107921	-0.076772
O2	O	0.867218	0.121249	-0.076793
O3	O	0.995773	-0.007303	-0.076765
O4	O	0.982439	0.236473	-0.076800
O5	O	0.995740	-0.007296	0.076917
O6	O	0.867185	0.121256	0.076889
O7	O	1.110960	0.107929	0.076910
Cu8	Cu	0.989070	0.114593	0.090932
Cu9	Cu	0.989109	0.114584	-0.090815
O10	O	0.982405	0.236481	0.076882
C11	C	0.836007	0.120702	0.000046
C12	C	0.743056	0.119050	0.000039
C13	C	0.995206	-0.038494	0.000078
C14	C	0.993557	-0.131445	0.000086
C15	C	0.405309	0.113118	0.000059
C16	C	0.452745	0.021565	0.000415
C17	C	0.549436	0.023217	0.000062
C18	C	0.572869	0.116060	0.000050
C19	C	0.531800	0.161212	-0.087713
C20	C	0.435164	0.158913	-0.087780
C21	C	0.434788	0.160813	0.086985
C22	C	0.531733	0.160791	0.088138
C23	C	0.667567	0.117728	0.000041
C24	C	0.310611	0.111452	0.000061
C25	C	0.990563	-0.301631	0.000064
C26	C	0.897766	-0.324977	0.000055
C27	C	0.896021	-0.421655	-0.000305
C28	C	0.987615	-0.469191	0.000044
C29	C	1.034294	-0.440096	-0.087535
C30	C	1.035394	-0.343304	-0.087598
C31	C	1.036715	-0.343400	0.087173
C32	C	1.033289	-0.439895	0.088314
C33	C	0.985953	-0.563889	0.000030
C34	C	0.992228	-0.206933	0.000072
C35	C	1.142172	0.108476	0.000069
C36	C	1.235122	0.110128	0.000070
C37	C	0.982972	0.267672	0.000036
C38	C	0.984621	0.360622	0.000023
N39	N	0.989048	0.114599	0.218763
N40	N	0.989137	0.114572	-0.218646
C41	C	0.989108	0.114581	0.592854
C42	C	0.920090	0.183136	0.553673
C43	C	0.920249	0.183386	0.446585
C44	C	0.989077	0.114590	0.407263
C45	C	1.076441	0.133672	0.446104
C46	C	1.076054	0.134159	0.553225
C47	C	0.971541	0.026741	0.553394
C48	C	0.969537	0.027327	0.446267
C49	C	0.989066	0.114593	0.302375
C50	C	0.989125	0.114579	0.697742
H51	H	0.434211	-0.015027	0.063354
H52	H	0.403024	0.228313	0.087569
H53	H	0.433166	-0.014865	-0.062166
N54	N	0.565962	0.119412	0.169581
N55	N	0.558215	0.043431	0.182678
H56	H	0.582394	0.014198	0.240193
N57	N	0.412212	0.117576	-0.170054
N58	N	0.376580	0.052124	-0.164588
H59	H	0.360375	0.022925	-0.222694
N60	N	0.584396	-0.021617	-0.078989
N61	N	0.537374	-0.054220	-0.134075
H62	H	0.562063	-0.085885	-0.189909
N63	N	0.838362	0.169102	0.586022
N64	N	0.830025	0.108414	0.638335
H65	H	0.772302	0.098499	0.661187
H66	H	0.560189	0.129845	-0.153019
H67	H	0.547095	0.228495	0.093430
H68	H	0.905271	0.012846	0.420881
H69	H	1.016542	-0.026079	0.419504
H70	H	1.002292	-0.460184	-0.152968
N71	N	0.394696	0.243229	-0.092780
N72	N	0.406955	0.294980	-0.030909
H73	H	0.378376	0.354527	-0.034444
N74	N	0.850837	-0.444855	-0.079800
N75	N	0.841887	-0.520405	-0.094014
H76	H	0.810124	-0.536810	-0.150263
H77	H	0.859474	-0.440675	0.062458
N78	N	0.999957	-0.307940	0.170474
N79	N	0.939292	-0.251445	0.166649
H80	H	0.913321	-0.226402	0.225476
H81	H	1.021872	-0.024275	0.578732
H82	H	0.862397	-0.295990	-0.062662
H83	H	0.545924	0.229421	-0.090986
H84	H	0.577852	-0.012275	0.062975
H85	H	1.100125	-0.472843	0.093871
H86	H	1.105017	-0.329379	0.088030
H87	H	0.414239	0.130885	0.153507
H88	H	0.861784	-0.296971	0.062851
H89	H	1.003472	-0.316516	-0.153320
H90	H	0.931466	0.248570	0.420942
N91	N	0.893333	0.003739	0.587290
N92	N	0.835970	-0.008553	0.531981
H93	H	0.780730	-0.024791	0.555916
H94	H	1.103446	-0.328730	-0.091326
H95	H	1.101705	-0.471942	-0.090542
H96	H	0.999297	-0.458457	0.153107
N97	N	0.838645	0.169413	0.413820
N98	N	0.808357	0.103215	0.434589
H99	H	0.750666	0.093460	0.411522
N100	N	0.933971	0.264445	0.587427
N101	N	0.994474	0.272123	0.640212
H102	H	1.004281	0.329547	0.664053
N103	N	1.095459	0.214531	0.584536
N104	N	1.049146	0.279693	0.562431
H105	H	1.062849	0.336460	0.584538
N106	N	1.142416	0.073899	0.585730
N107	N	1.188872	0.031622	0.529299
H108	H	1.235743	-0.010933	0.552251
N109	N	1.142404	0.072694	0.414149
N110	N	1.125722	0.014354	0.362267
H111	H	1.172307	-0.028714	0.339697
N112	N	1.096321	0.213118	0.412420
N113	N	1.046293	0.255815	0.359820
H114	H	1.060329	0.311926	0.336031
