data_functionalizedCrystal
_audit_creation_method	'MofGen! by Chris Wilmer'
_symmetry_space_group_name_H-M	'P1'
_symmetry_Int_Tables_number	1
_symmetry_cell_setting	triclinic
loop_
_symmetry_equiv_pos_as_xyz
  x,y,z
_cell_length_a	10.489741
_cell_length_b	14.044220
_cell_length_c	12.503552
_cell_angle_alpha	86.160109
_cell_angle_beta	86.444084
_cell_angle_gamma	91.135974
loop_
_atom_site_label
_atom_site_type_symbol
_atom_site_fract_x
_atom_site_fract_y
_atom_site_fract_z
O1	O	0.300997	-1.265226	0.089205
O2	O	0.550997	-1.015226	0.339205
O3	O	0.800997	-0.765226	0.589205
O4	O	1.050997	-0.515226	0.839205
O5	O	0.289890	-0.989183	0.089232
O6	O	0.539890	-0.739183	0.339232
O7	O	0.789890	-0.489183	0.589232
O8	O	1.039890	-0.239183	0.839232
O9	O	0.110483	-1.133486	0.089212
O10	O	0.360483	-0.883486	0.339212
O11	O	0.610483	-0.633486	0.589212
O12	O	0.860483	-0.383486	0.839212
O13	O	0.480403	-1.120924	0.089226
O14	O	0.730403	-0.870924	0.339226
O15	O	0.980403	-0.620924	0.589226
O16	O	1.230403	-0.370924	0.839226
O17	O	0.123987	-1.122621	-0.089429
O18	O	0.373987	-0.872621	0.160571
O19	O	0.623987	-0.622621	0.410571
O20	O	0.873987	-0.372621	0.660571
O21	O	0.303394	-0.978318	-0.089409
O22	O	0.553394	-0.728318	0.160591
O23	O	0.803394	-0.478318	0.410591
O24	O	1.053394	-0.228318	0.660591
O25	O	0.314501	-1.254362	-0.089436
O26	O	0.564501	-1.004362	0.160564
O27	O	0.814501	-0.754362	0.410564
O28	O	1.064501	-0.504362	0.660564
Cu29	Cu	0.310180	-1.115348	-0.105734
Cu30	Cu	0.560180	-0.865348	0.144266
Cu31	Cu	0.810180	-0.615348	0.394266
Cu32	Cu	1.060180	-0.365348	0.644266
Cu33	Cu	0.294210	-1.128197	0.105530
Cu34	Cu	0.544210	-0.878197	0.355530
Cu35	Cu	0.794210	-0.628197	0.605530
Cu36	Cu	1.044210	-0.378197	0.855530
O37	O	0.493907	-1.110059	-0.089415
O38	O	0.743907	-0.860059	0.160585
O39	O	0.993907	-0.610059	0.410585
O40	O	1.243907	-0.360059	0.660585
C41	C	0.291780	-0.948403	-0.000085
C42	C	0.541780	-0.698403	0.249915
C43	C	0.791780	-0.448403	0.499915
C44	C	1.041780	-0.198403	0.749915
C45	C	0.277280	-0.843079	-0.000074
C46	C	0.527280	-0.593079	0.249926
C47	C	0.777280	-0.343079	0.499926
C48	C	1.027280	-0.093079	0.749926
C49	C	0.069607	-1.127104	-0.000108
C50	C	0.319607	-0.877104	0.249892
C51	C	0.569607	-0.627104	0.499892
C52	C	0.819607	-0.377104	0.749892
C53	C	-0.072311	-1.124266	-0.000106
C54	C	0.177689	-0.874266	0.249894
C55	C	0.427689	-0.624266	0.499894
C56	C	0.677689	-0.374266	0.749894
C57	C	0.312610	-1.295142	-0.000116
C58	C	0.562610	-1.045142	0.249884
C59	C	0.812610	-0.795142	0.499884
C60	C	1.062610	-0.545142	0.749884
C61	C	0.327110	-1.400466	-0.000120
C62	C	0.577110	-1.150466	0.249880
C63	C	0.827110	-0.900466	0.499880
C64	C	1.077110	-0.650466	0.749880
C65	C	-0.149764	-1.032451	-0.000089
C66	C	0.100236	-0.782451	0.249911
C67	C	0.350236	-0.532451	0.499911
C68	C	0.600236	-0.282451	0.749911
C69	C	-0.230829	-1.070467	-0.088172
C70	C	0.019171	-0.820467	0.161828
C71	C	0.269171	-0.570467	0.411828
C72	C	0.519171	-0.320467	0.661828
C73	C	-0.244116	-1.081200	0.087954
C74	C	0.005884	-0.831200	0.337954
C75	C	0.255884	-0.581200	0.587954
C76	C	0.505884	-0.331200	0.837954
C77	C	-0.151501	-1.162315	-0.088262
C78	C	0.098499	-0.912315	0.161738
C79	C	0.348499	-0.662315	0.411738
C80	C	0.598499	-0.412315	0.661738
C81	C	-0.164785	-1.173041	0.087943
C82	C	0.085215	-0.923041	0.337943
C83	C	0.335215	-0.673041	0.587943
C84	C	0.585215	-0.423041	0.837943
C85	C	-0.245814	-1.211122	-0.000162
C86	C	0.004186	-0.961122	0.249838
C87	C	0.254186	-0.711122	0.499838
C88	C	0.504186	-0.461122	0.749838
C89	C	0.534783	-1.116440	-0.000093
C90	C	0.784783	-0.866440	0.249907
C91	C	1.034783	-0.616440	0.499907
C92	C	1.284783	-0.366440	0.749907
C93	C	0.676700	-1.119279	-0.000088
C94	C	0.926700	-0.869279	0.249912
C95	C	1.176700	-0.619279	0.499912
C96	C	1.426700	-0.369279	0.749912
N97	N	0.321413	-1.106317	-0.254325
N98	N	0.571413	-0.856317	-0.004325
N99	N	0.821413	-0.606317	0.245675
N100	N	1.071413	-0.356317	0.495675
C101	C	0.250773	-0.650235	-0.000097
C102	C	0.500773	-0.400235	0.249903
C103	C	0.750773	-0.150235	0.499903
C104	C	1.000773	0.099765	0.749903
C105	C	0.353611	-0.593304	-0.000097
C106	C	0.603611	-0.343304	0.249903
C107	C	0.853611	-0.093304	0.499903
C108	C	1.103611	0.156696	0.749903
C109	C	0.338862	-0.485999	-0.000110
C110	C	0.588862	-0.235999	0.249890
C111	C	0.838862	0.014001	0.499890
C112	C	1.088862	0.264001	0.749890
C113	C	0.265520	-0.757550	-0.000084
C114	C	0.515520	-0.507550	0.249916
C115	C	0.765520	-0.257550	0.499916
C116	C	1.015520	-0.007550	0.749916
C117	C	0.266441	-1.150514	-0.526764
C118	C	0.516441	-0.900514	-0.276764
C119	C	0.766441	-0.650514	-0.026764
C120	C	1.016441	-0.400514	0.223236
C121	C	0.337937	-1.093041	-0.473432
C122	C	0.587937	-0.843041	-0.223432
C123	C	0.837937	-0.593041	0.026568
C124	C	1.087937	-0.343041	0.276568
C125	C	0.328740	-1.100430	-0.351510
C126	C	0.578740	-0.850430	-0.101510
C127	C	0.828740	-0.600430	0.148490
C128	C	1.078740	-0.350430	0.398490
C129	C	0.275635	-1.143126	-0.648698
C130	C	0.525635	-0.893126	-0.398698
C131	C	0.775635	-0.643126	-0.148698
C132	C	1.025635	-0.393126	0.101302
N133	N	0.282969	-1.137235	0.254122
N134	N	0.532969	-0.887235	0.504122
N135	N	0.782969	-0.637235	0.754122
N136	N	1.032969	-0.387235	1.004122
H137	H	-0.107764	-0.956955	-0.000170
H138	H	0.142236	-0.706955	0.249830
H139	H	0.392236	-0.456955	0.499830
H140	H	0.642236	-0.206955	0.749830
Cl141	Cl	0.443108	-1.008510	-0.544308
Cl142	Cl	0.693108	-0.758510	-0.294308
Cl143	Cl	0.943108	-0.508510	-0.044308
Cl144	Cl	1.193108	-0.258510	0.205692
Cl145	Cl	0.161283	-1.235047	-0.455893
Cl146	Cl	0.411283	-0.985047	-0.205893
Cl147	Cl	0.661283	-0.735047	0.044107
Cl148	Cl	0.911283	-0.485047	0.294107
H149	H	0.151662	-0.618389	-0.000106
H150	H	0.401662	-0.368389	0.249894
H151	H	0.651662	-0.118389	0.499894
H152	H	0.901662	0.131611	0.749894
H153	H	-0.260152	-1.027088	-0.162633
H154	H	-0.010152	-0.777088	0.087367
H155	H	0.239848	-0.527088	0.337367
H156	H	0.489848	-0.277088	0.587367
Cl157	Cl	0.506645	-0.642471	-0.000085
Cl158	Cl	0.756645	-0.392471	0.249915
Cl159	Cl	1.006645	-0.142471	0.499915
Cl160	Cl	1.256645	0.107529	0.749915
Cl161	Cl	-0.089128	-1.215246	-0.203364
Cl162	Cl	0.160872	-0.965246	0.046636
Cl163	Cl	0.410872	-0.715246	0.296636
Cl164	Cl	0.660872	-0.465246	0.546636
H165	H	-0.135432	-1.216386	0.162408
H166	H	0.114568	-0.966386	0.412408
H167	H	0.364568	-0.716386	0.662408
H168	H	0.614568	-0.466386	0.912408
Cl169	Cl	-0.310289	-1.327772	-0.000245
Cl170	Cl	-0.060289	-1.077772	0.249755
Cl171	Cl	0.189711	-0.827772	0.499755
Cl172	Cl	0.439711	-0.577772	0.749755
H173	H	-0.284651	-1.046869	0.162429
H174	H	-0.034651	-0.796869	0.412429
H175	H	0.215349	-0.546869	0.662429
H176	H	0.465349	-0.296869	0.912429
