data_functionalizedCrystal
_audit_creation_method	'MofGen! by Chris Wilmer'
_symmetry_space_group_name_H-M	'P1'
_symmetry_Int_Tables_number	1
_symmetry_cell_setting	triclinic
loop_
_symmetry_equiv_pos_as_xyz
  x,y,z
_cell_length_a	14.971482
_cell_length_b	11.026607
_cell_length_c	13.448316
_cell_angle_alpha	89.996104
_cell_angle_beta	89.993798
_cell_angle_gamma	96.099312
loop_
_atom_site_label
_atom_site_type_symbol
_atom_site_fract_x
_atom_site_fract_y
_atom_site_fract_z
O1	O	1.212291	0.158159	-0.082676
O2	O	0.954926	0.177106	-0.082680
O3	O	1.062278	-0.009051	-0.082675
O4	O	1.104939	0.344316	-0.082681
O5	O	1.062259	-0.009063	0.082709
O6	O	0.954907	0.177094	0.082703
O7	O	1.212272	0.158147	0.082708
Cu8	Cu	1.083588	0.167620	0.097807
Cu9	Cu	1.083610	0.167633	-0.097779
O10	O	1.104919	0.344304	0.082702
C11	C	0.921456	0.176254	0.000011
C12	C	0.821752	0.173717	0.000009
C13	C	0.774906	0.172516	0.090161
C14	C	0.681222	0.170113	0.090162
C15	C	0.634388	0.168919	0.000010
C16	C	0.681240	0.170117	-0.090148
C17	C	0.774922	0.172511	-0.090148
C18	C	0.485979	0.165129	-0.090142
C19	C	0.392292	0.162737	-0.090142
C20	C	0.392280	0.162731	0.090169
C21	C	0.485961	0.165125	0.090169
C22	C	0.532808	0.166325	0.000009
C23	C	1.054399	-0.054279	0.000016
C24	C	1.030938	-0.189027	0.000012
C25	C	1.095717	-0.262740	0.000011
C26	C	1.071471	-0.402009	0.000007
C27	C	1.245742	0.158999	0.000014
C28	C	1.345445	0.161536	0.000010
C29	C	1.112799	0.389532	0.000010
C30	C	1.136260	0.524280	0.000007
N31	N	1.083578	0.167609	0.235371
N32	N	1.083625	0.167634	-0.235343
C33	C	1.131138	0.085213	0.287414
C34	C	1.131143	0.085212	0.391517
C35	C	1.083594	0.167614	0.443575
C36	C	1.036028	0.250015	0.391525
C37	C	1.036018	0.250009	0.287424
C38	C	1.036054	0.250023	0.608505
C39	C	1.036065	0.250030	0.712614
C40	C	1.131180	0.085226	0.712598
C41	C	1.131170	0.085220	0.608497
C42	C	1.083605	0.167622	0.556454
H43	H	0.524092	0.166104	0.163578
H44	H	0.997307	0.317104	0.433917
Cl45	Cl	0.976221	0.353594	0.222000
H46	H	0.643083	0.169114	0.163573
Cl47	Cl	0.333388	0.161223	0.203512
H48	H	1.169908	0.018131	0.754978
H49	H	0.354162	0.161767	-0.163552
Cl50	Cl	0.958122	-0.463744	-0.000005
H51	H	0.957527	-0.229024	0.000004
H52	H	0.643100	0.169137	-0.163552
Cl53	Cl	1.209061	-0.200999	0.000007
Cl54	Cl	1.249609	-0.413989	0.000004
H55	H	1.169863	0.018117	0.245034
H56	H	1.169869	0.018118	0.433890
H57	H	0.524119	0.166107	-0.163559
Cl58	Cl	1.190953	-0.018364	0.543050
Cl59	Cl	0.976283	0.353624	0.778051
Cl60	Cl	0.833814	0.174015	-0.203487
H61	H	0.813033	0.173497	0.163573
Cl62	Cl	0.976254	0.353614	0.543084
