data_functionalizedCrystal
_audit_creation_method	'MofGen! by Chris Wilmer'
_symmetry_space_group_name_H-M	'P1'
_symmetry_Int_Tables_number	1
_symmetry_cell_setting	triclinic
loop_
_symmetry_equiv_pos_as_xyz
  x,y,z
_cell_length_a	16.625548
_cell_length_b	12.759399
_cell_length_c	16.625539
_cell_angle_alpha	90.026183
_cell_angle_beta	89.979432
_cell_angle_gamma	89.983816
loop_
_atom_site_label
_atom_site_type_symbol
_atom_site_fract_x
_atom_site_fract_y
_atom_site_fract_z
Zn1	Zn	1.232722	0.418234	-0.455921
Zn2	Zn	1.232642	0.593936	-0.321093
Zn3	Zn	1.097883	0.418274	-0.321102
Zn4	Zn	1.097871	0.593875	-0.455883
O5	O	1.165280	0.506080	-0.388500
O6	O	1.345543	0.441550	-0.438048
O7	O	1.214738	0.570676	-0.208262
O8	O	1.115808	0.271248	-0.339005
O9	O	1.345485	0.570637	-0.338991
O10	O	1.214873	0.271219	-0.438057
O11	O	1.115731	0.441618	-0.208268
O12	O	0.985049	0.441560	-0.338968
O13	O	1.115788	0.570534	-0.568721
O14	O	0.985040	0.570573	-0.437992
O15	O	1.214862	0.441492	-0.568749
O16	O	1.214726	0.740949	-0.338954
O17	O	1.115710	0.740904	-0.437984
C18	C	0.955789	0.506065	-0.388477
C19	C	0.866168	0.506084	-0.388487
C20	C	1.165230	0.779047	-0.388482
C21	C	1.165283	0.895824	-0.388501
C22	C	1.165332	0.506002	-0.598809
C23	C	1.165354	0.505968	-0.688430
C24	C	0.537992	0.506091	-0.388521
C25	C	0.629300	0.506086	-0.388509
C26	C	0.702077	0.506088	-0.388503
C27	C	0.793391	0.506082	-0.388493
C28	C	1.375588	0.506096	-0.388523
C29	C	1.465210	0.506103	-0.388533
C30	C	1.165351	0.232047	-0.388536
C31	C	1.165382	0.115270	-0.388551
C32	C	1.216899	0.950674	-0.336995
C33	C	1.216951	1.060398	-0.337022
C34	C	1.113763	1.060412	-0.440063
C35	C	1.113716	0.950690	-0.440040
C36	C	1.165392	0.505851	-1.016606
C37	C	1.165379	0.505887	-0.925297
C38	C	1.165373	0.505910	-0.852521
C39	C	1.165360	0.505945	-0.761207
C40	C	1.165274	0.506082	-0.179009
C41	C	1.165408	0.505819	-0.089388
H42	H	1.258889	0.906005	-0.295030
H43	H	1.071778	1.105098	-0.482023
H44	H	1.071684	0.906028	-0.481986
C45	C	1.273729	1.120733	-0.280363
C46	C	1.330450	1.060378	-0.223678
C47	C	1.387233	1.120713	-0.167019
C48	C	1.387295	1.241403	-0.167045
C49	C	1.330573	1.301765	-0.223733
C50	C	1.273789	1.241430	-0.280392
H51	H	1.330406	0.971030	-0.223656
H52	H	1.429223	1.076028	-0.125055
H53	H	1.429330	1.286066	-0.125103
H54	H	1.330617	1.391113	-0.223755
H55	H	1.231799	1.286115	-0.322356
