data_functionalizedCrystal
_audit_creation_method	'MofGen! by Chris Wilmer'
_symmetry_space_group_name_H-M	'P1'
_symmetry_Int_Tables_number	1
_symmetry_cell_setting	triclinic
loop_
_symmetry_equiv_pos_as_xyz
  x,y,z
_cell_length_a	12.759401
_cell_length_b	12.759399
_cell_length_c	12.759393
_cell_angle_alpha	89.969069
_cell_angle_beta	89.981287
_cell_angle_gamma	90.016641
loop_
_atom_site_label
_atom_site_type_symbol
_atom_site_fract_x
_atom_site_fract_y
_atom_site_fract_z
Zn1	Zn	1.606240	-0.418172	-0.594017
Zn2	Zn	1.606137	-0.593888	-0.418336
Zn3	Zn	1.430546	-0.418228	-0.418352
Zn4	Zn	1.430530	-0.593815	-0.593973
O5	O	1.518363	-0.506026	-0.506170
O6	O	1.753248	-0.441489	-0.570724
O7	O	1.582808	-0.570641	-0.271317
O8	O	1.453902	-0.271200	-0.441680
O9	O	1.753172	-0.570586	-0.441652
O10	O	1.582984	-0.271159	-0.570740
O11	O	1.453802	-0.441584	-0.271329
O12	O	1.283523	-0.441513	-0.441637
O13	O	1.453874	-0.570461	-0.741000
O14	O	1.283511	-0.570515	-0.570665
O15	O	1.582968	-0.441418	-0.741032
O16	O	1.582792	-0.740899	-0.441609
O17	O	1.453774	-0.740845	-0.570649
C18	C	1.245396	-0.506013	-0.506149
C19	C	1.128619	-0.506033	-0.506165
C20	C	1.073779	-0.573307	-0.573244
C21	C	0.964054	-0.573311	-0.573265
C22	C	0.964021	-0.438764	-0.439118
C23	C	1.073743	-0.438756	-0.439104
C24	C	0.814153	-0.611009	-0.697125
C25	C	0.759309	-0.678299	-0.764195
C26	C	0.794905	-0.780830	-0.780142
C27	C	0.885344	-0.816092	-0.729004
C28	C	0.940183	-0.748807	-0.661926
C29	C	0.904588	-0.646262	-0.645999
C30	C	1.223646	-0.401068	-0.315242
C31	C	1.278487	-0.333788	-0.248158
C32	C	1.242893	-0.231255	-0.232200
C33	C	1.152450	-0.195998	-0.283320
C34	C	1.097610	-0.263278	-0.350404
C35	C	1.133212	-0.365809	-0.366363
C36	C	1.518299	-0.778993	-0.506146
C37	C	1.518367	-0.895770	-0.506171
C38	C	1.585624	-0.950625	-0.439056
C39	C	1.585691	-1.060349	-0.439091
C40	C	1.451237	-1.060353	-0.573359
C41	C	1.451176	-0.950631	-0.573328
C42	C	1.709701	-1.210225	-0.401704
C43	C	1.776948	-1.265083	-0.334573
C44	C	1.793115	-1.229543	-0.232062
C45	C	1.742019	-1.139145	-0.196662
C46	C	1.674764	-1.084292	-0.263788
C47	C	1.658618	-1.119831	-0.366313
C48	C	1.327164	-0.800754	-0.610705
C49	C	1.259903	-0.745898	-0.677826
C50	C	1.243726	-0.781437	-0.780338
C51	C	1.294803	-0.871838	-0.815734
C52	C	1.362064	-0.926693	-0.748613
C53	C	1.378243	-0.891147	-0.646102
C54	C	1.792396	-0.506040	-0.506191
C55	C	1.909173	-0.506045	-0.506200
C56	C	1.518431	-0.505925	-0.780203
C57	C	1.518460	-0.505882	-0.896980
C58	C	1.518456	-0.231993	-0.506217
C59	C	1.518496	-0.115216	-0.506237
C60	C	1.451264	-0.573043	-0.951827
C61	C	1.451301	-0.573004	-1.061551
C62	C	1.585734	-0.438633	-1.061572
C63	C	1.585702	-0.438678	-0.951849
C64	C	1.413763	-0.696846	-1.211484
C65	C	1.346550	-0.763998	-1.266335
C66	C	1.244020	-0.780136	-1.230719
C67	C	1.208681	-0.729106	-1.140255
C68	C	1.275888	-0.661946	-1.085410
C69	C	1.378434	-0.645828	-1.121024
C70	C	1.623228	-0.314836	-0.801914
C71	C	1.690431	-0.247669	-0.747067
C72	C	1.792964	-0.231521	-0.782681
C73	C	1.828299	-0.282532	-0.873149
C74	C	1.761096	-0.349698	-0.927996
C75	C	1.658564	-0.365849	-0.892375
C76	C	1.518356	-0.506051	-0.233202
C77	C	1.518530	-0.505798	-0.116426
H78	H	1.118455	-0.628085	-0.627852
H79	H	1.252643	-0.484556	-0.328239
N80	N	1.417169	-1.024193	-0.786785
H81	H	1.396197	-1.085788	-0.741658
H82	H	1.396698	-1.038294	-0.861922
H83	H	1.218320	-0.672284	-0.649000
H84	H	1.281631	-0.900774	-0.899208
N85	N	1.658108	-0.891455	-0.366640
H86	H	1.647866	-0.813622	-0.376802
H87	H	1.641814	-0.910709	-0.291596
H88	H	1.633165	-1.010691	-0.234967
H89	H	1.287549	-0.176480	-0.177566
H90	H	1.696555	-1.239163	-0.485179
N91	N	1.865656	-1.288703	-0.159662
H92	H	1.868145	-1.252473	-0.089347
H93	H	1.839013	-1.362663	-0.150306
N94	N	1.378737	-0.645518	-0.892643
H95	H	1.336174	-0.688057	-0.944043
H96	H	1.421464	-0.694162	-0.847108
H97	H	1.818551	-1.338685	-0.363405
N98	N	1.000063	-0.225246	-0.405543
H99	H	1.010497	-0.229829	-0.483876
H100	H	0.938552	-0.270374	-0.384358
N101	N	1.098092	-0.746524	-1.101839
H102	H	1.046844	-0.723919	-1.157761
H103	H	1.087537	-0.823325	-1.085796
H104	H	1.396530	-1.105034	-0.628034
N105	N	1.344621	-0.762418	-0.500136
H106	H	1.302050	-0.696832	-0.487895
H107	H	1.322114	-0.818469	-0.448933
H108	H	1.188953	-0.736764	-0.834986
H109	H	1.123457	-0.112514	-0.270310
N110	N	1.237794	-0.606920	-0.987835
H111	H	1.162640	-0.627333	-0.973591
H112	H	1.282966	-0.628021	-0.926365
N113	N	1.037728	-0.786823	-0.606783
H114	H	1.067070	-0.728637	-0.561877
H115	H	1.019665	-0.848922	-0.561098
N116	N	0.923725	-0.926690	-0.746185
H117	H	0.875261	-0.963964	-0.796436
H118	H	0.996831	-0.924768	-0.776495
H119	H	1.640479	-0.383917	-1.106260
N120	N	1.171530	-0.852578	-1.289864
H121	H	1.209474	-0.882458	-1.352571
H122	H	1.148589	-0.911547	-1.242259
N123	N	1.759443	-1.100820	-0.086089
H124	H	1.809803	-1.149285	-0.048937
H125	H	1.789719	-1.027702	-0.088055
H126	H	1.375333	-0.805546	-1.339992
N127	N	1.938892	-0.265119	-0.911559
H128	H	1.977622	-0.334133	-0.912690
H129	H	1.936959	-0.234688	-0.984620
H130	H	1.497256	-0.683723	-1.240484
N131	N	1.376035	-0.371813	-0.193015
H132	H	1.390271	-0.446974	-0.213308
H133	H	1.437527	-0.326631	-0.214137
N134	N	1.799201	-0.404720	-1.025574
H135	H	1.874354	-0.384300	-1.039817
H136	H	1.794612	-0.483051	-1.015097
H137	H	1.847674	-0.176815	-0.738022
H138	H	1.661649	-0.206126	-0.673409
N139	N	0.661778	-0.640264	-0.819362
H140	H	0.632436	-0.698451	-0.864267
H141	H	0.607842	-0.618662	-0.765606
H142	H	1.539738	-0.327983	-0.772905
N143	N	0.775760	-0.500418	-0.679926
H144	H	0.774656	-0.461751	-0.749008
H145	H	0.702688	-0.502362	-0.649533
H146	H	0.919328	-0.383991	-0.384518
N147	N	0.735751	-0.853412	-0.852474
H148	H	0.673059	-0.815519	-0.882444
H149	H	0.783354	-0.876402	-0.911385
