data_functionalizedCrystal
_audit_creation_method	'MofGen! by Chris Wilmer'
_symmetry_space_group_name_H-M	'P1'
_symmetry_Int_Tables_number	1
_symmetry_cell_setting	triclinic
loop_
_symmetry_equiv_pos_as_xyz
  x,y,z
_cell_length_a	16.120530
_cell_length_b	21.295417
_cell_length_c	16.120256
_cell_angle_alpha	92.868749
_cell_angle_beta	90.128265
_cell_angle_gamma	87.125778
loop_
_atom_site_label
_atom_site_type_symbol
_atom_site_fract_x
_atom_site_fract_y
_atom_site_fract_z
Zn1	Zn	1.247390	-0.318928	-0.534526
Zn2	Zn	1.254326	-0.419134	-0.395454
Zn3	Zn	1.115382	-0.308287	-0.388444
Zn4	Zn	1.108282	-0.418557	-0.527424
O5	O	1.181345	-0.366227	-0.461462
O6	O	1.364676	-0.336915	-0.521983
O7	O	1.241769	-0.400218	-0.278159
O8	O	1.132963	-0.221613	-0.407861
O9	O	1.369771	-0.410536	-0.419808
O10	O	1.229948	-0.229431	-0.515186
O11	O	1.139688	-0.318779	-0.273009
O12	O	0.998075	-0.318220	-0.400975
O13	O	1.120861	-0.409553	-0.644732
O14	O	0.992858	-0.399235	-0.503083
O15	O	1.223063	-0.336355	-0.649949
O16	O	1.234884	-0.507143	-0.412922
O17	O	1.127586	-0.506719	-0.509880
C18	C	0.965294	-0.357511	-0.450498
C19	C	0.872866	-0.353798	-0.445827
C20	C	1.181238	-0.529772	-0.461411
C21	C	1.181267	-0.599742	-0.461420
C22	C	0.703637	-0.347006	-0.437307
C23	C	0.659890	-0.385496	-0.485679
C24	C	0.565726	-0.381716	-0.480938
C25	C	0.797811	-0.350784	-0.442046
C26	C	1.237182	-0.632812	-0.410991
C27	C	1.237220	-0.698557	-0.411012
C28	C	1.181329	-0.731228	-0.461452
C29	C	1.125411	-0.698150	-0.511891
C30	C	1.125380	-0.632407	-0.511875
N31	N	1.108264	-0.831794	-0.464100
N32	N	1.108296	-0.894247	-0.464110
C33	C	1.181420	-0.929308	-0.461504
N34	N	1.254513	-0.899556	-0.458872
N35	N	1.254481	-0.837097	-0.458857
C36	C	1.181357	-0.802515	-0.461475
C37	C	1.237380	-1.033666	-0.411095
C38	C	1.237419	-1.099412	-0.411122
C39	C	1.125603	-1.099004	-0.511996
C40	C	1.125571	-1.033259	-0.511975
C41	C	1.181459	-1.000594	-0.461520
C42	C	1.398239	-0.374977	-0.472470
C43	C	1.490667	-0.378705	-0.477160
C44	C	1.170397	-0.374077	-0.678356
C45	C	1.165731	-0.377422	-0.770784
C46	C	1.181474	-0.202044	-0.461533
C47	C	1.181529	-0.132079	-0.461564
C48	C	1.205674	-0.348765	-0.983771
C49	C	1.157185	-0.383503	-0.940003
C50	C	1.161941	-0.380119	-0.845841
C51	C	1.200919	-0.352148	-1.077942
C52	C	1.192299	-0.358363	-0.245414
C53	C	1.197126	-0.354847	-0.152996
H54	H	0.693157	-0.421286	-0.530653
H55	H	1.250756	-0.316486	-0.950526
O56	O	1.097462	-0.426265	-0.984034
H57	H	1.112507	-0.475657	-0.968134
H58	H	1.282957	-1.126337	-0.370058
O59	O	0.659584	-0.299616	-0.377710
H60	H	0.591466	-0.304062	-0.383278
H61	H	1.282755	-0.725488	-0.369947
O62	O	1.297469	-0.597579	-0.356587
H63	H	1.336363	-0.631626	-0.321530
H64	H	1.079905	-0.724755	-0.552962
O65	O	1.065052	-0.596737	-0.566256
H66	H	1.075961	-0.612257	-0.632258
O67	O	1.297668	-0.998423	-0.356701
H68	H	1.286779	-1.008138	-0.290704
O69	O	1.065314	-1.134231	-0.566399
H70	H	1.074724	-1.185502	-0.557934
O71	O	1.065243	-0.997582	-0.566343
H72	H	1.026374	-1.031343	-0.601412
