data_functionalizedCrystal
_audit_creation_method	'MofGen! by Chris Wilmer'
_symmetry_space_group_name_H-M	'P1'
_symmetry_Int_Tables_number	1
_symmetry_cell_setting	triclinic
loop_
_symmetry_equiv_pos_as_xyz
  x,y,z
_cell_length_a	21.295420
_cell_length_b	21.295417
_cell_length_c	21.295412
_cell_angle_alpha	90.029621
_cell_angle_beta	90.023648
_cell_angle_gamma	90.027953
loop_
_atom_site_label
_atom_site_type_symbol
_atom_site_fract_x
_atom_site_fract_y
_atom_site_fract_z
Zn1	Zn	0.962352	-0.250654	0.355918
Zn2	Zn	0.962258	-0.355923	0.250646
Zn3	Zn	0.857078	-0.250668	0.250663
Zn4	Zn	0.857046	-0.355886	0.355877
O5	O	0.909684	-0.303283	0.303276
O6	O	1.050429	-0.264628	0.341964
O7	O	0.948279	-0.341981	0.162558
O8	O	0.871095	-0.162577	0.264650
O9	O	1.050360	-0.341968	0.264620
O10	O	0.948440	-0.162567	0.341980
O11	O	0.871004	-0.264651	0.162571
O12	O	0.768984	-0.264616	0.264610
O13	O	0.871042	-0.341906	0.443972
O14	O	0.768961	-0.341919	0.341910
O15	O	0.948410	-0.264593	0.444002
O16	O	0.948249	-0.444007	0.264580
O17	O	0.870951	-0.443981	0.341893
C18	C	0.746132	-0.303266	0.303258
C19	C	0.676164	-0.303274	0.303265
C20	C	0.909603	-0.466834	0.303244
C21	C	0.909627	-0.536803	0.303251
C22	C	0.176711	-0.343609	0.343487
C23	C	0.242453	-0.343609	0.343481
C24	C	0.275324	-0.303297	0.303296
C25	C	0.242448	-0.262993	0.263103
C26	C	0.176707	-0.262999	0.263106
N27	N	0.378565	-0.248180	0.298562
N28	N	0.441016	-0.248177	0.298563
C29	C	0.473399	-0.303279	0.303282
N30	N	0.440972	-0.358386	0.308014
N31	N	0.378515	-0.358389	0.308017
C32	C	0.346610	-0.303287	0.303287
C33	C	0.577553	-0.343584	0.343462
C34	C	0.643297	-0.343585	0.343451
C35	C	0.643291	-0.262964	0.263077
C36	C	0.577548	-0.262968	0.263085
C37	C	0.544683	-0.303277	0.303281
C38	C	0.949877	-0.569607	0.343546
C39	C	0.949899	-0.635349	0.343562
C40	C	0.909678	-0.668285	0.303271
C41	C	0.869419	-0.635473	0.262974
C42	C	0.869394	-0.569732	0.262964
N43	N	0.904919	-0.771546	0.248180
N44	N	0.904947	-0.833997	0.248191
C45	C	0.909751	-0.866360	0.303300
N46	N	0.914539	-0.833911	0.358398
N47	N	0.914514	-0.771454	0.358386
C48	C	0.909701	-0.739570	0.303278
C49	C	0.950028	-0.970449	0.343615
C50	C	0.950046	-1.036193	0.343631
C51	C	0.869569	-1.036316	0.263038
C52	C	0.869548	-0.970573	0.263027
C53	C	0.909781	-0.937644	0.303314
C54	C	1.073874	-0.303300	0.303294
C55	C	1.143842	-0.303308	0.303302
C56	C	0.909733	-0.303244	0.467466
C57	C	0.909754	-0.303227	0.537434
C58	C	0.909781	-0.139093	0.303322
C59	C	0.909823	-0.069124	0.303341
C60	C	0.909671	-0.303276	0.139724
C61	C	0.909772	-0.303116	0.069757
C62	C	0.869527	-0.262957	0.570298
C63	C	0.869525	-0.262945	0.636040
C64	C	0.909761	-0.303197	0.668917
C65	C	0.949990	-0.343475	0.636046
C66	C	0.949987	-0.343490	0.570304
N67	N	0.964865	-0.308006	0.772155
N68	N	0.964867	-0.307988	0.834607
C69	C	0.909772	-0.303155	0.866992
N70	N	0.854675	-0.298328	0.834566
N71	N	0.854675	-0.298343	0.772109
C72	C	0.909768	-0.303185	0.740202
C73	C	0.869540	-0.262870	0.971141
C74	C	0.869536	-0.262863	1.036885
C75	C	0.950007	-0.343389	1.036889
C76	C	0.950005	-0.343400	0.971146
C77	C	0.909772	-0.303137	0.938276
H78	H	0.149956	-0.376434	0.376216
H79	H	0.550793	-0.376407	0.376191
H80	H	0.670058	-0.376407	0.376173
C81	C	0.679438	-0.218620	0.218869
C82	C	0.724667	-0.169227	0.246226
C83	C	0.760817	-0.124884	0.202013
C84	C	0.751737	-0.129935	0.130444
C85	C	0.706506	-0.179330	0.103084
C86	C	0.670357	-0.223673	0.147296
H87	H	0.731390	-0.165487	0.299209
H88	H	0.794300	-0.088319	0.222268
H89	H	0.778498	-0.097110	0.097715
H90	H	0.699784	-0.183071	0.050100
H91	H	0.636874	-0.260238	0.127042
H92	H	0.836768	-0.230149	0.662803
C93	C	0.994250	-0.387752	0.672209
C94	C	0.966943	-0.437156	0.717383
C95	C	1.011201	-0.481437	0.753546
C96	C	1.082766	-0.476315	0.744535
C97	C	1.110076	-0.426909	0.699358
C98	C	1.065818	-0.382628	0.663195
H99	H	0.913964	-0.440950	0.724056
H100	H	0.990984	-0.518011	0.786989
H101	H	1.115528	-0.509094	0.771305
H102	H	1.163055	-0.423115	0.692685
H103	H	1.086035	-0.346054	0.629752
C104	C	0.278619	-0.387940	0.387689
C105	C	0.242470	-0.432278	0.431901
C106	C	0.278633	-0.476608	0.476109
C107	C	0.350946	-0.476600	0.476105
C108	C	0.387099	-0.432261	0.431891
C109	C	0.350936	-0.387930	0.387683
H110	H	0.188936	-0.432286	0.431905
H111	H	0.251870	-0.509432	0.508839
H112	H	0.377716	-0.509416	0.508831
H113	H	0.440633	-0.432253	0.431887
H114	H	0.377699	-0.355107	0.354953
H115	H	0.550786	-0.230149	0.230364
H116	H	0.982747	-0.376282	0.543547
H117	H	0.836616	-0.543022	0.230150
C118	C	0.994122	-0.533385	0.387872
C119	C	1.038391	-0.569475	0.432204
C120	C	1.082631	-0.533252	0.476534
C121	C	1.082603	-0.460940	0.476532
C122	C	1.038332	-0.424846	0.432198
C123	C	0.994091	-0.461069	0.387869
H124	H	1.038413	-0.623009	0.432207
H125	H	1.115404	-0.559972	0.509352
H126	H	1.115352	-0.434125	0.509347
H127	H	1.038309	-0.371312	0.432195
H128	H	0.961319	-0.434349	0.355050
H129	H	0.982671	-0.662064	0.376382
C130	C	0.278604	-0.218648	0.218902
C131	C	0.269594	-0.147094	0.224166
C132	C	0.305750	-0.102748	0.179962
C133	C	0.350916	-0.129956	0.130493
C134	C	0.359929	-0.201514	0.125226
C135	C	0.323773	-0.245860	0.169431
H136	H	0.236157	-0.126949	0.260788
H137	H	0.299078	-0.049776	0.183861
H138	H	0.377681	-0.097129	0.097770
H139	H	0.393365	-0.221659	0.088604
H140	H	0.330445	-0.298831	0.165532
C141	C	0.825176	-0.671699	0.218653
C142	C	0.825204	-0.744012	0.218658
C143	C	0.780956	-0.780237	0.174338
C144	C	0.736680	-0.744150	0.130012
C145	C	0.736649	-0.671833	0.130004
C146	C	0.780897	-0.635608	0.174325
H147	H	0.857982	-0.770730	0.251473
H148	H	0.780979	-0.833771	0.174344
H149	H	0.703925	-0.770966	0.097203
H150	H	0.703871	-0.645115	0.097190
H151	H	0.780874	-0.582074	0.174319
H152	H	0.982786	-0.943637	0.376422
C153	C	0.825280	-0.218588	0.934979
C154	C	0.781022	-0.174296	0.971131
C155	C	0.736763	-0.130014	0.934971
C156	C	0.736761	-0.130023	0.862658
C157	C	0.781021	-0.174317	0.826502
C158	C	0.825280	-0.218599	0.862662
H159	H	0.781022	-0.174287	1.024665
H160	H	0.703999	-0.097225	0.961737
H161	H	0.703998	-0.097243	0.835891
H162	H	0.781021	-0.174326	0.772968
H163	H	0.858044	-0.251388	0.835896
H164	H	0.982822	-1.062901	0.376447
H165	H	0.836816	-1.063131	0.230236
H166	H	0.149945	-0.230179	0.230383
C167	C	0.825277	-0.934486	0.218694
C168	C	0.830457	-0.943569	0.147139
C169	C	0.786182	-0.907483	0.102805
C170	C	0.736727	-0.862313	0.130025
C171	C	0.731545	-0.853227	0.201584
C172	C	0.775820	-0.889314	0.245918
H173	H	0.867069	-0.977009	0.126985
H174	H	0.790019	-0.914209	0.049832
H175	H	0.703952	-0.835600	0.097207
H176	H	0.694933	-0.819788	0.221738
H177	H	0.771983	-0.882587	0.298891
C178	C	0.825269	-0.218673	0.534139
C179	C	0.775829	-0.245953	0.488917
C180	C	0.731571	-0.201671	0.452756
C181	C	0.736753	-0.130108	0.461817
C182	C	0.786195	-0.102824	0.507041
C183	C	0.830453	-0.147106	0.543202
H184	H	0.771991	-0.298932	0.482208
H185	H	0.694970	-0.221869	0.419278
H186	H	0.703990	-0.097327	0.435048
H187	H	0.790033	-0.049845	0.513750
H188	H	0.867054	-0.126909	0.576680
H189	H	0.836774	-0.230072	1.063641
C190	C	0.994271	-0.387669	1.073039
C191	C	0.966974	-0.437082	1.118210
C192	C	1.011239	-0.481365	1.154362
C193	C	1.082802	-0.476235	1.145343
C194	C	1.110104	-0.426820	1.100171
C195	C	1.065838	-0.382537	1.064019
H196	H	0.913995	-0.440881	1.124887
H197	H	0.991028	-0.517945	1.187801
H198	H	1.115570	-0.509016	1.172105
H199	H	1.163082	-0.423021	1.093493
H200	H	1.086049	-0.345957	1.030579
C201	C	0.994262	-0.387693	0.934992
C202	C	1.038522	-0.431970	0.971151
C203	C	1.082779	-0.476267	0.934996
C204	C	1.082777	-0.476285	0.862684
C205	C	1.038516	-0.432006	0.826521
C206	C	0.994258	-0.387710	0.862675
H207	H	1.038525	-0.431958	1.024684
H208	H	1.115545	-0.509045	0.961767
H209	H	1.115540	-0.509076	0.835920
H210	H	1.038513	-0.432018	0.772987
H211	H	0.961493	-0.354931	0.835904
