data_functionalizedCrystal
_audit_creation_method	'MofGen! by Chris Wilmer'
_symmetry_space_group_name_H-M	'P1'
_symmetry_Int_Tables_number	1
_symmetry_cell_setting	triclinic
loop_
_symmetry_equiv_pos_as_xyz
  x,y,z
_cell_length_a	16.109318
_cell_length_b	9.565339
_cell_length_c	16.109301
_cell_angle_alpha	90.002222
_cell_angle_beta	83.465022
_cell_angle_gamma	89.993674
loop_
_atom_site_label
_atom_site_type_symbol
_atom_site_fract_x
_atom_site_fract_y
_atom_site_fract_z
O1	O	1.103115	0.116148	0.106932
O2	O	0.861055	0.116177	0.120216
O3	O	0.988734	0.116148	-0.007457
O4	O	0.975435	0.116178	0.234605
O5	O	0.988740	-0.116373	-0.007453
O6	O	0.861060	-0.116343	0.120220
O7	O	1.103120	-0.116372	0.106936
Zn8	Zn	0.982091	-0.153275	0.113578
Zn9	Zn	0.982084	0.153080	0.113573
O10	O	0.975441	-0.116343	0.234608
C11	C	0.830083	-0.000080	0.119677
C12	C	0.737788	-0.000069	0.118057
N13	N	0.982102	-0.362354	0.113581
C14	C	0.438711	0.126652	0.112820
C15	C	0.525433	0.126661	0.114337
C16	C	0.525458	-0.126845	0.114330
C17	C	0.438739	-0.126852	0.112806
C18	C	0.395367	-0.000099	0.112056
C19	C	0.568807	-0.000083	0.115096
C20	C	0.662835	-0.000075	0.116742
C21	C	0.301334	-0.000107	0.110409
C22	C	1.041168	-0.453534	0.054541
C23	C	0.966044	-0.546697	0.038408
C24	C	1.057197	-0.546746	0.129660
C25	C	0.906940	-0.453466	0.097411
C26	C	0.998142	-0.453507	0.188696
C27	C	0.922964	-0.546629	0.172595
C28	C	1.134092	-0.000112	0.107474
C29	C	1.226387	-0.000114	0.109095
C30	C	0.988198	-0.000113	-0.038430
C31	C	0.986583	-0.000115	-0.130725
N32	N	0.982079	0.362159	0.113564
C33	C	1.058590	-0.000101	-0.352993
C34	C	1.057066	-0.000090	-0.439713
C35	C	0.905579	-0.000077	-0.419848
C36	C	0.907104	-0.000079	-0.333130
C37	C	0.983612	-0.000098	-0.299704
C38	C	0.980563	-0.000085	-0.473144
C39	C	0.978910	-0.000072	-0.567170
C40	C	0.985265	-0.000108	-0.205672
C41	C	0.975976	-0.000079	0.265581
C42	C	0.977592	-0.000068	0.357877
H43	H	0.403401	0.229863	0.112207
H44	H	0.403447	-0.230075	0.112183
Cl45	Cl	1.118215	-0.390416	-0.022581
Cl46	Cl	0.812837	-0.000062	-0.266133
H47	H	0.560720	0.229875	0.114958
Cl48	Cl	0.579986	-0.286182	0.115283
Cl49	Cl	0.945066	-0.609886	-0.059677
Cl50	Cl	1.019150	-0.390248	0.286750
Cl51	Cl	0.808854	-0.390482	0.076288
H52	H	0.872949	-0.587247	0.222520
H53	H	1.120713	-0.587720	0.143267
H54	H	1.120888	-0.000114	-0.325781
Cl55	Cl	1.151329	-0.000091	-0.506702
H56	H	0.843288	-0.000064	-0.447074
