data_functionalizedCrystal
_audit_creation_method	'MofGen! by Chris Wilmer'
_symmetry_space_group_name_H-M	'P1'
_symmetry_Int_Tables_number	1
_symmetry_cell_setting	triclinic
loop_
_symmetry_equiv_pos_as_xyz
  x,y,z
_cell_length_a	18.101397
_cell_length_b	19.121274
_cell_length_c	18.101389
_cell_angle_alpha	87.579535
_cell_angle_beta	89.981649
_cell_angle_gamma	92.420740
loop_
_atom_site_label
_atom_site_type_symbol
_atom_site_fract_x
_atom_site_fract_y
_atom_site_fract_z
Zn1	Zn	-0.343219	-1.073710	-0.370443
Zn2	Zn	0.156781	-0.573710	0.129557
Zn3	Zn	-0.467041	-1.073634	-0.246605
Zn4	Zn	0.032959	-0.573634	0.253395
Zn5	Zn	-0.337937	-0.956264	-0.251897
Zn6	Zn	0.162063	-0.456264	0.248103
Zn7	Zn	-0.461738	-0.956241	-0.375685
Zn8	Zn	0.038262	-0.456241	0.124315
O9	O	-0.402484	-1.014962	-0.311157
O10	O	0.097516	-0.514962	0.188843
O11	O	-0.364074	-1.171980	-0.349606
O12	O	0.135926	-0.671980	0.150394
O13	O	-0.449924	-1.058043	-0.143675
O14	O	0.050076	-0.558043	0.356325
O15	O	-0.235007	-0.971885	-0.267644
O16	O	0.264993	-0.471885	0.232356
O17	O	-0.455046	-1.171925	-0.258623
O18	O	0.044954	-0.671925	0.241377
O19	O	-0.238887	-1.058172	-0.354739
O20	O	0.261113	-0.558172	0.145261
O21	O	-0.355072	-0.971812	-0.147563
O22	O	0.144928	-0.471812	0.352437
O23	O	-0.349929	-0.857980	-0.272727
O24	O	0.150071	-0.357980	0.227273
O25	O	-0.446007	-0.971845	-0.478621
O26	O	0.053993	-0.471845	0.021379
O27	O	-0.440885	-0.857963	-0.363673
O28	O	0.059115	-0.357963	0.136327
O29	O	-0.358932	-1.058149	-0.474770
O30	O	0.141068	-0.558149	0.025230
O31	O	-0.569969	-1.058020	-0.263706
O32	O	-0.069969	-0.558020	0.236294
O33	O	-0.566072	-0.971772	-0.358541
O34	O	-0.066072	-0.471772	0.141459
C35	C	-0.394259	-0.832488	-0.319344
C36	C	0.105741	-0.332488	0.180656
C37	C	-0.390758	-0.754425	-0.322863
C38	C	0.109242	-0.254425	0.177137
C39	C	-0.436401	-0.717719	-0.277076
C40	C	0.063599	-0.217719	0.222924
C41	C	-0.433112	-0.644371	-0.280393
C42	C	0.066888	-0.144371	0.219607
C43	C	-0.384176	-0.607729	-0.329494
C44	C	0.115824	-0.107729	0.170506
C45	C	-0.338532	-0.644441	-0.375286
C46	C	0.161468	-0.144441	0.124714
C47	C	-0.341825	-0.717788	-0.371972
C48	C	0.158175	-0.217788	0.128028
C49	C	-0.371870	-0.386270	-0.341876
C50	C	0.128130	0.113730	0.158124
C51	C	-0.368579	-0.312917	-0.345184
C52	C	0.131421	0.187083	0.154816
C53	C	-0.463160	-0.312853	-0.250292
C54	C	0.036840	0.187147	0.249708
C55	C	-0.466446	-0.386201	-0.246980
C56	C	0.033554	0.113799	0.253020
C57	C	-0.420804	-0.422906	-0.292774
C58	C	0.079196	0.077094	0.207226
C59	C	-0.380811	-0.532755	-0.332884
C60	C	0.119189	-0.032755	0.167116
C61	C	-0.424173	-0.497879	-0.289388
C62	C	0.075827	0.002121	0.210612
C63	C	-0.594892	-1.014904	-0.311133
C64	C	-0.094892	-0.514904	0.188867
C65	C	-0.677208	-1.014944	-0.311145
C66	C	-0.177208	-0.514944	0.188855
C67	C	-0.827918	-1.014986	-0.311168
C68	C	-0.327918	-0.514986	0.188832
C69	C	-0.861695	-1.069305	-0.251554
C70	C	-0.361695	-0.569305	0.248446
C71	C	-0.947307	-1.069170	-0.251349
C72	C	-0.447307	-0.569170	0.248651
C73	C	-0.976302	-1.015030	-0.311191
C74	C	-0.476302	-0.515030	0.188809
C75	C	-0.941950	-0.940961	-0.293515
C76	C	-0.441950	-0.440961	0.206485
C77	C	-0.856318	-0.941250	-0.293072
C78	C	-0.356318	-0.441250	0.206928
C79	C	-0.860286	-1.034098	-0.388635
C80	C	-0.360286	-0.534098	0.111365
C81	C	-0.946010	-1.035756	-0.388158
C82	C	-0.446010	-0.535756	0.111842
C83	C	-1.060163	-1.015049	-0.311205
C84	C	-0.560163	-0.515049	0.188795
C85	C	-0.744057	-1.014961	-0.311152
C86	C	-0.244057	-0.514961	0.188848
C87	C	-0.209325	-1.015039	-0.311197
C88	C	0.290675	-0.515039	0.188803
C89	C	-0.127013	-1.015072	-0.311214
C90	C	0.372987	-0.515072	0.188786
C91	C	-0.402467	-1.015003	-0.504317
C92	C	0.097533	-0.515003	-0.004317
C93	C	-0.402460	-1.015020	-0.586631
C94	C	0.097540	-0.515020	-0.086631
C95	C	-0.410731	-0.198148	-0.302929
C96	C	0.089269	0.301852	0.197071
C97	C	-0.414221	-0.276211	-0.299397
C98	C	0.085779	0.223789	0.200603
C99	C	-0.402323	-1.015061	-0.885720
C100	C	0.097677	-0.515061	-0.385720
C101	C	-0.456918	-0.960574	-0.856826
C102	C	0.043082	-0.460574	-0.356826
C103	C	-0.457189	-0.960721	-0.771202
C104	C	0.042811	-0.460721	-0.271202
C105	C	-0.402391	-1.015040	-0.737338
C106	C	0.097609	-0.515040	-0.237338
C107	C	-0.426904	-1.089040	-0.765109
C108	C	0.073096	-0.589040	-0.265109
C109	C	-0.427265	-1.088736	-0.850767
C110	C	0.072735	-0.588736	-0.350767
C111	C	-0.323116	-0.996191	-0.854995
C112	C	0.176884	-0.496191	-0.354995
C113	C	-0.323495	-0.994545	-0.769418
C114	C	0.176505	-0.494545	-0.269418
C115	C	-0.402428	-1.015033	-0.653479
C116	C	0.097572	-0.515033	-0.153479
C117	C	-0.402287	-1.015073	-0.969579
C118	C	0.097713	-0.515073	-0.469579
C119	C	-0.402449	-1.014962	-0.118747
C120	C	0.097551	-0.514962	0.381253
C121	C	-0.402254	-1.015081	-0.036428
C122	C	0.097746	-0.515081	0.463572
H123	H	-0.304658	-0.747673	-0.409256
H124	H	0.195342	-0.247673	0.090744
F125	F	-0.518512	-0.425192	-0.194702
F126	F	-0.018512	0.074808	0.305298
H127	H	-0.839648	-1.056797	-0.194410
H128	H	-0.339648	-0.556797	0.305590
H129	H	-0.835659	-0.925079	-0.236550
H130	H	-0.335659	-0.425079	0.263450
F131	F	-0.533832	-0.977038	-0.743691
F132	F	-0.033832	-0.477038	-0.243691
H133	H	-0.965754	-0.999107	-0.434677
H134	H	-0.465754	-0.499107	0.065323
H135	H	-0.476247	-0.747547	-0.237090
H136	H	0.023753	-0.247547	0.262910
H137	H	-0.960441	-0.899398	-0.335752
H138	H	-0.460441	-0.399398	0.164248
F139	F	-0.835121	-1.103481	-0.410535
F140	F	-0.335121	-0.603481	0.089465
H141	H	-0.470279	-0.614488	-0.243108
H142	H	0.029721	-0.114488	0.256892
F143	F	-0.511733	-0.273784	-0.201559
F144	F	-0.011733	0.226216	0.298441
F145	F	-0.503075	-1.109641	-0.875947
F146	F	-0.003075	-0.609641	-0.375947
F147	F	-0.826765	-0.886536	-0.347604
F148	F	-0.326765	-0.386536	0.152396
H149	H	-0.968731	-1.090264	-0.401550
H150	H	-0.468731	-0.590264	0.098450
F151	F	-0.316489	-0.273923	-0.397443
F152	F	0.183511	0.226077	0.102557
H153	H	-0.967269	-1.056517	-0.193889
H154	H	-0.467269	-0.556517	0.306111
H155	H	-0.389407	-1.130710	-0.869616
H156	H	0.110593	-0.630710	-0.369616
F157	F	-0.436631	-0.888998	-0.746941
F158	F	0.063369	-0.388998	-0.246941
F159	F	-0.831462	-0.982399	-0.446638
F160	F	-0.331462	-0.482399	0.053362
H161	H	-0.441321	-0.905535	-0.879893
H162	H	0.058679	-0.405535	-0.379893
F163	F	-0.376755	-1.143531	-0.736061
F164	F	0.123245	-0.643531	-0.236061
F165	F	-0.501935	-1.110309	-0.736125
F166	F	-0.001935	-0.610309	-0.236125
F167	F	-0.533087	-0.976663	-0.884279
F168	F	-0.033087	-0.476663	-0.384279
H169	H	-0.298691	-0.614601	-0.415268
H170	H	0.201309	-0.114601	0.084732
F171	F	-0.328733	-0.493753	-0.385140
F172	F	0.171267	0.006247	0.114860
F173	F	-0.294771	-0.926885	-0.886330
F174	F	0.205229	-0.426885	-0.386330
F175	F	-0.269896	-1.048063	-0.879158
F176	F	0.230104	-0.548063	-0.379158
H177	H	-0.305069	-0.940088	-0.751541
H178	H	0.194931	-0.440088	-0.251541
F179	F	-0.267154	-1.042636	-0.739309
F180	F	0.232846	-0.542636	-0.239309
H181	H	-0.334706	-0.416146	-0.379166
H182	H	0.165294	0.083854	0.120834
H183	H	-0.464020	-0.527715	-0.249414
H184	H	0.035980	-0.027715	0.250586
F185	F	-0.977949	-1.140948	-0.265283
F186	F	-0.477949	-0.640948	0.234717
H187	H	-0.843536	-1.124382	-0.262046
H188	H	-0.343536	-0.624382	0.237954
F189	F	-0.969074	-0.919472	-0.220482
F190	F	-0.469074	-0.419472	0.279518
