data_functionalizedCrystal
_audit_creation_method	'MofGen! by Chris Wilmer'
_symmetry_space_group_name_H-M	'P1'
_symmetry_Int_Tables_number	1
_symmetry_cell_setting	triclinic
loop_
_symmetry_equiv_pos_as_xyz
  x,y,z
_cell_length_a	14.519731
_cell_length_b	9.065218
_cell_length_c	7.540329
_cell_angle_alpha	89.998243
_cell_angle_beta	89.996948
_cell_angle_gamma	84.352369
loop_
_atom_site_label
_atom_site_type_symbol
_atom_site_fract_x
_atom_site_fract_y
_atom_site_fract_z
O1	O	1.225271	0.193542	-0.147479
O2	O	1.558604	0.526875	0.185854
O3	O	1.891937	0.860209	0.519188
O4	O	0.956963	0.216284	-0.147481
O5	O	1.290296	0.549617	0.185853
O6	O	1.623630	0.882951	0.519186
O7	O	1.096663	-0.009833	-0.147476
O8	O	1.429996	0.323501	0.185857
O9	O	1.763329	0.656834	0.519190
O10	O	1.085571	0.419659	-0.147484
O11	O	1.418904	0.752992	0.185850
O12	O	1.752238	1.086325	0.519183
O13	O	1.096654	-0.009835	0.147489
O14	O	1.429987	0.323498	0.480822
O15	O	1.763321	0.656831	0.814155
O16	O	0.956954	0.216281	0.147484
O17	O	1.290288	0.549614	0.480818
O18	O	1.623621	0.882948	0.814151
O19	O	1.225262	0.193539	0.147486
O20	O	1.558595	0.526873	0.480819
O21	O	1.891929	0.860206	0.814153
Cu22	Cu	1.091108	0.204910	0.174418
Cu23	Cu	1.424441	0.538243	0.507751
Cu24	Cu	1.757774	0.871577	0.841084
Cu25	Cu	1.091117	0.204913	-0.174413
Cu26	Cu	1.424451	0.538247	0.158921
Cu27	Cu	1.757784	0.871580	0.492254
O28	O	1.085562	0.419656	0.147482
O29	O	1.418896	0.752989	0.480815
O30	O	1.752229	1.086323	0.814148
C31	C	0.922591	0.215217	0.000001
C32	C	1.255925	0.548550	0.333335
C33	C	1.589258	0.881884	0.666668
C34	C	0.820188	0.212024	0.000000
C35	C	1.153521	0.545357	0.333334
C36	C	1.486854	0.878690	0.666667
C37	C	1.095592	-0.064801	0.000003
C38	C	1.428926	0.268532	0.333337
C39	C	1.762259	0.601866	0.666670
C40	C	1.092405	-0.228584	-0.000005
C41	C	1.425738	0.104749	0.333328
C42	C	1.759072	0.438082	0.666662
C43	C	0.737025	0.209429	-0.000007
C44	C	1.070358	0.542763	0.333327
C45	C	1.403691	0.876096	0.666660
C46	C	0.632692	0.206187	-0.000007
C47	C	0.966025	0.539520	0.333326
C48	C	1.299359	0.872854	0.666659
C49	C	0.549534	0.203614	-0.000007
C50	C	0.882868	0.536947	0.333326
C51	C	1.216201	0.870281	0.666660
C52	C	0.445195	0.200372	-0.000011
C53	C	0.778528	0.533706	0.333322
C54	C	1.111862	0.867039	0.666656
C55	C	1.259634	0.194606	-0.000000
C56	C	1.592967	0.527940	0.333333
C57	C	1.926300	0.861273	0.666667
C58	C	1.362037	0.197799	-0.000011
C59	C	1.695371	0.531133	0.333323
C60	C	2.028704	0.864466	0.666656
C61	C	1.086633	0.474624	-0.000002
C62	C	1.419966	0.807957	0.333331
C63	C	1.753299	1.141291	0.666665
C64	C	1.089820	0.638408	-0.000005
C65	C	1.423153	0.971741	0.333328
C66	C	1.756487	1.305074	0.666661
N67	N	1.091107	0.204907	0.419766
N68	N	1.424441	0.538240	0.753100
N69	N	1.757774	0.871573	1.086433
N70	N	1.091125	0.204905	-0.419761
N71	N	1.424458	0.538238	-0.086428
N72	N	1.757792	0.871571	0.246906
