data_functionalizedCrystal
_audit_creation_method	'MofGen! by Chris Wilmer'
_symmetry_space_group_name_H-M	'P1'
_symmetry_Int_Tables_number	1
_symmetry_cell_setting	triclinic
loop_
_symmetry_equiv_pos_as_xyz
  x,y,z
_cell_length_a	12.837943
_cell_length_b	12.503572
_cell_length_c	12.837942
_cell_angle_alpha	86.103696
_cell_angle_beta	94.828940
_cell_angle_gamma	93.890817
loop_
_atom_site_label
_atom_site_type_symbol
_atom_site_fract_x
_atom_site_fract_y
_atom_site_fract_z
O1	O	1.407773	0.089300	0.266682
O2	O	1.104640	0.089307	0.253238
O3	O	1.249484	0.089297	0.108394
O4	O	1.262928	0.089310	0.411526
O5	O	1.238593	-0.089344	0.119307
O6	O	1.093749	-0.089334	0.264151
O7	O	1.396882	-0.089341	0.277595
Cu8	Cu	1.244321	-0.105649	0.271870
Cu9	Cu	1.257201	0.105615	0.258964
O10	O	1.252037	-0.089331	0.422440
C11	C	1.060125	-0.000013	0.254153
C12	C	0.943710	-0.000011	0.240609
N13	N	1.235269	-0.254241	0.280947
C14	C	0.718836	-0.000019	0.403439
C15	C	0.609453	-0.000018	0.390717
C16	C	0.615561	-0.000014	0.202446
C17	C	0.724943	-0.000016	0.215167
C18	C	0.776577	-0.000017	0.315667
C19	C	0.885961	-0.000010	0.328387
C20	C	0.892066	-0.000014	0.140117
C21	C	0.782684	-0.000013	0.127395
C22	C	1.221955	-0.473355	0.294310
C23	C	1.279571	-0.526686	0.236519
C24	C	1.272163	-0.648609	0.243954
C25	C	1.229362	-0.351421	0.286876
C26	C	1.441397	-0.000019	0.276680
C27	C	1.557812	-0.000014	0.290224
C28	C	1.239497	-0.000023	0.074781
C29	C	1.225953	-0.000021	-0.041634
N30	N	1.266260	0.254207	0.249879
C31	C	1.388784	-0.000002	-0.266509
C32	C	1.376062	0.000000	-0.375892
C33	C	1.187791	-0.000007	-0.369784
C34	C	1.200512	-0.000009	-0.260402
C35	C	1.301012	-0.000008	-0.208768
C36	C	1.313731	-0.000018	-0.099383
C37	C	1.125461	-0.000017	-0.093278
C38	C	1.112740	-0.000015	-0.202660
C39	C	1.262024	-0.000009	0.456052
C40	C	1.275569	-0.000004	0.572467
H41	H	0.928000	-0.000013	0.410219
N42	N	0.726978	-0.000008	0.019010
H43	H	0.751383	0.066218	-0.023970
H44	H	0.743328	-0.066271	-0.015806
N45	N	1.352289	-0.465876	0.163597
H46	H	1.426631	-0.485375	0.184087
H47	H	1.331524	-0.485400	0.089317
N48	N	0.774526	-0.000014	0.511830
H49	H	0.815737	-0.066235	0.525352
H50	H	0.823753	0.066253	0.517186
H51	H	0.562444	-0.000023	0.462191
N52	N	0.559860	-0.000044	0.094060
H53	H	0.481805	-0.000054	0.099325
H54	H	0.584334	0.066175	0.051118
N55	N	1.079405	-0.000003	-0.425488
H56	H	1.025727	-0.000005	-0.372313
H57	H	1.074071	0.066228	-0.474774
N58	N	1.149248	-0.534154	0.367239
H59	H	1.154198	-0.613895	0.362279
H60	H	1.169977	-0.514564	0.441506
H61	H	1.395563	-0.000021	-0.057345
H62	H	1.470614	-0.000011	-0.224468
N63	N	1.470729	0.000009	-0.438173
H64	H	1.536322	0.000010	-0.388861
H65	H	1.465518	-0.066215	-0.479647
H66	H	1.030916	-0.000012	-0.244716
N67	N	0.954346	-0.000028	0.045443
H68	H	0.905035	-0.000029	-0.020149
H69	H	1.003899	0.066197	0.042575
N70	N	1.030783	-0.000030	-0.031001
H71	H	1.054088	-0.000034	0.046129
H72	H	0.991486	0.066194	-0.052825
