data_functionalizedCrystal
_audit_creation_method	'MofGen! by Chris Wilmer'
_symmetry_space_group_name_H-M	'P1'
_symmetry_Int_Tables_number	1
_symmetry_cell_setting	triclinic
loop_
_symmetry_equiv_pos_as_xyz
  x,y,z
_cell_length_a	14.908558
_cell_length_b	14.908308
_cell_length_c	17.077402
_cell_angle_alpha	86.735523
_cell_angle_beta	93.282020
_cell_angle_gamma	90.175599
loop_
_atom_site_label
_atom_site_type_symbol
_atom_site_fract_x
_atom_site_fract_y
_atom_site_fract_z
Zn1	Zn	1.345279	-0.587548	0.409663
Zn2	Zn	1.353854	-0.437182	0.533823
Zn3	Zn	1.203595	-0.428548	0.394584
Zn4	Zn	1.194881	-0.578835	0.532889
O5	O	1.274402	-0.508028	0.467740
O6	O	1.472242	-0.574862	0.432835
O7	O	1.341157	-0.310212	0.509434
O8	O	1.222448	-0.449673	0.286742
O9	O	1.478542	-0.464388	0.524055
O10	O	1.326543	-0.566490	0.297821
O11	O	1.230762	-0.303869	0.407135
O12	O	1.076613	-0.441224	0.406229
O13	O	1.207597	-0.705815	0.522462
O14	O	1.070211	-0.551639	0.507840
O15	O	1.318093	-0.712217	0.431929
O16	O	1.332708	-0.455939	0.643542
O17	O	1.215911	-0.560011	0.642855
C18	C	1.040787	-0.494550	0.455297
C19	C	0.940844	-0.488805	0.449994
C20	C	0.803280	-0.423315	0.389547
C21	C	0.897186	-0.428709	0.394526
C22	C	0.890590	-0.543513	0.500486
C23	C	0.796684	-0.538119	0.495508
C24	C	0.753033	-0.478017	0.440037
C25	C	0.659126	-0.472619	0.435063
C26	C	0.652531	-0.587426	0.541019
C27	C	0.746437	-0.592820	0.545998
C28	C	1.260917	-0.742553	0.478773
C29	C	1.255170	-0.842494	0.483475
C30	C	1.359428	-1.036960	0.398019
C31	C	1.354032	-1.130863	0.402435
C32	C	1.238975	-1.124205	0.496716
C33	C	1.244372	-1.030302	0.492301
C34	C	1.304602	-0.986683	0.442952
C35	C	1.310002	-0.892778	0.438541
C36	C	1.194942	-0.886121	0.532818
C37	C	1.189545	-0.980024	0.537233
C38	C	1.508930	-0.521560	0.480232
C39	C	1.608872	-0.527326	0.485555
C40	C	1.274317	-0.507988	0.671681
C41	C	1.274362	-0.508005	0.758934
C42	C	1.287887	-0.274419	0.456696
C43	C	1.293808	-0.174489	0.451782
C44	C	1.274511	-0.508091	0.263004
C45	C	1.274557	-0.508117	0.175758
C46	C	1.335233	-0.453880	0.800262
C47	C	1.335275	-0.453905	0.882246
C48	C	1.274442	-0.508052	0.922900
C49	C	1.213568	-0.562183	0.881567
C50	C	1.213530	-0.562162	0.799585
C51	C	1.213649	-0.562222	1.052443
C52	C	1.213686	-0.562242	1.134430
C53	C	1.335394	-0.453965	1.135104
C54	C	1.335357	-0.453944	1.053122
C55	C	1.274481	-0.508074	1.011794
H56	H	0.611609	-0.631968	0.582132
C57	C	1.123290	-1.028015	0.591507
N58	N	1.073384	-1.064161	0.632388
H59	H	0.926147	-0.592449	0.545644
H60	H	1.384767	-0.409783	0.767166
H61	H	0.781990	-0.641755	0.591158
C62	C	1.134629	-0.830808	0.582247
N63	N	1.089204	-0.789145	0.619477
C64	C	1.402233	-0.394357	0.927702
N65	N	1.452667	-0.349501	0.961939
H66	H	1.384887	-0.409849	1.020021
H67	H	1.384964	-0.409894	1.168757
H68	H	1.164166	-0.606351	1.167530
C69	C	1.376253	-0.844799	0.384254
N70	N	1.426151	-0.808663	0.343361
C71	C	1.425685	-0.988978	0.343740
N72	N	1.475590	-0.952839	0.302855
C73	C	1.146676	-0.621760	1.006983
N74	N	1.096227	-0.666597	0.972743
C75	C	1.414348	-1.186166	0.353008
N76	N	1.459781	-1.227819	0.315778
C77	C	1.146568	-0.621704	0.754125
N78	N	1.096132	-0.666556	0.719885
H79	H	1.189939	-1.159736	0.536893
H80	H	0.623587	-0.423682	0.389895
H81	H	1.164040	-0.606274	0.914674
H82	H	0.767739	-0.374377	0.344382
H83	H	0.938094	-0.384169	0.353409
