data_functionalizedCrystal
_audit_creation_method	'MofGen! by Chris Wilmer'
_symmetry_space_group_name_H-M	'P1'
_symmetry_Int_Tables_number	1
_symmetry_cell_setting	triclinic
loop_
_symmetry_equiv_pos_as_xyz
  x,y,z
_cell_length_a	14.044220
_cell_length_b	27.732048
_cell_length_c	12.503572
_cell_angle_alpha	93.489054
_cell_angle_beta	86.164750
_cell_angle_gamma	87.915767
loop_
_atom_site_label
_atom_site_type_symbol
_atom_site_fract_x
_atom_site_fract_y
_atom_site_fract_z
O1	O	1.261499	0.113903	-0.089228
O2	O	1.511499	0.363903	0.160772
O3	O	1.761499	0.613903	0.410772
O4	O	2.011499	0.863903	0.660772
O5	O	0.985593	0.109700	-0.089254
O6	O	1.235593	0.359700	0.160746
O7	O	1.485593	0.609700	0.410746
O8	O	1.735593	0.859700	0.660746
O9	O	1.132113	0.041807	-0.089220
O10	O	1.382113	0.291807	0.160780
O11	O	1.632113	0.541807	0.410780
O12	O	1.882113	0.791807	0.660780
O13	O	1.114978	0.181795	-0.089262
O14	O	1.364978	0.431795	0.160738
O15	O	1.614978	0.681795	0.410738
O16	O	1.864978	0.931795	0.660738
O17	O	1.121094	0.046922	0.089419
O18	O	1.371094	0.296922	0.339419
O19	O	1.621094	0.546922	0.589419
O20	O	1.871094	0.796922	0.839419
O21	O	0.974573	0.114815	0.089385
O22	O	1.224573	0.364815	0.339385
O23	O	1.474573	0.614815	0.589385
O24	O	1.724573	0.864815	0.839385
O25	O	1.250479	0.119018	0.089411
O26	O	1.500479	0.369018	0.339411
O27	O	1.750479	0.619018	0.589411
O28	O	2.000479	0.869018	0.839411
Cu29	Cu	1.111520	0.117384	0.105709
Cu30	Cu	1.361520	0.367384	0.355709
Cu31	Cu	1.611520	0.617384	0.605709
Cu32	Cu	1.861520	0.867384	0.855709
Cu33	Cu	1.124552	0.111334	-0.105552
Cu34	Cu	1.374552	0.361334	0.144448
Cu35	Cu	1.624552	0.611334	0.394448
Cu36	Cu	1.874552	0.861334	0.644448
O37	O	1.103958	0.186910	0.089377
O38	O	1.353958	0.436910	0.339377
O39	O	1.603958	0.686910	0.589377
O40	O	1.853958	0.936910	0.839377
C41	C	0.944796	0.110418	0.000062
C42	C	1.194796	0.360418	0.250062
C43	C	1.444796	0.610418	0.500062
C44	C	1.694796	0.860418	0.750062
C45	C	0.839651	0.104930	0.000053
C46	C	1.089651	0.354930	0.250053
C47	C	1.339651	0.604930	0.500053
C48	C	1.589651	0.854930	0.750053
C49	C	0.647135	0.094899	0.000077
C50	C	0.897135	0.344899	0.250077
C51	C	1.147135	0.594899	0.500077
C52	C	1.397135	0.844899	0.750077
C53	C	0.588932	0.133816	0.000070
C54	C	0.838932	0.383816	0.250070
C55	C	1.088932	0.633816	0.500070
C56	C	1.338932	0.883816	0.750070
C57	C	0.481809	0.128235	0.000084
C58	C	0.731809	0.378235	0.250084
C59	C	0.981809	0.628235	0.500084
C60	C	1.231809	0.878235	0.750084
C61	C	0.754267	0.100480	0.000064
C62	C	1.004267	0.350480	0.250064
C63	C	1.254267	0.600480	0.500064
C64	C	1.504267	0.850480	0.750064
C65	C	1.126244	0.026341	0.000103
C66	C	1.376244	0.276341	0.250103
C67	C	1.626244	0.526341	0.500103
C68	C	1.876244	0.776341	0.750103
C69	C	1.125160	-0.027364	0.000111
C70	C	1.375160	0.222636	0.250111
C71	C	1.625160	0.472636	0.500111
C72	C	1.875160	0.722636	0.750111
C73	C	1.204929	-0.362437	0.000064
C74	C	1.454929	-0.112437	0.250064
C75	C	1.704929	0.137563	0.500064
C76	C	1.954929	0.387563	0.750064
C77	C	1.200910	-0.564286	0.000049
C78	C	1.450910	-0.314286	0.250049
C79	C	1.700910	-0.064286	0.500049
C80	C	1.950910	0.185714	0.750049
O81	O	1.273853	-0.592120	0.000008
O82	O	1.523853	-0.342120	0.250008
O83	O	1.773853	-0.092120	0.500008
O84	O	2.023853	0.157880	0.750008
N85	N	1.114029	-0.587487	0.000041
N86	N	1.364029	-0.337487	0.250041
N87	N	1.614029	-0.087487	0.500041
N88	N	1.864029	0.162513	0.750041
C89	C	1.028146	-0.560223	0.000031
C90	C	1.278146	-0.310223	0.250031
C91	C	1.528146	-0.060223	0.500031
C92	C	1.778146	0.189777	0.750031
O93	O	0.954156	-0.584589	0.000013
O94	O	1.204156	-0.334589	0.250013
O95	O	1.454156	-0.084589	0.500013
O96	O	1.704156	0.165411	0.750013
C97	C	1.032166	-0.358376	0.000038
C98	C	1.282166	-0.108376	0.250038
C99	C	1.532166	0.141624	0.500038
C100	C	1.782166	0.391624	0.750038
C101	C	1.119052	-0.335177	0.000057
C102	C	1.369052	-0.085177	0.250057
C103	C	1.619052	0.164823	0.500057
C104	C	1.869052	0.414823	0.750057
C105	C	1.291808	-0.339238	0.000081
C106	C	1.541808	-0.089238	0.250081
C107	C	1.791808	0.160762	0.500081
C108	C	2.041808	0.410762	0.750081
C109	C	1.292811	-0.288779	0.000091
C110	C	1.542811	-0.038779	0.250091
C111	C	1.792811	0.211221	0.500091
C112	C	2.042811	0.461221	0.750091
C113	C	1.206935	-0.261519	0.000083
C114	C	1.456935	-0.011519	0.250083
C115	C	1.706935	0.238481	0.500083
C116	C	1.956935	0.488481	0.750083
C117	C	1.120056	-0.284718	0.000066
C118	C	1.370056	-0.034718	0.250066
C119	C	1.620056	0.215282	0.500066
C120	C	1.870056	0.465282	0.750066
C121	C	0.946285	-0.331113	0.000020
C122	C	1.196285	-0.081113	0.250020
C123	C	1.446285	0.168887	0.500020
C124	C	1.696285	0.418887	0.750020
C125	C	0.947297	-0.280648	0.000019
C126	C	1.197297	-0.030648	0.250019
C127	C	1.447297	0.219352	0.500019
C128	C	1.697297	0.469352	0.750019
C129	C	1.034184	-0.257449	0.000038
C130	C	1.284184	-0.007449	0.250038
C131	C	1.534184	0.242551	0.500038
C132	C	1.784184	0.492551	0.750038
C133	C	1.035183	-0.206998	0.000069
C134	C	1.285183	0.043002	0.250069
C135	C	1.535183	0.293002	0.500069
C136	C	1.785183	0.543002	0.750069
N137	N	1.122064	-0.183797	0.000076
N138	N	1.372064	0.066203	0.250076
N139	N	1.622064	0.316203	0.500076
N140	N	1.872064	0.566203	0.750076
C141	C	1.207940	-0.211057	0.000083
C142	C	1.457940	0.038943	0.250083
C143	C	1.707940	0.288943	0.500083
C144	C	1.957940	0.538943	0.750083
C145	C	1.026041	-0.666196	0.000029
C146	C	1.276041	-0.416196	0.250029
C147	C	1.526041	-0.166196	0.500029
C148	C	1.776041	0.083804	0.750029
C149	C	1.025036	-0.716658	0.000029
C150	C	1.275036	-0.466658	0.250029
C151	C	1.525036	-0.216658	0.500029
C152	C	1.775036	0.033342	0.750029
C153	C	1.197801	-0.720717	0.000045
C154	C	1.447801	-0.470717	0.250045
C155	C	1.697801	-0.220717	0.500045
C156	C	1.947801	0.029283	0.750045
C157	C	1.198805	-0.670254	0.000052
C158	C	1.448805	-0.420254	0.250052
C159	C	1.698805	-0.170254	0.500052
C160	C	1.948805	0.079746	0.750052
C161	C	1.112923	-0.642995	0.000036
C162	C	1.362923	-0.392995	0.250036
C163	C	1.612923	-0.142995	0.500036
C164	C	1.862923	0.107005	0.750036
C165	C	1.210041	-0.105089	0.000105
C166	C	1.460041	0.144911	0.250105
C167	C	1.710041	0.394911	0.500105
C168	C	1.960041	0.644911	0.750105
C169	C	1.211036	-0.054625	0.000119
C170	C	1.461036	0.195375	0.250119
C171	C	1.711036	0.445375	0.500119
C172	C	1.961036	0.695375	0.750119
C173	C	1.038272	-0.050570	0.000097
C174	C	1.288272	0.199430	0.250097
C175	C	1.538272	0.449430	0.500097
C176	C	1.788272	0.699430	0.750097
C177	C	1.037276	-0.101029	0.000089
C178	C	1.287276	0.148971	0.250089
C179	C	1.537276	0.398971	0.500089
C180	C	1.787276	0.648971	0.750089
C181	C	1.123168	-0.128288	0.000089
C182	C	1.373168	0.121712	0.250089
C183	C	1.623168	0.371712	0.500089
C184	C	1.873168	0.621712	0.750089
O185	O	0.962280	-0.179134	0.000097
O186	O	1.212280	0.070866	0.250097
O187	O	1.462280	0.320866	0.500097
O188	O	1.712280	0.570866	0.750097
O189	O	1.281921	-0.186683	0.000077
O190	O	1.531921	0.063317	0.250077
O191	O	1.781921	0.313317	0.500077
O192	O	2.031921	0.563317	0.750077
C193	C	1.203925	-0.412897	0.000054
C194	C	1.453925	-0.162897	0.250054
C195	C	1.703925	0.087103	0.500054
C196	C	1.953925	0.337103	0.750054
C197	C	1.117046	-0.436096	0.000037
C198	C	1.367046	-0.186096	0.250037
C199	C	1.617046	0.063904	0.500037
C200	C	1.867046	0.313904	0.750037
C201	C	1.031169	-0.408835	0.000030
C202	C	1.281169	-0.158835	0.250030
C203	C	1.531169	0.091165	0.500030
C204	C	1.781169	0.341165	0.750030
C205	C	1.116040	-0.486557	0.000037
C206	C	1.366040	-0.236557	0.250037
C207	C	1.616040	0.013443	0.500037
C208	C	1.866040	0.263443	0.750037
C209	C	1.201917	-0.513818	0.000044
C210	C	1.451917	-0.263818	0.250044
C211	C	1.701917	-0.013818	0.500044
C212	C	1.951917	0.236182	0.750044
C213	C	1.288798	-0.490616	0.000052
C214	C	1.538798	-0.240616	0.250052
C215	C	1.788798	0.009384	0.500052
C216	C	2.038798	0.259384	0.750052
C217	C	1.289801	-0.440157	0.000061
C218	C	1.539801	-0.190157	0.250061
C219	C	1.789801	0.059843	0.500061
C220	C	2.039801	0.309843	0.750061
C221	C	0.944288	-0.432037	0.000023
C222	C	1.194288	-0.182037	0.250023
C223	C	1.444288	0.067963	0.500023
C224	C	1.694288	0.317963	0.750023
C225	C	0.943291	-0.482496	0.000014
C226	C	1.193291	-0.232496	0.250014
C227	C	1.443291	0.017504	0.500014
C228	C	1.693291	0.267504	0.750014
C229	C	1.029168	-0.509756	0.000021
C230	C	1.279168	-0.259756	0.250021
C231	C	1.529168	-0.009756	0.500021
C232	C	1.779168	0.240244	0.750021
C233	C	1.291276	0.118300	0.000092
C234	C	1.541276	0.368300	0.250092
C235	C	1.791276	0.618300	0.500092
C236	C	2.041276	0.868300	0.750092
C237	C	1.396422	0.123787	0.000094
C238	C	1.646422	0.373787	0.250094
C239	C	1.896422	0.623787	0.500094
C240	C	2.146422	0.873787	0.750094
C241	C	1.109828	0.202377	0.000052
C242	C	1.359828	0.452377	0.250052
C243	C	1.609828	0.702377	0.500052
C244	C	1.859828	0.952377	0.750052
C245	C	1.110912	0.256082	0.000036
C246	C	1.360912	0.506082	0.250036
C247	C	1.610912	0.756082	0.500036
C248	C	1.860912	1.006082	0.750036
N249	N	1.102361	0.121638	0.254299
N250	N	1.352361	0.371638	0.504299
N251	N	1.602361	0.621638	0.754299
N252	N	1.852361	0.871638	1.004299
N253	N	1.133718	0.107076	-0.254143
N254	N	1.383718	0.357076	-0.004143
N255	N	1.633718	0.607076	0.245857
N256	N	1.883718	0.857076	0.495857
C257	C	1.088888	0.127901	0.473411
C258	C	1.338888	0.377901	0.723411
C259	C	1.588888	0.627901	0.973411
C260	C	1.838888	0.877901	1.223411
C261	C	1.147188	0.100815	0.526752
C262	C	1.397188	0.350815	0.776752
C263	C	1.647188	0.600815	1.026752
C264	C	1.897188	0.850815	1.276752
C265	C	1.139692	0.104299	0.648674
C266	C	1.389692	0.354299	0.898674
C267	C	1.639692	0.604299	1.148674
C268	C	1.889692	0.854299	1.398674
C269	C	1.096383	0.124417	0.351479
C270	C	1.346383	0.374417	0.601479
C271	C	1.596383	0.624417	0.851479
C272	C	1.846383	0.874417	1.101479
H273	H	0.619555	0.171325	0.000054
H274	H	0.869555	0.421325	0.250054
H275	H	1.119555	0.671325	0.500054
H276	H	1.369555	0.921325	0.750054
Cl277	Cl	0.915801	-0.745815	0.000027
Cl278	Cl	1.165801	-0.495815	0.250027
Cl279	Cl	1.415801	-0.245815	0.500027
Cl280	Cl	1.665801	0.004185	0.750027
H281	H	0.616514	0.057393	0.000095
H282	H	0.866514	0.307393	0.250095
H283	H	1.116514	0.557393	0.500095
H284	H	1.366514	0.807393	0.750095
Cl285	Cl	1.320273	-0.025464	0.000139
Cl286	Cl	1.570273	0.224536	0.250139
Cl287	Cl	1.820273	0.474536	0.500139
Cl288	Cl	2.070273	0.724536	0.750139
H289	H	0.874355	-0.409846	0.000014
H290	H	1.124355	-0.159846	0.250014
H291	H	1.374355	0.090154	0.500014
H292	H	1.624355	0.340154	0.750014
Cl293	Cl	1.318021	-0.139349	0.000106
Cl294	Cl	1.568021	0.110651	0.250106
Cl295	Cl	1.818021	0.360651	0.500106
Cl296	Cl	2.068021	0.610651	0.750106
Cl297	Cl	0.918064	-0.631934	0.000010
Cl298	Cl	1.168064	-0.381934	0.250010
Cl299	Cl	1.418064	-0.131934	0.500010
Cl300	Cl	1.668064	0.118066	0.750010
Cl301	Cl	1.402048	-0.259624	0.000083
Cl302	Cl	1.652048	-0.009624	0.250083
Cl303	Cl	1.902048	0.240376	0.500083
Cl304	Cl	2.152048	0.490376	0.750083
Cl305	Cl	1.233301	0.061171	0.455893
Cl306	Cl	1.483301	0.311171	0.705893
Cl307	Cl	1.733301	0.561171	0.955893
Cl308	Cl	1.983301	0.811171	1.205893
H309	H	1.361743	-0.361429	0.000083
H310	H	1.611743	-0.111429	0.250083
H311	H	1.861743	0.138571	0.500083
H312	H	2.111743	0.388571	0.750083
H313	H	1.033350	0.153706	0.519306
H314	H	1.283350	0.403706	0.769306
H315	H	1.533350	0.653706	1.019306
H316	H	1.783350	0.903706	1.269306
H317	H	1.269555	-0.651370	0.000066
H318	H	1.519555	-0.401370	0.250066
H319	H	1.769555	-0.151370	0.500066
H320	H	2.019555	0.098630	0.750066
H321	H	1.267725	-0.742921	0.000051
H322	H	1.517725	-0.492921	0.250051
H323	H	1.767725	-0.242921	0.500051
H324	H	2.017725	0.007079	0.750051
Cl325	Cl	0.837049	-0.360265	-0.000010
Cl326	Cl	1.087049	-0.110265	0.249990
Cl327	Cl	1.337049	0.139735	0.499990
Cl328	Cl	1.587049	0.389735	0.749990
Cl329	Cl	0.839324	-0.246382	-0.000002
Cl330	Cl	1.089324	0.003618	0.249998
Cl331	Cl	1.339324	0.253618	0.499998
Cl332	Cl	1.589324	0.503618	0.749998
H333	H	0.966524	-0.119918	0.000104
H334	H	1.216524	0.130082	0.250104
H335	H	1.466524	0.380082	0.500104
H336	H	1.716524	0.630082	0.750104
Cl337	Cl	0.930320	-0.016290	0.000086
Cl338	Cl	1.180320	0.233710	0.250086
Cl339	Cl	1.430320	0.483710	0.500086
Cl340	Cl	1.680320	0.733710	0.750086
H341	H	1.360553	-0.421273	0.000076
H342	H	1.610553	-0.171273	0.250076
H343	H	1.860553	0.078727	0.500076
H344	H	2.110553	0.328727	0.750076
H345	H	1.358721	-0.512821	0.000062
H346	H	1.608721	-0.262821	0.250062
H347	H	1.858721	-0.012821	0.500062
H348	H	2.108721	0.237179	0.750062
Cl349	Cl	0.834051	-0.511654	-0.000004
Cl350	Cl	1.084051	-0.261654	0.249996
Cl351	Cl	1.334051	-0.011654	0.499996
Cl352	Cl	1.584051	0.238346	0.749996
