data_functionalizedCrystal
_audit_creation_method	'MofGen! by Chris Wilmer'
_symmetry_space_group_name_H-M	'P1'
_symmetry_Int_Tables_number	1
_symmetry_cell_setting	triclinic
loop_
_symmetry_equiv_pos_as_xyz
  x,y,z
_cell_length_a	19.288864
_cell_length_b	23.532407
_cell_length_c	18.366186
_cell_angle_alpha	89.989089
_cell_angle_beta	89.977106
_cell_angle_gamma	82.992461
loop_
_atom_site_label
_atom_site_type_symbol
_atom_site_fract_x
_atom_site_fract_y
_atom_site_fract_z
O1	O	0.921134	0.071045	-0.060790
O2	O	0.718843	0.080629	-0.060742
O3	O	0.826089	-0.007082	-0.060754
O4	O	0.813889	0.158756	-0.060778
O5	O	0.826071	-0.007086	0.060345
O6	O	0.718825	0.080625	0.060358
O7	O	0.921116	0.071041	0.060309
Zn8	Zn	0.819968	0.075832	0.079560
Zn9	Zn	0.819991	0.075838	-0.079993
O10	O	0.813870	0.158752	0.060321
C11	C	0.692959	0.080319	-0.000186
C12	C	0.615858	0.079393	-0.000166
C13	C	0.571003	0.130858	-0.000185
C14	C	0.498559	0.129988	-0.000193
C15	C	0.470973	0.077651	-0.000197
C16	C	0.515838	0.026179	-0.000174
C17	C	0.588280	0.027050	-0.000159
C18	C	0.362844	0.036509	-0.042642
C19	C	0.290402	0.035640	-0.042662
C20	C	0.247535	0.074961	-0.000240
C21	C	0.277118	0.115162	0.042191
C22	C	0.349561	0.116033	0.042206
C23	C	0.392422	0.076700	-0.000213
C24	C	0.124127	0.125487	-0.000267
C25	C	0.051682	0.124615	-0.000270
C26	C	0.068962	0.020805	-0.000258
C27	C	0.141406	0.021678	-0.000248
C28	C	0.168984	0.074021	-0.000255
C29	C	0.825769	-0.028301	-0.000203
C30	C	0.824835	-0.091520	-0.000197
C31	C	0.882442	-0.490503	-0.000251
C32	C	0.881574	-0.549905	-0.000256
O33	O	0.934976	-0.586539	-0.000296
N34	N	0.817817	-0.572664	-0.000240
C35	C	0.754923	-0.536017	-0.000226
O36	O	0.700613	-0.560829	-0.000214
C37	C	0.755792	-0.476616	-0.000226
C38	C	0.819553	-0.453861	-0.000235
C39	C	0.946198	-0.467748	-0.000260
C40	C	0.947065	-0.408350	-0.000253
C41	C	0.884177	-0.371707	-0.000237
C42	C	0.820420	-0.394463	-0.000228
C43	C	0.692899	-0.439970	-0.000217
C44	C	0.693773	-0.380565	-0.000218
C45	C	0.757534	-0.357810	-0.000226
C46	C	0.758399	-0.298422	-0.000205
N47	N	0.822156	-0.275664	-0.000221
C48	C	0.885045	-0.312307	-0.000237
C49	C	0.753104	-0.660763	-0.000228
C50	C	0.752235	-0.720163	-0.000223
C51	C	0.878886	-0.734047	-0.000254
C52	C	0.879755	-0.674647	-0.000254
C53	C	0.816861	-0.638005	-0.000244
C54	C	0.886862	-0.187566	-0.000222
C55	C	0.887724	-0.128162	-0.000213
C56	C	0.761073	-0.114283	-0.000185
C57	C	0.760211	-0.173681	-0.000191
C58	C	0.823111	-0.210322	-0.000212
O59	O	0.705025	-0.261754	-0.000168
O60	O	0.939346	-0.287486	-0.000259
C61	C	0.947000	0.071351	-0.000249
C62	C	1.024101	0.072277	-0.000273
C63	C	0.814190	0.179971	-0.000232
C64	C	0.815124	0.243190	-0.000242
N65	N	0.819956	0.075828	0.188452
N66	N	0.820008	0.075837	-0.188884
C67	C	0.867460	0.037009	0.226546
C68	C	0.867464	0.037006	0.302774
C69	C	0.819972	0.075833	0.340904
C70	C	0.772459	0.114655	0.302800
C71	C	0.772452	0.114653	0.226574
C72	C	0.810514	0.127724	0.461659
C73	C	0.810526	0.127727	0.537884
C74	C	0.819991	0.075840	0.576012
C75	C	0.829459	0.023947	0.537906
C76	C	0.829451	0.023945	0.461679
C77	C	0.819975	0.075839	0.423559
C78	C	0.867502	0.037014	0.696762
C79	C	0.867502	0.037011	0.772991
C80	C	0.772500	0.114665	0.773015
C81	C	0.772497	0.114663	0.696788
C82	C	0.820002	0.075839	0.658665
H83	H	0.397741	0.004488	-0.077191
H84	H	0.939648	-0.109639	-0.000218
H85	H	0.373644	0.148763	0.076758
Br86	Br	0.218950	0.168532	0.099764
Br87	Br	0.842293	-0.046476	0.409966
H88	H	0.624802	-0.014860	-0.000144
Br89	Br	0.667741	-0.611039	-0.000208
Br90	Br	0.931970	-0.015681	0.824695
Br91	Br	0.606360	-0.470835	-0.000209
Br92	Br	0.708038	0.167353	0.824757
Br93	Br	0.964236	-0.783788	-0.000278
H94	H	0.642556	-0.350733	-0.000211
Br95	Br	0.437672	0.199838	-0.000214
Br96	Br	0.708028	0.167351	0.645082
H97	H	0.708291	-0.192209	-0.000164
Br98	Br	0.675728	-0.064543	-0.000163
Br99	Br	0.202285	-0.048171	-0.000224
Br100	Br	0.972227	-0.237284	-0.000252
Br101	Br	0.966290	-0.643772	-0.000264
Br102	Br	0.665698	-0.751036	-0.000194
Br103	Br	0.931926	-0.015682	0.174808
H104	H	0.906149	0.005393	0.333797
Br105	Br	0.797736	0.198150	0.409921
H106	H	0.493372	-0.016435	-0.000187
H107	H	0.837166	-0.018304	0.568948
Br108	Br	0.797685	0.198151	0.589591
H109	H	0.593452	0.173479	-0.000193
H110	H	0.906182	0.005399	0.665721
Br111	Br	0.031532	-0.050226	-0.000251
Br112	Br	0.707999	0.167345	0.354545
Br113	Br	1.033603	-0.377478	-0.000285
Br114	Br	0.250261	-0.018909	-0.100256
H115	H	0.146582	0.168107	-0.000262
H116	H	0.997412	-0.497577	-0.000276
H117	H	0.733768	0.146265	0.195556
H118	H	0.015161	0.166526	-0.000281
