data_functionalizedCrystal
_audit_creation_method	'MofGen! by Chris Wilmer'
_symmetry_space_group_name_H-M	'P1'
_symmetry_Int_Tables_number	1
_symmetry_cell_setting	triclinic
loop_
_symmetry_equiv_pos_as_xyz
  x,y,z
_cell_length_a	15.995350
_cell_length_b	14.472310
_cell_length_c	14.519709
_cell_angle_alpha	89.997999
_cell_angle_beta	96.413740
_cell_angle_gamma	90.009379
loop_
_atom_site_label
_atom_site_type_symbol
_atom_site_fract_x
_atom_site_fract_y
_atom_site_fract_z
O1	O	1.111174	0.076765	-0.118867
O2	O	0.867421	0.076784	-0.133546
O3	O	0.995761	0.076765	0.008044
O4	O	0.982835	0.076783	-0.260457
O5	O	0.995728	-0.076917	0.008036
O6	O	0.867388	-0.076898	-0.133554
O7	O	1.111141	-0.076917	-0.118875
Cu8	Cu	0.989262	-0.090940	-0.126215
Cu9	Cu	0.989301	0.090807	-0.126206
O10	O	0.982802	-0.076899	-0.260465
C11	C	0.836209	-0.000055	-0.132943
C12	C	0.743256	-0.000048	-0.131124
C13	C	0.405499	-0.000067	-0.124590
C14	C	0.452782	-0.000417	-0.023752
C15	C	0.549475	-0.000064	-0.025572
C16	C	0.573064	-0.000058	-0.127831
C17	C	0.532070	0.087701	-0.177563
C18	C	0.435431	0.087768	-0.175030
C19	C	0.435057	-0.086997	-0.177123
C20	C	0.532002	-0.088150	-0.177099
C21	C	0.667764	-0.000050	-0.129668
C22	C	0.310798	-0.000069	-0.122756
N23	N	0.989240	-0.218771	-0.126222
C24	C	0.989300	-0.592862	-0.126202
C25	C	0.920397	-0.553686	-0.201710
C26	C	0.920556	-0.446598	-0.201985
C27	C	0.989270	-0.407271	-0.126212
C28	C	1.076666	-0.446114	-0.147229
C29	C	1.076279	-0.553235	-0.147766
C30	C	0.971586	-0.553396	-0.029453
C31	C	0.969583	-0.446269	-0.030098
C32	C	0.989258	-0.302383	-0.126215
C33	C	0.989317	-0.697750	-0.126200
C34	C	1.142354	-0.000077	-0.119478
C35	C	1.235307	-0.000078	-0.121297
C36	C	0.995142	-0.000076	0.042398
C37	C	0.993337	-0.000076	0.144776
N38	N	0.989329	0.218638	-0.126192
C39	C	0.983421	-0.000056	-0.294819
C40	C	0.985226	-0.000049	-0.397197
C41	C	0.986691	-0.000052	0.519660
C42	C	0.988537	-0.000059	0.415355
C43	C	0.990014	-0.000065	0.332221
C44	C	0.991859	-0.000070	0.227910
H45	H	0.414458	-0.153516	-0.144160
F46	F	0.411445	0.173509	-0.127617
H47	H	0.931883	-0.420961	-0.273781
H48	H	0.559251	-0.153074	-0.140795
F49	F	1.037259	-0.586509	0.043992
H50	H	1.129170	-0.420638	-0.093696
F51	F	0.569105	0.173066	-0.132407
F52	F	0.552225	-0.095073	-0.274571
F53	F	1.096652	-0.585879	-0.239990
H54	H	1.129160	-0.579148	-0.094938
H55	H	1.092622	-0.419273	-0.216983
H56	H	0.909233	-0.580460	-0.009244
H57	H	0.546308	0.090969	-0.252690
F58	F	0.835212	-0.587369	-0.185602
F59	F	0.935005	-0.588838	-0.295028
H60	H	0.905293	-0.420882	-0.014148
F61	F	0.393689	-0.087768	-0.274299
H62	H	0.577831	-0.062974	0.013520
H63	H	0.855598	-0.420338	-0.189463
F64	F	0.393423	0.092980	-0.271794
F65	F	1.030910	-0.411293	0.046788
H66	H	0.433141	0.062167	0.016373
F67	F	0.585807	0.082431	0.025670
F68	F	0.428472	-0.082679	0.028928
