data_functionalizedCrystal
_audit_creation_method	'MofGen! by Chris Wilmer'
_symmetry_space_group_name_H-M	'P1'
_symmetry_Int_Tables_number	1
_symmetry_cell_setting	triclinic
loop_
_symmetry_equiv_pos_as_xyz
  x,y,z
_cell_length_a	16.625548
_cell_length_b	21.395361
_cell_length_c	21.395356
_cell_angle_alpha	89.969319
_cell_angle_beta	89.976434
_cell_angle_gamma	90.031776
loop_
_atom_site_label
_atom_site_type_symbol
_atom_site_fract_x
_atom_site_fract_y
_atom_site_fract_z
Zn1	Zn	1.232658	-0.249437	-0.354248
Zn2	Zn	1.732658	0.250563	0.145752
Zn3	Zn	1.232535	-0.354213	-0.249465
Zn4	Zn	1.732535	0.145787	0.250535
Zn5	Zn	1.097813	-0.249455	-0.249485
Zn6	Zn	1.597813	0.250545	0.250515
Zn7	Zn	1.097771	-0.354182	-0.354205
Zn8	Zn	1.597771	0.145818	0.145795
O9	O	1.165194	-0.301822	-0.301851
O10	O	1.665194	0.198178	0.198149
O11	O	1.345474	-0.263340	-0.340358
O12	O	1.845474	0.236660	0.159642
O13	O	1.214630	-0.340338	-0.161790
O14	O	1.714630	0.159662	0.338210
O15	O	1.115770	-0.161775	-0.263408
O16	O	1.615770	0.338225	0.236592
O17	O	1.345384	-0.340319	-0.263374
O18	O	1.845384	0.159681	0.236626
O19	O	1.214840	-0.161761	-0.340377
O20	O	1.714840	0.338239	0.159623
O21	O	1.115650	-0.263373	-0.161804
O22	O	1.615650	0.236627	0.338196
O23	O	0.984975	-0.263343	-0.263366
O24	O	1.484975	0.236657	0.236634
O25	O	1.115698	-0.340267	-0.441889
O26	O	1.615698	0.159733	0.058111
O27	O	0.984944	-0.340285	-0.340304
O28	O	1.484944	0.159715	0.159696
O29	O	1.214799	-0.263310	-0.441920
O30	O	1.714799	0.236690	0.058080
O31	O	1.214589	-0.441887	-0.263333
O32	O	1.714589	0.058113	0.236667
O33	O	1.115579	-0.441864	-0.340285
O34	O	1.615579	0.058136	0.159715
C35	C	1.165088	-0.464609	-0.301816
C36	C	1.665088	0.035391	0.198184
C37	C	1.165116	-0.534251	-0.301822
C38	C	1.665116	-0.034251	0.198178
C39	C	0.955703	-0.301813	-0.301833
C40	C	1.455703	0.198187	0.198167
C41	C	0.866082	-0.301824	-0.301841
C42	C	1.366082	0.198176	0.198159
C43	C	1.216716	-0.566955	-0.261794
C44	C	1.716716	-0.066955	0.238206
C45	C	1.216754	-0.632390	-0.261808
C46	C	1.716754	-0.132390	0.238192
C47	C	1.165177	-0.665119	-0.301843
C48	C	1.665177	-0.165119	0.198157
C49	C	1.113573	-0.632407	-0.341879
C50	C	1.613573	-0.132407	0.158121
C51	C	1.113542	-0.566973	-0.341868
C52	C	1.613542	-0.066973	0.158132
C53	C	1.092577	-0.768834	-0.306753
C54	C	1.592577	-0.268834	0.193247
C55	C	1.092606	-0.834267	-0.306760
C56	C	1.592606	-0.334267	0.193240
C57	C	1.165271	-0.866940	-0.301880
C58	C	1.665271	-0.366940	0.198120
C59	C	1.237909	-0.834171	-0.296981
C60	C	1.737909	-0.334171	0.203019
C61	C	1.237878	-0.768737	-0.296970
C62	C	1.737878	-0.268737	0.203030
C63	C	1.165204	-0.736071	-0.301860
C64	C	1.665204	-0.236071	0.198140
C65	C	1.216916	-0.970596	-0.261865
C66	C	1.716916	-0.470596	0.238135
C67	C	1.216955	-1.036033	-0.261884
C68	C	1.716955	-0.536033	0.238116
C69	C	1.113766	-1.036048	-0.341952
C70	C	1.613766	-0.536048	0.158048
C71	C	1.113735	-0.970613	-0.341936
C72	C	1.613735	-0.470613	0.158064
C73	C	1.165308	-0.937891	-0.301890
C74	C	1.665308	-0.437891	0.198110
C75	C	0.537907	-0.301828	-0.301867
C76	C	1.037907	0.198172	0.198133
C77	C	0.629215	-0.301825	-0.301858
C78	C	1.129215	0.198175	0.198142
C79	C	0.701992	-0.301827	-0.301853
C80	C	1.201992	0.198173	0.198147
C81	C	0.793306	-0.301823	-0.301845
C82	C	1.293306	0.198177	0.198155
C83	C	1.375503	-0.301831	-0.301869
C84	C	1.875503	0.198169	0.198131
C85	C	1.465124	-0.301835	-0.301876
C86	C	1.965124	0.198165	0.198124
C87	C	1.165258	-0.301783	-0.465274
C88	C	1.665258	0.198217	0.034726
C89	C	1.165285	-0.301766	-0.534915
C90	C	1.665285	0.198234	-0.034915
C91	C	1.165323	-0.138399	-0.301899
C92	C	1.665323	0.361601	0.198101
C93	C	1.165378	-0.068757	-0.301920
C94	C	1.665378	0.431243	0.198080
C95	C	1.113760	-0.261686	-0.567626
C96	C	1.613760	0.238314	-0.067626
C97	C	1.113757	-0.261675	-0.633062
C98	C	1.613757	0.238325	-0.133062
C99	C	1.165294	-0.301737	-0.665784
C100	C	1.665294	0.198263	-0.165784
C101	C	1.216822	-0.341825	-0.633065
C102	C	1.716822	0.158175	-0.133065
C103	C	1.216818	-0.341840	-0.567631
C104	C	1.716818	0.158160	-0.067631
C105	C	1.237941	-0.306662	-0.769470
C106	C	1.737941	0.193338	-0.269470
C107	C	1.237947	-0.306642	-0.834903
C108	C	1.737947	0.193358	-0.334903
C109	C	1.165307	-0.301694	-0.867605
C110	C	1.665307	0.198306	-0.367605
C111	C	1.092658	-0.296753	-0.834865
C112	C	1.592658	0.203247	-0.334865
C113	C	1.092654	-0.296767	-0.769431
C114	C	1.592654	0.203233	-0.269431
C115	C	1.165304	-0.301725	-0.736736
C116	C	1.665304	0.198275	-0.236736
C117	C	1.113775	-0.261599	-0.971268
C118	C	1.613775	0.238401	-0.471268
C119	C	1.113771	-0.261592	-1.036705
C120	C	1.613771	0.238408	-0.536705
C121	C	1.216843	-0.341739	-1.036707
C122	C	1.716843	0.158261	-0.536707
C123	C	1.216840	-0.341749	-0.971271
C124	C	1.716840	0.158251	-0.471271
C125	C	1.165307	-0.301676	-0.938556
C126	C	1.665307	0.198324	-0.438556
C127	C	1.165177	-0.301815	-0.139063
C128	C	1.665177	0.198185	0.360937
C129	C	1.165307	-0.301655	-0.069422
C130	C	1.665307	0.198345	0.430578
H131	H	1.258713	-0.540314	-0.229187
H132	H	1.758713	-0.040314	0.270813
H133	H	1.033508	-0.292719	-0.861490
H134	H	1.533508	0.207281	-0.361490
H135	H	1.071579	-0.659059	-0.374477
H136	H	1.571579	-0.159059	0.125523
Br137	Br	1.336532	-0.878503	-0.290349
Br138	Br	1.836532	-0.378503	0.209651
H139	H	1.071807	-0.228956	-1.063337
H140	H	1.571807	0.271044	-0.563337
Br141	Br	1.043843	-0.207262	-0.677465
Br142	Br	1.543843	0.292738	-0.177465
Br143	Br	1.286788	-0.676785	-0.207481
Br144	Br	1.786788	-0.176785	0.292519
H145	H	1.071775	-1.062696	-0.374552
H146	H	1.571775	-0.562696	0.125448
Br147	Br	1.286779	-0.396116	-1.081108
Br148	Br	1.786779	0.103884	-0.581108
Br149	Br	1.336453	-0.724267	-0.290327
Br150	Br	1.836453	-0.224267	0.209673
H151	H	1.258799	-0.374386	-0.944638
H152	H	1.758799	0.125614	-0.444638
H153	H	1.258783	-0.374444	-0.659712
H154	H	1.758783	0.125556	-0.159712
Br155	Br	1.043836	-0.207219	-0.926865
Br156	Br	1.543836	0.292781	-0.426865
Br157	Br	1.043700	-0.926226	-0.396262
Br158	Br	1.543700	-0.426226	0.103738
Br159	Br	0.994065	-0.290064	-0.725001
Br160	Br	1.494065	0.209936	-0.225001
H161	H	1.297102	-0.310663	-0.861554
H162	H	1.797102	0.189337	-0.361554
H163	H	1.258779	-0.374477	-0.540998
H164	H	1.758779	0.125523	-0.040998
Br165	Br	1.286904	-0.926184	-0.207516
Br166	Br	1.786904	-0.426184	0.292484
Br167	Br	1.286999	-1.080419	-0.207561
Br168	Br	1.786999	-0.580419	0.292439
H169	H	1.033459	-0.860943	-0.310743
H170	H	1.533459	-0.360943	0.189257
H171	H	1.297099	-0.310685	-0.742849
H172	H	1.797099	0.189315	-0.242849
H173	H	1.033399	-0.742239	-0.310729
H174	H	1.533399	-0.242239	0.189271
Br175	Br	1.043820	-0.207304	-0.523229
Br176	Br	1.543820	0.292696	-0.023229
Br177	Br	1.043509	-0.522585	-0.396197
Br178	Br	1.543509	-0.022585	0.103803
