data_functionalizedCrystal
_audit_creation_method	'MofGen! by Chris Wilmer'
_symmetry_space_group_name_H-M	'P1'
_symmetry_Int_Tables_number	1
_symmetry_cell_setting	triclinic
loop_
_symmetry_equiv_pos_as_xyz
  x,y,z
_cell_length_a	11.792241
_cell_length_b	12.811445
_cell_length_c	11.295483
_cell_angle_alpha	80.460739
_cell_angle_beta	85.871827
_cell_angle_gamma	95.880359
loop_
_atom_site_label
_atom_site_type_symbol
_atom_site_fract_x
_atom_site_fract_y
_atom_site_fract_z
O1	O	-0.133590	1.411384	-0.251417
O2	O	0.366410	1.911384	0.248583
O3	O	-0.152760	1.103536	-0.218176
O4	O	0.347240	1.603536	0.281824
O5	O	0.022072	1.264931	-0.235611
O6	O	0.522072	1.764931	0.264389
O7	O	-0.308422	1.249989	-0.233983
O8	O	0.191578	1.749989	0.266017
O9	O	0.006740	1.250755	-0.036028
O10	O	0.506740	1.750755	0.463972
O11	O	-0.168092	1.089360	-0.018594
O12	O	0.331908	1.589360	0.481406
O13	O	-0.148923	1.397208	-0.051835
O14	O	0.351077	1.897208	0.448165
Cu15	Cu	-0.159908	1.241990	-0.016991
Cu16	Cu	0.340092	1.741990	0.483009
Cu17	Cu	-0.141775	1.258755	-0.253020
Cu18	Cu	0.358225	1.758755	0.246980
O19	O	-0.323755	1.235813	-0.034401
O20	O	0.176245	1.735813	0.465599
C21	C	-0.159821	1.057037	-0.114129
C22	C	0.340179	1.557037	0.385871
C23	C	-0.158003	0.939603	-0.101450
C24	C	0.341997	1.439603	0.398550
C25	C	-0.137891	0.734385	-0.295229
C26	C	0.362109	1.234385	0.204771
C27	C	-0.136183	0.624046	-0.283321
C28	C	0.363817	1.124046	0.216679
C29	C	-0.152887	0.608584	-0.065725
C30	C	0.347113	1.108584	0.434275
C31	C	-0.154595	0.718923	-0.077633
C32	C	0.345405	1.218923	0.422367
C33	C	-0.147095	0.781820	-0.192389
C34	C	0.352905	1.281820	0.307611
C35	C	-0.148795	0.892161	-0.204297
C36	C	0.351205	1.392161	0.295703
C37	C	-0.165507	0.876697	0.013298
C38	C	0.334493	1.376697	0.513298
C39	C	-0.163799	0.766358	0.025207
C40	C	0.336201	1.266358	0.525207
C41	C	-0.358370	1.243839	-0.134291
C42	C	0.141630	1.743839	0.365709
C43	C	-0.484356	1.246648	-0.134589
C44	C	0.015644	1.746648	0.365411
C45	C	-0.715013	1.251816	-0.135177
C46	C	-0.215013	1.751816	0.364823
C47	C	-0.586658	1.248945	-0.134851
C48	C	-0.086658	1.748945	0.365149
C49	C	0.056687	1.256905	-0.135723
C50	C	0.556687	1.756905	0.364277
C51	C	0.182674	1.254097	-0.135432
C52	C	0.682674	1.754097	0.364568
C53	C	-0.141862	1.443708	-0.155884
C54	C	0.358138	1.943708	0.344116
C55	C	-0.143679	1.561142	-0.168572
C56	C	0.356321	2.061142	0.331428
N57	N	-0.172660	1.230206	0.149018
N58	N	0.327340	1.730206	0.649018
N59	N	-0.129014	1.270546	-0.419030
N60	N	0.370986	1.770546	0.080970
C61	C	-0.037151	1.355371	0.384787
C62	C	0.462849	1.855371	0.884787
C63	C	-0.046796	1.346473	0.510412
C64	C	0.453204	1.846473	1.010412
C65	C	-0.201589	1.203510	0.525895
C66	C	0.298411	1.703510	1.025895
C67	C	-0.191944	1.212407	0.400270
C68	C	0.308056	1.712407	0.900270
C69	C	-0.109723	1.288341	0.329720
C70	C	0.390277	1.788341	0.829720
C71	C	-0.100084	1.297243	0.204093
C72	C	0.399916	1.797243	0.704093
C73	C	-0.254872	1.154275	0.219579
C74	C	0.245128	1.654275	0.719579
C75	C	-0.264517	1.145378	0.345204
C76	C	0.235483	1.645378	0.845204
H77	H	-0.131779	0.785597	-0.388668
H78	H	0.368221	1.285597	0.111332
H79	H	0.012301	1.401054	0.555243
H80	H	0.512301	1.901054	1.055243
C81	C	-0.009654	1.380769	0.126483
C82	C	0.490346	1.880769	0.626483
H83	H	-0.014310	1.376480	0.043777
H84	H	0.485690	1.876480	0.543777
H85	H	0.064480	1.367396	0.148351
H86	H	0.564480	1.867396	0.648351
H87	H	-0.023360	1.449973	0.139430
H88	H	0.476640	1.949973	0.639430
C89	C	-0.292019	1.119989	0.603513
C90	C	0.207981	1.619989	1.103513
H91	H	-0.287368	1.124296	0.686216
H92	H	0.212632	1.624296	1.186216
H93	H	-0.278331	1.050785	0.590572
H94	H	0.221669	1.550785	1.090572
H95	H	-0.366158	1.133374	0.581648
H96	H	0.133842	1.633374	1.081648
C97	C	-0.334718	1.080551	0.159003
C98	C	0.165282	1.580551	0.659003
H99	H	-0.317201	1.096724	0.074080
H100	H	0.182799	1.596724	0.574080
H101	H	-0.412005	1.091025	0.178317
H102	H	0.087995	1.591025	0.678317
H103	H	-0.324193	1.008423	0.187228
H104	H	0.175807	1.508423	0.687228
C105	C	-0.354957	1.061861	0.422814
C106	C	0.145043	1.561861	0.922814
H107	H	-0.350314	1.066166	0.505519
H108	H	0.149686	1.566166	1.005519
H109	H	-0.341274	0.992656	0.409873
H110	H	0.158726	1.492656	0.909873
H111	H	-0.429090	1.075255	0.400939
H112	H	0.070910	1.575255	0.900939
H113	H	-0.172999	0.915330	0.097038
H114	H	0.327001	1.415330	0.597038
C115	C	-0.140554	0.961346	-0.330521
C116	C	0.359446	1.461346	0.169479
H117	H	-0.134841	0.917286	-0.390062
H118	H	0.365159	1.417286	0.109938
H119	H	-0.074703	1.012400	-0.340536
H120	H	0.425297	1.512400	0.159464
H121	H	-0.207056	0.997018	-0.338845
H122	H	0.292944	1.497018	0.161155
C123	C	0.053282	1.438895	0.307178
C124	C	0.553282	1.938895	0.807178
H125	H	0.095126	1.477541	0.357968
H126	H	0.595126	1.977541	0.857968
H127	H	0.016348	1.486625	0.253382
H128	H	0.516348	1.986625	0.753382
H129	H	0.104181	1.404042	0.262320
H130	H	0.604181	1.904042	0.762320
H131	H	-0.128692	0.585429	-0.367064
H132	H	0.371308	1.085429	0.132936
C133	C	-0.160736	0.539433	0.060487
C134	C	0.339264	1.039433	0.560487
H135	H	-0.158274	0.466941	0.052843
H136	H	0.341726	0.966941	0.552843
H137	H	-0.230513	0.546510	0.104364
H138	H	0.269487	1.046510	0.604364
H139	H	-0.098125	0.562192	0.102110
H140	H	0.401875	1.062192	0.602110
H141	H	-0.169909	0.715132	0.118638
H142	H	0.330091	1.215132	0.618638
