data_functionalizedCrystal
_audit_creation_method	'MofGen! by Chris Wilmer'
_symmetry_space_group_name_H-M	'P1'
_symmetry_Int_Tables_number	1
_symmetry_cell_setting	triclinic
loop_
_symmetry_equiv_pos_as_xyz
  x,y,z
_cell_length_a	19.077105
_cell_length_b	11.169416
_cell_length_c	11.169409
_cell_angle_alpha	90.030874
_cell_angle_beta	87.679347
_cell_angle_gamma	92.293056
loop_
_atom_site_label
_atom_site_type_symbol
_atom_site_fract_x
_atom_site_fract_y
_atom_site_fract_z
Zn1	Zn	1.076092	0.551539	-0.752302
Zn2	Zn	1.409426	0.884872	-0.418969
Zn3	Zn	1.742759	1.218205	-0.085635
Zn4	Zn	1.076028	0.752275	-0.551620
Zn5	Zn	1.409361	1.085608	-0.218286
Zn6	Zn	1.742694	1.418941	0.115047
Zn7	Zn	0.958386	0.543533	-0.543570
Zn8	Zn	1.291719	0.876866	-0.210236
Zn9	Zn	1.625053	1.210200	0.123097
Zn10	Zn	0.958390	0.744103	-0.744203
Zn11	Zn	1.291724	1.077436	-0.410869
Zn12	Zn	1.625057	1.410770	-0.077536
O13	O	1.017224	0.647862	-0.647924
O14	O	1.350557	0.981196	-0.314590
O15	O	1.683891	1.314529	0.018743
O16	O	1.174576	0.584937	-0.732440
O17	O	1.507909	0.918270	-0.399106
O18	O	1.841243	1.251604	-0.065773
O19	O	1.060393	0.724654	-0.382600
O20	O	1.393726	1.057988	-0.049267
O21	O	1.727060	1.391321	0.284067
O22	O	0.974025	0.376647	-0.571279
O23	O	1.307359	0.709980	-0.237946
O24	O	1.640692	1.043314	0.095387
O25	O	1.174528	0.732417	-0.584999
O26	O	1.507862	1.065750	-0.251666
O27	O	1.841195	1.399084	0.081667
O28	O	1.060504	0.382529	-0.724634
O29	O	1.393837	0.715862	-0.391301
O30	O	1.727170	1.049195	-0.057967
O31	O	0.973962	0.571293	-0.376686
O32	O	1.307296	0.904626	-0.043352
O33	O	1.640629	1.237959	0.289981
O34	O	0.859894	0.563369	-0.563426
O35	O	1.193228	0.896702	-0.230092
O36	O	1.526561	1.230036	0.103241
O37	O	0.974033	0.718489	-0.913229
O38	O	1.307366	1.051823	-0.579896
O39	O	1.640699	1.385156	-0.246562
O40	O	0.859898	0.710727	-0.710830
O41	O	1.193231	1.044060	-0.377496
O42	O	1.526564	1.377394	-0.044163
O43	O	1.060508	0.577013	-0.919180
O44	O	1.393841	0.910347	-0.585846
O45	O	1.727175	1.243680	-0.252513
O46	O	1.060397	0.919139	-0.577146
O47	O	1.393731	1.252472	-0.243812
O48	O	1.727064	1.585805	0.089521
O49	O	0.973970	0.913135	-0.718635
O50	O	1.307303	1.246468	-0.385302
O51	O	1.640636	1.579802	-0.051969
C52	C	0.834358	0.635293	-0.635376
C53	C	1.167691	0.968627	-0.302043
C54	C	1.501025	1.301960	0.031291
C55	C	0.756127	0.629945	-0.630036
C56	C	1.089461	0.963278	-0.296703
C57	C	1.422794	1.296612	0.036630
C58	C	0.719394	0.704270	-0.704153
C59	C	1.052728	1.037603	-0.370819
C60	C	1.386061	1.370936	-0.037486
C61	C	0.645888	0.699229	-0.699141
C62	C	0.979221	1.032562	-0.365808
C63	C	1.312555	1.365895	-0.032475
C64	C	0.609116	0.619868	-0.620007
C65	C	0.942449	0.953202	-0.286674
C66	C	1.275783	1.286535	0.046660
C67	C	0.645854	0.545536	-0.545888
C68	C	0.979188	0.878869	-0.212554
C69	C	1.312521	1.212202	0.120779
C70	C	0.719359	0.550571	-0.550906
C71	C	1.052692	0.883905	-0.217573
C72	C	1.386026	1.217238	0.115761
C73	C	0.389278	0.596562	-0.596788
C74	C	0.722611	0.929895	-0.263455
C75	C	1.055945	1.263229	0.069879
C76	C	0.315768	0.591534	-0.591773
C77	C	0.649101	0.924868	-0.258440
C78	C	0.982435	1.258201	0.074894
C79	C	0.315807	0.745226	-0.745029
C80	C	0.649140	1.078560	-0.411696
C81	C	0.982473	1.411893	-0.078362
C82	C	0.389313	0.750260	-0.750035
C83	C	0.722646	1.083594	-0.416701
C84	C	1.055980	1.416927	-0.083368
C85	C	0.426045	0.675923	-0.675920
C86	C	0.759378	1.009257	-0.342587
C87	C	1.092711	1.342590	-0.009253
N88	N	0.533981	0.614716	-0.614880
N89	N	0.867314	0.948050	-0.281547
N90	N	1.200648	1.281383	0.051786
N91	N	0.501179	0.681070	-0.681054
N92	N	0.834512	1.014403	-0.347721
N93	N	1.167845	1.347737	-0.014387
C94	C	1.017196	0.959685	-0.647913
C95	C	1.350529	1.293019	-0.314579
C96	C	1.683863	1.626352	0.018754
C97	C	1.017249	1.093089	-0.647952
C98	C	1.350582	1.426422	-0.314619
C99	C	1.683915	1.759755	0.018714
C100	C	1.017278	0.647733	-0.960970
C101	C	1.350611	0.981066	-0.627637
C102	C	1.683945	1.314400	-0.294303
C103	C	1.017301	0.647678	-1.094372
C104	C	1.350634	0.981011	-0.761038
C105	C	1.683968	1.314344	-0.427705
C106	C	1.200804	0.660481	-0.660521
C107	C	1.534137	0.993815	-0.327188
C108	C	1.867471	1.327148	0.006146
C109	C	1.279035	0.665859	-0.665889
C110	C	1.612368	0.999192	-0.332556
C111	C	1.945702	1.332526	0.000777
C112	C	1.017271	0.334823	-0.647962
C113	C	1.350605	0.668157	-0.314629
C114	C	1.683938	1.001490	0.018704
C115	C	1.017291	0.201425	-0.647979
C116	C	1.350625	0.534758	-0.314645
C117	C	1.683958	0.868091	0.018688
C118	C	1.017211	0.647908	-0.336098
C119	C	1.350544	0.981241	-0.002765
C120	C	1.683877	1.314574	0.330569
C121	C	1.017324	0.647634	-0.202706
C122	C	1.350657	0.980967	0.130627
C123	C	1.683991	1.314301	0.463960
H124	H	0.419248	0.814887	-0.814472
H125	H	0.752581	1.148220	-0.481138
H126	H	1.085914	1.481553	-0.147805
H127	H	0.615983	0.759753	-0.759494
H128	H	0.949317	1.093086	-0.426160
H129	H	1.282650	1.426419	-0.092827
Br130	Br	0.265953	0.846111	-0.845603
Br131	Br	0.599287	1.179445	-0.512270
Br132	Br	0.932620	1.512778	-0.178936
Br133	Br	0.439119	0.495669	-0.496210
Br134	Br	0.772452	0.829002	-0.162876
Br135	Br	1.105786	1.162336	0.170457
Br136	Br	0.265863	0.483837	-0.484356
Br137	Br	0.599196	0.817170	-0.151023
Br138	Br	0.932530	1.150504	0.182311
H139	H	0.615909	0.480914	-0.481460
H140	H	0.949242	0.814247	-0.148127
H141	H	1.282575	1.147580	0.185207
Br142	Br	0.769212	0.449692	-0.450322
Br143	Br	1.102545	0.783025	-0.116989
Br144	Br	1.435879	1.116359	0.216345
H145	H	0.749329	0.768897	-0.768589
H146	H	1.082662	1.102231	-0.435255
H147	H	1.415995	1.435564	-0.101922
