data_functionalizedCrystal
_audit_creation_method	'MofGen! by Chris Wilmer'
_symmetry_space_group_name_H-M	'P1'
_symmetry_Int_Tables_number	1
_symmetry_cell_setting	triclinic
loop_
_symmetry_equiv_pos_as_xyz
  x,y,z
_cell_length_a	23.096457
_cell_length_b	23.096457
_cell_length_c	14.560432
_cell_angle_alpha	60.000841
_cell_angle_beta	90.000844
_cell_angle_gamma	60.000034
loop_
_atom_site_label
_atom_site_type_symbol
_atom_site_fract_x
_atom_site_fract_y
_atom_site_fract_z
Zr1	Zr	0.557743	0.633775	-0.120523
O2	O	0.465291	0.754564	-0.267167
O3	O	0.586086	0.512986	-0.075572
O4	O	0.586081	0.633779	-0.267174
O5	O	0.465299	0.633769	0.075577
O6	O	0.681360	0.633783	-0.267176
O7	O	0.465296	0.633771	-0.075565
O8	O	0.681370	0.417706	0.075564
O9	O	0.465289	0.849845	-0.267164
O10	O	0.669278	0.562671	-0.056400
O11	O	0.598174	0.562667	0.056398
O12	O	0.598168	0.704885	-0.169189
O13	O	0.527064	0.704880	-0.056391
Zr14	Zr	0.709706	0.633777	0.120526
Zr15	Zr	0.709703	0.633781	-0.120528
Zr16	Zr	0.557747	0.633771	0.120530
Zr17	Zr	0.557740	0.785738	-0.120519
Zr18	Zr	0.709710	0.481815	0.120521
O19	O	0.681363	0.754567	0.075574
O20	O	0.681358	0.754573	-0.267173
O21	O	0.465296	0.754559	0.075580
O22	O	0.802159	0.512989	0.267169
O23	O	0.802153	0.512994	-0.075578
O24	O	0.586092	0.512980	0.267175
O25	O	0.802151	0.633784	-0.075574
O26	O	0.681369	0.633774	0.267176
O27	O	0.586089	0.633770	0.267178
O28	O	0.802153	0.633782	0.075567
O29	O	0.586076	0.849850	-0.267167
O30	O	0.681373	0.417703	0.267169
O31	O	0.802161	0.417707	0.267166
O32	O	0.802158	0.417711	0.075561
O33	O	0.465292	0.849842	-0.075559
O34	O	0.586079	0.849847	-0.075562
O35	O	0.669282	0.562668	0.169191
O36	O	0.740386	0.562672	0.056394
O37	O	0.669275	0.704886	-0.056395
O38	O	0.598171	0.704881	0.056402
C39	C	0.633729	0.443694	-0.000005
C40	C	0.633730	0.379182	-0.000007
C41	C	0.670842	-0.081333	-0.058859
C42	C	0.670840	-0.020713	-0.058869
C43	C	0.633725	0.009597	0.000010
C44	C	0.596595	-0.020703	0.058880
C45	C	0.596592	-0.081316	0.058880
N46	N	0.638879	0.071989	0.095828
N47	N	0.638886	0.129568	0.095827
C48	C	0.633731	0.192222	0.000013
N49	N	0.628582	0.195116	-0.095798
N50	N	0.628579	0.137529	-0.095794
C51	C	0.633724	0.075322	0.000016
C52	C	0.670853	0.288250	-0.058871
C53	C	0.670846	0.348875	-0.058885
C54	C	0.596606	0.348878	0.058876
C55	C	0.596608	0.288261	0.058878
C56	C	0.633735	0.257947	0.000007
C57	C	0.443647	0.633769	0.000006
C58	C	0.379136	0.633766	0.000008
C59	C	-0.044267	0.559553	0.058879
C60	C	0.016351	0.559548	0.058876
C61	C	0.009546	0.633781	0.000003
C62	C	-0.057886	0.708025	-0.058895
C63	C	-0.118502	0.708027	-0.058900
N64	N	0.077091	0.689034	0.008177
N65	N	0.134676	0.689026	0.008187
C66	C	0.192177	0.633778	0.000010
N67	N	0.189922	0.578525	-0.008156
N68	N	0.132333	0.578530	-0.008160
C69	C	0.075270	0.633787	0.000000
C70	C	0.325328	0.559534	0.058895
C71	C	0.385946	0.559532	0.058884
C72	C	0.311707	0.708011	-0.058880
C73	C	0.251091	0.708011	-0.058876
C74	C	0.257906	0.633770	0.000017
C75	C	0.823803	0.633784	-0.000004
C76	C	0.888314	0.633787	-0.000006
C77	C	0.633720	0.633781	-0.301520
C78	C	0.633718	0.633783	-0.403853
C79	C	0.633721	0.823859	0.000007
C80	C	0.633719	0.888371	0.000009
C81	C	0.559471	0.782256	-0.521624
C82	C	0.522347	0.856489	-0.628582
C83	C	0.522349	0.856486	-0.724728
C84	C	0.559481	0.782241	-0.713913
C85	C	0.596605	0.708007	-0.606955
C86	C	0.596597	0.708019	-0.510813
C87	C	0.670856	0.559536	-0.489187
C88	C	0.670850	0.559538	-0.393038
C89	C	0.707988	0.485291	-0.478372
C90	C	0.745109	0.411055	-0.371412
C91	C	0.745104	0.411062	-0.275262
C92	C	0.707975	0.485304	-0.286080
C93	C	0.633730	0.633772	0.301522
C94	C	0.633731	0.633770	0.403855
C95	C	0.823807	0.443702	-0.000010
C96	C	0.888319	0.379192	-0.000014
C97	C	0.633734	0.443689	0.301516
C98	C	0.633737	0.379176	0.403848
C99	C	0.823812	0.443697	0.301511
C100	C	0.888325	0.379186	0.403841
C101	C	0.443638	0.823856	-0.301509
C102	C	0.379124	0.888367	-0.403839
C103	C	0.443643	0.823851	0.000012
C104	C	0.379130	0.888361	0.000016
C105	C	0.633716	0.823863	-0.301514
C106	C	0.633713	0.888377	-0.403846
C107	C	0.881497	0.348897	-0.058902
C108	C	0.942107	0.288292	-0.058929
C109	C	1.009539	0.257979	-0.000059
C110	C	1.016359	0.288280	0.058832
C111	C	0.955750	0.348888	0.058851
C112	C	0.670855	0.348880	0.510791
C113	C	0.670856	0.288271	0.606951
C114	C	0.633741	0.257954	0.596167
C115	C	0.596617	0.288256	0.489212
C116	C	0.596613	0.348868	0.393054
C117	C	0.955744	0.348893	0.393017
C118	C	1.016367	0.288286	0.489157
C119	C	1.009571	0.257969	0.596120
C120	C	0.942145	0.288268	0.606942
C121	C	0.881523	0.348878	0.510803
C122	C	0.311706	0.918667	-0.393015
C123	C	0.251082	0.979293	-0.489155
C124	C	0.257879	1.009613	-0.596118
C125	C	0.325304	0.979310	-0.606940
C126	C	0.385926	0.918690	-0.510801
C127	C	0.385952	0.918662	0.058895
C128	C	0.325342	0.979284	0.058894
C129	C	0.257911	1.009599	0.000021
C130	C	0.251090	0.979295	-0.058865
C131	C	0.311700	0.918679	-0.058871
C132	C	0.670835	0.918674	-0.393025
C133	C	0.670846	0.979284	-0.489167
C134	C	0.633730	1.009599	-0.596129
C135	C	0.596607	0.979296	-0.606948
C136	C	0.596601	0.918684	-0.510807
H137	H	0.701071	-0.106011	-0.106798
H138	H	0.559486	0.782245	-0.792207
H139	H	0.071254	0.499096	0.106847
H140	H	0.330830	1.004005	-0.694041
H141	H	0.961314	0.373546	0.106812
Br142	Br	0.546219	0.020436	0.138779
Br143	Br	0.546207	-0.122434	0.138777
H144	H	1.071262	0.263623	0.480326
H145	H	0.633749	0.208600	0.674474
Br146	Br	1.091788	0.175724	-0.000096
H147	H	0.566388	1.003989	-0.694049
H148	H	0.936622	0.263575	0.694044
Br149	Br	0.546235	0.389973	0.247921
H150	H	0.196180	1.003988	-0.106798
Br151	Br	0.334615	1.020395	0.138819
H152	H	0.306135	0.894009	-0.106814
Br153	Br	0.964987	0.390029	0.247864
Br154	Br	0.477449	0.458777	0.138795
Br155	Br	1.091851	0.175712	0.726586
H156	H	0.566399	0.263564	0.480448
H157	H	-0.038712	0.499100	0.106832
H158	H	0.826631	0.373534	0.519632
Br159	Br	0.471973	0.957232	-0.869890
H160	H	0.306158	0.893984	-0.305929
H161	H	0.701059	0.894001	-0.305940
H162	H	0.196188	1.003955	-0.480322
Br163	Br	0.175598	1.091885	-0.726584
H164	H	0.707964	0.485317	-0.207800
H165	H	0.701079	0.373557	0.519594
Br166	Br	0.477420	0.877572	-0.525511
H167	H	0.775342	0.350611	-0.362619
H168	H	0.440853	0.893984	0.106844
H169	H	0.701075	1.003950	-0.480336
H170	H	1.071270	0.263590	0.106761
Br171	Br	0.633745	1.091861	-0.726596
H172	H	0.208564	1.058957	0.000034
H173	H	0.306165	0.768453	-0.106821
H174	H	0.701070	0.003958	-0.106809
H175	H	0.701088	0.263606	0.694029
H176	H	0.566368	0.894023	-0.519633
Br177	Br	0.707996	0.485285	-0.608856
Br178	Br	0.721245	0.247101	-0.138754
Br179	Br	0.721222	0.390002	-0.138799
H180	H	0.566383	0.373560	0.106810
H181	H	-0.063423	0.768466	-0.106832
Br182	Br	0.546228	0.247138	0.138780
H183	H	0.330878	0.499083	0.106844
Br184	Br	-0.210006	0.808781	-0.138821
H185	H	0.196194	0.768460	-0.106822
H186	H	0.559457	0.782266	-0.443342
H187	H	0.826596	0.373578	-0.106855
H188	H	0.775338	0.350612	-0.188175
Br189	Br	0.471961	0.957246	-0.643253
H190	H	0.936540	0.263629	-0.106884
