data_functionalizedCrystal
_audit_creation_method	'MofGen! by Chris Wilmer'
_symmetry_space_group_name_H-M	'P1'
_symmetry_Int_Tables_number	1
_symmetry_cell_setting	triclinic
loop_
_symmetry_equiv_pos_as_xyz
  x,y,z
_cell_length_a	6.817900
_cell_length_b	11.168129
_cell_length_c	19.453114
_cell_angle_alpha	94.532242
_cell_angle_beta	101.709288
_cell_angle_gamma	108.508637
loop_
_atom_site_label
_atom_site_type_symbol
_atom_site_fract_x
_atom_site_fract_y
_atom_site_fract_z
V1	V	-4.032643	-0.176019	-0.219005
O2	O	-3.993699	0.007106	-0.214830
O3	O	-4.009458	-0.347716	-0.217513
O4	O	-3.975248	-0.173906	-0.314518
O5	O	-4.028146	-0.167908	-0.117154
V6	V	-4.514170	-0.154045	-0.206822
O7	O	-4.298282	-0.224221	-0.245730
O8	O	-4.698728	-0.105844	-0.180098
O9	O	-4.314148	0.017651	-0.208314
O10	O	-4.670510	-0.337171	-0.210997
O11	O	-4.636063	-0.162157	-0.308674
O12	O	-4.348358	-0.156159	-0.111309
C13	C	-3.860884	-0.389553	-0.214060
C14	C	-3.923154	-0.529921	-0.213477
C15	C	-3.915662	-0.574998	-0.152088
C16	C	-3.980021	-0.720076	-0.151484
C17	C	-3.817244	-0.167839	-0.337798
C18	C	-3.851768	-0.167247	-0.415881
C19	C	-4.050700	-0.173307	-0.456138
C20	C	-4.083138	-0.172750	-0.529505
C21	C	-3.916646	-0.166159	-0.562613
C22	C	-3.717683	-0.160092	-0.522346
C23	C	-3.685243	-0.160635	-0.448980
N24	N	-3.866696	-0.232843	-0.681405
N25	N	-3.897526	-0.232330	-0.751100
C26	C	-4.014371	-0.164518	-0.783662
N27	N	-4.099261	-0.097256	-0.743896
N28	N	-4.068437	-0.097775	-0.674195
C29	C	-3.951800	-0.165568	-0.642166
C30	C	-4.248489	-0.169973	-0.903472
C31	C	-4.280917	-0.169409	-0.976839
C32	C	-3.915461	-0.156763	-0.969680
C33	C	-3.883033	-0.157315	-0.896313
C34	C	-4.049557	-0.163926	-0.863214
C35	C	-4.126066	0.059482	-0.211765
C36	C	-4.043033	0.199848	-0.212353
C37	C	-4.169705	-0.162230	-0.088025
C38	C	-4.114419	-0.162816	-0.009942
H39	H	-4.049336	-0.761328	-0.264914
H40	H	-3.861613	-0.506186	-0.099978
H41	H	-3.973699	-0.758908	-0.098925
C42	C	-3.996183	-0.622870	-0.283880
C43	C	-3.872508	-0.712482	-0.297789
C44	C	-3.945537	-0.805427	-0.368194
C45	C	-4.142241	-0.808761	-0.424690
C46	C	-4.265928	-0.719145	-0.410782
C47	C	-4.192899	-0.626200	-0.340377
H48	H	-3.726886	-0.710017	-0.255966
H49	H	-3.853975	-0.871766	-0.378489
H50	H	-4.196302	-0.877564	-0.476808
H51	H	-4.411551	-0.721610	-0.452605
H52	H	-4.284461	-0.559860	-0.330082
H53	H	-4.186298	-0.178685	-0.429193
H54	H	-4.384081	-0.175352	-0.876521
H55	H	-4.245141	-0.177692	-0.562289
H56	H	-3.582123	-0.154721	-0.549307
H57	H	-3.523242	-0.155691	-0.416201
H58	H	-4.442910	-0.174334	-1.009615
H59	H	-3.779894	-0.151385	-0.996635
H60	H	-3.721049	-0.152393	-0.863536
