data_functionalizedCrystal
_audit_creation_method	'MofGen! by Chris Wilmer'
_symmetry_space_group_name_H-M	'P1'
_symmetry_Int_Tables_number	1
_symmetry_cell_setting	triclinic
loop_
_symmetry_equiv_pos_as_xyz
  x,y,z
_cell_length_a	18.101389
_cell_length_b	13.897449
_cell_length_c	13.897448
_cell_angle_alpha	89.981028
_cell_angle_beta	89.983259
_cell_angle_gamma	90.017847
loop_
_atom_site_label
_atom_site_type_symbol
_atom_site_fract_x
_atom_site_fract_y
_atom_site_fract_z
Zn1	Zn	-0.418719	-1.474675	-0.384083
Zn2	Zn	0.081281	-0.974675	0.115917
Zn3	Zn	-0.294881	-1.474577	-0.545366
Zn4	Zn	0.205119	-0.974577	-0.045366
Zn5	Zn	-0.294895	-1.313372	-0.384090
Zn6	Zn	0.205105	-0.813372	0.115910
Zn7	Zn	-0.418684	-1.313346	-0.545341
Zn8	Zn	0.081316	-0.813346	-0.045341
O9	O	-0.356795	-1.393993	-0.464720
O10	O	0.143205	-0.893993	0.035280
O11	O	-0.402301	-1.609644	-0.405485
O12	O	0.097699	-1.109644	0.094515
O13	O	-0.191250	-1.453163	-0.523985
O14	O	0.308750	-0.953163	-0.023985
O15	O	-0.311340	-1.334822	-0.249107
O16	O	0.188660	-0.834822	0.250893
O17	O	-0.311318	-1.609572	-0.523979
O18	O	0.188682	-1.109572	-0.023979
O19	O	-0.402314	-1.453330	-0.249102
O20	O	0.097686	-0.953330	0.250898
O21	O	-0.191260	-1.334727	-0.405497
O22	O	0.308740	-0.834727	0.094503
O23	O	-0.311306	-1.178387	-0.405473
O24	O	0.188694	-0.678387	0.094527
O25	O	-0.522322	-1.334777	-0.523937
O26	O	-0.022322	-0.834777	-0.023937
O27	O	-0.402254	-1.178368	-0.523944
O28	O	0.097746	-0.678368	-0.023944
O29	O	-0.522348	-1.453304	-0.405461
O30	O	-0.022348	-0.953304	0.094539
O31	O	-0.311284	-1.453138	-0.680344
O32	O	0.188716	-0.953138	-0.180344
O33	O	-0.402241	-1.334682	-0.680326
O34	O	0.097759	-0.834682	-0.180326
C35	C	-0.356778	-1.143378	-0.464707
C36	C	0.143222	-0.643378	0.035293
C37	C	-0.356788	-1.036164	-0.464725
C38	C	0.143212	-0.536164	0.035275
C39	C	-0.549957	-1.394048	-0.464696
C40	C	-0.049957	-0.894048	0.035304
C41	C	-0.632271	-1.394072	-0.464685
C42	C	-0.132271	-0.894072	0.035315
C43	C	-0.356773	-1.393922	-0.715334
C44	C	0.143227	-0.893922	-0.215334
C45	C	-0.356789	-1.393980	-0.822548
C46	C	0.143211	-0.893980	-0.322548
C47	C	-0.931362	-1.394128	-0.464505
C48	C	-0.431362	-0.894128	0.035495
C49	C	-0.900021	-1.319297	-0.538809
C50	C	-0.400021	-0.819297	-0.038809
C51	C	-0.814402	-1.319499	-0.539154
C52	C	-0.314402	-0.819499	-0.039154
C53	C	-0.782979	-1.394100	-0.464594
C54	C	-0.282979	-0.894100	0.035406
C55	C	-0.814077	-1.495734	-0.492184
C56	C	-0.314077	-0.995734	0.007816
C57	C	-0.899722	-1.495317	-0.492672
C58	C	-0.399722	-0.995317	0.007328
C59	C	-0.899786	-1.368209	-0.362445
C60	C	-0.399786	-0.868209	0.137555
C61	C	-0.814136	-1.365948	-0.363034
C62	C	-0.314136	-0.865948	0.136966
C63	C	-0.699120	-1.394090	-0.464643
C64	C	-0.199120	-0.894090	0.035357
C65	C	-1.015222	-1.394145	-0.464458
C66	C	-0.515222	-0.894145	0.035542
C67	C	-0.164384	-1.393993	-0.464675
C68	C	0.335616	-0.893993	0.035325
C69	C	-0.082071	-1.394156	-0.464413
C70	C	0.417929	-0.894156	0.035587
C71	C	-0.356812	-1.645586	-0.464734
C72	C	0.143188	-1.145586	0.035266
C73	C	-0.356820	-1.752800	-0.464740
C74	C	0.143180	-1.252800	0.035260
C75	C	-0.356808	-0.839869	-0.464728
C76	C	0.143192	-0.339869	0.035272
C77	C	-0.356795	-0.949102	-0.464724
C78	C	0.143205	-0.449102	0.035276
C79	C	-0.356835	-1.394082	-1.018843
C80	C	0.143165	-0.894082	-0.518843
C81	C	-0.356812	-1.394023	-0.909611
C82	C	0.143188	-0.894023	-0.409611
C83	C	-0.356833	-1.394090	-0.213127
C84	C	0.143167	-0.894090	0.286873
C85	C	-0.356849	-1.394131	-0.105913
C86	C	0.143151	-0.894131	0.394087
H87	H	-0.793376	-1.244134	-0.521889
H88	H	-0.293376	-0.744134	-0.021889
N89	N	-0.926875	-1.276857	-0.330897
N90	N	-0.426875	-0.776857	0.169103
N91	N	-0.994781	-1.263740	-0.321178
N92	N	-0.494781	-0.763740	0.178822
H93	H	-1.013915	-1.199220	-0.298906
H94	H	-0.513915	-0.699220	0.201094
N95	N	-0.925838	-1.224462	-0.517364
N96	N	-0.425838	-0.724462	-0.017364
N97	N	-0.911193	-1.186884	-0.437920
N98	N	-0.411193	-0.686884	0.062080
H99	H	-0.929432	-1.119905	-0.422771
H100	H	-0.429432	-0.619905	0.077229
N101	N	-0.927034	-1.340553	-0.633127
N102	N	-0.427034	-0.840553	-0.133127
N103	N	-0.969267	-1.410574	-0.645860
N104	N	-0.469267	-0.910574	-0.145860
H105	H	-0.988348	-1.425589	-0.712471
H106	H	-0.488348	-0.925589	-0.212471
H107	H	-0.793810	-1.291154	-0.342228
H108	H	-0.293810	-0.791154	0.157772
N109	N	-0.925226	-1.436564	-0.292986
N110	N	-0.425226	-0.936564	0.207014
N111	N	-0.962839	-1.409164	-0.222709
N112	N	-0.462839	-0.909164	0.277291
H113	H	-0.980809	-1.457442	-0.173659
H114	H	-0.480809	-0.957442	0.326341
N115	N	-0.787297	-1.429333	-0.289903
N116	N	-0.287297	-0.929333	0.210097
N117	N	-0.744583	-1.496591	-0.311542
N118	N	-0.244583	-0.996591	0.188458
H119	H	-0.725628	-1.541365	-0.259895
H120	H	-0.225628	-1.041365	0.240105
N121	N	-0.924809	-1.522859	-0.586262
N122	N	-0.424809	-1.022859	-0.086262
N123	N	-0.992479	-1.527525	-0.603546
N124	N	-0.492479	-1.027525	-0.103546
H125	H	-1.010195	-1.546974	-0.669647
H126	H	-0.510195	-1.046974	-0.169647
N127	N	-0.788713	-1.341002	-0.634052
N128	N	-0.288713	-0.841002	-0.134052
N129	N	-0.834037	-1.355914	-0.700232
N130	N	-0.334037	-0.855914	-0.200232
H131	H	-0.815895	-1.371103	-0.767258
H132	H	-0.315895	-0.871103	-0.267258
N133	N	-0.925727	-1.567633	-0.427723
N134	N	-0.425727	-1.067633	0.072277
N135	N	-0.880621	-1.618254	-0.382185
N136	N	-0.380621	-1.118254	0.117815
H137	H	-0.898983	-1.669328	-0.336317
H138	H	-0.398983	-1.169328	0.163683
N139	N	-0.788545	-1.567579	-0.426448
N140	N	-0.288545	-1.067579	0.073552
N141	N	-0.807733	-1.653325	-0.437089
N142	N	-0.307733	-1.153325	0.062911
H143	H	-0.789701	-1.704067	-0.390663
H144	H	-0.289701	-1.204067	0.109337
N145	N	-0.787172	-1.523767	-0.584781
N146	N	-0.287172	-1.023767	-0.084781
N147	N	-0.745103	-1.469069	-0.630613
N148	N	-0.245103	-0.969069	-0.130613
H149	H	-0.726101	-1.488862	-0.696011
H150	H	-0.226101	-0.988862	-0.196011
