data_functionalizedCrystal
_audit_creation_method	'MofGen! by Chris Wilmer'
_symmetry_space_group_name_H-M	'P1'
_symmetry_Int_Tables_number	1
_symmetry_cell_setting	triclinic
loop_
_symmetry_equiv_pos_as_xyz
  x,y,z
_cell_length_a	17.699083
_cell_length_b	15.538191
_cell_length_c	16.776229
_cell_angle_alpha	89.995703
_cell_angle_beta	89.998886
_cell_angle_gamma	65.277554
loop_
_atom_site_label
_atom_site_type_symbol
_atom_site_fract_x
_atom_site_fract_y
_atom_site_fract_z
O1	O	0.971508	0.119201	-0.066172
O2	O	1.471508	0.619201	0.433828
O3	O	0.746892	0.134709	-0.066198
O4	O	1.246892	0.634709	0.433802
O5	O	0.902923	-0.010275	-0.066184
O6	O	1.402923	0.489725	0.433816
O7	O	0.815476	0.264184	-0.066186
O8	O	1.315476	0.764184	0.433814
O9	O	0.902910	-0.010283	0.066393
O10	O	1.402910	0.489717	0.566393
O11	O	0.746879	0.134700	0.066379
O12	O	1.246879	0.634700	0.566379
O13	O	0.971495	0.119192	0.066404
O14	O	1.471495	0.619192	0.566404
Zn15	Zn	0.859185	0.126945	0.087441
Zn16	Zn	1.359185	0.626945	0.587441
Zn17	Zn	0.859202	0.126956	-0.087235
Zn18	Zn	1.359202	0.626956	0.412765
O19	O	0.815463	0.264176	0.066390
O20	O	1.315463	0.764176	0.566390
C21	C	0.718840	0.134149	0.000087
C22	C	1.218840	0.634149	0.500087
C23	C	0.635277	0.132482	0.000077
C24	C	1.135277	0.632482	0.500077
C25	C	0.563403	0.217584	0.000077
C26	C	1.063403	0.717584	0.500077
C27	C	0.484889	0.216012	0.000087
C28	C	0.984889	0.716012	0.500087
C29	C	0.478252	0.129337	0.000092
C30	C	0.978252	0.629337	0.500092
C31	C	0.550134	0.044228	0.000095
C32	C	1.050134	0.544228	0.500095
C33	C	0.628646	0.045801	0.000090
C34	C	1.128646	0.545801	0.500090
C35	C	0.233505	0.037882	0.000115
C36	C	0.733505	0.537882	0.500115
C37	C	0.154985	0.036316	0.000117
C38	C	0.654985	0.536316	0.500117
C39	C	0.089748	0.208094	0.000111
C40	C	0.589748	0.708094	0.500111
C41	C	0.168260	0.209667	0.000107
C42	C	0.668260	0.709667	0.500107
C43	C	0.240135	0.124558	0.000114
C44	C	0.740135	0.624558	0.500114
C45	C	0.325269	0.126264	0.000104
C46	C	0.825269	0.626264	0.500104
C47	C	0.393120	0.127630	0.000096
C48	C	0.893120	0.627630	0.500096
C49	C	0.912066	-0.045395	0.000103
C50	C	1.412066	0.454605	0.500103
C51	C	0.939318	-0.150032	0.000098
C52	C	1.439318	0.349968	0.500098
C53	C	0.668571	-0.437202	0.000084
C54	C	1.168571	0.062798	0.500084
C55	C	0.694198	-0.535527	0.000089
C56	C	1.194198	-0.035527	0.500089
C57	C	0.838344	-0.558300	0.000105
C58	C	1.338344	-0.058300	0.500105
C59	C	0.812729	-0.459975	0.000096
C60	C	1.312729	0.040025	0.500096
C61	C	0.727842	-0.399434	0.000087
C62	C	1.227842	0.100566	0.500087
C63	C	0.872000	-0.422207	0.000099
C64	C	1.372000	0.077793	0.500099
C65	C	0.846387	-0.323891	0.000095
C66	C	1.346387	0.176109	0.500095
C67	C	0.761503	-0.263343	0.000087
C68	C	1.261503	0.236657	0.500087
C69	C	0.702229	-0.301118	0.000082
C70	C	1.202229	0.198882	0.500082
C71	C	0.956887	-0.482750	0.000114
C72	C	1.456887	0.017250	0.500114
C73	C	1.016158	-0.444981	0.000117
C74	C	1.516158	0.055019	0.500117
C75	C	0.990545	-0.346663	0.000107
C76	C	1.490545	0.153337	0.500107
C77	C	0.905661	-0.286116	0.000100
C78	C	1.405661	0.213884	0.500100
C79	C	1.049819	-0.308889	0.000112
C80	C	1.549819	0.191111	0.500112
C81	C	1.024206	-0.210573	0.000107
C82	C	1.524206	0.289427	0.500107
C83	C	0.880048	-0.187800	0.000095
C84	C	1.380048	0.312200	0.500095
C85	C	0.999546	0.119752	0.000117
C86	C	1.499546	0.619752	0.500117
C87	C	1.083109	0.121419	0.000122
C88	C	1.583109	0.621419	0.500122
C89	C	0.806321	0.299297	0.000102
C90	C	1.306321	0.799297	0.500102
C91	C	0.779068	0.403933	0.000101
C92	C	1.279068	0.903933	0.500101
N93	N	0.859179	0.126936	0.206652
N94	N	1.359179	0.626936	0.706652
N95	N	0.859216	0.126957	-0.206446
N96	N	1.359216	0.626957	0.293554
C97	C	0.928278	0.062764	0.248375
C98	C	1.428278	0.562764	0.748375
C99	C	0.928282	0.062763	0.331827
C100	C	1.428282	0.562763	0.831827
C101	C	0.859189	0.126940	0.373555
C102	C	1.359189	0.626940	0.873555
C103	C	0.790084	0.191115	0.331826
C104	C	1.290084	0.691115	0.831826
C105	C	0.790078	0.191111	0.248375
C106	C	1.290078	0.691111	0.748375
C107	C	0.790106	0.191134	0.668373
C108	C	1.290106	0.691134	1.168373
C109	C	0.790118	0.191135	0.751829
C110	C	1.290118	0.691135	1.251829
C111	C	0.928310	0.062786	0.751825
C112	C	1.428310	0.562786	1.251825
C113	C	0.928304	0.062781	0.668375
C114	C	1.428304	0.562781	1.168375
C115	C	0.859198	0.126953	0.626653
C116	C	1.359198	0.626953	1.126653
C117	C	0.859193	0.126952	0.536164
C118	C	1.359193	0.626952	1.036164
C119	C	0.859195	0.126946	0.464042
C120	C	1.359195	0.626946	0.964042
H121	H	0.544725	-0.026345	0.000111
H122	H	1.044725	0.473655	0.500111
H123	H	0.810924	-0.138503	0.000082
H124	H	1.310924	0.361497	0.500082
H125	H	0.984547	0.010508	0.365798
H126	H	1.484547	0.510508	0.865798
C127	C	0.714107	0.261742	0.622485
C128	C	1.214107	0.761742	1.122485
H129	H	0.723993	0.252552	0.566809
H130	H	1.223993	0.752552	1.066809
H131	H	0.705063	0.324631	0.636163
H132	H	1.205063	0.824631	1.136163
H133	H	0.666378	0.251597	0.636164
H134	H	1.166378	0.751597	1.136164
C135	C	0.985066	-0.590896	0.000121
C136	C	1.485066	-0.090896	0.500121
H137	H	1.044109	-0.621543	0.000139
H138	H	1.544109	-0.121543	0.500139
H139	H	0.964250	-0.608937	-0.046113
H140	H	1.464250	-0.108937	0.453887
H141	H	0.964233	-0.608929	0.046357
H142	H	1.464233	-0.108929	0.546357
C143	C	0.733322	-0.155196	0.000083
C144	C	1.233322	0.344804	0.500083
H145	H	0.674278	-0.124552	0.000083
H146	H	1.174278	0.375448	0.500083
H147	H	0.754151	-0.137156	-0.046146
H148	H	1.254151	0.362844	0.453854
H149	H	0.754140	-0.137161	0.046324
H150	H	1.254140	0.362839	0.546324
C151	C	1.004305	-0.007816	0.622479
C152	C	1.504305	0.492184	1.122479
H153	H	1.045456	-0.046042	0.659280
H154	H	1.545456	0.453958	1.159280
H155	H	1.026505	0.026038	0.589914
H156	H	1.526505	0.526038	1.089914
H157	H	0.987839	-0.047015	0.589935
H158	H	1.487839	0.452985	1.089935
H159	H	0.599448	-0.387905	0.000070
H160	H	1.099448	0.112095	0.500070
C161	C	0.570701	0.312926	0.000068
C162	C	1.070701	0.812926	0.500068
H163	H	0.627753	0.301677	0.000058
H164	H	1.127753	0.801677	0.500058
H165	H	0.544432	0.347958	0.046300
H166	H	1.044432	0.847958	0.546300
H167	H	0.544427	0.347958	-0.046170
H168	H	1.044427	0.847958	0.453830
H169	H	0.687169	-0.023498	0.000090
H170	H	1.187169	0.476502	0.500090
C171	C	0.714083	0.261710	0.377724
C172	C	1.214083	0.761710	0.877724
H173	H	0.723986	0.252530	0.433400
H174	H	1.223986	0.752530	0.933400
H175	H	0.666362	0.251554	0.364057
H176	H	1.166362	0.751554	0.864057
H177	H	0.705025	0.324609	0.364037
H178	H	1.205025	0.824609	0.864037
C179	C	0.405827	0.309622	0.000078
C180	C	0.905827	0.809622	0.500078
H181	H	0.358117	0.296275	0.000090
H182	H	0.858117	0.796275	0.500090
H183	H	0.405291	0.345167	-0.046159
H184	H	0.905291	0.845167	0.453841
H185	H	0.405292	0.345173	0.046312
H186	H	0.905292	0.845173	0.546312
H187	H	0.733809	0.243365	0.214405
H188	H	1.233809	0.743365	0.714405
C189	C	1.004323	-0.007813	0.797721
C190	C	1.504323	0.492187	1.297721
H191	H	0.994431	0.001370	0.853398
H192	H	1.494431	0.501370	1.353398
H193	H	1.052040	0.002346	0.784039
H194	H	1.552040	0.502346	1.284039
H195	H	1.013380	-0.070713	0.784049
H196	H	1.513380	0.429287	1.284049
H197	H	1.085273	-0.494287	0.000128
H198	H	1.585273	0.005713	0.500128
H199	H	0.733851	0.243398	0.785803
H200	H	1.233851	0.743398	1.285803
C201	C	0.175557	0.305009	0.000104
C202	C	0.675557	0.805009	0.500104
H203	H	0.121505	0.355469	0.000114
H204	H	0.621505	0.855469	0.500114
H205	H	0.204827	0.309199	-0.046128
H206	H	0.704827	0.809199	0.453872
H207	H	0.204830	0.309184	0.046343
H208	H	0.704830	0.809184	0.546343
H209	H	0.149589	-0.034270	0.000122
H210	H	0.649589	0.465730	0.500122
C211	C	0.312557	-0.055733	0.000117
C212	C	0.812557	0.444267	0.500117
H213	H	0.297356	-0.107576	0.000112
H214	H	0.797356	0.392424	0.500112
H215	H	0.344543	-0.058696	0.046349
H216	H	0.844543	0.441304	0.546349
H217	H	0.344539	-0.058690	-0.046122
H218	H	0.844539	0.441310	0.453878
H219	H	1.072470	-0.179822	0.000111
H220	H	1.572470	0.320178	0.500111
H221	H	0.031216	0.277393	0.000110
H222	H	0.531216	0.777393	0.500110
C223	C	0.608854	-0.234512	0.000067
C224	C	1.108854	0.265488	0.500067
H225	H	0.602093	-0.170551	0.000060
H226	H	1.102093	0.329449	0.500060
H227	H	0.583426	-0.245944	0.046294
H228	H	1.083426	0.254056	0.546294
H229	H	0.583444	-0.245943	-0.046177
H230	H	1.083444	0.254057	0.453823
C231	C	0.628995	-0.577069	0.000074
C232	C	1.128995	-0.077069	0.500074
H233	H	0.574773	-0.526929	0.000060
H234	H	1.074773	-0.026929	0.500060
H235	H	0.635981	-0.614953	0.046305
H236	H	1.135981	-0.114953	0.546305
H237	H	0.635998	-0.614943	-0.046166
H238	H	1.135998	-0.114943	0.453834
C239	C	1.143189	-0.375486	0.000127
C240	C	1.643189	0.124514	0.500127
H241	H	1.174821	-0.338911	0.000133
H242	H	1.674821	0.161089	0.500133
H243	H	1.156185	-0.414319	-0.046099
H244	H	1.656185	0.085681	0.453901
H245	H	1.156168	-0.414305	0.046371
H246	H	1.656168	0.085695	0.546371
C247	C	1.004281	-0.007833	0.202482
C248	C	1.504281	0.492167	0.702482
H249	H	1.045430	-0.046058	0.239287
H250	H	1.545430	0.453942	0.739287
H251	H	1.026482	0.026020	0.169919
H252	H	1.526482	0.526020	0.669919
H253	H	0.987818	-0.047034	0.169938
H254	H	1.487818	0.452966	0.669938
H255	H	0.907460	-0.607605	0.000116
H256	H	1.407460	-0.107605	0.500116
