data_functionalizedCrystal
_audit_creation_method	'MofGen! by Chris Wilmer'
_symmetry_space_group_name_H-M	'P1'
_symmetry_Int_Tables_number	1
_symmetry_cell_setting	triclinic
loop_
_symmetry_equiv_pos_as_xyz
  x,y,z
_cell_length_a	15.297475
_cell_length_b	21.295417
_cell_length_c	15.296720
_cell_angle_alpha	80.360665
_cell_angle_beta	88.382886
_cell_angle_gamma	80.331503
loop_
_atom_site_label
_atom_site_type_symbol
_atom_site_fract_x
_atom_site_fract_y
_atom_site_fract_z
Zn1	Zn	1.253322	-0.489899	0.726527
Zn2	Zn	1.278570	-0.580539	0.580029
Zn3	Zn	1.132206	-0.454537	0.554773
Zn4	Zn	1.106797	-0.574351	0.701159
O5	O	1.192724	-0.524831	0.640622
O6	O	1.379247	-0.519311	0.728280
O7	O	1.280354	-0.551615	0.454106
O8	O	1.148339	-0.371152	0.577603
O9	O	1.397796	-0.585904	0.620649
O10	O	1.237323	-0.397133	0.703790
O11	O	1.172821	-0.459042	0.435550
O12	O	1.006260	-0.453042	0.553004
O13	O	1.105034	-0.575358	0.827097
O14	O	0.987593	-0.541069	0.660554
O15	O	1.212686	-0.513312	0.845734
O16	O	1.255717	-0.667793	0.596050
O17	O	1.129516	-0.663248	0.685044
C18	C	0.965144	-0.492547	0.601286
C19	C	0.867781	-0.478753	0.584479
C20	C	0.554611	-0.623425	0.760748
C21	C	0.646089	-0.636390	0.776537
C22	C	0.701516	-0.596982	0.728524
C23	C	0.665457	-0.544607	0.664719
C24	C	0.573971	-0.531644	0.648924
C25	C	0.720876	-0.505200	0.616700
C26	C	0.684816	-0.452825	0.552895
C27	C	0.593339	-0.439865	0.537103
C28	C	0.537912	-0.479273	0.585116
C29	C	0.812362	-0.518163	0.632495
C30	C	0.831721	-0.426382	0.520671
C31	C	0.740243	-0.413417	0.504882
C32	C	1.192620	-0.688363	0.640558
C33	C	1.192651	-0.758337	0.640574
C34	C	1.238945	-0.804673	0.706314
C35	C	1.238973	-0.870423	0.706341
C36	C	1.192717	-0.889832	0.640614
C37	C	1.146412	-0.843485	0.574868
C38	C	1.146379	-0.777737	0.574848
N39	N	1.199377	-0.984508	0.562817
N40	N	1.199413	-1.046967	0.562840
C41	C	1.192812	-1.087925	0.640671
N42	N	1.186191	-1.064068	0.718484
N43	N	1.186159	-1.001604	0.718462
C44	C	1.192747	-0.961123	0.640629
C45	C	1.239139	-1.205555	0.706446
C46	C	1.239159	-1.271305	0.706473
C47	C	1.146605	-1.244366	0.574993
C48	C	1.146578	-1.178618	0.574973
C49	C	1.192850	-1.159217	0.640699
C50	C	1.421192	-0.557242	0.680112
C51	C	1.518552	-0.571054	0.696940
C52	C	1.153209	-0.547589	0.869086
C53	C	1.136371	-0.557287	0.966444
C54	C	1.192849	-0.360667	0.640709
C55	C	1.192902	-0.290710	0.640746
C56	C	1.232135	-0.502124	0.413055
C57	C	1.249143	-0.492273	0.315727
C58	C	1.313105	-0.455413	1.279696
C59	C	1.328932	-0.446303	1.188224
C60	C	1.280793	-0.474048	1.132775
C61	C	1.216825	-0.510905	1.168805
C62	C	1.201002	-0.520020	1.260287
C63	C	1.168689	-0.538655	1.113366
C64	C	1.104721	-0.575512	1.149396
C65	C	1.088901	-0.584625	1.240869
C66	C	1.137040	-0.556880	1.296318
C67	C	1.184512	-0.529540	1.021884
C68	C	1.072409	-0.594147	1.002475
C69	C	1.056583	-0.603257	1.093947
H70	H	0.675443	-0.679034	0.828485
H71	H	0.509476	-0.655509	0.799828
O72	O	1.025779	-0.621139	0.948545
C73	C	1.084769	-0.663604	0.904244
H74	H	1.153537	-0.649458	0.902030
H75	H	1.060212	-0.660566	0.833745
H76	H	1.088260	-0.715124	0.941132
H77	H	0.463421	-0.468719	0.572266
O78	O	1.283873	-0.915384	0.770319
C79	C	1.249540	-0.905288	0.854277
H80	H	1.215544	-0.852973	0.850237
H81	H	1.305919	-0.915874	0.904528
H82	H	1.199395	-0.938851	0.875956
H83	H	1.276813	-1.189759	0.759966
O84	O	1.283998	-0.785799	0.770054
C85	C	1.349194	-0.750795	0.730006
H86	H	1.366605	-0.764529	0.661974
H87	H	1.411088	-0.762710	0.773388
H88	H	1.322611	-0.696842	0.722272
O89	O	1.391033	-0.410521	1.153081
C90	C	1.394649	-0.408402	1.060448
H91	H	1.368118	-0.451672	1.042965
H92	H	1.466268	-0.409946	1.037012
H93	H	1.352487	-0.361877	1.026462
O94	O	1.284214	-1.316237	0.770377
C95	C	1.325029	-1.285009	0.828390
H96	H	1.334267	-1.235011	0.793028
H97	H	1.392422	-1.314680	0.849712
H98	H	1.281404	-1.280086	0.889339
O99	O	1.101601	-1.263285	0.511261
C100	C	1.036371	-1.298254	0.551314
H101	H	1.055735	-1.319053	0.623050
H102	H	1.030847	-1.339289	0.513616
H103	H	0.969786	-1.264698	0.549662
H104	H	1.004499	-0.633266	1.123296
H105	H	1.236595	-0.499530	0.992557
O106	O	0.847323	-0.568973	0.694594
C107	C	0.809868	-0.560856	0.778067
H108	H	0.783963	-0.507466	0.778280
H109	H	0.862549	-0.579163	0.831717
H110	H	0.752805	-0.589376	0.791702
H111	H	0.563984	-0.397223	0.485140
H112	H	1.293682	-0.466628	1.058295
O113	O	1.101403	-0.862224	0.510977
C114	C	1.060552	-0.807224	0.452933
H115	H	1.051260	-0.763487	0.488265
H116	H	0.993181	-0.815548	0.431612
H117	H	1.104178	-0.798161	0.391986
H118	H	0.876851	-0.394293	0.481574
H119	H	1.124158	-0.564295	1.370803
O120	O	1.359760	-0.428491	1.333679
C121	C	1.332096	-0.444458	1.422146
H122	H	1.262318	-0.456720	1.422940
H123	H	1.332066	-0.401626	1.457975
H124	H	1.379532	-0.487937	1.457060
O125	O	1.026829	-0.620518	1.275777
C126	C	1.049806	-0.683738	1.256709
H127	H	1.094967	-0.683198	1.196113
H128	H	0.987111	-0.702680	1.242629
H129	H	1.085917	-0.716458	1.315964
H130	H	0.710870	-0.370773	0.452931
H131	H	1.108885	-1.140887	0.521438
O132	O	0.790378	-0.609686	0.743858
C133	C	0.824830	-0.672052	0.726453
H134	H	0.769524	-0.702339	0.732215
H135	H	0.879204	-0.695891	0.776500
H136	H	0.853619	-0.668358	0.656572
O137	O	1.101295	-0.732693	0.511091
C138	C	1.036062	-0.691605	0.551118
H139	H	1.018673	-0.717496	0.619162
H140	H	0.974166	-0.678194	0.507737
H141	H	1.062597	-0.645902	0.558822
