data_functionalizedCrystal
_audit_creation_method	'MofGen! by Chris Wilmer'
_symmetry_space_group_name_H-M	'P1'
_symmetry_Int_Tables_number	1
_symmetry_cell_setting	triclinic
loop_
_symmetry_equiv_pos_as_xyz
  x,y,z
_cell_length_a	14.395555
_cell_length_b	14.446369
_cell_length_c	14.446369
_cell_angle_alpha	59.999168
_cell_angle_beta	89.999407
_cell_angle_gamma	59.999123
loop_
_atom_site_label
_atom_site_type_symbol
_atom_site_fract_x
_atom_site_fract_y
_atom_site_fract_z
Zr1	Zr	0.894828	1.013286	-0.121489
O2	O	0.746493	1.206406	-0.269293
O3	O	0.940306	0.820167	-0.076181
O4	O	0.940294	1.013296	-0.269300
O5	O	0.746508	1.013268	0.076163
O6	O	1.093161	1.013303	-0.269303
O7	O	0.746505	1.013277	-0.076174
O8	O	1.093183	0.667830	0.076151
O9	O	0.746486	1.358741	-0.269291
O10	O	1.073778	0.899604	-0.056859
O11	O	0.959697	0.899593	0.056832
O12	O	0.959683	1.126978	-0.170541
O13	O	0.845602	1.126966	-0.056850
Zr14	Zr	1.138638	1.013284	0.121465
Zr15	Zr	1.138633	1.013297	-0.121495
Zr16	Zr	0.894832	1.013273	0.121471
Zr17	Zr	0.894817	1.256243	-0.121486
Zr18	Zr	1.138648	0.770326	0.121462
O19	O	1.093159	1.206403	0.076157
O20	O	1.093153	1.206422	-0.269301
O21	O	0.746499	1.206387	0.076165
O22	O	1.286972	0.820164	0.269269
O23	O	1.286966	0.820182	-0.076189
O24	O	0.940312	0.820148	0.269277
O25	O	1.286958	1.013301	-0.076187
O26	O	1.093171	1.013273	0.269276
O27	O	0.940304	1.013267	0.269279
O28	O	1.286960	1.013293	0.076150
O29	O	0.940279	1.358750	-0.269296
O30	O	1.093186	0.667819	0.269272
O31	O	1.286979	0.667828	0.269267
O32	O	1.286975	0.667839	0.076146
O33	O	0.746490	1.358731	-0.076170
O34	O	0.940283	1.358739	-0.076175
O35	O	1.073782	0.899592	0.170516
O36	O	1.187863	0.899603	0.056826
O37	O	1.073768	1.126977	-0.056856
O38	O	0.959687	1.126965	0.056834
C39	C	1.016746	0.709382	-0.000016
C40	C	1.016750	0.606240	-0.000017
C41	C	1.088334	0.459932	-0.072072
C42	C	1.088740	0.566856	-0.071764
C43	C	1.069240	0.479379	0.123513
C44	C	1.069762	0.372000	0.123123
C45	C	0.892576	0.546976	-0.050478
C46	C	0.892775	0.655450	-0.052983
C47	C	0.711769	1.013271	-0.000005
C48	C	0.608267	1.013266	-0.000003
C49	C	0.609888	0.889292	0.061980
C50	C	0.516870	0.951263	0.106910
C51	C	0.516856	0.951301	-0.044899
C52	C	0.516613	1.075238	0.044989
C53	C	0.516613	1.075257	-0.106879
C54	C	0.423578	1.137319	-0.061976
C55	C	1.321696	1.013298	-0.000019
C56	C	1.425198	1.013303	-0.000022
C57	C	1.016727	1.013301	-0.303918
C58	C	1.016725	1.013307	-0.407061
C59	C	1.016719	1.317187	-0.000009
C60	C	1.016715	1.420329	-0.000007
C61	C	0.944418	1.156696	-0.625427
C62	C	0.944723	1.156793	-0.518195
C63	C	1.140692	0.942081	-0.410388
C64	C	1.140303	0.942991	-0.518157
C65	C	0.966092	0.940030	-0.516790
C66	C	0.963576	0.942733	-0.410820
C67	C	1.016738	1.013268	0.303894
C68	C	1.016740	1.013262	0.407037
C69	C	1.321709	0.709396	-0.000023
C70	C	1.425216	0.606259	-0.000026
C71	C	1.016751	0.709366	0.303890
C72	C	1.016758	0.606218	0.407032
C73	C	1.321715	0.709379	0.303883
C74	C	1.425223	0.606237	0.407023
C75	C	0.711750	1.317190	-0.303907
C76	C	0.608242	1.420333	-0.407047
C77	C	0.711756	1.317174	-0.000001
C78	C	0.608250	1.420311	0.000002
C79	C	1.016714	1.317204	-0.303915
C80	C	1.016708	1.420351	-0.407056
C81	C	1.644352	0.459952	0.071295
C82	C	1.536742	0.566870	0.071709
C83	C	1.428562	0.479398	0.052271
C84	C	1.536711	0.372026	0.052781
C85	C	1.535322	0.547014	-0.123778
C86	C	1.428979	0.655481	-0.123569
C87	C	0.944466	0.459893	0.482019
C88	C	0.944764	0.566825	0.374685
C89	C	1.140727	0.479363	0.481585
C90	C	1.140345	0.371977	0.588449
C91	C	0.966126	0.546941	0.590041
C92	C	0.963604	0.655422	0.481365
C93	C	1.500481	0.459886	0.625388
C94	C	1.392766	0.566831	0.518160
C95	C	1.500032	0.479391	0.410330
C96	C	1.607275	0.371992	0.518096
C97	C	1.608887	0.546936	0.516759
C98	C	1.499825	0.655430	0.410794
H99	H	1.053303	0.497178	-0.163269
H100	H	1.606996	0.281240	0.568427
C101	C	1.540063	0.516250	0.194984
H102	H	1.607255	0.430182	0.245004
H103	H	1.539655	0.572354	0.211492
H104	H	1.475329	0.514960	0.204514
C105	C	0.517927	1.145986	-0.228940
H106	H	0.517474	1.219247	-0.247341
H107	H	0.584537	1.087455	-0.234799
H108	H	0.452566	1.174908	-0.279990
C109	C	0.821408	1.232297	-0.520375
H110	H	0.770673	1.263192	-0.586959
H111	H	0.812433	1.175795	-0.455461
H112	H	0.805031	1.304514	-0.520080
H113	H	0.979276	0.370228	0.480981
C114	C	1.714917	0.513460	0.479674
H115	H	1.712648	0.590373	0.433671
H116	H	1.781438	0.449999	0.544813
H117	H	1.716066	0.479367	0.437642
C118	C	1.002181	0.509409	0.199207
H119	H	1.035351	0.431367	0.273499
H120	H	1.004402	0.572468	0.202274
H121	H	0.925414	0.542902	0.168551
H122	H	1.538357	0.656222	0.036634
H123	H	0.852898	1.212985	-0.679376
C124	C	1.195117	0.249381	0.588076
H125	H	1.217386	0.265549	0.522742
H126	H	1.260055	0.177611	0.654253
H127	H	1.141683	0.229369	0.586977
H128	H	0.979222	1.212717	-0.680407
H129	H	0.343944	1.242236	-0.114389
C130	C	1.217094	0.331494	0.694608
H131	H	1.248376	0.380682	0.672294
H132	H	1.173366	0.347970	0.740587
H133	H	1.276909	0.240847	0.736425
C134	C	1.216678	0.509410	0.518367
H135	H	1.173355	0.599805	0.488506
H136	H	1.244849	0.458706	0.598774
H137	H	1.278679	0.488278	0.490488
C138	C	0.844638	1.002036	-0.584352
H139	H	0.823681	1.073175	-0.659656
H140	H	0.842145	0.938344	-0.585925
H141	H	0.793149	1.032878	-0.549166
H142	H	1.179364	0.370274	-0.037371
C143	C	0.814624	0.698819	0.010565
H144	H	0.856772	0.687424	0.070503
H145	H	0.753191	0.788448	-0.040437
H146	H	0.785715	0.647308	0.040864
C147	C	0.515625	0.880500	-0.096191
H148	H	0.581012	0.792420	-0.052053
H149	H	0.449036	0.881711	-0.096471
H150	H	0.516095	0.923675	-0.171686
H151	H	1.587239	0.281268	0.143806
C152	C	1.027364	0.698808	0.515860
H153	H	1.087509	0.687422	0.485250
H154	H	0.976172	0.788436	0.487445
H155	H	1.057774	0.647300	0.596179
H156	H	1.698494	0.497197	0.036389
C157	C	1.718886	0.338826	0.193824
H158	H	1.730233	0.264232	0.201673
H159	H	1.790361	0.324894	0.210677
H160	H	1.682030	0.352618	0.244716
C161	C	0.844674	0.600398	0.595603
H162	H	0.823724	0.545972	0.599773
H163	H	0.842182	0.601308	0.660870
H164	H	0.793181	0.686892	0.529575
H165	H	0.872275	0.745916	0.429946
C166	C	1.534441	0.698828	0.303871
H167	H	1.579402	0.728044	0.308455
H168	H	1.577194	0.627048	0.298498
H169	H	1.468079	0.768182	0.238692
C170	C	0.992191	1.232762	-0.521495
H171	H	1.011373	1.263673	-0.588448
H172	H	0.936290	1.304968	-0.521090
H173	H	1.058218	1.176494	-0.456986
H174	H	0.852949	0.497128	0.479686
C175	C	1.195891	0.427267	0.411874
H176	H	1.143568	0.482625	0.337352
H177	H	1.262381	0.425981	0.408273
H178	H	1.215735	0.341055	0.446985
H179	H	1.180849	0.993617	-0.568503
H180	H	1.197115	0.837756	-0.491506
C181	C	1.216651	0.799564	-0.304657
H182	H	1.173333	0.782195	-0.257430
H183	H	1.244822	0.741789	-0.327289
H184	H	1.278652	0.786793	-0.264009
H185	H	0.872247	0.994666	-0.411337
H186	H	1.349543	0.687606	-0.181216
H187	H	1.018549	0.522148	0.668258
H188	H	1.448245	0.745885	0.411364
H189	H	1.181524	0.991554	-0.408248
H190	H	1.010777	0.838050	-0.331665
C191	C	1.500589	0.331532	-0.012884
H192	H	1.419945	0.380708	-0.039746
H193	H	1.527771	0.348011	-0.075346
H194	H	1.531753	0.240883	0.035955
C195	C	1.429669	0.777732	-0.176361
H196	H	1.431956	0.807035	-0.251086
H197	H	1.362782	0.845071	-0.178904
H198	H	1.494712	0.756501	-0.131663
H199	H	1.159724	0.440823	0.164202
C200	C	1.319189	0.687517	0.520363
H201	H	1.355009	0.671473	0.586953
H202	H	1.310740	0.761385	0.455455
H203	H	1.246422	0.704126	0.520068
C204	C	1.322458	0.509441	-0.014553
H205	H	1.275059	0.599838	-0.075083
H206	H	1.345169	0.458745	-0.044263
H207	H	1.281671	0.488297	0.034462
C208	C	1.425680	0.427291	0.174080
H209	H	1.422444	0.482647	0.193248
H210	H	1.360483	0.426001	0.178964
H211	H	1.492355	0.341080	0.225181
C212	C	0.833342	0.600444	-0.171505
H213	H	0.883774	0.546022	-0.192387
H214	H	0.766932	0.601354	-0.173986
H215	H	0.812803	0.686938	-0.222814
C216	C	1.498109	0.513535	-0.195956
H217	H	1.528988	0.422845	-0.150986
H218	H	1.417436	0.563204	-0.222800
H219	H	1.524971	0.533874	-0.258597
H220	H	1.018519	0.834366	-0.489344
H221	H	1.498148	0.497108	0.679357
H222	H	1.585511	0.586591	-0.167470
C223	C	0.821446	0.687518	0.301356
H224	H	0.770713	0.671485	0.337045
H225	H	0.812455	0.761387	0.292933
H226	H	0.805080	0.704120	0.228848
C227	C	1.041228	0.687546	-0.194647
H228	H	1.021505	0.671518	-0.245206
H229	H	0.975552	0.761426	-0.203617
H230	H	1.097345	0.704128	-0.210939
C231	C	1.499057	0.338769	0.699636
H232	H	1.566029	0.264177	0.710930
H233	H	1.496131	0.324819	0.770867
H234	H	1.434134	0.352585	0.662900
C235	C	1.430069	0.427305	0.407450
H236	H	1.355286	0.482661	0.404238
H237	H	1.426449	0.426028	0.342477
H238	H	1.465303	0.341089	0.473885
C239	C	0.820143	0.513492	0.020081
H240	H	0.745229	0.590406	-0.010819
H241	H	0.817299	0.450044	0.018388
H242	H	0.853216	0.479380	0.096212
C243	C	1.193164	0.249403	0.177695
H244	H	1.242506	0.265566	0.199889
H245	H	1.198778	0.177631	0.242403
H246	H	1.214348	0.229397	0.124445
H247	H	0.979900	0.529363	0.320895
H248	H	1.338780	0.529378	0.520606
C249	C	1.004028	0.331347	0.199761
H250	H	0.977115	0.380479	0.230987
H251	H	0.941326	0.347732	0.156323
H252	H	1.053160	0.240696	0.259321
H253	H	1.686132	0.342035	0.491439
H254	H	1.527362	0.501646	0.332065
H255	H	1.613030	0.586489	0.566789
H256	H	0.853563	0.745944	-0.143990
C257	C	0.717655	0.747691	0.132884
H258	H	0.718445	0.703844	0.208815
H259	H	0.717867	0.703206	0.101751
H260	H	0.783149	0.748674	0.131847
H261	H	1.180315	0.529393	-0.036757
H262	H	0.515948	0.898864	0.197287
H263	H	0.517438	1.127593	0.083056
