data_functionalizedCrystal
_audit_creation_method	'MofGen! by Chris Wilmer'
_symmetry_space_group_name_H-M	'P1'
_symmetry_Int_Tables_number	1
_symmetry_cell_setting	triclinic
loop_
_symmetry_equiv_pos_as_xyz
  x,y,z
_cell_length_a	18.215407
_cell_length_b	21.295417
_cell_length_c	18.215399
_cell_angle_alpha	89.967848
_cell_angle_beta	89.980167
_cell_angle_gamma	90.030955
loop_
_atom_site_label
_atom_site_type_symbol
_atom_site_fract_x
_atom_site_fract_y
_atom_site_fract_z
Zn1	Zn	1.125043	-0.250608	-0.416094
Zn2	Zn	1.124940	-0.355879	-0.293019
Zn3	Zn	1.001976	-0.250629	-0.293042
Zn4	Zn	1.001930	-0.355844	-0.416044
O5	O	1.063472	-0.303240	-0.354550
O6	O	1.228014	-0.264579	-0.399780
O7	O	1.108604	-0.341941	-0.190038
O8	O	1.018364	-0.162537	-0.309396
O9	O	1.227938	-0.341921	-0.309357
O10	O	1.108781	-0.162521	-0.399802
O11	O	1.018263	-0.264614	-0.190054
O12	O	0.898985	-0.264580	-0.309347
O13	O	1.018285	-0.341861	-0.519035
O14	O	0.898951	-0.341881	-0.399716
O15	O	1.108736	-0.264545	-0.519072
O16	O	1.108559	-0.443964	-0.309308
O17	O	1.018184	-0.443938	-0.399694
C18	C	0.872266	-0.303229	-0.354529
C19	C	0.790467	-0.303240	-0.354537
C20	C	1.063376	-0.466792	-0.354509
C21	C	1.063402	-0.536760	-0.354516
C22	C	0.602275	-0.343554	-0.401533
C23	C	0.525416	-0.343556	-0.401542
C24	C	0.525422	-0.262938	-0.307582
C25	C	0.602279	-0.262933	-0.307577
C26	C	0.640703	-0.303245	-0.354552
C27	C	0.486987	-0.303251	-0.354566
C28	C	0.403654	-0.303253	-0.354575
C29	C	0.724042	-0.303242	-0.354543
C30	C	1.110502	-0.569619	-0.307500
C31	C	1.110536	-0.635361	-0.307517
C32	C	1.063457	-0.668242	-0.354542
C33	C	1.016354	-0.635375	-0.401566
C34	C	1.016326	-0.569634	-0.401554
N35	N	0.999079	-0.771508	-0.360145
N36	N	0.999107	-0.833960	-0.360153
C37	C	1.063540	-0.866317	-0.354584
N38	N	1.127944	-0.833863	-0.348993
N39	N	1.127915	-0.771406	-0.348981
C40	C	1.063483	-0.739528	-0.354561
C41	C	1.110681	-0.970462	-0.307584
C42	C	1.110717	-1.036205	-0.307605
C43	C	1.016528	-1.036218	-0.401651
C44	C	1.016499	-0.970475	-0.401633
C45	C	1.063575	-0.937601	-0.354595
C46	C	1.255425	-0.303251	-0.354571
C47	C	1.337224	-0.303256	-0.354581
C48	C	1.063517	-0.303197	-0.546503
C49	C	1.063536	-0.303178	-0.628302
C50	C	1.063589	-0.139050	-0.354607
C51	C	1.063639	-0.069082	-0.354631
C52	C	1.110651	-0.262882	-0.816516
C53	C	1.110660	-0.262863	-0.893375
C54	C	1.016473	-0.343377	-0.893325
C55	C	1.016461	-0.343392	-0.816468
C56	C	1.063554	-0.303145	-0.778065
C57	C	1.063575	-0.303112	-0.931781
C58	C	1.063584	-0.303093	-1.015115
C59	C	1.063544	-0.303164	-0.694726
C60	C	1.063470	-0.303238	-0.163344
C61	C	1.063593	-0.303079	-0.081545
H62	H	0.494130	-0.376379	-0.439801
C63	C	0.965140	-0.533874	-0.452480
C64	C	0.917990	-0.496185	-0.410759
C65	C	0.870832	-0.463227	-0.457646
H66	H	0.937037	-0.562798	-0.480508
H67	H	0.993242	-0.508149	-0.484553
H68	H	0.889890	-0.521909	-0.378699
H69	H	0.946072	-0.467250	-0.382732
H70	H	0.898935	-0.437502	-0.489719
H71	H	0.842734	-0.492155	-0.485672
H72	H	0.838840	-0.437647	-0.429346
H73	H	0.978143	-0.943720	-0.439914
C74	C	1.161834	-0.219250	-0.935218
C75	C	1.208972	-0.254882	-0.979357
C76	C	1.256116	-0.214723	-1.017921
H77	H	1.189947	-0.195268	-0.901424
H78	H	1.133722	-0.191825	-0.965244
H79	H	1.237081	-0.282295	-0.949333
H80	H	1.180879	-0.278862	-1.013165
H81	H	1.228004	-0.187298	-1.047947
H82	H	1.284224	-0.190743	-0.984121
H83	H	1.288100	-0.238892	-1.047878
H84	H	0.978133	-0.376146	-0.924602
H85	H	0.978199	-1.062989	-0.439942
C86	C	0.643969	-0.219244	-0.256442
C87	C	0.625254	-0.232885	-0.183598
C88	C	0.663651	-0.192658	-0.136476
H89	H	0.631433	-0.176938	-0.267204
H90	H	0.695252	-0.225020	-0.263119
H91	H	0.573982	-0.227104	-0.176923
H92	H	0.637791	-0.275183	-0.172812
H93	H	0.714935	-0.198433	-0.143153
H94	H	0.651113	-0.150354	-0.147245
H95	H	0.650964	-0.201911	-0.087046
H96	H	0.978104	-0.376179	-0.785160
C97	C	1.161700	-0.534041	-0.256413
C98	C	1.202971	-0.576895	-0.215257
C99	C	1.250152	-0.544142	-0.168198
H100	H	1.133642	-0.508432	-0.224251
H101	H	1.193779	-0.508370	-0.284577
H102	H	1.170897	-0.602556	-0.187096
H103	H	1.231044	-0.602505	-0.247400
H104	H	1.282231	-0.518471	-0.196361
H105	H	1.222088	-0.518535	-0.136041
H106	H	1.278165	-0.573213	-0.140273
C107	C	0.965358	-0.671152	-0.452664
C108	C	1.007016	-0.708847	-0.499864
C109	C	0.960065	-0.741818	-0.546943
H110	H	0.937284	-0.642237	-0.480735
H111	H	0.933330	-0.696875	-0.424507
H112	H	1.039031	-0.683126	-0.528018
H113	H	1.035088	-0.737774	-0.471814
H114	H	0.928037	-0.767541	-0.518786
H115	H	0.931993	-0.712898	-0.575009
H116	H	0.988322	-0.767402	-0.578969
C117	C	1.161543	-0.671120	-0.256405
C118	C	1.119895	-0.708923	-0.209224
C119	C	1.166852	-0.741872	-0.162127
H120	H	1.189584	-0.642191	-0.228321
H121	H	1.193602	-0.696767	-0.284550
H122	H	1.087849	-0.683278	-0.181081
H123	H	1.091856	-0.737863	-0.237288
H124	H	1.198910	-0.767520	-0.190272
H125	H	1.194889	-0.712939	-0.134048
H126	H	1.138600	-0.767530	-0.130114
H127	H	1.149015	-0.943694	-0.269285
H128	H	1.148995	-0.230109	-0.785251
H129	H	0.494127	-0.230118	-0.269336
C130	C	1.161886	-1.071770	-0.256476
C131	C	1.203089	-1.028906	-0.215269
C132	C	1.250227	-1.061646	-0.168154
H133	H	1.194016	-1.097374	-0.284578
H134	H	1.133778	-1.097446	-0.224354
H135	H	1.231196	-1.003241	-0.247387
H136	H	1.170979	-1.003301	-0.187152
H137	H	1.222119	-1.087322	-0.136032
H138	H	1.282352	-1.087249	-0.196262
H139	H	1.278184	-1.032568	-0.140184
H140	H	0.633557	-0.376377	-0.439785
