data_functionalizedCrystal
_audit_creation_method	'MofGen! by Chris Wilmer'
_symmetry_space_group_name_H-M	'P1'
_symmetry_Int_Tables_number	1
_symmetry_cell_setting	triclinic
loop_
_symmetry_equiv_pos_as_xyz
  x,y,z
_cell_length_a	16.959455
_cell_length_b	18.101397
_cell_length_c	16.959447
_cell_angle_alpha	89.966326
_cell_angle_beta	89.979626
_cell_angle_gamma	90.017485
loop_
_atom_site_label
_atom_site_type_symbol
_atom_site_fract_x
_atom_site_fract_y
_atom_site_fract_z
Zn1	Zn	1.208382	-0.294874	-0.447018
Zn2	Zn	1.708382	0.205126	0.052982
Zn3	Zn	1.208303	-0.418727	-0.314832
Zn4	Zn	1.708303	0.081273	0.185168
Zn5	Zn	1.076210	-0.294897	-0.314841
Zn6	Zn	1.576210	0.205103	0.185159
Zn7	Zn	1.076174	-0.418672	-0.446956
Zn8	Zn	1.576174	0.081328	0.053044
O9	O	1.142267	-0.356792	-0.380912
O10	O	1.642267	0.143208	0.119088
O11	O	1.318982	-0.311316	-0.429505
O12	O	1.818982	0.188684	0.070495
O13	O	1.190763	-0.402333	-0.204222
O14	O	1.690763	0.097667	0.295778
O15	O	1.093791	-0.191261	-0.332405
O16	O	1.593791	0.308739	0.167595
O17	O	1.318925	-0.402311	-0.332388
O18	O	1.818925	0.097689	0.167612
O19	O	1.190897	-0.191244	-0.429514
O20	O	1.690897	0.308756	0.070486
O21	O	1.093715	-0.311356	-0.204229
O22	O	1.593715	0.188644	0.295771
O23	O	0.965594	-0.311303	-0.332345
O24	O	1.465594	0.188697	0.167655
O25	O	1.093729	-0.402217	-0.557575
O26	O	1.593729	0.097783	-0.057575
O27	O	0.965568	-0.402239	-0.429409
O28	O	1.465568	0.097761	0.070591
O29	O	1.190862	-0.311263	-0.557621
O30	O	1.690862	0.188737	-0.057621
O31	O	1.190728	-0.522352	-0.332328
O32	O	1.690728	-0.022352	0.167672
O33	O	1.093653	-0.522312	-0.429400
O34	O	1.593653	-0.022312	0.070600
C35	C	0.936901	-0.356768	-0.380872
C36	C	1.436901	0.143232	0.119128
C37	C	0.849044	-0.356776	-0.380874
C38	C	1.349044	0.143224	0.119126
C39	C	0.477528	-0.404126	-0.330317
C40	C	0.977528	0.095874	0.169683
C41	C	0.477609	-0.309520	-0.431602
C42	C	0.977609	0.190480	0.068398
C43	C	0.560155	-0.309508	-0.431583
C44	C	1.060155	0.190492	0.068417
C45	C	0.601391	-0.356806	-0.380931
C46	C	1.101391	0.143194	0.119069
C47	C	0.560082	-0.404117	-0.330298
C48	C	1.060082	0.095883	0.169702
C49	C	0.601471	-0.262203	-0.482221
C50	C	1.101471	0.237797	0.017779
C51	C	0.684022	-0.262190	-0.482204
C52	C	1.184022	0.237810	0.017796
C53	C	0.725260	-0.309485	-0.431548
C54	C	1.225260	0.190515	0.068452
C55	C	0.683945	-0.356797	-0.380912
C56	C	1.183945	0.143203	0.119088
C57	C	0.725181	-0.404096	-0.330260
C58	C	1.225181	0.095904	0.169740
C59	C	0.683868	-0.451404	-0.279620
C60	C	1.183868	0.048596	0.220380
C61	C	0.601319	-0.451412	-0.279642
C62	C	1.101319	0.048588	0.220358
C63	C	0.807808	-0.309477	-0.431526
C64	C	1.307808	0.190523	0.068474
C65	C	0.807735	-0.404086	-0.330241
C66	C	1.307735	0.095914	0.169759
C67	C	1.142200	-0.549203	-0.380873
C68	C	1.642200	-0.049203	0.119127
C69	C	1.142243	-0.631517	-0.380884
C70	C	1.642243	-0.131517	0.119116
C71	C	1.142344	-0.930608	-0.380956
C72	C	1.642344	-0.430608	0.119044
C73	C	1.203250	-0.899277	-0.319717
C74	C	1.703250	-0.399277	0.180283
C75	C	1.203461	-0.813659	-0.319876
C76	C	1.703461	-0.313659	0.180124
C77	C	1.142294	-0.782225	-0.380919
C78	C	1.642294	-0.282225	0.119081
C79	C	1.164869	-0.813230	-0.464238
C80	C	1.664869	-0.313230	0.035762
C81	C	1.165340	-0.898875	-0.463904
C82	C	1.665340	-0.398875	0.036096
C83	C	1.058700	-0.899114	-0.359596
C84	C	1.558700	-0.399114	0.140404
C85	C	1.059113	-0.813465	-0.357737
C86	C	1.559113	-0.313465	0.142263
C87	C	1.142264	-0.698366	-0.380904
C88	C	1.642264	-0.198366	0.119096
C89	C	1.142375	-1.014467	-0.380977
C90	C	1.642375	-0.514467	0.119023
C91	C	1.348435	-0.356817	-0.380952
C92	C	1.848435	0.143183	0.119048
C93	C	1.436292	-0.356828	-0.380969
C94	C	1.936292	0.143172	0.119031
C95	C	1.142300	-0.356731	-0.587080
C96	C	1.642300	0.143269	-0.087080
C97	C	1.142314	-0.356705	-0.674937
C98	C	1.642314	0.143295	-0.174937
C99	C	1.142357	-0.163630	-0.380968
C100	C	1.642357	0.336370	0.119032
C101	C	1.142395	-0.081316	-0.380991
C102	C	1.642395	0.418684	0.119009
C103	C	1.091836	-0.403982	-1.046391
C104	C	1.591836	0.096018	-0.546391
C105	C	1.192981	-0.309271	-1.046434
C106	C	1.692981	0.190729	-0.546434
C107	C	1.192960	-0.309287	-0.963888
C108	C	1.692960	0.190713	-0.463888
C109	C	1.142377	-0.356652	-0.922590
C110	C	1.642377	0.143348	-0.422590
C111	C	1.091815	-0.404001	-0.963838
C112	C	1.591815	0.095999	-0.463838
C113	C	1.243527	-0.261944	-0.922634
C114	C	1.743527	0.238056	-0.422634
C115	C	1.243508	-0.261959	-0.840083
C116	C	1.743508	0.238041	-0.340083
C117	C	1.192921	-0.309320	-0.798783
C118	C	1.692921	0.190680	-0.298783
C119	C	1.142356	-0.356671	-0.840036
C120	C	1.642356	0.143329	-0.340036
C121	C	1.091773	-0.404035	-0.798738
C122	C	1.591773	0.095965	-0.298738
C123	C	1.041204	-0.451382	-0.839990
C124	C	1.541204	0.048618	-0.339990
C125	C	1.041228	-0.451362	-0.922538
C126	C	1.541228	0.048638	-0.422538
C127	C	1.192897	-0.309340	-0.716235
C128	C	1.692897	0.190660	-0.216235
C129	C	1.091752	-0.404054	-0.716185
C130	C	1.591752	0.095946	-0.216185
C131	C	1.142280	-0.356800	-0.175546
C132	C	1.642280	0.143200	0.324454
C133	C	1.142419	-0.356617	-0.087689
C134	C	1.642419	0.143383	0.412311
H135	H	0.717453	-0.489919	-0.238383
H136	H	1.217453	0.010081	0.261617
H137	H	0.567675	-0.489928	-0.238413
H138	H	1.067675	0.010072	0.261587
H139	H	1.050662	-0.442529	-1.079982
H140	H	1.550662	0.057471	-0.579982
H141	H	1.284713	-0.223387	-0.956264
H142	H	1.784713	0.276613	-0.456264
H143	H	1.189338	-0.792700	-0.258097
H144	H	1.689338	-0.292700	0.241903
H145	H	0.443887	-0.442642	-0.289085
H146	H	0.943887	0.057358	0.210915
H147	H	1.042090	-0.793208	-0.296421
H148	H	1.542090	-0.293208	0.203579
H149	H	1.284684	-0.223405	-0.806503
H150	H	1.784684	0.276595	-0.306503
H151	H	0.444030	-0.271016	-0.472845
H152	H	0.944030	0.228984	0.027155
H153	H	1.189298	-0.919923	-0.257753
H154	H	1.689298	-0.419923	0.242247
H155	H	0.567891	-0.223700	-0.523464
H156	H	1.067891	0.276300	-0.023464
H157	H	1.234168	-0.270713	-1.080063
H158	H	1.734168	0.229287	-0.580063
H159	H	1.225325	-0.791724	-0.482636
H160	H	1.725325	-0.291724	0.017364
H161	H	1.121864	-0.792866	-0.511093
H162	H	1.621864	-0.292866	-0.011093
H163	H	1.038161	-0.920776	-0.299894
H164	H	1.538161	-0.420776	0.200106
H165	H	0.717653	-0.223668	-0.523438
H166	H	1.217653	0.276332	-0.023438
H167	H	1.011292	-0.792075	-0.399073
H168	H	1.511292	-0.292075	0.100927
H169	H	0.841442	-0.270961	-0.472758
H170	H	1.341442	0.229039	0.027242
H171	H	1.264871	-0.920748	-0.333688
H172	H	1.764871	-0.420748	0.166312
H173	H	1.265421	-0.793118	-0.334009
H174	H	1.765421	-0.293118	0.165991
H175	H	1.226480	-0.918796	-0.481997
H176	H	1.726480	-0.418796	0.018003
H177	H	1.234072	-0.270793	-0.682651
H178	H	1.734072	0.229207	-0.182651
H179	H	0.841303	-0.442600	-0.288990
H180	H	1.341303	0.057400	0.211010
H181	H	1.013320	-0.919375	-0.404199
H182	H	1.513320	-0.419375	0.095801
H183	H	1.122922	-0.919597	-0.511104
H184	H	1.622922	-0.419597	-0.011104
H185	H	1.050554	-0.442618	-0.682566
H186	H	1.550554	0.057382	-0.182566
H187	H	1.000023	-0.489950	-0.806354
H188	H	1.500023	0.010050	-0.306354
H189	H	1.000059	-0.489912	-0.956133
H190	H	1.500059	0.010088	-0.456133
