data_functionalizedCrystal
_audit_creation_method	'MofGen! by Chris Wilmer'
_symmetry_space_group_name_H-M	'P1'
_symmetry_Int_Tables_number	1
_symmetry_cell_setting	triclinic
loop_
_symmetry_equiv_pos_as_xyz
  x,y,z
_cell_length_a	18.050591
_cell_length_b	21.395363
_cell_length_c	21.395355
_cell_angle_alpha	90.007968
_cell_angle_beta	90.030556
_cell_angle_gamma	89.996470
loop_
_atom_site_label
_atom_site_type_symbol
_atom_site_fract_x
_atom_site_fract_y
_atom_site_fract_z
Zn1	Zn	1.135506	-0.249578	0.354408
Zn2	Zn	1.385506	0.000422	0.604408
Zn3	Zn	1.635506	0.250422	0.854408
Zn4	Zn	1.885506	0.500422	1.104408
Zn5	Zn	1.135456	-0.354338	0.249650
Zn6	Zn	1.385456	-0.104338	0.499650
Zn7	Zn	1.635456	0.145662	0.749650
Zn8	Zn	1.885456	0.395662	0.999650
Zn9	Zn	1.011305	-0.249571	0.249634
Zn10	Zn	1.261305	0.000429	0.499634
Zn11	Zn	1.511305	0.250429	0.749634
Zn12	Zn	1.761305	0.500429	0.999634
Zn13	Zn	1.011334	-0.354314	0.354379
Zn14	Zn	1.261334	-0.104314	0.604379
Zn15	Zn	1.511334	0.145686	0.854379
Zn16	Zn	1.761334	0.395686	1.104379
O17	O	1.073400	-0.301950	0.302017
O18	O	1.323400	-0.051950	0.552017
O19	O	1.573400	0.198050	0.802017
O20	O	1.823400	0.448050	1.052017
O21	O	1.239424	-0.263487	0.340530
O22	O	1.489424	-0.013487	0.590530
O23	O	1.739424	0.236513	0.840530
O24	O	1.989424	0.486513	1.090530
O25	O	1.118954	-0.340447	0.161970
O26	O	1.368954	-0.090447	0.411970
O27	O	1.618954	0.159553	0.661970
O28	O	1.868954	0.409553	0.911970
O29	O	1.027789	-0.161894	0.263537
O30	O	1.277789	0.088106	0.513537
O31	O	1.527789	0.338106	0.763537
O32	O	1.777789	0.588106	1.013537
O33	O	1.239388	-0.340454	0.263565
O34	O	1.489388	-0.090454	0.513565
O35	O	1.739388	0.159546	0.763565
O36	O	1.989388	0.409546	1.013565
O37	O	1.119040	-0.161899	0.340515
O38	O	1.369040	0.088101	0.590515
O39	O	1.619040	0.338101	0.840515
O40	O	1.869040	0.588101	1.090515
O41	O	1.027741	-0.263475	0.161958
O42	O	1.277741	-0.013475	0.411958
O43	O	1.527741	0.236525	0.661958
O44	O	1.777741	0.486525	0.911958
O45	O	0.907384	-0.263452	0.263509
O46	O	1.157384	-0.013452	0.513509
O47	O	1.407384	0.236548	0.763509
O48	O	1.657384	0.486548	1.013509
O49	O	1.027839	-0.340414	0.442061
O50	O	1.277839	-0.090414	0.692061
O51	O	1.527839	0.159586	0.942061
O52	O	1.777839	0.409586	1.192061
O53	O	0.907405	-0.340407	0.340465
O54	O	1.157405	-0.090407	0.590465
O55	O	1.407405	0.159593	0.840465
O56	O	1.657405	0.409593	1.090465
O57	O	1.119068	-0.263464	0.442082
O58	O	1.369068	-0.013464	0.692082
O59	O	1.619068	0.236536	0.942082
O60	O	1.869068	0.486536	1.192082
O61	O	1.118983	-0.442012	0.263537
O62	O	1.368983	-0.192012	0.513537
O63	O	1.618983	0.057988	0.763537
O64	O	1.868983	0.307988	1.013537
O65	O	1.027790	-0.441995	0.340481
O66	O	1.277790	-0.191995	0.590481
O67	O	1.527790	0.058005	0.840481
O68	O	1.777790	0.308005	1.090481
C69	C	0.880448	-0.301927	0.301983
C70	C	1.130448	-0.051927	0.551983
C71	C	1.380448	0.198073	0.801983
C72	C	1.630448	0.448073	1.051983
C73	C	0.797902	-0.301932	0.301983
C74	C	1.047902	-0.051932	0.551983
C75	C	1.297902	0.198068	0.801983
C76	C	1.547902	0.448068	1.051983
C77	C	1.073404	-0.464738	0.302021
C78	C	1.323404	-0.214738	0.552021
C79	C	1.573404	0.035262	0.802021
C80	C	1.823404	0.285262	1.052021
C81	C	1.073474	-0.534379	0.302044
C82	C	1.323474	-0.284379	0.552044
C83	C	1.573474	-0.034379	0.802044
C84	C	1.823474	0.215621	1.052044
C85	C	1.073462	-0.301937	0.465441
C86	C	1.323462	-0.051937	0.715441
C87	C	1.573462	0.198063	0.965441
C88	C	1.823462	0.448063	1.215441
C89	C	1.073488	-0.301932	0.535082
C90	C	1.323488	-0.051932	0.785082
C91	C	1.573488	0.198068	1.035082
C92	C	1.823488	0.448068	1.285082
C93	C	0.598419	-0.260035	0.260231
C94	C	0.848419	-0.010035	0.510231
C95	C	1.098419	0.239965	0.760231
C96	C	1.348419	0.489965	1.010231
C97	C	0.549029	-0.317181	0.244821
C98	C	0.799029	-0.067181	0.494821
C99	C	1.049029	0.182819	0.744821
C100	C	1.299029	0.432819	0.994821
C101	C	0.646772	-0.301951	0.302011
C102	C	0.896772	-0.051951	0.552011
C103	C	1.146772	0.198049	0.802011
C104	C	1.396772	0.448049	1.052011
C105	C	0.549080	-0.244825	0.317419
C106	C	0.799080	0.005175	0.567419
C107	C	1.049080	0.255175	0.817419
C108	C	1.299080	0.505175	1.067419
C109	C	0.500787	-0.301964	0.302037
C110	C	0.750787	-0.051964	0.552037
C111	C	1.000787	0.198036	0.802037
C112	C	1.250787	0.448036	1.052037
C113	C	0.598469	-0.359126	0.286572
C114	C	0.848469	-0.109126	0.536572
C115	C	1.098469	0.140874	0.786572
C116	C	1.348469	0.390874	1.036572
C117	C	0.598525	-0.286732	0.359197
C118	C	0.848525	-0.036732	0.609197
C119	C	1.098525	0.213268	0.859197
C120	C	1.348525	0.463268	1.109197
C121	C	0.549158	-0.343917	0.343809
C122	C	0.799158	-0.093917	0.593809
C123	C	1.049158	0.156083	0.843809
C124	C	1.299158	0.406083	1.093809
C125	C	0.730870	-0.301942	0.301994
C126	C	0.980870	-0.051942	0.551994
C127	C	1.230870	0.198058	0.801994
C128	C	1.480870	0.448058	1.051994
C129	C	0.416691	-0.301979	0.302054
C130	C	0.666691	-0.051979	0.552054
C131	C	0.916691	0.198021	0.802054
C132	C	1.166691	0.448021	1.052054
C133	C	1.267106	-0.301974	0.302053
C134	C	1.517106	-0.051974	0.552053
C135	C	1.767106	0.198026	0.802053
C136	C	2.017106	0.448026	1.052053
C137	C	1.349652	-0.301984	0.302068
C138	C	1.599652	-0.051984	0.552068
C139	C	1.849652	0.198016	0.802068
C140	C	2.099652	0.448016	1.052068
C141	C	1.073417	-0.138527	0.302027
C142	C	1.323417	0.111473	0.552027
C143	C	1.573417	0.361473	0.802027
C144	C	1.823417	0.611473	1.052027
C145	C	1.073424	-0.068886	0.302032
C146	C	1.323424	0.181114	0.552032
C147	C	1.573424	0.431114	0.802032
C148	C	1.823424	0.681114	1.052032
C149	C	1.026000	0.432919	0.342107
C150	C	1.276000	0.682919	0.592107
C151	C	1.526000	0.932919	0.842107
C152	C	1.776000	1.182919	1.092107
C153	C	1.025989	0.367483	0.342104
C154	C	1.275989	0.617483	0.592104
C155	C	1.525989	0.867483	0.842104
C156	C	1.775989	1.117483	1.092104
C157	C	1.073465	0.334753	0.302043
C158	C	1.323465	0.584753	0.552043
C159	C	1.573465	0.834753	0.802043
C160	C	1.823465	1.084753	1.052043
C161	C	1.120942	0.367463	0.261972
C162	C	1.370942	0.617463	0.511972
C163	C	1.620942	0.867463	0.761972
C164	C	1.870942	1.117463	1.011972
C165	C	1.120946	0.432897	0.261972
C166	C	1.370946	0.682897	0.511972
C167	C	1.620946	0.932897	0.761972
C168	C	1.870946	1.182897	1.011972
C169	C	1.140365	0.231078	0.297108
C170	C	1.390365	0.481078	0.547108
C171	C	1.640365	0.731078	0.797108
C172	C	1.890365	0.981078	1.047108
C173	C	1.140362	0.165645	0.297112
C174	C	1.390362	0.415645	0.547112
C175	C	1.640362	0.665645	0.797112
C176	C	1.890362	0.915645	1.047112
C177	C	1.073450	0.132932	0.302039
C178	C	1.323450	0.382932	0.552039
C179	C	1.573450	0.632932	0.802039
C180	C	1.823450	0.882932	1.052039
C181	C	1.006540	0.165660	0.306975
C182	C	1.256540	0.415660	0.556975
C183	C	1.506540	0.665660	0.806975
C184	C	1.756540	0.915660	1.056975
C185	C	1.006545	0.231094	0.306975
C186	C	1.256545	0.481094	0.556975
C187	C	1.506545	0.731094	0.806975
C188	C	1.756545	0.981094	1.056975
C189	C	1.073465	0.263800	0.302038
C190	C	1.323465	0.513800	0.552038
C191	C	1.573465	0.763800	0.802038
C192	C	1.823465	1.013800	1.052038
C193	C	1.025961	0.029277	0.342101
C194	C	1.275961	0.279277	0.592101
C195	C	1.525961	0.529277	0.842101
C196	C	1.775961	0.779277	1.092101
C197	C	1.025948	-0.036160	0.342093
C198	C	1.275948	0.213840	0.592093
C199	C	1.525948	0.463840	0.842093
C200	C	1.775948	0.713840	1.092093
C201	C	1.120908	-0.036178	0.261965
C202	C	1.370908	0.213822	0.511965
C203	C	1.620908	0.463822	0.761965
C204	C	1.870908	0.713822	1.011965
C205	C	1.120913	0.029257	0.261970
C206	C	1.370913	0.279257	0.511970
C207	C	1.620913	0.529257	0.761970
C208	C	1.870913	0.779257	1.011970
C209	C	1.073441	0.061981	0.302041
C210	C	1.323441	0.311981	0.552041
C211	C	1.573441	0.561981	0.802041
C212	C	1.823441	0.811981	1.052041
C213	C	1.073382	-0.301917	0.139230
C214	C	1.323382	-0.051917	0.389230
C215	C	1.573382	0.198083	0.639230
C216	C	1.823382	0.448083	0.889230
C217	C	1.073499	-0.301746	0.069589
C218	C	1.323499	-0.051746	0.319589
C219	C	1.573499	0.198254	0.569589
C220	C	1.823499	0.448254	0.819589
C221	C	1.120989	-0.261863	0.567807
C222	C	1.370989	-0.011863	0.817807
C223	C	1.620989	0.238137	1.067807
C224	C	1.870989	0.488137	1.317807
C225	C	1.120988	-0.261836	0.633243
C226	C	1.370988	-0.011836	0.883243
C227	C	1.620988	0.238164	1.133243
C228	C	1.870988	0.488164	1.383243
C229	C	1.073494	-0.301889	0.665950
C230	C	1.323494	-0.051889	0.915950
C231	C	1.573494	0.198111	1.165950
C232	C	1.823494	0.448111	1.415950
C233	C	1.025984	-0.341961	0.633217
C234	C	1.275984	-0.091961	0.883217
C235	C	1.525984	0.158039	1.133217
C236	C	1.775984	0.408039	1.383217
C237	C	1.025981	-0.341983	0.567783
C238	C	1.275981	-0.091983	0.817783
C239	C	1.525981	0.158017	1.067783
C240	C	1.775981	0.408017	1.317783
C241	C	1.067631	-0.358304	0.769626
C242	C	1.317631	-0.108304	1.019626
C243	C	1.567631	0.141696	1.269626
C244	C	1.817631	0.391696	1.519626
C245	C	1.067639	-0.358284	0.835059
C246	C	1.317639	-0.108284	1.085059
C247	C	1.567639	0.141716	1.335059
C248	C	1.817639	0.391716	1.585059
C249	C	1.073499	-0.301823	0.867771
C250	C	1.323499	-0.051823	1.117771
C251	C	1.573499	0.198177	1.367771
C252	C	1.823499	0.448177	1.617771
C253	C	1.079365	-0.245381	0.835043
C254	C	1.329365	0.004619	1.085043
C255	C	1.579365	0.254619	1.335043
C256	C	1.829365	0.504619	1.585043
C257	C	1.079362	-0.245402	0.769608
C258	C	1.329362	0.004598	1.019608
C259	C	1.579362	0.254598	1.269608
C260	C	1.829362	0.504598	1.519608
C261	C	1.073492	-0.301870	0.736903
C262	C	1.323492	-0.051870	0.986903
C263	C	1.573492	0.198130	1.236903
C264	C	1.823492	0.448130	1.486903
C265	C	1.121001	-0.261721	0.971449
C266	C	1.371001	-0.011721	1.221449
C267	C	1.621001	0.238279	1.471449
C268	C	1.871001	0.488279	1.721449
C269	C	1.120995	-0.261693	1.036886
C270	C	1.370995	-0.011693	1.286886
C271	C	1.620995	0.238307	1.536886
C272	C	1.870995	0.488307	1.786886
C273	C	1.025994	-0.341824	1.036859
C274	C	1.275994	-0.091824	1.286859
C275	C	1.525994	0.158176	1.536859
C276	C	1.775994	0.408176	1.786859
C277	C	1.025997	-0.341847	0.971424
C278	C	1.275997	-0.091847	1.221424
C279	C	1.525997	0.158153	1.471424
C280	C	1.775997	0.408153	1.721424
C281	C	1.073504	-0.301796	0.938723
C282	C	1.323504	-0.051796	1.188723
C283	C	1.573504	0.198204	1.438723
C284	C	1.823504	0.448204	1.688723
H285	H	0.620049	-0.224627	0.224860
H286	H	0.870049	0.025373	0.474860
H287	H	1.120049	0.275373	0.724860
H288	H	1.370049	0.525373	0.974860
Br289	Br	0.512793	-0.338653	0.164237
Br290	Br	0.762793	-0.088653	0.414237
Br291	Br	1.012793	0.161347	0.664237
Br292	Br	1.262793	0.411347	0.914237
Br293	Br	1.185471	-0.207366	0.927065
Br294	Br	1.435471	0.042634	1.177065
Br295	Br	1.685471	0.292634	1.427065
Br296	Br	1.935471	0.542634	1.677065
Br297	Br	0.513330	-0.403071	0.402719
Br298	Br	0.763330	-0.153071	0.652719
Br299	Br	1.013330	0.096929	0.902719
Br300	Br	1.263330	0.346929	1.152719
H301	H	0.987336	0.340852	0.374735
H302	H	1.237336	0.590852	0.624735
H303	H	1.487336	0.840852	0.874735
H304	H	1.737336	1.090852	1.124735
Br305	Br	1.185440	-0.207437	0.677666
Br306	Br	1.435440	0.042563	0.927666
Br307	Br	1.685440	0.292563	1.177666
Br308	Br	1.935440	0.542563	1.427666
H309	H	0.987297	-0.374611	0.541139
H310	H	1.237297	-0.124611	0.791139
H311	H	1.487297	0.125389	1.041139
H312	H	1.737297	0.375389	1.291139
Br313	Br	0.915725	0.121272	0.313664
Br314	Br	1.165725	0.371272	0.563664
Br315	Br	1.415725	0.621272	0.813664
Br316	Br	1.665725	0.871272	1.063664
Br317	Br	0.634471	-0.439680	0.264776
Br318	Br	0.884471	-0.189680	0.514776
Br319	Br	1.134471	0.060320	0.764776
Br320	Br	1.384471	0.310320	1.014776
Br321	Br	1.185478	-0.207318	1.081300
Br322	Br	1.435478	0.042682	1.331300
Br323	Br	1.685478	0.292682	1.581300
Br324	Br	1.935478	0.542682	1.831300
H325	H	1.084137	-0.199445	0.742964
H326	H	1.334137	0.050555	0.992964
H327	H	1.584137	0.300555	1.242964
H328	H	1.834137	0.550555	1.492964
H329	H	0.987311	-0.374571	0.659852
H330	H	1.237311	-0.124571	0.909852
H331	H	1.487311	0.125429	1.159852
H332	H	1.737311	0.375429	1.409852
H333	H	0.952065	0.257740	0.310993
H334	H	1.202065	0.507740	0.560993
H335	H	1.452065	0.757740	0.810993
H336	H	1.702065	1.007740	1.060993
Br337	Br	0.961532	0.073692	0.396479
Br338	Br	1.211532	0.323692	0.646479
Br339	Br	1.461532	0.573692	0.896479
Br340	Br	1.711532	0.823692	1.146479
H341	H	1.159606	0.459524	0.229347
H342	H	1.409606	0.709524	0.479347
H343	H	1.659606	0.959524	0.729347
H344	H	1.909606	1.209524	0.979347
H345	H	1.062661	-0.404270	0.742997
H346	H	1.312661	-0.154270	0.992997
H347	H	1.562661	0.095730	1.242997
H348	H	1.812661	0.345730	1.492997
H349	H	0.620283	-0.273833	0.407531
H350	H	0.870283	-0.023833	0.657531
H351	H	1.120283	0.226167	0.907531
H352	H	1.370283	0.476167	1.157531
H353	H	0.987283	-0.062785	0.374715
H354	H	1.237283	0.187215	0.624715
H355	H	1.487283	0.437215	0.874715
H356	H	1.737283	0.687215	1.124715
Br357	Br	1.185370	0.323045	0.207601
Br358	Br	1.435370	0.573045	0.457601
Br359	Br	1.685370	0.823045	0.707601
Br360	Br	1.935370	1.073045	0.957601
Br361	Br	0.512913	-0.164299	0.339120
Br362	Br	0.762913	0.085701	0.589120
Br363	Br	1.012913	0.335701	0.839120
Br364	Br	1.262913	0.585701	1.089120
H365	H	1.159562	-0.062827	0.229346
H366	H	1.409562	0.187173	0.479346
H367	H	1.659562	0.437173	0.729346
H368	H	1.909562	0.687173	0.979346
H369	H	0.987344	0.459560	0.374734
H370	H	1.237344	0.709560	0.624734
H371	H	1.487344	0.959560	0.874734
H372	H	1.737344	1.209560	1.124734
Br373	Br	1.185352	0.073642	0.207600
Br374	Br	1.435352	0.323642	0.457600
Br375	Br	1.685352	0.573642	0.707600
Br376	Br	1.935352	0.823642	0.957600
Br377	Br	1.231181	0.275468	0.290410
Br378	Br	1.481181	0.525468	0.540410
Br379	Br	1.731181	0.775468	0.790410
Br380	Br	1.981181	1.025468	1.040410
Br381	Br	1.231168	0.121235	0.290425
Br382	Br	1.481168	0.371235	0.540425
Br383	Br	1.731168	0.621235	0.790425
Br384	Br	1.981168	0.871235	1.040425
H385	H	0.987316	-0.374430	1.063489
H386	H	1.237316	-0.124430	1.313489
H387	H	1.487316	0.125570	1.563489
H388	H	1.737316	0.375570	1.813489
Br389	Br	1.185460	-0.207506	0.523430
Br390	Br	1.435460	0.042494	0.773430
Br391	Br	1.685460	0.292494	1.023430
Br392	Br	1.935460	0.542494	1.273430
H393	H	1.084138	-0.199405	0.861676
H394	H	1.334138	0.050595	1.111676
H395	H	1.584138	0.300595	1.361676
H396	H	1.834138	0.550595	1.611676
H397	H	0.987321	-0.374479	0.944779
H398	H	1.237321	-0.124479	1.194779
H399	H	1.487321	0.125521	1.444779
H400	H	1.737321	0.375521	1.694779
Br401	Br	1.059688	-0.434883	0.879470
Br402	Br	1.309688	-0.184883	1.129470
Br403	Br	1.559688	0.065117	1.379470
Br404	Br	1.809688	0.315117	1.629470
