data_functionalizedCrystal
_audit_creation_method	'MofGen! by Chris Wilmer'
_symmetry_space_group_name_H-M	'P1'
_symmetry_Int_Tables_number	1
_symmetry_cell_setting	triclinic
loop_
_symmetry_equiv_pos_as_xyz
  x,y,z
_cell_length_a	14.519731
_cell_length_b	8.559649
_cell_length_c	7.088929
_cell_angle_alpha	95.344185
_cell_angle_beta	83.785337
_cell_angle_gamma	76.733759
loop_
_atom_site_label
_atom_site_type_symbol
_atom_site_fract_x
_atom_site_fract_y
_atom_site_fract_z
O1	O	-1.198182	-0.225971	-0.159026
O2	O	-0.927941	-0.250596	-0.159018
O3	O	-1.086870	-0.005752	-0.159021
O4	O	-1.039253	-0.470814	-0.159024
O5	O	-1.108115	0.027043	0.158954
O6	O	-0.949185	-0.217801	0.158956
O7	O	-1.219427	-0.193176	0.158948
Cu8	Cu	-1.086246	-0.202494	0.187986
Cu9	Cu	-1.061122	-0.241278	-0.188056
O10	O	-1.060498	-0.438019	0.158951
C11	C	-0.904287	-0.233044	-0.000030
C12	C	-0.802155	-0.229586	-0.000027
C13	C	-0.719212	-0.226777	-0.000032
C14	C	-0.615155	-0.223266	-0.000029
C15	C	-0.532217	-0.220480	-0.000025
C16	C	-0.428153	-0.216970	-0.000026
C17	C	-0.243081	-0.210727	-0.000035
C18	C	-0.345214	-0.214183	-0.000023
C19	C	-1.101101	0.070164	-0.000037
C20	C	-1.111841	0.247511	-0.000048
C21	C	-1.046267	-0.513936	-0.000037
C22	C	-1.035525	-0.691284	-0.000038
N23	N	-1.103924	-0.175214	0.452474
N24	N	-1.043452	-0.268545	-0.452544
H25	H	-0.961970	0.225440	-0.000030
H26	H	-1.185403	0.330798	-0.000035
C27	C	-1.188600	-0.044552	0.562767
C28	C	-1.197979	0.134544	0.535435
C29	C	-1.282654	0.265203	0.645729
C30	C	-1.357949	0.216767	0.783354
C31	C	-1.348572	0.037663	0.810692
C32	C	-1.263898	-0.092996	0.700399
H33	H	-1.142239	0.170406	0.433552
H34	H	-1.289594	0.397788	0.625490
H35	H	-1.420630	0.313490	0.864999
H36	H	-1.404312	0.001800	0.912576
H37	H	-1.256957	-0.225581	0.720637
H38	H	-0.980781	-0.365261	0.465811
