data_functionalizedCrystal
_audit_creation_method	'MofGen! by Chris Wilmer'
_symmetry_space_group_name_H-M	'P1'
_symmetry_Int_Tables_number	1
_symmetry_cell_setting	triclinic
loop_
_symmetry_equiv_pos_as_xyz
  x,y,z
_cell_length_a	9.065215
_cell_length_b	10.654550
_cell_length_c	9.130313
_cell_angle_alpha	89.995631
_cell_angle_beta	89.997021
_cell_angle_gamma	84.749814
loop_
_atom_site_label
_atom_site_type_symbol
_atom_site_fract_x
_atom_site_fract_y
_atom_site_fract_z
O1	O	1.959395	0.184142	-0.121782
O2	O	1.530027	0.199251	-0.121789
O3	O	1.754583	0.008996	-0.121776
O4	O	1.734839	0.374397	-0.121795
O5	O	1.754568	0.008991	0.121823
O6	O	1.530012	0.199245	0.121810
O7	O	1.959380	0.184136	0.121817
Cu8	Cu	1.744694	0.191690	0.144056
Cu9	Cu	1.744713	0.191697	-0.144028
O10	O	1.734824	0.374391	0.121804
C11	C	1.753126	-0.037810	0.000023
C12	C	1.748788	-0.177271	0.000020
C13	C	1.475041	0.197797	0.000010
C14	C	1.311221	0.193458	0.000008
C15	C	1.881003	-0.256234	0.000022
C16	C	1.876919	-0.387271	0.000004
C17	C	1.608394	-0.360369	-0.000011
C18	C	1.612479	-0.229334	-0.000003
C19	C	2.014366	0.185590	0.000015
C20	C	2.178186	0.189930	0.000008
C21	C	1.736281	0.421198	0.000002
C22	C	1.740619	0.560658	-0.000005
N23	N	1.744692	0.191685	0.346679
N24	N	1.744726	0.191693	-0.346651
C25	C	1.844160	0.107476	0.423336
C26	C	1.844174	0.107476	0.576673
C27	C	1.645249	0.275905	0.576681
C28	C	1.645228	0.275898	0.423347
H29	H	1.991995	-0.213848	0.000038
Cl30	Cl	1.969220	0.001607	0.673038
H31	H	1.925147	0.038903	0.360916
H32	H	1.984582	-0.451558	0.000002
Cl33	Cl	1.446252	-0.130059	-0.000018
Cl34	Cl	1.520220	0.381773	0.673071
H35	H	1.564223	0.344471	0.360929
H36	H	1.497415	-0.402775	-0.000027
