data_functionalizedCrystal
_audit_creation_method	'MofGen! by Chris Wilmer'
_symmetry_space_group_name_H-M	'P1'
_symmetry_Int_Tables_number	1
_symmetry_cell_setting	triclinic
loop_
_symmetry_equiv_pos_as_xyz
  x,y,z
_cell_length_a	6.817900
_cell_length_b	7.076105
_cell_length_c	19.275297
_cell_angle_alpha	87.390175
_cell_angle_beta	109.075606
_cell_angle_gamma	117.701832
loop_
_atom_site_label
_atom_site_type_symbol
_atom_site_fract_x
_atom_site_fract_y
_atom_site_fract_z
V1	V	-4.224945	-0.659333	-0.100150
O2	O	-4.182370	-0.652692	0.005990
O3	O	-4.200416	-0.649140	-0.199714
O4	O	-4.251432	-0.949485	-0.098093
O5	O	-4.131001	-0.350268	-0.096334
V6	V	-4.695776	-0.623057	-0.087516
O7	O	-4.514044	-0.738908	-0.127865
O8	O	-4.856874	-0.543482	-0.059801
O9	O	-4.497098	-0.633251	0.012048
O10	O	-4.855748	-0.629698	-0.193656
O11	O	-4.907117	-0.932122	-0.091332
O12	O	-4.446082	-0.332906	-0.089573
C13	C	-4.048801	-0.637272	-0.224001
C14	C	-4.110532	-0.630872	-0.305392
C15	C	-4.228045	-0.651675	0.119248
C16	C	-4.312063	-0.645130	0.036328
C17	C	-4.120827	-0.020388	-0.094370
C18	C	-4.247001	-0.262000	-0.093308
C19	C	-4.160652	-0.625653	-0.371490
C20	C	-4.223553	-0.619118	-0.454413
V21	V	-4.345796	-0.642806	0.254104
O22	O	-4.270195	-0.630990	0.362095
O23	O	-4.356861	-0.644164	0.150425
O24	O	-4.407254	-0.944585	0.252018
O25	O	-4.219453	-0.328489	0.259798
V26	V	-4.757851	-0.548416	0.287400
O27	O	-4.624552	-0.695213	0.236042
O28	O	-4.881861	-0.443341	0.324186
O29	O	-4.547096	-0.573170	0.381797
O30	O	-4.938481	-0.546498	0.184292
O31	O	-4.989223	-0.848999	0.286589
O32	O	-4.496703	-0.272748	0.280204
C33	C	-4.374740	-0.605043	0.398969
C34	C	-4.273704	-0.613911	0.479494
C35	C	-4.310445	-0.221825	0.269377
C36	C	-4.165878	0.017360	0.267477
