data_functionalizedCrystal
_audit_creation_method	'MofGen! by Chris Wilmer'
_symmetry_space_group_name_H-M	'P1'
_symmetry_Int_Tables_number	1
_symmetry_cell_setting	triclinic
loop_
_symmetry_equiv_pos_as_xyz
  x,y,z
_cell_length_a	11.792254
_cell_length_b	10.868271
_cell_length_c	10.654550
_cell_angle_alpha	90.003964
_cell_angle_beta	84.341750
_cell_angle_gamma	90.004259
loop_
_atom_site_label
_atom_site_type_symbol
_atom_site_fract_x
_atom_site_fract_y
_atom_site_fract_z
O1	O	1.507298	0.102318	0.172212
O2	O	2.007298	0.602318	0.672212
O3	O	1.176999	0.102320	0.189936
O4	O	1.676999	0.602320	0.689936
O5	O	1.349743	0.102314	-0.001687
O6	O	1.849743	0.602314	0.498313
O7	O	1.334554	0.102324	0.363834
O8	O	1.834554	0.602324	0.863834
O9	O	1.349728	-0.102330	-0.001694
O10	O	1.849728	0.397670	0.498306
O11	O	1.176985	-0.102324	0.189928
O12	O	1.676985	0.397676	0.689928
O13	O	1.507283	-0.102327	0.172204
O14	O	2.007283	0.397673	0.672204
Zn15	Zn	1.342132	-0.134817	0.181065
Zn16	Zn	1.842132	0.365183	0.681065
Zn17	Zn	1.342151	0.134811	0.181075
Zn18	Zn	1.842151	0.634811	0.681075
O19	O	1.334540	-0.102321	0.363827
O20	O	1.834540	0.397679	0.863827
C21	C	1.134699	-0.000002	0.188815
C22	C	1.634699	0.499998	0.688815
C23	C	1.008678	-0.000001	0.185474
C24	C	1.508678	0.499999	0.685474
N25	N	1.342127	-0.318831	0.181058
N26	N	1.842127	0.181169	0.681058
C27	C	0.906335	0.000004	0.182758
C28	C	1.406335	0.500004	0.682758
C29	C	0.777941	0.000005	0.179363
C30	C	1.277941	0.500005	0.679363
C31	C	1.342145	-0.569837	0.181072
C32	C	1.842145	-0.069837	0.681072
C33	C	1.342131	-0.430160	0.181068
C34	C	1.842131	0.069840	0.681068
C35	C	1.549584	-0.000002	0.173325
C36	C	2.049584	0.499998	0.673325
C37	C	1.675604	0.000005	0.176666
C38	C	2.175604	0.500005	0.676666
C39	C	1.348620	-0.000006	-0.048485
C40	C	1.848620	0.499994	0.451515
C41	C	1.345284	-0.000002	-0.187919
C42	C	1.845284	0.499998	0.312081
N43	N	1.342164	0.318825	0.181073
N44	N	1.842164	0.818825	0.681073
C45	C	1.446992	-0.000006	-0.267687
C46	C	1.946992	0.499994	0.232313
C47	C	1.443850	0.000002	-0.398700
C48	C	1.943850	0.500002	0.101300
C49	C	1.237283	0.000014	-0.370162
C50	C	1.737283	0.500014	0.129838
C51	C	1.240426	0.000015	-0.239153
C52	C	1.740426	0.500015	0.260847
C53	C	1.551850	-0.000023	-0.216454
C54	C	2.051850	0.499977	0.283546
C55	C	1.653567	-0.000029	-0.296224
C56	C	2.153567	0.499971	0.203776
C57	C	1.650425	-0.000020	-0.427236
C58	C	2.150425	0.499980	0.072764
C59	C	1.545567	-0.000006	-0.478478
C60	C	2.045567	0.499994	0.021522
C61	C	1.335662	0.000003	0.410625
C62	C	1.835662	0.500003	0.910625
C63	C	1.338999	0.000006	0.550059
C64	C	1.838999	0.500006	1.050059
H65	H	1.554420	-0.000034	-0.109779
H66	H	2.054420	0.499966	0.390221
H67	H	1.738940	-0.000010	-0.254493
H68	H	2.238940	0.499990	0.245507
C69	C	1.762306	-0.000024	-0.514978
C70	C	2.262306	0.499976	-0.014978
H71	H	1.825201	-0.000043	-0.465697
H72	H	2.325201	0.499957	0.034303
H73	H	1.765388	0.071340	-0.566674
H74	H	2.265388	0.571340	-0.066674
H75	H	1.765362	-0.071398	-0.566681
H76	H	2.265362	0.428602	-0.066681
H77	H	1.151911	0.000024	-0.411895
H78	H	1.651911	0.500024	0.088105
C79	C	1.542112	0.000010	-0.622589
C80	C	2.042112	0.500010	-0.122589
H81	H	1.617705	0.000002	-0.662760
H82	H	2.117705	0.500002	-0.162760
H83	H	1.503261	0.071375	-0.646948
H84	H	2.003261	0.571375	-0.146948
H85	H	1.503253	-0.071362	-0.646964
H86	H	2.003253	0.428638	-0.146964
C87	C	1.128549	0.000017	-0.151403
C88	C	1.628549	0.500017	0.348597
H89	H	1.065650	0.000010	-0.200677
H90	H	1.565650	0.500010	0.299323
H91	H	1.125492	0.071382	-0.099700
H92	H	1.625492	0.571382	0.400300
H93	H	1.125477	-0.071355	-0.099708
H94	H	1.625477	0.428645	0.400292
