data_functionalizedCrystal
_audit_creation_method	'MofGen! by Chris Wilmer'
_symmetry_space_group_name_H-M	'P1'
_symmetry_Int_Tables_number	1
_symmetry_cell_setting	triclinic
loop_
_symmetry_equiv_pos_as_xyz
  x,y,z
_cell_length_a	15.297475
_cell_length_b	15.297510
_cell_length_c	12.759393
_cell_angle_alpha	99.645058
_cell_angle_beta	99.688518
_cell_angle_gamma	88.372274
loop_
_atom_site_label
_atom_site_type_symbol
_atom_site_fract_x
_atom_site_fract_y
_atom_site_fract_z
Zn1	Zn	1.278713	0.580728	0.968311
Zn2	Zn	1.253236	0.727198	0.817006
Zn3	Zn	1.132224	0.555384	0.758063
Zn4	Zn	1.106851	0.701761	0.958062
O5	O	1.192756	0.641268	0.875361
O6	O	1.397902	0.621409	0.977198
O7	O	1.237141	0.704445	0.662166
O8	O	1.172937	0.436189	0.765575
O9	O	1.379184	0.729020	0.866035
O10	O	1.280561	0.454809	0.920043
O11	O	1.148234	0.578215	0.618860
O12	O	1.006290	0.553550	0.755636
O13	O	1.129691	0.685667	1.106444
O14	O	0.987648	0.661092	0.902575
O15	O	1.255958	0.596744	1.113974
O16	O	1.212537	0.846381	0.856096
O17	O	1.104988	0.827692	0.959730
C18	C	0.965188	0.601811	0.821598
C19	C	0.867830	0.584952	0.798626
C20	C	1.153268	0.868818	0.913225
C21	C	1.136455	0.966179	0.929478
C22	C	0.554606	0.761765	1.039546
C23	C	0.646078	0.777611	1.061127
C24	C	0.701520	0.729448	0.995504
C25	C	0.665482	0.665436	0.908296
C26	C	0.574000	0.649593	0.886707
C27	C	0.720915	0.617276	0.842666
C28	C	0.684876	0.553264	0.755457
C29	C	0.593404	0.537424	0.733874
C30	C	0.537961	0.585587	0.799496
C31	C	0.812396	0.633118	0.864254
C32	C	0.831791	0.520946	0.711416
C33	C	0.740319	0.505100	0.689835
C34	C	1.313237	1.279452	0.759694
C35	C	1.329033	1.187976	0.744419
C36	C	1.280890	1.132523	0.790682
C37	C	1.216948	1.168553	0.852224
C38	C	1.201146	1.260037	0.867494
C39	C	1.168799	1.113108	0.898482
C40	C	1.104857	1.149138	0.960024
C41	C	1.089058	1.240613	0.975292
C42	C	1.137201	1.296067	0.929028
C43	C	1.184602	1.021624	0.883212
C44	C	1.072510	1.002209	0.991012
C45	C	1.056714	1.093685	1.006288
C46	C	1.421212	0.680879	0.929334
C47	C	1.518567	0.697759	0.952335
C48	C	1.192836	0.641195	1.149396
C49	C	1.192870	0.641164	1.266173
C50	C	1.232413	1.412831	0.837386
C51	C	1.249292	1.315482	0.821228
C52	C	1.192737	0.641286	0.602393
C53	C	1.192916	0.641099	0.485616
C54	C	1.258623	0.594854	1.324957
C55	C	1.258644	0.594819	1.434679
C56	C	1.127157	0.687411	1.426823
C57	C	1.127132	0.687440	1.317102
H58	H	0.841729	0.685237	0.935260
H59	H	1.073583	0.725150	1.269237
C60	C	1.054848	0.738310	1.482854
N61	N	1.000383	0.776648	1.525056
H62	H	0.509456	0.800978	1.092961
H63	H	0.776000	0.742353	1.013081
C64	C	1.330930	0.543940	1.268937
N65	N	1.385391	0.505586	1.226744
H66	H	1.236663	0.992296	0.833104
H67	H	1.124345	1.370555	0.941465
C68	C	0.685713	0.848024	1.157051
N69	N	0.715566	0.901063	1.229306
H70	H	1.293754	1.058039	0.778240
H71	H	0.463477	0.572687	0.781932
H72	H	0.876932	0.481729	0.657979
C73	C	0.553764	0.467010	0.637940
N74	N	0.523910	0.413972	0.565685
C75	C	0.700664	0.434692	0.593904
N76	N	0.670795	0.381661	0.521649
C77	C	1.399352	1.148347	0.676703
N78	N	1.452315	1.118497	0.625689
H79	H	1.352422	1.324609	0.722025
H80	H	1.036982	1.269944	1.025389
H81	H	1.312185	0.557107	1.482535
H82	H	1.004652	1.123034	1.056395
C83	C	1.019551	0.941214	1.041908
N84	N	0.979666	0.895267	1.080239
