data_functionalizedCrystal
_audit_creation_method	'MofGen! by Chris Wilmer'
_symmetry_space_group_name_H-M	'P1'
_symmetry_Int_Tables_number	1
_symmetry_cell_setting	triclinic
loop_
_symmetry_equiv_pos_as_xyz
  x,y,z
_cell_length_a	6.394989
_cell_length_b	10.654550
_cell_length_c	9.130313
_cell_angle_alpha	90.000276
_cell_angle_beta	90.001550
_cell_angle_gamma	85.491321
loop_
_atom_site_label
_atom_site_type_symbol
_atom_site_fract_x
_atom_site_fract_y
_atom_site_fract_z
O1	O	-0.293442	-1.670947	-0.121679
O2	O	-0.321399	-1.305765	-0.121705
O3	O	-0.003431	-1.493540	-0.121693
O4	O	-0.611409	-1.483173	-0.121692
O5	O	-0.003422	-1.493526	0.121906
O6	O	-0.321389	-1.305752	0.121893
O7	O	-0.293432	-1.670934	0.121919
Cu8	Cu	-0.307410	-1.488342	0.144149
Cu9	Cu	-0.307421	-1.488357	-0.143935
O10	O	-0.611400	-1.483159	0.121907
C11	C	-0.319341	-1.258939	0.000091
C12	C	-0.313200	-1.119430	0.000080
N13	N	-0.307401	-1.488340	0.346772
N14	N	-0.307414	-1.488369	-0.346558
C15	C	0.074425	-1.491483	0.000101
C16	C	0.310750	-1.485219	0.000099
C17	C	-0.295490	-1.717760	0.000120
C18	C	-0.301631	-1.857269	0.000121
C19	C	-0.500414	-1.041927	0.000085
C20	C	-0.494631	-0.910845	0.000110
C21	C	-0.114403	-0.934782	0.000121
C22	C	-0.120188	-1.065861	0.000106
C23	C	-0.166665	-1.571516	0.423429
C24	C	-0.166665	-1.571528	0.576766
C25	C	-0.448157	-1.405184	0.576774
C26	C	-0.448145	-1.405167	0.423440
H27	H	-0.657577	-1.085539	0.000075
C28	C	0.083154	-1.149955	-0.000204
C29	C	0.199237	-1.125310	-0.125543
C30	C	0.386543	-1.202764	-0.125882
H31	H	0.162465	-1.133468	0.084648
H32	H	0.052150	-1.235710	-0.000291
H33	H	0.230246	-1.039575	-0.125443
H34	H	0.119990	-1.141804	-0.210416
H35	H	0.355538	-1.288519	-0.125969
H36	H	0.465835	-1.186271	-0.041024
H37	H	0.465319	-1.186061	-0.210929
C38	C	-0.013614	-1.661858	0.340452
C39	C	0.109675	-1.734677	0.440412
C40	C	0.250715	-1.817901	0.364033
H41	H	-0.089328	-1.715443	0.280617
H42	H	0.074176	-1.615323	0.280681
H43	H	0.021896	-1.781209	0.500157
H44	H	0.185434	-1.681127	0.500251
H45	H	0.338505	-1.771366	0.304262
H46	H	0.174984	-1.871477	0.304200
H47	H	0.334396	-1.867311	0.431844
H48	H	-0.562750	-1.337429	0.361022
H49	H	-0.052063	-1.639256	0.639176
H50	H	-0.647080	-0.847747	0.000117
H51	H	-0.562750	-1.337468	0.639213
H52	H	0.042741	-0.891149	0.000150
