data_functionalizedCrystal
_audit_creation_method	'MofGen! by Chris Wilmer'
_symmetry_space_group_name_H-M	'P1'
_symmetry_Int_Tables_number	1
_symmetry_cell_setting	triclinic
loop_
_symmetry_equiv_pos_as_xyz
  x,y,z
_cell_length_a	10.654537
_cell_length_b	9.730217
_cell_length_c	10.654551
_cell_angle_alpha	90.001503
_cell_angle_beta	95.516297
_cell_angle_gamma	89.999492
loop_
_atom_site_label
_atom_site_type_symbol
_atom_site_fract_x
_atom_site_fract_y
_atom_site_fract_z
O1	O	-1.667843	0.114256	0.176354
O2	O	-1.302363	0.114264	0.193169
O3	O	-1.493505	0.114257	0.002022
O4	O	-1.476701	0.114263	0.367501
O5	O	-1.493499	-0.114323	0.002020
O6	O	-1.302357	-0.114316	0.193167
O7	O	-1.667837	-0.114324	0.176352
Zn8	Zn	-1.485096	-0.150612	0.184759
Zn9	Zn	-1.485104	0.150552	0.184762
O10	O	-1.476695	-0.114317	0.367499
C11	C	-1.255562	-0.000025	0.191935
C12	C	-1.116118	-0.000021	0.188247
C13	C	-1.088148	-0.000000	0.416812
C14	C	-1.008654	0.000015	0.529356
C15	C	-0.877636	0.000015	0.525883
C16	C	-0.826110	-0.000004	0.409853
C17	C	-0.905604	-0.000019	0.297309
C18	C	-1.036624	-0.000016	0.300794
C19	C	-0.933574	-0.000050	0.068747
C20	C	-1.064592	-0.000041	0.072217
C21	C	-0.882048	-0.000070	-0.047284
C22	C	-0.961542	-0.000075	-0.159831
C23	C	-1.092568	-0.000074	-0.156353
C24	C	-1.144086	-0.000056	-0.040327
N25	N	-1.485100	-0.356148	0.184757
C26	C	-1.654426	-0.356146	0.015546
C27	C	-1.739097	-0.428084	-0.069056
C28	C	-1.739110	-0.571964	-0.069057
C29	C	-1.654440	-0.643908	0.015551
C30	C	-1.569768	-0.571970	0.100153
C31	C	-1.569767	-0.428087	0.100147
C32	C	-1.400438	-0.571973	0.269356
C33	C	-1.400430	-0.428093	0.269365
C34	C	-1.315768	-0.643917	0.353964
C35	C	-1.231101	-0.571979	0.438574
C36	C	-1.231092	-0.428090	0.438572
C37	C	-1.315758	-0.356155	0.353967
C38	C	-0.714637	-0.000034	0.177590
C39	C	-0.854080	-0.000035	0.181291
C40	C	-1.492268	-0.000031	-0.044777
C41	C	-1.488575	-0.000024	-0.184220
N42	N	-1.485110	0.356089	0.184754
C43	C	-1.486846	0.124576	-0.249723
C44	C	-1.483366	0.124577	-0.380743
C45	C	-1.483351	-0.124633	-0.380747
C46	C	-1.486822	-0.124633	-0.249728
C47	C	-1.477932	-0.000026	0.414298
C48	C	-1.481624	-0.000023	0.553741
H49	H	-1.250766	-0.000039	-0.037484
C50	C	-1.488765	0.261635	-0.177661
H51	H	-1.491093	0.243794	-0.090250
H52	H	-1.415090	0.312837	-0.190189
H53	H	-1.561318	0.312825	-0.208078
H54	H	-1.488223	-0.226104	-0.196393
C55	C	-1.654434	-0.802172	0.015538
H56	H	-1.591878	-0.834716	0.078034
H57	H	-1.734845	-0.834732	0.033470
H58	H	-1.636545	-0.834707	-0.064904
H59	H	-0.919578	-0.000090	-0.254293
C60	C	-1.137944	-0.651111	0.531601
H61	H	-1.087503	-0.587664	0.581978
H62	H	-1.183539	-0.707260	0.584311
H63	H	-1.085288	-0.707217	0.485889
H64	H	-1.315777	-0.761072	0.353954
C65	C	-1.654421	-0.197882	0.015558
H66	H	-1.591874	-0.165343	0.078067
H67	H	-1.636553	-0.165328	-0.064875
H68	H	-1.734838	-0.165337	0.033514
H69	H	-1.481954	0.226039	-0.434069
C70	C	-1.315752	-0.197891	0.353960
H71	H	-1.378297	-0.165352	0.291449
H72	H	-1.333620	-0.165329	0.434392
H73	H	-1.235334	-0.165353	0.336004
H74	H	-1.050621	0.000028	0.623826
C75	C	-1.137954	-0.348969	0.531638
H76	H	-1.087541	-0.412427	0.582027
H77	H	-1.085287	-0.292842	0.485973
H78	H	-1.183582	-0.292842	0.584352
H79	H	-1.808053	-0.630536	-0.137951
H80	H	-1.481925	-0.226085	-0.434100
H81	H	-1.194829	0.000030	0.419652
H82	H	-0.812911	0.000018	0.617527
H83	H	-1.157286	-0.000092	-0.248001
H84	H	-0.719427	-0.000020	0.407035
H85	H	-1.808033	-0.369494	-0.137945
C86	C	-0.737932	-0.000067	-0.051106
H87	H	-0.697965	-0.000041	0.032537
H88	H	-0.713451	-0.079781	-0.094093
H89	H	-0.713467	0.079650	-0.094108
