data_functionalizedCrystal
_audit_creation_method	'MofGen! by Chris Wilmer'
_symmetry_space_group_name_H-M	'P1'
_symmetry_Int_Tables_number	1
_symmetry_cell_setting	triclinic
loop_
_symmetry_equiv_pos_as_xyz
  x,y,z
_cell_length_a	14.971486
_cell_length_b	15.944551
_cell_length_c	14.048226
_cell_angle_alpha	89.992615
_cell_angle_beta	89.998499
_cell_angle_gamma	83.556434
loop_
_atom_site_label
_atom_site_type_symbol
_atom_site_fract_x
_atom_site_fract_y
_atom_site_fract_z
O1	O	1.186829	0.109463	-0.079053
O2	O	0.926415	0.122572	-0.079079
O3	O	1.063733	-0.006251	-0.079057
O4	O	1.049510	0.238286	-0.079076
O5	O	1.063717	-0.006258	0.079264
O6	O	0.926398	0.122564	0.079242
O7	O	1.186812	0.109456	0.079268
Zn8	Zn	1.056603	0.116009	0.104392
Zn9	Zn	1.056624	0.116019	-0.104203
O10	O	1.049494	0.238278	0.079246
C11	C	0.893082	0.121982	0.000078
C12	C	0.793787	0.120225	0.000068
C13	C	0.736480	0.195904	0.000064
C14	C	0.643182	0.194249	0.000078
C15	C	0.607194	0.116913	0.000090
C16	C	0.664508	0.041227	0.000097
C17	C	0.757804	0.042884	0.000090
C18	C	0.470049	0.037780	0.000111
C19	C	0.376747	0.036123	0.000116
C20	C	0.355428	0.189145	0.000099
C21	C	0.448724	0.190801	0.000092
C22	C	0.506032	0.115116	0.000097
C23	C	1.063134	-0.037549	0.000104
C24	C	1.061364	-0.130797	0.000104
C25	C	0.972017	-0.345738	0.000082
C26	C	1.013499	-0.406720	0.078148
C27	C	1.058162	-0.301526	0.000096
C28	C	1.013535	-0.406696	-0.077944
C29	C	1.055062	-0.466441	0.000085
C30	C	1.099667	-0.361279	0.078227
C31	C	1.099692	-0.361248	-0.077935
C32	C	1.141236	-0.422212	0.000150
C33	C	1.059945	-0.206522	0.000104
C34	C	1.053286	-0.561444	0.000084
C35	C	1.220145	0.110046	0.000109
C36	C	1.319440	0.111802	0.000112
C37	C	1.050093	0.269576	0.000083
C38	C	1.051863	0.362824	0.000076
N39	N	1.056594	0.116001	0.246753
N40	N	1.056640	0.116019	-0.246564
C41	C	1.117418	0.058982	0.296581
C42	C	1.117424	0.058982	0.396238
C43	C	1.056610	0.116005	0.446066
C44	C	0.995780	0.173027	0.396231
C45	C	0.995770	0.173022	0.296575
C46	C	0.995806	0.173033	0.603945
C47	C	0.995816	0.173038	0.703608
C48	C	1.117459	0.058992	0.703608
C49	C	1.117450	0.058988	0.603952
C50	C	1.056621	0.116011	0.554124
H51	H	0.516708	-0.023852	0.000117
H52	H	1.166973	0.012560	0.563383
C53	C	0.769512	-0.108537	0.000091
C54	C	0.820800	-0.040306	0.000086
H55	H	0.808404	-0.159895	0.000085
H56	H	0.732685	-0.106005	0.055301
H57	H	0.732673	-0.105990	-0.055120
H58	H	0.857633	-0.042849	0.055301
H59	H	0.857642	-0.042839	-0.055130
C60	C	1.103612	-0.356671	-0.248696
C61	C	1.148845	-0.334010	-0.167023
H62	H	1.133950	-0.339848	-0.303700
H63	H	1.102376	-0.416094	-0.249654
H64	H	1.043837	-0.329428	-0.248132
H65	H	1.208619	-0.361259	-0.167585
H66	H	1.150091	-0.274576	-0.166066
H67	H	0.765774	0.258881	0.000053
C68	C	0.631481	0.345668	0.000047
C69	C	0.580190	0.277439	0.000069
H70	H	0.592590	0.397027	0.000037
H71	H	0.668316	0.343132	0.055250
H72	H	0.668311	0.343123	-0.055171
H73	H	0.543365	0.279980	0.055291
H74	H	0.543340	0.279976	-0.055139
H75	H	1.136066	-0.341257	0.144298
C76	C	1.282716	-0.443983	0.082021
C77	C	1.237844	-0.466894	0.000217
H78	H	1.342354	-0.471575	0.082066
H79	H	1.284355	-0.384607	0.082538
H80	H	1.251876	-0.460244	0.136938
H81	H	1.268681	-0.450628	-0.054701
H82	H	1.236210	-0.526284	-0.000310
C83	C	0.963894	-0.521700	0.166705
C84	C	0.964307	-0.433926	0.167232
H85	H	0.933525	-0.538491	0.221702
H86	H	0.933875	-0.538001	0.111276
H87	H	1.024004	-0.548133	0.166795
H88	H	0.904196	-0.407492	0.167136
H89	H	0.994323	-0.417617	0.222676
C90	C	0.875754	-0.394856	-0.166890
C91	C	0.964345	-0.433852	-0.167042
H92	H	0.845386	-0.411616	-0.221896
H93	H	0.845737	-0.411193	-0.111470
H94	H	0.876061	-0.335312	-0.167217
H95	H	0.964038	-0.493397	-0.166708
H96	H	0.994369	-0.417521	-0.222477
C97	C	0.202949	0.254560	0.000110
C98	C	0.292438	0.272341	0.000095
H99	H	0.164061	0.305921	0.000108
H100	H	0.192041	0.222856	-0.055088
H101	H	0.192052	0.222855	0.055333
H102	H	0.303337	0.304041	-0.055131
H103	H	0.303350	0.304059	0.055299
C104	C	1.237650	-0.053752	0.306601
C105	C	1.184266	-0.003702	0.241815
H106	H	1.278914	-0.092456	0.272791
H107	H	1.269826	-0.018736	0.345455
H108	H	1.200412	-0.084019	0.345485
H109	H	1.221504	0.026569	0.202935
H110	H	1.152088	-0.038723	0.202944
H111	H	0.347448	-0.026851	0.000127
C112	C	0.571962	-0.049405	-0.081278
C113	C	0.624952	-0.043784	0.000108
H114	H	0.547548	-0.101891	-0.081274
H115	H	0.524483	-0.004576	-0.081272
H116	H	0.607923	-0.045575	-0.136483
H117	H	0.588989	-0.047608	0.055313
H118	H	0.672437	-0.088626	0.000111
C119	C	0.875545	0.285741	0.693604
C120	C	0.928952	0.235703	0.758381
H121	H	0.834260	0.324420	0.727421
H122	H	0.912759	0.316028	0.654730
H123	H	0.843385	0.250708	0.654739
H124	H	0.961118	0.270735	0.797242
H125	H	0.891733	0.205413	0.797272
H126	H	0.478022	0.253775	0.000073
C127	C	0.830588	-0.323644	0.082019
C128	C	0.875493	-0.300858	0.000173
H129	H	0.771003	-0.295931	0.082079
H130	H	0.828803	-0.383001	0.082578
H131	H	0.861499	-0.307441	0.136907
H132	H	0.844586	-0.317067	-0.054715
H133	H	0.877273	-0.241488	-0.000394
C134	C	1.136864	-0.055311	0.508314
C135	C	1.184290	-0.003695	0.451002
H136	H	1.178149	-0.094010	0.542116
H137	H	1.100657	-0.021356	0.552253
H138	H	1.099634	-0.085582	0.469438
H139	H	1.221515	0.026582	0.489880
H140	H	1.220513	-0.037654	0.407058
H141	H	1.166988	0.012562	0.744184
C142	C	0.976384	0.287310	0.491849
C143	C	0.928944	0.235712	0.549168
H144	H	0.935108	0.326002	0.458027
H145	H	1.013609	0.317583	0.530715
H146	H	1.012598	0.253337	0.447918
H147	H	0.892735	0.269686	0.593103
H148	H	0.891704	0.205438	0.510298
H149	H	0.946259	0.219453	0.436807
H150	H	0.946240	0.219452	0.256006
