data_functionalizedCrystal
_audit_creation_method	'MofGen! by Chris Wilmer'
_symmetry_space_group_name_H-M	'P1'
_symmetry_Int_Tables_number	1
_symmetry_cell_setting	triclinic
loop_
_symmetry_equiv_pos_as_xyz
  x,y,z
_cell_length_a	11.792241
_cell_length_b	10.540539
_cell_length_c	10.868271
_cell_angle_alpha	89.997005
_cell_angle_beta	89.999893
_cell_angle_gamma	84.359454
loop_
_atom_site_label
_atom_site_type_symbol
_atom_site_fract_x
_atom_site_fract_y
_atom_site_fract_z
O1	O	1.507361	0.173992	-0.102197
O2	O	2.007361	0.673992	0.397803
O3	O	1.177067	0.191924	-0.102225
O4	O	1.677067	0.691924	0.397775
O5	O	1.349750	-0.001773	-0.102208
O6	O	1.849750	0.498227	0.397792
O7	O	1.334679	0.367689	-0.102213
O8	O	1.834679	0.867689	0.397787
O9	O	1.349735	-0.001781	0.102436
O10	O	1.849735	0.498219	0.602436
O11	O	1.177053	0.191916	0.102420
O12	O	1.677053	0.691916	0.602420
O13	O	1.507347	0.173984	0.102448
O14	O	2.007347	0.673984	0.602448
Zn15	Zn	1.342198	0.182949	0.134926
Zn16	Zn	1.842198	0.682949	0.634926
Zn17	Zn	1.342216	0.182959	-0.134702
Zn18	Zn	1.842216	0.682959	0.365298
O19	O	1.334664	0.367681	0.102432
O20	O	1.834664	0.867681	0.602432
C21	C	1.134766	0.190793	0.000094
C22	C	1.634766	0.690793	0.500094
C23	C	1.008743	0.187422	0.000083
C24	C	1.508743	0.687422	0.500083
C25	C	0.778015	0.181223	0.000119
C26	C	1.278015	0.681223	0.500119
C27	C	0.906409	0.184667	0.000099
C28	C	1.406409	0.684667	0.500099
C29	C	1.348612	-0.049076	0.000112
C30	C	1.848612	0.450924	0.500112
C31	C	1.345231	-0.190014	0.000105
C32	C	1.845231	0.309986	0.500105
C33	C	1.215660	-0.373018	-0.000366
C34	C	1.715660	0.126982	0.499634
C35	C	1.219087	-0.226411	0.000095
C36	C	1.719087	0.273589	0.500095
C37	C	1.405929	-0.251873	0.116972
C38	C	1.905929	0.248127	0.616972
C39	C	1.401623	-0.398404	0.117070
C40	C	1.901623	0.101596	0.617070
C41	C	1.404205	-0.398922	-0.115649
C42	C	1.904205	0.101078	0.384351
C43	C	1.405367	-0.251943	-0.117194
C44	C	1.905367	0.248057	0.382806
C45	C	1.549648	0.175114	0.000127
C46	C	2.049648	0.675114	0.500127
C47	C	1.675671	0.178486	0.000130
C48	C	2.175671	0.678486	0.500130
C49	C	1.335802	0.414984	0.000109
C50	C	1.835802	0.914984	0.500109
C51	C	1.339183	0.555921	0.000108
C52	C	1.839183	1.055921	0.500108
N53	N	1.342193	0.182941	0.318940
N54	N	1.842193	0.682941	0.818940
N55	N	1.342230	0.182957	-0.318716
N56	N	1.842230	0.682957	0.181284
C57	C	1.342211	0.182956	0.569946
C58	C	1.842211	0.682956	1.069946
C59	C	1.342197	0.182952	0.430268
C60	C	1.842197	0.682952	0.930268
H61	H	1.165836	-0.401453	-0.084174
H62	H	1.665836	0.098547	0.415826
H63	H	1.360955	-0.210937	-0.203649
H64	H	1.860955	0.289063	0.296351
H65	H	1.166027	-0.403067	0.082965
H66	H	1.666027	0.096933	0.582965
H67	H	1.497336	-0.228021	-0.124243
H68	H	1.997336	0.271979	0.375757
H69	H	1.492344	-0.446668	0.122379
H70	H	1.992344	0.053332	0.622379
H71	H	1.495318	-0.446444	-0.116427
H72	H	1.995318	0.053556	0.383573
H73	H	1.356753	-0.426460	0.204423
H74	H	1.856753	0.073540	0.704423
H75	H	1.170980	-0.184502	0.084002
H76	H	1.670980	0.315498	0.584002
H77	H	1.363753	-0.209140	0.203933
H78	H	1.863753	0.290860	0.703933
O79	O	1.516480	-0.225732	0.122337
O80	O	2.016480	0.274268	0.622337
C81	C	1.568366	-0.282621	0.228297
C82	C	2.068366	0.217379	0.728297
H83	H	1.519837	-0.365579	0.258692
H84	H	2.019837	0.134421	0.758692
H85	H	1.660374	-0.319223	0.206549
H86	H	2.160374	0.180777	0.706549
H87	H	1.566846	-0.209066	0.305330
H88	H	2.066846	0.290934	0.805330
O89	O	1.162204	-0.175564	-0.099977
O90	O	1.662204	0.324436	0.400023
C91	C	1.214462	-0.227272	-0.207950
C92	C	1.714462	0.272728	0.292050
H93	H	1.263934	-0.322969	-0.185894
H94	H	1.763934	0.177031	0.314106
H95	H	1.146342	-0.241504	-0.279703
H96	H	1.646342	0.258496	0.220297
H97	H	1.275366	-0.159159	-0.245564
H98	H	1.775366	0.340841	0.254436
H99	H	1.363385	-0.430338	-0.204226
H100	H	1.863385	0.069662	0.295774
