data_functionalizedCrystal
_audit_creation_method	'MofGen! by Chris Wilmer'
_symmetry_space_group_name_H-M	'P1'
_symmetry_Int_Tables_number	1
_symmetry_cell_setting	triclinic
loop_
_symmetry_equiv_pos_as_xyz
  x,y,z
_cell_length_a	19.805407
_cell_length_b	12.759400
_cell_length_c	19.805399
_cell_angle_alpha	89.976041
_cell_angle_beta	89.984884
_cell_angle_gamma	90.011961
loop_
_atom_site_label
_atom_site_type_symbol
_atom_site_fract_x
_atom_site_fract_y
_atom_site_fract_z
Zn1	Zn	1.034773	-0.418351	-0.382711
Zn2	Zn	1.034716	-0.594049	-0.269533
Zn3	Zn	0.921593	-0.418376	-0.269539
Zn4	Zn	0.921574	-0.593981	-0.382683
O5	O	0.978164	-0.506189	-0.326117
O6	O	1.129482	-0.441676	-0.367707
O7	O	1.019694	-0.570785	-0.174817
O8	O	0.936638	-0.271352	-0.284566
O9	O	1.129441	-0.570760	-0.284555
O10	O	1.019791	-0.271334	-0.367713
O11	O	0.936583	-0.441719	-0.174822
O12	O	0.826874	-0.441653	-0.284539
O13	O	0.936606	-0.570644	-0.477404
O14	O	0.826860	-0.570668	-0.367665
O15	O	1.019773	-0.441610	-0.477424
O16	O	1.019676	-0.741061	-0.284528
O17	O	0.936552	-0.741011	-0.367659
C18	C	0.802308	-0.506156	-0.326100
C19	C	0.727076	-0.506168	-0.326109
C20	C	0.691754	-0.439072	-0.369472
C21	C	0.621066	-0.439078	-0.369475
C22	C	0.585701	-0.506185	-0.326117
C23	C	0.621027	-0.573283	-0.282750
C24	C	0.691715	-0.573271	-0.282744
C25	C	0.335954	-0.573330	-0.282771
C26	C	0.265262	-0.573339	-0.282781
C27	C	0.265306	-0.439137	-0.369501
C28	C	0.335993	-0.439125	-0.369496
C29	C	0.371313	-0.506219	-0.326126
C30	C	0.447962	-0.506211	-0.326122
C31	C	0.509054	-0.506199	-0.326124
C32	C	0.978124	-0.779157	-0.326105
C33	C	0.978169	-0.895933	-0.326122
C34	C	1.021448	-0.950696	-0.369454
C35	C	1.021486	-1.060420	-0.369472
C36	C	0.934964	-1.060609	-0.282822
C37	C	0.934923	-0.950887	-0.282807
C38	C	1.045675	-1.210263	-0.449338
C39	C	1.088964	-1.265029	-0.492664
C40	C	1.154988	-1.229328	-0.503110
C41	C	1.177736	-1.138862	-0.470220
C42	C	1.134450	-1.084101	-0.426890
C43	C	1.068417	-1.119801	-0.416457
C44	C	0.910741	-0.801042	-0.202940
C45	C	0.867458	-0.746279	-0.159606
C46	C	0.801433	-0.781979	-0.149153
C47	C	0.778688	-0.872448	-0.182030
C48	C	0.821971	-0.927211	-0.225365
C49	C	0.887995	-0.891504	-0.235819
C50	C	1.154707	-0.506223	-0.326134
C51	C	1.229939	-0.506237	-0.326141
C52	C	0.978194	-0.506116	-0.502660
C53	C	0.978207	-0.506085	-0.577892
C54	C	0.978223	-0.232156	-0.326144
C55	C	0.978248	-0.115379	-0.326155
C56	C	0.934943	-0.438874	-0.613238
C57	C	0.934952	-0.438854	-0.683926
C58	C	0.978229	-0.506040	-0.719267
C59	C	1.021495	-0.573258	-0.683916
C60	C	1.021482	-0.573283	-0.613229
C61	C	1.021548	-0.573160	-0.968990
C62	C	1.021560	-0.573128	-1.039682
C63	C	0.935019	-0.438731	-1.039687
C64	C	0.935006	-0.438756	-0.969000
C65	C	0.978269	-0.505977	-0.933655
C66	C	0.978257	-0.506000	-0.857006
C67	C	0.978245	-0.506013	-0.795914
C68	C	0.978174	-0.506186	-0.150261
C69	C	0.978292	-0.505921	-0.075029
H70	H	0.364704	-0.627963	-0.247457
H71	H	0.899768	-0.384042	-0.940228
H72	H	1.056728	-0.627968	-0.712697
C73	C	1.068526	-0.646299	-0.574972
C74	C	1.106442	-0.705115	-0.621050
C75	C	1.149790	-0.772385	-0.585834
H76	H	1.042691	-0.692171	-0.547390
H77	H	1.098059	-0.606154	-0.547417
H78	H	1.076913	-0.745257	-0.648595
H79	H	1.132291	-0.659270	-0.648635
H80	H	1.179323	-0.732240	-0.558278
H81	H	1.123949	-0.818251	-0.558253
H82	H	1.175525	-0.812293	-0.617092
H83	H	1.056803	-0.627843	-1.068455
C84	C	0.730026	-0.366099	-0.416575
C85	C	0.683959	-0.307322	-0.454538
C86	C	0.719187	-0.240076	-0.497930
H87	H	0.757610	-0.406227	-0.446081
H88	H	0.757581	-0.320209	-0.390748
H89	H	0.656415	-0.353207	-0.480363
H90	H	0.656373	-0.267173	-0.425051
H91	H	0.746743	-0.194185	-0.472103
H92	H	0.746770	-0.280212	-0.527431
H93	H	0.687936	-0.200181	-0.523689
H94	H	0.803446	-1.000876	-0.252135
H95	H	0.236539	-0.384502	-0.404813
H96	H	0.899790	-0.383999	-1.068473
C97	C	1.068602	-0.646165	-0.930743
C98	C	1.106521	-0.704968	-0.976826
C99	C	1.149886	-0.772219	-0.941615
H100	H	1.042779	-0.692047	-0.903156
H101	H	1.098132	-0.606007	-0.903192
H102	H	1.076995	-0.745123	-1.004365
H103	H	1.132358	-0.659114	-1.004414
H104	H	1.179415	-0.732061	-0.914064
H105	H	1.124056	-0.818094	-0.914029
H106	H	1.175623	-0.812118	-0.972876
H107	H	0.592310	-0.384444	-0.404787
H108	H	0.236470	-0.627988	-0.247472
C109	C	0.374267	-0.366149	-0.416595
C110	C	0.328203	-0.307368	-0.454559
C111	C	0.363435	-0.240118	-0.497945
H112	H	0.401853	-0.406274	-0.446100
H113	H	0.401820	-0.320261	-0.390764
H114	H	0.300660	-0.353250	-0.480388
H115	H	0.300615	-0.267222	-0.425071
H116	H	0.390988	-0.194230	-0.472114
H117	H	0.391019	-0.280251	-0.527446
H118	H	0.332186	-0.200220	-0.523704
C119	C	0.888028	-0.365968	-0.574749
C120	C	0.897287	-0.380352	-0.505278
C121	C	0.854085	-0.313199	-0.469803
H122	H	0.842523	-0.381266	-0.586247
H123	H	0.897957	-0.295352	-0.586304
H124	H	0.887353	-0.450951	-0.493727
H125	H	0.942784	-0.365046	-0.493759
H126	H	0.864014	-0.242584	-0.481358
H127	H	0.808582	-0.328503	-0.481306
H128	H	0.860365	-0.322943	-0.422663
C129	C	1.064319	-1.363161	-0.528503
C130	C	1.068394	-1.348338	-0.598436
C131	C	1.045708	-1.438717	-0.631472
H132	H	1.018788	-1.376661	-0.516168
H133	H	1.091708	-1.421028	-0.515817
H134	H	1.041005	-1.290489	-0.611117
H135	H	1.113918	-1.334852	-0.610790
H136	H	1.073097	-1.496584	-0.618785
H137	H	1.000179	-1.452210	-0.619132
H138	H	1.048476	-1.428675	-0.678924
H139	H	0.592227	-0.627918	-0.247444
C140	C	0.730032	-0.646298	-0.235751
C141	C	0.712851	-0.750282	-0.250388
C142	C	0.748142	-0.817582	-0.207115
H143	H	0.718463	-0.630974	-0.190267
H144	H	0.777202	-0.636749	-0.241962
H145	H	0.665692	-0.759826	-0.244171
H146	H	0.724422	-0.765639	-0.295864
H147	H	0.795311	-0.808033	-0.213326
H148	H	0.736569	-0.802248	-0.161633
H149	H	0.736494	-0.888142	-0.217044
H150	H	1.056660	-0.905955	-0.404724
H151	H	1.152972	-1.010447	-0.400111
H152	H	1.231502	-1.109808	-0.478723
C153	C	0.754350	-0.722703	-0.102097
C154	C	0.691664	-0.773351	-0.099971
C155	C	0.648277	-0.718791	-0.056625
H156	H	0.748523	-0.653151	-0.118190
H157	H	0.773264	-0.720905	-0.058034
H158	H	0.672754	-0.775137	-0.144025
H159	H	0.697470	-0.842899	-0.083871
H160	H	0.667192	-0.716993	-0.012563
H161	H	0.642456	-0.649240	-0.072723
H162	H	0.605743	-0.753152	-0.055172
H163	H	0.991911	-1.239334	-0.440843
H164	H	1.190235	-1.273926	-0.538387
H165	H	0.899756	-1.105366	-0.247555
C166	C	0.706985	-0.911242	-0.170829
C167	C	0.672527	-0.912709	-0.232539
C168	C	0.606477	-0.948452	-0.222244
H169	H	0.684378	-0.865731	-0.140351
H170	H	0.708163	-0.980020	-0.152470
H171	H	0.671346	-0.843942	-0.250888
H172	H	0.695114	-0.958224	-0.263026
H173	H	0.607654	-1.017230	-0.203886
H174	H	0.583876	-0.902937	-0.191766
H175	H	0.583090	-0.949461	-0.264114
C176	C	0.892123	-0.648126	-0.123805
C177	C	0.888095	-0.662892	-0.053865
C178	C	0.910801	-0.572483	-0.020875
H179	H	0.864738	-0.590265	-0.136477
H180	H	0.937652	-0.634653	-0.136191
H181	H	0.842573	-0.676352	-0.041484
H182	H	0.915481	-0.720736	-0.041173
H183	H	0.956330	-0.559011	-0.033261
H184	H	0.883413	-0.514629	-0.033552
H185	H	0.908077	-0.582493	0.026583
C186	C	0.982468	-0.762356	-0.214157
C187	C	1.016936	-0.760956	-0.152451
C188	C	1.083014	-0.725342	-0.162756
H189	H	0.981363	-0.693586	-0.232510
H190	H	1.005020	-0.807935	-0.244646
H191	H	0.994389	-0.715379	-0.121973
H192	H	1.018059	-0.829715	-0.134089
H193	H	1.105567	-0.770920	-0.193245
H194	H	1.081902	-0.656574	-0.181110
H195	H	1.106410	-0.724396	-0.120892
H196	H	0.899720	-0.384128	-0.712702
