data_functionalizedCrystal
_audit_creation_method	'MofGen! by Chris Wilmer'
_symmetry_space_group_name_H-M	'P1'
_symmetry_Int_Tables_number	1
_symmetry_cell_setting	triclinic
loop_
_symmetry_equiv_pos_as_xyz
  x,y,z
_cell_length_a	18.215407
_cell_length_b	16.625546
_cell_length_c	18.215399
_cell_angle_alpha	90.029176
_cell_angle_beta	90.019833
_cell_angle_gamma	90.022916
loop_
_atom_site_label
_atom_site_type_symbol
_atom_site_fract_x
_atom_site_fract_y
_atom_site_fract_z
Zn1	Zn	1.125084	-0.321000	0.416110
Zn2	Zn	1.625084	0.179000	0.916110
Zn3	Zn	1.124998	-0.455841	0.293041
Zn4	Zn	1.624998	0.044159	0.793041
Zn5	Zn	1.002017	-0.321027	0.293057
Zn6	Zn	1.502017	0.178973	0.793057
Zn7	Zn	1.001988	-0.455796	0.416066
Zn8	Zn	1.501988	0.044204	0.916066
O9	O	1.063522	-0.388416	0.354568
O10	O	1.563522	0.111584	0.854568
O11	O	1.228057	-0.338895	0.399796
O12	O	1.728057	0.161105	0.899796
O13	O	1.108660	-0.437987	0.190059
O14	O	1.608660	0.062013	0.690059
O15	O	1.018390	-0.208191	0.309405
O16	O	1.518390	0.291809	0.809405
O17	O	1.227994	-0.437961	0.309378
O18	O	1.727994	0.062039	0.809378
O19	O	1.108807	-0.208171	0.399812
O20	O	1.608807	0.291829	0.899812
O21	O	1.018307	-0.338940	0.190070
O22	O	1.518307	0.161060	0.690070
O23	O	0.899029	-0.338896	0.309363
O24	O	1.399029	0.161104	0.809363
O25	O	1.018341	-0.437885	0.519056
O26	O	1.518341	0.062115	1.019056
O27	O	0.899008	-0.437910	0.399737
O28	O	1.399008	0.062090	0.899737
O29	O	1.108779	-0.338851	0.519088
O30	O	1.608779	0.161149	1.019088
O31	O	1.108632	-0.568667	0.309335
O32	O	1.608632	-0.068667	0.809335
O33	O	1.018257	-0.568634	0.399721
O34	O	1.518257	-0.068634	0.899721
C35	C	0.872315	-0.388402	0.354547
C36	C	1.372315	0.111598	0.854547
C37	C	0.790517	-0.388415	0.354556
C38	C	1.290517	0.111585	0.854556
C39	C	0.602331	-0.440053	0.401554
C40	C	1.102331	0.059947	0.901554
C41	C	0.525472	-0.440056	0.401563
C42	C	1.025472	0.059944	0.901563
C43	C	0.525465	-0.336793	0.307598
C44	C	1.025465	0.163207	0.807598
C45	C	0.602322	-0.336787	0.307593
C46	C	1.102322	0.163213	0.807593
C47	C	0.640753	-0.388422	0.354570
C48	C	1.140753	0.111578	0.854570
C49	C	0.487037	-0.388430	0.354584
C50	C	0.987037	0.111570	0.854584
C51	C	0.403703	-0.388433	0.354594
C52	C	0.903703	0.111567	0.854594
C53	C	0.724092	-0.388418	0.354562
C54	C	1.224092	0.111582	0.854562
C55	C	1.063452	-0.597907	0.354537
C56	C	1.563452	-0.097907	0.854537
C57	C	1.063490	-0.687528	0.354549
C58	C	1.563490	-0.187528	0.854549
C59	C	1.063618	-1.015703	0.354625
C60	C	1.563618	-0.515703	0.854625
C61	C	1.063580	-0.924395	0.354606
C62	C	1.563580	-0.424395	0.854606
C63	C	1.063553	-0.851618	0.354587
C64	C	1.563553	-0.351618	0.854587
C65	C	1.063516	-0.760304	0.354568
C66	C	1.563516	-0.260304	0.854568
C67	C	1.255475	-0.388430	0.354590
C68	C	1.755475	0.111570	0.854590
C69	C	1.337274	-0.388436	0.354599
C70	C	1.837274	0.111564	0.854599
C71	C	1.063567	-0.388360	0.546521
C72	C	1.563567	0.111640	1.046521
C73	C	1.063586	-0.388336	0.628320
C74	C	1.563586	0.111664	1.128320
C75	C	1.063612	-0.178107	0.354615
C76	C	1.563612	0.321893	0.854615
C77	C	1.063650	-0.088486	0.354635
C78	C	1.563650	0.411514	0.854635
C79	C	1.063519	-0.388413	0.163362
C80	C	1.563519	0.111587	0.663362
C81	C	1.063643	-0.388209	0.081563
C82	C	1.563643	0.111791	0.581563
C83	C	1.110694	-0.336721	0.816532
C84	C	1.610694	0.163279	1.316532
C85	C	1.110703	-0.336698	0.893391
C86	C	1.610703	0.163302	1.393391
C87	C	1.016530	-0.439827	0.893346
C88	C	1.516530	0.060173	1.393346
C89	C	1.016518	-0.439846	0.816489
C90	C	1.516518	0.060154	1.316489
C91	C	1.063604	-0.388294	0.778084
C92	C	1.563604	0.111706	1.278084
C93	C	1.063625	-0.388252	0.931800
C94	C	1.563625	0.111748	1.431800
C95	C	1.063634	-0.388227	1.015134
C96	C	1.563634	0.111773	1.515134
C97	C	1.063594	-0.388318	0.694745
C98	C	1.563594	0.111682	1.194745
H99	H	0.633606	-0.294737	0.269333
H100	H	1.133606	0.205263	0.769333
H101	H	1.149033	-0.294743	0.785265
H102	H	1.649033	0.205257	1.285265
H103	H	1.149047	-0.294701	0.924692
H104	H	1.649047	0.205299	1.424692
C105	C	1.006237	-0.548323	0.730017
C106	C	1.506237	-0.048323	1.230017
C107	C	0.964754	-0.496539	0.774217
C108	C	1.464754	0.003461	1.274217
H109	H	0.974279	-0.583315	0.703918
H110	H	1.474279	-0.083315	1.203918
H111	H	1.038285	-0.579160	0.759998
H112	H	1.538285	-0.079160	1.259998
H113	H	1.034272	-0.517610	0.696150
H114	H	1.534272	-0.017610	1.196150
H115	H	0.936723	-0.527251	0.808088
H116	H	1.436723	-0.027251	1.308088
H117	H	0.932694	-0.465698	0.744234
H118	H	1.432694	0.034302	1.244234
C119	C	0.439086	-0.451403	0.500549
C120	C	0.939086	0.048597	1.000549
C121	C	0.483239	-0.496812	0.453209
C122	C	0.983239	0.003188	0.953209
H123	H	0.413018	-0.486444	0.532437
H124	H	0.913018	0.013556	1.032437
H125	H	0.405200	-0.420664	0.472573
H126	H	0.905200	0.079336	0.972573
H127	H	0.469102	-0.416313	0.528750
H128	H	0.969102	0.083687	1.028750
H129	H	0.453223	-0.531898	0.425004
H130	H	0.953223	-0.031898	0.925004
H131	H	0.517130	-0.527564	0.481188
H132	H	1.017130	-0.027564	0.981188
H133	H	0.978195	-0.481800	0.924625
H134	H	1.478195	0.018200	1.424625
H135	H	0.494165	-0.294755	0.269350
H136	H	0.994165	0.205245	0.769350
C137	C	0.594616	-0.542115	0.494443
C138	C	1.094616	-0.042115	0.994443
C139	C	0.644575	-0.496800	0.453198
C140	C	1.144575	0.003200	0.953198
H141	H	0.620695	-0.577143	0.526331
H142	H	1.120695	-0.077143	1.026331
H143	H	0.564619	-0.572917	0.462333
H144	H	1.064619	-0.072917	0.962333
H145	H	0.564658	-0.507014	0.522646
H146	H	1.064658	-0.007014	1.022646
H147	H	0.674529	-0.531901	0.424991
H148	H	1.174529	-0.031901	0.924991
H149	H	0.674584	-0.465996	0.485313
H150	H	1.174584	0.034004	0.985313
