data_functionalizedCrystal
_audit_creation_method	'MofGen! by Chris Wilmer'
_symmetry_space_group_name_H-M	'P1'
_symmetry_Int_Tables_number	1
_symmetry_cell_setting	triclinic
loop_
_symmetry_equiv_pos_as_xyz
  x,y,z
_cell_length_a	14.044220
_cell_length_b	9.065218
_cell_length_c	12.503572
_cell_angle_alpha	86.429307
_cell_angle_beta	86.156832
_cell_angle_gamma	90.897619
loop_
_atom_site_label
_atom_site_type_symbol
_atom_site_fract_x
_atom_site_fract_y
_atom_site_fract_z
O1	O	0.133725	-1.983617	0.089327
O2	O	0.633725	-1.483617	0.589327
O3	O	0.145138	-1.555597	0.089329
O4	O	0.645138	-1.055597	0.589329
O5	O	0.001393	-1.763181	0.089317
O6	O	0.501393	-1.263181	0.589317
O7	O	0.277471	-1.776032	0.089338
O8	O	0.777471	-1.276032	0.589338
O9	O	0.012221	-1.747572	-0.089324
O10	O	0.512221	-1.247572	0.410676
O11	O	0.155967	-1.539988	-0.089312
O12	O	0.655967	-1.039988	0.410688
O13	O	0.144554	-1.968007	-0.089314
O14	O	0.644554	-1.468007	0.410686
Cu15	Cu	0.151249	-1.752572	-0.105625
Cu16	Cu	0.651249	-1.252572	0.394375
Cu17	Cu	0.138443	-1.771032	0.105639
Cu18	Cu	0.638443	-1.271032	0.605639
O19	O	0.288300	-1.760423	-0.089303
O20	O	0.788300	-1.260423	0.410697
C21	C	0.149456	-1.492684	0.000008
C22	C	0.649456	-0.992684	0.500008
C23	C	0.146176	-1.328478	0.000009
C24	C	0.646176	-0.828478	0.500009
C25	C	-0.028556	-1.749752	-0.000004
C26	C	0.471444	-1.249752	0.499996
C27	C	-0.133925	-1.732975	-0.000005
C28	C	0.366075	-1.232975	0.499995
C29	C	0.140236	-2.030920	0.000009
C30	C	0.640236	-1.530920	0.500009
C31	C	0.143516	-2.195127	0.000015
C32	C	0.643516	-1.695127	0.500015
C33	C	-0.326851	-1.702305	0.000011
C34	C	0.173149	-1.202305	0.500011
C35	C	-0.383463	-1.821294	0.000013
C36	C	0.116537	-1.321294	0.500013
C37	C	-0.490813	-1.804228	0.000022
C38	C	0.009187	-1.304228	0.500022
C39	C	-0.219491	-1.719368	0.000002
C40	C	0.280509	-1.219368	0.500002
C41	C	0.318248	-1.773852	0.000021
C42	C	0.818248	-1.273852	0.500021
C43	C	0.423617	-1.790630	0.000029
C44	C	0.923617	-1.290630	0.500029
N45	N	0.160256	-1.739599	-0.254216
N46	N	0.660256	-1.239599	0.245784
C47	C	0.173513	-1.720517	-0.473330
C48	C	0.673513	-1.220517	0.026670
C49	C	0.116175	-1.803094	-0.526662
C50	C	0.616175	-1.303094	-0.026662
C51	C	0.123551	-1.792476	-0.648585
C52	C	0.623551	-1.292476	-0.148585
C53	C	0.166138	-1.731133	-0.351397
C54	C	0.666138	-1.231133	0.148603
N55	N	0.129429	-1.784016	0.254231
N56	N	0.629429	-1.284016	0.754231
H57	H	-0.351312	-1.935987	0.000085
H58	H	0.148688	-1.435987	0.500085
H59	H	-0.359005	-1.587627	0.000014
H60	H	0.140995	-1.087627	0.500014
H61	H	0.228139	-1.641852	-0.519233
H62	H	0.728139	-1.141852	-0.019233
H63	H	0.061547	-1.881765	-0.480754
H64	H	0.561547	-1.381765	0.019246
