data_functionalizedCrystal
_audit_creation_method	'MofGen! by Chris Wilmer'
_symmetry_space_group_name_H-M	'P1'
_symmetry_Int_Tables_number	1
_symmetry_cell_setting	triclinic
loop_
_symmetry_equiv_pos_as_xyz
  x,y,z
_cell_length_a	9.065218
_cell_length_b	9.616153
_cell_length_c	9.065218
_cell_angle_alpha	90.004688
_cell_angle_beta	85.015885
_cell_angle_gamma	90.002259
loop_
_atom_site_label
_atom_site_type_symbol
_atom_site_fract_x
_atom_site_fract_y
_atom_site_fract_z
O1	O	1.960396	0.115643	0.216361
O2	O	1.531111	0.115644	0.234108
O3	O	1.754627	0.115641	0.010592
O4	O	1.736881	0.115647	0.439877
O5	O	1.754618	-0.115651	0.010576
O6	O	1.531102	-0.115647	0.234092
O7	O	1.960387	-0.115648	0.216345
Zn8	Zn	1.745743	-0.152370	0.225216
Zn9	Zn	1.745755	0.152366	0.225237
O10	O	1.736872	-0.115645	0.439861
C11	C	1.476120	-0.000001	0.232394
C12	C	1.312277	-0.000000	0.227294
N13	N	1.745746	-0.360345	0.225201
C14	C	1.865763	-0.580673	0.106052
C15	C	1.865436	-0.419506	0.105593
C16	C	1.591353	-0.418875	0.189517
C17	C	1.592066	-0.580093	0.188681
C18	C	1.778774	-0.580217	0.380448
C19	C	1.782251	-0.418989	0.379449
C20	C	2.015378	0.000000	0.218059
C21	C	2.179221	0.000009	0.223158
C22	C	1.752917	-0.000003	-0.044403
C23	C	1.747817	0.000004	-0.208245
N24	N	1.745764	0.360341	0.225240
C25	C	1.738582	0.000002	0.494855
C26	C	1.743681	0.000004	0.658698
H27	H	1.980137	-0.379931	0.127146
H28	H	1.691293	-0.618370	0.469169
O29	O	1.910421	-0.628772	0.420507
C30	C	1.974714	-0.717359	0.308815
H31	H	1.928336	-0.691444	0.199165
H32	H	1.947892	-0.830091	0.339449
C33	C	2.200791	-0.728681	0.428219
C34	C	2.143837	-0.696844	0.293542
H35	H	2.305114	-0.716032	0.418801
H36	H	2.157474	-0.669002	0.503472
H37	H	2.178425	-0.822623	0.453733
H38	H	2.166187	-0.602899	0.268040
H39	H	2.187162	-0.756507	0.218284
H40	H	1.844757	-0.621205	-0.008431
H41	H	1.844129	-0.380954	-0.009549
H42	H	1.895839	-0.380734	0.406479
H43	H	1.700669	-0.378714	0.472452
O44	O	1.557947	-0.625147	0.053562
C45	C	1.675918	-0.705516	-0.012457
H46	H	1.743933	-0.748501	0.077253
H47	H	1.749388	-0.637698	-0.091522
C48	C	1.530125	-0.774059	-0.209134
C49	C	1.613654	-0.826863	-0.098949
H50	H	1.491721	-0.848908	-0.262493
H51	H	1.450647	-0.719909	-0.164660
H52	H	1.591363	-0.717544	-0.275006
H53	H	1.552412	-0.883362	-0.033069
H54	H	1.693121	-0.881026	-0.143415
O55	O	1.556302	-0.370503	0.055989
C56	C	1.550095	-0.224024	0.059539
H57	H	1.619277	-0.183634	0.149597
H58	H	1.430283	-0.189196	0.084231
C59	C	1.526735	-0.215233	-0.202200
C60	C	1.611717	-0.165625	-0.091598
H61	H	1.564740	-0.179209	-0.295430
H62	H	1.530912	-0.313919	-0.204592
H63	H	1.426898	-0.186207	-0.181605
H64	H	1.711547	-0.194667	-0.112185
H65	H	1.607559	-0.066943	-0.089213
H66	H	1.499982	-0.619115	0.272084
O67	O	2.003166	-0.626806	0.131133
C68	C	2.063597	-0.702682	0.007185
H69	H	2.007528	-0.669590	-0.095000
H70	H	2.044619	-0.818542	0.027629
C71	C	2.299849	-0.714403	0.107716
C72	C	2.230993	-0.673750	-0.017793
H73	H	2.403107	-0.696563	0.092311
H74	H	2.259135	-0.663289	0.191225
H75	H	2.284019	-0.810951	0.124739
H76	H	2.246808	-0.577201	-0.034803
H77	H	2.271714	-0.724848	-0.101306
H78	H	1.499818	-0.380556	0.273926
