data_functionalizedCrystal
_audit_creation_method	'MofGen! by Chris Wilmer'
_symmetry_space_group_name_H-M	'P1'
_symmetry_Int_Tables_number	1
_symmetry_cell_setting	triclinic
loop_
_symmetry_equiv_pos_as_xyz
  x,y,z
_cell_length_a	9.065218
_cell_length_b	14.586319
_cell_length_c	9.065218
_cell_angle_alpha	90.002499
_cell_angle_beta	94.984115
_cell_angle_gamma	89.995792
loop_
_atom_site_label
_atom_site_type_symbol
_atom_site_fract_x
_atom_site_fract_y
_atom_site_fract_z
O1	O	-1.960401	0.076239	0.216356
O2	O	-1.531116	0.076240	0.234103
O3	O	-1.754632	0.076237	0.010587
O4	O	-1.736885	0.076241	0.439872
O5	O	-1.754613	-0.076244	0.010581
O6	O	-1.531098	-0.076241	0.234097
O7	O	-1.960383	-0.076242	0.216350
Cu8	Cu	-1.745738	-0.090164	0.225223
Cu9	Cu	-1.745760	0.090162	0.225230
O10	O	-1.736867	-0.076240	0.439866
C11	C	-1.752917	-0.000002	-0.044403
C12	C	-1.747817	0.000003	-0.208245
C13	C	-1.476120	-0.000001	0.232394
C14	C	-1.312277	-0.000000	0.227294
N15	N	-1.745734	-0.216996	0.225218
C16	C	-2.015378	0.000000	0.218059
C17	C	-2.179221	0.000006	0.223158
C18	C	-1.844746	-0.547991	0.126278
C19	C	-1.844743	-0.452010	0.126279
C20	C	-1.646759	-0.452018	0.324174
C21	C	-1.646771	-0.547998	0.324179
C22	C	-1.745763	-0.595982	0.225223
C23	C	-1.745747	-0.404021	0.225218
C24	C	-1.745743	-0.299954	0.225220
C25	C	-1.745770	-0.700055	0.225223
N26	N	-1.745776	0.216994	0.225224
C27	C	-1.738582	0.000001	0.494855
C28	C	-1.743681	0.000003	0.658698
H29	H	-1.925353	-0.587057	0.045704
Cl30	Cl	-1.969187	-0.391681	0.001889
H31	H	-1.566160	-0.412940	0.404740
H32	H	-1.566166	-0.587074	0.404759
