data_functionalizedCrystal
_audit_creation_method	'MofGen! by Chris Wilmer'
_symmetry_space_group_name_H-M	'P1'
_symmetry_Int_Tables_number	1
_symmetry_cell_setting	triclinic
loop_
_symmetry_equiv_pos_as_xyz
  x,y,z
_cell_length_a	16.120530
_cell_length_b	16.120444
_cell_length_c	13.033109
_cell_angle_alpha	100.386577
_cell_angle_beta	80.300523
_cell_angle_gamma	90.168401
loop_
_atom_site_label
_atom_site_type_symbol
_atom_site_fract_x
_atom_site_fract_y
_atom_site_fract_z
Zn1	Zn	1.322064	-0.470408	-0.704670
Zn2	Zn	1.822064	0.029592	-0.204670
Zn3	Zn	1.298737	-0.591578	-0.536138
Zn4	Zn	1.798737	-0.091578	-0.036138
Zn5	Zn	1.165123	-0.443589	-0.518275
Zn6	Zn	1.665123	0.056411	-0.018275
Zn7	Zn	1.175821	-0.602259	-0.703704
Zn8	Zn	1.675821	-0.102259	-0.203704
O9	O	1.240436	-0.526958	-0.615697
O10	O	1.740436	-0.026958	-0.115697
O11	O	1.436091	-0.493235	-0.690194
O12	O	1.936091	0.006765	-0.190194
O13	O	1.266774	-0.556254	-0.385634
O14	O	1.766774	-0.056254	0.114366
O15	O	1.191227	-0.330033	-0.535930
O16	O	1.691227	0.169967	-0.035930
O17	O	1.418953	-0.582259	-0.566374
O18	O	1.918953	-0.082259	-0.066374
O19	O	1.306530	-0.349736	-0.672874
O20	O	1.806530	0.150264	-0.172874
O21	O	1.168608	-0.447527	-0.372510
O22	O	1.668608	0.052473	0.127490
O23	O	1.049421	-0.457883	-0.534992
O24	O	1.549421	0.042117	-0.034992
O25	O	1.209459	-0.600462	-0.851966
O26	O	1.709459	-0.100462	-0.351966
O27	O	1.057280	-0.574457	-0.671226
O28	O	1.557280	-0.074457	-0.171226
O29	O	1.316903	-0.503591	-0.852677
O30	O	1.816903	-0.003591	-0.352677
O31	O	1.277147	-0.710109	-0.565437
O32	O	1.777147	-0.210109	-0.065437
O33	O	1.186841	-0.717956	-0.688547
O34	O	1.686841	-0.217956	-0.188547
C35	C	1.022982	-0.514419	-0.601067
C36	C	1.522982	-0.014419	-0.101067
C37	C	0.929956	-0.509078	-0.594834
C38	C	1.429956	-0.009078	-0.094834
C39	C	0.759638	-0.499307	-0.583463
C40	C	1.259638	0.000693	-0.083463
C41	C	0.722079	-0.554679	-0.648011
C42	C	1.222079	-0.054679	-0.148011
C43	C	0.627309	-0.549243	-0.641684
C44	C	1.127309	-0.049243	-0.141684
C45	C	0.854417	-0.504743	-0.589789
C46	C	1.354417	-0.004743	-0.089789
C47	C	1.230649	-0.744403	-0.628850
C48	C	1.730649	-0.244403	-0.128850
C49	C	1.226541	-0.837435	-0.634517
C50	C	1.726541	-0.337435	-0.134517
C51	C	1.261969	-1.045315	-0.586538
C52	C	1.761969	-0.545315	-0.086538
C53	C	1.219059	-1.007761	-0.644877
C54	C	1.719059	-0.507761	-0.144877
C55	C	1.223224	-0.912982	-0.639111
C56	C	1.723224	-0.412982	-0.139111
C57	C	1.257806	-1.140102	-0.592302
C58	C	1.757806	-0.640102	-0.092302
C59	C	1.458739	-0.539547	-0.630384
C60	C	1.958739	-0.039547	-0.130384
C61	C	1.551767	-0.544912	-0.636643
C62	C	2.051767	-0.044912	-0.136643
C63	C	1.266977	-0.556209	-0.891805
C64	C	1.766977	-0.056209	-0.391805
C65	C	1.278287	-0.568674	-1.009466
C66	C	1.778287	-0.068674	-0.509466
C67	C	1.250287	-0.308669	-0.602517
C68	C	1.750287	0.191331	-0.102517
C69	C	1.254485	-0.215647	-0.596900
C70	C	1.754485	0.284353	-0.096900
C71	C	1.234758	-0.520436	-1.055430
C72	C	1.734758	-0.020436	-0.555430
C73	C	1.246447	-0.533318	-1.177038
C74	C	1.746447	-0.033318	-0.677038
C75	C	1.214050	-0.497764	-0.340662
C76	C	1.714050	0.002236	0.159338
C77	C	1.202913	-0.485072	-0.222998
C78	C	1.702913	0.014928	0.277002
H79	H	1.179195	-1.046791	-0.699153
H80	H	1.679195	-0.546791	-0.199153
H81	H	1.188836	-0.469603	-1.004750
H82	H	1.688836	0.030397	-0.504750
C83	C	1.307691	-0.601181	-1.244416
C84	C	1.807691	-0.101181	-0.744416
C85	C	1.345569	-0.643201	-1.178443
C86	C	1.845569	-0.143201	-0.678443
C87	C	1.401982	-0.705727	-1.240474
C88	C	1.901982	-0.205727	-0.740474
H89	H	1.349788	-0.575904	-1.288080
H90	H	1.849788	-0.075904	-0.788080
H91	H	1.278159	-0.640381	-1.287571
H92	H	1.778159	-0.140381	-0.787571
H93	H	1.375100	-0.604008	-1.135306
H94	H	1.875100	-0.104008	-0.635306
H95	H	1.303493	-0.668496	-1.134779
H96	H	1.803493	-0.168496	-0.634779
H97	H	1.372450	-0.744927	-1.283629
H98	H	1.872450	-0.244927	-0.783629
H99	H	1.444073	-0.680443	-1.284136
H100	H	1.944073	-0.180443	-0.784136
H101	H	1.427683	-0.734251	-1.195721
H102	H	1.927683	-0.234251	-0.695721
H103	H	1.301830	-1.006289	-0.532264
H104	H	1.801830	-0.506289	-0.032264
C105	C	0.707553	-0.430783	-0.503316
C106	C	1.207553	0.069217	-0.003316
C107	C	0.648712	-0.468077	-0.434939
C108	C	1.148712	0.031923	0.065061
C109	C	0.600713	-0.404982	-0.361085
C110	C	1.100713	0.095018	0.138915
H111	H	0.678919	-0.396714	-0.539321
H112	H	1.178919	0.103286	-0.039321
H113	H	0.743544	-0.396760	-0.463580
H114	H	1.243544	0.103240	0.036420
H115	H	0.612726	-0.502086	-0.474670
H116	H	1.112726	-0.002086	0.025330
H117	H	0.677323	-0.502140	-0.398909
H118	H	1.177323	-0.002140	0.101091
H119	H	0.636704	-0.370959	-0.321348
H120	H	1.136704	0.129041	0.178652
H121	H	0.572085	-0.370918	-0.397099
H122	H	1.072085	0.129082	0.102901
H123	H	0.560790	-0.430277	-0.314676
H124	H	1.060790	0.069723	0.185324
C125	C	1.141748	-0.417300	-1.155257
C126	C	1.641748	0.082700	-0.655257
C127	C	1.142332	-0.417976	-1.048107
C128	C	1.642332	0.082024	-0.548107
C129	C	1.086007	-0.355551	-0.985674
C130	C	1.586007	0.144449	-0.485674
H131	H	1.086642	-0.428137	-1.170149
H132	H	1.586642	0.071863	-0.670149
H133	H	1.158262	-0.363651	-1.170689
H134	H	1.658262	0.136349	-0.670689
H135	H	1.125813	-0.471613	-1.032682
H136	H	1.625813	0.028387	-0.532682
H137	H	1.197424	-0.407128	-1.033183
H138	H	1.697424	0.092872	-0.533183
H139	H	1.102521	-0.301901	-1.001106
H140	H	1.602521	0.198099	-0.501106
H141	H	1.030905	-0.366394	-1.000574
H142	H	1.530905	0.133606	-0.500574
H143	H	1.086402	-0.355996	-0.912966
H144	H	1.586402	0.144004	-0.412966
H145	H	0.761099	-0.606167	-0.708025
H146	H	1.261099	-0.106167	-0.208025
H147	H	1.324205	-0.619511	-1.060145
H148	H	1.824205	-0.119511	-0.560145
