data_functionalizedCrystal
_audit_creation_method	'MofGen! by Chris Wilmer'
_symmetry_space_group_name_H-M	'P1'
_symmetry_Int_Tables_number	1
_symmetry_cell_setting	triclinic
loop_
_symmetry_equiv_pos_as_xyz
  x,y,z
_cell_length_a	29.839134
_cell_length_b	29.839131
_cell_length_c	29.839135
_cell_angle_alpha	90.015469
_cell_angle_beta	90.013757
_cell_angle_gamma	90.021992
loop_
_atom_site_label
_atom_site_type_symbol
_atom_site_fract_x
_atom_site_fract_y
_atom_site_fract_z
Zn1	Zn	0.686726	-0.179159	0.254008
Zn2	Zn	1.020060	0.154174	0.587341
Zn3	Zn	1.353393	0.487508	0.920674
Zn4	Zn	0.686657	-0.254268	0.178877
Zn5	Zn	1.019990	0.079065	0.512211
Zn6	Zn	1.353323	0.412398	0.845544
Zn7	Zn	0.611607	-0.179128	0.178890
Zn8	Zn	0.944941	0.154206	0.512223
Zn9	Zn	1.278274	0.487539	0.845557
Zn10	Zn	0.611557	-0.254237	0.253979
Zn11	Zn	0.944890	0.079096	0.587312
Zn12	Zn	1.278224	0.412429	0.920645
O13	O	0.649137	-0.216698	0.216438
O14	O	0.982470	0.116635	0.549772
O15	O	1.315803	0.449969	0.883105
O16	O	0.749584	-0.189149	0.244048
O17	O	1.082918	0.144185	0.577382
O18	O	1.416251	0.477518	0.910715
O19	O	0.676693	-0.244300	0.116012
O20	O	1.010026	0.089033	0.449345
O21	O	1.343360	0.422366	0.782679
O22	O	0.621622	-0.116265	0.188872
O23	O	0.954956	0.217069	0.522205
O24	O	1.288289	0.550402	0.855538
O25	O	0.749533	-0.244331	0.188851
O26	O	1.082866	0.089002	0.522184
O27	O	1.416200	0.422336	0.855517
O28	O	0.676812	-0.116288	0.244060
O29	O	1.010145	0.217046	0.577394
O30	O	1.343479	0.550379	0.910727
O31	O	0.621554	-0.189095	0.116021
O32	O	0.954888	0.144239	0.449355
O33	O	1.288221	0.477572	0.782688
O34	O	0.548733	-0.189065	0.188844
O35	O	0.882067	0.144268	0.522177
O36	O	1.215400	0.477602	0.855510
O37	O	0.621537	-0.244278	0.316850
O38	O	0.954870	0.089055	0.650183
O39	O	1.288203	0.422388	0.983516
O40	O	0.548697	-0.244248	0.244011
O41	O	0.882030	0.089086	0.577345
O42	O	1.215363	0.422419	0.910678
O43	O	0.676763	-0.189119	0.316871
O44	O	1.010097	0.144215	0.650204
O45	O	1.343430	0.477548	0.983538
O46	O	0.676644	-0.317131	0.188823
O47	O	1.009977	0.016202	0.522156
O48	O	1.343311	0.349535	0.855489
O49	O	0.621469	-0.317109	0.243999
O50	O	0.954802	0.016225	0.577332
O51	O	1.288136	0.349558	0.910666
C52	C	0.532414	-0.216650	0.216426
C53	C	0.865748	0.116683	0.549759
C54	C	1.199081	0.450017	0.883093
C55	C	0.482480	-0.216640	0.216431
C56	C	0.815813	0.116693	0.549765
C57	C	1.149146	0.450027	0.883098
C58	C	0.125915	-0.188025	0.245236
C59	C	0.459249	0.145309	0.578570
C60	C	0.792582	0.478642	0.911903
C61	C	0.313588	-0.187988	0.245226
C62	C	0.646922	0.145345	0.578559
C63	C	0.980255	0.478678	0.911893
O64	O	0.337872	-0.163601	0.269715
O65	O	0.671205	0.169732	0.603048
O66	O	1.004539	0.503065	0.936382
N67	N	0.337035	-0.216670	0.216442
N68	N	0.670368	0.116664	0.549775
N69	N	1.003701	0.449997	0.883109
C70	C	0.313560	-0.245364	0.187660
C71	C	0.646893	0.087969	0.520994
C72	C	0.980227	0.421303	0.854327
O73	O	0.337809	-0.269761	0.163181
O74	O	0.671142	0.063572	0.496514
O75	O	1.004475	0.396905	0.829847
C76	C	0.125888	-0.245402	0.187673
C77	C	0.459221	0.087931	0.521007
C78	C	0.792554	0.421265	0.854340
C79	C	0.102444	-0.216716	0.216456
C80	C	0.435777	0.116618	0.549789
C81	C	0.769110	0.449951	0.883123
C82	C	0.102471	-0.159341	0.274017
C83	C	0.435805	0.173992	0.607351
C84	C	0.769138	0.507326	0.940684
C85	C	0.055556	-0.159349	0.274018
C86	C	0.388889	0.173985	0.607351
C87	C	0.722222	0.507318	0.940685
C88	C	0.032084	-0.188040	0.245238
C89	C	0.365418	0.145294	0.578571
C90	C	0.698751	0.478627	0.911904
C91	C	0.055528	-0.216723	0.216457
C92	C	0.388862	0.116610	0.549790
C93	C	0.722195	0.449943	0.883123
C94	C	0.102414	-0.274098	0.158894
C95	C	0.435747	0.059235	0.492228
C96	C	0.769080	0.392569	0.825561
C97	C	0.055493	-0.274106	0.158901
C98	C	0.388826	0.059227	0.492234
C99	C	0.722159	0.392561	0.825568
C100	C	0.032049	-0.245420	0.187684
C101	C	0.365382	0.087914	0.521017
C102	C	0.698715	0.421247	0.854350
C103	C	-0.014859	-0.245422	0.187677
C104	C	0.318475	0.087911	0.521010
C105	C	0.651808	0.421245	0.854344
N106	N	-0.038305	-0.216741	0.216461
N107	N	0.295028	0.116592	0.549795
N108	N	0.628362	0.449926	0.883128
C109	C	-0.014834	-0.188050	0.245241
C110	C	0.318500	0.145284	0.578575
C111	C	0.651833	0.478617	0.911908
C112	C	0.412090	-0.245341	0.187655
C113	C	0.745424	0.087992	0.520988
C114	C	1.078757	0.421325	0.854322
C115	C	0.459008	-0.245331	0.187651
C116	C	0.792342	0.088002	0.520984
C117	C	1.125675	0.421335	0.854318
C118	C	0.459034	-0.187956	0.245218
C119	C	0.792367	0.145377	0.578551
C120	C	1.125700	0.478710	0.911884
C121	C	0.412115	-0.187964	0.245219
C122	C	0.745448	0.145369	0.578552
C123	C	1.078782	0.478702	0.911885
C124	C	0.388644	-0.216660	0.216439
C125	C	0.721977	0.116673	0.549772
C126	C	1.055311	0.450007	0.883106
C127	C	-0.113359	-0.188068	0.245240
C128	C	0.219974	0.145266	0.578574
C129	C	0.553307	0.478599	0.911907
C130	C	-0.160279	-0.188076	0.245237
C131	C	0.173054	0.145257	0.578570
C132	C	0.506388	0.478590	0.911904
C133	C	-0.160300	-0.245453	0.187672
C134	C	0.173033	0.087881	0.521006
C135	C	0.506367	0.421214	0.854339
C136	C	-0.113385	-0.245443	0.187674
C137	C	0.219949	0.087891	0.521007
C138	C	0.553282	0.421224	0.854340
C139	C	-0.089915	-0.216748	0.216461
C140	C	0.243418	0.116585	0.549795
C141	C	0.576751	0.449918	0.883128
O142	O	-0.039171	-0.269800	0.163204
O143	O	0.294162	0.063533	0.496538
O144	O	0.627495	0.396867	0.829871
O145	O	-0.039090	-0.163663	0.269725
O146	O	0.294243	0.169670	0.603058
O147	O	0.627576	0.503004	0.936391
C148	C	0.172831	-0.188017	0.245236
C149	C	0.506164	0.145316	0.578569
C150	C	0.839497	0.478650	0.911903
C151	C	0.196275	-0.216700	0.216455
C152	C	0.529608	0.116633	0.549788
C153	C	0.862941	0.449966	0.883122
C154	C	0.172803	-0.245392	0.187675
C155	C	0.506136	0.087942	0.521008
C156	C	0.839470	0.421275	0.854341
C157	C	0.243192	-0.216690	0.216451
C158	C	0.576526	0.116643	0.549784
C159	C	0.909859	0.449976	0.883118
C160	C	0.266664	-0.187999	0.245231
C161	C	0.599997	0.145334	0.578565
C162	C	0.933331	0.478667	0.911898
C163	C	0.243218	-0.159318	0.274016
C164	C	0.576551	0.174015	0.607349
C165	C	0.909884	0.507348	0.940682
C166	C	0.196302	-0.159326	0.274016
C167	C	0.529636	0.174008	0.607350
C168	C	0.862969	0.507341	0.940683
C169	C	0.196249	-0.274073	0.158890
C170	C	0.529583	0.059261	0.492224
C171	C	0.862916	0.392594	0.825557
C172	C	0.243165	-0.274062	0.158892
C173	C	0.576498	0.059271	0.492225
C174	C	0.909832	0.392604	0.825559
C175	C	0.266637	-0.245371	0.187672
C176	C	0.599970	0.087962	0.521006
C177	C	0.933303	0.421295	0.854339
C178	C	0.649056	-0.333421	0.216416
C179	C	0.982389	-0.000087	0.549749
C180	C	1.315722	0.333246	0.883083
C181	C	0.649062	-0.383355	0.216422
C182	C	0.982395	-0.050022	0.549755
C183	C	1.315729	0.283312	0.883088
C184	C	0.677919	-0.692998	0.187750
C185	C	1.011252	-0.359664	0.521083
C186	C	1.344585	-0.026331	0.854417
C187	C	0.677974	-0.880671	0.187767
C188	C	1.011308	-0.547337	0.521101
C189	C	1.344641	-0.214004	0.854434
O190	O	0.702445	-0.904935	0.163373
O191	O	1.035778	-0.571601	0.496706
O192	O	1.369112	-0.238268	0.830039
N193	N	0.649230	-0.904140	0.216472
N194	N	0.982563	-0.570807	0.549806
N195	N	1.315897	-0.237473	0.883139
C196	C	0.620472	-0.880688	0.245177
C197	C	0.953805	-0.547355	0.578510
C198	C	1.287138	-0.214022	0.911844
O199	O	0.596028	-0.904957	0.269596
O200	O	0.929361	-0.571624	0.602929
O201	O	1.262694	-0.238290	0.936263
C202	C	0.620419	-0.693016	0.245161
C203	C	0.953752	-0.359683	0.578495
C204	C	1.287086	-0.026350	0.911828
C205	C	0.649162	-0.669549	0.216451
C206	C	0.982495	-0.336216	0.549785
C207	C	1.315829	-0.002883	0.883118
C208	C	0.706660	-0.669531	0.159043
C209	C	1.039993	-0.336197	0.492376
C210	C	1.373326	-0.002864	0.825709
C211	C	0.706644	-0.622615	0.159037
C212	C	1.039977	-0.289282	0.492370
C213	C	1.373311	0.044052	0.825704
C214	C	0.677887	-0.599167	0.187738
C215	C	1.011220	-0.265833	0.521072
C216	C	1.344554	0.067500	0.854405
C217	C	0.649146	-0.622634	0.216446
C218	C	0.982479	-0.289300	0.549779
C219	C	1.315813	0.044033	0.883112
C220	C	0.591663	-0.669565	0.273868
C221	C	0.924997	-0.336232	0.607201
C222	C	1.258330	-0.002899	0.940535
C223	C	0.591654	-0.622644	0.273862
C224	C	0.924987	-0.289311	0.607196
C225	C	1.258320	0.044022	0.940529
C226	C	0.620397	-0.599177	0.245152
C227	C	0.953730	-0.265844	0.578486
C228	C	1.287063	0.067489	0.911819
C229	C	0.620373	-0.552270	0.245141
C230	C	0.953707	-0.218937	0.578475
C231	C	1.287040	0.114397	0.911808
N232	N	0.649118	-0.528800	0.216436
N233	N	0.982451	-0.195467	0.549770
N234	N	1.315784	0.137866	0.883103
C235	C	0.677874	-0.552249	0.187735
C236	C	1.011208	-0.218916	0.521068
C237	C	1.344541	0.114418	0.854402
C238	C	0.620501	-0.979219	0.245182
C239	C	0.953834	-0.645886	0.578516
C240	C	1.287168	-0.312552	0.911849
C241	C	0.620514	-1.026137	0.245186
C242	C	0.953847	-0.692804	0.578519
C243	C	1.287180	-0.359470	0.911853
C244	C	0.678017	-1.026116	0.187777
C245	C	1.011350	-0.692783	0.521110
C246	C	1.344683	-0.359449	0.854443
C247	C	0.678002	-0.979197	0.187771
C248	C	1.011335	-0.645864	0.521105
C249	C	1.344668	-0.312531	0.854438
C250	C	0.649245	-0.955750	0.216478
C251	C	0.982579	-0.622416	0.549811
C252	C	1.315912	-0.289083	0.883144
C253	C	0.677839	-0.453723	0.187725
C254	C	1.011172	-0.120390	0.521058
C255	C	1.344505	0.212944	0.854391
C256	C	0.677819	-0.406803	0.187720
C257	C	1.011152	-0.073470	0.521053
C258	C	1.344486	0.259863	0.854387
C259	C	0.620318	-0.406829	0.245131
C260	C	0.953651	-0.073495	0.578464
C261	C	1.286984	0.259838	0.911797
C262	C	0.620335	-0.453744	0.245134
C263	C	0.953669	-0.120411	0.578467
C264	C	1.287002	0.212923	0.911800
C265	C	0.649100	-0.477190	0.216429
C266	C	0.982433	-0.143857	0.549763
C267	C	1.315766	0.189477	0.883096
O268	O	0.595919	-0.527977	0.269527
O269	O	0.929252	-0.194644	0.602860
O270	O	1.262586	0.138690	0.936194
O271	O	0.702322	-0.527972	0.163327
O272	O	1.035655	-0.194639	0.496660
O273	O	1.368989	0.138694	0.829993
C274	C	0.677935	-0.739913	0.187756
C275	C	1.011268	-0.406580	0.521089
C276	C	1.344601	-0.073246	0.854422
C277	C	0.649194	-0.763380	0.216463
C278	C	0.982527	-0.430047	0.549796
C279	C	1.315860	-0.096713	0.883130
C280	C	0.620437	-0.739932	0.245165
C281	C	0.953770	-0.406598	0.578498
C282	C	1.287103	-0.073265	0.911831
C283	C	0.649206	-0.810298	0.216466
C284	C	0.982540	-0.476965	0.549800
C285	C	1.315873	-0.143631	0.883133
C286	C	0.677963	-0.833746	0.187765
C287	C	1.011296	-0.500413	0.521098
C288	C	1.344630	-0.167080	0.854432
C289	C	0.706707	-0.810277	0.159060
C290	C	1.040041	-0.476944	0.492393
C291	C	1.373374	-0.143610	0.825727
C292	C	0.706692	-0.763361	0.159054
C293	C	1.040025	-0.430028	0.492388
C294	C	1.373358	-0.096695	0.825721
C295	C	0.591692	-0.763401	0.273869
C296	C	0.925026	-0.430068	0.607203
C297	C	1.258359	-0.096735	0.940536
C298	C	0.591710	-0.810317	0.273873
C299	C	0.925044	-0.476983	0.607206
C300	C	1.258377	-0.143650	0.940539
C301	C	0.620467	-0.833765	0.245171
C302	C	0.953801	-0.500432	0.578504
C303	C	1.287134	-0.167098	0.911838
C304	C	0.766315	-0.216747	0.216451
C305	C	1.099648	0.116587	0.549785
C306	C	1.432982	0.449920	0.883118
C307	C	0.816250	-0.216767	0.216457
C308	C	1.149583	0.116566	0.549790
C309	C	1.482916	0.449899	0.883123
C310	C	0.649152	-0.216699	0.333617
C311	C	0.982485	0.116635	0.666950
C312	C	1.315819	0.449968	1.000283
C313	C	0.649159	-0.216699	0.383551
C314	C	0.982492	0.116635	0.716885
C315	C	1.315825	0.449968	1.050218
C316	C	0.649230	-0.099520	0.216471
C317	C	0.982564	0.233814	0.549804
C318	C	1.315897	0.567147	0.883137
C319	C	0.649270	-0.049585	0.216484
C320	C	0.982604	0.283748	0.549818
C321	C	1.315937	0.617081	0.883151
C322	C	0.620424	-0.187955	0.693202
C323	C	0.953757	0.145378	1.026536
C324	C	1.287091	0.478711	1.359869
C325	C	0.620417	-0.187953	0.880875
C326	C	0.953750	0.145381	1.214209
C327	C	1.287084	0.478714	1.547542
O328	O	0.595989	-0.163522	0.905147
O329	O	0.929322	0.169811	1.238480
O330	O	1.262655	0.503144	1.571813
N331	N	0.649125	-0.216694	0.904336
N332	N	0.982458	0.116640	1.237670
N333	N	1.315791	0.449973	1.571003
C334	C	0.677834	-0.245439	0.880876
C335	C	1.011167	0.087894	1.214209
C336	C	1.344501	0.421227	1.547543
O337	O	0.702248	-0.269888	0.905137
O338	O	1.035582	0.063445	1.238471
O339	O	1.368915	0.396778	1.571804
C340	C	0.677839	-0.245444	0.693204
C341	C	1.011172	0.087889	1.026537
C342	C	1.344505	0.421223	1.359871
C343	C	0.649132	-0.216698	0.669745
C344	C	0.982466	0.116635	1.003079
C345	C	1.315799	0.449969	1.336412
C346	C	0.591720	-0.159212	0.669744
C347	C	0.925053	0.174121	1.003077
C348	C	1.258386	0.507455	1.336410
C349	C	0.591724	-0.159211	0.622828
C350	C	0.925057	0.174122	0.956162
C351	C	1.258390	0.507455	1.289495
C352	C	0.620432	-0.187954	0.599371
C353	C	0.953765	0.145379	0.932705
C354	C	1.287098	0.478713	1.266038
C355	C	0.649136	-0.216697	0.622830
C356	C	0.982469	0.116636	0.956163
C357	C	1.315803	0.449970	1.289497
C358	C	0.706546	-0.274192	0.669745
C359	C	1.039879	0.059142	1.003078
C360	C	1.373212	0.392475	1.336411
C361	C	0.706543	-0.274191	0.622824
C362	C	1.039877	0.059142	0.956157
C363	C	1.373210	0.392476	1.289490
C364	C	0.677837	-0.245445	0.599365
C365	C	1.011170	0.087888	0.932698
C366	C	1.344504	0.421222	1.266032
C367	C	0.677848	-0.245439	0.552458
C368	C	1.011182	0.087894	0.885791
C369	C	1.344515	0.421228	1.219124
N370	N	0.649141	-0.216698	0.528997
N371	N	0.982474	0.116635	0.862330
N372	N	1.315807	0.449969	1.195663
C373	C	0.620432	-0.187955	0.552453
C374	C	0.953766	0.145378	0.885787
C375	C	1.287099	0.478711	1.219120
C376	C	0.677830	-0.245434	0.979407
C377	C	1.011164	0.087899	1.312740
C378	C	1.344497	0.421233	1.646073
C379	C	0.677830	-0.245432	1.026325
C380	C	1.011163	0.087901	1.359658
C381	C	1.344496	0.421234	1.692991
C382	C	0.620412	-0.187946	1.026321
C383	C	0.953745	0.145387	1.359654
C384	C	1.287078	0.478720	1.692987
C385	C	0.620415	-0.187946	0.979402
C386	C	0.953748	0.145387	1.312735
C387	C	1.287082	0.478721	1.646068
C388	C	0.649123	-0.216693	0.955946
C389	C	0.982456	0.116640	1.289279
C390	C	1.315789	0.449973	1.622612
C391	C	0.620443	-0.187956	0.453928
C392	C	0.953776	0.145378	0.787261
C393	C	1.287109	0.478711	1.120594
C394	C	0.620450	-0.187956	0.407008
C395	C	0.953784	0.145377	0.740341
C396	C	1.287117	0.478710	1.073675
C397	C	0.677866	-0.245444	0.407016
C398	C	1.011200	0.087889	0.740350
C399	C	1.344533	0.421223	1.073683
C400	C	0.677861	-0.245442	0.453932
C401	C	1.011194	0.087891	0.787265
C402	C	1.344527	0.421225	1.120598
C403	C	0.649145	-0.216696	0.477386
C404	C	0.982479	0.116637	0.810720
C405	C	1.315812	0.449970	1.144053
O406	O	0.702260	-0.269860	0.528157
O407	O	1.035593	0.063473	0.861491
O408	O	1.368927	0.396807	1.194824
O409	O	0.596015	-0.163517	0.528184
O410	O	0.929348	0.169816	0.861517
O411	O	1.262681	0.503150	1.194851
C412	C	0.620420	-0.187956	0.740118
C413	C	0.953754	0.145377	1.073451
C414	C	1.287087	0.478711	1.406784
C415	C	0.649125	-0.216699	0.763576
C416	C	0.982458	0.116634	1.096910
C417	C	1.315791	0.449967	1.430243
C418	C	0.677833	-0.245442	0.740119
C419	C	1.011166	0.087891	1.073453
C420	C	1.344500	0.421225	1.406786
C421	C	0.649124	-0.216698	0.810494
C422	C	0.982458	0.116636	1.143827
C423	C	1.315791	0.449969	1.477161
C424	C	0.620416	-0.187955	0.833951
C425	C	0.953749	0.145378	1.167284
C426	C	1.287083	0.478711	1.500618
C427	C	0.591708	-0.159214	0.810490
C428	C	0.925042	0.174119	1.143823
C429	C	1.258375	0.507452	1.477157
C430	C	0.591712	-0.159214	0.763575
C431	C	0.925045	0.174120	1.096908
C432	C	1.258379	0.507453	1.430241
C433	C	0.706541	-0.274183	0.763580
C434	C	1.039874	0.059150	1.096914
C435	C	1.373207	0.392484	1.430247
C436	C	0.706535	-0.274181	0.810496
C437	C	1.039868	0.059152	1.143829
C438	C	1.373201	0.392486	1.477163
C439	C	0.677827	-0.245438	0.833953
C440	C	1.011160	0.087895	1.167286
C441	C	1.344493	0.421228	1.500619
C442	C	0.649121	-0.216703	1.099716
C443	C	0.982454	0.116630	1.433049
C444	C	1.315787	0.449963	1.766383
C445	C	0.649122	-0.216690	1.049781
C446	C	0.982455	0.116643	1.383115
C447	C	1.315788	0.449977	1.716448
H448	H	0.478092	-0.268686	0.164208
H449	H	0.811426	0.064648	0.497542
H450	H	1.144759	0.397981	0.830875
H451	H	0.701208	-0.268846	0.960313
H452	H	1.034541	0.064487	1.293646
H453	H	1.367874	0.397821	1.626980
C454	C	0.386278	-0.276904	0.155991
C455	C	0.719612	0.056429	0.489324
C456	C	1.052945	0.389762	0.822658
H457	H	0.406966	-0.293978	0.138847
H458	H	0.740299	0.039355	0.472180
H459	H	1.073632	0.372688	0.805513
H460	H	0.367977	-0.296512	0.173137
H461	H	0.701310	0.036821	0.506470
H462	H	1.034643	0.370154	0.839804
H463	H	0.367975	-0.259690	0.136446
H464	H	0.701308	0.073643	0.469779
H465	H	1.034641	0.406977	0.803112
H466	H	0.177218	-0.135966	0.297454
H467	H	0.510552	0.197367	0.630787
H468	H	0.843885	0.530700	0.964121
H469	H	0.730121	-0.829377	0.135689
H470	H	1.063454	-0.496043	0.469022
H471	H	1.396788	-0.162710	0.802356
C472	C	0.709441	-0.277060	0.381208
C473	C	1.042774	0.056273	0.714541
C474	C	1.376108	0.389606	1.047874
H475	H	0.705325	-0.272944	0.349906
H476	H	1.038659	0.060389	0.683239
H477	H	1.371992	0.393722	1.016573
H478	H	0.739633	-0.270504	0.388904
H479	H	1.072966	0.062830	0.722237
H480	H	1.406299	0.396163	1.055570
H481	H	0.702835	-0.307244	0.388886
H482	H	1.036168	0.026090	0.722219
H483	H	1.369502	0.359423	1.055553
H484	H	0.730050	-0.603511	0.135660
H485	H	1.063384	-0.270178	0.468993
H486	H	1.396717	0.063156	0.802327
H487	H	0.729917	-0.297591	0.744487
H488	H	1.063250	0.035743	1.077820
H489	H	1.396584	0.369076	1.411153
C490	C	0.560049	-0.695369	0.305453
C491	C	0.893382	-0.362036	0.638786
C492	C	1.226715	-0.028702	0.972120
H493	H	0.542928	-0.674678	0.322547
H494	H	0.876261	-0.341345	0.655881
H495	H	1.209594	-0.008011	0.989214
H496	H	0.540487	-0.713693	0.288259
H497	H	0.873820	-0.380360	0.621592
H498	H	1.207154	-0.047026	0.954926
H499	H	0.577231	-0.713650	0.325047
H500	H	0.910564	-0.380316	0.658381
H501	H	1.243897	-0.046983	0.991714
C502	C	0.560021	-0.596855	0.305440
C503	C	0.893354	-0.263521	0.638774
C504	C	1.226688	0.069812	0.972107
H505	H	0.542905	-0.617553	0.322535
H506	H	0.876238	-0.284220	0.655869
H507	H	1.209572	0.049113	0.989202
H508	H	0.577188	-0.578533	0.325028
H509	H	0.910521	-0.245199	0.658361
H510	H	1.243854	0.088134	0.991695
H511	H	0.540448	-0.578573	0.288235
H512	H	0.873781	-0.245240	0.621568
H513	H	1.207115	0.088094	0.954902
C514	C	0.269040	-0.127759	0.305675
C515	C	0.602374	0.205575	0.639008
C516	C	0.935707	0.538908	0.972341
H517	H	0.248361	-0.110673	0.322818
H518	H	0.581695	0.222660	0.656151
H519	H	0.915028	0.555994	0.989484
H520	H	0.287345	-0.144974	0.325215
H521	H	0.620678	0.188360	0.658548
H522	H	0.954012	0.521693	0.991881
H523	H	0.287342	-0.108155	0.288520
H524	H	0.620676	0.225179	0.621853
H525	H	0.954009	0.558512	0.955187
C526	C	-0.186125	-0.277012	0.156018
C527	C	0.147209	0.056321	0.489352
C528	C	0.480542	0.389654	0.822685
H529	H	-0.217424	-0.272910	0.160147
H530	H	0.115909	0.060424	0.493481
H531	H	0.449242	0.393757	0.826814
H532	H	-0.178446	-0.270396	0.125843
H533	H	0.154887	0.062938	0.459176
H534	H	0.488220	0.396271	0.792510
H535	H	-0.178441	-0.307207	0.162545
H536	H	0.154892	0.026126	0.495878
H537	H	0.488226	0.359460	0.829212
C538	C	0.560131	-0.127597	0.737776
C539	C	0.893464	0.205737	1.071109
C540	C	1.226797	0.539070	1.404443
H541	H	0.543032	-0.110484	0.758471
H542	H	0.876365	0.222849	1.091804
H543	H	1.209699	0.556182	1.425138
H544	H	0.577328	-0.108027	0.719482
H545	H	0.910661	0.225307	1.052815
H546	H	1.243994	0.558640	1.386149
H547	H	0.540540	-0.144777	0.719466
H548	H	0.873873	0.188557	1.052799
H549	H	1.207207	0.521890	1.386132
H550	H	0.262249	-0.297422	0.135449
H551	H	0.595582	0.035912	0.468782
H552	H	0.928916	0.369245	0.802116
H553	H	0.701432	-1.045216	0.164407
H554	H	1.034765	-0.711882	0.497740
H555	H	1.368098	-0.378549	0.831074
H556	H	0.701225	-0.387698	0.164339
H557	H	1.034558	-0.054365	0.497673
H558	H	1.367892	0.278969	0.831006
C559	C	0.709475	-0.479507	0.156147
C560	C	1.042808	-0.146174	0.489481
C561	C	1.376142	0.187159	0.822814
H562	H	0.726584	-0.458806	0.139049
H563	H	1.059918	-0.125473	0.472382
H564	H	1.393251	0.207861	0.805715
H565	H	0.729047	-0.497791	0.173347
H566	H	1.062380	-0.164458	0.506680
H567	H	1.395714	0.168876	0.840014
H568	H	0.692305	-0.497827	0.136556
H569	H	1.025639	-0.164494	0.469890
H570	H	1.358972	0.168840	0.803223
H571	H	0.036472	-0.135991	0.297458
H572	H	0.369805	0.197342	0.630791
H573	H	0.703139	0.530675	0.964125
C574	C	0.738293	-0.695317	0.127466
C575	C	1.071626	-0.361983	0.460799
C576	C	1.404959	-0.028650	0.794132
H577	H	0.755402	-0.674615	0.110369
H578	H	1.088736	-0.341281	0.443702
H579	H	1.422069	-0.007948	0.777035
H580	H	0.757864	-0.713603	0.144663
H581	H	1.091198	-0.380269	0.477997
H582	H	1.424531	-0.046936	0.811330
H583	H	0.721122	-0.713634	0.107873
H584	H	1.054455	-0.380301	0.441206
H585	H	1.387789	-0.046967	0.774540
C586	C	-0.087550	-0.156502	0.276903
C587	C	0.245784	0.176831	0.610237
C588	C	0.579117	0.510164	0.943570
H589	H	-0.108237	-0.139420	0.294039
H590	H	0.225096	0.193913	0.627372
H591	H	0.558430	0.527247	0.960706
H592	H	-0.069245	-0.173709	0.296450
H593	H	0.264089	0.159624	0.629783
H594	H	0.597422	0.492957	0.963116
H595	H	-0.069250	-0.136896	0.259750
H596	H	0.264084	0.196438	0.593083
H597	H	0.597417	0.529771	0.926417
H598	H	0.701407	-0.960093	0.164394
H599	H	1.034740	-0.626760	0.497727
H600	H	1.368073	-0.293426	0.831060
C601	C	0.128283	-0.127775	0.305676
C602	C	0.461616	0.205558	0.639009
C603	C	0.794950	0.538891	0.972343
H604	H	0.107594	-0.110694	0.322812
H605	H	0.440928	0.222639	0.656145
H606	H	0.774261	0.555972	0.989479
H607	H	0.146591	-0.144979	0.325222
H608	H	0.479924	0.188354	0.658556
H609	H	0.813257	0.521687	0.991889
H610	H	0.146580	-0.108167	0.288521
H611	H	0.479914	0.225166	0.621854
H612	H	0.813247	0.558499	0.955187
C613	C	0.738123	-0.305813	0.597025
C614	C	1.071456	0.027520	0.930358
C615	C	1.404790	0.360853	1.263691
H616	H	0.755219	-0.322929	0.617718
H617	H	1.088552	0.010404	0.951052
H618	H	1.421886	0.343738	1.284385
H619	H	0.720923	-0.325380	0.578711
H620	H	1.054256	0.007953	0.912044
H621	H	1.387590	0.341287	1.245378
H622	H	0.757716	-0.288636	0.578734
H623	H	1.091050	0.044698	0.912067
H624	H	1.424383	0.378031	1.245400
C625	C	0.484856	-0.156398	0.276878
C626	C	0.818189	0.176936	0.610211
C627	C	1.151522	0.510269	0.943544
H628	H	0.464177	-0.139314	0.294023
H629	H	0.797510	0.194019	0.627356
H630	H	1.130843	0.527352	0.960689
H631	H	0.503162	-0.173613	0.296416
H632	H	0.836495	0.159720	0.629749
H633	H	1.169828	0.493053	0.963083
H634	H	0.503156	-0.136791	0.259724
H635	H	0.836490	0.196542	0.593058
H636	H	1.169823	0.529875	0.926391
H637	H	-0.094296	-0.268797	0.164232
H638	H	0.239038	0.064536	0.497566
H639	H	0.572371	0.397869	0.830899
C640	C	0.588894	-1.051946	0.276764
C641	C	0.922227	-0.718612	0.610097
C642	C	1.255560	-0.385279	0.943431
H643	H	0.571770	-1.031257	0.293859
H644	H	0.905103	-0.697923	0.627192
H645	H	1.238437	-0.364590	0.960525
H646	H	0.569334	-1.070268	0.259566
H647	H	0.902667	-0.736935	0.592899
H648	H	1.236001	-0.403602	0.926232
H649	H	0.606074	-1.070228	0.296359
H650	H	0.939407	-0.736895	0.629692
H651	H	1.272740	-0.403561	0.963025
C652	C	0.386331	-0.156414	0.276884
C653	C	0.719664	0.176919	0.610217
C654	C	1.052997	0.510252	0.943551
H655	H	0.407033	-0.139329	0.294025
H656	H	0.740367	0.194004	0.627358
H657	H	1.073700	0.527337	0.960691
H658	H	0.368023	-0.136817	0.259740
H659	H	0.701357	0.196517	0.593073
H660	H	1.034690	0.529850	0.926406
H661	H	0.368035	-0.173637	0.296433
H662	H	0.701368	0.159696	0.629766
H663	H	1.034701	0.493030	0.963099
C664	C	0.588824	-0.156340	1.052129
C665	C	0.922157	0.176994	1.385462
C666	C	1.255491	0.510327	1.718795
H667	H	0.592933	-0.160463	1.083430
H668	H	0.926266	0.172870	1.416764
H669	H	1.259600	0.506203	1.750097
H670	H	0.595410	-0.126153	1.044456
H671	H	0.928743	0.207180	1.377789
H672	H	1.262077	0.540513	1.711123
H673	H	0.558635	-0.162916	1.044428
H674	H	0.891968	0.170417	1.377761
H675	H	1.225302	0.503751	1.711095
C676	C	0.128192	-0.305656	0.127235
C677	C	0.461525	0.027678	0.460568
C678	C	0.794859	0.361011	0.793901
H679	H	0.107487	-0.322746	0.110102
H680	H	0.440820	0.010588	0.443435
H681	H	0.774154	0.343921	0.776768
H682	H	0.146493	-0.288444	0.107686
H683	H	0.479827	0.044890	0.441019
H684	H	0.813160	0.378223	0.774352
H685	H	0.146493	-0.325256	0.144387
H686	H	0.479827	0.008078	0.477721
H687	H	0.813160	0.341411	0.811054
C688	C	0.709444	-0.277054	0.479737
C689	C	1.042777	0.056279	0.813070
C690	C	1.376110	0.389612	1.146404
H691	H	0.726542	-0.294172	0.459046
H692	H	1.059875	0.039162	0.792379
H693	H	1.393208	0.372495	1.125712
H694	H	0.729028	-0.259876	0.498052
H695	H	1.062361	0.073457	0.831385
H696	H	1.395695	0.406791	1.164718
H697	H	0.692241	-0.296627	0.498028
H698	H	1.025575	0.036707	0.831361
H699	H	1.358908	0.370040	1.164694
C700	C	0.588872	-0.156336	0.381204
C701	C	0.922205	0.176997	0.714537
C702	C	1.255539	0.510330	1.047871
H703	H	0.592987	-0.160448	0.349901
H704	H	0.926320	0.172886	0.683235
H705	H	1.259653	0.506219	1.016568
H706	H	0.558682	-0.162898	0.388883
H707	H	0.892015	0.170435	0.722216
H708	H	1.225348	0.503768	1.055549
H709	H	0.595474	-0.126153	0.388905
H710	H	0.928807	0.207180	0.722239
H711	H	1.262141	0.540514	1.055572
H712	H	0.036385	-0.297475	0.135466
H713	H	0.369719	0.035858	0.468799
H714	H	0.703052	0.369191	0.802132
H715	H	0.177144	-0.297438	0.135454
H716	H	0.510477	0.035896	0.468787
H717	H	0.843810	0.369229	0.802121
H718	H	0.597083	-0.960131	0.268559
H719	H	0.930416	-0.626798	0.601892
H720	H	1.263750	-0.293464	0.935226
H721	H	0.568300	-0.829420	0.297251
H722	H	0.901634	-0.496086	0.630585
H723	H	1.234967	-0.162753	0.963918
C724	C	0.588719	-0.479559	0.276713
C725	C	0.922052	-0.146225	0.610046
C726	C	1.255385	0.187108	0.943380
H727	H	0.571592	-0.458872	0.293807
H728	H	0.904925	-0.125539	0.627140
H729	H	1.238258	0.207794	0.960474
H730	H	0.569162	-0.497886	0.259516
H731	H	0.902495	-0.164553	0.592850
H732	H	1.235829	0.168780	0.926183
H733	H	0.605903	-0.497837	0.296308
H734	H	0.939236	-0.164504	0.629642
H735	H	1.272569	0.168830	0.962975
C736	C	0.588690	-0.381029	0.276702
C737	C	0.922023	-0.047696	0.610035
C738	C	1.255356	0.285637	0.943369
H739	H	0.592803	-0.349726	0.272588
H740	H	0.926137	-0.016393	0.605921
H741	H	1.259470	0.316940	0.939255
H742	H	0.558510	-0.388738	0.270106
H743	H	0.891843	-0.055405	0.603439
H744	H	1.225176	0.277929	0.936772
H745	H	0.595253	-0.388702	0.306895
H746	H	0.928586	-0.055368	0.640228
H747	H	1.261919	0.277965	0.973562
H748	H	0.730097	-0.744258	0.135676
H749	H	1.063430	-0.410925	0.469009
H750	H	1.396764	-0.077591	0.802343
H751	H	0.568276	-0.744313	0.297242
H752	H	0.901609	-0.410980	0.630576
H753	H	1.234942	-0.077646	0.963909
C754	C	0.588860	-0.156334	0.479721
C755	C	0.922193	0.177000	0.813054
C756	C	1.255526	0.510333	1.146388
H757	H	0.571770	-0.139214	0.459025
H758	H	0.905104	0.194119	0.792358
H759	H	1.238437	0.527453	1.125692
H760	H	0.569267	-0.173505	0.498014
H761	H	0.902600	0.159828	0.831348
H762	H	1.235934	0.493161	1.164681
H763	H	0.606063	-0.136763	0.498032
H764	H	0.939396	0.196570	0.831366
H765	H	1.272729	0.529903	1.164699
C766	C	0.560129	-0.127598	0.836296
C767	C	0.893462	0.205736	1.169630
C768	C	1.226796	0.539069	1.502963
H769	H	0.543033	-0.110475	0.815609
H770	H	0.876366	0.222858	1.148942
H771	H	1.209699	0.556191	1.482276
H772	H	0.540543	-0.144778	0.854589
H773	H	0.873876	0.188556	1.187922
H774	H	1.207209	0.521889	1.521256
H775	H	0.577333	-0.108030	0.854609
H776	H	0.910666	0.225303	1.187943
H777	H	1.244000	0.558636	1.521276
C778	C	0.560143	-0.127594	0.597030
C779	C	0.893477	0.205740	0.930363
C780	C	1.226810	0.539073	1.263696
H781	H	0.543045	-0.110481	0.617725
H782	H	0.876378	0.222852	0.951058
H783	H	1.209711	0.556186	1.284391
H784	H	0.577341	-0.108024	0.578736
H785	H	0.910674	0.225309	0.912069
H786	H	1.244008	0.558643	1.245403
H787	H	0.540552	-0.144773	0.578719
H788	H	0.873885	0.188561	0.912052
H789	H	1.207219	0.521894	1.245386
C790	C	0.588832	-0.156332	0.953602
C791	C	0.922165	0.177001	1.286935
C792	C	1.255499	0.510335	1.620268
H793	H	0.571734	-0.139218	0.974295
H794	H	0.905067	0.194115	1.307629
H795	H	1.238400	0.527449	1.640962
H796	H	0.606027	-0.136764	0.935305
H797	H	0.939361	0.196570	1.268638
H798	H	1.272694	0.529903	1.601971
H799	H	0.569241	-0.173515	0.935294
H800	H	0.902575	0.159818	1.268627
H801	H	1.235908	0.493151	1.601961
H802	H	0.568340	-0.135806	0.688837
H803	H	0.901673	0.197527	1.022171
H804	H	1.235006	0.530861	1.355504
H805	H	0.701210	-0.268835	1.045421
H806	H	1.034544	0.064498	1.378754
H807	H	1.367877	0.397831	1.712087
C808	C	0.738113	-0.305804	0.836295
C809	C	1.071447	0.027529	1.169629
C810	C	1.404780	0.360862	1.502962
H811	H	0.755207	-0.322924	0.815601
H812	H	1.088540	0.010410	1.148935
H813	H	1.421873	0.343743	1.482268
H814	H	0.757703	-0.288633	0.854611
H815	H	1.091036	0.044700	1.187945
H816	H	1.424370	0.378033	1.521278
H817	H	0.720906	-0.325374	0.854584
H818	H	1.054240	0.007959	1.187917
H819	H	1.387573	0.341293	1.521250
C820	C	-0.186065	-0.156523	0.276902
C821	C	0.147269	0.176810	0.610235
C822	C	0.480602	0.510144	0.943569
H823	H	-0.165364	-0.139439	0.294045
H824	H	0.167970	0.193895	0.627378
H825	H	0.501303	0.527228	0.960712
H826	H	-0.204369	-0.136924	0.259755
H827	H	0.128965	0.196409	0.593088
H828	H	0.462298	0.529743	0.926422
H829	H	-0.204365	-0.173744	0.296448
H830	H	0.128969	0.159589	0.629781
H831	H	0.462302	0.492922	0.963115
C832	C	0.738117	-0.305818	0.695539
C833	C	1.071451	0.027515	1.028872
C834	C	1.404784	0.360848	1.362206
H835	H	0.755207	-0.322939	0.674843
H836	H	1.088540	0.010394	1.008176
H837	H	1.421874	0.343728	1.341510
H838	H	0.757710	-0.288651	0.713855
H839	H	1.091044	0.044682	1.047188
H840	H	1.424377	0.378016	1.380521
H841	H	0.720909	-0.325387	0.713827
H842	H	1.054242	0.007946	1.047161
H843	H	1.387576	0.341279	1.380494
