data_functionalizedCrystal
_audit_creation_method	'MofGen! by Chris Wilmer'
_symmetry_space_group_name_H-M	'P1'
_symmetry_Int_Tables_number	1
_symmetry_cell_setting	triclinic
loop_
_symmetry_equiv_pos_as_xyz
  x,y,z
_cell_length_a	19.077105
_cell_length_b	21.295417
_cell_length_c	21.295120
_cell_angle_alpha	89.638316
_cell_angle_beta	87.622669
_cell_angle_gamma	87.726672
loop_
_atom_site_label
_atom_site_type_symbol
_atom_site_fract_x
_atom_site_fract_y
_atom_site_fract_z
Zn1	Zn	1.076318	-0.287084	-0.394550
Zn2	Zn	1.326318	-0.037084	-0.144550
Zn3	Zn	1.576318	0.212916	0.105450
Zn4	Zn	1.826318	0.462916	0.355450
Zn5	Zn	1.076121	-0.392953	-0.289264
Zn6	Zn	1.326121	-0.142953	-0.039264
Zn7	Zn	1.576121	0.107047	0.210736
Zn8	Zn	1.826121	0.357047	0.460736
Zn9	Zn	0.958519	-0.283494	-0.285064
Zn10	Zn	1.208519	-0.033494	-0.035064
Zn11	Zn	1.458519	0.216506	0.214936
Zn12	Zn	1.708519	0.466506	0.464936
Zn13	Zn	0.958572	-0.388106	-0.390281
Zn14	Zn	1.208572	-0.138106	-0.140281
Zn15	Zn	1.458572	0.111894	0.109719
Zn16	Zn	1.708572	0.361894	0.359719
O17	O	1.017382	-0.337909	-0.339790
O18	O	1.267382	-0.087909	-0.089790
O19	O	1.517382	0.162091	0.160210
O20	O	1.767382	0.412091	0.410210
O21	O	1.174785	-0.304659	-0.384128
O22	O	1.424785	-0.054659	-0.134128
O23	O	1.674785	0.195341	0.115872
O24	O	1.924785	0.445341	0.365872
O25	O	1.060416	-0.378960	-0.200611
O26	O	1.310416	-0.128960	0.049389
O27	O	1.560416	0.121040	0.299389
O28	O	1.810416	0.371040	0.549389
O29	O	0.974205	-0.195882	-0.299615
O30	O	1.224205	0.054118	-0.049615
O31	O	1.474205	0.304118	0.200385
O32	O	1.724205	0.554118	0.450385
O33	O	1.174641	-0.382441	-0.306775
O34	O	1.424641	-0.132441	-0.056775
O35	O	1.674641	0.117559	0.193225
O36	O	1.924641	0.367559	0.443225
O37	O	1.060751	-0.198520	-0.380054
O38	O	1.310751	0.051480	-0.130054
O39	O	1.560751	0.301480	0.119946
O40	O	1.810751	0.551480	0.369946
O41	O	0.974014	-0.298540	-0.197525
O42	O	1.224014	-0.048540	0.052475
O43	O	1.474014	0.201460	0.302475
O44	O	1.724014	0.451460	0.552475
O45	O	0.860032	-0.293839	-0.295476
O46	O	1.110032	-0.043839	-0.045476
O47	O	1.360032	0.206161	0.204524
O48	O	1.610032	0.456161	0.454524
O49	O	0.974296	-0.374179	-0.478943
O50	O	1.224296	-0.124179	-0.228943
O51	O	1.474296	0.125821	0.021057
O52	O	1.724296	0.375821	0.271057
O53	O	0.860071	-0.370698	-0.372779
O54	O	1.110071	-0.120698	-0.122779
O55	O	1.360071	0.129302	0.127221
O56	O	1.610071	0.379302	0.377221
O57	O	1.060803	-0.299958	-0.482080
O58	O	1.310803	-0.049958	-0.232080
O59	O	1.560803	0.200042	0.017920
O60	O	1.810803	0.450042	0.267920
O61	O	1.060468	-0.480398	-0.302636
O62	O	1.310468	-0.230398	-0.052636
O63	O	1.560468	0.019602	0.197364
O64	O	1.810468	0.269602	0.447364
O65	O	0.974105	-0.476836	-0.376853
O66	O	1.224105	-0.226836	-0.126853
O67	O	1.474105	0.023164	0.123147
O68	O	1.724105	0.273164	0.373147
C69	C	0.834513	-0.331353	-0.333209
C70	C	1.084513	-0.081353	-0.083209
C71	C	1.334513	0.168647	0.166791
C72	C	1.584513	0.418647	0.416791
C73	C	0.756281	-0.328564	-0.330409
C74	C	1.006281	-0.078564	-0.080409
C75	C	1.256281	0.171436	0.169591
C76	C	1.506281	0.421436	0.419591
C77	C	0.719566	-0.367330	-0.369278
C78	C	0.969566	-0.117330	-0.119278
C79	C	1.219566	0.132670	0.130722
C80	C	1.469566	0.382670	0.380722
C81	C	0.646059	-0.364701	-0.366650
C82	C	0.896059	-0.114701	-0.116650
C83	C	1.146059	0.135299	0.133350
C84	C	1.396059	0.385299	0.383350
C85	C	0.609268	-0.323308	-0.325149
C86	C	0.859268	-0.073308	-0.075149
C87	C	1.109268	0.176692	0.174851
C88	C	1.359268	0.426692	0.424851
C89	C	0.645988	-0.284537	-0.286279
C90	C	0.895988	-0.034537	-0.036279
C91	C	1.145988	0.215463	0.213721
C92	C	1.395988	0.465463	0.463721
C93	C	0.719494	-0.287164	-0.288911
C94	C	0.969494	-0.037164	-0.038911
C95	C	1.219494	0.212836	0.211089
C96	C	1.469494	0.462836	0.461089
C97	C	0.389424	-0.311152	-0.312973
C98	C	0.639424	-0.061152	-0.062973
C99	C	0.889424	0.188848	0.187027
C100	C	1.139424	0.438848	0.437027
C101	C	0.315912	-0.308529	-0.310343
C102	C	0.565912	-0.058529	-0.060343
C103	C	0.815912	0.191471	0.189657
C104	C	1.065912	0.441471	0.439657
C105	C	0.315989	-0.388693	-0.390714
C106	C	0.565989	-0.138693	-0.140714
C107	C	0.815989	0.111307	0.109286
C108	C	1.065989	0.361307	0.359286
C109	C	0.389496	-0.391318	-0.393340
C110	C	0.639496	-0.141318	-0.143340
C111	C	0.889496	0.108682	0.106660
C112	C	1.139496	0.358682	0.356660
C113	C	0.426210	-0.352545	-0.354472
C114	C	0.676210	-0.102545	-0.104472
C115	C	0.926210	0.147455	0.145528
C116	C	1.176210	0.397455	0.395528
N117	N	0.534131	-0.320621	-0.322461
N118	N	0.784131	-0.070621	-0.072461
N119	N	1.034131	0.179379	0.177539
N120	N	1.284131	0.429379	0.427539
N121	N	0.501345	-0.355230	-0.357164
N122	N	0.751345	-0.105230	-0.107164
N123	N	1.001345	0.144770	0.142836
N124	N	1.251345	0.394770	0.392836
C125	C	1.017290	-0.501458	-0.339751
C126	C	1.267290	-0.251458	-0.089751
C127	C	1.517290	-0.001458	0.160249
C128	C	1.767290	0.248542	0.410249
C129	C	1.017315	-0.571427	-0.339758
C130	C	1.267315	-0.321427	-0.089758
C131	C	1.517315	-0.071427	0.160242
C132	C	1.767315	0.178573	0.410242
C133	C	1.062324	-0.606128	-0.301157
C134	C	1.312324	-0.356128	-0.051157
C135	C	1.562324	-0.106128	0.198843
C136	C	1.812324	0.143872	0.448843
C137	C	1.062357	-0.671872	-0.301172
C138	C	1.312357	-0.421872	-0.051172
C139	C	1.562357	-0.171872	0.198828
C140	C	1.812357	0.078128	0.448828
C141	C	1.017368	-0.702911	-0.339782
C142	C	1.267368	-0.452911	-0.089782
C143	C	1.517368	-0.202911	0.160218
C144	C	1.767368	0.047089	0.410218
C145	C	0.972356	-0.668201	-0.378392
C146	C	1.222356	-0.418201	-0.128392
C147	C	1.472356	-0.168201	0.121608
C148	C	1.722356	0.081799	0.371608
C149	C	0.972330	-0.602459	-0.378380
C150	C	1.222330	-0.352459	-0.128380
C151	C	1.472330	-0.102459	0.121620
C152	C	1.722330	0.147541	0.371620
N153	N	0.955801	-0.803946	-0.342366
N154	N	1.205801	-0.553946	-0.092366
N155	N	1.455801	-0.303946	0.157634
N156	N	1.705801	-0.053946	0.407634
N157	N	0.955829	-0.866398	-0.342373
N158	N	1.205829	-0.616398	-0.092373
N159	N	1.455829	-0.366398	0.157627
N160	N	1.705829	-0.116398	0.407627
C161	C	1.017447	-0.900988	-0.339821
C162	C	1.267447	-0.650988	-0.089821
C163	C	1.517447	-0.400988	0.160179
C164	C	1.767447	-0.150988	0.410179
N165	N	1.079039	-0.870767	-0.337249
N166	N	1.329039	-0.620767	-0.087249
N167	N	1.579039	-0.370767	0.162751
N168	N	1.829039	-0.120767	0.412751
N169	N	1.079011	-0.808308	-0.337238
N170	N	1.329011	-0.558308	-0.087238
N171	N	1.579011	-0.308308	0.162762
N172	N	1.829011	-0.058308	0.412762
C173	C	1.017393	-0.774197	-0.339799
C174	C	1.267393	-0.524197	-0.089799
C175	C	1.517393	-0.274197	0.160201
C176	C	1.767393	-0.024197	0.410201
C177	C	1.062496	-1.006976	-0.301234
C178	C	1.312496	-0.756976	-0.051234
C179	C	1.562496	-0.506976	0.198766
C180	C	1.812496	-0.256976	0.448766
C181	C	1.062530	-1.072721	-0.301254
C182	C	1.312530	-0.822721	-0.051254
C183	C	1.562530	-0.572721	0.198746
C184	C	1.812530	-0.322721	0.448746
C185	C	0.972523	-1.069050	-0.378470
C186	C	1.222523	-0.819050	-0.128470
C187	C	1.472523	-0.569050	0.121530
C188	C	1.722523	-0.319050	0.371530
C189	C	0.972495	-1.003306	-0.378454
C190	C	1.222495	-0.753306	-0.128454
C191	C	1.472495	-0.503306	0.121546
C192	C	1.722495	-0.253306	0.371546
C193	C	1.017481	-0.972274	-0.339832
C194	C	1.267481	-0.722274	-0.089832
C195	C	1.517481	-0.472274	0.160168
C196	C	1.767481	-0.222274	0.410168
C197	C	1.200965	-0.344491	-0.346396
C198	C	1.450965	-0.094491	-0.096396
C199	C	1.700965	0.155509	0.153604
C200	C	1.950965	0.405509	0.403604
C201	C	1.279198	-0.347296	-0.349211
C202	C	1.529198	-0.097296	-0.099211
C203	C	1.779198	0.152704	0.150789
C204	C	2.029198	0.402704	0.400789
C205	C	1.017577	-0.336928	-0.503993
C206	C	1.267577	-0.086928	-0.253993
C207	C	1.517577	0.163072	-0.003993
C208	C	1.767577	0.413072	0.246007
C209	C	1.017661	-0.336510	-0.573966
C210	C	1.267661	-0.086510	-0.323966
C211	C	1.517661	0.163490	-0.073966
C212	C	1.767661	0.413490	0.176034
C213	C	1.017494	-0.173723	-0.339842
C214	C	1.267494	0.076277	-0.089842
C215	C	1.517494	0.326277	0.160158
C216	C	1.767494	0.576277	0.410158
C217	C	1.017542	-0.103756	-0.339865
C218	C	1.267542	0.146244	-0.089865
C219	C	1.517542	0.396244	0.160135
C220	C	1.767542	0.646244	0.410135
C221	C	1.017228	-0.338842	-0.176227
C222	C	1.267228	-0.088842	0.073773
C223	C	1.517228	0.161158	0.323773
C224	C	1.767228	0.411158	0.573773
C225	C	1.017282	-0.339088	-0.106259
C226	C	1.267282	-0.089088	0.143741
C227	C	1.517282	0.160912	0.393741
C228	C	1.767282	0.410912	0.643741
C229	C	1.062010	-0.299980	-0.075524
C230	C	1.312010	-0.049980	0.174476
C231	C	1.562010	0.200020	0.424476
C232	C	1.812010	0.450020	0.674476
C233	C	1.062062	-0.299663	-0.009785
C234	C	1.312062	-0.049663	0.240215
C235	C	1.562062	0.200337	0.490215
C236	C	1.812062	0.450337	0.740215
C237	C	1.017373	-0.338448	0.025217
C238	C	1.267373	-0.088448	0.275217
C239	C	1.517373	0.161552	0.525217
C240	C	1.767373	0.411552	0.775217
C241	C	0.972641	-0.377564	-0.005526
C242	C	1.222641	-0.127564	0.244474
C243	C	1.472641	0.122436	0.494474
C244	C	1.722641	0.372436	0.744474
C245	C	0.972596	-0.377884	-0.071263
C246	C	1.222596	-0.127884	0.178737
C247	C	1.472596	0.122116	0.428737
C248	C	1.722596	0.372116	0.678737
N249	N	0.955871	-0.340967	0.130797
N250	N	1.205871	-0.090967	0.380797
N251	N	1.455871	0.159033	0.630797
N252	N	1.705871	0.409033	0.880797
N253	N	0.955916	-0.340660	0.193245
N254	N	1.205916	-0.090660	0.443245
N255	N	1.455916	0.159340	0.693245
N256	N	1.705916	0.409340	0.943245
C257	C	1.017508	-0.337489	0.223281
C258	C	1.267508	-0.087489	0.473281
C259	C	1.517508	0.162511	0.723281
C260	C	1.767508	0.412511	0.973281
N261	N	1.079054	-0.334624	0.188509
N262	N	1.329054	-0.084624	0.438509
N263	N	1.579054	0.165376	0.688509
N264	N	1.829054	0.415376	0.938509
N265	N	1.079008	-0.334928	0.126055
N266	N	1.329008	-0.084928	0.376055
N267	N	1.579008	0.165072	0.626055
N268	N	1.829008	0.415072	0.876055
C269	C	1.017417	-0.338107	0.096498
C270	C	1.267417	-0.088107	0.346498
C271	C	1.517417	0.161893	0.596498
C272	C	1.767417	0.411893	0.846498
C273	C	1.062296	-0.298036	0.325297
C274	C	1.312296	-0.048036	0.575297
C275	C	1.562296	0.201964	0.825297
C276	C	1.812296	0.451964	1.075297
C277	C	1.062349	-0.297724	0.391037
C278	C	1.312349	-0.047724	0.641037
C279	C	1.562349	0.202276	0.891037
C280	C	1.812349	0.452276	1.141037
C281	C	0.972923	-0.375622	0.395295
C282	C	1.222923	-0.125622	0.645295
C283	C	1.472923	0.124378	0.895295
C284	C	1.722923	0.374378	1.145295
C285	C	0.972876	-0.375937	0.329556
C286	C	1.222876	-0.125937	0.579556
C287	C	1.472876	0.124063	0.829556
C288	C	1.722876	0.374063	1.079556
C289	C	1.017562	-0.337140	0.294561
C290	C	1.267562	-0.087140	0.544561
C291	C	1.517562	0.162860	0.794561
C292	C	1.767562	0.412860	1.044561
H293	H	0.616169	-0.396269	-0.398300
H294	H	0.866169	-0.146269	-0.148300
H295	H	1.116169	0.103731	0.101700
H296	H	1.366169	0.353731	0.351700
H297	H	0.285959	-0.274815	-0.276552
H298	H	0.535959	-0.024815	-0.026552
H299	H	0.785959	0.225185	0.223448
H300	H	1.035959	0.475185	0.473448
H301	H	0.936172	-0.409731	-0.096287
H302	H	1.186172	-0.159731	0.153713
H303	H	1.436172	0.090269	0.403713
H304	H	1.686172	0.340269	0.653713
H305	H	1.099011	-0.700131	-0.269738
H306	H	1.349011	-0.450131	-0.019738
H307	H	1.599011	-0.200131	0.230262
H308	H	1.849011	0.049869	0.480262
Br309	Br	0.769322	-0.234547	-0.236162
Br310	Br	1.019322	0.015453	0.013838
Br311	Br	1.269322	0.265453	0.263838
Br312	Br	1.519322	0.515453	0.513838
Br313	Br	1.122684	-0.247356	-0.123016
Br314	Br	1.372684	0.002644	0.126984
Br315	Br	1.622684	0.252644	0.376984
Br316	Br	1.872684	0.502644	0.626984
Br317	Br	0.911305	-0.710324	-0.430797
Br318	Br	1.161305	-0.460324	-0.180797
Br319	Br	1.411305	-0.210324	0.069203
Br320	Br	1.661305	0.039676	0.319203
H321	H	0.419307	-0.279585	-0.281319
H322	H	0.669307	-0.029585	-0.031319
H323	H	0.919307	0.220415	0.218681
H324	H	1.169307	0.470415	0.468681
Br325	Br	0.596058	-0.228354	-0.229962
Br326	Br	0.846058	0.021646	0.020038
Br327	Br	1.096058	0.271646	0.270038
Br328	Br	1.346058	0.521646	0.520038
Br329	Br	0.911242	-0.555361	-0.430773
Br330	Br	1.161242	-0.305361	-0.180773
Br331	Br	1.411242	-0.055361	0.069227
Br332	Br	1.661242	0.194639	0.319227
H333	H	1.098484	-0.267815	0.015244
H334	H	1.348484	-0.017815	0.265244
H335	H	1.598484	0.232185	0.515244
H336	H	1.848484	0.482185	0.765244
Br337	Br	1.123385	-0.564015	-0.248751
Br338	Br	1.373385	-0.314015	0.001249
Br339	Br	1.623385	-0.064015	0.251249
Br340	Br	1.873385	0.185985	0.501249
Br341	Br	0.439422	-0.447500	-0.449660
Br342	Br	0.689422	-0.197500	-0.199660
Br343	Br	0.939422	0.052500	0.050340
Br344	Br	1.189422	0.302500	0.300340
Br345	Br	1.123543	-0.964857	-0.248818
Br346	Br	1.373543	-0.714857	0.001182
Br347	Br	1.623543	-0.464857	0.251182
Br348	Br	1.873543	-0.214857	0.501182
H349	H	0.935896	-1.094321	-0.409910
H350	H	1.185896	-0.844321	-0.159910
H351	H	1.435896	-0.594321	0.090090
H352	H	1.685896	-0.344321	0.340090
Br353	Br	1.123627	-1.119818	-0.248867
Br354	Br	1.373627	-0.869818	0.001133
Br355	Br	1.623627	-0.619818	0.251133
Br356	Br	1.873627	-0.369818	0.501133
H357	H	0.935842	-0.975050	-0.409884
H358	H	1.185842	-0.725050	-0.159884
H359	H	1.435842	-0.475050	0.090116
H360	H	1.685842	-0.225050	0.340116
H361	H	0.936539	-0.407203	0.423793
H362	H	1.186539	-0.157203	0.673793
H363	H	1.436539	0.092797	0.923793
H364	H	1.686539	0.342797	1.173793
Br365	Br	0.911996	-0.430206	0.041975
Br366	Br	1.161996	-0.180206	0.291975
Br367	Br	1.411996	0.069794	0.541975
Br368	Br	1.661996	0.319794	0.791975
H369	H	1.098681	-0.266445	0.296802
H370	H	1.348681	-0.016445	0.546802
H371	H	1.598681	0.233555	0.796802
H372	H	1.848681	0.483555	1.046802
H373	H	1.098777	-0.265880	0.416059
H374	H	1.348777	-0.015880	0.666059
H375	H	1.598777	0.234120	0.916059
H376	H	1.848777	0.484120	1.166059
H377	H	0.936451	-0.407780	0.304532
H378	H	1.186451	-0.157780	0.554532
H379	H	1.436451	0.092220	0.804532
H380	H	1.686451	0.342220	1.054532
H381	H	0.286089	-0.420258	-0.422359
H382	H	0.536089	-0.170258	-0.172359
H383	H	0.786089	0.079742	0.077641
H384	H	1.036089	0.329742	0.327641
Br385	Br	0.769490	-0.423514	-0.425598
Br386	Br	1.019490	-0.173514	-0.175598
Br387	Br	1.269490	0.076486	0.074402
Br388	Br	1.519490	0.326486	0.324402
