data_functionalizedCrystal
_audit_creation_method	'MofGen! by Chris Wilmer'
_symmetry_space_group_name_H-M	'P1'
_symmetry_Int_Tables_number	1
_symmetry_cell_setting	triclinic
loop_
_symmetry_equiv_pos_as_xyz
  x,y,z
_cell_length_a	27.732048
_cell_length_b	10.065875
_cell_length_c	10.967926
_cell_angle_alpha	93.120479
_cell_angle_beta	83.701151
_cell_angle_gamma	98.710990
loop_
_atom_site_label
_atom_site_type_symbol
_atom_site_fract_x
_atom_site_fract_y
_atom_site_fract_z
O1	O	0.084260	0.265460	1.611328
O2	O	0.085640	0.183123	1.261258
O3	O	0.014784	0.226874	1.447161
O4	O	0.155117	0.221709	1.425425
O5	O	0.028352	0.445520	1.411711
O6	O	0.099208	0.401769	1.225808
O7	O	0.097828	0.484106	1.575877
Zn8	Zn	0.100672	0.477652	1.395214
Zn9	Zn	0.082796	0.189577	1.441921
O10	O	0.168685	0.440355	1.389974
C11	C	0.003551	0.336093	1.428979
C12	C	-0.050132	0.335781	1.427603
C13	C	0.091298	0.281916	1.198760
C14	C	0.087939	0.250539	1.065352
N15	N	0.112873	0.674258	1.363346
C16	C	-0.386821	0.359517	1.528820
C17	C	-0.588590	0.358299	1.523723
O18	O	-0.617901	0.380009	1.616278
N19	N	-0.610033	0.332373	1.413488
C20	C	-0.581031	0.306741	1.304520
O21	O	-0.603900	0.284647	1.210643
C22	C	-0.379264	0.307949	1.309619
C23	C	-0.357823	0.333891	1.419860
C24	C	-0.365380	0.385455	1.639052
C25	C	-0.314941	0.385766	1.640323
C26	C	-0.285942	0.360140	1.531364
C27	C	-0.307384	0.334202	1.421132
C28	C	-0.350264	0.282308	1.200655
C29	C	-0.299820	0.282609	1.201940
C30	C	-0.278379	0.308550	1.312180
C31	C	-0.227946	0.308887	1.313444
N32	N	-0.206503	0.334813	1.423679
C33	C	-0.235501	0.360440	1.532639
C34	C	-0.686961	0.306110	1.301850
C35	C	-0.737403	0.305811	1.300575
C36	C	-0.744958	0.357367	1.519779
C37	C	-0.694515	0.357676	1.521051
C38	C	-0.665518	0.332037	1.412086
C39	C	-0.129574	0.361093	1.535302
C40	C	-0.079130	0.361407	1.536563
C41	C	-0.071579	0.309844	1.317360
C42	C	-0.122019	0.309536	1.316097
C43	C	-0.151016	0.335158	1.425078
O44	O	-0.198606	0.287174	1.220941
O45	O	-0.212625	0.382501	1.626507
C46	C	-0.437261	0.359206	1.527548
C47	C	-0.458702	0.333268	1.417316
C48	C	-0.429704	0.307641	1.308356
C49	C	-0.509144	0.332968	1.416041
C50	C	-0.538142	0.358595	1.525001
C51	C	-0.516699	0.384521	1.635236
C52	C	-0.466259	0.384832	1.636508
C53	C	-0.451147	0.281715	1.198121
C54	C	-0.501587	0.281407	1.196858
C55	C	-0.530585	0.307034	1.305818
C56	C	0.179917	0.331133	1.408157
C57	C	0.233599	0.331437	1.409534
N58	N	0.070592	-0.007027	1.473799
C59	C	0.087038	0.757918	1.430826
C60	C	0.096431	0.909315	1.406309
C61	C	0.093470	0.349815	0.987510
C62	C	0.089997	0.317388	0.849626
C63	C	0.092170	0.385311	1.638376
C64	C	0.095529	0.416679	1.771785
H65	H	-0.061675	0.382536	1.626337
C66	C	0.001983	0.732044	1.509312
C67	C	0.047798	0.703277	1.533326
H68	H	-0.022240	0.698296	1.572592
H69	H	0.003137	0.826611	1.506312
H70	H	-0.006023	0.690714	1.432750
H71	H	0.055805	0.744616	1.609884
H72	H	0.046644	0.608692	1.536339
H73	H	-0.139475	0.288449	1.226325
H74	H	-0.153178	0.381952	1.624045
H75	H	0.125504	0.949766	1.330377
H76	H	0.041516	0.952521	1.549722
H77	H	-0.047960	0.288984	1.228648
C78	C	-0.773903	0.288801	1.724440
C79	C	-0.776838	0.385526	1.639556
H80	H	-0.793584	0.306184	1.798384
H81	H	-0.785342	0.201931	1.691545
H82	H	-0.740792	0.292707	1.740974
H83	H	-0.809948	0.381614	1.623015
H84	H	-0.765401	0.472418	1.672457
H85	H	-0.367713	0.261176	1.110886
H86	H	0.082690	0.208381	0.814196
C87	C	-0.367766	0.436468	1.855840
C88	C	-0.397249	0.413638	1.758833
H89	H	-0.387438	0.453884	1.929790
H90	H	-0.352667	0.359266	1.864139
H91	H	-0.343204	0.511753	1.839387
H92	H	-0.421809	0.338346	1.775283
H93	H	-0.412357	0.490849	1.750535
H94	H	-0.427542	0.260843	1.109391
C95	C	0.153831	0.868274	1.256405
C96	C	0.152122	0.728862	1.260852
H97	H	0.178064	0.901979	1.193131
H98	H	0.122756	0.887793	1.240098
H99	H	0.161839	0.909597	1.332967
H100	H	0.144110	0.687538	1.184292
H101	H	0.183203	0.709332	1.277150
H102	H	-0.297488	0.406885	1.730093
H103	H	0.100773	0.458816	1.022948
C104	C	0.106922	0.567484	0.946938
C105	C	0.105391	0.563840	0.819601
H106	H	0.113013	0.658334	0.976453
H107	H	0.076406	0.525596	0.985043
H108	H	0.132393	0.521011	0.965671
H109	H	0.079918	0.610305	0.800867
H110	H	0.135912	0.605746	0.781482
H111	H	-0.519039	0.260293	1.107078
C112	C	0.076548	0.099746	0.890190
C113	C	0.078078	0.103386	1.017528
H114	H	0.070463	0.008897	0.860670
H115	H	0.051079	0.146207	0.871456
H116	H	0.107069	0.141648	0.852086
H117	H	0.047556	0.061493	1.055633
H118	H	0.103548	0.056906	1.036272
H119	H	-0.754854	0.284709	1.210802
C120	C	-0.649147	0.275526	1.667883
C121	C	-0.670948	0.386177	1.642229
H122	H	-0.634598	0.293126	1.742693
H123	H	-0.673396	0.198108	1.675190
H124	H	-0.624656	0.260318	1.603170
H125	H	-0.695442	0.401380	1.706938
H126	H	-0.646697	0.463618	1.634931
H127	H	-0.276213	0.261728	1.113205
C128	C	-0.684570	0.255138	1.085046
C129	C	-0.655091	0.277944	1.182060
H130	H	-0.664894	0.237763	1.011091
H131	H	-0.709126	0.179849	1.101470
H132	H	-0.699676	0.332348	1.076770
H133	H	-0.639987	0.200729	1.190341
H134	H	-0.630526	0.353241	1.165632
H135	H	-0.448807	0.405956	1.726277
H136	H	-0.540317	0.405393	1.723954
