data_functionalizedCrystal
_audit_creation_method	'MofGen! by Chris Wilmer'
_symmetry_space_group_name_H-M	'P1'
_symmetry_Int_Tables_number	1
_symmetry_cell_setting	triclinic
loop_
_symmetry_equiv_pos_as_xyz
  x,y,z
_cell_length_a	13.033291
_cell_length_b	13.032721
_cell_length_c	12.759393
_cell_angle_alpha	82.850203
_cell_angle_beta	97.210938
_cell_angle_gamma	105.184202
loop_
_atom_site_label
_atom_site_type_symbol
_atom_site_fract_x
_atom_site_fract_y
_atom_site_fract_z
Zn1	Zn	1.570250	-0.216757	0.822554
Zn2	Zn	2.070250	0.283243	1.322554
Zn3	Zn	1.547560	-0.394413	0.666642
Zn4	Zn	2.047560	0.105587	1.166642
Zn5	Zn	1.392604	-0.239346	0.627046
Zn6	Zn	1.892604	0.260654	1.127046
Zn7	Zn	1.370029	-0.416863	0.822433
Zn8	Zn	1.870029	0.083137	1.322433
O9	O	1.470111	-0.316844	0.734669
O10	O	1.970111	0.183156	1.234669
O11	O	1.715883	-0.221474	0.818493
O12	O	2.215883	0.278526	1.318493
O13	O	1.526956	-0.373901	0.514369
O14	O	2.026956	0.126099	1.014369
O15	O	1.435113	-0.087708	0.636460
O16	O	1.935113	0.412292	1.136460
O17	O	1.699213	-0.351997	0.703945
O18	O	2.199213	0.148003	1.203945
O19	O	1.565628	-0.071112	0.780099
O20	O	2.065628	0.428888	1.280099
O21	O	1.413111	-0.259974	0.485279
O22	O	1.913111	0.240026	0.985279
O23	O	1.240966	-0.281743	0.636343
O24	O	1.740966	0.218257	1.136343
O25	O	1.396637	-0.390260	0.969469
O26	O	1.896637	0.109740	1.469469
O27	O	1.224380	-0.412164	0.779893
O28	O	1.724380	0.087836	1.279893
O29	O	1.543738	-0.243243	0.969558
O30	O	2.043738	0.256757	1.469558
O31	O	1.505066	-0.546032	0.703828
O32	O	2.005066	-0.046032	1.203828
O33	O	1.374635	-0.562526	0.818287
O34	O	1.874635	-0.062526	1.318287
C35	C	1.194132	-0.351841	0.703809
C36	C	1.694132	0.148159	1.203809
C37	C	1.076064	-0.366839	0.690635
C38	C	1.576064	0.133161	1.190635
C39	C	0.909635	-0.324535	0.727939
C40	C	1.409635	0.175465	1.227939
C41	C	1.031664	-0.309036	0.741555
C42	C	1.531664	0.190964	1.241555
C43	C	1.434967	-0.592816	0.765367
C44	C	1.934967	-0.092816	1.265367
C45	C	1.420030	-0.710866	0.778546
C46	C	1.920030	-0.210866	1.278546
C47	C	1.477963	-0.755294	0.727844
C48	C	1.977963	-0.255294	1.227844
C49	C	1.462526	-0.877304	0.741464
C50	C	1.962526	-0.377304	1.241464
C51	C	1.747167	-0.281712	0.765649
C52	C	2.247167	0.218288	1.265649
C53	C	1.865232	-0.266740	0.778851
C54	C	2.365232	0.233260	1.278851
C55	C	1.470200	-0.316736	1.008700
C56	C	1.970200	0.183264	1.508700
C57	C	1.470238	-0.316689	1.125475
C58	C	1.970238	0.183311	1.625475
C59	C	1.505420	-0.039791	0.703876
C60	C	2.005420	0.460209	1.203876
C61	C	1.520466	0.078272	0.690754
C62	C	2.020466	0.578272	1.190754
C63	C	1.470092	-0.316868	0.461702
C64	C	1.970092	0.183132	0.961702
C65	C	1.470298	-0.316589	0.344917
C66	C	1.970298	0.183411	0.844917
C67	C	1.529556	-0.375929	1.305215
C68	C	2.029556	0.124071	1.805215
C69	C	1.529524	-0.375982	1.195493
C70	C	2.029524	0.124018	1.695493
C71	C	1.410973	-0.257348	1.165184
C72	C	1.910973	0.242652	1.665184
C73	C	1.411000	-0.257301	1.274903
C74	C	1.911000	0.242699	1.774903
H75	H	1.023742	-0.427797	0.636963
H76	H	1.523742	0.072203	1.136963
N77	N	1.347038	-0.193388	1.089666
N78	N	1.847038	0.306612	1.589666
H79	H	1.309501	-0.155790	1.131470
H80	H	1.809501	0.344210	1.631470
H81	H	1.292359	-0.242873	1.043445
H82	H	1.792359	0.257127	1.543445
N83	N	0.934534	-0.186003	0.849949
N84	N	1.434534	0.313997	1.349949
H85	H	0.913206	-0.205020	0.924703
H86	H	1.413206	0.294980	1.424703
H87	H	0.924908	-0.112551	0.823091
H88	H	1.424908	0.387449	1.323091
H89	H	1.401499	-0.929591	0.794964
H90	H	1.901499	-0.429591	1.294964
H91	H	1.083988	-0.248074	0.795221
H92	H	1.583988	0.251926	1.295221
N93	N	1.601318	-0.852480	0.619899
N94	N	2.101318	-0.352480	1.119899
H95	H	1.600890	-0.775135	0.620213
H96	H	2.100890	-0.275135	1.120213
H97	H	1.582389	-0.873973	0.545158
H98	H	2.082389	-0.373973	1.045158
N99	N	1.339196	-0.780118	0.849411
N100	N	1.839196	-0.280118	1.349411
H101	H	1.339627	-0.857462	0.849097
H102	H	1.839627	-0.357462	1.349097
H103	H	1.265760	-0.770490	0.822381
H104	H	1.765760	-0.270490	1.322381
N105	N	1.558811	-0.686040	0.656995
N106	N	2.058811	-0.186040	1.156995
H107	H	1.558381	-0.608696	0.657311
H108	H	2.058381	-0.108696	1.157311
H109	H	1.539884	-0.707530	0.582252
H110	H	2.039884	-0.207530	1.082252
H111	H	1.577778	-0.424303	1.163175
H112	H	2.077778	0.075697	1.663175
H113	H	1.362740	-0.208979	1.307227
H114	H	1.862740	0.291021	1.807227
H115	H	1.577838	-0.424207	1.362217
H116	H	2.077838	0.075793	1.862217
N117	N	0.840341	-0.405284	0.656849
N118	N	1.340341	0.094716	1.156849
H119	H	0.861667	-0.386273	0.582094
H120	H	1.361667	0.113727	1.082094
H121	H	0.763012	-0.404878	0.657284
H122	H	1.263012	0.095122	1.157284
