data_functionalizedCrystal
_audit_creation_method	'MofGen! by Chris Wilmer'
_symmetry_space_group_name_H-M	'P1'
_symmetry_Int_Tables_number	1
_symmetry_cell_setting	triclinic
loop_
_symmetry_equiv_pos_as_xyz
  x,y,z
_cell_length_a	16.974800
_cell_length_b	17.699083
_cell_length_c	16.176319
_cell_angle_alpha	89.994467
_cell_angle_beta	86.346913
_cell_angle_gamma	83.336669
loop_
_atom_site_label
_atom_site_type_symbol
_atom_site_fract_x
_atom_site_fract_y
_atom_site_fract_z
O1	O	-1.048963	-0.096411	0.001457
O2	O	-0.818733	-0.108707	-0.013953
O3	O	-0.940353	0.007625	-0.005805
O4	O	-0.927343	-0.212744	-0.006691
O5	O	-0.940341	0.007604	0.131687
O6	O	-0.818721	-0.108729	0.123539
O7	O	-1.048951	-0.096432	0.138950
Cu8	Cu	-0.933835	-0.102582	0.143799
Cu9	Cu	-0.933849	-0.102558	-0.018802
O10	O	-0.927332	-0.212765	0.130802
C11	C	-0.789270	-0.108252	0.052821
C12	C	-0.701495	-0.106854	0.046946
C13	C	-0.939881	0.035812	0.062910
C14	C	-0.938482	0.119831	0.062817
C15	C	-1.078415	-0.096888	0.072174
C16	C	-1.166189	-0.098286	0.078043
C17	C	-0.660257	-0.106206	0.119135
C18	C	-0.577786	-0.104880	0.113617
C19	C	-0.536553	-0.104207	0.035909
C20	C	-0.577798	-0.104852	-0.036285
C21	C	-0.660268	-0.106173	-0.030766
C22	C	-0.289904	-0.100252	0.011368
C23	C	-0.207427	-0.098934	0.005854
C24	C	-0.207421	-0.098960	0.155757
C25	C	-0.289893	-0.100285	0.161269
C26	C	-0.331130	-0.100926	0.089074
N27	N	-0.452254	-0.102854	0.030267
N28	N	-0.415429	-0.102274	0.094717
C29	C	-0.927804	-0.240952	0.062085
C30	C	-0.929202	-0.324971	0.062173
N31	N	-0.933831	-0.102599	0.258164
C32	C	-1.009870	0.168404	0.067596
C33	C	-1.008552	0.247348	0.067501
C34	C	-0.935844	0.277718	0.062631
C35	C	-0.864450	0.229139	0.057849
C36	C	-0.865770	0.150197	0.057938
C37	C	-0.859127	0.547506	0.057486
C38	C	-0.857813	0.626455	0.057399
C39	C	-1.001909	0.644657	0.067048
C40	C	-1.003229	0.565715	0.067138
C41	C	-0.931835	0.517143	0.062351
C42	C	-0.933266	0.431543	0.062453
C43	C	-0.934412	0.363317	0.062535
N44	N	-0.933859	-0.102534	-0.133167
C45	C	-0.885993	-0.056661	0.820355
C46	C	-0.885992	-0.056667	0.733807
C47	C	-0.933852	-0.102551	0.693740
C48	C	-0.981724	-0.148426	0.740226
C49	C	-0.981729	-0.148416	0.826771
C50	C	-0.981704	-0.148469	0.391196
C51	C	-0.981694	-0.148478	0.304644
C52	C	-0.885967	-0.056720	0.298232
C53	C	-0.885972	-0.056710	0.384778
C54	C	-0.933846	-0.102582	0.431256
C55	C	-0.933849	-0.102573	0.525100
C56	C	-0.933846	-0.102564	0.599897
H57	H	-0.693822	-0.106761	0.182413
Cl58	Cl	-1.041910	-0.206084	0.885203
H59	H	-0.798602	0.651179	0.053435
H60	H	-0.544215	-0.104341	0.172401
H61	H	-1.069077	0.143683	0.071566
Cl62	Cl	-1.094636	0.527540	0.073257
Cl63	Cl	-0.341722	-0.101137	0.258962
H64	H	-0.173857	-0.098388	-0.057428
Cl65	Cl	-0.155576	-0.098151	0.246509
Cl66	Cl	-1.091662	0.705724	0.073062
Cl67	Cl	-0.341734	-0.101059	-0.079392
H68	H	-0.800994	0.507968	0.053588
H69	H	-1.020670	-0.185844	0.272024
H70	H	-0.544220	-0.104299	-0.099556
H71	H	-0.805250	0.253873	0.053879
H72	H	-0.807638	0.110649	0.054046
H73	H	-0.693843	-0.106701	-0.089550
H74	H	-0.847015	-0.019301	0.852970
H75	H	-1.066683	0.286893	0.071395
Cl76	Cl	-0.825789	0.000981	0.675379
Cl77	Cl	-0.825799	0.000972	0.435143
Cl78	Cl	-0.825784	0.000952	0.239797
H79	H	-1.020686	-0.185821	0.429028
Cl80	Cl	-1.041896	-0.206106	0.689856
