data_functionalizedCrystal
_audit_creation_method	'MofGen! by Chris Wilmer'
_symmetry_space_group_name_H-M	'P1'
_symmetry_Int_Tables_number	1
_symmetry_cell_setting	triclinic
loop_
_symmetry_equiv_pos_as_xyz
  x,y,z
_cell_length_a	29.839135
_cell_length_b	29.839131
_cell_length_c	19.076919
_cell_angle_alpha	92.267459
_cell_angle_beta	92.277631
_cell_angle_gamma	90.043950
loop_
_atom_site_label
_atom_site_type_symbol
_atom_site_fract_x
_atom_site_fract_y
_atom_site_fract_z
Zn1	Zn	0.676531	-0.189039	-0.397994
Zn2	Zn	0.679476	-0.261149	-0.280294
Zn3	Zn	0.604427	-0.186037	-0.280307
Zn4	Zn	0.601363	-0.264145	-0.397942
O5	O	0.640449	-0.225093	-0.339134
O6	O	0.739788	-0.198607	-0.382398
O7	O	0.672036	-0.248675	-0.181807
O8	O	0.614041	-0.123569	-0.295946
O9	O	0.741952	-0.251586	-0.295924
O10	O	0.667016	-0.125775	-0.382410
O11	O	0.616897	-0.193490	-0.181817
O12	O	0.541153	-0.196396	-0.295895
O13	O	0.608819	-0.256693	-0.496438
O14	O	0.538903	-0.253781	-0.382321
O15	O	0.664045	-0.201513	-0.496476
O16	O	0.669065	-0.324413	-0.295874
O17	O	0.611675	-0.326614	-0.382309
C18	C	0.523727	-0.225088	-0.339104
C19	C	0.473793	-0.225098	-0.339108
C20	C	0.640369	-0.341814	-0.339100
C21	C	0.640375	-0.391749	-0.339108
C22	C	0.163017	-0.197552	-0.384228
C23	C	-0.024656	-0.197556	-0.384248
O24	O	-0.049883	-0.174124	-0.422576
N25	N	-0.046994	-0.225094	-0.339160
C26	C	-0.022410	-0.252631	-0.294061
O27	O	-0.045715	-0.276050	-0.255707
C28	C	0.165263	-0.252624	-0.294038
C29	C	0.187598	-0.225088	-0.339134
C30	C	0.185352	-0.170017	-0.429319
C31	C	0.232268	-0.170018	-0.429316
C32	C	0.256848	-0.197554	-0.384222
C33	C	0.234514	-0.225089	-0.339131
C34	C	0.189847	-0.280159	-0.248937
C35	C	0.236768	-0.280154	-0.248934
C36	C	0.259102	-0.252617	-0.294029
C37	C	0.306010	-0.252626	-0.294034
N38	N	0.328347	-0.225088	-0.339122
C39	C	0.303766	-0.197552	-0.384216
C40	C	-0.120941	-0.252633	-0.294078
C41	C	-0.167859	-0.252635	-0.294084
C42	C	-0.170102	-0.197559	-0.384270
C43	C	-0.123183	-0.197560	-0.384266
C44	C	-0.098603	-0.225095	-0.339165
C45	C	0.402292	-0.197557	-0.384207
C46	C	0.449212	-0.197562	-0.384202
C47	C	0.451452	-0.252636	-0.294014
C48	C	0.404536	-0.252633	-0.294021
C49	C	0.379957	-0.225090	-0.339120
O50	O	0.331265	-0.276042	-0.255720
O51	O	0.327080	-0.174129	-0.422553
C52	C	0.116102	-0.197551	-0.384230
C53	C	0.093767	-0.225086	-0.339139
C54	C	0.118348	-0.252621	-0.294045
C55	C	0.046849	-0.225088	-0.339146
C56	C	0.022268	-0.197552	-0.384240
C57	C	0.044606	-0.170014	-0.429327
C58	C	0.091521	-0.170015	-0.429324
C59	C	0.096010	-0.280160	-0.248958
C60	C	0.049095	-0.280157	-0.248965
C61	C	0.024514	-0.252621	-0.294059
C62	C	0.670382	-0.700236	-0.294193
C63	C	0.670437	-0.887909	-0.294221
O64	O	0.695887	-0.911190	-0.256006
N65	N	0.640541	-0.912536	-0.339188
C66	C	0.610631	-0.890241	-0.384154
O67	O	0.585207	-0.915494	-0.422407
C68	C	0.610579	-0.702569	-0.384130
C69	C	0.640474	-0.677944	-0.339155
C70	C	0.700275	-0.675612	-0.249223
C71	C	0.700260	-0.628696	-0.249214
C72	C	0.670351	-0.606404	-0.294175
C73	C	0.640458	-0.631029	-0.339146
C74	C	0.580671	-0.680275	-0.429099
C75	C	0.580661	-0.633354	-0.429091
C76	C	0.610557	-0.608729	-0.384116
C77	C	0.610534	-0.561821	-0.384098
N78	N	0.640430	-0.537195	-0.339131
C79	C	0.670339	-0.559486	-0.294170
C80	C	0.610660	-0.988772	-0.384163
C81	C	0.610672	-1.035690	-0.384168
C82	C	0.670479	-1.033355	-0.294235
C83	C	0.670464	-0.986436	-0.294227
C84	C	0.640556	-0.964146	-0.339196
C85	C	0.670303	-0.460960	-0.294154
C86	C	0.670284	-0.414040	-0.294147
C87	C	0.610479	-0.416380	-0.384082
C88	C	0.610496	-0.463295	-0.384086
C89	C	0.640412	-0.485584	-0.339120
O90	O	0.585101	-0.538511	-0.422299
O91	O	0.695766	-0.534226	-0.255934
C92	C	0.670398	-0.747151	-0.294202
C93	C	0.640505	-0.771776	-0.339173
C94	C	0.610596	-0.749484	-0.384135
C95	C	0.640517	-0.818694	-0.339178
C96	C	0.670426	-0.840985	-0.294217
C97	C	0.700322	-0.816359	-0.249250
C98	C	0.700307	-0.769443	-0.249241
C99	C	0.580700	-0.774111	-0.429102
C100	C	0.580718	-0.821026	-0.429107
C101	C	0.610627	-0.843318	-0.384145
C102	C	0.757627	-0.225097	-0.339165
C103	C	0.807561	-0.225099	-0.339178
C104	C	0.635762	-0.229772	-0.522708
C105	C	0.633764	-0.231766	-0.600936
C106	C	0.640542	-0.107916	-0.339185
C107	C	0.640581	-0.057982	-0.339206
C108	C	0.661578	-0.203975	-0.637709
C109	C	0.659695	-0.205847	-0.711212
C110	C	0.630002	-0.235512	-0.747942
C111	C	0.602186	-0.263304	-0.711164
C112	C	0.604066	-0.261430	-0.637662
C113	C	0.621293	-0.244196	-0.967768
C114	C	0.619415	-0.246070	-1.041275
C115	C	0.676925	-0.188611	-1.041318
C116	C	0.678804	-0.186741	-0.967815
C117	C	0.650987	-0.214532	-0.931043
N118	N	0.628078	-0.237427	-0.823074
N119	N	0.652908	-0.212614	-0.855912
C120	C	0.645144	-0.220399	-0.156275
C121	C	0.647229	-0.218279	-0.078048
H122	H	0.467395	-0.175138	-0.420927
C123	C	0.547787	-0.707355	-0.478573
C124	C	0.565822	-0.740985	-0.533866
C125	C	0.532936	-0.768065	-0.583343
C126	C	0.482014	-0.761517	-0.577526
C127	C	0.463976	-0.727886	-0.522232
C128	C	0.496862	-0.700805	-0.472755
H129	H	0.603520	-0.745834	-0.538173
H130	H	0.546289	-0.792961	-0.624275
H131	H	0.457670	-0.781564	-0.614152
H132	H	0.426279	-0.723037	-0.517924
H133	H	0.483509	-0.675910	-0.431822
C134	C	0.690291	-0.175275	-0.751659
C135	C	0.741618	-0.178687	-0.741571
C136	C	0.772215	-0.148112	-0.782016
C137	C	0.751485	-0.114125	-0.832548
C138	C	0.700155	-0.110710	-0.842638
C139	C	0.669559	-0.141285	-0.802194
H140	H	0.756966	-0.203849	-0.704162
H141	H	0.810212	-0.150640	-0.774546
H142	H	0.774134	-0.091491	-0.862488
H143	H	0.684807	-0.085549	-0.880048
H144	H	0.631561	-0.138758	-0.809663
C145	C	0.733194	-0.742361	-0.199770
C146	C	0.715164	-0.708733	-0.144471
C147	C	0.748054	-0.681655	-0.094997
C148	C	0.798975	-0.688204	-0.100823
C149	C	0.817008	-0.721834	-0.156124
C150	C	0.784118	-0.748912	-0.205598
H151	H	0.677467	-0.703884	-0.140156
H152	H	0.734704	-0.656760	-0.054059
H153	H	0.823322	-0.668160	-0.064199
H154	H	0.854705	-0.726683	-0.160438
H155	H	0.797468	-0.773806	-0.246535
H156	H	0.171670	-0.302582	-0.212214
H157	H	0.024584	-0.147594	-0.466046
H158	H	0.556370	-0.841072	-0.465730
H159	H	0.724674	-0.834516	-0.212639
C160	C	0.569522	-0.295937	-0.751564
C161	C	0.567454	-0.298003	-0.832414
C162	C	0.534790	-0.330637	-0.872812
C163	C	0.504195	-0.361207	-0.832360
C164	C	0.506262	-0.359142	-0.751506
C165	C	0.538926	-0.326507	-0.711108
H166	H	0.590103	-0.275373	-0.862362
H167	H	0.533260	-0.332166	-0.932666
H168	H	0.480016	-0.385365	-0.862266
H169	H	0.483613	-0.381772	-0.721558
H170	H	0.540456	-0.324979	-0.651254
C171	C	0.573475	-0.292003	-0.597206
C172	C	0.539513	-0.271248	-0.546669
C173	C	0.508921	-0.301821	-0.506213
C174	C	0.512291	-0.353150	-0.516293
C175	C	0.546255	-0.373908	-0.566832
C176	C	0.576847	-0.343335	-0.607289
H177	H	0.537017	-0.233248	-0.539205
H178	H	0.483779	-0.286454	-0.468800
H179	H	0.489645	-0.375782	-0.486345
H180	H	0.548751	-0.411907	-0.574297
H181	H	0.601989	-0.358702	-0.644701
H182	H	0.586304	-0.970627	-0.420783
C183	C	0.375260	-0.167262	-0.433818
C184	C	0.379682	-0.173052	-0.513815
C185	C	0.352649	-0.142760	-0.563429
C186	C	0.321195	-0.106679	-0.533046
C187	C	0.316772	-0.100888	-0.453045
C188	C	0.343805	-0.131180	-0.403431
H189	H	0.402967	-0.199763	-0.536310
H190	H	0.355923	-0.147048	-0.622651
H191	H	0.301184	-0.084256	-0.569774
H192	H	0.293487	-0.074177	-0.430550
H193	H	0.340530	-0.126892	-0.344209
C194	C	0.158320	-0.139726	-0.478932
C195	C	0.162749	-0.145518	-0.558927
C196	C	0.135721	-0.115228	-0.608550
C197	C	0.104264	-0.079147	-0.578177
C198	C	0.099833	-0.073354	-0.498178
C199	C	0.126861	-0.103643	-0.448555
H200	H	0.186037	-0.172229	-0.581414
H201	H	0.139001	-0.119517	-0.667770
H202	H	0.084256	-0.056725	-0.614911
H203	H	0.076545	-0.046642	-0.475691
H204	H	0.123581	-0.099354	-0.389335
C205	C	0.703352	-0.959352	-0.244759
C206	C	0.685321	-0.925720	-0.189466
C207	C	0.718212	-0.898638	-0.139998
C208	C	0.769133	-0.905188	-0.145823
C209	C	0.787166	-0.938821	-0.201118
C210	C	0.754276	-0.965903	-0.250586
H211	H	0.647624	-0.920870	-0.185153
H212	H	0.704862	-0.873740	-0.099065
H213	H	0.793480	-0.885140	-0.109204
H214	H	0.824863	-0.943671	-0.205432
H215	H	0.767625	-0.990801	-0.291520
C216	C	0.577611	-0.490387	-0.433553
C217	C	0.526688	-0.483850	-0.427733
C218	C	0.493806	-0.510939	-0.477206
C219	C	0.511847	-0.544565	-0.532498
C220	C	0.562773	-0.551103	-0.538321
C221	C	0.595654	-0.524014	-0.488848
H222	H	0.513331	-0.458956	-0.386801
H223	H	0.456108	-0.506098	-0.472896
H224	H	0.487506	-0.564617	-0.569121
H225	H	0.576130	-0.575997	-0.579253
H226	H	0.633353	-0.528855	-0.493158
H227	H	0.250448	-0.147595	-0.466036
H228	H	0.598648	-0.266832	-0.937837
C229	C	0.577783	-1.062774	-0.433634
C230	C	0.595816	-1.096405	-0.488927
C231	C	0.562928	-1.123487	-0.538397
C232	C	0.512007	-1.116939	-0.532576
C233	C	0.493971	-1.083306	-0.477281
C234	C	0.526859	-1.056224	-0.427811
H235	H	0.633514	-1.101254	-0.493238
H236	H	0.576279	-1.148385	-0.579330
H237	H	0.487661	-1.136987	-0.569197
H238	H	0.456274	-1.078457	-0.472970
H239	H	0.513508	-1.031327	-0.386878
C240	C	-0.098617	-0.167266	-0.433866
C241	C	-0.107102	-0.173050	-0.513866
C242	C	-0.082539	-0.142754	-0.563467
C243	C	-0.049489	-0.106674	-0.533068
C244	C	-0.041002	-0.100889	-0.453064
C245	C	-0.065566	-0.131185	-0.403463
H246	H	-0.131569	-0.199760	-0.536372
H247	H	-0.088822	-0.147037	-0.622691
H248	H	-0.031306	-0.084248	-0.569785
H249	H	-0.016535	-0.074179	-0.430558
H250	H	-0.059283	-0.126901	-0.344239
H251	H	0.556307	-0.615207	-0.465712
H252	H	-0.190124	-0.175138	-0.420987
H253	H	0.702985	-0.162586	-0.937914
H254	H	0.471474	-0.275056	-0.257302
H255	H	-0.186040	-0.275063	-0.257371
C256	C	-0.093907	-0.282929	-0.244468
C257	C	-0.098332	-0.277149	-0.164471
C258	C	-0.071302	-0.307448	-0.114864
C259	C	-0.039847	-0.343525	-0.145255
C260	C	-0.035421	-0.349306	-0.225256
C261	C	-0.062451	-0.319007	-0.274863
H262	H	-0.121619	-0.250441	-0.141970
H263	H	-0.074579	-0.303168	-0.055641
H264	H	-0.019838	-0.365954	-0.108533
H265	H	-0.012135	-0.376014	-0.247757
H266	H	-0.059174	-0.323287	-0.334085
C267	C	0.263805	-0.310445	-0.199322
C268	C	0.259386	-0.304658	-0.119324
C269	C	0.286423	-0.334950	-0.069715
C270	C	0.317879	-0.371028	-0.100103
C271	C	0.322299	-0.376816	-0.180105
C272	C	0.295262	-0.346524	-0.229715
H273	H	0.236100	-0.277950	-0.096825
H274	H	0.283151	-0.330665	-0.010492
H275	H	0.337893	-0.393451	-0.063380
H276	H	0.345585	-0.403524	-0.202604
H277	H	0.298535	-0.350809	-0.288937
C278	C	0.707519	-0.158039	-1.081768
C279	C	0.705453	-0.160097	-1.162617
C280	C	0.736047	-0.129522	-1.203066
C281	C	0.768708	-0.096889	-1.162665
C282	C	0.770776	-0.094831	-1.081811
C283	C	0.740181	-0.125406	-1.041362
H284	H	0.681274	-0.184254	-1.192528
H285	H	0.734516	-0.131046	-1.262920
H286	H	0.791356	-0.074256	-1.192608
H287	H	0.794955	-0.070673	-1.051900
H288	H	0.741712	-0.123882	-0.981509
C289	C	0.123044	-0.310455	-0.199355
C290	C	0.118623	-0.304676	-0.119357
C291	C	0.145654	-0.334977	-0.069754
C292	C	0.177105	-0.371056	-0.100150
C293	C	0.181527	-0.376836	-0.180152
C294	C	0.154496	-0.346536	-0.229755
H295	H	0.095340	-0.277967	-0.096853
H296	H	0.142380	-0.330697	-0.010531
H297	H	0.197115	-0.393486	-0.063431
H298	H	0.204810	-0.403545	-0.202656
H299	H	0.157770	-0.350815	-0.288978
C300	C	0.694241	-0.171342	-0.597309
C301	C	0.690355	-0.120528	-0.607437
C302	C	0.723019	-0.087893	-0.567039
C303	C	0.759568	-0.106071	-0.516514
C304	C	0.763455	-0.156887	-0.506385
C305	C	0.730792	-0.189522	-0.546782
H306	H	0.663298	-0.107069	-0.644840
H307	H	0.720141	-0.050276	-0.574539
H308	H	0.783747	-0.081913	-0.486610
H309	H	0.790513	-0.170346	-0.468981
H310	H	0.733670	-0.227140	-0.539283
H311	H	0.386350	-0.275061	-0.257309
H312	H	0.109702	-0.147591	-0.466045
C313	C	0.586764	-0.278718	-1.081679
C314	C	0.556176	-0.309298	-1.041235
C315	C	0.523536	-0.341952	-1.081639
C316	C	0.521483	-0.344027	-1.162489
C317	C	0.552072	-0.313446	-1.202938
C318	C	0.584713	-0.280791	-1.162533
H319	H	0.557695	-0.307763	-0.981381
H320	H	0.500891	-0.364590	-1.051695
H321	H	0.497321	-0.368199	-1.192399
H322	H	0.550554	-0.314981	-1.262792
H323	H	0.607357	-0.258154	-1.192477
H324	H	0.694832	-1.051513	-0.257626
H325	H	0.694628	-0.393993	-0.257520
C326	C	0.703208	-0.485474	-0.244687
C327	C	0.701618	-0.477001	-0.164673
C328	C	0.734519	-0.501514	-0.115202
C329	C	0.769011	-0.534501	-0.145746
C330	C	0.770602	-0.542975	-0.225765
C331	C	0.737700	-0.518462	-0.275235
H332	H	0.676084	-0.452581	-0.142058
H333	H	0.733341	-0.495241	-0.055967
H334	H	0.793366	-0.552647	-0.109125
H335	H	0.796135	-0.567395	-0.248379
H336	H	0.738878	-0.524735	-0.334470
H337	H	0.030914	-0.302585	-0.212244
H338	H	0.724604	-0.608649	-0.212593
H339	H	0.724633	-0.693756	-0.212609
H340	H	0.586126	-0.398223	-0.420687
H341	H	0.556345	-0.755965	-0.465716
