data_functionalizedCrystal
_audit_creation_method	'MofGen! by Chris Wilmer'
_symmetry_space_group_name_H-M	'P1'
_symmetry_Int_Tables_number	1
_symmetry_cell_setting	triclinic
loop_
_symmetry_equiv_pos_as_xyz
  x,y,z
_cell_length_a	12.759401
_cell_length_b	16.625546
_cell_length_c	12.759393
_cell_angle_alpha	89.964881
_cell_angle_beta	89.979062
_cell_angle_gamma	90.023993
loop_
_atom_site_label
_atom_site_type_symbol
_atom_site_fract_x
_atom_site_fract_y
_atom_site_fract_z
Zn1	Zn	1.606210	-0.320930	-0.593986
Zn2	Zn	2.106210	0.179070	-0.093986
Zn3	Zn	1.606077	-0.455784	-0.418292
Zn4	Zn	2.106077	0.044216	0.081708
Zn5	Zn	1.430508	-0.320973	-0.418322
Zn6	Zn	1.930508	0.179027	0.081678
Zn7	Zn	1.430476	-0.455728	-0.593930
Zn8	Zn	1.930476	0.044272	-0.093930
O9	O	1.518318	-0.388354	-0.506132
O10	O	2.018318	0.111646	-0.006132
O11	O	1.753213	-0.338824	-0.570692
O12	O	2.253213	0.161176	-0.070692
O13	O	1.582745	-0.437943	-0.271275
O14	O	2.082745	0.062057	0.228725
O15	O	1.453884	-0.208135	-0.441660
O16	O	1.953884	0.291865	0.058340
O17	O	1.753116	-0.437901	-0.441610
O18	O	2.253116	0.062099	0.058390
O19	O	1.582971	-0.208103	-0.570720
O20	O	2.082971	0.291897	-0.070720
O21	O	1.453756	-0.338897	-0.271297
O22	O	1.953756	0.161103	0.228703
O23	O	1.283483	-0.338843	-0.441605
O24	O	1.783483	0.161157	0.058395
O25	O	1.453830	-0.437805	-0.740958
O26	O	1.953830	0.062195	-0.240958
O27	O	1.283460	-0.437847	-0.570623
O28	O	1.783460	0.062153	-0.070623
O29	O	1.582940	-0.338770	-0.741000
O30	O	2.082940	0.161230	-0.241000
O31	O	1.582714	-0.568609	-0.441555
O32	O	2.082714	-0.068609	0.058445
O33	O	1.453701	-0.568568	-0.570595
O34	O	1.953701	-0.068568	-0.070595
C35	C	1.245350	-0.388344	-0.506112
C36	C	1.745350	0.111656	-0.006112
C37	C	1.128574	-0.388359	-0.506128
C38	C	1.628574	0.111641	-0.006128
C39	C	1.073727	-0.439989	-0.573202
C40	C	1.573727	0.060011	-0.073202
C41	C	0.964003	-0.439992	-0.573223
C42	C	1.464003	0.060008	-0.073223
C43	C	0.963982	-0.336733	-0.439086
C44	C	1.463982	0.163267	0.060914
C45	C	1.073704	-0.336726	-0.439071
C46	C	1.573704	0.163274	0.060929
C47	C	1.518218	-0.597844	-0.506088
C48	C	2.018218	-0.097844	-0.006088
C49	C	1.518272	-0.687466	-0.506105
C50	C	2.018272	-0.187466	-0.006105
C51	C	1.518455	-1.015641	-0.506214
C52	C	2.018455	-0.515641	-0.006214
C53	C	1.518401	-0.924333	-0.506187
C54	C	2.018401	-0.424333	-0.006187
C55	C	1.518363	-0.851556	-0.506159
C56	C	2.018363	-0.351556	-0.006159
C57	C	1.518310	-0.760242	-0.506132
C58	C	2.018310	-0.260242	-0.006132
C59	C	1.792351	-0.388364	-0.506154
C60	C	2.292351	0.111636	-0.006154
C61	C	1.909128	-0.388369	-0.506163
C62	C	2.409128	0.111631	-0.006163
C63	C	1.518396	-0.388276	-0.780166
C64	C	2.018396	0.111724	-0.280166
C65	C	1.518430	-0.388243	-0.896943
C66	C	2.018430	0.111757	-0.396943
C67	C	1.518446	-0.178045	-0.506200
C68	C	2.018446	0.321955	-0.006200
C69	C	1.518501	-0.088424	-0.506228
C70	C	2.018501	0.411576	-0.006228
C71	C	1.585663	-0.336667	-0.951828
C72	C	2.085663	0.163333	-0.451828
C73	C	1.585681	-0.336632	-1.061552
C74	C	2.085681	0.163368	-0.561552
C75	C	1.451230	-0.439757	-1.061496
C76	C	1.951230	0.060243	-0.561496
C77	C	1.451208	-0.439787	-0.951774
C78	C	1.951208	0.060213	-0.451774
C79	C	1.518300	-0.388372	-0.233165
C80	C	2.018300	0.111628	0.266835
C81	C	1.518470	-0.388178	-0.116389
C82	C	2.018470	0.111822	0.383611
H83	H	1.118399	-0.482029	-0.627806
H84	H	1.618399	0.017971	-0.127806
C85	C	0.795775	-0.290893	-0.379549
C86	C	1.295775	0.209107	0.120451
C87	C	0.903665	-0.279984	-0.365376
C88	C	1.403665	0.220016	0.134624
H89	H	0.758543	-0.255861	-0.334037
H90	H	1.258543	0.244139	0.165963
H91	H	0.777841	-0.279160	-0.450162
H92	H	1.277841	0.220840	0.049838
H93	H	0.777772	-0.345057	-0.364041
H94	H	1.277772	0.154943	0.135959
H95	H	0.921670	-0.225821	-0.380891
H96	H	1.421670	0.274179	0.119109
H97	H	0.921607	-0.291711	-0.294747
H98	H	1.421607	0.208289	0.205253
C99	C	1.318327	-0.541691	-1.050419
C100	C	1.818327	-0.041691	-0.550419
C101	C	1.377348	-0.496417	-1.121769
C102	C	1.877348	0.003583	-0.621769
H103	H	1.272713	-0.576669	-1.087629
H104	H	1.772713	-0.076669	-0.587629
H105	H	1.364073	-0.572545	-1.007621
H106	H	1.864073	-0.072545	-0.507621
H107	H	1.278154	-0.506561	-1.007628
H108	H	1.778154	-0.006561	-0.507628
H109	H	1.417527	-0.531547	-1.164555
H110	H	1.917527	-0.031547	-0.664555
H111	H	1.331596	-0.465561	-1.164584
H112	H	1.831596	0.034439	-0.664584
H113	H	0.919352	-0.482033	-0.627843
H114	H	1.419352	0.017967	-0.127843
C115	C	1.645328	-0.290920	-0.783657
C116	C	2.145328	0.209080	-0.283657
C117	C	1.659541	-0.280003	-0.891555
C118	C	2.159541	0.219997	-0.391555
H119	H	1.690941	-0.255938	-0.746451
H120	H	2.190941	0.244062	-0.246451
H121	H	1.574749	-0.279123	-0.765675
H122	H	2.074749	0.220877	-0.265675
H123	H	1.660675	-0.345102	-0.765668
H124	H	2.160675	0.154898	-0.265668
H125	H	1.644187	-0.225823	-0.909546
H126	H	2.144187	0.274177	-0.409546
H127	H	1.730136	-0.291794	-0.909545
H128	H	2.230136	0.208206	-0.409545
C129	C	1.436516	-0.548276	-0.828331
C130	C	1.936516	-0.048276	-0.328331
C131	C	1.377302	-0.496483	-0.891431
C132	C	1.877302	0.003517	-0.391431
H133	H	1.390888	-0.583270	-0.791074
H134	H	1.890888	-0.083270	-0.291074
H135	H	1.482267	-0.579110	-0.871132
H136	H	1.982267	-0.079110	-0.371132
H137	H	1.476540	-0.517570	-0.779980
H138	H	1.976540	-0.017570	-0.279980
H139	H	1.337284	-0.527189	-0.939787
H140	H	1.837284	-0.027189	-0.439787
H141	H	1.331533	-0.465646	-0.848627
H142	H	1.831533	0.034354	-0.348627
C143	C	1.062671	-0.234663	-0.306470
C144	C	1.562671	0.265337	0.193530
C145	C	1.134000	-0.279973	-0.365334
C146	C	1.634000	0.220027	0.134666
H147	H	1.099898	-0.199630	-0.260948
H148	H	1.599898	0.300370	0.239052
H149	H	1.019914	-0.203865	-0.352321
H150	H	1.519914	0.296135	0.147679
H151	H	1.019838	-0.269766	-0.266205
H152	H	1.519838	0.230234	0.233795
H153	H	1.176829	-0.244870	-0.405604
H154	H	1.676829	0.255130	0.094396
H155	H	1.176775	-0.310773	-0.319477
H156	H	1.676775	0.189227	0.180523
H157	H	1.640427	-0.294633	-1.106235
H158	H	2.140427	0.205367	-0.606235
