data_functionalizedCrystal
_audit_creation_method	'MofGen! by Chris Wilmer'
_symmetry_space_group_name_H-M	'P1'
_symmetry_Int_Tables_number	1
_symmetry_cell_setting	triclinic
loop_
_symmetry_equiv_pos_as_xyz
  x,y,z
_cell_length_a	14.044220
_cell_length_b	10.654550
_cell_length_c	9.130313
_cell_angle_alpha	90.003780
_cell_angle_beta	89.997493
_cell_angle_gamma	91.163110
loop_
_atom_site_label
_atom_site_type_symbol
_atom_site_fract_x
_atom_site_fract_y
_atom_site_fract_z
O1	O	0.133227	-1.681222	-0.121925
O2	O	0.145921	-1.317019	-0.121902
O3	O	0.001554	-1.493654	-0.121899
O4	O	0.277595	-1.504587	-0.121929
O5	O	0.001557	-1.493652	0.121700
O6	O	0.145925	-1.317017	0.121696
O7	O	0.133231	-1.681220	0.121673
Cu8	Cu	0.139578	-1.499119	0.143927
Cu9	Cu	0.139574	-1.499121	-0.144156
O10	O	0.277598	-1.504585	0.121670
C11	C	0.144991	-1.270127	-0.000100
C12	C	0.142202	-1.130403	-0.000091
N13	N	0.139581	-1.499126	0.346550
C14	C	-0.033790	-1.488867	-0.000099
C15	C	-0.139110	-1.474592	-0.000096
C16	C	-0.331943	-1.448493	-0.000116
C17	C	-0.388911	-1.549741	-0.000126
C18	C	-0.496210	-1.535219	-0.000137
C19	C	-0.224634	-1.463013	-0.000105
C20	C	0.312942	-1.509372	-0.000133
C21	C	0.418262	-1.523648	-0.000146
C22	C	0.134161	-1.728113	-0.000132
C23	C	0.136950	-1.867836	-0.000151
C24	C	0.227203	-1.059459	-0.000121
C25	C	0.224578	-0.928175	-0.000146
C26	C	0.051942	-0.938790	-0.000116
C27	C	0.054569	-1.070072	-0.000081
C28	C	0.314837	-1.119790	-0.000131
C29	C	0.399845	-1.048846	-0.000163
C30	C	0.397219	-0.917561	-0.000188
C31	C	0.309585	-0.857221	-0.000181
N32	N	0.139564	-1.499122	-0.346779
C33	C	0.075677	-1.577364	0.423203
C34	C	0.075666	-1.577359	0.576540
C35	C	0.203470	-1.420876	0.576557
C36	C	0.203477	-1.420875	0.423223
C37	C	0.011782	-1.655615	0.346531
C38	C	-0.052127	-1.733861	0.423184
C39	C	-0.052138	-1.733856	0.576521
C40	C	0.011759	-1.655606	0.653204
H41	H	-0.357098	-1.647328	-0.000231
C42	C	0.011786	-1.655625	0.177858
N43	N	0.011790	-1.655631	0.050812
H44	H	-0.363754	-1.350913	-0.000113
C45	C	-0.122422	-1.819913	0.338830
N46	N	-0.175372	-1.884726	0.275296
C47	C	-0.122451	-1.819908	0.660836
N48	N	-0.175413	-1.884725	0.724339
H49	H	-0.019405	-0.889650	-0.000135
C50	C	0.317733	-1.264205	-0.000094
N51	N	0.319914	-1.372979	-0.000065
C52	C	0.273753	-1.334809	0.660914
N53	N	0.326693	-1.269983	0.724452
H54	H	0.471193	-1.097984	-0.000156
H55	H	0.255512	-1.357165	0.360811
H56	H	0.466437	-0.859801	-0.000200
C57	C	0.306702	-0.712803	-0.000203
N58	N	0.304531	-0.604028	-0.000227
C59	C	-0.038937	-1.148115	-0.000055
N60	N	-0.109368	-1.206897	-0.000033
H61	H	0.011738	-1.655600	0.778062
