data_functionalizedCrystal
_audit_creation_method	'MofGen! by Chris Wilmer'
_symmetry_space_group_name_H-M	'P1'
_symmetry_Int_Tables_number	1
_symmetry_cell_setting	triclinic
loop_
_symmetry_equiv_pos_as_xyz
  x,y,z
_cell_length_a	10.654550
_cell_length_b	26.809956
_cell_length_c	10.654550
_cell_angle_alpha	90.004293
_cell_angle_beta	84.484931
_cell_angle_gamma	90.012826
loop_
_atom_site_label
_atom_site_type_symbol
_atom_site_fract_x
_atom_site_fract_y
_atom_site_fract_z
O1	O	1.667863	0.041442	0.176396
O2	O	1.302384	0.041451	0.193203
O3	O	1.493526	0.041443	0.002060
O4	O	1.476720	0.041450	0.367539
O5	O	1.493467	-0.041516	0.002059
O6	O	1.302325	-0.041508	0.193202
O7	O	1.667803	-0.041517	0.176396
Zn8	Zn	1.485054	-0.054684	0.184798
Zn9	Zn	1.485133	0.054618	0.184800
O10	O	1.476661	-0.041509	0.367538
C11	C	1.255556	-0.000027	0.191968
C12	C	1.116113	-0.000024	0.188276
N13	N	1.485010	-0.129280	0.184797
C14	C	1.036628	-0.000023	0.300818
C15	C	0.905607	-0.000032	0.297341
C16	C	0.933570	-0.000040	0.068772
C17	C	1.064588	-0.000035	0.072250
C18	C	1.561947	-0.473907	0.261666
C19	C	1.561988	-0.682784	0.261665
O20	O	1.627369	-0.709789	0.327007
N21	N	1.485163	-0.708907	0.184787
C22	C	1.408328	-0.682807	0.107898
O23	O	1.342994	-0.709819	0.042499
C24	C	1.408295	-0.473930	0.107892
C25	C	1.485116	-0.447810	0.184785
C26	C	1.638763	-0.447787	0.338551
C27	C	1.638747	-0.395570	0.338555
C28	C	1.561915	-0.369474	0.261675
C29	C	1.485100	-0.395594	0.184789
C30	C	1.331468	-0.447832	0.030997
C31	C	1.331469	-0.395609	0.031000
C32	C	1.408290	-0.369489	0.107893
C33	C	1.408252	-0.317282	0.107913
N34	N	1.485077	-0.291159	0.184791
C35	C	1.561909	-0.317255	0.261672
C36	C	1.408349	-0.792470	0.107908
C37	C	1.408355	-0.844689	0.107911
C38	C	1.562017	-0.844663	0.261677
C39	C	1.562003	-0.792443	0.261680
C40	C	1.485174	-0.766348	0.184786
C41	C	1.561868	-0.207597	0.261676
C42	C	1.561842	-0.155376	0.261678
C43	C	1.408185	-0.155407	0.107907
C44	C	1.408207	-0.207624	0.107910
C45	C	1.485058	-0.233717	0.184798
O46	O	1.342916	-0.290245	0.042595
O47	O	1.627254	-0.290234	0.327040
C48	C	1.561963	-0.526123	0.261661
C49	C	1.485148	-0.552243	0.184776
C50	C	1.408316	-0.526147	0.107895
C51	C	1.485154	-0.604462	0.184779
C52	C	1.561986	-0.630558	0.261660
C53	C	1.638811	-0.604435	0.338538
C54	C	1.638795	-0.552219	0.338542
C55	C	1.331491	-0.552270	0.031017
C56	C	1.331512	-0.604486	0.031020
C57	C	1.408344	-0.630582	0.107901
C58	C	1.714631	-0.000037	0.177630
C59	C	1.854074	-0.000038	0.181322
C60	C	1.492263	-0.000036	-0.044738
C61	C	1.488571	-0.000035	-0.184181
N62	N	1.485187	0.129214	0.184791
C63	C	1.601112	-0.000038	-0.263667
C64	C	1.597636	-0.000031	-0.394688
C65	C	1.369066	-0.000022	-0.366725
C66	C	1.372544	-0.000025	-0.235706
C67	C	1.477925	-0.000029	0.414336
C68	C	1.481616	-0.000026	0.553779
H69	H	0.840894	-0.000032	0.388984
H70	H	1.280893	-0.000021	-0.170985
H71	H	1.701363	-0.625692	0.401143
C72	C	0.802472	0.042600	-0.067740
C73	C	0.876929	-0.000045	-0.058761
H74	H	0.767514	0.042599	-0.146479
H75	H	0.736387	0.042596	-0.001221
H76	H	0.853028	0.071527	-0.061631
H77	H	0.826371	-0.028972	-0.064861
H78	H	0.943024	-0.000045	-0.125299
H79	H	1.129309	-0.000036	-0.019401
H80	H	1.624557	-0.771180	0.324293
C81	C	1.726368	0.042616	-0.558222
C82	C	1.721347	-0.000034	-0.482056
H83	H	1.802751	0.042616	-0.612152
H84	H	1.656786	0.042618	-0.607662
H85	H	1.722993	0.071540	-0.506504
H86	H	1.724713	-0.028958	-0.533775
H87	H	1.790949	-0.000040	-0.432612
C88	C	1.713740	-0.160603	0.413667
C89	C	1.646295	-0.126666	0.346197
H90	H	1.765882	-0.142879	0.465836
H91	H	1.656395	-0.180975	0.464590
H92	H	1.764700	-0.180966	0.356327
H93	H	1.595328	-0.106305	0.403537
H94	H	1.703648	-0.106285	0.295270
H95	H	1.695588	-0.000045	-0.221720
C96	C	1.262244	-0.000020	-0.555151
C97	C	1.241534	-0.000018	-0.423366
H98	H	1.183508	-0.000022	-0.590114
H99	H	1.308641	0.028907	-0.582356
H100	H	1.308614	-0.028953	-0.582358
H101	H	1.195173	0.028916	-0.396159
H102	H	1.195118	-0.028948	-0.396151
C103	C	1.398906	-0.266351	-0.061093
C104	C	1.323755	-0.236337	0.023399
H105	H	1.346770	-0.284076	-0.113267
H106	H	1.456237	-0.245971	-0.112010
H107	H	1.444662	-0.289368	-0.015301
H108	H	1.278006	-0.213318	-0.022394
H109	H	1.266402	-0.256719	0.074321
H110	H	1.268927	-0.531027	-0.031592
C111	C	1.730891	-0.266288	0.271117
C112	C	1.646340	-0.236274	0.346196
H113	H	1.783039	-0.283989	0.323302
H114	H	1.685151	-0.289321	0.225346
H115	H	1.781840	-0.245907	0.213798
H116	H	1.595385	-0.256655	0.403509
H117	H	1.692085	-0.213238	0.391989
H118	H	1.701335	-0.469029	0.401157
C119	C	1.790647	-0.400806	0.490524
C120	C	1.723209	-0.366864	0.423062
H121	H	1.842802	-0.383085	0.542687
H122	H	1.733299	-0.421174	0.541452
H123	H	1.841594	-0.421171	0.433180
H124	H	1.672254	-0.346500	0.480406
H125	H	1.780564	-0.346486	0.372130
H126	H	1.624571	-0.865919	0.324281
H127	H	1.078574	-0.000018	0.395294
H128	H	1.345785	-0.865952	0.045312
H129	H	1.345782	-0.771228	0.045288
C130	C	1.179616	-0.442596	-0.121022
C131	C	1.247036	-0.476536	-0.053536
H132	H	1.127498	-0.460318	-0.173219
H133	H	1.128645	-0.422237	-0.063702
H134	H	1.236986	-0.422220	-0.171930
H135	H	1.189666	-0.496909	-0.002621
H136	H	1.298011	-0.496904	-0.110863
H137	H	1.268905	-0.374365	-0.031618
C138	C	1.197380	-0.139341	0.056619
C139	C	1.323740	-0.126713	0.023401
H140	H	1.145255	-0.121622	0.004447
H141	H	1.186389	-0.174173	0.045599
H142	H	1.174796	-0.130783	0.142338
H143	H	1.346327	-0.135275	-0.062316
H144	H	1.334738	-0.091873	0.034410
C145	C	1.790685	-0.557454	0.490521
C146	C	1.723250	-0.523513	0.423055
H147	H	1.842833	-0.539734	0.542691
H148	H	1.733335	-0.577825	0.541443
H149	H	1.841639	-0.577819	0.433179
H150	H	1.672289	-0.503151	0.480397
H151	H	1.780607	-0.503134	0.372129
H152	H	1.268943	-0.625748	-0.031592
