data_functionalizedCrystal
_audit_creation_method	'MofGen! by Chris Wilmer'
_symmetry_space_group_name_H-M	'P1'
_symmetry_Int_Tables_number	1
_symmetry_cell_setting	triclinic
loop_
_symmetry_equiv_pos_as_xyz
  x,y,z
_cell_length_a	25.639242
_cell_length_b	29.839132
_cell_length_c	25.639233
_cell_angle_alpha	89.978200
_cell_angle_beta	90.022166
_cell_angle_gamma	89.959210
loop_
_atom_site_label
_atom_site_type_symbol
_atom_site_fract_x
_atom_site_fract_y
_atom_site_fract_z
Zn1	Zn	0.799201	0.178962	0.295731
Zn2	Zn	0.799115	0.254076	0.208291
Zn3	Zn	0.711777	0.178955	0.208295
Zn4	Zn	0.711713	0.254059	0.295681
O5	O	0.755451	0.216513	0.251999
O6	O	0.872355	0.188935	0.284151
O7	O	0.787520	0.244115	0.135126
O8	O	0.723438	0.116089	0.219917
O9	O	0.872291	0.244122	0.219909
O10	O	0.787668	0.116094	0.284156
O11	O	0.723354	0.188924	0.135129
O12	O	0.638604	0.188908	0.219868
O13	O	0.723327	0.244093	0.368853
O14	O	0.638556	0.244087	0.284070
O15	O	0.787605	0.188919	0.368890
O16	O	0.787457	0.316941	0.219860
O17	O	0.723243	0.316929	0.284065
C18	C	0.619609	0.216495	0.251964
C19	C	0.561495	0.216499	0.251961
C20	C	0.201116	0.245293	0.285398
C21	C	0.146511	0.245295	0.285406
O22	O	0.118261	0.269755	0.313805
N23	N	0.119212	0.216525	0.252034
C24	C	0.146520	0.187748	0.218655
O25	O	0.118286	0.163276	0.190270
C26	C	0.201124	0.187743	0.218649
C27	C	0.228420	0.216518	0.252020
C28	C	0.228412	0.274065	0.318766
C29	C	0.283013	0.274063	0.318757
C30	C	0.310317	0.245288	0.285379
C31	C	0.283021	0.216516	0.252011
C32	C	0.228431	0.158963	0.185273
C33	C	0.283038	0.158961	0.185271
C34	C	0.310334	0.187736	0.218642
C35	C	0.364925	0.187739	0.218624
N36	N	0.392224	0.216509	0.251997
C37	C	0.364920	0.245283	0.285374
C38	C	0.031850	0.187759	0.218669
C39	C	-0.022753	0.187766	0.218671
C40	C	-0.022758	0.245313	0.285423
C41	C	0.031846	0.245308	0.285418
C42	C	0.059149	0.216529	0.252041
C43	C	0.479585	0.245277	0.285352
C44	C	0.534191	0.245273	0.285339
C45	C	0.534191	0.187724	0.218589
C46	C	0.479590	0.187729	0.218600
C47	C	0.452289	0.216507	0.251986
O48	O	0.393210	0.163290	0.190242
O49	O	0.393161	0.269746	0.313759
C50	C	0.755348	0.333236	0.251968
C51	C	0.755351	0.383170	0.251972
C52	C	0.788911	0.692807	0.218595
C53	C	0.788961	0.880480	0.218607
O54	O	0.817439	0.904740	0.190220
N55	N	0.755506	0.903955	0.252008
C56	C	0.722039	0.880509	0.285411
O57	O	0.693588	0.904782	0.313824
C58	C	0.721992	0.692837	0.285401
C59	C	0.755445	0.669364	0.251994
C60	C	0.822362	0.669335	0.185192
C61	C	0.822347	0.622419	0.185187
C62	C	0.788882	0.598976	0.218586
C63	C	0.755430	0.622449	0.251990
C64	C	0.688528	0.669391	0.318806
C65	C	0.688520	0.622470	0.318801
C66	C	0.721973	0.598998	0.285395
C67	C	0.721950	0.552090	0.285384
N68	N	0.755405	0.528615	0.251983
C69	C	0.788871	0.552058	0.218584
C70	C	0.722065	0.979039	0.285412
C71	C	0.722076	1.025957	0.285414
C72	C	0.788999	1.025925	0.218612
C73	C	0.788985	0.979007	0.218607
C74	C	0.755520	0.955565	0.252012
C75	C	0.788837	0.453533	0.218577
C76	C	0.788817	0.406613	0.218573
C77	C	0.721896	0.406649	0.285378
C78	C	0.721914	0.453564	0.285379
C79	C	0.755388	0.477005	0.251977
O80	O	0.693491	0.527802	0.313761
O81	O	0.817325	0.527777	0.190183
C82	C	0.788926	0.739723	0.218600
C83	C	0.755475	0.763195	0.252004
C84	C	0.722009	0.739752	0.285402
C85	C	0.755486	0.810113	0.252005
C86	C	0.788952	0.833556	0.218606
C87	C	0.822407	0.810081	0.185206
C88	C	0.822392	0.763166	0.185201
C89	C	0.688554	0.763227	0.318803
C90	C	0.688571	0.810143	0.318805
C91	C	0.722037	0.833586	0.285406
C92	C	0.891824	0.216531	0.252035
C93	C	0.949938	0.216539	0.252051
C94	C	0.755468	0.216505	0.388372
C95	C	0.755475	0.216502	0.446487
C96	C	0.755550	1.099335	0.252031
C97	C	0.755542	1.049400	0.252015
C98	C	0.755465	0.216488	0.116157
C99	C	0.755559	0.216365	0.058043
C100	C	0.788987	0.187687	0.806875
C101	C	0.788994	0.187675	0.861479
O102	O	0.817444	0.163229	0.889737
N103	N	0.755533	0.216396	0.888769
C104	C	0.722060	0.245129	0.861452
O105	O	0.693600	0.269558	0.889679
C106	C	0.722051	0.245139	0.806849
C107	C	0.755518	0.216419	0.779562
C108	C	0.822451	0.158969	0.779587
C109	C	0.822445	0.158982	0.724987
C110	C	0.788975	0.187714	0.697674
C111	C	0.755512	0.216432	0.724961
C112	C	0.688576	0.273869	0.779533
C113	C	0.688570	0.273876	0.724926
C114	C	0.722037	0.245156	0.697639
C115	C	0.722037	0.245176	0.643047
N116	N	0.755497	0.216455	0.615757
C117	C	0.788967	0.187723	0.643070
C118	C	0.722080	0.245106	0.976123
C119	C	0.722091	0.245099	1.030725
C120	C	0.789024	0.187644	1.030748
C121	C	0.789016	0.187653	0.976145
C122	C	0.755541	0.216384	0.948833
C123	C	0.788952	0.187753	0.528405
C124	C	0.788945	0.187770	0.473800
C125	C	0.722010	0.245224	0.473781
C126	C	0.722019	0.245208	0.528382
C127	C	0.755492	0.216470	0.555693
O128	O	0.693599	0.269609	0.614755
O129	O	0.817418	0.163295	0.614837
H130	H	0.305265	0.135522	0.158094
H131	H	0.661325	0.829250	0.346008
H132	H	0.694821	0.268504	0.953889
O133	O	0.821466	0.159687	0.949665
C134	C	0.810093	0.114910	0.963031
H135	H	0.768328	0.112637	0.978030
H136	H	0.814616	0.092717	0.927132
H137	H	0.838139	0.103169	0.994739
H138	H	-0.044973	0.164338	0.191492
H139	H	0.661269	0.603386	0.346005
H140	H	0.457363	0.268709	0.312540
H141	H	0.661324	0.297256	0.801741
O142	O	0.821608	0.159778	1.057264
C143	C	0.873709	0.169592	1.043931
H144	H	0.876318	0.205484	1.028912
H145	H	0.899541	0.165719	1.079852
H146	H	0.887398	0.145511	1.012249
H147	H	0.849654	0.829176	0.158010
H148	H	0.849705	0.135570	0.801820
H149	H	0.305233	0.297494	0.345932
O150	O	0.689318	0.383894	0.317770
C151	C	0.637215	0.395408	0.306308
H152	H	0.634596	0.408323	0.264538
H153	H	0.611378	0.364570	0.310789
H154	H	0.623539	0.422642	0.334330
H155	H	0.816226	0.959898	0.191405
O156	O	0.655991	0.740528	0.351262
C157	C	0.626479	0.771313	0.380749
H158	H	0.624703	0.804767	0.359332
H159	H	0.585274	0.757796	0.386277
H160	H	0.645596	0.776271	0.420481
H161	H	0.054077	0.164324	0.191486
H162	H	0.816199	0.164383	0.451585
H163	H	0.556432	0.164298	0.191412
H164	H	0.661305	0.297268	0.702691
O165	O	0.854889	0.692033	0.152695
C166	C	0.884417	0.661246	0.123226
H167	H	0.862990	0.627821	0.121401
H168	H	0.890023	0.674804	0.082035
H169	H	0.924112	0.656217	0.142413
H170	H	0.694773	0.268599	0.550601
H171	H	0.556413	0.268707	0.312514
O172	O	-0.049229	0.273241	0.317923
C173	C	-0.035864	0.263480	0.370053
H174	H	0.003797	0.246212	0.371171
H175	H	-0.034014	0.295931	0.393430
H176	H	-0.066568	0.240403	0.387714
H177	H	0.849590	0.603311	0.157986
O178	O	0.821523	1.048772	0.186248
C179	C	0.814362	1.095215	0.193424
H180	H	0.797165	1.101607	0.233739
H181	H	0.853544	1.113006	0.189982
H182	H	0.786588	1.108586	0.162357
H183	H	0.694830	1.045065	0.312613
H184	H	0.694845	0.268490	1.052938
H185	H	0.816207	0.164350	0.550635
H186	H	0.694762	0.268617	0.451533
H187	H	0.694675	0.472677	0.312584
H188	H	0.816096	0.472612	0.191378
H189	H	0.206187	0.297497	0.345949
O190	O	0.655980	0.692206	0.351186
C191	C	0.622239	0.719396	0.321398
H192	H	0.619026	0.705281	0.280213
H193	H	0.581993	0.719949	0.340274
H194	H	0.638413	0.754942	0.319621
H195	H	0.849696	0.135594	0.702774
H196	H	0.054067	0.268739	0.312592
O197	O	0.201911	0.131081	0.152784
C198	C	0.170293	0.156622	0.118965
H199	H	0.186713	0.192004	0.115682
H200	H	0.169693	0.140335	0.078756
H201	H	0.128908	0.158179	0.135108
H202	H	0.457365	0.164299	0.191426
H203	H	0.816059	0.387503	0.191368
H204	H	0.694812	0.959956	0.312615
H205	H	0.849633	0.744058	0.157998
