data_functionalizedCrystal
_audit_creation_method	'MofGen! by Chris Wilmer'
_symmetry_space_group_name_H-M	'P1'
_symmetry_Int_Tables_number	1
_symmetry_cell_setting	triclinic
loop_
_symmetry_equiv_pos_as_xyz
  x,y,z
_cell_length_a	12.759401
_cell_length_b	10.685194
_cell_length_c	12.759393
_cell_angle_alpha	85.596579
_cell_angle_beta	89.980316
_cell_angle_gamma	94.376267
loop_
_atom_site_label
_atom_site_type_symbol
_atom_site_fract_x
_atom_site_fract_y
_atom_site_fract_z
Zn1	Zn	1.574243	-0.502368	-0.561933
Zn2	Zn	1.560688	-0.713438	-0.372774
Zn3	Zn	1.398541	-0.502431	-0.386265
Zn4	Zn	1.385090	-0.713337	-0.548418
O5	O	1.479640	-0.607894	-0.467348
O6	O	1.719465	-0.530384	-0.536851
O7	O	1.539135	-0.685516	-0.227538
O8	O	1.433151	-0.325824	-0.420870
O9	O	1.709506	-0.685456	-0.397877
O10	O	1.562238	-0.325778	-0.549932
O11	O	1.420006	-0.530490	-0.237450
O12	O	1.249737	-0.530392	-0.407765
O13	O	1.410226	-0.685284	-0.697237
O14	O	1.239855	-0.685344	-0.526898
O15	O	1.549195	-0.530286	-0.707166
O16	O	1.526092	-0.890024	-0.384772
O17	O	1.397081	-0.889950	-0.513817
C18	C	1.206675	-0.607865	-0.467330
C19	C	1.089897	-0.607882	-0.467345
C20	C	1.040157	-0.527093	-0.405442
C21	C	0.930431	-0.527123	-0.405454
C22	C	0.920195	-0.688736	-0.529279
C23	C	1.029919	-0.688711	-0.529261
C24	C	1.046066	-0.433782	-0.333956
C25	C	0.936340	-0.433812	-0.333968
C26	C	1.458684	-0.935777	-0.446387
C27	C	1.449816	-1.076046	-0.437455
C28	C	1.753672	-0.607924	-0.467366
C29	C	1.870448	-0.607937	-0.467374
C30	C	1.479722	-0.607766	-0.741389
C31	C	1.479757	-0.607712	-0.858169
C32	C	1.500707	-0.278730	-0.488413
C33	C	1.509684	-0.138461	-0.497390
C34	C	1.552128	-0.526997	-0.918204
C35	C	1.552156	-0.526951	-1.027931
C36	C	1.407438	-0.688347	-1.017579
C37	C	1.407406	-0.688385	-0.907854
C38	C	1.635683	-0.433820	-0.924181
C39	C	1.635711	-0.433775	-1.033908
C40	C	1.479625	-0.607930	-0.194378
C41	C	1.479817	-0.607628	-0.077621
H42	H	1.086032	-0.340975	-0.369161
H43	H	1.348530	-0.754025	-1.058046
H44	H	1.070412	-0.754510	-0.579657
H45	H	0.900044	-0.468716	-0.254395
O46	O	1.380412	-1.140257	-0.368195
C47	C	1.199182	-1.180973	-0.314430
C48	C	1.277663	-1.108200	-0.392949
H49	H	1.116095	-1.155062	-0.334402
H50	H	1.204024	-1.286460	-0.319343
H51	H	1.219345	-1.155205	-0.231359
H52	H	1.257552	-1.133863	-0.476055
H53	H	1.272806	-1.002731	-0.387944
H54	H	0.912802	-0.336109	-0.362143
O55	O	0.861776	-0.767125	-0.589400
C56	C	0.688201	-0.838850	-0.644252
C57	C	0.754231	-0.749989	-0.576133
H58	H	0.601238	-0.825046	-0.633532
H59	H	0.711142	-0.816803	-0.730429
H60	H	0.703346	-0.940563	-0.619167
H61	H	0.739121	-0.648247	-0.601125
H62	H	0.731278	-0.772145	-0.489971
O63	O	1.337049	-0.766891	-0.849692
C64	C	1.193438	-0.926874	-0.851015
C65	C	1.273086	-0.838057	-0.917007
H66	H	1.141689	-0.984415	-0.905412
H67	H	1.237356	-0.992983	-0.795434
H68	H	1.142255	-0.868900	-0.803335
H69	H	1.324290	-0.895928	-0.964749
H70	H	1.229102	-0.771944	-0.972522
O71	O	1.578956	-1.074393	-0.566851
C72	C	1.711378	-1.087771	-0.699375
C73	C	1.632955	-1.160493	-0.620770
H74	H	1.755074	-1.157351	-0.742974
H75	H	1.667017	-1.026093	-0.758220
H76	H	1.770156	-1.026015	-0.655061
H77	H	1.574159	-1.222318	-0.664996
H78	H	1.677386	-1.222092	-0.561927
H79	H	1.715414	-0.459953	-1.062016
O80	O	1.617079	-0.317175	-0.896298
C81	C	1.583353	-0.104558	-0.955736
C82	C	1.604390	-0.236600	-0.987460
H83	H	1.573109	-0.039369	-1.029422
H84	H	1.508801	-0.110862	-0.905730
H85	H	1.652655	-0.065667	-0.908559
H86	H	1.535151	-0.275568	-1.034675
H87	H	1.678978	-0.230217	-1.037414
H88	H	1.710722	-0.468859	-0.887909
H89	H	1.612515	-0.340912	-1.073886
H90	H	1.074138	-0.459834	-0.250879
