data_functionalizedCrystal
_audit_creation_method	'MofGen! by Chris Wilmer'
_symmetry_space_group_name_H-M	'P1'
_symmetry_Int_Tables_number	1
_symmetry_cell_setting	triclinic
loop_
_symmetry_equiv_pos_as_xyz
  x,y,z
_cell_length_a	19.077236
_cell_length_b	12.645330
_cell_length_c	19.077237
_cell_angle_alpha	92.275519
_cell_angle_beta	85.297201
_cell_angle_gamma	92.310660
loop_
_atom_site_label
_atom_site_type_symbol
_atom_site_fract_x
_atom_site_fract_y
_atom_site_fract_z
Zn1	Zn	1.093747	-0.382740	-0.441990
Zn2	Zn	1.593747	0.117260	0.058010
Zn3	Zn	1.088952	-0.553182	-0.324112
Zn4	Zn	1.588952	-0.053182	0.175888
Zn5	Zn	0.971135	-0.382760	-0.319374
Zn6	Zn	1.471135	0.117240	0.180626
Zn7	Zn	0.975838	-0.566793	-0.437216
Zn8	Zn	1.475838	-0.066793	0.062784
O9	O	1.032418	-0.471369	-0.380673
O10	O	1.532418	0.028631	0.119327
O11	O	1.191764	-0.399645	-0.430334
O12	O	1.691764	0.100355	0.069666
O13	O	1.069348	-0.524887	-0.224834
O14	O	1.569348	-0.024887	0.275166
O15	O	0.987438	-0.234409	-0.335654
O16	O	1.487438	0.265591	0.164346
O17	O	1.188241	-0.524867	-0.343729
O18	O	1.688241	-0.024867	0.156271
O19	O	1.077521	-0.234394	-0.425740
O20	O	1.577521	0.265606	0.074260
O21	O	0.982788	-0.399679	-0.221353
O22	O	1.482788	0.100321	0.278647
O23	O	0.873106	-0.412878	-0.331025
O24	O	1.373106	0.087122	0.168975
O25	O	0.995454	-0.548066	-0.536499
O26	O	1.495454	-0.048066	-0.036499
O27	O	0.876562	-0.548086	-0.417603
O28	O	1.376562	-0.048086	0.082397
O29	O	1.082082	-0.412843	-0.540006
O30	O	1.582082	0.087157	-0.040006
O31	O	1.073909	-0.703336	-0.339100
O32	O	1.573909	-0.203336	0.160900
O33	O	0.990804	-0.713336	-0.422197
O34	O	1.490804	-0.213336	0.077803
C35	C	0.849255	-0.481962	-0.373283
C36	C	1.349255	0.018038	0.126717
C37	C	0.770897	-0.486520	-0.370138
C38	C	1.270897	0.013480	0.129862
C39	C	0.735922	-0.423576	-0.413819
C40	C	1.235922	0.076424	0.086181
C41	C	0.662297	-0.427853	-0.410858
C42	C	1.162297	0.072147	0.089142
C43	C	0.623648	-0.495081	-0.364219
C44	C	1.123648	0.004919	0.135781
C45	C	0.658628	-0.558027	-0.320532
C46	C	1.158628	-0.058027	0.179468
C47	C	0.732252	-0.553743	-0.323490
C48	C	1.232252	-0.053743	0.176510
C49	C	0.403259	-0.514866	-0.350526
C50	C	0.903259	-0.014866	0.149474
C51	C	0.329630	-0.519148	-0.347573
C52	C	0.829630	-0.019148	0.152427
C53	C	0.333304	-0.388972	-0.437898
C54	C	0.833304	0.111028	0.062102
C55	C	0.406929	-0.384699	-0.440855
C56	C	0.906929	0.115301	0.059145
C57	C	0.441903	-0.447641	-0.397166
C58	C	0.941903	0.052359	0.102834
N59	N	0.548391	-0.499457	-0.361192
N60	N	1.048391	0.000543	0.138808
N61	N	0.517158	-0.443259	-0.400189
N62	N	1.017158	0.056741	0.099811
C63	C	1.032366	-0.746801	-0.380661
C64	C	1.532366	-0.246801	0.119339
C65	C	1.032410	-0.864630	-0.380682
C66	C	1.532410	-0.364630	0.119318
C67	C	0.980360	-1.038525	-0.433136
C68	C	1.480360	-0.538525	0.066864
C69	C	0.980075	-0.915972	-0.432949
C70	C	1.480075	-0.415972	0.067051
C71	C	1.009323	-0.906071	-0.305579
C72	C	1.509323	-0.406071	0.194421
C73	C	1.009006	-1.028708	-0.305898
C74	C	1.509006	-0.528708	0.194102
C75	C	1.107853	-1.028499	-0.402742
C76	C	1.607853	-0.528499	0.097258
C77	C	1.107460	-0.906013	-0.404348
C78	C	1.607460	-0.406013	0.095652
C79	C	1.216297	-0.460735	-0.388093
C80	C	1.716297	0.039265	0.111907
C81	C	1.294655	-0.456204	-0.391254
C82	C	1.794655	0.043796	0.108746
C83	C	1.039827	-0.481970	-0.564547
C84	C	1.539827	0.018030	-0.064547
C85	C	1.042985	-0.486488	-0.642903
C86	C	1.542985	0.013512	-0.142903
C87	C	1.032490	-0.194861	-0.380701
C88	C	1.532490	0.305139	0.119299
C89	C	1.032521	-0.077030	-0.380713
C90	C	1.532521	0.422970	0.119287
C91	C	1.065635	-0.518968	-1.084160
C92	C	1.565635	-0.018968	-0.584160
C93	C	1.062658	-0.514717	-1.010536
C94	C	1.562658	-0.014717	-0.510536
C95	C	1.016106	-0.447397	-0.971919
C96	C	1.516106	0.052603	-0.471919
C97	C	0.972524	-0.384333	-1.006930
C98	C	1.472524	0.115667	-0.506930
C99	C	0.975498	-0.388590	-1.080553
C100	C	1.475498	0.111410	-0.580553
C101	C	1.002376	-0.427680	-0.751537
C102	C	1.502376	0.072320	-0.251537
C103	C	0.999407	-0.423425	-0.677909
C104	C	1.499407	0.076575	-0.177909
C105	C	1.089540	-0.553812	-0.681519
C106	C	1.589540	-0.053812	-0.181519
C107	C	1.092513	-0.558058	-0.755143
C108	C	1.592513	-0.058058	-0.255143
C109	C	1.048928	-0.494998	-0.790148
C110	C	1.548928	0.005002	-0.290148
N111	N	1.013064	-0.443048	-0.896663
N112	N	1.513064	0.056952	-0.396663
N113	N	1.051968	-0.499353	-0.865402
N114	N	1.551968	0.000647	-0.365402
C115	C	1.025078	-0.460730	-0.197516
C116	C	1.525078	0.039270	0.302484
C117	C	1.022057	-0.455905	-0.119166
C118	C	1.522057	0.044095	0.380834
H119	H	0.298163	-0.573898	-0.309593
H120	H	0.798163	-0.073898	0.190407
O121	O	1.142721	-0.630686	-0.796780
O122	O	1.642721	-0.130686	-0.296780
H123	H	1.179967	-0.583116	-0.831771
H124	H	1.679967	-0.083116	-0.331771
H125	H	0.627153	-0.612760	-0.282554
H126	H	1.127153	-0.112760	0.217446
O127	O	0.295580	-0.321072	-0.485006
O128	O	0.795580	0.178928	0.014994
H129	H	0.263474	-0.372611	-0.519470
H130	H	0.763474	0.127389	-0.019470
H131	H	1.098135	-0.566083	-0.982037
H132	H	1.598135	-0.066083	-0.482037
O133	O	0.440976	-0.582747	-0.303405
O134	O	0.940976	-0.082747	0.196595
H135	H	0.401730	-0.630217	-0.270481
H136	H	0.901730	-0.130217	0.229519
H137	H	0.760727	-0.604998	-0.287919
H138	H	1.260727	-0.104998	0.212081
O139	O	1.159378	-1.060726	-0.352217
O140	O	1.659378	-0.560726	0.147783
H141	H	1.212430	-1.026151	-0.368115
H142	H	1.712430	-0.526151	0.131885
H143	H	0.438393	-0.329959	-0.478837
H144	H	0.938393	0.170041	0.021163
O145	O	1.136542	-0.621836	-0.643766
O146	O	1.636542	-0.121836	-0.143766
H147	H	1.126651	-0.607576	-0.586084
H148	H	1.626651	-0.107576	-0.086084
O149	O	0.999610	-0.879294	-0.506597
O150	O	1.499610	-0.379294	-0.006597
H151	H	1.009348	-0.949133	-0.542668
H152	H	1.509348	-0.449133	-0.042668
O153	O	0.928508	-0.320562	-1.118320
O154	O	1.428508	0.179438	-0.618320
H155	H	0.872600	-0.341107	-1.101960
H156	H	1.372600	0.158893	-0.601960
H157	H	0.767386	-0.368835	-0.451800
H158	H	1.267386	0.131165	0.048200
H159	H	0.934618	-0.329524	-0.975483
H160	H	1.434618	0.170476	-0.475483
O161	O	0.949190	-0.350824	-0.636253
O162	O	1.449190	0.149176	-0.136253
H163	H	0.919376	-0.307697	-0.672962
H164	H	1.419376	0.192303	-0.172962
H165	H	0.995040	-1.070427	-0.488906
H166	H	1.495040	-0.570427	0.011094
O167	O	0.624571	-0.359964	-0.457971
O168	O	1.124571	0.140036	0.042029
H169	H	0.663816	-0.312506	-0.490905
H170	H	1.163816	0.187494	0.009095
O171	O	0.906923	-1.082693	-0.413722
O172	O	1.406923	-0.582693	0.086278
H173	H	0.907412	-1.131948	-0.366898
H174	H	1.407412	-0.631948	0.133102
H175	H	0.924287	-0.889208	-0.418118
H176	H	1.424287	-0.389208	0.081882
H177	H	0.953849	-1.059622	-0.287585
H178	H	1.453849	-0.559622	0.212415
O179	O	1.056918	-1.061862	-0.252175
O180	O	1.556918	-0.561862	0.247825
H181	H	1.080208	-0.990311	-0.226078
H182	H	1.580208	-0.490311	0.273922
H183	H	0.954723	-0.877632	-0.286998
H184	H	1.454723	-0.377632	0.213002
O185	O	1.057869	-0.861291	-0.252245
O186	O	1.557869	-0.361291	0.247755
H187	H	1.099062	-0.808892	-0.278764
H188	H	1.599062	-0.308892	0.221236
O189	O	1.134982	-1.072028	-0.474264
O190	O	1.634982	-0.572028	0.025736
H191	H	1.095070	-1.128745	-0.494910
H192	H	1.595070	-0.628745	0.005090
O193	O	0.955379	-0.359654	-0.789289
O194	O	1.455379	0.140346	-0.289289
H195	H	0.922519	-0.312118	-0.750066
H196	H	1.422519	0.187882	-0.250066
O197	O	1.130466	-0.870430	-0.477575
O198	O	1.630466	-0.370430	0.022425
H199	H	1.088629	-0.823462	-0.497038
H200	H	1.588629	-0.323462	0.002962
H201	H	1.148607	-0.870749	-0.369185
H202	H	1.648607	-0.370749	0.130815
O203	O	1.115837	-0.591588	-1.125810
O204	O	1.615837	-0.091588	-0.625810
H205	H	1.145631	-0.634736	-1.089095
H206	H	1.645631	-0.134736	-0.589095
