data_functionalizedCrystal
_audit_creation_method	'MofGen! by Chris Wilmer'
_symmetry_space_group_name_H-M	'P1'
_symmetry_Int_Tables_number	1
_symmetry_cell_setting	triclinic
loop_
_symmetry_equiv_pos_as_xyz
  x,y,z
_cell_length_a	14.971486
_cell_length_b	15.944493
_cell_length_c	13.448316
_cell_angle_alpha	89.999270
_cell_angle_beta	89.998199
_cell_angle_gamma	83.544586
loop_
_atom_site_label
_atom_site_type_symbol
_atom_site_fract_x
_atom_site_fract_y
_atom_site_fract_z
O1	O	1.186805	0.109466	-0.082564
O2	O	0.926388	0.122575	-0.082590
O3	O	1.063735	-0.006251	-0.082585
O4	O	1.049458	0.238292	-0.082569
O5	O	1.063718	-0.006259	0.082799
O6	O	0.926371	0.122567	0.082794
O7	O	1.186788	0.109458	0.082820
Cu8	Cu	1.056578	0.116012	0.097908
Cu9	Cu	1.056598	0.116022	-0.097678
O10	O	1.049441	0.238284	0.082814
C11	C	0.893055	0.121985	0.000099
C12	C	0.793760	0.120228	0.000088
C13	C	0.736437	0.195910	0.000094
C14	C	0.643139	0.194254	0.000109
C15	C	0.607168	0.116916	0.000111
C16	C	0.664499	0.041228	0.000108
C17	C	0.757794	0.042885	0.000100
C18	C	0.470041	0.037781	0.000121
C19	C	0.376739	0.036124	0.000127
C20	C	0.355386	0.189150	0.000130
C21	C	0.448681	0.190807	0.000123
C22	C	0.506006	0.115119	0.000118
C23	C	1.063143	-0.037550	0.000103
C24	C	1.061393	-0.130800	0.000090
C25	C	1.142239	-0.366483	0.000117
C26	C	1.098650	-0.417089	-0.081430
C27	C	1.058152	-0.301524	0.000102
C28	C	1.098614	-0.417073	0.081626
C29	C	1.055027	-0.466437	0.000118
C30	C	1.014586	-0.350902	-0.081512
C31	C	1.014562	-0.350882	0.081617
C32	C	0.970911	-0.401455	0.000050
C33	C	1.059954	-0.206523	0.000092
C34	C	1.053218	-0.561436	0.000121
C35	C	1.220120	0.110049	0.000129
C36	C	1.319415	0.111805	0.000133
C37	C	1.050033	0.269584	0.000125
C38	C	1.051782	0.362834	0.000131
N39	N	1.056570	0.116005	0.235472
N40	N	1.056613	0.116022	-0.235242
C41	C	1.117406	0.058984	0.287515
C42	C	1.117411	0.058984	0.391618
C43	C	1.056585	0.116008	0.443677
C44	C	0.995742	0.173032	0.391627
C45	C	0.995733	0.173028	0.287525
C46	C	0.995767	0.173037	0.608607
C47	C	0.995777	0.173043	0.712715
C48	C	1.117445	0.058993	0.712699
C49	C	1.117436	0.058989	0.608598
C50	C	1.056595	0.116014	0.556555
H51	H	0.804467	-0.018743	0.000094
H52	H	1.166948	0.012553	0.433991
O53	O	0.337942	-0.047292	0.000147
H54	H	0.263438	-0.035725	0.000145
H55	H	0.635203	-0.021742	0.000123
O56	O	0.874897	-0.422037	-0.000015
H57	H	0.862631	-0.458852	0.067708
O58	O	0.531866	-0.043857	0.000115
H59	H	0.574879	-0.046770	0.067525
H60	H	1.166970	0.012560	0.566212
O61	O	0.293560	0.270786	0.000141
H62	H	0.306359	0.307793	0.067543
H63	H	1.166942	0.012552	0.245135
H64	H	1.214669	-0.350786	0.000042
O65	O	1.145693	-0.455402	-0.172734
H66	H	1.216760	-0.441705	-0.172559
H67	H	0.979102	-0.322112	-0.150527
O68	O	1.183073	-0.002517	0.768815
H69	H	1.145444	-0.043414	0.816243
O70	O	0.967556	-0.312554	0.172928
H71	H	1.002607	-0.339184	0.240525
O72	O	0.775232	0.279326	0.000090
H73	H	0.817235	0.283733	0.067491
O74	O	1.145652	-0.455346	0.172952
H75	H	1.216711	-0.441626	0.172780
H76	H	0.946244	0.219477	0.755096
H77	H	0.946211	0.219459	0.434019
O78	O	0.930151	0.234545	0.552469
H79	H	0.887863	0.274206	0.606155
H80	H	0.946193	0.219458	0.245153
H81	H	0.477966	0.253782	0.000112
H82	H	0.596469	0.255882	0.000113
