data_functionalizedCrystal
_audit_creation_method	'MofGen! by Chris Wilmer'
_symmetry_space_group_name_H-M	'P1'
_symmetry_Int_Tables_number	1
_symmetry_cell_setting	triclinic
loop_
_symmetry_equiv_pos_as_xyz
  x,y,z
_cell_length_a	16.992694
_cell_length_b	16.992695
_cell_length_c	9.130313
_cell_angle_alpha	89.995176
_cell_angle_beta	90.002155
_cell_angle_gamma	90.668223
loop_
_atom_site_label
_atom_site_type_symbol
_atom_site_fract_x
_atom_site_fract_y
_atom_site_fract_z
O1	O	1.050849	0.166916	-0.121617
O2	O	0.822449	0.165085	-0.121660
O3	O	0.935734	0.051801	-0.121627
O4	O	0.937565	0.280201	-0.121650
O5	O	0.935725	0.051797	0.121972
O6	O	0.822441	0.165081	0.121939
O7	O	1.050841	0.166912	0.121982
Cu8	Cu	0.936640	0.165996	0.144203
Cu9	Cu	0.936650	0.166001	-0.143881
O10	O	0.937557	0.280197	0.121949
C11	C	0.793085	0.162727	0.000134
C12	C	0.705600	0.155699	0.000118
C13	C	0.659610	0.223517	0.000112
C14	C	0.577409	0.216908	0.000133
C15	C	0.541201	0.142480	0.000149
C16	C	0.587198	0.074657	0.000159
C17	C	0.669397	0.081267	0.000148
C18	C	0.295886	0.115086	0.000191
C19	C	0.213681	0.108481	0.000197
C20	C	0.203898	0.250732	0.000173
C21	C	0.286099	0.257336	0.000154
C22	C	0.332089	0.189512	0.000172
N23	N	0.457178	0.135723	0.000166
N24	N	0.416110	0.196270	0.000166
C25	C	0.933374	0.022439	0.000172
C26	C	0.926345	-0.065046	0.000170
C27	C	0.994163	-0.111037	0.000184
C28	C	0.987554	-0.193238	0.000169
C29	C	0.913127	-0.229446	0.000150
C30	C	0.845303	-0.183449	0.000131
C31	C	0.851913	-0.101250	0.000136
C32	C	0.885732	-0.474760	0.000125
C33	C	0.879127	-0.556966	0.000124
C34	C	1.021379	-0.566749	0.000159
C35	C	1.027982	-0.484547	0.000173
C36	C	0.960159	-0.438558	0.000146
N37	N	0.906369	-0.313468	0.000139
N38	N	0.966917	-0.354537	0.000147
C39	C	1.080205	0.169270	0.000184
C40	C	1.167690	0.176299	0.000191
C41	C	0.939917	0.309559	0.000147
C42	C	0.946945	0.397044	0.000139
N43	N	0.936639	0.165993	0.346825
N44	N	0.936657	0.165999	-0.346504
C45	C	0.986821	0.115854	0.423492
C46	C	0.986828	0.115855	0.576829
C47	C	0.886470	0.216140	0.576819
C48	C	0.886459	0.216135	0.423485
H49	H	0.166444	0.305950	0.000162
H50	H	0.784703	-0.212936	0.000107
H51	H	0.796688	-0.063804	0.000124
Br52	Br	0.731814	-0.010776	0.000169
Br53	Br	0.818373	0.284188	0.680862
Br54	Br	1.054930	0.047803	0.680873
Br55	Br	0.164541	0.007465	0.000250
H56	H	0.333322	0.059859	0.000206
Br57	Br	0.818345	0.284178	0.319425
H58	H	0.557710	0.014056	0.000193
Br59	Br	0.335233	0.358348	0.000116
Br60	Br	1.095177	-0.061905	0.000231
Br61	Br	1.054920	0.047803	0.319459
H62	H	0.689084	0.284124	0.000098
Br63	Br	1.079597	-0.255651	0.000188
Br64	Br	1.128995	-0.435413	0.000152
H65	H	0.539966	0.272133	0.000126
H66	H	1.076596	-0.604202	0.000178
H67	H	0.830505	-0.437325	0.000104
Br68	Br	0.778112	-0.606105	0.000114
