data_functionalizedCrystal
_audit_creation_method	'MofGen! by Chris Wilmer'
_symmetry_space_group_name_H-M	'P1'
_symmetry_Int_Tables_number	1
_symmetry_cell_setting	triclinic
loop_
_symmetry_equiv_pos_as_xyz
  x,y,z
_cell_length_a	14.971491
_cell_length_b	16.098524
_cell_length_c	14.971506
_cell_angle_alpha	93.059874
_cell_angle_beta	83.619312
_cell_angle_gamma	93.063509
loop_
_atom_site_label
_atom_site_type_symbol
_atom_site_fract_x
_atom_site_fract_y
_atom_site_fract_z
O1	O	1.190526	0.069289	0.120159
O2	O	1.690526	0.569289	0.620159
O3	O	0.930128	0.069283	0.134113
O4	O	1.430128	0.569283	0.634113
O5	O	1.067297	0.069284	-0.003063
O6	O	1.567297	0.569284	0.496937
O7	O	1.053357	0.069288	0.257335
O8	O	1.553357	0.569288	0.757335
O9	O	1.060136	-0.069229	-0.010215
O10	O	1.560136	0.430771	0.489785
O11	O	0.922967	-0.069231	0.126961
O12	O	1.422967	0.430769	0.626961
O13	O	1.183366	-0.069224	0.113007
O14	O	1.683366	0.430776	0.613007
Zn15	Zn	1.052029	-0.091219	0.118848
Zn16	Zn	1.552029	0.408781	0.618848
Zn17	Zn	1.061464	0.091278	0.128271
Zn18	Zn	1.561464	0.591278	0.628271
O19	O	1.046196	-0.069225	0.250183
O20	O	1.546196	0.430775	0.750183
C21	C	0.893222	0.000025	0.129912
C22	C	1.393222	0.500025	0.629912
C23	C	0.793925	0.000023	0.128039
C24	C	1.293925	0.500023	0.628039
N25	N	1.045597	-0.215769	0.112417
N26	N	1.545597	0.284231	0.612417
C27	C	0.370124	0.075546	0.123858
C28	C	0.870124	0.575546	0.623858
C29	C	0.463424	0.075543	0.125615
C30	C	0.963424	0.575543	0.625615
C31	C	0.506166	0.000036	0.122601
C32	C	1.006166	0.500036	0.622601
C33	C	0.455604	-0.075472	0.117820
C34	C	0.955604	0.424528	0.617820
C35	C	0.362307	-0.075468	0.116057
C36	C	0.862307	0.424532	0.616057
C37	C	0.650066	-0.075475	0.121497
C38	C	1.150066	0.424525	0.621497
C39	C	0.743370	-0.075480	0.123262
C40	C	1.243370	0.424520	0.623262
C41	C	0.751183	0.075536	0.131055
C42	C	1.251183	0.575536	0.631055
C43	C	0.657886	0.075540	0.129292
C44	C	1.157886	0.575540	0.629292
C45	C	0.607330	0.000031	0.124513
C46	C	1.107330	0.500031	0.624513
C47	C	1.097654	-0.259349	0.164509
C48	C	1.597654	0.240651	0.664509
C49	C	1.093166	-0.346538	0.160004
C50	C	1.593166	0.153462	0.660004
C51	C	1.036616	-0.390147	0.103411
C52	C	1.536616	0.109853	0.603411
C53	C	0.984557	-0.346561	0.051313
C54	C	1.484557	0.153439	0.551313
C55	C	0.989050	-0.259373	0.055814
C56	C	1.489050	0.240627	0.555814
C57	C	1.020337	-0.653398	0.087099
C58	C	1.520337	-0.153398	0.587099
C59	C	1.015846	-0.740592	0.082604
C60	C	1.515846	-0.240592	0.582604
C61	C	1.124458	-0.740563	0.191294
C62	C	1.624458	-0.240563	0.691294
C63	C	1.128942	-0.653374	0.195793
C64	C	1.628942	-0.153374	0.695793
C65	C	1.076886	-0.609796	0.143692
C66	C	1.576886	-0.109796	0.643692
C67	C	1.032025	-0.479268	0.098807
C68	C	1.532025	0.020732	0.598807
C69	C	1.081482	-0.520676	0.148292
C70	C	1.581482	-0.020676	0.648292
C71	C	1.220271	0.000035	0.117208
C72	C	1.720271	0.500035	0.617208
C73	C	1.319568	0.000043	0.119081
C74	C	1.819568	0.500043	0.619081
C75	C	1.063090	0.000029	-0.039963
C76	C	1.563090	0.500029	0.460037
C77	C	1.061212	0.000032	-0.139259
C78	C	1.561212	0.500032	0.360741
N79	N	1.067904	0.215828	0.134696
N80	N	1.567904	0.715828	0.634696
C81	C	1.134630	0.000034	-0.577540
C82	C	1.634630	0.500034	-0.077540
C83	C	1.136387	0.000028	-0.484240
C84	C	1.636387	0.500028	0.015760
C85	C	1.055795	0.000029	-0.427022
C86	C	1.555795	0.500029	0.072978
C87	C	0.973440	0.000027	-0.463108
C88	C	1.473440	0.500027	0.036892
C89	C	0.971684	0.000026	-0.556407
C90	C	1.471684	0.500026	-0.056407
C91	C	0.977107	0.000030	-0.268645
C92	C	1.477107	0.500030	0.231355
C93	C	0.978864	0.000032	-0.175340
C94	C	1.478864	0.500032	0.324660
C95	C	1.141811	0.000032	-0.196478
C96	C	1.641811	0.500032	0.303522
C97	C	1.140054	0.000032	-0.289777
C98	C	1.640054	0.500032	0.210223
C99	C	1.057699	0.000031	-0.325857
C100	C	1.557699	0.500031	0.174143
C101	C	1.050403	0.000032	0.287083
C102	C	1.550403	0.500032	0.787083
C103	C	1.052282	0.000034	0.386379
C104	C	1.552282	0.500034	0.886379
H105	H	0.335329	0.137032	0.126319
H106	H	0.835329	0.637032	0.626319
H107	H	0.608905	-0.136963	0.117617
H108	H	1.108905	0.363037	0.617617
H109	H	1.200258	0.000040	-0.624122
H110	H	1.700258	0.500040	-0.124122
H111	H	1.127528	-0.485166	0.194366
H112	H	1.627528	0.014834	0.694366
Br113	Br	1.163820	-0.405679	0.230703
Br114	Br	1.663820	0.094321	0.730703
Br115	Br	0.907812	-0.405743	-0.025496
Br116	Br	1.407812	0.094257	0.474504
H117	H	0.490413	-0.136951	0.115360
H118	H	0.990413	0.363049	0.615360
Br119	Br	0.293696	-0.177940	0.109561
Br120	Br	0.793696	0.322060	0.609561
Br121	Br	0.918410	-0.200229	-0.014898
Br122	Br	1.418410	0.299771	0.485102
H123	H	0.985981	-0.514784	0.052730
H124	H	1.485981	-0.014784	0.552730
Br125	Br	1.174402	-0.200174	0.241320
Br126	Br	1.674402	0.299826	0.741320
H127	H	1.174994	-0.617874	0.241874
H128	H	1.674994	-0.117874	0.741874
Br129	Br	0.819791	0.178012	0.137556
Br130	Br	1.319791	0.678012	0.637556
H131	H	1.208872	0.000109	-0.167094
H132	H	1.708872	0.500109	0.332906
Br133	Br	1.195101	-0.799709	0.261998
Br134	Br	1.695101	-0.299709	0.761998
Br135	Br	1.249431	0.000039	-0.367431
Br136	Br	1.749431	0.500039	0.132569
H137	H	1.203444	0.000027	-0.454869
H138	H	1.703444	0.500027	0.045131
H139	H	0.913238	0.000028	-0.128754
H140	H	1.413238	0.500028	0.371246
Br141	Br	0.865338	0.000022	-0.317610
Br142	Br	1.365338	0.500022	0.182390
H143	H	0.907820	0.000023	-0.416513
H144	H	1.407820	0.500023	0.083487
Br145	Br	0.939093	-0.799776	0.005796
Br146	Br	1.439093	-0.299776	0.505796
Br147	Br	0.859920	0.000018	-0.605374
Br148	Br	1.359920	0.500018	-0.105374
Br149	Br	0.532033	0.178015	0.132091
Br150	Br	1.032033	0.678015	0.632091
Br151	Br	0.599877	0.178014	0.133394
Br152	Br	1.099877	0.678014	0.633394
H153	H	0.778167	-0.136964	0.120812
H154	H	1.278167	0.363036	0.620812
Br155	Br	0.949653	-0.594268	0.016426
Br156	Br	1.449653	-0.094268	0.516426
