data_functionalizedCrystal
_audit_creation_method	'MofGen! by Chris Wilmer'
_symmetry_space_group_name_H-M	'P1'
_symmetry_Int_Tables_number	1
_symmetry_cell_setting	triclinic
loop_
_symmetry_equiv_pos_as_xyz
  x,y,z
_cell_length_a	11.026607
_cell_length_b	13.596369
_cell_length_c	10.908878
_cell_angle_alpha	90.000591
_cell_angle_beta	84.335404
_cell_angle_gamma	90.006133
loop_
_atom_site_label
_atom_site_type_symbol
_atom_site_fract_x
_atom_site_fract_y
_atom_site_fract_z
O1	O	1.506488	0.081790	0.513753
O2	O	2.006488	0.581790	1.013753
O3	O	1.164988	0.081792	0.455251
O4	O	1.664988	0.581792	0.955251
O5	O	1.381008	0.081787	0.308035
O6	O	1.881008	0.581787	0.808035
O7	O	1.290468	0.081795	0.660970
O8	O	1.790468	0.581795	1.160970
O9	O	1.380984	-0.081796	0.308040
O10	O	1.880984	0.418204	0.808040
O11	O	1.164964	-0.081791	0.455257
O12	O	1.664964	0.418209	0.955257
O13	O	1.506464	-0.081793	0.513758
O14	O	2.006464	0.418207	1.013758
Zn15	Zn	1.335710	-0.107764	0.484508
Zn16	Zn	1.835710	0.392236	0.984508
Zn17	Zn	1.335742	0.107763	0.484501
Zn18	Zn	1.835742	0.607763	0.984501
O19	O	1.290444	-0.081788	0.660975
O20	O	1.790444	0.418212	1.160975
C21	C	1.121943	0.000000	0.444461
C22	C	1.621943	0.500000	0.944461
C23	C	0.993722	0.000001	0.412288
C24	C	1.493722	0.500001	0.912288
N25	N	1.335697	-0.254856	0.484514
N26	N	1.835697	0.245144	0.984514
C27	C	0.901989	0.000004	0.501123
C28	C	1.401989	0.500004	1.001123
C29	C	0.769465	0.000004	0.467873
C30	C	1.269465	0.500004	0.967873
C31	C	1.335703	-0.343854	0.484519
C32	C	1.835703	0.156146	0.984519
C33	C	1.335716	-0.455505	0.484513
C34	C	1.835716	0.044495	0.984513
C35	C	1.335734	-0.544496	0.484502
C36	C	1.835734	-0.044496	0.984502
C37	C	1.335748	-0.656154	0.484498
C38	C	1.835748	-0.156154	0.984498
C39	C	1.549509	0.000001	0.524548
C40	C	2.049509	0.500001	1.024548
C41	C	1.677730	0.000007	0.556721
C42	C	2.177730	0.500007	1.056721
C43	C	1.389458	-0.000003	0.262152
C44	C	1.889458	0.499997	0.762152
C45	C	1.414656	0.000000	0.125424
C46	C	1.914656	0.500000	0.625424
N47	N	1.335766	0.254855	0.484488
N48	N	1.835766	0.754855	0.984488
C49	C	1.322712	0.000002	0.055162
C50	C	1.822712	0.500002	0.555162
C51	C	1.348753	0.000006	-0.086154
C52	C	1.848753	0.500006	0.413846
C53	C	1.281995	0.000004	0.706858
C54	C	1.781995	0.500004	1.206858
C55	C	1.256796	0.000008	0.843586
C56	C	1.756796	0.500008	1.343586
H57	H	0.921564	0.000000	0.601794
H58	H	1.421564	0.500000	1.101794
N59	N	1.544471	0.000005	0.066546
N60	N	2.044471	0.500005	0.566546
H61	H	1.587847	-0.060636	0.093124
H62	H	2.087847	0.439364	0.593124
H63	H	1.544574	0.000044	-0.026045
H64	H	2.044574	0.500044	0.473955
H65	H	1.224716	-0.000003	0.099627
H66	H	1.724716	0.499997	0.599627
N67	N	0.743548	-0.000008	0.334516
N68	N	1.243548	0.499992	0.834516
H69	H	0.695162	0.060631	0.317195
H70	H	1.195162	0.560631	0.817195
H71	H	0.823020	-0.000048	0.279882
H72	H	1.323020	0.499952	0.779882
H73	H	1.446756	0.000002	-0.130614
H74	H	1.946756	0.500002	0.369386
N75	N	1.126976	-0.000002	-0.097540
N76	N	1.626976	0.499998	0.402460
H77	H	1.126770	-0.000006	-0.004935
H78	H	1.626770	0.499994	0.495065
H79	H	1.083669	0.060641	-0.124208
H80	H	1.583669	0.560641	0.375792
H81	H	0.697297	0.000002	0.657399
H82	H	1.197297	0.500002	1.157399
H83	H	0.974146	0.000024	0.311618
H84	H	1.474146	0.500024	0.811618
