data_functionalizedCrystal
_audit_creation_method	'MofGen! by Chris Wilmer'
_symmetry_space_group_name_H-M	'P1'
_symmetry_Int_Tables_number	1
_symmetry_cell_setting	triclinic
loop_
_symmetry_equiv_pos_as_xyz
  x,y,z
_cell_length_a	12.759401
_cell_length_b	15.299816
_cell_length_c	12.759393
_cell_angle_alpha	99.651000
_cell_angle_beta	89.980404
_cell_angle_gamma	80.350595
loop_
_atom_site_label
_atom_site_type_symbol
_atom_site_fract_x
_atom_site_fract_y
_atom_site_fract_z
Zn1	Zn	1.678558	-0.359005	-0.666399
Zn2	Zn	1.708823	-0.509846	-0.521146
Zn3	Zn	1.502865	-0.359050	-0.490747
Zn4	Zn	1.533209	-0.509780	-0.696774
O5	O	1.605864	-0.434420	-0.593766
O6	O	1.829595	-0.379024	-0.647141
O7	O	1.681469	-0.489889	-0.370101
O8	O	1.500806	-0.232836	-0.488614
O9	O	1.851831	-0.489846	-0.540424
O10	O	1.629887	-0.232803	-0.617664
O11	O	1.530153	-0.379100	-0.347768
O12	O	1.359868	-0.379035	-0.518067
O13	O	1.552523	-0.489733	-0.839756
O14	O	1.382161	-0.489776	-0.669434
O15	O	1.659310	-0.378959	-0.817440
O16	O	1.710892	-0.636046	-0.569877
O17	O	1.581870	-0.635997	-0.698910
C18	C	1.332893	-0.434404	-0.593749
C19	C	1.216119	-0.434419	-0.593770
C20	C	1.063182	-0.492183	-0.672509
C21	C	1.172904	-0.492173	-0.672496
C22	C	1.149607	-0.376678	-0.515046
C23	C	1.039888	-0.376693	-0.515056
C24	C	1.652986	-0.668746	-0.641011
C25	C	1.673242	-0.768991	-0.661258
C26	C	1.461784	-1.051933	-0.449417
C27	C	1.442748	-0.957748	-0.430397
C28	C	1.500370	-0.910554	-0.488110
C29	C	1.577031	-0.957555	-0.564848
C30	C	1.596064	-1.051750	-0.583876
C31	C	1.634649	-0.910370	-0.622568
C32	C	1.711310	-0.957371	-0.699306
C33	C	1.730340	-1.051557	-0.718330
C34	C	1.672718	-1.098751	-0.660617
C35	C	1.615617	-0.816176	-0.603541
C36	C	1.749896	-0.815992	-0.737999
C37	C	1.768932	-0.910178	-0.757019
C38	C	1.879900	-0.434437	-0.593785
C39	C	1.996678	-0.434444	-0.593793
C40	C	1.605925	-0.434334	-0.867782
C41	C	1.605951	-0.434297	-0.984552
C42	C	1.558586	-0.199180	-0.546360
C43	C	1.538439	-0.098934	-0.526158
C44	C	1.661558	-0.376608	-1.027793
C45	C	1.661568	-0.376569	-1.137510
C46	C	1.550362	-0.491916	-1.160734
C47	C	1.550347	-0.491949	-1.051019
C48	C	1.605850	-0.434441	-0.320803
C49	C	1.605976	-0.434224	-0.203983
H50	H	1.553198	-0.777916	-0.541061
H51	H	1.184802	-0.329657	-0.450943
O52	O	1.237572	-0.548352	-0.748833
C53	C	1.386000	-0.670080	-0.787284
C54	C	1.312825	-0.606525	-0.700723
H55	H	1.446874	-0.717117	-0.748418
H56	H	1.336328	-0.711422	-0.843553
H57	H	1.429019	-0.628700	-0.833968
H58	H	1.269791	-0.647836	-0.653960
H59	H	1.362554	-0.565180	-0.644527
H60	H	1.484867	-0.833864	-0.472618
H61	H	1.706847	-0.329591	-1.172711
O62	O	1.715578	-0.320516	-0.963371
C63	C	1.825924	-0.206136	-0.951927
C64	C	1.764773	-0.269604	-1.025000
H65	H	1.865732	-0.164971	-1.001727
H66	H	1.768241	-0.158930	-0.891067
H67	H	1.889134	-0.247576	-0.908887
H68	H	1.701563	-0.228237	-1.068111
H69	H	1.822521	-0.316813	-1.085794
O70	O	1.843529	-0.955794	-0.831453
C71	C	2.027987	-0.984411	-0.888454
C72	C	1.943624	-0.932714	-0.804064
H73	H	2.108928	-0.965756	-0.866352
H74	H	2.031783	-1.059848	-0.892142
H75	H	2.005679	-0.965855	-0.969396
H76	H	1.965870	-0.951195	-0.723078
H77	H	1.939843	-0.857290	-0.800469
O78	O	1.496451	-0.547892	-1.225460
C79	C	1.447137	-0.598924	-1.404767
C80	C	1.508256	-0.535498	-1.331594
H81	H	1.456642	-0.588912	-1.490589
H82	H	1.480202	-0.671676	-1.397934
H83	H	1.359248	-0.583094	-1.379930
H84	H	1.596154	-0.551246	-1.356382
H85	H	1.475105	-0.462765	-1.338436
O86	O	1.496313	-0.548079	-1.009188
C87	C	1.385963	-0.662447	-1.043785
C88	C	1.447132	-0.598949	-1.091303
H89	H	1.346165	-0.703578	-1.110149
H90	H	1.443631	-0.709683	-1.001969
H91	H	1.322742	-0.621034	-0.984035
H92	H	1.510352	-0.640289	-1.151095
H93	H	1.389397	-0.551709	-1.133052
O94	O	1.368293	-0.911955	-0.355930
C95	C	1.279504	-0.766934	-0.266989
C96	C	1.363841	-0.818683	-0.351376
H97	H	1.275892	-0.691515	-0.263264
H98	H	1.198494	-0.785437	-0.289108
H99	H	1.301743	-0.785548	-0.186059
H100	H	1.341701	-0.800097	-0.432337
H101	H	1.444827	-0.800175	-0.329166
H102	H	1.028005	-0.539208	-0.736621
H103	H	1.414872	-1.090367	-0.402441
O104	O	0.975413	-0.320646	-0.438441
C105	C	0.932911	-0.276739	-0.250949
C106	C	1.006012	-0.340246	-0.337608
H107	H	0.957608	-0.292576	-0.169408
H108	H	0.939876	-0.204015	-0.254781
H109	H	0.847069	-0.286651	-0.264517
H110	H	1.091884	-0.330414	-0.324098
H111	H	0.998954	-0.412946	-0.333753
O112	O	1.805815	-0.770019	-0.793940
C113	C	1.835957	-0.624830	-0.824261
C114	C	1.772581	-0.676788	-0.760818
H115	H	1.809095	-0.549444	-0.797522
H116	H	1.924425	-0.643231	-0.809602
H117	H	1.821218	-0.643358	-0.912693
H118	H	1.787231	-0.658288	-0.672367
H119	H	1.684134	-0.658383	-0.775567
H120	H	1.688217	-1.175444	-0.676095
H121	H	1.792758	-1.089823	-0.780819
