data_functionalizedCrystal
_audit_creation_method	'MofGen! by Chris Wilmer'
_symmetry_space_group_name_H-M	'P1'
_symmetry_Int_Tables_number	1
_symmetry_cell_setting	triclinic
loop_
_symmetry_equiv_pos_as_xyz
  x,y,z
_cell_length_a	12.594517
_cell_length_b	18.050583
_cell_length_c	12.594516
_cell_angle_alpha	89.964948
_cell_angle_beta	90.013323
_cell_angle_gamma	89.983678
loop_
_atom_site_label
_atom_site_type_symbol
_atom_site_fract_x
_atom_site_fract_y
_atom_site_fract_z
Zn1	Zn	1.627233	-0.419925	-0.423671
Zn2	Zn	2.127233	0.080075	0.076329
Zn3	Zn	1.627147	-0.295738	-0.601695
Zn4	Zn	2.127147	0.204262	-0.101695
Zn5	Zn	1.449253	-0.295748	-0.423730
Zn6	Zn	1.949253	0.204252	0.076270
Zn7	Zn	1.449227	-0.419885	-0.601608
Zn8	Zn	1.949227	0.080115	-0.101608
O9	O	1.538215	-0.357824	-0.512676
O10	O	2.038215	0.142176	-0.012676
O11	O	1.776167	-0.403463	-0.447299
O12	O	2.276167	0.096537	0.052701
O13	O	1.603524	-0.191814	-0.578148
O14	O	2.103524	0.308186	-0.078148
O15	O	1.472909	-0.312242	-0.274777
O16	O	1.972909	0.187758	0.225223
O17	O	1.776104	-0.312223	-0.578092
O18	O	2.276104	0.187777	-0.078092
O19	O	1.603670	-0.403474	-0.274733
O20	O	2.103670	0.096526	0.225267
O21	O	1.472825	-0.191822	-0.447398
O22	O	1.972825	0.308178	0.052602
O23	O	1.300303	-0.312203	-0.447314
O24	O	1.800303	0.187797	0.052686
O25	O	1.472865	-0.523815	-0.577943
O26	O	1.972865	-0.023815	-0.077943
O27	O	1.300285	-0.403406	-0.578000
O28	O	1.800285	0.096594	-0.078000
O29	O	1.603645	-0.523844	-0.447214
O30	O	2.103645	-0.023844	0.052786
O31	O	1.603499	-0.312185	-0.750629
O32	O	2.103499	0.187815	-0.250629
O33	O	1.472782	-0.403396	-0.750565
O34	O	1.972782	0.096604	-0.250565
C35	C	1.261674	-0.357802	-0.512655
C36	C	1.761674	0.142198	-0.012655
C37	C	1.143369	-0.357810	-0.512671
C38	C	1.643369	0.142190	-0.012671
C39	C	1.074095	-0.308300	-0.441494
C40	C	1.574095	0.191700	0.058506
C41	C	1.003290	-0.290030	-0.538585
C42	C	1.503290	0.209970	-0.038585
C43	C	1.003374	-0.376093	-0.415628
C44	C	1.503374	0.123907	0.084372
C45	C	1.074122	-0.339505	-0.609813
C46	C	1.574122	0.160495	-0.109813
C47	C	1.074212	-0.425600	-0.486791
C48	C	1.574212	0.074400	0.013209
C49	C	1.003440	-0.407356	-0.583949
C50	C	1.503440	0.092644	-0.083949
C51	C	1.538262	-0.551530	-0.512562
C52	C	2.038262	-0.051530	-0.012562
C53	C	1.538282	-0.634076	-0.512514
C54	C	2.038282	-0.134076	-0.012514
C55	C	1.609472	-0.833542	-0.441389
C56	C	2.109472	-0.333542	0.058611
C57	C	1.512388	-0.882936	-0.415339
C58	C	2.012388	-0.382936	0.084661
C59	C	1.538325	-0.785206	-0.512496
C60	C	2.038325	-0.285206	-0.012496
C61	C	1.635447	-0.882894	-0.538479
C62	C	2.135447	-0.382894	-0.038479
C63	C	1.538374	-0.931191	-0.512476
C64	C	2.038374	-0.431191	-0.012476
C65	C	1.441190	-0.833513	-0.486395
C66	C	1.941190	-0.333513	0.013605
C67	C	1.564314	-0.833466	-0.609580
C68	C	2.064314	-0.333466	-0.109580
C69	C	1.467164	-0.882838	-0.583567
C70	C	1.967164	-0.382838	-0.083567
C71	C	1.538297	-0.701108	-0.512504
C72	C	2.038297	-0.201108	-0.012504
C73	C	1.538391	-1.015288	-0.512468
C74	C	2.038391	-0.515288	-0.012468
C75	C	1.815836	-0.357846	-0.512698
C76	C	2.315836	0.142154	-0.012698
C77	C	1.934141	-0.357856	-0.512708
C78	C	2.434141	0.142144	-0.012708
C79	C	1.538157	-0.357801	-0.789217
C80	C	2.038157	0.142199	-0.289217
C81	C	1.538230	-0.357816	-0.907522
C82	C	2.038230	0.142184	-0.407522
C83	C	1.538229	-0.164872	-0.512712
C84	C	2.038229	0.335128	-0.012712
C85	C	1.538416	-0.082327	-0.512461
C86	C	2.038416	0.417673	-0.012461
C87	C	1.609458	-0.308293	-1.047535
C88	C	2.109458	0.191707	-0.547535
C89	C	1.512330	-0.290041	-0.976852
C90	C	2.012330	0.209959	-0.476852
C91	C	1.635346	-0.376034	-0.976634
C92	C	2.135346	0.123966	-0.476634
C93	C	1.441161	-0.339594	-1.047625
C94	C	1.941161	0.160406	-0.547625
C95	C	1.564242	-0.425618	-1.047413
C96	C	2.064242	0.074382	-0.547413
C97	C	1.467048	-0.407392	-0.976762
C98	C	1.967048	0.092608	-0.476762
C99	C	1.538302	-0.357863	-0.235055
C100	C	2.038302	0.142137	0.264945
C101	C	1.538339	-0.357880	-0.116750
C102	C	2.038339	0.142120	0.383250
H103	H	0.972242	-0.391512	-0.333556
H104	H	1.472242	0.108488	0.166444
F105	F	1.114960	-0.500486	-0.458113
F106	F	1.614960	-0.000486	0.041887
F107	F	1.688032	-0.253478	-1.088155
F108	F	2.188032	0.246522	-0.588155
H109	H	1.490367	-0.232729	-0.945854
H110	H	1.990367	0.267271	-0.445854
H111	H	1.359053	-0.324147	-1.078675
H112	H	1.859053	0.175853	-0.578675
H113	H	0.972612	-0.449245	-0.644226
H114	H	1.472612	0.050755	-0.144226
F115	F	1.388289	-0.462170	-0.936401
F116	F	1.888289	0.037830	-0.436401
F117	F	1.592988	-0.500508	-1.087965
F118	F	2.092988	-0.000508	-0.587965
F119	F	1.687988	-0.805247	-0.362746
F120	F	2.187988	-0.305247	0.137254
H121	H	1.490422	-0.904666	-0.333228
H122	H	1.990422	-0.404666	0.166772
F123	F	1.742633	-0.396139	-0.935874
F124	F	2.242633	0.103861	-0.435874
H125	H	1.105118	-0.266379	-0.381361
H126	H	1.605118	0.233621	0.118639
H127	H	1.359052	-0.811913	-0.464315
H128	H	1.859052	-0.311913	0.035685
F129	F	0.962572	-0.215125	-0.567227
F130	F	1.462572	0.284875	-0.067227
H131	H	1.406949	-0.904346	-0.643691
H132	H	1.906949	-0.404346	-0.143691
F133	F	1.742775	-0.911245	-0.567218
F134	F	2.242775	-0.411245	-0.067218
H135	H	1.105069	-0.323997	-0.691921
H136	H	1.605069	0.176003	-0.191921
F137	F	1.593065	-0.805041	-0.716875
F138	F	2.093065	-0.305041	-0.216875
