data_functionalizedCrystal
_audit_creation_method	'MofGen! by Chris Wilmer'
_symmetry_space_group_name_H-M	'P1'
_symmetry_Int_Tables_number	1
_symmetry_cell_setting	triclinic
loop_
_symmetry_equiv_pos_as_xyz
  x,y,z
_cell_length_a	17.077404
_cell_length_b	14.908520
_cell_length_c	17.077396
_cell_angle_alpha	93.268321
_cell_angle_beta	89.980499
_cell_angle_gamma	93.320938
loop_
_atom_site_label
_atom_site_type_symbol
_atom_site_fract_x
_atom_site_fract_y
_atom_site_fract_z
Zn1	Zn	1.182024	-0.359154	-0.461868
Zn2	Zn	1.174357	-0.510026	-0.338173
Zn3	Zn	1.050754	-0.359186	-0.330617
Zn4	Zn	1.043152	-0.509972	-0.469394
O5	O	1.112572	-0.434584	-0.400013
O6	O	1.290853	-0.379177	-0.445472
O7	O	1.157933	-0.490052	-0.227326
O8	O	1.074557	-0.232937	-0.341715
O9	O	1.285220	-0.490021	-0.354594
O10	O	1.171001	-0.232913	-0.438145
O11	O	1.067123	-0.379231	-0.221774
O12	O	0.939899	-0.379179	-0.349014
O13	O	1.061601	-0.489930	-0.578241
O14	O	0.934314	-0.489961	-0.450973
O15	O	1.163629	-0.379125	-0.572711
O16	O	1.150562	-0.636263	-0.361892
O17	O	1.054166	-0.636224	-0.458300
C18	C	0.908625	-0.434568	-0.399990
C19	C	0.821374	-0.434583	-0.400001
C20	C	0.777492	-0.492354	-0.453014
C21	C	0.695511	-0.492356	-0.453027
C22	C	0.657414	-0.434591	-0.400022
C23	C	0.701302	-0.376813	-0.347005
C24	C	0.783282	-0.376807	-0.346997
C25	C	0.530432	-0.376831	-0.347025
C26	C	0.448447	-0.376837	-0.347032
C27	C	0.442661	-0.492380	-0.453055
C28	C	0.524640	-0.492374	-0.453047
C29	C	0.568523	-0.434597	-0.400029
C30	C	1.100728	-0.668978	-0.411750
C31	C	1.095734	-0.769252	-0.416797
C32	C	1.186828	-0.957658	-0.325973
C33	C	1.182137	-1.051875	-0.330713
C34	C	1.081667	-1.051904	-0.431020
C35	C	1.086357	-0.957687	-0.426280
C36	C	1.138939	-0.910568	-0.373754
C37	C	1.143625	-0.816349	-0.369011
C38	C	1.043159	-0.816380	-0.469321
C39	C	1.038468	-0.910597	-0.474061
C40	C	1.317315	-0.434601	-0.400036
C41	C	1.404564	-0.434609	-0.400046
C42	C	1.112622	-0.434518	-0.604754
C43	C	1.112644	-0.434490	-0.692002
C44	C	1.124482	-0.199276	-0.388248
C45	C	1.129558	-0.099001	-0.383234
C46	C	1.165772	-0.376788	-0.730114
C47	C	1.165783	-0.376758	-0.812093
C48	C	1.112669	-0.434435	-0.855959
C49	C	1.059535	-0.492138	-0.817842
C50	C	1.059521	-0.492163	-0.735864
C51	C	1.059569	-0.492084	-0.988709
C52	C	1.059584	-0.492061	-1.070693
C53	C	1.165832	-0.376679	-1.064938
C54	C	1.165818	-0.376704	-0.982961
C55	C	1.112684	-0.434409	-0.944849
C56	C	1.112569	-0.434585	-0.196065
C57	C	1.112713	-0.434360	-0.108804
H58	H	0.659786	-0.539400	-0.496196
H59	H	0.555656	-0.539416	-0.496205
O60	O	0.664254	-0.320825	-0.295441
C61	C	0.572232	-0.308532	-0.188907
C62	C	0.614148	-0.372041	-0.247248
H63	H	0.531699	-0.349913	-0.149939
H64	H	0.617642	-0.267251	-0.150959
H65	H	0.536282	-0.261402	-0.222678
H66	H	0.650096	-0.419226	-0.213540
H67	H	0.568698	-0.413258	-0.285196
O68	O	0.987376	-0.956233	-0.525149
C69	C	0.888181	-0.946316	-0.624102
C70	C	0.946024	-0.894525	-0.566293
H71	H	0.854721	-0.896448	-0.657371
H72	H	0.921964	-0.990332	-0.667452
H73	H	0.844995	-0.990522	-0.590233
H74	H	0.989224	-0.850271	-0.600096
H75	H	0.912189	-0.850566	-0.522944
O76	O	1.007911	-0.548111	-1.113185
C77	C	0.902550	-0.662585	-1.110248
C78	C	0.961015	-0.599139	-1.062030
H79	H	0.864630	-0.703872	-1.068910
H80	H	0.863561	-0.621188	-1.146533
H81	H	0.936222	-0.709713	-1.151011
H82	H	0.927407	-0.551999	-1.021224
H83	H	1.000003	-0.640593	-1.025797
O84	O	1.194634	-0.770435	-0.318009
C85	C	1.246425	-0.625279	-0.266286
C86	C	1.188607	-0.677160	-0.324065
H87	H	1.241584	-0.549856	-0.271174
H88	H	1.231762	-0.643797	-0.203890
H89	H	1.308781	-0.643784	-0.281059
H90	H	1.126231	-0.658682	-0.309364
H91	H	1.203339	-0.658636	-0.386444
H92	H	1.209027	-0.329824	-0.694404
O93	O	1.237963	-0.912020	-0.274929
C94	C	1.337072	-0.921931	-0.175889
C95	C	1.279211	-0.973726	-0.233678
H96	H	1.370425	-0.971798	-0.142511
H97	H	1.380349	-0.877775	-0.209703
H98	H	1.303231	-0.877866	-0.132631
H99	H	1.312986	-1.017840	-0.276950
H100	H	1.235935	-1.017825	-0.199813
H101	H	1.221135	-1.090213	-0.291806
O102	O	0.996717	-0.770496	-0.515708
C103	C	0.959374	-0.625364	-0.552823
C104	C	1.012028	-0.677215	-0.500263
H105	H	0.971723	-0.549937	-0.540342
H106	H	0.972203	-0.643758	-0.617076
H107	H	0.895168	-0.644022	-0.539922
H108	H	1.076251	-0.658585	-0.513094
H109	H	0.999132	-0.658816	-0.436026
H110	H	1.209048	-0.329774	-0.843120
H111	H	0.406928	-0.539421	-0.496226
H112	H	1.038863	-1.090285	-0.473789
H113	H	1.209072	-0.329744	-0.947247
H114	H	1.209094	-0.329692	-1.095973
O115	O	1.008070	-0.548184	-0.951596
C116	C	0.991356	-0.670044	-0.865156
C117	C	1.049755	-0.606551	-0.907130
H118	H	1.025035	-0.717262	-0.829208
H119	H	0.952412	-0.628685	-0.824644
H120	H	0.953378	-0.711231	-0.910593
H121	H	1.087783	-0.565351	-0.861748
H122	H	1.088644	-0.647962	-0.947657
O123	O	1.007831	-0.548070	-0.860410
C124	C	0.872095	-0.591883	-0.887622
C125	C	0.930562	-0.528466	-0.839378
H126	H	0.809610	-0.576068	-0.870624
H127	H	0.881163	-0.581955	-0.952770
H128	H	0.882236	-0.664626	-0.875148
H129	H	0.920457	-0.455697	-0.851786
H130	H	0.921480	-0.538471	-0.774245
O131	O	0.411509	-0.320763	-0.295452
C132	C	0.388501	-0.276777	-0.159806
C133	C	0.430401	-0.340324	-0.218126
H134	H	0.403747	-0.292582	-0.097275
H135	H	0.408304	-0.204037	-0.169999
H136	H	0.322378	-0.286709	-0.168976
H137	H	0.496530	-0.330472	-0.208990
H138	H	0.410534	-0.413041	-0.207919
H139	H	1.016251	-0.539140	-0.704834
H140	H	0.808504	-0.539396	-0.496175
H141	H	0.566159	-0.329775	-0.303859
H142	H	0.819010	-0.329759	-0.303831
