data_functionalizedCrystal
_audit_creation_method	'MofGen! by Chris Wilmer'
_symmetry_space_group_name_H-M	'P1'
_symmetry_Int_Tables_number	1
_symmetry_cell_setting	triclinic
loop_
_symmetry_equiv_pos_as_xyz
  x,y,z
_cell_length_a	10.685661
_cell_length_b	12.759394
_cell_length_c	10.686551
_cell_angle_alpha	94.404940
_cell_angle_beta	99.072787
_cell_angle_gamma	85.635525
loop_
_atom_site_label
_atom_site_type_symbol
_atom_site_fract_x
_atom_site_fract_y
_atom_site_fract_z
Zn1	Zn	1.995731	-0.490383	0.866193
Zn2	Zn	1.979314	-0.678616	0.653938
Zn3	Zn	1.767166	-0.490431	0.637717
Zn4	Zn	1.783444	-0.653497	0.849899
O5	O	1.881414	-0.578232	0.751937
O6	O	2.171181	-0.525845	0.851644
O7	O	1.937489	-0.664185	0.474158
O8	O	1.797544	-0.343406	0.668055
O9	O	2.159119	-0.664138	0.695701
O10	O	1.965470	-0.343370	0.835915
O11	O	1.781625	-0.525927	0.462240
O12	O	1.591698	-0.501570	0.652256
O13	O	1.825287	-0.621327	1.029688
O14	O	1.603657	-0.621374	0.808145
O15	O	1.981254	-0.501488	1.041659
O16	O	1.953273	-0.822303	0.679902
O17	O	1.809368	-0.803848	0.823874
C18	C	1.551621	-0.558752	0.726673
C19	C	1.410536	-0.550442	0.715895
C20	C	1.881342	-0.851196	0.751910
C21	C	1.881430	-0.967976	0.751950
C22	C	2.056179	-0.967766	0.926856
C23	C	2.143594	-1.022524	1.014321
C24	C	2.143672	-1.132249	1.014354
C25	C	2.056322	-1.187217	0.926915
C26	C	1.968907	-1.132460	0.839450
C27	C	1.968842	-1.022733	0.839423
C28	C	1.794154	-1.132669	0.664552
C29	C	1.794081	-1.022945	0.664511
C30	C	1.706805	-1.187637	0.577113
C31	C	1.619393	-1.132880	0.489640
C32	C	1.619320	-1.023149	0.489610
C33	C	1.706665	-0.968187	0.577046
C34	C	2.212495	-0.597788	0.777300
C35	C	2.353582	-0.606122	0.788108
C36	C	1.906918	-0.558600	1.083019
C37	C	1.917786	-0.550234	1.224106
C38	C	1.881523	-0.304202	0.751993
C39	C	1.881569	-0.187426	0.752018
C40	C	1.856082	-0.597716	0.422148
C41	C	1.845460	-0.605800	0.281080
H42	H	1.351363	-0.496408	0.645834
H43	H	1.412762	-0.660150	0.858185
H44	H	1.988031	-0.496262	1.283272
H45	H	2.214840	-1.176831	1.085588
H46	H	2.056136	-0.878424	0.926826
C47	C	2.056417	-1.307918	0.926952
N48	N	2.056493	-1.398832	0.926974
C49	C	2.239678	-0.962051	1.110496
N50	N	2.312048	-0.916505	1.182934
H51	H	1.706870	-1.276980	0.577151
C52	C	1.750570	-0.678715	1.201161
N53	N	1.679095	-0.733634	1.140957
H54	H	1.548132	-0.978571	0.418390
C55	C	1.523372	-1.193359	0.393416
N56	N	1.451070	-1.238919	0.320916
C57	C	1.706592	-0.847487	0.577023
N58	N	1.706536	-0.756574	0.577014
