data_functionalizedCrystal
_audit_creation_method	'MofGen! by Chris Wilmer'
_symmetry_space_group_name_H-M	'P1'
_symmetry_Int_Tables_number	1
_symmetry_cell_setting	triclinic
loop_
_symmetry_equiv_pos_as_xyz
  x,y,z
_cell_length_a	27.731988
_cell_length_b	14.586319
_cell_length_c	16.109301
_cell_angle_alpha	89.992276
_cell_angle_beta	83.039925
_cell_angle_gamma	89.997243
loop_
_atom_site_label
_atom_site_type_symbol
_atom_site_fract_x
_atom_site_fract_y
_atom_site_fract_z
O1	O	-0.641361	0.076113	-0.098699
O2	O	-0.500627	0.076139	-0.113793
O3	O	-0.574860	0.076130	0.014834
O4	O	-0.567128	0.076122	-0.227326
O5	O	-0.574850	-0.076351	0.014856
O6	O	-0.500616	-0.076342	-0.113772
O7	O	-0.641351	-0.076368	-0.098678
Cu8	Cu	-0.570982	-0.090278	-0.106223
Cu9	Cu	-0.570995	0.090049	-0.106248
O10	O	-0.567117	-0.076359	-0.227305
C11	C	-0.482613	-0.000098	-0.113473
C12	C	-0.428952	-0.000087	-0.112542
C13	C	-0.096203	-0.083245	-0.106666
C14	C	0.105471	-0.083259	-0.103127
O15	O	0.131550	-0.153948	-0.102624
N16	N	0.130682	-0.000143	-0.102699
C17	C	0.105471	0.082984	-0.103151
O18	O	0.131541	0.153679	-0.102697
C19	C	-0.096202	0.082997	-0.106684
C20	C	-0.121410	-0.000126	-0.107120
C21	C	-0.121411	-0.166361	-0.107102
C22	C	-0.171826	-0.166357	-0.107991
C23	C	-0.197033	-0.083237	-0.108445
C24	C	-0.171825	-0.000121	-0.108010
C25	C	-0.121413	0.166122	-0.107129
C26	C	-0.171834	0.166118	-0.108011
C27	C	-0.197042	0.082995	-0.108447
C28	C	-0.247447	0.083003	-0.109353
N29	N	-0.272658	-0.000114	-0.109781
C30	C	-0.247451	-0.083234	-0.109327
C31	C	0.211352	0.082971	-0.101297
C32	C	0.261770	0.082968	-0.100415
C33	C	0.261767	-0.083275	-0.100390
C34	C	0.211348	-0.083271	-0.101278
C35	C	0.186141	-0.000146	-0.101725
C36	C	-0.353326	-0.083218	-0.111195
C37	C	-0.403745	-0.083207	-0.112088
C38	C	-0.403737	0.083036	-0.112109
C39	C	-0.353322	0.083025	-0.111220
C40	C	-0.328118	-0.000110	-0.110761
O41	O	-0.273558	0.153654	-0.109847
O42	O	-0.273531	-0.153919	-0.109762
C43	C	-0.045788	-0.083250	-0.105777
C44	C	-0.020580	-0.000134	-0.105342
C45	C	-0.045787	0.082985	-0.105796
C46	C	0.029838	-0.000137	-0.104460
C47	C	0.055045	-0.083257	-0.104006
C48	C	0.029834	-0.166374	-0.104434
C49	C	-0.020581	-0.166370	-0.105323
C50	C	-0.020576	0.166102	-0.105368
C51	C	0.029839	0.166091	-0.104479
C52	C	0.055046	0.082971	-0.104025
N53	N	-0.570977	-0.217109	-0.106204
C54	C	-0.541685	-0.548131	-0.056173
C55	C	-0.541681	-0.452149	-0.056162
C56	C	-0.600300	-0.452105	-0.156293
C57	C	-0.600306	-0.548085	-0.156299
C58	C	-0.570996	-0.596095	-0.106241
C59	C	-0.570986	-0.404134	-0.106223
C60	C	-0.570982	-0.300067	-0.106211
C61	C	-0.571000	-0.700169	-0.106252
C62	C	0.340636	-0.000134	-0.099006
C63	C	0.286978	-0.000152	-0.099962
C64	C	-0.567436	-0.000120	-0.258287
C65	C	-0.568375	-0.000123	-0.350570
N66	N	-0.571004	0.216880	-0.106260
C67	C	-0.526510	-0.000102	-0.573376
C68	C	-0.527396	-0.000095	-0.660085
C69	C	-0.615471	-0.000116	-0.639088
C70	C	-0.614584	-0.000116	-0.552381
C71	C	-0.570102	-0.000114	-0.519527
C72	C	-0.571875	-0.000107	-0.692944
C73	C	-0.572836	-0.000100	-0.786957
C74	C	-0.569141	-0.000120	-0.425507
C75	C	-0.574542	-0.000107	0.045816
C76	C	-0.573603	-0.000098	0.138099
H77	H	0.050367	-0.234053	-0.104068
C78	C	0.057295	0.256250	-0.104047
C79	C	0.106846	0.238471	-0.103190
C80	C	0.132151	0.321499	-0.102795
H81	H	0.045389	0.290466	-0.055707
H82	H	0.052758	0.290413	-0.152716
H83	H	0.111379	0.204323	-0.054526
H84	H	0.118765	0.204268	-0.151527
H85	H	0.127615	0.355662	-0.151464
H86	H	0.120242	0.355709	-0.054454
H87	H	0.165775	0.309447	-0.102221
C88	C	-0.509883	-0.600421	-0.001907
C89	C	-0.516149	-0.694744	-0.012642
C90	C	-0.486856	-0.742938	0.037329
H91	H	-0.518843	-0.584812	0.055121
H92	H	-0.476797	-0.584750	-0.017770
H93	H	-0.549228	-0.710409	0.003225
H94	H	-0.507186	-0.710380	-0.069659
H95	H	-0.453770	-0.727266	0.021467
H96	H	-0.495819	-0.727321	0.094354
H97	H	-0.491101	-0.806940	0.030047
H98	H	-0.192346	-0.234043	-0.108341
H99	H	-0.332796	0.150710	-0.110879
H100	H	-0.650085	-0.000122	-0.508534
C101	C	-0.094144	0.256467	-0.106603
C102	C	-0.127023	0.329249	-0.107159
C103	C	-0.101923	0.412494	-0.106659
H104	H	-0.070776	0.260071	-0.154743
H105	H	-0.078188	0.259969	-0.057734
H106	H	-0.142971	0.325749	-0.156024
H107	H	-0.150391	0.325676	-0.059024
H108	H	-0.085967	0.415995	-0.057790
H109	H	-0.078556	0.416087	-0.154799
H110	H	-0.124228	0.461885	-0.107029
H111	H	-0.517814	-0.413101	-0.015391
C112	C	-0.632084	-0.400093	-0.210786
C113	C	-0.618746	-0.423444	-0.294729
C114	C	-0.648018	-0.375561	-0.344954
H115	H	-0.627908	-0.336048	-0.203724
H116	H	-0.665166	-0.415833	-0.194982
H117	H	-0.585672	-0.407699	-0.310528
H118	H	-0.622923	-0.487482	-0.301817
H119	H	-0.681100	-0.391300	-0.329150
H120	H	-0.643840	-0.311518	-0.337885
H121	H	-0.638976	-0.391404	-0.401914
C122	C	-0.632211	-0.600049	-0.210606
C123	C	-0.680919	-0.576673	-0.187083
C124	C	-0.710324	-0.624515	-0.237093
H125	H	-0.628083	-0.664100	-0.203484
H126	H	-0.623250	-0.584291	-0.267614
H127	H	-0.689877	-0.592437	-0.130089
H128	H	-0.685063	-0.512630	-0.194209
H129	H	-0.701363	-0.608757	-0.294101
H130	H	-0.706191	-0.688564	-0.229967
H131	H	-0.743375	-0.608655	-0.221145
H132	H	-0.490289	-0.000103	-0.546630
C133	C	-0.480028	0.000057	-0.718452
C134	C	-0.453245	0.078497	-0.703682
C135	C	-0.409603	0.078664	-0.757425
H136	H	-0.486856	0.000107	-0.774827
H137	H	-0.461759	-0.053087	-0.708539
H138	H	-0.471510	0.131627	-0.713601
H139	H	-0.446405	0.078463	-0.647317
H140	H	-0.391334	0.025520	-0.747512
H141	H	-0.416435	0.078711	-0.813797
H142	H	-0.391423	0.131879	-0.747406
C143	C	-0.431029	-0.173555	-0.112514
C144	C	-0.398161	-0.246345	-0.111901
C145	C	-0.423276	-0.329583	-0.112280
H146	H	-0.447002	-0.177144	-0.161348
H147	H	-0.454386	-0.177058	-0.064339
H148	H	-0.374813	-0.242843	-0.160071
H149	H	-0.382186	-0.242785	-0.063070
H150	H	-0.446633	-0.333086	-0.064104
H151	H	-0.439248	-0.333163	-0.161114
H152	H	-0.400979	-0.378981	-0.111856
C153	C	-0.325954	-0.173451	-0.110528
C154	C	-0.302475	-0.178334	-0.038453
C155	C	-0.277260	-0.261446	-0.037811
H156	H	-0.302554	-0.177001	-0.158626
H157	H	-0.348182	-0.222970	-0.110871
H158	H	-0.280249	-0.128828	-0.038119
H159	H	-0.325864	-0.174799	0.009656
H160	H	-0.299488	-0.310966	-0.038153
H161	H	-0.253863	-0.264990	-0.085912
H162	H	-0.261330	-0.264774	0.011095
C163	C	-0.663715	-0.000175	-0.674922
C164	C	-0.655162	-0.000200	-0.762382
C165	C	-0.699594	-0.000270	-0.795418
H166	H	-0.681706	0.052978	-0.656497
H167	H	-0.681662	-0.053375	-0.656438
H168	H	-0.637222	0.052995	-0.780859
H169	H	-0.637178	-0.053350	-0.780830
H170	H	-0.717541	-0.053470	-0.776934
H171	H	-0.717582	0.052885	-0.776987
H172	H	-0.693797	-0.000295	-0.854763
H173	H	-0.100892	-0.234051	-0.106730
C174	C	-0.199253	0.256303	-0.108632
C175	C	-0.222752	0.261155	-0.180687
C176	C	-0.248019	0.344213	-0.181285
H177	H	-0.177069	0.305880	-0.108290
H178	H	-0.222645	0.259769	-0.060503
H179	H	-0.199363	0.257698	-0.228803
H180	H	-0.244944	0.211599	-0.181045
H181	H	-0.271411	0.347679	-0.133156
H182	H	-0.225832	0.393783	-0.180941
H183	H	-0.263970	0.347513	-0.230170
H184	H	0.190827	-0.150957	-0.101634
H185	H	0.282299	-0.150955	-0.100023
H186	H	0.190833	0.150666	-0.101661
C187	C	0.289046	0.173312	-0.099912
C188	C	0.256171	0.246099	-0.100475
C189	C	0.281277	0.329339	-0.099995
H190	H	0.312411	0.176901	-0.148055
H191	H	0.305006	0.176820	-0.051047
H192	H	0.240220	0.242592	-0.149335
H193	H	0.232805	0.242540	-0.052335
H194	H	0.297236	0.332848	-0.051130
H195	H	0.304641	0.332919	-0.148140
H196	H	0.258974	0.378735	-0.100369
H197	H	-0.041100	-0.234056	-0.105678
C198	C	-0.431074	0.173303	-0.112775
C199	C	-0.413369	0.223446	-0.184130
C200	C	-0.438547	0.306598	-0.184773
H201	H	-0.426529	0.207566	-0.064189
H202	H	-0.464712	0.161429	-0.113410
H203	H	-0.379740	0.235323	-0.183488
H204	H	-0.417915	0.189210	-0.232728
H205	H	-0.472185	0.294724	-0.185408
H206	H	-0.434000	0.340853	-0.136184
H207	H	-0.426541	0.340627	-0.233190
H208	H	-0.041095	0.233790	-0.105735
