data_functionalizedCrystal
_audit_creation_method	'MofGen! by Chris Wilmer'
_symmetry_space_group_name_H-M	'P1'
_symmetry_Int_Tables_number	1
_symmetry_cell_setting	triclinic
loop_
_symmetry_equiv_pos_as_xyz
  x,y,z
_cell_length_a	25.639243
_cell_length_b	25.639240
_cell_length_c	25.639234
_cell_angle_alpha	90.026973
_cell_angle_beta	90.023193
_cell_angle_gamma	90.045843
loop_
_atom_site_label
_atom_site_type_symbol
_atom_site_fract_x
_atom_site_fract_y
_atom_site_fract_z
Zn1	Zn	-0.799246	0.208145	-0.295649
Zn2	Zn	-0.799152	0.295573	-0.208210
Zn3	Zn	-0.711811	0.208158	-0.208222
Zn4	Zn	-0.711760	0.295556	-0.295609
O5	O	-0.755492	0.251858	-0.251923
O6	O	-0.872399	0.219745	-0.284061
O7	O	-0.787547	0.283990	-0.135046
O8	O	-0.723470	0.134991	-0.219841
O9	O	-0.872329	0.283978	-0.219820
O10	O	-0.787708	0.134982	-0.284073
O11	O	-0.723379	0.219767	-0.135055
O12	O	-0.638639	0.219749	-0.219803
O13	O	-0.723384	0.283948	-0.368780
O14	O	-0.638602	0.283960	-0.284006
O15	O	-0.787659	0.219728	-0.368809
O16	O	-0.787498	0.368736	-0.219782
O17	O	-0.723292	0.368723	-0.283994
C18	C	-0.619650	0.251854	-0.251902
C19	C	-0.561536	0.251865	-0.251905
C20	C	-0.201203	0.218464	-0.285428
C21	C	-0.146599	0.218463	-0.285431
O22	O	-0.118388	0.190055	-0.313908
N23	N	-0.119253	0.251856	-0.251936
C24	C	-0.146515	0.285247	-0.218432
O25	O	-0.118241	0.313650	-0.189942
C26	C	-0.201118	0.285245	-0.218427
C27	C	-0.228461	0.251854	-0.251928
C28	C	-0.228546	0.185075	-0.318926
C29	C	-0.283146	0.185077	-0.318923
C30	C	-0.310404	0.218467	-0.285423
C31	C	-0.283061	0.251855	-0.251925
C32	C	-0.228379	0.318633	-0.184921
C33	C	-0.282986	0.318628	-0.184918
C34	C	-0.310328	0.285237	-0.218419
C35	C	-0.364920	0.285247	-0.218422
N36	N	-0.392265	0.251854	-0.251917
C37	C	-0.365008	0.218464	-0.285417
C38	C	-0.031844	0.285250	-0.218446
C39	C	0.022758	0.285255	-0.218453
C40	C	0.022670	0.218470	-0.285452
C41	C	-0.031933	0.218468	-0.285446
C42	C	-0.059190	0.251857	-0.251941
C43	C	-0.479673	0.218470	-0.285410
C44	C	-0.534278	0.218475	-0.285406
C45	C	-0.534185	0.285258	-0.218406
C46	C	-0.479585	0.285254	-0.218411
C47	C	-0.452330	0.251856	-0.251915
O48	O	-0.393165	0.313639	-0.189958
O49	O	-0.393288	0.190061	-0.313898
C50	C	-0.755394	0.387701	-0.251894
C51	C	-0.755399	0.445815	-0.251899
C52	C	0.108135	0.251862	-0.251944
C53	C	0.050021	0.251863	-0.251952
C54	C	-0.788968	0.806172	-0.218524
C55	C	-0.788984	0.860776	-0.218529
O56	O	-0.817456	0.889008	-0.190137
N57	N	-0.755534	0.888097	-0.251934
C58	C	-0.722070	0.860811	-0.285340
O59	O	-0.693621	0.889063	-0.313754
C60	C	-0.722057	0.806207	-0.285337
C61	C	-0.755506	0.778889	-0.251927
C62	C	-0.822414	0.778854	-0.185117
C63	C	-0.822397	0.724253	-0.185111
C64	C	-0.788935	0.696971	-0.218513
C65	C	-0.755489	0.724289	-0.251921
C66	C	-0.688596	0.778922	-0.318745
C67	C	-0.688586	0.724315	-0.318740
C68	C	-0.722035	0.696997	-0.285329
C69	C	-0.722009	0.642406	-0.285317
N70	N	-0.755459	0.615085	-0.251913
C71	C	-0.788922	0.642368	-0.218511
C72	C	-0.722101	0.975481	-0.285344
C73	C	-0.722111	1.030084	-0.285344
C74	C	-0.789025	1.030045	-0.218534
C75	C	-0.789012	0.975442	-0.218532
C76	C	-0.755550	0.948161	-0.251939
C77	C	-0.788883	0.527703	-0.218501
C78	C	-0.788862	0.473097	-0.218497
C79	C	-0.721950	0.473140	-0.285309
C80	C	-0.721969	0.527741	-0.285311
C81	C	-0.755440	0.555021	-0.251906
O82	O	-0.693553	0.614139	-0.313697
O83	O	-0.817371	0.614108	-0.190106
C84	C	-0.755526	0.251834	-0.388296
C85	C	-0.755541	0.251824	-0.446410
C86	C	-0.755586	1.115485	-0.251954
C87	C	-0.755576	1.057371	-0.251944
C88	C	-0.722143	0.218320	-0.806783
C89	C	-0.722146	0.218311	-0.861388
O90	O	-0.693723	0.189883	-0.889633
N91	N	-0.755558	0.251742	-0.888692
C92	C	-0.788966	0.285188	-0.861390
O93	O	-0.817386	0.313624	-0.889629
C94	C	-0.788960	0.285200	-0.806787
C95	C	-0.755549	0.251763	-0.779485
C96	C	-0.688734	0.184887	-0.779481
C97	C	-0.688732	0.184895	-0.724880
C98	C	-0.722139	0.218338	-0.697582
C99	C	-0.755547	0.251772	-0.724884
C100	C	-0.822365	0.318649	-0.779486
C101	C	-0.822356	0.318658	-0.724879
C102	C	-0.788945	0.285221	-0.697576
C103	C	-0.788952	0.285224	-0.642985
N104	N	-0.755540	0.251793	-0.615680
C105	C	-0.722133	0.218350	-0.642979
C106	C	-0.788975	0.285162	-0.976061
C107	C	-0.788984	0.285148	-1.030663
C108	C	-0.722163	0.218271	-1.030657
C109	C	-0.722157	0.218283	-0.976053
C110	C	-0.755563	0.251731	-0.948756
C111	C	-0.722132	0.218371	-0.528314
C112	C	-0.722134	0.218381	-0.473708
C113	C	-0.788953	0.285260	-0.473719
C114	C	-0.788953	0.285248	-0.528320
C115	C	-0.755538	0.251802	-0.555616
O116	O	-0.817359	0.313639	-0.614705
O117	O	-0.693713	0.189924	-0.614733
C118	C	-0.755489	0.251844	-0.116080
C119	C	-0.755575	0.251707	-0.057966
H120	H	-0.054192	0.191277	-0.312725
H121	H	-0.305404	0.157885	-0.346202
F122	F	-0.060848	0.320792	-0.182784
H123	H	-0.694734	0.549984	-0.312518
F124	F	-0.686607	0.182679	-1.059719
F125	F	-0.824508	0.320848	-0.444657
H126	H	-0.816197	0.312370	-1.052888
F127	F	-0.857911	0.354261	-0.695830
F128	F	-0.824521	0.320827	-0.557378
H129	H	-0.816100	0.450856	-0.191288
H130	H	-0.694703	0.450918	-0.312503
H131	H	-0.206358	0.157882	-0.346206
F132	F	-0.199290	0.354165	-0.149256
H133	H	-0.849572	0.345877	-0.801706
F134	F	-0.824612	0.946373	-0.182972
F135	F	-0.858004	0.695186	-0.149557
F136	F	0.051690	0.182932	-0.321105
F137	F	-0.686480	0.946451	-0.320900
H138	H	-0.694951	0.191055	-0.953828
F139	F	-0.686573	0.182790	-0.444654
H140	H	-0.556538	0.191284	-0.312688
H141	H	-0.849666	0.801062	-0.157917
H142	H	-0.305175	0.345817	-0.157632
F143	F	-0.450484	0.320806	-0.182769
H144	H	-0.816185	0.312396	-0.953839
F145	F	-0.563205	0.320793	-0.182755
F146	F	-0.450673	0.182923	-0.321068
H147	H	0.045016	0.312451	-0.191180
H148	H	-0.661357	0.801155	-0.345949
H149	H	-0.694869	1.052321	-0.312546
F150	F	-0.824507	0.556728	-0.182947
F151	F	-0.824639	1.059091	-0.182984
F152	F	-0.652972	0.695283	-0.354299
H153	H	-0.694922	0.191135	-0.550531
H154	H	-0.661528	0.157653	-0.801702
F155	F	-0.653169	0.149309	-0.695830
