data_functionalizedCrystal
_audit_creation_method	'MofGen! by Chris Wilmer'
_symmetry_space_group_name_H-M	'P1'
_symmetry_Int_Tables_number	1
_symmetry_cell_setting	triclinic
loop_
_symmetry_equiv_pos_as_xyz
  x,y,z
_cell_length_a	14.519731
_cell_length_b	14.971486
_cell_length_c	14.048226
_cell_angle_alpha	90.000262
_cell_angle_beta	90.003664
_cell_angle_gamma	96.348509
loop_
_atom_site_label
_atom_site_type_symbol
_atom_site_fract_x
_atom_site_fract_y
_atom_site_fract_z
O1	O	0.120178	-1.187022	0.079053
O2	O	0.453511	-0.853688	0.412387
O3	O	0.786844	-0.520355	0.745720
O4	O	0.134570	-0.926631	0.079079
O5	O	0.467903	-0.593297	0.412413
O6	O	0.801236	-0.259964	0.745746
O7	O	-0.006867	-1.063720	0.079057
O8	O	0.326466	-0.730387	0.412390
O9	O	0.659799	-0.397054	0.745724
O10	O	0.261615	-1.049932	0.079076
O11	O	0.594948	-0.716599	0.412409
O12	O	0.928282	-0.383266	0.745742
O13	O	-0.006866	-1.063707	-0.079264
O14	O	0.326467	-0.730374	0.254069
O15	O	0.659800	-0.397041	0.587402
O16	O	0.134571	-0.926618	-0.079242
O17	O	0.467904	-0.593284	0.254091
O18	O	0.801238	-0.259951	0.587425
O19	O	0.120179	-1.187009	-0.079268
O20	O	0.453512	-0.853675	0.254065
O21	O	0.786846	-0.520342	0.587399
Zn22	Zn	0.127375	-1.056811	-0.104392
Zn23	Zn	0.460709	-0.723478	0.228941
Zn24	Zn	0.794042	-0.390145	0.562275
Zn25	Zn	0.127374	-1.056828	0.104203
Zn26	Zn	0.460707	-0.723495	0.437537
Zn27	Zn	0.794040	-0.390162	0.770870
O28	O	0.261616	-1.049919	-0.079246
O29	O	0.594950	-0.716586	0.254088
O30	O	0.928283	-0.383253	0.587421
C31	C	0.133927	-0.893299	-0.000078
C32	C	0.467260	-0.559966	0.333255
C33	C	0.800593	-0.226632	0.666589
C34	C	0.131998	-0.794001	-0.000068
C35	C	0.465331	-0.460667	0.333265
C36	C	0.798665	-0.127334	0.666598
C37	C	-0.041226	-1.063068	-0.000104
C38	C	0.292107	-0.729734	0.333230
C39	C	0.625441	-0.396401	0.666563
C40	C	-0.143605	-1.061132	-0.000104
C41	C	0.189728	-0.727798	0.333229
C42	C	0.523062	-0.394465	0.666562
C43	C	-0.226748	-1.059559	-0.000102
C44	C	0.106585	-0.726225	0.333232
C45	C	0.439918	-0.392892	0.666565
C46	C	-0.331056	-1.057593	-0.000094
C47	C	0.002278	-0.724260	0.333239
C48	C	0.335611	-0.390926	0.666572
C49	C	-0.414194	-1.056033	-0.000088
C50	C	-0.080861	-0.722700	0.333245
C51	C	0.252473	-0.389366	0.666579
C52	C	-0.518508	-1.054068	-0.000082
C53	C	-0.185175	-0.720734	0.333251
C54	C	0.148159	-0.387401	0.666584
C55	C	0.120822	-1.220340	-0.000109
C56	C	0.454155	-0.887007	0.333225
C57	C	0.787489	-0.553674	0.666558
C58	C	0.122751	-1.319639	-0.000112
C59	C	0.456084	-0.986305	0.333221
C60	C	0.789417	-0.652972	0.666555
C61	C	0.295975	-1.050572	-0.000083
C62	C	0.629308	-0.717239	0.333251
C63	C	0.962641	-0.383905	0.666584
C64	C	0.398354	-1.052508	-0.000076
C65	C	0.731687	-0.719174	0.333257
C66	C	1.065020	-0.385841	0.666591
N67	N	0.127376	-1.056806	-0.246753
N68	N	0.460709	-0.723473	0.086581
N69	N	0.794042	-0.390139	0.419914
C70	C	0.215089	-0.736828	-0.000064
C71	C	0.548422	-0.403495	0.333270
C72	C	0.881755	-0.070162	0.666603
C73	C	0.213271	-0.643528	-0.000078
C74	C	0.546604	-0.310194	0.333255
C75	C	0.879937	0.023139	0.666589
C76	C	0.128361	-0.607401	-0.000090
C77	C	0.461695	-0.274068	0.333243
C78	C	0.795028	0.059265	0.666577
C79	C	0.045264	-0.664581	-0.000097
C80	C	0.378598	-0.331248	0.333236
C81	C	0.711931	0.002085	0.666569
C82	C	0.047083	-0.757880	-0.000090
C83	C	0.380417	-0.424547	0.333243
C84	C	0.713750	-0.091213	0.666577
C85	C	0.041479	-0.470116	-0.000111
C86	C	0.374813	-0.136783	0.333223
C87	C	0.708146	0.196550	0.666556
C88	C	0.039660	-0.376811	-0.000116
C89	C	0.372994	-0.043478	0.333217
C90	C	0.706327	0.289856	0.666550
C91	C	0.207667	-0.355764	-0.000099
C92	C	0.541000	-0.022431	0.333234
C93	C	0.874334	0.310903	0.666568
C94	C	0.209486	-0.449063	-0.000091
C95	C	0.542819	-0.115730	0.333242
C96	C	0.876152	0.217604	0.666575
C97	C	0.126388	-0.506236	-0.000097
C98	C	0.459722	-0.172903	0.333236
C99	C	0.793055	0.160430	0.666570
C100	C	0.071339	-1.002502	-0.703618
C101	C	0.404672	-0.669169	-0.370285
C102	C	0.738005	-0.335836	-0.036952
C103	C	0.071336	-1.002499	-0.603961
C104	C	0.404669	-0.669166	-0.270627
C105	C	0.738002	-0.335832	0.062706
C106	C	0.127366	-1.056830	-0.554123
C107	C	0.460699	-0.723496	-0.220789
C108	C	0.794032	-0.390163	0.112544
C109	C	0.183395	-1.111174	-0.603947
C110	C	0.516728	-0.777841	-0.270614
C111	C	0.850062	-0.444507	0.062719
C112	C	0.183392	-1.111181	-0.703603
C113	C	0.516726	-0.777848	-0.370270
C114	C	0.850059	-0.444515	-0.036936
C115	C	0.183399	-1.111153	-0.396233
C116	C	0.516732	-0.777819	-0.062900
C117	C	0.850065	-0.444486	0.270434
C118	C	0.183403	-1.111144	-0.296570
C119	C	0.516736	-0.777811	0.036763
C120	C	0.850070	-0.444477	0.370096
C121	C	0.071342	-1.002470	-0.296591
C122	C	0.404675	-0.669137	0.036743
C123	C	0.738009	-0.335804	0.370076
C124	C	0.071339	-1.002478	-0.396246
C125	C	0.404673	-0.669145	-0.062913
C126	C	0.738006	-0.335811	0.270420
C127	C	0.127370	-1.056821	-0.446064
C128	C	0.460704	-0.723488	-0.112731
C129	C	0.794037	-0.390154	0.220602
N130	N	0.127366	-1.056841	0.246564
N131	N	0.460699	-0.723507	0.579897
N132	N	0.794032	-0.390174	0.913231
H133	H	0.284232	-0.766235	-0.000053
H134	H	0.617565	-0.432901	0.333280
H135	H	0.950898	-0.099568	0.666613
H136	H	0.275328	-0.309209	-0.000099
H137	H	0.608661	0.024125	0.333235
H138	H	0.941995	0.357458	0.666568
F139	F	0.011713	-0.944646	-0.449286
F140	F	0.345047	-0.611313	-0.115953
F141	F	0.678380	-0.277980	0.217381
F142	F	-0.050710	-0.338365	-0.000154
F143	F	0.282624	-0.005031	0.333180
F144	F	0.615957	0.328302	0.666513
H145	H	0.278626	-0.478474	-0.000073
H146	H	0.611960	-0.145140	0.333261
H147	H	0.945293	0.188193	0.666594
F148	F	-0.046963	-0.530963	-0.000120
F149	F	0.286371	-0.197629	0.333214
F150	F	0.619704	0.135704	0.666547
F151	F	0.011710	-0.944633	-0.243570
F152	F	0.345044	-0.611300	0.089763
F153	F	0.678377	-0.277967	0.423097
H154	H	-0.023870	-0.635160	-0.000121
H155	H	0.309463	-0.301827	0.333213
H156	H	0.642796	0.031507	0.666546
F157	F	0.243022	-1.169001	-0.550903
F158	F	0.576355	-0.835668	-0.217570
F159	F	0.909689	-0.502335	0.115764
F160	F	0.243008	-1.168996	-0.243531
F161	F	0.576342	-0.835662	0.089803
F162	F	0.909675	-0.502329	0.423136
F163	F	0.243029	-1.168995	-0.449251
F164	F	0.576363	-0.835662	-0.115917
F165	F	0.909696	-0.502329	0.217416
H166	H	0.229015	-1.155429	-0.744163
H167	H	0.562348	-0.822096	-0.410830
H168	H	0.895681	-0.488763	-0.077497
H169	H	0.280932	-0.596981	-0.000073
H170	H	0.614265	-0.263648	0.333260
H171	H	0.947598	0.069686	0.666593
H172	H	-0.020578	-0.804430	-0.000093
H173	H	0.312756	-0.471096	0.333240
H174	H	0.646089	-0.137763	0.666574
H175	H	0.025717	-0.958255	-0.744189
H176	H	0.359051	-0.624922	-0.410856
H177	H	0.692384	-0.291589	-0.077523
H178	H	0.025710	-0.958254	-0.563403
H179	H	0.359044	-0.624921	-0.230070
H180	H	0.692377	-0.291587	0.103263
