data_functionalizedCrystal
_audit_creation_method	'MofGen! by Chris Wilmer'
_symmetry_space_group_name_H-M	'P1'
_symmetry_Int_Tables_number	1
_symmetry_cell_setting	triclinic
loop_
_symmetry_equiv_pos_as_xyz
  x,y,z
_cell_length_a	19.188933
_cell_length_b	19.188930
_cell_length_c	14.750779
_cell_angle_alpha	77.396187
_cell_angle_beta	102.599826
_cell_angle_gamma	83.145175
loop_
_atom_site_label
_atom_site_type_symbol
_atom_site_fract_x
_atom_site_fract_y
_atom_site_fract_z
O1	O	0.910945	0.102365	-0.079807
O2	O	1.244278	0.435698	0.253526
O3	O	1.577612	0.769032	0.586859
O4	O	0.707632	0.114100	-0.079818
O5	O	1.040965	0.447433	0.253516
O6	O	1.374299	0.780766	0.586849
O7	O	0.815159	0.006573	-0.079793
O8	O	1.148493	0.339906	0.253540
O9	O	1.481826	0.673240	0.586873
O10	O	0.803418	0.209892	-0.079832
O11	O	1.136751	0.543225	0.253502
O12	O	1.470084	0.876558	0.586835
O13	O	0.845556	-0.023820	0.079864
O14	O	1.178889	0.309513	0.413197
O15	O	1.512223	0.642847	0.746530
O16	O	0.738029	0.083707	0.079840
O17	O	1.071362	0.417040	0.413173
O18	O	1.404695	0.750373	0.746506
O19	O	0.941342	0.071972	0.079850
O20	O	1.274675	0.405305	0.413183
O21	O	1.608008	0.738638	0.746517
Zn22	Zn	0.844511	0.073014	0.105194
Zn23	Zn	1.177845	0.406347	0.438527
Zn24	Zn	1.511178	0.739680	0.771860
Zn25	Zn	0.804462	0.113058	-0.105161
Zn26	Zn	1.137796	0.446391	0.228172
Zn27	Zn	1.471129	0.779725	0.561505
O28	O	0.833814	0.179498	0.079826
O29	O	1.167148	0.512832	0.413159
O30	O	1.500481	0.846165	0.746492
C31	C	0.696819	0.098523	0.000010
C32	C	1.030152	0.431856	0.333343
C33	C	1.363486	0.765190	0.666677
C34	C	0.619314	0.097383	0.000007
C35	C	0.952647	0.430716	0.333340
C36	C	1.285981	0.764049	0.666673
C37	C	0.049492	0.105802	-0.087011
C38	C	0.382825	0.439136	0.246323
C39	C	0.716158	0.772469	0.579656
C40	C	0.122315	0.106871	-0.087014
C41	C	0.455649	0.440205	0.246319
C42	C	0.788982	0.773538	0.579652
C43	C	0.175301	0.090841	0.000014
C44	C	0.508635	0.424175	0.333348
C45	C	0.841968	0.757508	0.666681
C46	C	0.155462	0.073723	0.087053
C47	C	0.488795	0.407057	0.420387
C48	C	0.822128	0.740390	0.753720
C49	C	0.082640	0.072648	0.087055
C50	C	0.415973	0.405981	0.420388
C51	C	0.749307	0.739314	0.753721
N52	N	0.296653	0.119930	0.064786
N53	N	0.629986	0.453263	0.398119
N54	N	0.963320	0.786596	0.731453
N55	N	0.365829	0.120954	0.064779
N56	N	0.699163	0.454287	0.398112
N57	N	1.032496	0.787620	0.731445
C58	C	0.394710	0.094079	0.000015
C59	C	0.728043	0.427412	0.333349
C60	C	1.061377	0.760746	0.666682
N61	N	0.351798	0.066153	-0.064755
N62	N	0.685131	0.399486	0.268578
N63	N	1.018464	0.732820	0.601911
N64	N	0.282614	0.065132	-0.064751
N65	N	0.615947	0.398466	0.268583
N66	N	0.949281	0.731799	0.601916
C67	C	0.254266	0.092005	0.000022
C68	C	0.587599	0.425339	0.333356
C69	C	0.920933	0.758672	0.666689
C70	C	0.493506	0.112350	-0.087023
C71	C	0.826840	0.445683	0.246311
C72	C	1.160173	0.779017	0.579644
C73	C	0.566333	0.113414	-0.087023
C74	C	0.899666	0.446747	0.246310
C75	C	1.232999	0.780080	0.579644
C76	C	0.599477	0.080272	0.087047
C77	C	0.932810	0.413606	0.420381
C78	C	1.266144	0.746939	0.753714
C79	C	0.526653	0.079202	0.087045
C80	C	0.859986	0.412535	0.420379
C81	C	1.193319	0.745869	0.753712
C82	C	0.473671	0.095245	0.000008
C83	C	0.807004	0.428578	0.333341
C84	C	1.140338	0.761911	0.666674
C85	C	0.829978	-0.034635	0.000038
C86	C	1.163311	0.298698	0.333371
C87	C	1.496645	0.632032	0.666705
C88	C	0.828839	-0.112141	0.000046
C89	C	1.162172	0.221192	0.333379
C90	C	1.495506	0.554526	0.666713
C91	C	0.891931	-0.157066	0.000054
C92	C	1.225265	0.176267	0.333387
C93	C	1.558598	0.509601	0.666721
C94	C	0.890857	-0.229887	0.000038
C95	C	1.224190	0.103446	0.333372
C96	C	1.557523	0.436780	0.666705
C97	C	0.826690	-0.257783	0.000035
C98	C	1.160023	0.075550	0.333368
C99	C	1.493356	0.408883	0.666701
C100	C	0.763588	-0.212847	0.000021
C101	C	1.096922	0.120486	0.333355
C102	C	1.430255	0.453819	0.666688
C103	C	0.764663	-0.140026	0.000027
C104	C	1.097996	0.193307	0.333360
C105	C	1.431329	0.526640	0.666694
N106	N	0.787987	-0.376131	0.054366
N107	N	1.121320	-0.042798	0.387700
N108	N	1.454653	0.290535	0.721033
N109	N	0.786971	-0.445309	0.054363
N110	N	1.120304	-0.111976	0.387696
N111	N	1.453637	0.221357	0.721030
C112	C	0.823448	-0.477188	0.000015
C113	C	1.156781	-0.143855	0.333348
C114	C	1.490115	0.189478	0.666682
N115	N	0.860993	-0.437279	-0.054317
N116	N	1.194326	-0.103946	0.279016
N117	N	1.527659	0.229387	0.612349
N118	N	0.862012	-0.368096	-0.054310
N119	N	1.195345	-0.034763	0.279024
N120	N	1.528679	0.298571	0.612357
C121	C	0.825517	-0.336744	0.000028
C122	C	1.158851	-0.003411	0.333361
C123	C	1.492184	0.329922	0.666694
C124	C	0.885379	-0.601074	0.000005
C125	C	1.218712	-0.267741	0.333338
C126	C	1.552046	0.065592	0.666671
C127	C	0.884301	-0.673895	-0.000017
C128	C	1.217634	-0.340562	0.333317
C129	C	1.550967	-0.007228	0.666650
C130	C	0.757032	-0.656856	-0.000024
C131	C	1.090366	-0.323522	0.333309
C132	C	1.423699	0.009811	0.666642
C133	C	0.758111	-0.584035	-0.000013
C134	C	1.091444	-0.250701	0.333321
C135	C	1.424777	0.082632	0.666654
C136	C	0.822287	-0.556149	0.000006
C137	C	1.155620	-0.222816	0.333340
C138	C	1.488954	0.110517	0.666673
C139	C	0.952154	0.087549	0.000020
C140	C	1.285487	0.420882	0.333354
C141	C	1.618821	0.754215	0.666687
C142	C	1.029658	0.088691	0.000017
C143	C	1.362991	0.422024	0.333350
C144	C	1.696325	0.755357	0.666684
C145	C	0.818995	0.220707	-0.000008
C146	C	1.152328	0.554040	0.333326
C147	C	1.485662	0.887374	0.666659
C148	C	0.820133	0.298214	-0.000022
C149	C	1.153466	0.631548	0.333311
C150	C	1.486800	0.964881	0.666644
N151	N	0.871849	0.045684	0.248756
N152	N	1.205182	0.379017	0.582089
N153	N	1.538515	0.712351	0.915422
N154	N	0.777131	0.140382	-0.248723
N155	N	1.110464	0.473715	0.084610
N156	N	1.443797	0.807049	0.417943
C157	C	0.700781	0.216679	0.600535
C158	C	1.034114	0.550012	0.933869
C159	C	1.367448	0.883345	1.267202
C160	C	0.719942	0.197533	0.701039
C161	C	1.053276	0.530866	1.034372
C162	C	1.386609	0.864199	1.367705
C163	C	0.815177	0.102353	0.701023
C164	C	1.148511	0.435686	1.034356
C165	C	1.481844	0.769019	1.367689
C166	C	0.796022	0.121489	0.600517
C167	C	1.129355	0.454822	0.933851
C168	C	1.462688	0.788155	1.267184
C169	C	0.738823	0.178653	0.550281
C170	C	1.072157	0.511986	0.883615
C171	C	1.405490	0.845319	1.216948
C172	C	0.834064	0.083463	0.550264
C173	C	1.167397	0.416796	0.883597
C174	C	1.500731	0.750129	1.216930
C175	C	0.814912	0.102600	0.449767
C176	C	1.148245	0.435933	0.783100
C177	C	1.481579	0.769266	1.116434
C178	C	0.757718	0.159763	0.399524
C179	C	1.091051	0.493096	0.732857
C180	C	1.424384	0.826430	1.066191
C181	C	0.719672	0.197790	0.449785
C182	C	1.053005	0.531123	0.783118
C183	C	1.386338	0.864457	1.116451
C184	C	0.891265	0.026302	0.600501
C185	C	1.224599	0.359635	0.933835
C186	C	1.557932	0.692969	1.267168
C187	C	0.929308	-0.011724	0.550247
C188	C	1.262641	0.321609	0.883581
C189	C	1.595974	0.654943	1.216914
C190	C	0.910153	0.007410	0.449749
C191	C	1.243486	0.340743	0.783082
C192	C	1.576819	0.674076	1.116416
C193	C	0.852958	0.064573	0.399506
C194	C	1.186292	0.397906	0.732839
C195	C	1.519625	0.731239	1.066173
C196	C	0.948199	-0.030617	0.399488
C197	C	1.281532	0.302716	0.732821
C198	C	1.614865	0.636049	1.066155
C199	C	0.929047	-0.011480	0.298991
C200	C	1.262380	0.321853	0.632325
C201	C	1.595713	0.655186	0.965658
C202	C	0.833806	0.083710	0.299009
C203	C	1.167140	0.417043	0.632343
C204	C	1.500473	0.750377	0.965676
H205	H	0.006357	0.118863	-0.157884
H206	H	0.339691	0.452196	0.175450
H207	H	0.673024	0.785529	0.508783
H208	H	0.582478	0.127344	-0.157894
H209	H	0.915812	0.460677	0.175439
H210	H	1.249145	0.794010	0.508773
H211	H	0.642618	0.067218	0.157908
H212	H	0.975952	0.400551	0.491241
H213	H	1.309285	0.733885	0.824575
F214	F	0.953681	-0.571395	0.000029
F215	F	1.287014	-0.238062	0.333363
F216	F	1.620347	0.095272	0.666696
H217	H	0.673090	0.244334	0.408881
H218	H	1.006423	0.577667	0.742214
H219	H	1.339757	0.911001	1.075547
H220	H	0.198608	0.060670	0.157913
H221	H	0.531941	0.394004	0.491246
H222	H	0.865274	0.727337	0.824579
F223	F	0.505543	0.060998	0.179673
F224	F	0.838876	0.394332	0.513007
F225	F	1.172209	0.727665	0.846340
H226	H	0.975881	-0.058266	0.591161
H227	H	1.309214	0.275067	0.924494
H228	H	1.642548	0.608401	1.257828
F229	F	0.679447	0.238013	0.754516
F230	F	1.012781	0.571346	1.087849
F231	F	1.346114	0.904680	1.421182
H232	H	0.450366	0.125411	-0.157894
H233	H	0.783700	0.458744	0.175439
H234	H	1.117033	0.792077	0.508773
H235	H	0.960026	-0.042445	0.258074
H236	H	1.293359	0.290889	0.591408
H237	H	1.626692	0.624222	0.924741
F238	F	0.960230	-0.127389	0.000053
F239	F	1.293563	0.205944	0.333387
F240	F	1.626896	0.539278	0.666720
H241	H	0.994775	-0.077156	0.440403
H242	H	1.328108	0.256177	0.773737
H243	H	1.661441	0.589510	1.107070
F244	F	0.958010	-0.277708	0.000045
F245	F	1.291344	0.055625	0.333379
F246	F	1.624677	0.388959	0.666712
H247	H	0.711343	-0.235565	0.000016
H248	H	1.044676	0.097769	0.333349
H249	H	1.378009	0.431102	0.666683
H250	H	0.713284	-0.103448	0.000021
H251	H	1.046617	0.229886	0.333354
H252	H	1.379950	0.563219	0.666688
H253	H	0.138467	0.120810	-0.157885
H254	H	0.471800	0.454143	0.175448
H255	H	0.805133	0.787477	0.508782
H256	H	0.935679	-0.710472	-0.000016
H257	H	1.269013	-0.377139	0.333318
H258	H	1.602346	-0.043805	0.666651
H259	H	0.706735	-0.547456	-0.000013
H260	H	1.040068	-0.214123	0.333320
H261	H	1.373402	0.119210	0.666653
H262	H	0.654200	0.263223	0.559631
H263	H	0.987533	0.596556	0.892965
H264	H	1.320866	0.929889	1.226298
H265	H	0.066494	0.058716	0.157925
H266	H	0.399827	0.392049	0.491259
H267	H	0.733160	0.725382	0.824592
F268	F	0.772922	0.144545	0.245542
F269	F	1.106256	0.477878	0.578875
F270	F	1.439589	0.811212	0.912209
F271	F	0.737338	0.180133	0.292565
F272	F	1.070671	0.513466	0.625898
F273	F	1.404004	0.846799	0.959232
H274	H	0.704786	-0.679567	-0.000032
H275	H	1.038119	-0.346234	0.333301
H276	H	1.371452	-0.012900	0.666634
H277	H	0.861751	0.055811	0.741936
H278	H	1.195084	0.389144	1.075270
H279	H	1.528417	0.722477	1.408603
H280	H	0.906859	0.010725	0.682332
H281	H	1.240192	0.344059	1.015665
H282	H	1.573525	0.677392	1.348999
