data_functionalizedCrystal
_audit_creation_method	'MofGen! by Chris Wilmer'
_symmetry_space_group_name_H-M	'P1'
_symmetry_Int_Tables_number	1
_symmetry_cell_setting	triclinic
loop_
_symmetry_equiv_pos_as_xyz
  x,y,z
_cell_length_a	8.559649
_cell_length_b	14.519731
_cell_length_c	7.088929
_cell_angle_alpha	83.763267
_cell_angle_beta	95.325015
_cell_angle_gamma	76.733759
loop_
_atom_site_label
_atom_site_type_symbol
_atom_site_fract_x
_atom_site_fract_y
_atom_site_fract_z
O1	O	2.103667	-0.020642	-0.158956
O2	O	1.638604	0.026976	-0.158968
O3	O	1.883450	-0.131955	-0.158944
O4	O	1.858821	0.138289	-0.158980
O5	O	1.916171	-0.153237	0.159034
O6	O	1.671325	0.005694	0.159010
O7	O	2.136388	-0.041924	0.159023
Cu8	Cu	1.906844	-0.020058	0.188050
Cu9	Cu	1.868148	0.005111	-0.187996
O10	O	1.891542	0.117007	0.158999
C11	C	1.595445	0.019944	0.000019
C12	C	1.418097	0.030685	0.000015
C13	C	1.898657	-0.176873	0.000045
C14	C	1.895199	-0.279005	0.000046
C15	C	1.892389	-0.361947	0.000042
C16	C	1.888877	-0.466003	0.000027
C17	C	1.886090	-0.548941	0.000015
C18	C	1.882578	-0.653004	0.000004
C19	C	2.179546	-0.034891	0.000031
C20	C	2.356893	-0.045632	0.000023
C21	C	1.876335	0.161925	0.000005
C22	C	1.879791	0.264058	-0.000009
N23	N	1.934073	-0.037762	0.452541
N24	N	1.840932	0.022806	-0.452487
H25	H	1.440170	-0.119188	0.000023
C26	C	2.033384	-0.208141	0.514537
C27	C	2.064401	-0.122501	0.562769
H28	H	2.113847	-0.260453	0.582581
H29	H	1.930063	-0.212716	0.547282
H30	H	2.035234	-0.209340	0.381038
H31	H	2.062539	-0.121299	0.696267
H32	H	2.167749	-0.117925	0.530038
H33	H	1.334809	0.104247	-0.000005
C34	C	1.741627	0.193182	0.485515
C35	C	1.710611	0.107540	0.437291
H36	H	1.661175	0.245493	0.417449
H37	H	1.739767	0.194388	0.618994
H38	H	1.844966	0.197752	0.452775
H39	H	1.607276	0.102967	0.470045
H40	H	1.712454	0.106333	0.303783
