data_functionalizedCrystal
_audit_creation_method	'MofGen! by Chris Wilmer'
_symmetry_space_group_name_H-M	'P1'
_symmetry_Int_Tables_number	1
_symmetry_cell_setting	triclinic
loop_
_symmetry_equiv_pos_as_xyz
  x,y,z
_cell_length_a	6.817900
_cell_length_b	14.858329
_cell_length_c	14.858572
_cell_angle_alpha	94.733148
_cell_angle_beta	104.524003
_cell_angle_gamma	104.519616
loop_
_atom_site_label
_atom_site_type_symbol
_atom_site_fract_x
_atom_site_fract_y
_atom_site_fract_z
V1	V	-4.043543	-0.129256	-0.290226
V2	V	-3.543543	0.370744	0.209774
O3	O	-4.025386	0.005609	-0.284429
O4	O	-3.525386	0.505609	0.215571
O5	O	-4.000092	-0.255714	-0.288504
O6	O	-3.500092	0.244286	0.211496
O7	O	-4.000114	-0.127532	-0.416685
O8	O	-3.500114	0.372468	0.083315
O9	O	-4.025364	-0.123460	-0.155361
O10	O	-3.525364	0.376540	0.344639
V11	V	-4.525886	-0.113094	-0.274064
V12	V	-4.025886	0.386906	0.225936
O13	O	-4.307391	-0.164710	-0.325681
O14	O	-3.807391	0.335290	0.174319
O15	O	-4.712236	-0.077639	-0.238609
O16	O	-4.212236	0.422361	0.261391
O17	O	-4.346130	0.013364	-0.275786
O18	O	-3.846130	0.513364	0.224214
O19	O	-4.661440	-0.247959	-0.279861
O20	O	-4.161440	0.252041	0.220139
O21	O	-4.661462	-0.118890	-0.408929
O22	O	-4.161462	0.381110	0.091071
O23	O	-4.346109	-0.114818	-0.147605
O24	O	-3.846109	0.385182	0.352395
C25	C	-3.846136	-0.286534	-0.283993
C26	C	-3.346136	0.213466	0.216007
C27	C	-3.891930	-0.389916	-0.283428
C28	C	-3.391930	0.110084	0.216572
C29	C	-3.846162	-0.123024	-0.447499
C30	C	-3.346162	0.376976	0.052501
C31	C	-3.891970	-0.122451	-0.550881
C32	C	-3.391970	0.377549	-0.050881
C33	C	-3.929113	-0.473873	-0.282959
C34	C	-3.429113	0.026127	0.217041
C35	C	-3.975781	-0.579202	-0.282377
C36	C	-3.475781	-0.079202	0.217623
C37	C	-4.012992	-0.663153	-0.281914
C38	C	-3.512992	-0.163153	0.218086
C39	C	-4.059662	-0.768488	-0.281329
C40	C	-3.559662	-0.268488	0.218671
C41	C	-4.059628	-0.120358	-0.929445
C42	C	-3.559628	0.379642	-0.429445
C43	C	-4.012972	-0.120940	-0.824117
C44	C	-3.512972	0.379060	-0.324117
C45	C	-3.975800	-0.121405	-0.740166
C46	C	-3.475800	0.378595	-0.240166
C47	C	-3.929142	-0.121986	-0.634831
C48	C	-3.429142	0.378014	-0.134831
C49	C	-4.163428	0.044179	-0.280294
C50	C	-3.663428	0.544179	0.219706
C51	C	-4.096873	0.147561	-0.280866
C52	C	-3.596873	0.647561	0.219134
C53	C	-4.163402	-0.119329	-0.116786
C54	C	-3.663402	0.380671	0.383214
C55	C	-4.096833	-0.119897	-0.013403
C56	C	-3.596833	0.380103	0.486597
