data_functionalizedCrystal
_audit_creation_method	'MofGen! by Chris Wilmer'
_symmetry_space_group_name_H-M	'P1'
_symmetry_Int_Tables_number	1
_symmetry_cell_setting	triclinic
loop_
_symmetry_equiv_pos_as_xyz
  x,y,z
_cell_length_a	6.817900
_cell_length_b	16.418049
_cell_length_c	14.125286
_cell_angle_alpha	95.906801
_cell_angle_beta	100.396688
_cell_angle_gamma	103.389670
loop_
_atom_site_label
_atom_site_type_symbol
_atom_site_fract_x
_atom_site_fract_y
_atom_site_fract_z
V1	V	-3.990846	-0.115239	-0.300327
O2	O	-3.979556	0.006203	-0.294262
O3	O	-3.942116	-0.229139	-0.298609
O4	O	-3.927007	-0.113174	-0.431158
O5	O	-3.994770	-0.110564	-0.160795
V6	V	-4.476518	-0.100747	-0.283598
O7	O	-4.247392	-0.147026	-0.337026
O8	O	-4.670169	-0.068959	-0.246899
O9	O	-4.302041	0.013153	-0.285316
O10	O	-4.605205	-0.222189	-0.289663
O11	O	-4.589991	-0.105421	-0.423130
O12	O	-4.317151	-0.102812	-0.152767
C13	C	-3.787537	-0.256914	-0.293957
C14	C	-3.828878	-0.350027	-0.293424
C15	C	-3.768262	-0.108989	-0.463035
C16	C	-3.797347	-0.108054	-0.569992
C17	C	-4.105485	-0.568509	-0.297028
C18	C	-4.144317	-0.655999	-0.296536
C19	C	-3.781237	-0.647476	-0.286903
C20	C	-3.742410	-0.559988	-0.287402
C21	C	-3.904539	-0.520506	-0.292460
C22	C	-3.982198	-0.695485	-0.291468
C23	C	-4.024300	-0.790345	-0.290934
C24	C	-3.862436	-0.425640	-0.292996
C25	C	-4.036111	-0.109752	-0.818119
C26	C	-3.850634	-0.106233	-0.765794
C27	C	-3.820986	-0.107246	-0.656840
C28	C	-4.065767	-0.108738	-0.927083
C29	C	-4.119963	0.040924	-0.289965
C30	C	-4.057860	0.134036	-0.290504
C31	C	-4.139239	-0.107000	-0.120884
C32	C	-4.089392	-0.107930	-0.013927
H33	H	-4.237503	-0.536366	-0.301146
C34	C	-4.397689	-0.117916	-0.837646
C35	C	-4.220417	-0.114855	-0.768139
H36	H	-4.511461	-0.121065	-0.806780
H37	H	-4.425390	-0.166426	-0.885615
H38	H	-4.376445	-0.068325	-0.867672
H39	H	-4.241655	-0.164450	-0.738119
H40	H	-4.192713	-0.066340	-0.720153
C41	C	-4.437625	-0.679093	-0.221452
C42	C	-4.365202	-0.708760	-0.301548
H43	H	-4.573992	-0.711669	-0.224545
H44	H	-4.437691	-0.621345	-0.222479
H45	H	-4.350321	-0.684160	-0.163010
H46	H	-4.452498	-0.703688	-0.359990
H47	H	-4.365151	-0.766523	-0.300530
C48	C	-3.460023	-0.445550	-0.199245
C49	C	-3.521510	-0.507215	-0.282376
H50	H	-3.323660	-0.412969	-0.196150
H51	H	-3.463654	-0.472330	-0.142871
H52	H	-3.551040	-0.409523	-0.202347
H53	H	-3.430501	-0.543247	-0.279271
H54	H	-3.517863	-0.480434	-0.338765
H55	H	-3.649241	-0.679633	-0.282782
H56	H	-3.714107	-0.102457	-0.802825
