data_functionalizedCrystal
_audit_creation_method	'MofGen! by Chris Wilmer'
_symmetry_space_group_name_H-M	'P1'
_symmetry_Int_Tables_number	1
_symmetry_cell_setting	triclinic
loop_
_symmetry_equiv_pos_as_xyz
  x,y,z
_cell_length_a	12.759401
_cell_length_b	19.805405
_cell_length_c	12.759393
_cell_angle_alpha	89.963284
_cell_angle_beta	89.982824
_cell_angle_gamma	90.026572
loop_
_atom_site_label
_atom_site_type_symbol
_atom_site_fract_x
_atom_site_fract_y
_atom_site_fract_z
Zn1	Zn	1.606156	-0.269426	-0.593937
Zn2	Zn	2.106156	0.230574	-0.093937
Zn3	Zn	1.606019	-0.382629	-0.418239
Zn4	Zn	2.106019	0.117371	0.081761
Zn5	Zn	1.430462	-0.269460	-0.418276
Zn6	Zn	1.930462	0.230540	0.081724
Zn7	Zn	1.430411	-0.382579	-0.593880
Zn8	Zn	1.930411	0.117421	-0.093880
O9	O	1.518262	-0.326024	-0.506083
O10	O	2.018262	0.173976	-0.006083
O11	O	1.753159	-0.284450	-0.570638
O12	O	2.253159	0.215550	-0.070638
O13	O	1.582695	-0.367652	-0.271222
O14	O	2.082695	0.132348	0.228778
O15	O	1.453847	-0.174739	-0.441618
O16	O	1.953847	0.325261	0.058382
O17	O	1.753058	-0.367620	-0.441553
O18	O	2.253058	0.132380	0.058447
O19	O	1.582929	-0.174714	-0.570675
O20	O	2.082929	0.325286	-0.070675
O21	O	1.453714	-0.284507	-0.271250
O22	O	1.953714	0.215493	0.228750
O23	O	1.283434	-0.284459	-0.441563
O24	O	1.783434	0.215541	0.058437
O25	O	1.453760	-0.367534	-0.740909
O26	O	1.953760	0.132466	-0.240909
O27	O	1.283397	-0.367567	-0.570578
O28	O	1.783397	0.132433	-0.070578
O29	O	1.582879	-0.284401	-0.740951
O30	O	2.082879	0.215599	-0.240951
O31	O	1.582645	-0.477339	-0.441498
O32	O	2.082645	0.022661	0.058502
O33	O	1.453627	-0.477302	-0.570541
O34	O	1.953627	0.022698	-0.070541
C35	C	1.245295	-0.326011	-0.506069
C36	C	1.745295	0.173989	-0.006069
C37	C	1.128518	-0.326022	-0.506088
C38	C	1.628518	0.173978	-0.006088
C39	C	1.073664	-0.369366	-0.573155
C40	C	1.573664	0.130634	-0.073155
C41	C	0.963940	-0.369375	-0.573166
C42	C	1.463940	0.130625	-0.073166
C43	C	0.963934	-0.282694	-0.439034
C44	C	1.463934	0.217306	0.060966
C45	C	1.073656	-0.282682	-0.439029
C46	C	1.573656	0.217318	0.060971
C47	C	1.073666	-0.419413	-0.650591
C48	C	1.573666	0.080587	-0.150591
C49	C	0.963942	-0.419421	-0.650603
C50	C	1.463942	0.080579	-0.150603
C51	C	1.518144	-0.501880	-0.506032
C52	C	2.018144	-0.001880	-0.006032
C53	C	1.518189	-0.577112	-0.506046
C54	C	2.018189	-0.077112	-0.006046
C55	C	1.585434	-0.612453	-0.438923
C56	C	2.085434	-0.112453	0.061077
C57	C	1.585479	-0.683141	-0.438946
C58	C	2.085479	-0.183141	0.061054
C59	C	1.518272	-0.718487	-0.506088
C60	C	2.018272	-0.218487	-0.006088
C61	C	1.451024	-0.683142	-0.573217
C62	C	1.951024	-0.183142	-0.073217
C63	C	1.450986	-0.612454	-0.573199
C64	C	1.950986	-0.112454	-0.073199
C65	C	1.451179	-0.968215	-0.573295
C66	C	1.951179	-0.468215	-0.073295
C67	C	1.451221	-1.038907	-0.573306
C68	C	1.951221	-0.538907	-0.073306
C69	C	1.585672	-1.038902	-0.439043
C70	C	2.085672	-0.538902	0.060957
C71	C	1.585634	-0.968214	-0.439024
C72	C	2.085634	-0.468214	0.060976
C73	C	1.518390	-0.932875	-0.506157
C74	C	2.018390	-0.432875	-0.006157
C75	C	1.518344	-0.856226	-0.506133
C76	C	2.018344	-0.356226	-0.006133
C77	C	1.518313	-0.795135	-0.506108
C78	C	2.018313	-0.295135	-0.006108
C79	C	1.792295	-0.326037	-0.506098
C80	C	2.292295	0.173963	-0.006098
C81	C	1.909072	-0.326042	-0.506104
C82	C	2.409072	0.173958	-0.006104
C83	C	1.518329	-0.325958	-0.780117
C84	C	2.018329	0.174042	-0.280117
C85	C	1.518358	-0.325930	-0.896893
C86	C	2.018358	0.174070	-0.396893
C87	C	1.518409	-0.149481	-0.506157
C88	C	2.018409	0.350519	-0.006157
C89	C	1.518472	-0.074249	-0.506189
C90	C	2.018472	0.425751	-0.006189
C91	C	1.451148	-0.369197	-0.951735
C92	C	1.951148	0.130803	-0.451735
C93	C	1.451186	-0.369173	-1.061459
C94	C	1.951186	0.130827	-0.561459
C95	C	1.585648	-0.282609	-1.061490
C96	C	2.085648	0.217391	-0.561490
C97	C	1.585614	-0.282637	-0.951768
C98	C	2.085614	0.217363	-0.451768
C99	C	1.373514	-0.419172	-0.951718
C100	C	1.873514	0.080828	-0.451718
C101	C	1.373553	-0.419148	-1.061443
C102	C	1.873553	0.080852	-0.561443
C103	C	1.518255	-0.326040	-0.233116
C104	C	2.018255	0.173960	0.266884
C105	C	1.518430	-0.325877	-0.116340
C106	C	2.018430	0.174123	0.383660
H107	H	0.919252	-0.247408	-0.384438
H108	H	1.419252	0.252592	0.115562
H109	H	1.640157	-0.583679	-0.384245
H110	H	2.140157	-0.083679	0.115755
H111	H	0.929949	-0.400711	-0.727958
H112	H	1.429949	0.099289	-0.227958
H113	H	1.103477	-0.405434	-0.732001
H114	H	1.603477	0.094566	-0.232001
H115	H	1.640430	-1.067684	-0.384384
H116	H	2.140430	-0.567684	0.115616
Br117	Br	1.130345	-0.502387	-0.601877
Br118	Br	1.630345	-0.002387	-0.101877
Br119	Br	1.676922	-0.223858	-1.135969
Br120	Br	2.176922	0.276142	-0.635969
H121	H	1.640356	-0.939438	-0.384348
H122	H	2.140356	-0.439438	0.115652
H123	H	0.934131	-0.471829	-0.628662
H124	H	1.434131	0.028171	-0.128662
H125	H	1.640236	-0.711913	-0.384288
H126	H	2.140236	-0.211913	0.115712
H127	H	1.296227	-0.400399	-0.917694
H128	H	1.796227	0.099601	-0.417694
Br129	Br	1.409738	-0.506558	-0.902047
Br130	Br	1.909738	-0.006558	-0.402047
H131	H	1.640353	-0.247412	-0.907120
H132	H	2.140353	0.252588	-0.407120
Br133	Br	1.359728	-0.564491	-0.664304
Br134	Br	1.859728	-0.064491	-0.164304
Br135	Br	1.422070	-0.502134	-1.118141
Br136	Br	1.922070	-0.002134	-0.618141
Br137	Br	1.360005	-1.086877	-0.664432
Br138	Br	1.860005	-0.586877	-0.164432
Br139	Br	1.237982	-0.395704	-1.111098
Br140	Br	1.737982	0.104296	-0.611098
H141	H	1.396425	-0.939447	-0.627955
H142	H	1.896425	-0.439447	-0.127955
H143	H	1.118314	-0.247383	-0.384423
H144	H	1.618314	0.252617	0.115577
H145	H	1.396308	-0.711926	-0.627889
H146	H	1.896308	-0.211926	-0.127889
