data_functionalizedCrystal
_audit_creation_method	'MofGen! by Chris Wilmer'
_symmetry_space_group_name_H-M	'P1'
_symmetry_Int_Tables_number	1
_symmetry_cell_setting	triclinic
loop_
_symmetry_equiv_pos_as_xyz
  x,y,z
_cell_length_a	12.759401
_cell_length_b	12.759399
_cell_length_c	12.759393
_cell_angle_alpha	89.969094
_cell_angle_beta	90.020938
_cell_angle_gamma	89.983359
loop_
_atom_site_label
_atom_site_type_symbol
_atom_site_fract_x
_atom_site_fract_y
_atom_site_fract_z
Zn1	Zn	1.606263	0.418173	0.594017
Zn2	Zn	1.606153	0.593888	0.418336
Zn3	Zn	1.430562	0.418229	0.418352
Zn4	Zn	1.430553	0.593815	0.593973
O5	O	1.518383	0.506026	0.506170
O6	O	1.753270	0.441489	0.570724
O7	O	1.582818	0.570641	0.271317
O8	O	1.453919	0.271200	0.441680
O9	O	1.753189	0.570587	0.441652
O10	O	1.583006	0.271159	0.570740
O11	O	1.453812	0.441584	0.271329
O12	O	1.283540	0.441513	0.441637
O13	O	1.453903	0.570461	0.741000
O14	O	1.283533	0.570516	0.570665
O15	O	1.582997	0.441418	0.741032
O16	O	1.582809	0.740900	0.441609
O17	O	1.453796	0.740846	0.570649
C18	C	1.518318	0.778994	0.506146
C19	C	1.518387	0.895770	0.506171
C20	C	1.245415	0.506013	0.506149
C21	C	1.128639	0.506033	0.506165
C22	C	1.518461	0.505925	0.780203
C23	C	1.518495	0.505882	0.896980
C24	C	1.073801	0.573307	0.573244
C25	C	0.964077	0.573311	0.573265
C26	C	0.964038	0.438764	0.439118
C27	C	1.073760	0.438756	0.439104
C28	C	0.814180	0.611009	0.697125
C29	C	0.759339	0.678300	0.764195
C30	C	0.794936	0.780830	0.780142
C31	C	0.885373	0.816092	0.729004
C32	C	0.940209	0.748807	0.661926
C33	C	0.904613	0.646262	0.645999
C34	C	1.223659	0.401068	0.315242
C35	C	1.278497	0.333788	0.248158
C36	C	1.242902	0.231255	0.232200
C37	C	1.152461	0.195998	0.283320
C38	C	1.097623	0.263278	0.350404
C39	C	1.133226	0.365809	0.366363
C40	C	1.792416	0.506040	0.506191
C41	C	1.909193	0.506046	0.506200
C42	C	1.518476	0.231993	0.506217
C43	C	1.518516	0.115216	0.506237
C44	C	1.585641	0.950625	0.439056
C45	C	1.585708	1.060349	0.439091
C46	C	1.451259	1.060353	0.573359
C47	C	1.451198	0.950631	0.573328
C48	C	1.518365	0.506051	0.233202
C49	C	1.518535	0.505798	0.116426
C50	C	1.585719	0.438679	0.951860
C51	C	1.585737	0.438633	1.061584
C52	C	1.451303	0.573004	1.061538
C53	C	1.451281	0.573044	0.951816
H54	H	1.013840	0.777517	0.620290
C55	C	1.645242	0.782427	0.379383
C56	C	1.659499	0.890319	0.365244
H57	H	1.690839	0.745202	0.333809
H58	H	1.660574	0.764379	0.449973
H59	H	1.574647	0.764529	0.363937
H60	H	1.730093	0.908219	0.380698
H61	H	1.644175	0.908375	0.294638
C62	C	1.600407	0.297255	1.184983
C63	C	1.659631	0.364755	1.121904
H64	H	1.646028	0.251638	1.222215
H65	H	1.560399	0.337245	1.233346
H66	H	1.554640	0.257090	1.142163
H67	H	1.705392	0.404926	1.164726
H68	H	1.699656	0.324760	1.073536
C69	C	1.363328	0.366134	0.083354
C70	C	1.377904	0.372525	0.191937
H71	H	1.424695	0.390048	0.048642
H72	H	1.349961	0.295446	0.064273
H73	H	1.305453	0.408591	0.063506
H74	H	1.435775	0.330061	0.211786
H75	H	1.391284	0.443225	0.211026
C76	C	1.436463	0.827139	0.714607
C77	C	1.377267	0.890327	0.647108
H78	H	1.390825	0.789916	0.760159
H79	H	1.476462	0.778769	0.674611
H80	H	1.482237	0.869885	0.754842
H81	H	1.331499	0.847580	0.606868
H82	H	1.337251	0.938703	0.687109
C83	C	1.391651	0.632614	1.229715
C84	C	1.377433	0.646834	1.121818
H85	H	1.346050	0.678201	1.266925
H86	H	1.376302	0.562025	1.247702
H87	H	1.462243	0.647991	1.247693
H88	H	1.306842	0.631450	1.103839
H89	H	1.392775	0.717439	1.103823
H90	H	1.640474	1.105007	0.384441
H91	H	0.750276	0.835618	0.834753
C92	C	1.600335	0.297402	0.828497
C93	C	1.659587	0.364845	0.891583
H94	H	1.645940	0.251822	0.791284
H95	H	1.554590	0.257205	0.871303
H96	H	1.560304	0.337445	0.780109
H97	H	1.699612	0.324802	0.939977
H98	H	1.705351	0.405046	0.848773
C99	C	1.318406	0.705876	0.962782
C100	C	1.377387	0.646924	0.891483
H101	H	1.272793	0.751487	0.925533
H102	H	1.278243	0.660086	1.005577
H103	H	1.364185	0.746050	1.005581
H104	H	1.331607	0.606744	0.848689
H105	H	1.417553	0.692721	0.848670
H106	H	0.685705	0.649580	0.805832
H107	H	1.118479	0.628086	0.627852
H108	H	1.396555	1.105035	0.628034
H109	H	0.785196	0.527517	0.684158
C110	C	0.946746	0.943607	0.852965
C111	C	0.924498	0.928803	0.746528
H112	H	0.970909	1.013189	0.863782
H113	H	0.885043	0.932244	0.893007
H114	H	0.999390	0.895436	0.874285
H115	H	0.871849	0.976969	0.725209
H116	H	0.986209	0.940176	0.706472
C117	C	0.840580	0.424003	0.297839
C118	C	0.903711	0.364822	0.365402
H119	H	0.803343	0.378351	0.252325
H120	H	0.792221	0.464062	0.337790
H121	H	0.883366	0.469719	0.257566
H122	H	0.860924	0.319110	0.405680
H123	H	0.952075	0.324745	0.325446
C124	C	1.023232	0.138453	0.469988
C125	C	0.998213	0.224525	0.406607
H126	H	0.961861	0.114536	0.504690
H127	H	1.050784	0.083717	0.427753
H128	H	1.074007	0.158740	0.520519
H129	H	0.947443	0.204236	0.356071
H130	H	0.970645	0.279272	0.448846
C131	C	1.180563	0.031679	0.196116
C132	C	1.113329	0.083289	0.265786
H133	H	1.156407	-0.037904	0.185294
H134	H	1.181574	0.068018	0.131136
H135	H	1.249305	0.029908	0.224679
H136	H	1.044589	0.085067	0.237219
H137	H	1.112308	0.046940	0.330778
H138	H	1.287556	0.176480	0.177566
H139	H	1.252656	0.484556	0.328239
