data_functionalizedCrystal
_audit_creation_method	'MofGen! by Chris Wilmer'
_symmetry_space_group_name_H-M	'P1'
_symmetry_Int_Tables_number	1
_symmetry_cell_setting	triclinic
loop_
_symmetry_equiv_pos_as_xyz
  x,y,z
_cell_length_a	18.101398
_cell_length_b	15.297327
_cell_length_c	15.296720
_cell_angle_alpha	72.680778
_cell_angle_beta	99.656837
_cell_angle_gamma	80.296826
loop_
_atom_site_label
_atom_site_type_symbol
_atom_site_fract_x
_atom_site_fract_y
_atom_site_fract_z
Zn1	Zn	0.982736	0.461346	-0.589967
Zn2	Zn	1.482736	0.961346	-0.089967
Zn3	Zn	0.982652	0.589968	-0.461361
Zn4	Zn	1.482652	1.089968	0.038639
Zn5	Zn	0.884819	0.434462	-0.434471
Zn6	Zn	1.384819	0.934462	0.065529
Zn7	Zn	0.832960	0.616792	-0.616785
Zn8	Zn	1.332960	1.116792	-0.116785
O9	O	0.920792	0.525642	-0.525646
O10	O	1.420792	1.025642	-0.025646
O11	O	1.086350	0.478434	-0.572937
O12	O	1.586350	0.978434	-0.072937
O13	O	0.991342	0.546863	-0.327673
O14	O	1.491342	1.046863	0.172327
O15	O	0.919546	0.307894	-0.432621
O16	O	1.419546	0.807894	0.067379
O17	O	1.086288	0.572931	-0.478451
O18	O	1.586288	1.072931	0.021549
O19	O	0.991485	0.327646	-0.546863
O20	O	1.491485	0.827646	-0.046863
O21	O	0.919465	0.432613	-0.307917
O22	O	1.419465	0.932613	0.192083
O23	O	0.774315	0.458623	-0.458625
O24	O	1.274315	0.958623	0.041375
O25	O	0.831160	0.618649	-0.743348
O26	O	1.331160	1.118649	-0.243348
O27	O	0.736214	0.592580	-0.592570
O28	O	1.236214	1.092580	-0.092570
O29	O	0.941200	0.504444	-0.723645
O30	O	1.441200	1.004444	-0.223645
O31	O	0.941056	0.723660	-0.504455
O32	O	1.441056	1.223660	-0.004455
O33	O	0.831079	0.743368	-0.618644
O34	O	1.331079	1.243368	-0.118644
C35	C	0.880448	0.767260	-0.567398
C36	C	1.380448	1.267260	-0.067398
C37	C	0.863251	0.870630	-0.585291
C38	C	1.363251	1.370630	-0.085291
C39	C	0.728396	0.525596	-0.525591
C40	C	1.228396	1.025596	-0.025591
C41	C	0.646080	0.525602	-0.525593
C42	C	1.146080	1.025602	-0.025593
C43	C	0.880405	0.567537	-0.768179
C44	C	1.380405	1.067537	-0.268179
C45	C	0.863194	0.585390	-0.871532
C46	C	1.363194	1.085390	-0.371532
C47	C	0.346967	0.525674	-0.525681
C48	C	0.846967	1.025674	-0.025681
C49	C	0.402240	0.441094	-0.441695
C50	C	0.902240	0.941094	0.058305
C51	C	0.487877	0.441234	-0.441423
C52	C	0.987877	0.941234	0.058577
C53	C	0.495361	0.525638	-0.525637
C54	C	0.995361	1.025638	-0.025637
C55	C	0.452388	0.618970	-0.515803
C56	C	0.952388	1.118970	-0.015803
C57	C	0.366892	0.618483	-0.515237
C58	C	0.866892	1.118483	-0.015237
C59	C	0.366316	0.517803	-0.619817
C60	C	0.866316	1.017803	-0.119817
C61	C	0.452419	0.515528	-0.618903
C62	C	0.952419	1.015528	-0.118903
C63	C	0.579225	0.525623	-0.525615
C64	C	1.079225	1.025623	-0.025615
C65	C	0.263101	0.525694	-0.525702
C66	C	0.763101	1.025694	-0.025702
C67	C	1.113939	0.525689	-0.525702
C68	C	1.613939	1.025689	-0.025702
C69	C	1.196247	0.525709	-0.525726
C70	C	1.696247	1.025709	-0.025726
C71	C	0.961310	0.283084	-0.483751
C72	C	1.461310	0.783084	0.016249
C73	C	0.978577	0.179721	-0.465898
C74	C	1.478577	0.679721	0.034102
C75	C	1.043952	1.120875	-0.398080
C76	C	1.543952	1.620875	0.101920
C77	C	1.060110	1.023752	-0.381264
C78	C	1.560110	1.523752	0.118736
C79	C	1.010897	0.985467	-0.432269
C80	C	1.510897	1.485467	0.067731
C81	C	0.945523	1.044314	-0.500093
C82	C	1.445523	1.544314	-0.000093
C83	C	0.929360	1.141445	-0.516906
C84	C	1.429360	1.641445	-0.016906
C85	C	0.896305	1.006037	-0.551095
C86	C	1.396305	1.506037	-0.051095
C87	C	0.830931	1.064884	-0.618920
C88	C	1.330931	1.564884	-0.118920
C89	C	0.814772	1.162006	-0.635729
C90	C	1.314772	1.662006	-0.135729
C91	C	0.863985	1.200291	-0.584724
C92	C	1.363985	1.700291	-0.084724
C93	C	0.912467	0.908906	-0.534283
C94	C	1.412467	1.408906	-0.034283
C95	C	0.797876	0.929476	-0.653109
C96	C	1.297876	1.429476	-0.153109
C97	C	0.781718	1.026599	-0.669925
C98	C	1.281718	1.526599	-0.169925
C99	C	1.043853	0.397880	-1.121835
C100	C	1.543853	0.897880	-0.621835
C101	C	1.060027	0.381108	-1.024730
C102	C	1.560027	0.881108	-0.524730
C103	C	1.010820	0.432177	-0.986426
C104	C	1.510820	0.932177	-0.486426
C105	C	0.945436	0.500021	-1.045236
C106	C	1.445436	1.000021	-0.545236
C107	C	0.929263	0.516800	-1.142352
C108	C	1.429263	1.016800	-0.642352
C109	C	0.896231	0.551097	-1.006942
C110	C	1.396231	1.051097	-0.506942
C111	C	0.830847	0.618942	-1.065753
C112	C	1.330847	1.118942	-0.565753
C113	C	0.814677	0.635717	-1.162859
C114	C	1.314677	1.135717	-0.662859
C115	C	0.863884	0.584648	-1.201163
C116	C	1.363884	1.084648	-0.701163
C117	C	0.912404	0.534318	-0.909827
C118	C	1.412404	1.034318	-0.409827
C119	C	0.797814	0.653238	-0.930343
C120	C	1.297814	1.153238	-0.430343
C121	C	0.781640	0.670010	-1.027449
C122	C	1.281640	1.170010	-0.527449
C123	C	0.961075	0.483843	-0.284045
C124	C	1.461075	0.983843	0.215955
C125	C	0.978473	0.465728	-0.180647
C126	C	1.478473	0.965728	0.319353
H127	H	0.518221	0.371493	-0.445644
H128	H	1.018221	0.871493	0.054356
C129	C	1.028607	0.413720	-0.879611
C130	C	1.528607	0.913720	-0.379611
H131	H	1.074589	0.365994	-0.850071
H132	H	1.574589	0.865994	-0.350071
H133	H	1.035040	0.469936	-0.868003
H134	H	1.535040	0.969936	-0.368003
H135	H	0.987163	0.393819	-0.854856
H136	H	1.487163	0.893819	-0.354856
C137	C	0.709724	0.744641	-1.092142
C138	C	1.209724	1.244641	-0.592142
H139	H	0.682728	0.772651	-1.055428
H140	H	1.182728	1.272651	-0.555428
H141	H	0.724973	0.791709	-1.137033
H142	H	1.224973	1.291709	-0.637033
H143	H	0.677094	0.715594	-1.123868
H144	H	1.177094	1.215594	-0.623868
H145	H	0.850834	1.279376	-0.598414
H146	H	1.350834	1.779376	-0.098414
H147	H	0.757747	0.694824	-0.899157
H148	H	1.257747	1.194824	-0.399157
C149	C	1.131942	0.306483	-0.960046
C150	C	1.631942	0.806483	-0.460046
H151	H	1.158928	0.278466	-0.996763
H152	H	1.658928	0.778466	-0.496763
H153	H	1.164571	0.335522	-0.928317
H154	H	1.664571	0.835522	-0.428317
H155	H	1.116690	0.259408	-0.915157
H156	H	1.616690	0.759408	-0.415157
C157	C	0.385802	0.446116	-0.347525
C158	C	0.885802	0.946116	0.152475
H159	H	0.419442	0.394761	-0.297155
H160	H	0.919442	0.894761	0.202845
H161	H	0.393916	0.503625	-0.340428
H162	H	0.893916	1.003625	0.159572
H163	H	0.333904	0.443043	-0.346891
H164	H	0.833904	0.943043	0.153109
H165	H	1.084011	1.152056	-0.356553
H166	H	1.584011	1.652056	0.143447
C167	C	0.742860	1.226734	-0.710329
C168	C	1.242860	1.726734	-0.210329
H169	H	0.715868	1.190026	-0.738304
H170	H	1.215868	1.690026	-0.238304
H171	H	0.710233	1.258516	-0.681287
H172	H	1.210233	1.758516	-0.181287
H173	H	0.758120	1.271584	-0.757432
H174	H	1.258120	1.771584	-0.257432
C175	C	0.387095	0.346534	-0.447070
C176	C	0.887095	0.846534	0.052930
H177	H	0.346926	0.357786	-0.500579
H178	H	0.846926	0.857786	-0.000579
H179	H	0.432652	0.309177	-0.452204
H180	H	0.932652	0.809177	0.047796
H181	H	0.372341	0.314307	-0.391739
H182	H	0.872341	0.814307	0.108261
H183	H	0.965695	0.861001	-0.479060
H184	H	1.465695	1.361001	0.020940
C185	C	0.709809	1.091331	-0.744526
C186	C	1.209809	1.591331	-0.244526
H187	H	0.682814	1.054627	-0.772503
H188	H	1.182814	1.554627	-0.272503
H189	H	0.677183	1.123116	-0.715484
H190	H	1.177183	1.623116	-0.215484
H191	H	0.725072	1.136179	-0.791627
H192	H	1.225072	1.636179	-0.291627
H193	H	0.965640	0.479077	-0.861952
H194	H	1.465640	0.979077	-0.361952
C195	C	0.846094	0.603097	-1.307980
C196	C	1.346094	1.103097	-0.807980
H197	H	0.884765	0.562965	-1.322365
H198	H	1.384765	1.062965	-0.822365
H199	H	0.797335	0.590800	-1.327156
H200	H	1.297335	1.090800	-0.827156
H201	H	0.845221	0.666909	-1.340318
H202	H	1.345221	1.166909	-0.840318
H203	H	0.355362	0.627151	-0.446923
H204	H	0.855362	1.127151	0.053077
H205	H	0.761441	0.690968	-1.210742
H206	H	1.261441	1.190968	-0.710742
H207	H	0.517751	0.445077	-0.371325
H208	H	1.017751	0.945077	0.128675
C209	C	1.028674	0.878636	-0.413780
C210	C	1.528674	1.378636	0.086220
H211	H	1.074660	0.849074	-0.366089
H212	H	1.574660	1.349074	0.133911
H213	H	0.987230	0.853920	-0.393852
H214	H	1.487230	1.353920	0.106148
H215	H	1.035118	0.867005	-0.469997
H216	H	1.535118	1.367005	0.030003
C217	C	0.315158	0.705202	-0.595580
C218	C	0.815158	1.205202	-0.095580
H219	H	0.346437	0.740584	-0.628408
H220	H	0.846437	1.240584	-0.128408
H221	H	0.282891	0.685205	-0.637762
H222	H	0.782891	1.185205	-0.137762
H223	H	0.284238	0.743311	-0.570149
H224	H	0.784238	1.243311	-0.070149
H225	H	0.482093	0.628139	-0.448330
H226	H	0.982093	1.128139	0.051670
H227	H	0.455138	0.682942	-0.575803
H228	H	0.955138	1.182942	-0.075803
H229	H	0.352377	0.451822	-0.632023
H230	H	0.852377	0.951822	-0.132023
H231	H	0.481406	0.446930	-0.626626
H232	H	0.981406	0.946930	-0.126626
C233	C	0.743741	0.887374	-0.709222
C234	C	1.243741	1.387374	-0.209222
H235	H	0.762734	0.821103	-0.689503
H236	H	1.262734	1.321103	-0.189503
H237	H	0.693610	0.900977	-0.698318
H238	H	1.193610	1.400977	-0.198318
H239	H	0.741496	0.914053	-0.774464
H240	H	1.241496	1.414053	-0.274464
C241	C	0.457703	0.594528	-0.706119
C242	C	0.957703	1.094528	-0.206119
H243	H	0.486290	0.634894	-0.686707
H244	H	0.986290	1.134894	-0.186707
H245	H	0.482749	0.567713	-0.745074
H246	H	0.982749	1.067713	-0.245074
H247	H	0.407318	0.629737	-0.740374
H248	H	0.907318	1.129737	-0.240374
H249	H	0.328415	0.579615	-0.682186
H250	H	0.828415	1.079615	-0.182186
H251	H	1.083913	0.356313	-1.153034
H252	H	1.583913	0.856313	-0.653034
H253	H	1.113336	0.975843	-0.326041
H254	H	1.613336	1.475843	0.173959
