data_functionalizedCrystal
_audit_creation_method	'MofGen! by Chris Wilmer'
_symmetry_space_group_name_H-M	'P1'
_symmetry_Int_Tables_number	1
_symmetry_cell_setting	triclinic
loop_
_symmetry_equiv_pos_as_xyz
  x,y,z
_cell_length_a	16.625548
_cell_length_b	29.839131
_cell_length_c	16.625539
_cell_angle_alpha	89.967906
_cell_angle_beta	89.979432
_cell_angle_gamma	90.042488
loop_
_atom_site_label
_atom_site_type_symbol
_atom_site_fract_x
_atom_site_fract_y
_atom_site_fract_z
Zn1	Zn	1.232574	-0.178840	-0.455888
Zn2	Zn	1.232433	-0.253971	-0.321046
Zn3	Zn	1.097736	-0.178857	-0.321069
Zn4	Zn	1.097662	-0.253945	-0.455836
O5	O	1.165101	-0.216403	-0.388460
O6	O	1.345388	-0.188810	-0.438013
O7	O	1.214537	-0.244025	-0.208217
O8	O	1.115713	-0.115987	-0.338984
O9	O	1.345284	-0.244008	-0.338946
O10	O	1.214778	-0.115975	-0.438035
O11	O	1.115576	-0.188839	-0.208233
O12	O	0.984894	-0.188814	-0.338933
O13	O	1.115586	-0.243964	-0.568676
O14	O	0.984839	-0.243981	-0.437947
O15	O	1.214706	-0.188785	-0.568714
O16	O	1.214465	-0.316834	-0.338896
O17	O	1.115449	-0.316815	-0.437925
C18	C	0.955610	-0.216397	-0.388437
C19	C	0.865989	-0.216405	-0.388447
C20	C	0.537814	-0.216408	-0.388481
C21	C	0.629122	-0.216406	-0.388469
C22	C	0.701899	-0.216406	-0.388463
C23	C	0.793213	-0.216404	-0.388452
C24	C	1.164956	-0.333126	-0.388420
C25	C	1.164967	-0.383060	-0.388430
C26	C	1.216752	-0.692701	-0.336971
C27	C	1.216852	-0.880374	-0.337002
O28	O	1.260766	-0.904636	-0.293219
N29	N	1.165268	-0.903845	-0.388521
C30	C	1.113660	-0.880395	-0.440039
O31	O	1.069793	-0.904665	-0.483866
C32	C	1.113565	-0.692723	-0.440011
C33	C	1.165146	-0.669254	-0.388483
C34	C	1.268330	-0.669232	-0.285447
C35	C	1.268302	-0.622316	-0.285437
C36	C	1.216695	-0.598870	-0.336950
C37	C	1.165118	-0.622339	-0.388473
C38	C	1.061962	-0.669274	-0.491533
C39	C	1.061944	-0.622353	-0.491523
C40	C	1.113525	-0.598884	-0.439995
C41	C	1.113483	-0.551977	-0.439975
N42	N	1.165067	-0.528505	-0.388456
C43	C	1.216673	-0.551952	-0.336944
C44	C	1.113712	-0.978926	-0.440049
C45	C	1.113735	-1.025844	-0.440055
C46	C	1.216928	-1.025819	-0.337019
C47	C	1.216901	-0.978900	-0.337009
C48	C	1.165296	-0.955455	-0.388530
C49	C	1.216609	-0.453426	-0.336925
C50	C	1.216573	-0.406506	-0.336917
C51	C	1.113383	-0.406535	-0.439956
C52	C	1.113416	-0.453451	-0.439962
C53	C	1.165035	-0.476895	-0.388443
O54	O	1.069599	-0.527685	-0.483742
O55	O	1.260546	-0.527674	-0.293136
C56	C	1.216781	-0.739616	-0.336981
C57	C	1.165203	-0.763085	-0.388504
C58	C	1.113597	-0.739639	-0.440017
C59	C	1.165226	-0.810003	-0.388510
C60	C	1.216832	-0.833449	-0.336997
C61	C	1.268416	-0.809978	-0.285479
C62	C	1.268387	-0.763062	-0.285468
C63	C	1.062014	-0.763110	-0.491536
C64	C	1.062046	-0.810026	-0.491541
C65	C	1.113652	-0.833472	-0.440028
C66	C	1.375410	-0.216410	-0.388483
C67	C	1.465031	-0.216413	-0.388493
C68	C	1.165154	-0.216370	-0.598769
C69	C	1.165176	-0.216355	-0.688390
C70	C	1.165269	-0.099225	-0.388518
C71	C	1.165341	-0.049290	-0.388542
C72	C	1.165213	-0.216305	-1.016566
C73	C	1.165201	-0.216320	-0.925257
C74	C	1.165195	-0.216330	-0.852481
C75	C	1.165182	-0.216345	-0.761167
C76	C	1.165095	-0.216404	-0.178969
C77	C	1.165229	-0.216292	-0.089348
H78	H	1.258577	-0.387399	-0.294954
O79	O	1.011776	-0.692086	-0.541479
C80	C	0.959740	-0.719284	-0.495550
H81	H	0.954775	-0.705177	-0.432035
H82	H	0.897678	-0.719837	-0.524669
H83	H	0.984687	-0.754829	-0.492808
O84	O	1.063283	-0.476182	-0.490088
C85	C	1.017712	-0.445424	-0.535534
H86	H	1.050712	-0.411957	-0.538340
H87	H	1.009089	-0.458957	-0.599061
H88	H	0.956485	-0.440486	-0.505953
O89	O	1.318573	-0.740337	-0.235391
C90	C	1.364107	-0.771101	-0.189920
H91	H	1.366890	-0.804530	-0.222961
H92	H	1.427637	-0.757516	-0.181373
H93	H	1.334618	-0.776132	-0.128656
O94	O	1.011916	-0.740388	-0.541686
C95	C	1.029506	-0.751805	-0.622068
H96	H	1.060531	-0.785849	-0.623774
H97	H	0.971290	-0.753439	-0.658162
H98	H	1.070917	-0.725362	-0.649268
H99	H	1.258644	-0.472509	-0.294976
H100	H	1.310358	-0.688317	-0.243499
H101	H	1.310433	-0.829076	-0.243533
H102	H	1.020035	-0.829130	-0.533501
O103	O	1.267085	-0.956174	-0.286932
C104	C	1.312617	-0.986935	-0.241454
H105	H	1.315401	-1.020365	-0.274490
H106	H	1.376146	-0.973350	-0.232905
H107	H	1.283124	-0.991964	-0.180191
H108	H	1.258948	-1.044917	-0.295075
O109	O	1.318377	-0.599572	-0.235278
C110	C	1.300800	-0.611071	-0.154900
H111	H	1.269811	-0.645151	-0.153209
H112	H	1.359017	-0.612664	-0.118807
H113	H	1.259360	-0.584696	-0.127689
O114	O	1.063597	-1.048569	-0.490179
C115	C	1.018034	-1.017808	-0.535627
H116	H	1.051047	-0.984345	-0.538438
H117	H	1.009404	-1.031343	-0.599152
H118	H	0.956811	-1.012863	-0.506043
O119	O	1.063536	-0.956104	-0.489983
C120	C	1.011455	-0.929020	-0.444025
H121	H	1.039927	-0.921992	-0.382949
H122	H	1.000605	-0.896024	-0.476859
H123	H	0.951721	-0.947142	-0.435106
O124	O	1.011739	-0.599648	-0.541600
C125	C	0.966240	-0.630428	-0.587093
H126	H	0.963483	-0.663885	-0.554066
H127	H	0.902700	-0.616907	-0.595643
H128	H	0.995744	-0.635379	-0.648354
H129	H	1.071364	-0.387438	-0.481895
