data_functionalizedCrystal
_audit_creation_method	'MofGen! by Chris Wilmer'
_symmetry_space_group_name_H-M	'P1'
_symmetry_Int_Tables_number	1
_symmetry_cell_setting	triclinic
loop_
_symmetry_equiv_pos_as_xyz
  x,y,z
_cell_length_a	13.032831
_cell_length_b	12.645330
_cell_length_c	13.032268
_cell_angle_alpha	82.848687
_cell_angle_beta	89.113023
_cell_angle_gamma	82.822813
loop_
_atom_site_label
_atom_site_type_symbol
_atom_site_fract_x
_atom_site_fract_y
_atom_site_fract_z
Zn1	Zn	1.498478	-0.715929	0.780858
Zn2	Zn	1.520220	-0.873876	0.608884
Zn3	Zn	1.348336	-0.671644	0.587098
Zn4	Zn	1.326468	-0.868144	0.759009
O5	O	1.423375	-0.782398	0.683962
O6	O	1.645282	-0.757814	0.776307
O7	O	1.515670	-0.830915	0.462076
O8	O	1.368306	-0.529182	0.612827
O9	O	1.661256	-0.873856	0.649958
O10	O	1.478614	-0.561718	0.755182
O11	O	1.389388	-0.682336	0.446071
O12	O	1.201515	-0.676778	0.591641
O13	O	1.331034	-0.864087	0.905824
O14	O	1.185448	-0.821146	0.717943
O15	O	1.457409	-0.752256	0.921877
O16	O	1.494465	-1.021452	0.628771
O17	O	1.352116	-1.017241	0.739067
C18	C	1.156164	-0.743535	0.650057
C19	C	1.041847	-0.726938	0.635577
C20	C	0.982971	-0.791061	0.691519
C21	C	0.864818	-0.773908	0.676555
C22	C	1.423302	-1.057816	0.683938
C23	C	1.423360	-1.175658	0.683974
C24	C	1.334105	-1.340692	0.753648
C25	C	1.333733	-1.218045	0.753341
C26	C	1.407793	-1.203807	0.571873
C27	C	1.407248	-1.326389	0.572295
C28	C	1.528779	-1.361707	0.725584
C29	C	1.527810	-1.239270	0.727870
C30	C	1.691630	-0.821414	0.718000
C31	C	1.805944	-0.838040	0.732505
C32	C	1.389357	-0.812472	0.952210
C33	C	1.374860	-0.825288	1.066522
C34	C	1.423474	-0.505912	0.684012
C35	C	1.423516	-0.388090	0.684033
C36	C	1.457320	-0.752374	0.416765
C37	C	1.472016	-0.739288	0.302479
C38	C	1.430925	-0.775669	1.125428
C39	C	1.415944	-0.788914	1.243575
H40	H	0.827756	-0.706302	0.617582
H41	H	1.490012	-0.723380	1.088392
C42	C	1.295026	-0.895920	1.116549
N43	N	1.234892	-0.949122	1.154229
H44	H	1.332138	-1.159066	0.537955
C45	C	1.033040	-0.882386	0.771189
N46	N	1.070751	-0.951177	0.831197
H47	H	1.004781	-0.659337	0.576608
C48	C	0.856006	-0.929369	0.812182
N49	N	0.893714	-0.998158	0.872193
H50	H	1.341878	-1.199591	0.836032
H51	H	1.356842	-0.841195	1.280605
H52	H	1.342048	-1.381809	0.836582
C53	C	1.228942	-1.363927	0.715386
N54	N	1.149734	-1.381424	0.686561
C55	C	1.551853	-0.668648	1.252458
N56	N	1.611986	-0.615445	1.214781
H57	H	1.255418	-1.175020	0.724725
H58	H	1.330710	-1.340879	0.538698
C59	C	1.493797	-1.166129	0.499063
N60	N	1.558576	-1.137745	0.444224
C61	C	1.492406	-1.367983	0.498822
N62	N	1.556540	-1.399306	0.443476
H63	H	1.545671	-1.405172	0.806666
H64	H	1.596830	-1.211611	0.681954
C65	C	1.618543	-1.403665	0.657319
N66	N	1.686146	-1.435274	0.605898
C67	C	1.544038	-1.216300	0.839398
N68	N	1.556266	-1.198979	0.923395
