data_functionalizedCrystal
_audit_creation_method	'MofGen! by Chris Wilmer'
_symmetry_space_group_name_H-M	'P1'
_symmetry_Int_Tables_number	1
_symmetry_cell_setting	triclinic
loop_
_symmetry_equiv_pos_as_xyz
  x,y,z
_cell_length_a	13.897449
_cell_length_b	18.101395
_cell_length_c	13.897441
_cell_angle_alpha	89.969302
_cell_angle_beta	89.979267
_cell_angle_gamma	90.032384
loop_
_atom_site_label
_atom_site_type_symbol
_atom_site_fract_x
_atom_site_fract_y
_atom_site_fract_z
Zn1	Zn	1.474613	-0.294781	-0.545380
Zn2	Zn	1.974613	0.205219	-0.045380
Zn3	Zn	1.474469	-0.418636	-0.384082
Zn4	Zn	1.974469	0.081364	0.115918
Zn5	Zn	1.313302	-0.294816	-0.384099
Zn6	Zn	1.813302	0.205184	0.115901
Zn7	Zn	1.313246	-0.418588	-0.545334
Zn8	Zn	1.813246	0.081412	-0.045334
O9	O	1.393907	-0.356705	-0.464724
O10	O	1.893907	0.143295	0.035276
O11	O	1.609575	-0.311216	-0.523996
O12	O	2.109575	0.188784	-0.023996
O13	O	1.453053	-0.402246	-0.249102
O14	O	1.953053	0.097754	0.250898
O15	O	1.334784	-0.191178	-0.405520
O16	O	1.834784	0.308822	0.094480
O17	O	1.609470	-0.402212	-0.405490
O18	O	2.109470	0.097788	0.094510
O19	O	1.453298	-0.191152	-0.524013
O20	O	1.953298	0.308848	-0.024013
O21	O	1.334644	-0.311276	-0.249115
O22	O	1.834644	0.188724	0.250885
O23	O	1.178313	-0.311229	-0.405475
O24	O	1.678313	0.188771	0.094525
O25	O	1.334688	-0.402129	-0.680322
O26	O	1.834688	0.097871	-0.180322
O27	O	1.178272	-0.402164	-0.523934
O28	O	1.678272	0.097836	-0.023934
O29	O	1.453244	-0.311169	-0.680356
O30	O	1.953244	0.188831	-0.180356
O31	O	1.452999	-0.522263	-0.405445
O32	O	1.952999	-0.022263	0.094555
O33	O	1.334549	-0.522227	-0.523917
O34	O	1.834549	-0.022227	-0.023917
C35	C	1.143293	-0.356695	-0.464702
C36	C	1.643293	0.143305	0.035298
C37	C	1.036079	-0.356709	-0.464715
C38	C	1.536079	0.143291	0.035285
C39	C	0.839784	-0.356712	-0.464741
C40	C	1.339784	0.143288	0.035259
C41	C	0.949016	-0.356708	-0.464724
C42	C	1.449016	0.143292	0.035276
C43	C	1.393778	-0.549116	-0.464695
C44	C	1.893778	-0.049116	0.035305
C45	C	1.393811	-0.631430	-0.464716
C46	C	1.893811	-0.131430	0.035284
C47	C	1.394023	-0.930521	-0.464767
C48	C	1.894023	-0.430521	0.035233
C49	C	1.319670	-0.899204	-0.539492
C50	C	1.819670	-0.399204	-0.039492
C51	C	1.319317	-0.813586	-0.539258
C52	C	1.819317	-0.313586	-0.039258
C53	C	1.393918	-0.782138	-0.464743
C54	C	1.893918	-0.282138	0.035257
C55	C	1.366392	-0.813295	-0.363084
C56	C	1.866392	-0.313295	0.136916
C57	C	1.365913	-0.898940	-0.363531
C58	C	1.865913	-0.398940	0.136469
C59	C	1.496064	-0.898862	-0.490807
C60	C	1.996064	-0.398862	0.009193
C61	C	1.495464	-0.813210	-0.493037
C62	C	1.995464	-0.313210	0.006963
C63	C	1.393860	-0.698279	-0.464722
C64	C	1.893860	-0.198279	0.035278
C65	C	1.394078	-1.014380	-0.464781
C66	C	1.894078	-0.514380	0.035219
C67	C	1.645500	-0.356716	-0.464746
C68	C	2.145500	0.143284	0.035254
C69	C	1.752714	-0.356720	-0.464756
C70	C	2.252714	0.143280	0.035244
C71	C	1.393976	-0.356640	-0.716317
C72	C	1.893976	0.143360	-0.216317
C73	C	1.394005	-0.356612	-0.823531
C74	C	1.894005	0.143388	-0.323531
C75	C	1.394063	-0.163543	-0.464773
C76	C	1.894063	0.336457	0.035227
C77	C	1.394130	-0.081229	-0.464795
C78	C	1.894130	0.418771	0.035205
C79	C	1.394031	-0.356562	-1.019826
C80	C	1.894031	0.143438	-0.519826
C81	C	1.394014	-0.356592	-0.910594
C82	C	1.894014	0.143408	-0.410594
C83	C	1.393895	-0.356717	-0.214109
C84	C	1.893895	0.143283	0.285891
C85	C	1.394052	-0.356536	-0.106896
C86	C	1.894052	0.143464	0.393104
H87	H	1.336539	-0.792518	-0.614637
H88	H	1.836539	-0.292518	-0.114637
H89	H	1.521159	-0.920406	-0.563673
H90	H	2.021159	-0.420406	-0.063673
C91	C	1.574267	-0.784291	-0.424877
C92	C	2.074267	-0.284291	0.075123
H93	H	1.634798	-0.803938	-0.443664
H94	H	2.134798	-0.303938	0.056336
H95	H	1.560171	-0.799199	-0.360856
H96	H	2.060171	-0.299199	0.139144
H97	H	1.576457	-0.731891	-0.428072
H98	H	2.076457	-0.231891	0.071928
C99	C	1.266687	-0.784423	-0.332753
C100	C	1.766687	-0.284423	0.167247
H101	H	1.241702	-0.753390	-0.381897
H102	H	1.741702	-0.253390	0.118103
H103	H	1.272454	-0.757092	-0.274706
H104	H	1.772454	-0.257092	0.225294
H105	H	1.224384	-0.824982	-0.322963
H106	H	1.724384	-0.324982	0.177037
C107	C	1.265147	-0.926023	-0.333742
C108	C	1.765147	-0.426023	0.166258
H109	H	1.224887	-0.884683	-0.321486
H110	H	1.724887	-0.384683	0.178514
H111	H	1.270081	-0.955279	-0.277194
H112	H	1.770081	-0.455279	0.222806
H113	H	1.238295	-0.954806	-0.384185
H114	H	1.738295	-0.454806	0.115815
H115	H	1.336722	-0.919748	-0.615115
H116	H	1.836722	-0.419748	-0.115115
C117	C	1.523511	-0.785707	-0.594107
C118	C	2.023511	-0.285707	-0.094107
H119	H	1.584999	-0.804696	-0.610817
H120	H	2.084999	-0.304696	-0.110817
H121	H	1.525644	-0.733253	-0.594335
H122	H	2.025644	-0.233253	-0.094335
H123	H	1.477192	-0.802219	-0.639532
H124	H	1.977192	-0.302219	-0.139532
C125	C	1.218112	-0.928358	-0.516483
C126	C	1.718112	-0.428358	-0.016483
H127	H	1.220826	-0.959530	-0.461534
H128	H	1.720826	-0.459530	0.038466
H129	H	1.194416	-0.955600	-0.569865
H130	H	1.694416	-0.455600	-0.069865
H131	H	1.176442	-0.887924	-0.503834
H132	H	1.676442	-0.387924	-0.003834
C133	C	1.217145	-0.785989	-0.515956
C134	C	1.717145	-0.285989	-0.015956
H135	H	1.216577	-0.733508	-0.515743
H136	H	1.716577	-0.233508	-0.015743
H137	H	1.198276	-0.803787	-0.454461
H138	H	1.698276	-0.303787	0.045539
H139	H	1.173545	-0.803641	-0.563304
H140	H	1.673545	-0.303641	-0.063304
C141	C	1.435878	-0.926934	-0.285743
C142	C	1.935878	-0.426934	0.214257
H143	H	1.464462	-0.885962	-0.254004
H144	H	1.964462	-0.385962	0.245996
H145	H	1.484660	-0.956043	-0.314944
H146	H	1.984660	-0.456043	0.185056
H147	H	1.401659	-0.956057	-0.240274
H148	H	1.901659	-0.456057	0.259726
C149	C	1.437239	-0.785777	-0.285815
C150	C	1.937239	-0.285777	0.214185
H151	H	1.484344	-0.754965	-0.314936
H152	H	1.984344	-0.254965	0.185064
H153	H	1.467905	-0.826888	-0.256428
H154	H	1.967905	-0.326888	0.243572
H155	H	1.403172	-0.758484	-0.238417
H156	H	1.903172	-0.258484	0.261583
H157	H	1.551460	-0.919113	-0.436383
H158	H	2.051460	-0.419113	0.063617
