data_functionalizedCrystal
_audit_creation_method	'MofGen! by Chris Wilmer'
_symmetry_space_group_name_H-M	'P1'
_symmetry_Int_Tables_number	1
_symmetry_cell_setting	triclinic
loop_
_symmetry_equiv_pos_as_xyz
  x,y,z
_cell_length_a	15.944551
_cell_length_b	14.853567
_cell_length_c	13.930277
_cell_angle_alpha	90.004245
_cell_angle_beta	90.000335
_cell_angle_gamma	96.433166
loop_
_atom_site_label
_atom_site_type_symbol
_atom_site_fract_x
_atom_site_fract_y
_atom_site_fract_z
O1	O	-0.109664	1.196228	0.079754
O2	O	-0.122728	0.933751	0.079769
O3	O	0.006071	1.072157	0.079767
O4	O	-0.238463	1.057822	0.079756
O5	O	0.006073	1.072138	-0.079895
O6	O	-0.122725	0.933732	-0.079893
O7	O	-0.109662	1.196208	-0.079908
Zn8	Zn	-0.116193	1.064967	-0.105250
Zn9	Zn	-0.116197	1.064993	0.105111
O10	O	-0.238460	1.057803	-0.079905
C11	C	-0.122135	0.900154	-0.000060
C12	C	-0.120361	0.800072	-0.000053
C13	C	-0.036354	0.387646	-0.000071
C14	C	-0.189369	0.366169	-0.000077
C15	C	-0.191037	0.460201	-0.000074
C16	C	-0.115362	0.517960	-0.000068
C17	C	-0.038019	0.481687	-0.000065
C18	C	-0.268379	0.496480	-0.000067
C19	C	-0.270050	0.590517	-0.000063
C20	C	-0.194374	0.648278	-0.000064
C21	C	-0.117028	0.612000	-0.000062
C22	C	-0.041353	0.669759	-0.000057
C23	C	0.035994	0.633483	-0.000062
C24	C	0.037657	0.539448	-0.000067
C25	C	-0.196036	0.742313	-0.000059
C26	C	-0.043018	0.763800	-0.000051
C27	C	-0.269756	1.058407	-0.000076
C28	C	-0.363004	1.060191	-0.000080
C29	C	-0.577961	1.150246	-0.000071
C30	C	-0.638930	1.108418	-0.078791
C31	C	-0.533734	1.063419	-0.000072
C32	C	-0.638918	1.108417	0.078623
C33	C	-0.698650	1.066543	-0.000060
C34	C	-0.593474	1.021567	-0.078857
C35	C	-0.593456	1.021578	0.078628
C36	C	-0.654406	0.979687	-0.000111
C37	C	-0.438730	1.061622	-0.000080
C38	C	-0.793653	1.068334	-0.000059
C39	C	0.037367	1.071552	-0.000061
C40	C	0.130615	1.069768	-0.000050
C41	C	-0.110255	1.229806	-0.000077
C42	C	-0.112029	1.329887	-0.000077
N43	N	-0.116190	1.064957	-0.248816
C44	C	-0.173206	1.003704	-0.701084
C45	C	-0.059181	1.126306	-0.701056
C46	C	-0.059178	1.126295	-0.600560
C47	C	-0.116191	1.064989	-0.550322
C48	C	-0.173207	1.003693	-0.600579
C49	C	-0.002169	1.187596	-0.550295
C50	C	-0.002164	1.187588	-0.449793
C51	C	-0.059174	1.126277	-0.399553
C52	C	-0.116192	1.064978	-0.449817
C53	C	-0.173205	1.003672	-0.399579
C54	C	-0.230220	0.942368	-0.449840
C55	C	-0.230217	0.942382	-0.550339
C56	C	-0.059177	1.126263	-0.299054
C57	C	-0.173206	1.003661	-0.299074
N58	N	-0.116193	1.065010	0.248677
H59	H	0.026620	0.358106	-0.000079
C60	C	-0.665628	1.157553	0.167329
C61	C	-0.626536	1.246790	0.166951
C62	C	-0.651109	1.292084	0.248651
H63	H	-0.725160	1.157951	0.167082
H64	H	-0.649267	1.127350	0.223259
H65	H	-0.642903	1.276985	0.111036
H66	H	-0.567005	1.246419	0.167212
H67	H	-0.634748	1.261882	0.304581
H68	H	-0.710641	1.292475	0.248397
H69	H	-0.624583	1.352634	0.248411
C70	C	-0.698361	0.883440	-0.000214
C71	C	-0.637752	0.822137	-0.001055
C72	C	-0.678211	0.733468	-0.001169
H73	H	-0.732292	0.873933	0.055704
H74	H	-0.732981	0.874377	-0.055655
H75	H	-0.603146	0.831195	0.054380
H76	H	-0.603818	0.831614	-0.056969
H77	H	-0.712831	0.724406	-0.056610
H78	H	-0.712141	0.723971	0.054749
H79	H	-0.637094	0.691864	-0.001749
H80	H	0.044260	1.237504	-0.408876
H81	H	-0.012766	1.176224	-0.741963
H82	H	-0.219631	0.953734	-0.258176
H83	H	-0.219625	0.953789	-0.742010
C84	C	-0.292251	0.875873	-0.604783
C85	C	-0.374818	0.890471	-0.580312
C86	C	-0.431986	0.829214	-0.630439
H87	H	-0.284206	0.884595	-0.671846
H88	H	-0.283074	0.815688	-0.588305
H89	H	-0.383992	0.950642	-0.596797
H90	H	-0.382890	0.881742	-0.513257
H91	H	-0.422809	0.769029	-0.613961
H92	H	-0.423933	0.837941	-0.697500
H93	H	-0.488014	0.839104	-0.613836
C94	C	0.059689	1.254054	-0.605012
C95	C	0.047502	1.240922	-0.703782
C96	C	0.104480	1.302120	-0.754221
H97	H	0.050517	1.314258	-0.588651
H98	H	0.115785	1.244258	-0.588598
H99	H	-0.008580	1.250725	-0.720189
H100	H	0.056681	1.180730	-0.720171
H101	H	0.160576	1.292324	-0.737807
H102	H	0.095303	1.362320	-0.737852
H103	H	0.096225	1.293213	-0.821241
C104	C	-0.292079	0.875666	-0.395413
C105	C	-0.278319	0.787079	-0.419881
C106	C	-0.335294	0.725613	-0.369768
H107	H	-0.283973	0.884320	-0.328348
H108	H	-0.348174	0.885400	-0.411903
H109	H	-0.222238	0.777349	-0.403385
H110	H	-0.286431	0.778396	-0.486938
H111	H	-0.391388	0.735347	-0.386259
H112	H	-0.327183	0.734275	-0.302705
H113	H	-0.325971	0.665500	-0.386369
C114	C	0.002810	1.192854	-0.244658
C115	C	0.052749	1.246535	-0.310165
C116	C	0.109872	1.307883	-0.260092
H117	H	-0.027375	1.230458	-0.205439
H118	H	0.037882	1.160445	-0.205483
H119	H	0.017682	1.278941	-0.349324
H120	H	0.082953	1.208956	-0.349386
H121	H	0.144944	1.275474	-0.220916
H122	H	0.079681	1.345481	-0.220875
H123	H	0.143768	1.344307	-0.304530
C124	C	0.039238	0.826357	0.000006
C125	C	0.107324	0.774458	0.000024
C126	C	0.183110	0.832053	0.000090
H127	H	0.041889	0.863510	-0.055651
H128	H	0.041815	0.863470	0.055711
H129	H	0.104748	0.737360	-0.055676
H130	H	0.104700	0.737306	0.055677
H131	H	0.185687	0.869167	0.055795
H132	H	0.185753	0.869204	-0.055568
H133	H	0.229316	0.796848	0.000111
C134	C	0.121542	0.499886	-0.000016
C135	C	0.106801	0.405173	0.000008
C136	C	0.184054	0.368694	0.000070
H137	H	0.152773	0.519605	-0.055676
H138	H	0.152711	0.519662	0.055686
H139	H	0.075645	0.385406	-0.055688
H140	H	0.075583	0.385429	0.055664
H141	H	0.215223	0.388470	0.055773
H142	H	0.215279	0.388420	-0.055591
H143	H	0.174063	0.304428	0.000096
H144	H	0.097609	0.680523	-0.000051
C145	C	-0.665695	1.157272	-0.167651
C146	C	-0.641528	1.112499	-0.249886
C147	C	-0.666154	1.157490	-0.331757
H148	H	-0.725236	1.157584	-0.167439
H149	H	-0.639236	1.217853	-0.167625
H150	H	-0.667988	1.051935	-0.249912
H151	H	-0.581990	1.112186	-0.250130
H152	H	-0.639696	1.218070	-0.331730
H153	H	-0.725695	1.157799	-0.331534
H154	H	-0.649754	1.127123	-0.387562
H155	H	-0.250981	0.319136	-0.000073
H156	H	-0.329989	0.449447	-0.000062
H157	H	-0.333030	0.620045	-0.000058
H158	H	-0.259011	0.771845	-0.000056
C159	C	-0.533694	1.246359	-0.000374
C160	C	-0.556595	1.291394	-0.082996
C161	C	-0.515823	1.379927	-0.083319
H162	H	-0.549870	1.277631	0.054916
H163	H	-0.474317	1.244593	0.000146
H164	H	-0.615959	1.293166	-0.083507
H165	H	-0.540418	1.260150	-0.138299
H166	H	-0.456446	1.378161	-0.082799
H167	H	-0.532003	1.411190	-0.028026
H168	H	-0.531350	1.410492	-0.139381
H169	H	-0.573441	0.984863	-0.145480
H170	H	-0.573287	0.984893	0.145187
