data_functionalizedCrystal
_audit_creation_method	'MofGen! by Chris Wilmer'
_symmetry_space_group_name_H-M	'P1'
_symmetry_Int_Tables_number	1
_symmetry_cell_setting	triclinic
loop_
_symmetry_equiv_pos_as_xyz
  x,y,z
_cell_length_a	14.519709
_cell_length_b	15.944493
_cell_length_c	12.996460
_cell_angle_alpha	89.994417
_cell_angle_beta	90.000602
_cell_angle_gamma	83.577594
loop_
_atom_site_label
_atom_site_type_symbol
_atom_site_fract_x
_atom_site_fract_y
_atom_site_fract_z
O1	O	1.223653	0.110105	0.085419
O2	O	1.723653	0.610105	0.585419
O3	O	0.955150	0.123072	0.085449
O4	O	1.455150	0.623072	0.585449
O5	O	1.096762	-0.005679	0.085442
O6	O	1.596762	0.494321	0.585442
O7	O	1.082041	0.238856	0.085426
O8	O	1.582041	0.738856	0.585426
O9	O	1.096743	-0.005672	-0.085692
O10	O	1.596743	0.494328	0.414308
O11	O	0.955132	0.123079	-0.085685
O12	O	1.455132	0.623079	0.414315
O13	O	1.223635	0.110112	-0.085715
O14	O	1.723635	0.610112	0.414285
Cu15	Cu	1.089382	0.116596	-0.101326
Cu16	Cu	1.589382	0.616596	0.398674
Cu17	Cu	1.089403	0.116588	0.101060
Cu18	Cu	1.589403	0.616588	0.601060
O19	O	1.082023	0.238863	-0.085708
O20	O	1.582023	0.738863	0.414292
C21	C	0.920783	0.122471	-0.000114
C22	C	1.420783	0.622471	0.499886
C23	C	0.818405	0.120660	-0.000102
C24	C	1.318405	0.620660	0.499898
C25	C	1.096151	-0.036971	-0.000121
C26	C	1.596151	0.463029	0.499879
C27	C	1.094347	-0.130222	-0.000107
C28	C	1.594347	0.369778	0.499893
C29	C	0.443522	0.113994	-0.000148
C30	C	0.943522	0.613994	0.499852
C31	C	0.547826	0.115845	-0.000135
C32	C	1.047826	0.615845	0.499865
C33	C	0.630960	0.117327	-0.000124
C34	C	1.130960	0.617327	0.499876
C35	C	0.735271	0.119178	-0.000113
C36	C	1.235271	0.619178	0.499887
C37	C	1.177703	-0.365861	-0.000136
C38	C	1.677703	0.134139	0.499864
C39	C	1.132761	-0.416498	0.084246
C40	C	1.632761	0.083502	0.584246
C41	C	1.091005	-0.300948	-0.000120
C42	C	1.591005	0.199052	0.499880
C43	C	1.132723	-0.416467	-0.084478
C44	C	1.632723	0.083533	0.415522
C45	C	1.087783	-0.465863	-0.000136
C46	C	1.587783	0.034137	0.499864
C47	C	1.046087	-0.350357	0.084332
C48	C	1.546087	0.149643	0.584332
C49	C	1.046061	-0.350322	-0.084468
C50	C	1.546061	0.149678	0.415532
C51	C	1.001056	-0.400926	-0.000065
C52	C	1.501056	0.099074	0.499935
C53	C	1.092863	-0.205946	-0.000109
C54	C	1.592863	0.294054	0.499891
C55	C	1.085918	-0.560862	-0.000139
C56	C	1.585918	-0.060862	0.499861
C57	C	1.258002	0.110713	-0.000150
C58	C	1.758002	0.610713	0.499850
C59	C	1.360380	0.112524	-0.000155
C60	C	1.860380	0.612524	0.499845
C61	C	1.082634	0.270155	-0.000143
C62	C	1.582634	0.770155	0.499857
C63	C	1.084438	0.363406	-0.000149
C64	C	1.584438	0.863406	0.499851
N65	N	1.089373	0.116602	-0.243673
N66	N	1.589373	0.616602	0.256327
C67	C	1.089377	0.116604	-0.336779
C68	C	1.589377	0.616604	0.163221
C69	C	1.089386	0.116599	-0.453584
C70	C	1.589386	0.616599	0.046416
C71	C	1.089397	0.116589	-0.546682
C72	C	1.589397	0.616589	-0.046682
C73	C	1.089407	0.116585	-0.663495
C74	C	1.589407	0.616585	-0.163495
N75	N	1.089419	0.116575	0.243407
N76	N	1.589419	0.616575	0.743407
H77	H	1.252382	-0.350125	-0.000060
H78	H	1.752382	0.149875	0.499940
C79	C	1.215161	-0.391695	0.239495
C80	C	1.715161	0.108305	0.739495
C81	C	1.182198	-0.455512	0.180538
C82	C	1.682198	0.044488	0.680538
H83	H	1.245691	-0.415781	0.298935
H84	H	1.745691	0.084219	0.798935
H85	H	1.164638	-0.352129	0.259784
H86	H	1.664638	0.147871	0.759784
H87	H	1.257524	-0.363904	0.199754
H88	H	1.757524	0.136096	0.699754
H89	H	1.139829	-0.483298	0.220278
H90	H	1.639829	0.016702	0.720278
H91	H	1.232728	-0.495093	0.160251
H92	H	1.732728	0.004907	0.660251
H93	H	1.169347	-0.445342	-0.155812
H94	H	1.669347	0.054658	0.344188
H95	H	1.009501	-0.321593	0.155747
H96	H	1.509501	0.178407	0.655747
C97	C	0.855004	-0.388266	0.088429
C98	C	1.355004	0.111734	0.588429
C99	C	0.900167	-0.421962	0.000004
C100	C	1.400167	0.078038	0.500004
H101	H	0.792723	-0.401259	0.088476
H102	H	1.292723	0.098741	0.588476
H103	H	0.855629	-0.328763	0.088990
H104	H	1.355629	0.171237	0.588990
H105	H	0.886024	-0.411936	0.147790
H106	H	1.386024	0.088064	0.647790
H107	H	0.869151	-0.398287	-0.059357
H108	H	1.369151	0.101713	0.440643
H109	H	0.899537	-0.481476	-0.000566
H110	H	1.399537	0.018524	0.499434
C111	C	1.042213	-0.344818	-0.269048
C112	C	1.542213	0.155182	0.230952
C113	C	0.996669	-0.311284	-0.180765
C114	C	1.496669	0.188716	0.319235
H115	H	1.011728	-0.320711	-0.328502
H116	H	1.511728	0.179289	0.171498
H117	H	1.041175	-0.404269	-0.270083
H118	H	1.541175	0.095731	0.229917
H119	H	1.104621	-0.332202	-0.268437
H120	H	1.604621	0.167798	0.231563
H121	H	0.934263	-0.323905	-0.181372
H122	H	1.434263	0.176095	0.318628
H123	H	0.997697	-0.251819	-0.179730
H124	H	1.497697	0.248181	0.320270
