data_functionalizedCrystal
_audit_creation_method	'MofGen! by Chris Wilmer'
_symmetry_space_group_name_H-M	'P1'
_symmetry_Int_Tables_number	1
_symmetry_cell_setting	triclinic
loop_
_symmetry_equiv_pos_as_xyz
  x,y,z
_cell_length_a	29.839134
_cell_length_b	29.839131
_cell_length_c	29.839125
_cell_angle_alpha	90.017709
_cell_angle_beta	90.012189
_cell_angle_gamma	90.021992
loop_
_atom_site_label
_atom_site_type_symbol
_atom_site_fract_x
_atom_site_fract_y
_atom_site_fract_z
Zn1	Zn	0.686719	-0.179149	0.254008
Zn2	Zn	1.186719	0.320851	0.754008
Zn3	Zn	0.686652	-0.254261	0.178878
Zn4	Zn	1.186652	0.245739	0.678878
Zn5	Zn	0.611602	-0.179121	0.178890
Zn6	Zn	1.111602	0.320879	0.678890
Zn7	Zn	0.611550	-0.254227	0.253979
Zn8	Zn	1.111550	0.245773	0.753979
O9	O	0.649131	-0.216690	0.216439
O10	O	1.149131	0.283310	0.716439
O11	O	0.749578	-0.189139	0.244048
O12	O	1.249578	0.310861	0.744048
O13	O	0.676690	-0.244296	0.116012
O14	O	1.176690	0.255704	0.616012
O15	O	0.621617	-0.116257	0.188872
O16	O	1.121617	0.383743	0.688872
O17	O	0.749528	-0.244324	0.188851
O18	O	1.249528	0.255676	0.688851
O19	O	0.676805	-0.116278	0.244060
O20	O	1.176805	0.383722	0.744060
O21	O	0.621551	-0.189090	0.116021
O22	O	1.121551	0.310910	0.616021
O23	O	0.548728	-0.189058	0.188844
O24	O	1.048728	0.310942	0.688844
O25	O	0.621528	-0.244266	0.316850
O26	O	1.121528	0.255734	0.816850
O27	O	0.548690	-0.244238	0.244011
O28	O	1.048690	0.255762	0.744011
O29	O	0.676755	-0.189106	0.316871
O30	O	1.176755	0.310894	0.816871
O31	O	0.676639	-0.317124	0.188823
O32	O	1.176639	0.182876	0.688823
O33	O	0.621462	-0.317099	0.243999
O34	O	1.121462	0.182901	0.743999
C35	C	0.532408	-0.216641	0.216426
C36	C	1.032408	0.283359	0.716426
C37	C	0.482474	-0.216632	0.216431
C38	C	0.982474	0.283368	0.716431
C39	C	0.649050	-0.333412	0.216416
C40	C	1.149050	0.166588	0.716416
C41	C	0.649056	-0.383347	0.216422
C42	C	1.149056	0.116653	0.716422
C43	C	0.125909	-0.188015	0.245237
C44	C	0.625909	0.311985	0.745237
C45	C	0.313582	-0.187979	0.245226
C46	C	0.813582	0.312021	0.745226
O47	O	0.337865	-0.163591	0.269715
O48	O	0.837865	0.336409	0.769715
N49	N	0.337029	-0.216661	0.216442
N50	N	0.837029	0.283339	0.716442
C51	C	0.313555	-0.245357	0.187660
C52	C	0.813555	0.254643	0.687660
O53	O	0.337804	-0.269755	0.163181
O54	O	0.837804	0.230245	0.663181
C55	C	0.125883	-0.245395	0.187673
C56	C	0.625883	0.254605	0.687673
C57	C	0.102438	-0.216707	0.216456
C58	C	0.602438	0.283293	0.716456
C59	C	0.102464	-0.159330	0.274017
C60	C	0.602464	0.340670	0.774017
C61	C	0.055548	-0.159338	0.274018
C62	C	0.555548	0.340662	0.774018
C63	C	0.032078	-0.188030	0.245238
C64	C	0.532078	0.311970	0.745238
C65	C	0.055522	-0.216715	0.216457
C66	C	0.555522	0.283285	0.716457
C67	C	0.102409	-0.274092	0.158894
C68	C	0.602409	0.225908	0.658894
C69	C	0.055488	-0.274100	0.158901
C70	C	0.555488	0.225900	0.658901
C71	C	0.032044	-0.245412	0.187684
C72	C	0.532044	0.254588	0.687684
C73	C	-0.014864	-0.245415	0.187677
C74	C	0.485136	0.254585	0.687677
N75	N	-0.038311	-0.216732	0.216461
N76	N	0.461689	0.283268	0.716461
C77	C	-0.014840	-0.188040	0.245242
C78	C	0.485160	0.311960	0.745242
C79	C	0.412085	-0.245334	0.187655
C80	C	0.912085	0.254666	0.687655
C81	C	0.459003	-0.245324	0.187651
C82	C	0.959003	0.254676	0.687651
C83	C	0.459027	-0.187947	0.245218
C84	C	0.959027	0.312053	0.745218
C85	C	0.412108	-0.187955	0.245219
C86	C	0.912108	0.312045	0.745219
C87	C	0.388638	-0.216652	0.216439
C88	C	0.888638	0.283348	0.716439
C89	C	-0.113366	-0.188058	0.245240
C90	C	0.386634	0.311942	0.745240
C91	C	-0.160286	-0.188067	0.245237
C92	C	0.339714	0.311933	0.745237
C93	C	-0.160305	-0.245445	0.187672
C94	C	0.339695	0.254555	0.687672
C95	C	-0.113390	-0.245435	0.187674
C96	C	0.386610	0.254565	0.687674
C97	C	-0.089921	-0.216740	0.216461
C98	C	0.410079	0.283260	0.716461
O99	O	-0.039176	-0.269794	0.163204
O100	O	0.460824	0.230206	0.663204
O101	O	-0.039098	-0.163652	0.269725
O102	O	0.460902	0.336348	0.769725
C103	C	0.172824	-0.188007	0.245236
C104	C	0.672824	0.311993	0.745236
C105	C	0.196269	-0.216692	0.216455
C106	C	0.696269	0.283308	0.716455
C107	C	0.172798	-0.245384	0.187675
C108	C	0.672798	0.254616	0.687675
C109	C	0.243187	-0.216682	0.216451
C110	C	0.743187	0.283318	0.716451
C111	C	0.266657	-0.187990	0.245231
C112	C	0.766657	0.312010	0.745231
C113	C	0.243210	-0.159308	0.274016
C114	C	0.743210	0.340692	0.774016
C115	C	0.196295	-0.159315	0.274016
C116	C	0.696295	0.340685	0.774016
C117	C	0.196245	-0.274067	0.158891
C118	C	0.696245	0.225933	0.658891
C119	C	0.243161	-0.274056	0.158892
C120	C	0.743161	0.225944	0.658892
C121	C	0.266631	-0.245364	0.187672
C122	C	0.766631	0.254636	0.687672
C123	C	0.677914	-0.692990	0.187750
C124	C	1.177914	-0.192990	0.687750
C125	C	0.677969	-0.880663	0.187767
C126	C	1.177969	-0.380663	0.687767
O127	O	0.702440	-0.904928	0.163373
O128	O	1.202440	-0.404928	0.663373
N129	N	0.649224	-0.904132	0.216472
N130	N	1.149224	-0.404132	0.716472
C131	C	0.620465	-0.880679	0.245177
C132	C	1.120465	-0.380679	0.745177
O133	O	0.596020	-0.904946	0.269596
O134	O	1.096020	-0.404946	0.769596
C135	C	0.620412	-0.693007	0.245162
C136	C	1.120412	-0.193007	0.745162
C137	C	0.649156	-0.669541	0.216452
C138	C	1.149156	-0.169541	0.716452
C139	C	0.706655	-0.669524	0.159043
C140	C	1.206655	-0.169524	0.659043
C141	C	0.706640	-0.622609	0.159037
C142	C	1.206640	-0.122609	0.659037
C143	C	0.677882	-0.599159	0.187738
C144	C	1.177882	-0.099159	0.687738
C145	C	0.649140	-0.622625	0.216446
C146	C	1.149140	-0.122625	0.716446
C147	C	0.591656	-0.669555	0.273868
C148	C	1.091656	-0.169555	0.773868
C149	C	0.591646	-0.622634	0.273863
C150	C	1.091646	-0.122634	0.773863
C151	C	0.620390	-0.599168	0.245153
C152	C	1.120390	-0.099168	0.745153
C153	C	0.620367	-0.552260	0.245141
C154	C	1.120367	-0.052260	0.745141
N155	N	0.649112	-0.528792	0.216437
N156	N	1.149112	-0.028792	0.716437
C157	C	0.677869	-0.552242	0.187735
C158	C	1.177869	-0.052242	0.687735
C159	C	0.620494	-0.979209	0.245183
C160	C	1.120494	-0.479209	0.745183
C161	C	0.620507	-1.026127	0.245186
C162	C	1.120507	-0.526127	0.745186
C163	C	0.678012	-1.026109	0.187777
C164	C	1.178012	-0.526109	0.687777
C165	C	0.677996	-0.979190	0.187772
C166	C	1.177996	-0.479190	0.687772
C167	C	0.649239	-0.955741	0.216478
C168	C	1.149239	-0.455741	0.716478
C169	C	0.677834	-0.453716	0.187725
C170	C	1.177834	0.046284	0.687725
C171	C	0.677814	-0.406796	0.187720
C172	C	1.177814	0.093204	0.687720
C173	C	0.620311	-0.406819	0.245131
C174	C	1.120311	0.093181	0.745131
C175	C	0.620329	-0.453734	0.245134
C176	C	1.120329	0.046266	0.745134
C177	C	0.649094	-0.477182	0.216429
C178	C	1.149094	0.022818	0.716429
O179	O	0.595912	-0.527966	0.269527
O180	O	1.095912	-0.027966	0.769527
O181	O	0.702318	-0.527966	0.163327
O182	O	1.202318	-0.027966	0.663327
C183	C	0.677930	-0.739906	0.187756
C184	C	1.177930	-0.239906	0.687756
C185	C	0.649188	-0.763372	0.216463
C186	C	1.149188	-0.263372	0.716463
C187	C	0.620430	-0.739922	0.245165
C188	C	1.120430	-0.239922	0.745165
C189	C	0.649200	-0.810289	0.216467
C190	C	1.149200	-0.310289	0.716467
C191	C	0.677958	-0.833739	0.187765
C192	C	1.177958	-0.333739	0.687765
C193	C	0.706703	-0.810271	0.159060
C194	C	1.206703	-0.310271	0.659060
C195	C	0.706687	-0.763355	0.159054
C196	C	1.206687	-0.263355	0.659054
C197	C	0.591685	-0.763390	0.273870
C198	C	1.091685	-0.263390	0.773870
C199	C	0.591703	-0.810306	0.273873
C200	C	1.091703	-0.310306	0.773873
C201	C	0.620461	-0.833755	0.245171
C202	C	1.120461	-0.333755	0.745171
C203	C	0.766309	-0.216738	0.216451
C204	C	1.266309	0.283262	0.716451
C205	C	0.816244	-0.216759	0.216457
C206	C	1.316244	0.283241	0.716457
C207	C	0.649143	-0.216686	0.333617
C208	C	1.149143	0.283314	0.833617
C209	C	0.649148	-0.216684	0.383551
C210	C	1.149148	0.283316	0.883551
C211	C	0.649225	-0.099511	0.216471
C212	C	1.149225	0.400489	0.716471
C213	C	0.649264	-0.049577	0.216484
C214	C	1.149264	0.450423	0.716484
C215	C	0.649145	-0.216661	0.099716
C216	C	1.149145	0.283339	0.599716
C217	C	0.649227	-0.216536	0.049782
C218	C	1.149227	0.283464	0.549782
C219	C	0.677935	-0.187887	0.693209
C220	C	1.177935	0.312113	1.193209
C221	C	0.677957	-0.187849	0.880882
C222	C	1.177957	0.312151	1.380882
O223	O	0.702399	-0.163407	0.905159
O224	O	1.202399	0.336593	1.405159
N225	N	0.649208	-0.216564	0.904337
N226	N	1.149208	0.283436	1.404337
C227	C	0.620449	-0.245288	0.880870
C228	C	1.120449	0.254712	1.380870
O229	O	0.595993	-0.269708	0.905126
O230	O	1.095993	0.230292	1.405126
C231	C	0.620424	-0.245324	0.693198
C232	C	1.120424	0.254676	1.193198
C233	C	0.649179	-0.216610	0.669746
C234	C	1.149179	0.283390	1.169746
C235	C	0.706687	-0.159175	0.669757
C236	C	1.206687	0.340825	1.169757
C237	C	0.706683	-0.159187	0.622841
C238	C	1.206683	0.340813	1.122841
C239	C	0.677927	-0.187910	0.599378
C240	C	1.177927	0.312090	1.099378
C241	C	0.649175	-0.216622	0.622830
C242	C	1.149175	0.283378	1.122830
C243	C	0.591663	-0.274045	0.669732
C244	C	1.091663	0.225955	1.169732
C245	C	0.591659	-0.274051	0.622811
C246	C	1.091659	0.225949	1.122811
C247	C	0.620414	-0.245337	0.599359
C248	C	1.120414	0.254663	1.099359
C249	C	0.620415	-0.245356	0.552451
C250	C	1.120415	0.254644	1.052451
N251	N	0.649164	-0.216642	0.528997
N252	N	1.149164	0.283358	1.028997
C253	C	0.677920	-0.187918	0.552460
C254	C	1.177920	0.312082	1.052460
C255	C	0.620464	-0.245268	0.979401
C256	C	1.120464	0.254732	1.479401
C257	C	0.620471	-0.245260	1.026319
C258	C	1.120471	0.254740	1.526319
C259	C	0.677979	-0.187820	1.026327
C260	C	1.177979	0.312180	1.526327
C261	C	0.677974	-0.187830	0.979409
C262	C	1.177974	0.312170	1.479409
C263	C	0.649213	-0.216553	0.955946
C264	C	1.149213	0.283447	1.455946
C265	C	0.677910	-0.187945	0.453934
C266	C	1.177910	0.312055	0.953934
C267	C	0.677904	-0.187961	0.407015
C268	C	1.177904	0.312039	0.907015
C269	C	0.620395	-0.245399	0.407010
C270	C	1.120395	0.254601	0.907010
C271	C	0.620401	-0.245385	0.453926
C272	C	1.120401	0.254615	0.953926
C273	C	0.649160	-0.216655	0.477386
C274	C	1.149160	0.283345	0.977386
O275	O	0.595982	-0.269782	0.528146
O276	O	1.095982	0.230218	1.028146
O277	O	0.702365	-0.163495	0.528196
O278	O	1.202365	0.336505	1.028196
C279	C	0.677939	-0.187875	0.740124
C280	C	1.177939	0.312125	1.240124
C281	C	0.649187	-0.216587	0.763577
C282	C	1.149187	0.283413	1.263577
C283	C	0.620431	-0.245310	0.740113
C284	C	1.120431	0.254690	1.240113
C285	C	0.649194	-0.216579	0.810494
C286	C	1.149194	0.283421	1.310494
C287	C	0.677950	-0.187856	0.833958
C288	C	1.177950	0.312144	1.333958
C289	C	0.706699	-0.159141	0.810503
C290	C	1.206699	0.340859	1.310503
C291	C	0.706695	-0.159152	0.763588
C292	C	1.206695	0.340848	1.263588
C293	C	0.591682	-0.274025	0.763568
C294	C	1.091682	0.225975	1.263568
C295	C	0.591689	-0.274011	0.810483
C296	C	1.091689	0.225989	1.310483
C297	C	0.620445	-0.245288	0.833947
C298	C	1.120445	0.254712	1.333947
H299	H	-0.179372	-0.164704	0.268675
H300	H	0.320628	0.335296	0.768675
C301	C	0.709608	-0.156221	1.052143
C302	C	1.209608	0.343779	1.552143
C303	C	0.705975	-0.105149	1.045701
C304	C	1.205975	0.394851	1.545701
C305	C	0.737599	-0.073549	1.071519
C306	C	1.237599	0.426451	1.571519
C307	C	0.772856	-0.093021	1.103779
C308	C	1.272856	0.406979	1.603779
C309	C	0.776491	-0.144095	1.110222
C310	C	1.276491	0.355905	1.610222
C311	C	0.744867	-0.175695	1.084404
C312	C	1.244867	0.324305	1.584404
H313	H	0.679874	-0.090732	1.021819
H314	H	1.179874	0.409268	1.521819
H315	H	0.734908	-0.035740	1.066749
H316	H	1.234908	0.464260	1.566749
H317	H	0.796267	-0.069629	1.122891
H318	H	1.296267	0.430371	1.622891
H319	H	0.802592	-0.158512	1.134104
H320	H	1.302592	0.341488	1.634104
H321	H	0.747558	-0.213504	1.089174
H322	H	1.247558	0.286496	1.589174
C323	C	0.029672	-0.305666	0.127240
C324	C	0.529672	0.194334	0.627240
C325	C	0.036113	-0.301924	0.076175
C326	C	0.536113	0.198076	0.576175
C327	C	0.010297	-0.333489	0.044514
C328	C	0.510297	0.166511	0.544514
C329	C	-0.021959	-0.368795	0.063918
C330	C	0.478041	0.131205	0.563918
C331	C	-0.028402	-0.372538	0.114986
C332	C	0.471598	0.127462	0.614986
C333	C	-0.002586	-0.340974	0.146647
C334	C	0.497414	0.159026	0.646647
H335	H	0.059993	-0.275787	0.061809
H336	H	0.559993	0.224213	0.561809
H337	H	0.015067	-0.330718	0.006711
H338	H	0.515067	0.169282	0.506711
H339	H	-0.041070	-0.392161	0.040481
H340	H	0.458930	0.107839	0.540481
H341	H	-0.052282	-0.398675	0.129352
H342	H	0.447718	0.101325	0.629352
H343	H	-0.007356	-0.343745	0.184451
H344	H	0.492644	0.156255	0.684451
C345	C	0.386271	-0.276899	0.155991
C346	C	0.886271	0.223101	0.655991
C347	C	0.354017	-0.312211	0.175390
C348	C	0.854017	0.187789	0.675390
C349	C	0.328205	-0.343774	0.143725
C350	C	0.828205	0.156226	0.643725
C351	C	0.334647	-0.340025	0.092661
C352	C	0.834647	0.159975	0.592661
C353	C	0.366902	-0.304712	0.073259
C354	C	0.866902	0.195288	0.573259
C355	C	0.392714	-0.273149	0.104924
C356	C	0.892714	0.226851	0.604924
H357	H	0.349247	-0.314987	0.213194
H358	H	0.849247	0.185013	0.713194
H359	H	0.304328	-0.369915	0.158088
H360	H	0.804328	0.130085	0.658088
H361	H	0.315539	-0.363390	0.069220
H362	H	0.815539	0.136610	0.569220
H363	H	0.371672	-0.301936	0.035456
H364	H	0.871672	0.198064	0.535456
H365	H	0.416592	-0.247008	0.090562
H366	H	0.916592	0.252992	0.590562
H367	H	0.701321	-0.164578	0.387922
H368	H	1.201321	0.335422	0.887922
C369	C	0.128278	-0.127766	0.305678
C370	C	0.628278	0.372234	0.805678
C371	C	0.160531	-0.092456	0.286275
C372	C	0.660531	0.407544	0.786275
C373	C	0.186341	-0.060887	0.317935
C374	C	0.686341	0.439113	0.817935
C375	C	0.179899	-0.064628	0.369000
C376	C	0.679899	0.435372	0.869000
C377	C	0.147644	-0.099939	0.388407
C378	C	0.647644	0.400061	0.888407
C379	C	0.121834	-0.131508	0.356746
C380	C	0.621834	0.368492	0.856746
H381	H	0.165301	-0.089686	0.248471
H382	H	0.665301	0.410314	0.748471
H383	H	0.210218	-0.034748	0.303569
H384	H	0.710218	0.465252	0.803569
H385	H	0.199005	-0.041259	0.392438
H386	H	0.699005	0.458741	0.892438
H387	H	0.142874	-0.102709	0.426211
H388	H	0.642874	0.397291	0.926211
H389	H	0.097957	-0.157648	0.371112
H390	H	0.597957	0.342352	0.871112
C391	C	0.560046	-0.305617	0.737758
C392	C	1.060046	0.194383	1.237758
C393	C	0.579475	-0.340904	0.705500
C394	C	1.079475	0.159096	1.205500
C395	C	0.547837	-0.372498	0.679691
C396	C	1.047837	0.127502	1.179691
C397	C	0.496770	-0.368804	0.686140
C398	C	0.996770	0.131196	1.186140
C399	C	0.477338	-0.333516	0.718400
C400	C	0.977338	0.166484	1.218400
C401	C	0.508976	-0.301923	0.744209
C402	C	1.008976	0.198077	1.244209
H403	H	0.617281	-0.343640	0.700725
H404	H	1.117281	0.156360	1.200725
H405	H	0.562223	-0.398621	0.655810
H406	H	1.062223	0.101379	1.155810
H407	H	0.473350	-0.392192	0.667034
H408	H	0.973350	0.107808	1.167034
H409	H	0.439533	-0.330781	0.723175
H410	H	0.939533	0.169219	1.223175
H411	H	0.494591	-0.275800	0.768090
H412	H	0.994591	0.224200	1.268090
C413	C	0.738323	-0.127564	0.737794
C414	C	1.238323	0.372436	1.237794
C415	C	0.773579	-0.147046	0.705542
C416	C	1.273579	0.352954	1.205542
C417	C	0.805207	-0.115454	0.679751
C418	C	1.305207	0.384546	1.179751
C419	C	0.801579	-0.064381	0.686213
C420	C	1.301579	0.435619	1.186213
C421	C	0.766322	-0.044896	0.718466
C422	C	1.266322	0.455104	1.218466
C423	C	0.734693	-0.076487	0.744256
C424	C	1.234693	0.423513	1.244256
H425	H	0.776266	-0.184856	0.700757
H426	H	1.276266	0.315144	1.200757
H427	H	0.831307	-0.129879	0.655875
H428	H	1.331307	0.370121	1.155875
H429	H	0.824992	-0.040995	0.667121
H430	H	1.324992	0.459005	1.167121
H431	H	0.763635	-0.007086	0.723250
H432	H	1.263635	0.492914	1.223250
H433	H	0.708593	-0.062063	0.768132
H434	H	1.208593	0.437937	1.268132
C435	C	0.560048	-0.737599	0.305441
C436	C	1.060048	-0.237599	0.805441
C437	C	0.579472	-0.705316	0.340730
C438	C	1.079472	-0.205316	0.840730
C439	C	0.547830	-0.679526	0.372301
C440	C	1.047830	-0.179526	0.872301
C441	C	0.496764	-0.686019	0.368584
C442	C	0.996764	-0.186019	0.868584
C443	C	0.477337	-0.718304	0.333293
C444	C	0.977337	-0.218304	0.833293
C445	C	0.508979	-0.744094	0.301722
C446	C	1.008979	-0.244094	0.801722
H447	H	0.617276	-0.700507	0.343483
H448	H	1.117276	-0.200507	0.843483
H449	H	0.562212	-0.655626	0.398426
H450	H	1.062212	-0.155626	0.898426
H451	H	0.473341	-0.666928	0.391954
H452	H	0.973341	-0.166928	0.891954
H453	H	0.439533	-0.723113	0.330540
H454	H	0.939533	-0.223113	0.830540
H455	H	0.494598	-0.767994	0.275597
H456	H	0.994598	-0.267994	0.775597
C457	C	0.588771	-0.276996	0.381190
C458	C	1.088771	0.223004	0.881190
C459	C	0.553518	-0.257520	0.348928
C460	C	1.053518	0.242480	0.848928
C461	C	0.521895	-0.289117	0.323104
C462	C	1.021895	0.210883	0.823104
C463	C	0.525524	-0.340190	0.329544
C464	C	1.025524	0.159810	0.829544
C465	C	0.560778	-0.359668	0.361808
C466	C	1.060778	0.140332	0.861808
C467	C	0.592402	-0.328071	0.387631
C468	C	1.092402	0.171929	0.887631
H469	H	0.550830	-0.219711	0.344159
H470	H	1.050830	0.280289	0.844159
H471	H	0.495797	-0.274698	0.299220
H472	H	0.995797	0.225302	0.799220
H473	H	0.502115	-0.363579	0.310428
H474	H	1.002115	0.136421	0.810428
H475	H	0.563466	-0.397477	0.366576
H476	H	1.063466	0.102523	0.866576
H477	H	0.618499	-0.342491	0.411515
H478	H	1.118499	0.157509	0.911515
H479	H	0.393023	-0.164594	0.268656
H480	H	0.893023	0.335406	0.768656
H481	H	0.730093	-0.744253	0.135676
H482	H	1.230093	-0.244253	0.635676
C483	C	0.560081	-0.836115	0.305456
C484	C	1.060081	-0.336115	0.805456
C485	C	0.524830	-0.868403	0.285968
C486	C	1.024830	-0.368403	0.785968
C487	C	0.493212	-0.894209	0.317554
C488	C	0.993212	-0.394209	0.817554
C489	C	0.496845	-0.887727	0.368627
C490	C	0.996845	-0.387727	0.868627
C491	C	0.532097	-0.855438	0.388117
C492	C	1.032097	-0.355438	0.888117
C493	C	0.563715	-0.829631	0.356532
C494	C	1.063715	-0.329631	0.856532
H495	H	0.522139	-0.873202	0.248159
H496	H	1.022139	-0.373202	0.748159
H497	H	0.467116	-0.918112	0.303126
H498	H	0.967116	-0.418112	0.803126
H499	H	0.473439	-0.906831	0.392008
H500	H	0.973439	-0.406831	0.892008
H501	H	0.534788	-0.850638	0.425927
H502	H	1.034788	-0.350638	0.925927
H503	H	0.589811	-0.805728	0.370960
H504	H	1.089811	-0.305728	0.870960
H505	H	0.568247	-0.688653	0.297245
H506	H	1.068247	-0.188653	0.797245
C507	C	0.484850	-0.156389	0.276881
C508	C	0.984850	0.343611	0.776881
C509	C	0.536458	-0.156386	0.276877
C510	C	1.036458	0.343614	0.776877
C511	C	0.562283	-0.124834	0.308543
C512	C	1.062283	0.375166	0.808543
C513	C	0.536501	-0.093285	0.340212
C514	C	1.036501	0.406715	0.840212
C515	C	0.484891	-0.093287	0.340217
C516	C	0.984891	0.406713	0.840217
C517	C	0.459065	-0.124839	0.308552
C518	C	0.959065	0.375161	0.808552
H519	H	0.555546	-0.179741	0.253432
H520	H	1.055546	0.320259	0.753432
H521	H	0.600489	-0.124832	0.308538
H522	H	1.100489	0.375168	0.808538
H523	H	0.555619	-0.069928	0.363653
H524	H	1.055619	0.430072	0.863653
H525	H	0.465802	-0.069932	0.363662
H526	H	0.965802	0.430068	0.863662
H527	H	0.420859	-0.124840	0.308556
H528	H	0.920859	0.375160	0.808556
H529	H	0.177210	-0.135955	0.297454
H530	H	0.677210	0.364045	0.797454
H531	H	0.262328	-0.135943	0.297448
H532	H	0.762328	0.364057	0.797448
C533	C	0.484789	-0.276877	0.155986
C534	C	0.984789	0.223123	0.655986
C535	C	0.458966	-0.308439	0.124332
C536	C	0.958966	0.191561	0.624332
C537	C	0.484750	-0.339996	0.092669
C538	C	0.984750	0.160004	0.592669
C539	C	0.536357	-0.339991	0.092659
C540	C	1.036357	0.160009	0.592659
C541	C	0.562184	-0.308429	0.124314
C542	C	1.062184	0.191571	0.624314
C543	C	0.536400	-0.276872	0.155978
C544	C	1.036400	0.223128	0.655978
H545	H	0.420760	-0.308443	0.124338
H546	H	0.920760	0.191557	0.624338
H547	H	0.465631	-0.363360	0.069235
H548	H	0.965631	0.136640	0.569235
H549	H	0.555444	-0.363351	0.069219
H550	H	1.055444	0.136649	0.569219
H551	H	0.600390	-0.308424	0.124308
H552	H	1.100390	0.191576	0.624308
H553	H	0.555519	-0.253507	0.179411
H554	H	1.055519	0.246493	0.679411
H555	H	0.177140	-0.297432	0.135454
H556	H	0.677140	0.202568	0.635454
C557	C	0.560024	-0.305649	0.597002
C558	C	1.060024	0.194351	1.097002
C559	C	0.508956	-0.301960	0.603447
C560	C	1.008956	0.198040	1.103447
C561	C	0.477322	-0.333558	0.577638
C562	C	0.977322	0.166442	1.077638
C563	C	0.496757	-0.368845	0.545383
C564	C	0.996757	0.131155	1.045383
C565	C	0.547828	-0.372535	0.538936
C566	C	1.047828	0.127465	1.038936
C567	C	0.579461	-0.340937	0.564745
C568	C	1.079461	0.159063	1.064745
H569	H	0.494567	-0.275837	0.627326
H570	H	0.994567	0.224163	1.127326
H571	H	0.439516	-0.330825	0.582411
H572	H	0.939516	0.169175	1.082411
H573	H	0.473340	-0.392236	0.526277
H574	H	0.973340	0.107764	1.026277
H575	H	0.562217	-0.398658	0.515057
H576	H	1.062217	0.101342	1.015057
H577	H	0.617267	-0.343669	0.559972
H578	H	1.117267	0.156331	1.059972
H579	H	0.121490	-0.297452	0.135456
H580	H	0.621490	0.202548	0.635456
H581	H	0.701326	-0.164549	0.473031
H582	H	1.201326	0.335451	0.973031
C583	C	0.709435	-0.380985	0.156139
C584	C	1.209435	0.119015	0.656139
C585	C	0.705809	-0.387464	0.105065
C586	C	1.205809	0.112536	0.605065
C587	C	0.737430	-0.361655	0.073485
C588	C	1.237430	0.138345	0.573485
C589	C	0.772677	-0.329366	0.092979
C590	C	1.272677	0.170634	0.592979
C591	C	0.776305	-0.322886	0.144055
C592	C	1.276305	0.177114	0.644055
C593	C	0.744684	-0.348695	0.175635
C594	C	1.244684	0.151305	0.675635
H595	H	0.679716	-0.411367	0.090632
H596	H	1.179716	0.088633	0.590632
H597	H	0.734745	-0.366452	0.035675
H598	H	1.234745	0.133548	0.535675
H599	H	0.796085	-0.310261	0.069601
H600	H	1.296085	0.189739	0.569601
H601	H	0.802398	-0.298982	0.158488
H602	H	1.302398	0.201018	0.658488
H603	H	0.747370	-0.343897	0.213445
H604	H	1.247370	0.156103	0.713445
H605	H	0.596991	-0.268770	0.473021
H606	H	1.096991	0.231230	0.973021
C607	C	0.738338	-0.836071	0.127489
C608	C	1.238338	-0.336071	0.627489
C609	C	0.718905	-0.868358	0.092208
C610	C	1.218905	-0.368358	0.592208
C611	C	0.750540	-0.894161	0.060640
C612	C	1.250540	-0.394161	0.560640
C613	C	0.801608	-0.887677	0.064354
C614	C	1.301608	-0.387677	0.564354
C615	C	0.821043	-0.855389	0.099637
C616	C	1.321043	-0.355389	0.599637
C617	C	0.789408	-0.829586	0.131204
C618	C	1.289408	-0.329586	0.631204
H619	H	0.681100	-0.873159	0.089457
H620	H	1.181100	-0.373159	0.589457
H621	H	0.736153	-0.918063	0.034522
H622	H	1.236153	-0.418063	0.534522
H623	H	0.825026	-0.906778	0.040986
H624	H	1.325026	-0.406778	0.540986
H625	H	0.858848	-0.850588	0.102388
H626	H	1.358848	-0.350588	0.602388
H627	H	0.803795	-0.805684	0.157323
H628	H	1.303795	-0.305684	0.657323
C629	C	0.709472	-0.479503	0.156147
C630	C	1.209472	0.020497	0.656147
C631	C	0.705834	-0.473071	0.105073
C632	C	1.205834	0.026929	0.605073
C633	C	0.737468	-0.498858	0.073493
C634	C	1.237468	0.001142	0.573493
C635	C	0.772742	-0.531079	0.092988
C636	C	1.272742	-0.031079	0.592988
C637	C	0.776381	-0.537513	0.144065
C638	C	1.276381	-0.037513	0.644065
C639	C	0.744746	-0.511725	0.175645
C640	C	1.244746	-0.011725	0.675645
H641	H	0.679721	-0.449218	0.090639
H642	H	1.179721	0.050782	0.590639
H643	H	0.734774	-0.494095	0.035682
H644	H	1.234774	0.005905	0.535682
H645	H	0.796160	-0.550168	0.069611
H646	H	1.296160	-0.050168	0.569611
H647	H	0.802494	-0.561366	0.158499
H648	H	1.302494	-0.061366	0.658499
H649	H	0.747441	-0.516489	0.213456
H650	H	1.247441	-0.016489	0.713456
H651	H	0.730115	-0.135755	0.829615
H652	H	1.230115	0.364245	1.329615
C653	C	0.738292	-0.695313	0.127466
C654	C	1.238292	-0.195313	0.627466
C655	C	0.734655	-0.688875	0.076392
C656	C	1.234655	-0.188875	0.576392
C657	C	0.766291	-0.714659	0.044811
C658	C	1.266291	-0.214659	0.544811
C659	C	0.801563	-0.746881	0.064303
C660	C	1.301563	-0.246881	0.564303
C661	C	0.805202	-0.753321	0.115380
C662	C	1.305202	-0.253321	0.615380
C663	C	0.773566	-0.727537	0.146961
C664	C	1.273566	-0.227537	0.646961
H665	H	0.708542	-0.665020	0.061961
H666	H	1.208542	-0.165020	0.561961
H667	H	0.763597	-0.709892	0.007000
H668	H	1.263597	-0.209892	0.507000
H669	H	0.824982	-0.765968	0.040925
H670	H	1.324982	-0.265968	0.540925
H671	H	0.831314	-0.777175	0.129811
H672	H	1.331314	-0.277175	0.629811
H673	H	0.776259	-0.732304	0.184772
H674	H	1.276259	-0.232304	0.684772
C675	C	-0.087555	-0.156491	0.276903
C676	C	0.412445	0.343509	0.776903
C677	C	-0.093999	-0.160229	0.327968
C678	C	0.406001	0.339771	0.827968
C679	C	-0.068188	-0.128660	0.359628
C680	C	0.431812	0.371340	0.859628
C681	C	-0.035932	-0.093353	0.340223
C682	C	0.464068	0.406647	0.840223
C683	C	-0.029487	-0.089613	0.289156
C684	C	0.470513	0.410387	0.789156
C685	C	-0.055298	-0.121183	0.257496
C686	C	0.444702	0.378817	0.757496
H687	H	-0.117878	-0.186366	0.342335
H688	H	0.382122	0.313634	0.842335
H689	H	-0.072959	-0.131428	0.397432
H690	H	0.427041	0.368572	0.897432
H691	H	-0.016825	-0.069983	0.363660
H692	H	0.483175	0.430017	0.863660
H693	H	-0.005608	-0.063476	0.274789
H694	H	0.494392	0.436524	0.774789
H695	H	-0.050526	-0.118414	0.219692
H696	H	0.449474	0.381586	0.719692
H697	H	0.597061	-0.268646	1.045409
H698	H	1.097061	0.231354	1.545409
C699	C	0.560054	-0.305599	0.836275
C700	C	1.060054	0.194401	1.336275
C701	C	0.579483	-0.340876	0.868531
C702	C	1.079483	0.159124	1.368531
C703	C	0.547845	-0.372459	0.894320
C704	C	1.047845	0.127541	1.394320
C705	C	0.496777	-0.368765	0.887853
C706	C	0.996777	0.131235	1.387853
C707	C	0.477345	-0.333486	0.855596
C708	C	0.977345	0.166514	1.355596
C709	C	0.508984	-0.301903	0.829807
C710	C	1.008984	0.198097	1.329807
H711	H	0.617288	-0.343613	0.873319
H712	H	1.117288	0.156387	1.373319
H713	H	0.562230	-0.398575	0.918198
H714	H	1.062230	0.101425	1.418198
H715	H	0.473357	-0.392144	0.906944
H716	H	0.973357	0.107856	1.406944
H717	H	0.439540	-0.330749	0.850808
H718	H	0.939540	0.169251	1.350808
H719	H	0.494599	-0.275787	0.805929
H720	H	0.994599	0.224213	1.305929
H721	H	0.262245	-0.297416	0.135449
H722	H	0.762245	0.202584	0.635449
C723	C	0.738310	-0.127596	0.597049
C724	C	1.238310	0.372404	1.097049
C725	C	0.734679	-0.076523	0.603514
C726	C	1.234679	0.423477	1.103514
C727	C	0.766306	-0.044929	0.577726
C728	C	1.266306	0.455071	1.077726
C729	C	0.801565	-0.064407	0.545474
C730	C	1.301565	0.435593	1.045474
C731	C	0.805197	-0.115482	0.539008
C732	C	1.305197	0.384518	1.039008
C733	C	0.773569	-0.147077	0.564796
C734	C	1.273569	0.352923	1.064796
H735	H	0.708577	-0.062102	0.627390
H736	H	1.208577	0.437898	1.127390
H737	H	0.763617	-0.007119	0.582513
H738	H	1.263617	0.492881	1.082513
H739	H	0.824977	-0.041019	0.526385
H740	H	1.324977	0.458981	1.026385
H741	H	0.831298	-0.129904	0.515132
H742	H	1.331298	0.370096	1.015132
H743	H	0.776258	-0.184887	0.560009
H744	H	1.276258	0.315113	1.060009
H745	H	-0.094300	-0.268791	0.164232
H746	H	0.405700	0.231209	0.664232
H747	H	-0.179424	-0.268804	0.164238
H748	H	0.320576	0.231196	0.664238
H749	H	0.730104	-0.135783	0.688855
H750	H	1.230104	0.364217	1.188855
H751	H	0.036464	-0.135980	0.297458
H752	H	0.536464	0.364020	0.797458
H753	H	0.730046	-0.603506	0.135660
H754	H	1.230046	-0.103506	0.635660
H755	H	0.701402	-0.960087	0.164394
H756	H	1.201402	-0.460087	0.664394
H757	H	0.701427	-1.045209	0.164407
H758	H	1.201427	-0.545209	0.664407
C759	C	0.709602	-0.156243	0.953614
C760	C	1.209602	0.343757	1.453614
C761	C	0.744855	-0.175726	0.921359
C762	C	1.244855	0.324274	1.421359
C763	C	0.776483	-0.144136	0.895567
C764	C	1.276483	0.355864	1.395567
C765	C	0.772858	-0.093062	0.902029
C766	C	1.272858	0.406938	1.402029
C767	C	0.737603	-0.073576	0.934285
C768	C	1.237603	0.426424	1.434285
C769	C	0.705975	-0.105166	0.960077
C770	C	1.205975	0.394834	1.460077
H771	H	0.747540	-0.213536	0.916574
H772	H	1.247540	0.286464	1.416574
H773	H	0.802581	-0.158561	0.871689
H774	H	1.302581	0.341439	1.371689
H775	H	0.796271	-0.069677	0.882936
H776	H	1.296271	0.430323	1.382936
H777	H	0.734918	-0.035766	0.939070
H778	H	1.234918	0.464234	1.439070
H779	H	0.679877	-0.090741	0.983955
H780	H	1.179877	0.409259	1.483955
H781	H	0.597097	-1.045229	0.268560
H782	H	1.097097	-0.545229	0.768560
H783	H	0.597044	-0.268660	0.960302
H784	H	1.097044	0.231340	1.460302
C785	C	0.560010	-0.596840	0.305439
C786	C	1.060010	-0.096840	0.805439
C787	C	0.508943	-0.603331	0.301727
C788	C	1.008943	-0.103331	0.801727
C789	C	0.477307	-0.577538	0.333301
C790	C	0.977307	-0.077538	0.833301
C791	C	0.496737	-0.545255	0.368587
C792	C	0.996737	-0.045255	0.868587
C793	C	0.547806	-0.538763	0.372301
C794	C	1.047806	-0.038763	0.872301
C795	C	0.579443	-0.564556	0.340726
C796	C	1.079443	-0.064556	0.840726
H797	H	0.494558	-0.627230	0.275604
H798	H	0.994558	-0.127230	0.775604
H799	H	0.439502	-0.582344	0.330552
H800	H	0.939502	-0.082344	0.830552
H801	H	0.473318	-0.526162	0.391960
H802	H	0.973318	-0.026162	0.891960
H803	H	0.562192	-0.514864	0.398423
H804	H	1.062192	-0.014864	0.898423
H805	H	0.617248	-0.559750	0.343476
H806	H	1.117248	-0.059750	0.843476
H807	H	0.597076	-0.960121	0.268559
H808	H	1.097076	-0.460121	0.768559
H809	H	0.596925	-0.472841	0.268513
H810	H	1.096925	0.027159	0.768513
H811	H	0.568248	-0.297427	0.688819
H812	H	1.068248	0.202573	1.188819
H813	H	0.596895	-0.387719	0.268498
H814	H	1.096895	0.112281	0.768498
