data_functionalizedCrystal
_audit_creation_method	'MofGen! by Chris Wilmer'
_symmetry_space_group_name_H-M	'P1'
_symmetry_Int_Tables_number	1
_symmetry_cell_setting	triclinic
loop_
_symmetry_equiv_pos_as_xyz
  x,y,z
_cell_length_a	12.837943
_cell_length_b	15.944551
_cell_length_c	11.892095
_cell_angle_alpha	93.888509
_cell_angle_beta	85.689438
_cell_angle_gamma	89.163839
loop_
_atom_site_label
_atom_site_type_symbol
_atom_site_fract_x
_atom_site_fract_y
_atom_site_fract_z
O1	O	1.382096	0.213524	-0.093988
O2	O	1.882096	0.713524	0.406012
O3	O	1.080290	0.202737	-0.093995
O4	O	1.580290	0.702737	0.406005
O5	O	1.239434	0.086515	-0.093981
O6	O	1.739434	0.586515	0.406019
O7	O	1.222952	0.329745	-0.094002
O8	O	1.722952	0.829745	0.405998
O9	O	1.226164	0.096189	0.094025
O10	O	1.726164	0.596189	0.594025
O11	O	1.067021	0.212411	0.094012
O12	O	1.567021	0.712411	0.594012
O13	O	1.368826	0.223198	0.094018
O14	O	1.868826	0.723198	0.594018
Zn15	Zn	1.215817	0.219340	0.123865
Zn16	Zn	1.715817	0.719340	0.623865
Zn17	Zn	1.233299	0.206594	-0.123842
Zn18	Zn	1.733299	0.706594	0.376158
O19	O	1.209683	0.339419	0.094005
O20	O	1.709683	0.839419	0.594005
C21	C	1.035034	0.203930	0.000008
C22	C	1.535034	0.703930	0.500008
C23	C	0.919957	0.193062	0.000006
C24	C	1.419957	0.693062	0.500006
C25	C	1.232115	0.060004	0.000022
C26	C	1.732115	0.560004	0.500022
C27	C	1.230063	-0.033407	0.000023
C28	C	1.730063	0.466593	0.500023
C29	C	0.679007	0.323714	0.000011
C30	C	1.179007	0.823714	0.500011
C31	C	0.570881	0.313507	0.000010
C32	C	1.070881	0.813507	0.500010
C33	C	0.595575	0.162440	0.000010
C34	C	1.095575	0.662440	0.500010
C35	C	0.703701	0.172648	0.000012
C36	C	1.203701	0.672648	0.500012
C37	C	0.745413	0.253287	0.000010
C38	C	1.245413	0.753287	0.500010
C39	C	0.853542	0.263494	0.000003
C40	C	1.353542	0.763494	0.500003
C41	C	0.878234	0.112428	0.000012
C42	C	1.378234	0.612428	0.500012
C43	C	0.770107	0.102221	0.000011
C44	C	1.270107	0.602221	0.500011
C45	C	1.126515	-0.256548	0.000005
C46	C	1.626515	0.243452	0.500005
C47	C	1.168058	-0.308949	0.092705
C48	C	1.668058	0.191051	0.592705
C49	C	1.226352	-0.204430	0.000014
C50	C	1.726352	0.295570	0.500014
C51	C	1.181163	-0.318468	-0.092655
C52	C	1.681163	0.181532	0.407345
C53	C	1.222761	-0.369631	0.000001
C54	C	1.722761	0.130369	0.500001
C55	C	1.267917	-0.255596	0.092790
C56	C	1.767917	0.244404	0.592790
C57	C	1.281014	-0.265115	-0.092653
C58	C	1.781014	0.234885	0.407347
C59	C	1.322628	-0.317491	0.000069
C60	C	1.822628	0.182509	0.500069
C61	C	1.228418	-0.109262	0.000023
C62	C	1.728418	0.390738	0.500023
C63	C	1.220702	-0.464796	0.000000
C64	C	1.720702	0.035204	0.500000
C65	C	1.414082	0.222005	0.000013
C66	C	1.914082	0.722005	0.500013
C67	C	1.529160	0.232872	0.000008
C68	C	2.029160	0.732872	0.500008
C69	C	1.217002	0.365931	-0.000001
C70	C	1.717002	0.865931	0.499999
C71	C	1.219054	0.459340	-0.000009
C72	C	1.719054	0.959340	0.499991
N73	N	1.203893	0.228039	0.292918
N74	N	1.703893	0.728039	0.792918
N75	N	1.245231	0.197890	-0.292895
N76	N	1.745231	0.697890	0.207105
C77	C	1.328203	0.137313	0.529576
C78	C	1.828203	0.637313	1.029576
C79	C	1.319876	0.143400	0.647918
C80	C	1.819876	0.643400	1.147918
C81	C	1.178907	0.246295	0.647944
C82	C	1.678907	0.746295	1.147944
C83	C	1.187234	0.240208	0.529603
C84	C	1.687234	0.740208	1.029603
C85	C	1.261886	0.185716	0.470423
C86	C	1.761886	0.685716	0.970423
C87	C	1.270217	0.179634	0.352080
C88	C	1.770217	0.679634	0.852080
C89	C	1.129244	0.282524	0.352108
C90	C	1.629244	0.782524	0.852108
C91	C	1.120917	0.288611	0.470449
C92	C	1.620917	0.788611	0.970449
H93	H	0.712969	0.389374	0.000008
H94	H	1.212969	0.889374	0.500008
H95	H	1.060134	0.332975	0.518647
H96	H	1.560134	0.832975	1.018647
H97	H	0.887502	0.329155	0.000004
H98	H	1.387502	0.829155	0.500004
N99	N	0.499251	0.389469	0.000054
N100	N	0.999251	0.889469	0.500054
H101	H	0.542086	0.442100	0.000067
H102	H	1.042086	0.942100	0.500067
H103	H	0.458750	0.384962	-0.069629
H104	H	0.958750	0.884962	0.430371
H105	H	1.075247	0.321940	0.303932
H106	H	1.575247	0.821940	0.803932
H107	H	0.561587	0.096792	0.000105
H108	H	1.061587	0.596792	0.500105
N109	N	0.949850	0.036457	0.000023
N110	N	1.449850	0.536457	0.500023
H111	H	0.941344	-0.001924	-0.069670
H112	H	1.441344	0.498076	0.430330
H113	H	1.024647	0.055221	0.000066
H114	H	1.524647	0.555221	0.500066
N115	N	1.408710	0.078549	0.465720
N116	N	1.908710	0.578549	0.965720
H117	H	1.480836	0.095200	0.486287
H118	H	1.980836	0.595200	0.986287
H119	H	1.395232	0.019050	0.486338
H120	H	1.895232	0.519050	0.986338
N121	N	1.391411	0.091201	0.711721
N122	N	1.891411	0.591201	1.211721
H123	H	1.439966	0.055762	0.656270
H124	H	1.939966	0.555762	1.156270
H125	H	1.433782	0.129580	0.760802
H126	H	1.933782	0.629580	1.260802
N127	N	1.016742	-0.221196	0.000121
N128	N	1.516742	0.278804	0.500121
H129	H	1.010236	-0.189629	-0.069916
H130	H	1.510236	0.310371	0.430084
H131	H	0.965573	-0.268706	0.000933
H132	H	1.465573	0.231294	0.500933
N133	N	1.098384	0.305053	0.711782
N134	N	1.598384	0.805053	1.211782
H135	H	1.103171	0.301557	0.795726
H136	H	1.603171	0.801557	1.295726
H137	H	1.111811	0.364544	0.691103
H138	H	1.611811	0.864544	1.191103
N139	N	1.432483	-0.352634	0.000127
N140	N	1.932483	0.147366	0.500127
H141	H	1.483481	-0.304998	0.000822
H142	H	1.983481	0.195002	0.500822
H143	H	1.438545	-0.385048	0.069496
H144	H	1.938545	0.114952	0.569496
H145	H	1.328737	-0.245642	-0.171025
H146	H	1.828737	0.254358	0.328975
H147	H	1.120299	-0.328402	0.171073
H148	H	1.620299	0.171598	0.671073
N149	N	0.725114	0.015250	0.000027
N150	N	1.225114	0.515250	0.500027
H151	H	0.646539	0.019469	0.000031
H152	H	1.146539	0.519469	0.500031
H153	H	0.754319	-0.019535	-0.069669
H154	H	1.254319	0.480465	0.430331
H155	H	1.144455	-0.345956	-0.171031
H156	H	1.644455	0.154044	0.328969
N157	N	1.316475	-0.219309	0.196714
N158	N	1.816475	0.280691	0.696714
H159	H	1.317529	-0.156015	0.196096
H160	H	1.817529	0.343985	0.696096
H161	H	1.274087	-0.235655	0.266585
H162	H	1.774087	0.264345	0.766585
H163	H	1.331005	0.135266	0.303897
H164	H	1.831005	0.635266	0.803897
