data_functionalizedCrystal
_audit_creation_method	'MofGen! by Chris Wilmer'
_symmetry_space_group_name_H-M	'P1'
_symmetry_Int_Tables_number	1
_symmetry_cell_setting	triclinic
loop_
_symmetry_equiv_pos_as_xyz
  x,y,z
_cell_length_a	10.489741
_cell_length_b	19.188924
_cell_length_c	8.965430
_cell_angle_alpha	89.998356
_cell_angle_beta	89.998843
_cell_angle_gamma	83.840569
loop_
_atom_site_label
_atom_site_type_symbol
_atom_site_fract_x
_atom_site_fract_y
_atom_site_fract_z
O1	O	1.691847	0.098497	-0.123955
O2	O	1.320444	0.107744	-0.123979
O3	O	1.516868	0.001536	-0.123949
O4	O	1.495423	0.204705	-0.123985
O5	O	1.516851	0.001543	0.124130
O6	O	1.320427	0.107751	0.124100
O7	O	1.691830	0.098505	0.124124
Cu8	Cu	1.506127	0.103128	0.146764
Cu9	Cu	1.506147	0.103120	-0.146618
O10	O	1.495406	0.204712	0.124094
C11	C	1.272919	0.107049	0.000058
C12	C	1.131337	0.104959	0.000049
C13	C	1.064711	0.037383	0.000076
C14	C	0.971877	0.069302	-0.122243
C15	C	0.971894	0.069325	0.122343
C16	C	1.040368	0.136906	-0.122370
C17	C	1.040395	0.136920	0.122326
C18	C	0.947587	0.168888	-0.000022
C19	C	1.516166	-0.024476	0.000092
C20	C	1.514086	-0.101995	0.000096
C21	C	1.513124	-0.138404	-0.135132
C22	C	1.511151	-0.211240	-0.135144
C23	C	1.510166	-0.247665	0.000081
C24	C	1.511121	-0.211247	0.135327
C25	C	1.513081	-0.138411	0.135335
N26	N	1.579664	-0.366860	0.100730
N27	N	1.577805	-0.436051	0.100713
C28	C	1.504258	-0.467114	0.000066
N29	N	1.432657	-0.426374	-0.100587
N30	N	1.434522	-0.357177	-0.100575
C31	C	1.508040	-0.326643	0.000088
C32	C	1.501156	-0.582500	-0.135184
C33	C	1.499175	-0.655337	-0.135190
C34	C	1.499157	-0.655344	0.135285
C35	C	1.501125	-0.582507	0.135287
C36	C	1.502130	-0.546090	0.000048
C37	C	1.739354	0.099199	0.000084
C38	C	1.880937	0.101289	0.000083
C39	C	1.496107	0.230724	0.000050
C40	C	1.498188	0.308243	0.000036
N41	N	1.506123	0.103134	0.353113
N42	N	1.506161	0.103109	-0.352967
C43	C	1.415255	0.152235	0.450405
C44	C	1.530435	0.166362	0.549823
C45	C	1.390991	0.089013	0.549822
C46	C	1.621360	0.117292	0.450342
C47	C	1.481840	0.039916	0.450332
C48	C	1.597104	0.054016	0.549706
H49	H	1.115645	-0.018169	-0.000067
H50	H	1.461240	-0.013519	0.406597
H51	H	1.674048	0.012481	0.593033
C52	C	1.312710	0.207601	0.392455
C53	C	1.192541	0.193328	0.445048
C54	C	1.098057	0.244322	0.391708
H55	H	1.312726	0.206988	0.286513
H56	H	1.330106	0.252492	0.426567
H57	H	1.175149	0.148448	0.410927
H58	H	1.192483	0.193947	0.550983
H59	H	1.115453	0.289213	0.425820
H60	H	1.098086	0.243704	0.285767
H61	H	1.016514	0.234648	0.427395
C62	C	0.880078	0.243051	-0.000424
C63	C	0.914787	0.278093	-0.128728
C64	C	0.852608	0.346408	-0.129166
H65	H	0.904525	0.267324	0.085535
H66	H	0.789898	0.241347	0.000325
H67	H	1.004947	0.279800	-0.129463
H68	H	0.890338	0.253841	-0.214708
H69	H	0.762427	0.344704	-0.128417
H70	H	0.877060	0.370674	-0.043201
H71	H	0.876139	0.370190	-0.216224
H72	H	0.941550	0.040723	0.225755
C73	C	1.558106	0.237571	0.608203
C74	C	1.670260	0.229790	0.693999
C75	C	1.695787	0.295374	0.747785
H76	H	1.488462	0.256965	0.668107
H77	H	1.569012	0.267942	0.526574
H78	H	1.659346	0.199429	0.775616
H79	H	1.739927	0.210407	0.634127
H80	H	1.706693	0.325745	0.666156
H81	H	1.626136	0.314763	0.807683
H82	H	1.771890	0.290104	0.805992
C83	C	1.514191	-0.099007	0.282318
C84	C	1.512930	-0.146494	0.400746
C85	C	1.513971	-0.110220	0.536169
H86	H	1.440617	-0.065640	0.288144
H87	H	1.589348	-0.075565	0.288032
H88	H	1.437782	-0.169925	0.395035
H89	H	1.586499	-0.179863	0.394970
H90	H	1.589127	-0.086778	0.541882
H91	H	1.440395	-0.076854	0.541979
H92	H	1.513127	-0.142435	0.616538
H93	H	1.718762	0.129289	0.406829
H94	H	1.513939	-0.108757	-0.245254
C95	C	1.261207	0.072948	0.607997
C96	C	1.235181	0.007236	0.555456
C97	C	1.115642	-0.007584	0.609027
H98	H	1.196611	0.107819	0.574032
H99	H	1.262377	0.072588	0.713956
H100	H	1.234000	0.007601	0.449520
H101	H	1.299746	-0.027649	0.589416
H102	H	1.116813	-0.007945	0.714985
H103	H	1.051057	0.027290	0.575058
H104	H	1.097974	-0.052174	0.573396
H105	H	1.070794	0.165493	0.225734
C106	C	1.509873	-0.250689	-0.282066
C107	C	1.400655	-0.225653	-0.363655
C108	C	1.399425	-0.261972	-0.499006
H109	H	1.508485	-0.299285	-0.262881
H110	H	1.584513	-0.243700	-0.337735
H111	H	1.326034	-0.232647	-0.307997
H112	H	1.402019	-0.177060	-0.382879
H113	H	1.474064	-0.254983	-0.554676
H114	H	1.398040	-0.310567	-0.479807
H115	H	1.325328	-0.244985	-0.554387
C116	C	1.502162	-0.543076	-0.282163
C117	C	1.500849	-0.590553	-0.400597
C118	C	1.501757	-0.554262	-0.536015
H119	H	1.577270	-0.519613	-0.287992
H120	H	1.428538	-0.509723	-0.287864
H121	H	1.574466	-0.623894	-0.394899
H122	H	1.425747	-0.614018	-0.394817
H123	H	1.428133	-0.520908	-0.541716
H124	H	1.576866	-0.530800	-0.541829
H125	H	1.500855	-0.586468	-0.616389
H126	H	0.941510	0.040706	-0.225646
C127	C	1.502126	-0.542844	0.281955
C128	C	1.504022	-0.471260	0.253020
C129	C	1.504922	-0.434699	0.388100
H130	H	1.576143	-0.559648	0.337634
H131	H	1.427411	-0.549787	0.337526
H132	H	1.578728	-0.464320	0.197473
H133	H	1.430010	-0.454435	0.197363
H134	H	1.430208	-0.441643	0.443671
H135	H	1.578941	-0.451509	0.443769
H136	H	1.506197	-0.386125	0.368487
H137	H	1.070562	0.165474	-0.225898
H138	H	1.510315	-0.240909	0.245428
H139	H	1.498385	-0.684980	-0.245313
H140	H	1.498345	-0.685000	0.245387
