data_functionalizedCrystal
_audit_creation_method	'MofGen! by Chris Wilmer'
_symmetry_space_group_name_H-M	'P1'
_symmetry_Int_Tables_number	1
_symmetry_cell_setting	triclinic
loop_
_symmetry_equiv_pos_as_xyz
  x,y,z
_cell_length_a	23.532355
_cell_length_b	23.532407
_cell_length_c	9.130313
_cell_angle_alpha	89.994125
_cell_angle_beta	90.005604
_cell_angle_gamma	82.838088
loop_
_atom_site_label
_atom_site_type_symbol
_atom_site_fract_x
_atom_site_fract_y
_atom_site_fract_z
O1	O	0.755275	0.068992	-0.121615
O2	O	0.589408	0.079026	-0.121664
O3	O	0.677343	-0.008924	-0.121611
O4	O	0.667340	0.156941	-0.121668
O5	O	0.677342	-0.008922	0.121988
O6	O	0.589407	0.079028	0.121935
O7	O	0.755274	0.068994	0.121984
Cu8	Cu	0.672340	0.074011	0.144202
Cu9	Cu	0.672342	0.074008	-0.143882
O10	O	0.667339	0.156944	0.121931
C11	C	0.677088	-0.030139	0.000192
C12	C	0.676322	-0.093356	0.000203
C13	C	0.568191	0.078776	0.000130
C14	C	0.504972	0.078022	0.000113
C15	C	0.723557	-0.492468	0.000137
C16	C	0.722845	-0.551868	0.000125
O17	O	0.766632	-0.588620	0.000084
N18	N	0.670568	-0.574484	0.000111
C19	C	0.618998	-0.537697	0.000093
O20	O	0.574467	-0.562388	0.000079
C21	C	0.619710	-0.478298	0.000094
C22	C	0.671991	-0.455685	0.000123
C23	C	0.775834	-0.469854	0.000164
C24	C	0.776545	-0.410458	0.000178
C25	C	0.724979	-0.373676	0.000165
C26	C	0.672703	-0.396289	0.000137
C27	C	0.568141	-0.441512	0.000066
C28	C	0.568858	-0.382110	0.000066
C29	C	0.621139	-0.359497	0.000095
C30	C	0.621848	-0.300110	0.000138
N31	N	0.674126	-0.277494	0.000152
C32	C	0.725691	-0.314277	0.000166
C33	C	0.617507	-0.662439	0.000089
C34	C	0.616794	-0.721837	0.000099
C35	C	0.720642	-0.736004	0.000128
C36	C	0.721354	-0.676605	0.000129
C37	C	0.669784	-0.639823	0.000103
C38	C	0.727181	-0.189540	0.000197
C39	C	0.727888	-0.130138	0.000217
C40	C	0.624041	-0.115977	0.000180
C41	C	0.623334	-0.175373	0.000167
C42	C	0.674909	-0.212154	0.000171
O43	O	0.578084	-0.263323	0.000173
O44	O	0.770216	-0.289577	0.000161
C45	C	0.112958	0.073285	0.132961
C46	C	0.053558	0.072568	0.132967
O47	O	0.022839	0.072178	0.245895
N48	N	0.023850	0.072211	0.000182
C49	C	0.053546	0.072565	-0.132618
O50	O	0.022823	0.072195	-0.245561
C51	C	0.112945	0.073279	-0.132622
C52	C	0.142649	0.073641	0.000172
C53	C	0.142662	0.073647	0.265744
C54	C	0.202057	0.074366	0.265738
C55	C	0.231748	0.074722	0.132948
C56	C	0.202044	0.074360	0.000165
C57	C	0.142640	0.073629	-0.265420
C58	C	0.202043	0.074342	-0.265413
C59	C	0.231747	0.074705	-0.132619
C60	C	0.291130	0.075435	-0.132631
N61	N	0.320838	0.075792	0.000155
C62	C	0.291147	0.075435	0.132944
C63	C	-0.071196	0.071066	-0.132598
C64	C	-0.130594	0.070357	-0.132596
C65	C	-0.130577	0.070358	0.132990
C66	C	-0.071178	0.071072	0.132986
C67	C	-0.041488	0.071423	0.000187
C68	C	0.415881	0.076945	0.132920
C69	C	0.475281	0.077666	0.132902
C70	C	0.475260	0.077661	-0.132682
C71	C	0.415864	0.076943	-0.132665
C72	C	0.386177	0.076583	0.000148
O73	O	0.321887	0.075822	-0.245501
O74	O	0.321878	0.075798	0.245869
C75	C	0.776492	0.069244	0.000187
C76	C	0.839710	0.069998	0.000195
C77	C	0.667594	0.178158	0.000125
C78	C	0.668360	0.241375	0.000104
N79	N	0.672344	0.074013	0.346825
N80	N	0.672343	0.074002	-0.346504
C81	C	0.711291	0.035082	0.423500
C82	C	0.711290	0.035075	0.576837
C83	C	0.633391	0.112935	0.576810
C84	C	0.633391	0.112939	0.423476
C85	C	0.756267	-0.009869	0.423517
C86	C	0.756266	-0.009876	0.576854
H87	H	0.770463	-0.111731	0.000244
H88	H	0.747171	-0.053507	0.381909
C89	C	0.234701	0.074731	-0.411492
H90	H	0.274332	0.075206	-0.392487
H91	H	0.220427	0.107827	-0.466069
H92	H	0.229499	0.041391	-0.466030
C93	C	0.590537	0.155743	0.661123
H94	H	0.567335	0.178924	0.593493
H95	H	0.610874	0.179346	0.720963
H96	H	0.566950	0.135361	0.720912
H97	H	0.743021	-0.051046	0.624410
C98	C	0.777365	-0.776470	0.000132
H99	H	0.808605	-0.754498	0.000154
H100	H	0.779242	-0.799931	-0.084818
H101	H	0.779243	-0.799940	0.085089
H102	H	0.601672	0.144635	0.361048
H103	H	0.797423	0.003402	0.375966
C104	C	0.815204	0.002449	0.633098
H105	H	0.839441	0.007528	0.552176
H106	H	0.831859	-0.028844	0.690903
H107	H	0.810668	0.036277	0.690897
H108	H	0.769178	-0.219481	0.000194
H109	H	0.819117	-0.392053	0.000196
H110	H	0.525569	-0.459912	0.000033
C111	C	0.512130	-0.341652	0.000043
H112	H	0.480896	-0.363631	0.000036
H113	H	0.510249	-0.318180	-0.084900
H114	H	0.510246	-0.318193	0.085008
C115	C	0.832561	-0.510307	0.000191
H116	H	0.863792	-0.488323	0.000219
H117	H	0.834452	-0.533773	-0.084751
H118	H	0.834442	-0.533772	0.085157
C119	C	0.559285	-0.746705	0.000078
H120	H	0.528680	-0.716286	0.000061
H121	H	0.556844	-0.769588	0.085018
H122	H	0.556849	-0.769573	-0.084889
H123	H	0.580762	-0.193785	0.000184
C124	C	0.383186	0.076563	-0.278733
H125	H	0.409378	0.076880	-0.357817
H126	H	0.355480	0.109500	-0.284246
H127	H	0.364550	0.043064	-0.284261
H128	H	0.582057	-0.086018	0.000174
H129	H	0.763925	-0.658198	0.000151
H130	H	0.575510	-0.632494	0.000081
H131	H	-0.154775	0.070071	-0.240730
H132	H	0.499463	0.077963	0.241043
H133	H	0.391716	0.076657	0.241069
C134	C	0.109980	0.073218	-0.411496
H135	H	0.136179	0.073522	-0.490568
H136	H	0.082269	0.106150	-0.417067
H137	H	0.091350	0.039714	-0.416987
H138	H	0.226237	0.074658	0.373872
H139	H	0.118494	0.073356	0.373883
H140	H	-0.046997	0.071368	0.241118
C141	C	-0.163267	0.070129	0.279057
H142	H	-0.202902	0.069697	0.260030
H143	H	-0.158013	0.103513	0.333339
H144	H	-0.149066	0.037076	0.333901
C145	C	0.507928	0.078048	-0.278739
H146	H	0.547558	0.078520	-0.259712
H147	H	0.493662	0.111143	-0.333332
H148	H	0.502727	0.044707	-0.333273
C149	C	-0.038543	0.071465	-0.278686
H150	H	-0.064747	0.071156	-0.357758
H151	H	-0.010836	0.038529	-0.284216
H152	H	-0.019909	0.104965	-0.284219
