data_functionalizedCrystal
_audit_creation_method	'MofGen! by Chris Wilmer'
_symmetry_space_group_name_H-M	'P1'
_symmetry_Int_Tables_number	1
_symmetry_cell_setting	triclinic
loop_
_symmetry_equiv_pos_as_xyz
  x,y,z
_cell_length_a	23.196402
_cell_length_b	20.919309
_cell_length_c	20.919309
_cell_angle_alpha	90.173912
_cell_angle_beta	62.592821
_cell_angle_gamma	57.445536
loop_
_atom_site_label
_atom_site_type_symbol
_atom_site_fract_x
_atom_site_fract_y
_atom_site_fract_z
Zr1	Zr	0.581791	0.644130	-0.056691
O2	O	0.702052	0.541915	-0.158909
O3	O	0.461531	0.675454	-0.025359
O4	O	0.572418	0.680669	-0.153712
O5	O	0.598559	0.532598	0.070696
O6	O	0.565023	0.790132	-0.149608
O7	O	0.591165	0.536700	-0.030556
O8	O	0.366667	0.780803	0.079992
O9	O	0.796916	0.541926	-0.158905
O10	O	0.505477	0.770516	-0.008929
O11	O	0.516513	0.685764	0.063571
O12	O	0.647069	0.691903	-0.087548
O13	O	0.658105	0.607151	-0.015048
Zr14	Zr	0.581791	0.812166	0.111339
Zr15	Zr	0.569998	0.818710	-0.050145
Zr16	Zr	0.593584	0.637586	0.104794
Zr17	Zr	0.733088	0.644147	-0.056684
Zr18	Zr	0.430494	0.812149	0.111332
O19	O	0.702051	0.780842	0.080007
O20	O	0.685284	0.790145	-0.149603
O21	O	0.718820	0.532612	0.070701
O22	O	0.461530	0.914381	0.213558
O23	O	0.444762	0.923685	-0.016052
O24	O	0.478298	0.666151	0.204251
O25	O	0.565023	0.923698	-0.016047
O26	O	0.591164	0.775627	0.208361
O27	O	0.598559	0.666165	0.204257
O28	O	0.572417	0.919596	0.085204
O29	O	0.787542	0.680694	-0.153703
O30	O	0.376040	0.775602	0.208351
O31	O	0.366666	0.914370	0.213554
O32	O	0.357293	0.919571	0.085195
O33	O	0.806289	0.536725	-0.030546
O34	O	0.796915	0.675493	-0.025344
O35	O	0.516513	0.764393	0.142197
O36	O	0.505477	0.849145	0.069697
O37	O	0.647068	0.770532	-0.008923
O38	O	0.658105	0.685780	0.063577
C39	C	0.392542	0.728126	0.027316
C40	C	0.328313	0.728119	0.027313
C41	C	0.245884	0.786163	0.085349
C42	C	0.185523	0.786169	0.085356
C43	C	0.207596	0.728136	0.027316
C44	C	0.290040	0.670081	-0.030725
C45	C	0.350398	0.670073	-0.030727
C46	C	0.148305	0.712118	-0.041470
C47	C	0.087945	0.712132	-0.041469
C48	C	0.021433	0.728158	0.027320
C49	C	0.015277	0.744187	0.096113
C50	C	0.075636	0.744178	0.096111
C51	C	0.142153	0.728139	0.027311
C52	C	-0.126449	0.786211	0.085368
C53	C	-0.186808	0.786211	0.085376
C54	C	-0.082290	0.670127	-0.030712
C55	C	-0.021933	0.670124	-0.030713
C56	C	-0.044018	0.728170	0.027326
C57	C	0.596542	0.509775	0.019137
C58	C	0.601549	0.435661	0.016359
C59	C	0.529993	0.441875	0.056088
C60	C	0.534702	0.372235	0.053475
C61	C	0.610967	0.296381	0.011129
C62	C	0.682528	0.290169	-0.028602
C63	C	0.677819	0.359808	-0.025984
C64	C	0.628885	0.084062	0.001177
C65	C	0.633589	0.014421	-0.001439
C66	C	0.485762	0.096492	0.080639
C67	C	0.481059	0.166129	0.083249
C68	C	0.552620	0.159911	0.043522
C69	C	0.615782	0.225197	0.008455
C70	C	0.547805	0.231094	0.046200
C71	C	0.771040	0.728170	0.027333
C72	C	0.835269	0.728177	0.027335
C73	C	0.567040	0.736333	-0.174668
C74	C	0.562034	0.739110	-0.243223
C75	C	0.567040	0.946521	0.035511
C76	C	0.562033	1.020635	0.038290
C77	C	0.633589	0.699382	-0.316468
C78	C	0.628880	0.702002	-0.380879
C79	C	0.552615	0.744347	-0.372044
C80	C	0.481054	0.784081	-0.298790
C81	C	0.485764	0.781464	-0.234381
C82	C	0.534697	0.754303	-0.564466
C83	C	0.529992	0.756914	-0.628883
C84	C	0.677819	0.674837	-0.710968
C85	C	0.682522	0.672221	-0.646553
C86	C	0.610961	0.711958	-0.573306
C87	C	0.547800	0.747024	-0.437881
C88	C	0.615777	0.709285	-0.507470
C89	C	0.596542	0.719964	0.229317
C90	C	0.601548	0.717186	0.297871
C91	C	0.377791	0.946499	0.035503
C92	C	0.308555	1.020606	0.038279
C93	C	0.407293	0.719942	0.229308
C94	C	0.348070	0.717157	0.297860
C95	C	0.392541	0.938315	0.237495
C96	C	0.328312	1.009643	0.308826
C97	C	0.771040	0.517981	-0.182847
C98	C	0.835270	0.446653	-0.254177
C99	C	0.785791	0.509797	0.019146
C100	C	0.855027	0.435690	0.016370
C101	C	0.756289	0.736354	-0.174660
C102	C	0.815512	0.739139	-0.243212
C103	C	0.276041	1.014364	-0.001466
C104	C	0.210994	1.083988	0.001126
C105	C	0.178459	1.159854	0.043469
C106	C	0.210979	1.166095	0.083215
C107	C	0.276029	1.096471	0.080617
C108	C	0.320258	0.756892	0.371101
C109	C	0.264621	0.754272	0.435519
C110	C	0.236792	0.711920	0.426694
C111	C	0.264609	0.672180	0.353445
C112	C	0.320250	0.674796	0.289029
C113	C	0.292388	1.087387	0.304479
C114	C	0.232045	1.154415	0.371495
C115	C	0.207623	1.143697	0.442857
C116	C	0.243554	1.065945	0.447202
C117	C	0.303900	0.998919	0.380187
C118	C	0.871202	0.368909	-0.249830
C119	C	0.931563	0.301881	-0.316847
C120	C	0.955988	0.312599	-0.388209
C121	C	0.920054	0.390351	-0.392554
C122	C	0.859697	0.457377	-0.325538
C123	C	0.887547	0.441933	0.056108
C124	C	0.952609	0.372309	0.053498
C125	C	0.985146	0.296443	0.011153
C126	C	0.952623	0.290202	-0.028590
C127	C	0.887566	0.359826	-0.025984
C128	C	0.843324	0.781498	-0.234362
C129	C	0.898961	0.784131	-0.298767
C130	C	0.926791	0.744399	-0.372020
C131	C	0.898974	0.702040	-0.380868
C132	C	0.843333	0.699412	-0.316464
H133	H	0.070621	0.757227	0.152124
H134	H	0.202795	1.217718	0.367944
H135	H	0.184524	1.078892	-0.031240
O136	O	0.350122	0.632068	0.210037
H137	H	0.321370	0.602234	0.214733
H138	H	0.302494	1.101564	0.112987
H139	H	0.302529	0.952597	-0.035956
O140	O	0.987720	0.208374	-0.074262
H141	H	1.038415	0.161016	-0.069387
H142	H	0.820673	0.813852	-0.174721
H143	H	0.125491	1.216540	0.045578
O144	O	0.222069	0.848761	0.147951
H145	H	0.154606	0.889120	0.188313
H146	H	0.485704	0.781501	-0.430695
O147	O	0.813350	0.653715	-0.326025
H148	H	0.745875	0.695636	-0.296967
O149	O	0.457515	0.797153	-0.485471
H150	H	0.424226	0.772229	-0.479852
H151	H	0.312262	1.096129	0.246378
O152	O	0.142526	1.215993	0.515137
H153	H	0.121645	1.271851	0.500118
H154	H	0.921642	0.669692	-0.440520
O155	O	0.176764	0.709117	0.496174
H156	H	0.162095	0.743876	0.548584
O157	O	0.096604	0.848783	0.147947
H158	H	0.091387	0.889148	0.188301
O159	O	0.928961	0.829817	-0.289216
H160	H	0.900269	0.856989	-0.227457
O161	O	-0.056451	0.761467	0.170314
H162	H	-0.097384	0.758769	0.158760
O163	O	0.175879	1.247923	0.128891
H164	H	0.125177	1.295281	0.124023
H165	H	0.092962	0.699084	-0.097483
O166	O	0.350265	0.802576	0.380632
H167	H	0.417741	0.760648	0.351552
H168	H	0.202465	0.699060	-0.097491
H169	H	1.005135	0.258015	-0.442772
O170	O	0.970299	0.218030	-0.312141
H171	H	1.037145	0.185377	-0.340840
H172	H	0.476434	0.377302	0.085828
O173	O	0.987666	0.379055	0.096378
H174	H	1.038377	0.317901	0.087451
O175	O	0.217199	1.054389	0.524174
H176	H	0.169192	1.114063	0.570037
O177	O	0.398802	0.247943	0.128919
H178	H	0.349834	0.240565	0.156110
H179	H	0.427501	0.101545	0.112983
O180	O	0.698036	0.143380	-0.037220
H181	H	0.747009	0.150752	-0.064408
H182	H	0.418957	0.818563	-0.291601
O183	O	0.852491	0.353081	-0.068841
H184	H	0.858884	0.384524	-0.111334
O185	O	0.764789	0.208358	-0.074275
H186	H	0.796282	0.203748	-0.135158
H187	H	1.038120	0.239757	0.009037
O188	O	0.706058	0.659152	-0.459881
H189	H	0.745443	0.593880	-0.468894
O190	O	-0.150252	0.848808	0.147964
H191	H	-0.182580	0.843557	0.204095
O192	O	-0.275722	0.848827	0.147967
H193	H	-0.280935	0.889193	0.188316
H194	H	0.939948	0.399068	-0.450665
H195	H	0.241942	0.637699	0.346271
O196	O	0.342628	0.915066	0.384879
H197	H	0.315494	0.918883	0.445762
O198	O	0.844869	0.357339	-0.172865
H199	H	0.880010	0.292014	-0.181114
H200	H	0.972098	0.746545	-0.424456
O201	O	0.715847	-0.067402	-0.047113
H202	H	0.753429	-0.075415	-0.024574
O203	O	-0.058470	0.607534	-0.093318
H204	H	-0.114290	0.617294	-0.083571
H205	H	0.467890	0.503635	0.090574
O206	O	0.066977	0.607532	-0.093321
H207	H	0.072188	0.567184	-0.133685
H208	H	0.695693	0.664895	-0.323672
O209	O	0.234610	0.797151	0.514518
H210	H	0.263297	0.827053	0.509826
O211	O	0.313853	0.607494	-0.093335
H212	H	0.258033	0.617258	-0.083591
O213	O	0.820933	0.541230	-0.330230
H214	H	0.848055	0.537414	-0.391113
O215	O	0.706064	0.077355	-0.041680
H216	H	0.759883	0.012909	-0.071573
H217	H	0.736088	0.354743	-0.058327
O218	O	0.439310	0.607475	-0.093333
H219	H	0.444522	0.567124	-0.133696
H220	H	0.485710	0.292857	0.080682
H221	H	0.744625	0.637742	-0.653756
H222	H	0.736080	0.642486	-0.770611
O223	O	0.408580	0.824359	-0.155377
H224	H	0.424665	0.815449	-0.112072
O225	O	0.447732	0.802591	-0.619356
H226	H	0.398761	0.829790	-0.557601
O227	O	0.698033	0.663606	-0.517001
H228	H	0.700671	0.705537	-0.487922
H229	H	0.861061	0.503700	0.090595
