data_functionalizedCrystal
_audit_creation_method	'MofGen! by Chris Wilmer'
_symmetry_space_group_name_H-M	'P1'
_symmetry_Int_Tables_number	1
_symmetry_cell_setting	triclinic
loop_
_symmetry_equiv_pos_as_xyz
  x,y,z
_cell_length_a	23.532407
_cell_length_b	10.540539
_cell_length_c	9.616153
_cell_angle_alpha	89.996545
_cell_angle_beta	89.998939
_cell_angle_gamma	83.687084
loop_
_atom_site_label
_atom_site_type_symbol
_atom_site_fract_x
_atom_site_fract_y
_atom_site_fract_z
O1	O	-0.756278	-0.154070	-0.115466
O2	O	-0.590562	-0.176364	-0.115506
O3	O	-0.677200	0.019613	-0.115483
O4	O	-0.669639	-0.350048	-0.115489
O5	O	-0.677192	0.019597	0.115808
O6	O	-0.590553	-0.176381	0.115786
O7	O	-0.756269	-0.154087	0.115825
Zn8	Zn	-0.673410	-0.165236	0.152528
Zn9	Zn	-0.673421	-0.165215	-0.152208
O10	O	-0.669631	-0.350064	0.115803
C11	C	-0.569338	-0.175805	0.000135
C12	C	-0.506109	-0.174098	0.000119
C13	C	-0.676629	0.066889	0.000160
C14	C	-0.674933	0.207782	0.000152
C15	C	-0.777493	-0.154646	0.000182
C16	C	-0.840722	-0.156353	0.000188
C17	C	-0.107702	-0.279368	0.000181
C18	C	-0.048291	-0.277782	0.000189
O19	O	-0.012191	-0.375368	0.000238
N20	N	-0.024895	-0.161273	0.000189
C21	C	-0.060914	-0.046343	0.000194
O22	O	-0.035558	0.052903	0.000195
C23	C	-0.120323	-0.047930	0.000195
C24	C	-0.143715	-0.164446	0.000181
C25	C	-0.131094	-0.395874	0.000169
C26	C	-0.190501	-0.397459	0.000158
C27	C	-0.226515	-0.282538	0.000158
C28	C	-0.203122	-0.166031	0.000170
C29	C	-0.156340	0.066999	0.000210
C30	C	-0.215753	0.065402	0.000212
C31	C	-0.239146	-0.051114	0.000199
C32	C	-0.298542	-0.052694	0.000160
N33	N	-0.321938	-0.169203	0.000161
C34	C	-0.285924	-0.284125	0.000160
C35	C	0.063851	-0.043019	0.000193
C36	C	0.123259	-0.041431	0.000182
C37	C	0.135878	-0.272870	0.000180
C38	C	0.076468	-0.274457	0.000181
C39	C	0.040455	-0.159528	0.000194
C40	C	-0.410683	-0.287445	0.000135
C41	C	-0.470095	-0.289020	0.000118
C42	C	-0.482709	-0.057581	0.000127
C43	C	-0.423302	-0.056005	0.000137
C44	C	-0.387290	-0.170947	0.000146
O45	O	-0.334677	0.044840	0.000117
O46	O	-0.311288	-0.383354	0.000177
C47	C	-0.670202	-0.397340	0.000157
C48	C	-0.671898	-0.538233	0.000155
N49	N	-0.673407	-0.165250	0.360503
C50	C	-0.609924	0.389075	-0.000383
C51	C	-0.611644	0.242514	0.000138
C52	C	-0.705385	0.270430	0.132238
C53	C	-0.703225	0.416903	0.132349
C54	C	-0.704522	0.417483	-0.130673
C55	C	-0.705105	0.270520	-0.132419
C56	C	-0.627040	-0.270071	0.419532
C57	C	-0.626881	-0.269783	0.580700
C58	C	-0.660147	-0.032775	0.581285
C59	C	-0.659805	-0.033412	0.420068
C60	C	-0.733187	-0.191668	0.419902
C61	C	-0.732807	-0.194661	0.581131
N62	N	-0.673420	-0.165214	0.639817
H63	H	-0.489138	-0.383905	0.000107
H64	H	-0.767696	-0.115227	0.381717
H65	H	-0.587507	0.199959	0.094969
F66	F	-0.372364	-0.409780	0.000145
F67	F	0.051578	-0.398468	0.000170
F68	F	-0.766135	0.243207	0.138677
F69	F	-0.131458	0.191014	0.000205
F70	F	-0.749755	-0.315197	0.366774
F71	F	-0.673797	0.452790	0.261387
F72	F	-0.092774	-0.518201	0.000168
H73	H	-0.751248	0.247813	-0.140383
F74	F	-0.762717	0.481557	0.140210
F75	F	-0.677727	0.213836	0.260705
F76	F	-0.215389	-0.521473	0.000150
H77	H	-0.742867	-0.292097	0.619366
H78	H	-0.634860	-0.368866	0.380781
H79	H	-0.617044	-0.008867	0.621686
F80	F	-0.702247	0.071589	0.369018
F81	F	-0.398405	0.068004	0.000152
F82	F	-0.580323	0.185805	-0.123622
H83	H	0.165212	-0.366446	0.000186
H84	H	-0.684042	0.448370	-0.230785
H85	H	-0.584927	0.416862	-0.095105
H86	H	-0.768957	-0.123237	0.621372
H87	H	-0.585021	0.418459	0.093796
F88	F	-0.676209	0.215581	-0.260157
F89	F	-0.254078	0.187730	0.000229
H90	H	0.142300	0.053449	0.000171
F91	F	-0.569390	-0.248365	0.366601
F92	F	-0.521047	0.064721	0.000130
F93	F	-0.764272	0.481172	-0.131823
F94	F	-0.637269	-0.398471	0.632434
F95	F	-0.568911	-0.247738	0.631138
H96	H	0.034532	0.050577	0.000191
H97	H	-0.616199	-0.010097	0.382480
H98	H	-0.693013	0.047105	0.619573
