data_functionalizedCrystal
_audit_creation_method	'MofGen! by Chris Wilmer'
_symmetry_space_group_name_H-M	'P1'
_symmetry_Int_Tables_number	1
_symmetry_cell_setting	triclinic
loop_
_symmetry_equiv_pos_as_xyz
  x,y,z
_cell_length_a	18.050591
_cell_length_b	18.050589
_cell_length_c	18.050583
_cell_angle_alpha	89.968090
_cell_angle_beta	89.979141
_cell_angle_gamma	90.024669
loop_
_atom_site_label
_atom_site_type_symbol
_atom_site_fract_x
_atom_site_fract_y
_atom_site_fract_z
Zn1	Zn	1.135301	-0.295677	-0.420031
Zn2	Zn	1.385301	-0.045677	-0.170031
Zn3	Zn	1.635301	0.204323	0.079969
Zn4	Zn	1.885301	0.454323	0.329969
Zn5	Zn	1.135209	-0.419890	-0.295850
Zn6	Zn	1.385209	-0.169890	-0.045850
Zn7	Zn	1.635209	0.080110	0.204150
Zn8	Zn	1.885209	0.330110	0.454150
Zn9	Zn	1.011117	-0.295710	-0.295845
Zn10	Zn	1.261117	-0.045710	-0.045845
Zn11	Zn	1.511117	0.204290	0.204155
Zn12	Zn	1.761117	0.454290	0.454155
Zn13	Zn	1.011068	-0.419822	-0.419988
Zn14	Zn	1.261068	-0.169822	-0.169988
Zn15	Zn	1.511068	0.080178	0.080012
Zn16	Zn	1.761068	0.330178	0.330012
O17	O	1.073174	-0.357774	-0.357929
O18	O	1.323174	-0.107774	-0.107929
O19	O	1.573174	0.142226	0.142071
O20	O	1.823174	0.392226	0.392071
O21	O	1.239213	-0.312168	-0.403578
O22	O	1.489213	-0.062168	-0.153578
O23	O	1.739213	0.187832	0.096422
O24	O	1.989213	0.437832	0.346422
O25	O	1.118730	-0.403459	-0.191925
O26	O	1.368730	-0.153459	0.058075
O27	O	1.618730	0.096541	0.308075
O28	O	1.868730	0.346541	0.558075
O29	O	1.027650	-0.191781	-0.312334
O30	O	1.277650	0.058219	-0.062334
O31	O	1.527650	0.308219	0.187666
O32	O	1.777650	0.558219	0.437666
O33	O	1.239146	-0.403427	-0.312343
O34	O	1.489146	-0.153427	-0.062343
O35	O	1.739146	0.096573	0.187657
O36	O	1.989146	0.346573	0.437657
O37	O	1.118887	-0.191756	-0.403573
O38	O	1.368887	0.058244	-0.153573
O39	O	1.618887	0.308244	0.096427
O40	O	1.868887	0.558244	0.346427
O41	O	1.027561	-0.312225	-0.191921
O42	O	1.277561	-0.062225	0.058079
O43	O	1.527561	0.187775	0.308079
O44	O	1.777561	0.437775	0.558079
O45	O	0.907186	-0.312159	-0.312292
O46	O	1.157186	-0.062159	-0.062292
O47	O	1.407186	0.187841	0.187708
O48	O	1.657186	0.437841	0.437708
O49	O	1.027565	-0.403311	-0.523919
O50	O	1.277565	-0.153311	-0.273919
O51	O	1.527565	0.096689	-0.023919
O52	O	1.777565	0.346689	0.226081
O53	O	0.907150	-0.403344	-0.403500
O54	O	1.157150	-0.153344	-0.153500
O55	O	1.407150	0.096656	0.096500
O56	O	1.657150	0.346656	0.346500
O57	O	1.118838	-0.312102	-0.523950
O58	O	1.368838	-0.062102	-0.273950
O59	O	1.618838	0.187898	-0.023950
O60	O	1.868838	0.437898	0.226050
O61	O	1.118682	-0.523805	-0.312302
O62	O	1.368682	-0.273805	-0.062302
O63	O	1.618682	-0.023805	0.187698
O64	O	1.868682	0.226195	0.437698
O65	O	1.027476	-0.523755	-0.403506
O66	O	1.277476	-0.273755	-0.153506
O67	O	1.527476	-0.023755	0.096494
O68	O	1.777476	0.226245	0.346494
C69	C	0.880222	-0.357748	-0.357891
C70	C	1.130222	-0.107748	-0.107891
C71	C	1.380222	0.142252	0.142109
C72	C	1.630222	0.392252	0.392109
C73	C	0.797676	-0.357755	-0.357893
C74	C	1.047676	-0.107755	-0.107893
C75	C	1.297676	0.142245	0.142107
C76	C	1.547676	0.392245	0.392107
C77	C	0.548848	-0.308118	-0.308412
C78	C	0.798848	-0.058118	-0.058412
C79	C	1.048848	0.191882	0.191588
C80	C	1.298848	0.441882	0.441588
C81	C	0.598282	-0.290020	-0.376186
C82	C	0.848282	-0.040020	-0.126186
C83	C	1.098282	0.209980	0.123814
C84	C	1.348282	0.459980	0.373814
C85	C	0.500555	-0.357793	-0.357954
C86	C	0.750555	-0.107793	-0.107954
C87	C	1.000555	0.142207	0.142046
C88	C	1.250555	0.392207	0.392046
C89	C	0.598204	-0.375836	-0.290153
C90	C	0.848204	-0.125836	-0.040153
C91	C	1.098204	0.124164	0.209847
C92	C	1.348204	0.374164	0.459847
C93	C	0.646540	-0.357772	-0.357920
C94	C	0.896540	-0.107772	-0.107920
C95	C	1.146540	0.142228	0.142080
C96	C	1.396540	0.392228	0.392080
C97	C	0.548901	-0.339661	-0.425765
C98	C	0.798901	-0.089661	-0.175765
C99	C	1.048901	0.160339	0.074235
C100	C	1.298901	0.410339	0.324235
C101	C	0.548819	-0.425508	-0.339686
C102	C	0.798819	-0.175508	-0.089686
C103	C	1.048819	0.074492	0.160314
C104	C	1.298819	0.324492	0.410314
C105	C	0.598230	-0.407437	-0.407507
C106	C	0.848230	-0.157437	-0.157507
C107	C	1.098230	0.092563	0.092493
C108	C	1.348230	0.342563	0.342493
C109	C	0.416457	-0.357803	-0.357972
C110	C	0.666457	-0.107803	-0.107972
C111	C	0.916457	0.142197	0.142028
C112	C	1.166457	0.392197	0.392028
C113	C	0.730637	-0.357763	-0.357910
C114	C	0.980637	-0.107763	-0.107910
C115	C	1.230637	0.142237	0.142090
C116	C	1.480637	0.392237	0.392090
C117	C	1.073084	-0.550727	-0.357916
C118	C	1.323084	-0.300727	-0.107916
C119	C	1.573084	-0.050727	0.142084
C120	C	1.823084	0.199273	0.392084
C121	C	1.073114	-0.633272	-0.357936
C122	C	1.323114	-0.383272	-0.107936
C123	C	1.573114	-0.133272	0.142064
C124	C	1.823114	0.116728	0.392064
C125	C	1.023565	-0.832723	-0.407515
C126	C	1.273565	-0.582723	-0.157515
C127	C	1.523565	-0.332723	0.092485
C128	C	1.773565	-0.082723	0.342485
C129	C	1.005465	-0.882172	-0.339746
C130	C	1.255465	-0.632172	-0.089746
C131	C	1.505465	-0.382172	0.160254
C132	C	1.755465	-0.132172	0.410254
C133	C	1.073187	-0.784403	-0.357945
C134	C	1.323187	-0.534403	-0.107945
C135	C	1.573187	-0.284403	0.142055
C136	C	1.823187	-0.034403	0.392055
C137	C	1.091322	-0.882035	-0.425722
C138	C	1.341322	-0.632035	-0.175722
C139	C	1.591322	-0.382035	0.074278
C140	C	1.841322	-0.132035	0.324278
C141	C	1.073256	-0.930388	-0.357961
C142	C	1.323256	-0.680388	-0.107961
C143	C	1.573256	-0.430388	0.142039
C144	C	1.823256	-0.180388	0.392039
C145	C	1.055052	-0.832765	-0.290141
C146	C	1.305052	-0.582765	-0.040141
C147	C	1.555052	-0.332765	0.209859
C148	C	1.805052	-0.082765	0.459859
C149	C	1.140940	-0.832624	-0.376162
C150	C	1.390940	-0.582624	-0.126162
C151	C	1.640940	-0.332624	0.123838
C152	C	1.890940	-0.082624	0.373838
C153	C	1.122867	-0.882050	-0.308347
C154	C	1.372867	-0.632050	-0.058347
C155	C	1.622867	-0.382050	0.191653
C156	C	1.872867	-0.132050	0.441653
C157	C	1.073145	-0.700304	-0.357938
C158	C	1.323145	-0.450304	-0.107938
C159	C	1.573145	-0.200304	0.142062
C160	C	1.823145	0.049696	0.392062
C161	C	1.073297	-1.014484	-0.357961
C162	C	1.323297	-0.764484	-0.107961
C163	C	1.573297	-0.514484	0.142039
C164	C	1.823297	-0.264484	0.392039
C165	C	1.266879	-0.357801	-0.357966
C166	C	1.516879	-0.107801	-0.107966
C167	C	1.766879	0.142199	0.142034
C168	C	2.016879	0.392199	0.392034
C169	C	1.349425	-0.357813	-0.357982
C170	C	1.599425	-0.107813	-0.107982
C171	C	1.849425	0.142187	0.142018
C172	C	2.099425	0.392187	0.392018
C173	C	1.073207	-0.357695	-0.551634
C174	C	1.323207	-0.107695	-0.301634
C175	C	1.573207	0.142305	-0.051634
C176	C	1.823207	0.392305	0.198366
C177	C	1.073221	-0.357661	-0.634180
C178	C	1.323221	-0.107661	-0.384180
C179	C	1.573221	0.142339	-0.134180
C180	C	1.823221	0.392339	0.115820
C181	C	1.073284	-0.164069	-0.357957
C182	C	1.323284	0.085931	-0.107957
C183	C	1.573284	0.335931	0.142043
C184	C	1.823284	0.585931	0.392043
C185	C	1.073331	-0.081523	-0.357969
C186	C	1.323331	0.168477	-0.107969
C187	C	1.573331	0.418477	0.142031
C188	C	1.823331	0.668477	0.392031
C189	C	1.122905	-0.308038	-0.833648
C190	C	1.372905	-0.058038	-0.583648
C191	C	1.622905	0.191962	-0.333648
C192	C	1.872905	0.441962	-0.083648
C193	C	1.055171	-0.289858	-0.883036
C194	C	1.305171	-0.039858	-0.633036
C195	C	1.555171	0.210142	-0.383036
C196	C	1.805171	0.460142	-0.133036
C197	C	1.073250	-0.357649	-0.785311
C198	C	1.323250	-0.107649	-0.535311
C199	C	1.573250	0.142351	-0.285311
C200	C	1.823250	0.392351	-0.035311
C201	C	1.141011	-0.375782	-0.883005
C202	C	1.391011	-0.125782	-0.633005
C203	C	1.641011	0.124218	-0.383005
C204	C	1.891011	0.374218	-0.133005
C205	C	1.073285	-0.357635	-0.931296
C206	C	1.323285	-0.107635	-0.681296
C207	C	1.573285	0.142365	-0.431296
C208	C	1.823285	0.392365	-0.181296
C209	C	1.005481	-0.339433	-0.833611
C210	C	1.255481	-0.089433	-0.583611
C211	C	1.505481	0.160567	-0.333611
C212	C	1.755481	0.410567	-0.083611
C213	C	1.091367	-0.425389	-0.833576
C214	C	1.341367	-0.175389	-0.583576
C215	C	1.591367	0.074611	-0.333576
C216	C	1.841367	0.324611	-0.083576
C217	C	1.023586	-0.407234	-0.882941
C218	C	1.273586	-0.157234	-0.632941
C219	C	1.523586	0.092766	-0.382941
C220	C	1.773586	0.342766	-0.132941
C221	C	1.073231	-0.357655	-0.701212
C222	C	1.323231	-0.107655	-0.451212
C223	C	1.573231	0.142345	-0.201212
C224	C	1.823231	0.392345	0.048788
C225	C	1.073296	-0.357629	-1.015392
C226	C	1.323296	-0.107629	-0.765392
C227	C	1.573296	0.142371	-0.515392
C228	C	1.823296	0.392371	-0.265392
C229	C	1.073184	-0.357800	-0.164976
C230	C	1.323184	-0.107800	0.085024
C231	C	1.573184	0.142200	0.335024
C232	C	1.823184	0.392200	0.585024
C233	C	1.073314	-0.357624	-0.082431
C234	C	1.323314	-0.107624	0.167569
C235	C	1.573314	0.142376	0.417569
C236	C	1.823314	0.392376	0.667569
H237	H	0.619775	-0.449437	-0.449438
H238	H	0.869775	-0.199437	-0.199438
H239	H	1.119775	0.050563	0.050562
H240	H	1.369775	0.300563	0.300562
H241	H	0.981562	-0.449183	-0.904449
H242	H	1.231562	-0.199183	-0.654449
H243	H	1.481562	0.050817	-0.404449
H244	H	1.731562	0.300817	-0.154449
H245	H	1.106634	-0.903678	-0.483034
H246	H	1.356634	-0.653678	-0.233034
H247	H	1.606634	-0.403678	0.016966
H248	H	1.856634	-0.153678	0.266966
H249	H	1.039674	-0.811211	-0.232813
H250	H	1.289674	-0.561211	0.017187
H251	H	1.539674	-0.311211	0.267187
H252	H	1.789674	-0.061211	0.517187
Br253	Br	0.634306	-0.401287	-0.194611
Br254	Br	0.884306	-0.151287	0.055389
Br255	Br	1.134306	0.098713	0.305389
Br256	Br	1.384306	0.348713	0.555389
Br257	Br	0.512707	-0.238067	-0.238691
Br258	Br	0.762707	0.011933	0.011309
Br259	Br	1.012707	0.261933	0.261309
Br260	Br	1.262707	0.511933	0.511309
Br261	Br	0.910016	-0.918443	-0.314064
Br262	Br	1.160016	-0.668443	-0.064064
Br263	Br	1.410016	-0.418443	0.185936
Br264	Br	1.660016	-0.168443	0.435936
H265	H	1.164860	-0.903573	-0.266386
H266	H	1.414860	-0.653573	-0.016386
H267	H	1.664860	-0.403573	0.233614
H268	H	1.914860	-0.153573	0.483614
Br269	Br	1.236365	-0.796322	-0.401873
Br270	Br	1.486365	-0.546322	-0.151873
Br271	Br	1.736365	-0.296322	0.098127
Br272	Br	1.986365	-0.046322	0.348127
H273	H	0.619995	-0.232744	-0.391637
H274	H	0.869995	0.017256	-0.141637
H275	H	1.119995	0.267256	0.108363
H276	H	1.369995	0.517256	0.358363
H277	H	0.527334	-0.324324	-0.483105
H278	H	0.777334	-0.074324	-0.233105
H279	H	1.027334	0.175676	0.016895
H280	H	1.277334	0.425676	0.266895
Br281	Br	1.192782	-0.238073	-0.797569
Br282	Br	1.442782	0.011927	-0.547569
Br283	Br	1.692782	0.261927	-0.297569
Br284	Br	1.942782	0.511927	-0.047569
H285	H	1.039859	-0.232565	-0.904761
H286	H	1.289859	0.017435	-0.654761
H287	H	1.539859	0.267435	-0.404761
H288	H	1.789859	0.517435	-0.154761
H289	H	0.981539	-0.811063	-0.449375
H290	H	1.231539	-0.561063	-0.199375
H291	H	1.481539	-0.311063	0.050625
H292	H	1.731539	-0.061063	0.300625
Br293	Br	0.512576	-0.520942	-0.313915
Br294	Br	0.762576	-0.270942	-0.063915
Br295	Br	1.012576	-0.020942	0.186085
Br296	Br	1.262576	0.229058	0.436085
H297	H	0.948174	-0.324024	-0.812005
H298	H	1.198174	-0.074024	-0.562005
H299	H	1.448174	0.175976	-0.312005
H300	H	1.698174	0.425976	-0.062005
Br301	Br	1.116922	-0.520855	-0.797336
Br302	Br	1.366922	-0.270855	-0.547336
Br303	Br	1.616922	-0.020855	-0.297336
Br304	Br	1.866922	0.229145	-0.047336
Br305	Br	1.236497	-0.401357	-0.919169
Br306	Br	1.486497	-0.151357	-0.669169
Br307	Br	1.736497	0.098643	-0.419169
Br308	Br	1.986497	0.348643	-0.169169
