data_functionalizedCrystal
_audit_creation_method	'MofGen! by Chris Wilmer'
_symmetry_space_group_name_H-M	'P1'
_symmetry_Int_Tables_number	1
_symmetry_cell_setting	triclinic
loop_
_symmetry_equiv_pos_as_xyz
  x,y,z
_cell_length_a	19.120786
_cell_length_b	12.759401
_cell_length_c	12.759393
_cell_angle_alpha	90.018205
_cell_angle_beta	87.522629
_cell_angle_gamma	87.536864
loop_
_atom_site_label
_atom_site_type_symbol
_atom_site_fract_x
_atom_site_fract_y
_atom_site_fract_z
Zn1	Zn	-0.279628	-1.588321	-0.576118
Zn2	Zn	-0.397105	-1.580689	-0.392923
Zn3	Zn	-0.279660	-1.412625	-0.400453
Zn4	Zn	-0.397046	-1.405086	-0.568566
O5	O	-0.338359	-1.496680	-0.484515
O6	O	-0.295222	-1.734329	-0.551826
O7	O	-0.381564	-1.558356	-0.246899
O8	O	-0.181365	-1.442280	-0.430066
O9	O	-0.381532	-1.728722	-0.417234
O10	O	-0.181341	-1.571364	-0.559127
O11	O	-0.295278	-1.434880	-0.252430
O12	O	-0.295221	-1.264604	-0.422744
O13	O	-0.381431	-1.429432	-0.716591
O14	O	-0.381463	-1.259066	-0.546256
O15	O	-0.295165	-1.564054	-0.722140
O16	O	-0.495387	-1.551046	-0.409911
O17	O	-0.495344	-1.422031	-0.538955
C18	C	-0.520851	-1.484921	-0.472820
C19	C	-0.598922	-1.479987	-0.467852
C20	C	-0.338339	-1.223714	-0.484498
C21	C	-0.338348	-1.106937	-0.484515
C22	C	-0.635527	-1.544825	-0.532767
C23	C	-0.708883	-1.540185	-0.528101
C24	C	-0.745633	-1.470710	-0.458513
C25	C	-0.709023	-1.405864	-0.393595
C26	C	-0.635668	-1.410500	-0.398267
C27	C	-0.967119	-1.453347	-0.441046
C28	C	-1.040479	-1.448718	-0.436376
C29	C	-1.040335	-1.583038	-0.570884
C30	C	-0.966979	-1.587672	-0.575546
C31	C	-0.930375	-1.522823	-0.510632
C32	C	-0.820614	-1.465967	-0.453739
C33	C	-0.855395	-1.527561	-0.515411
C34	C	-0.383325	-1.049214	-0.548711
C35	C	-0.383331	-0.939490	-0.548720
C36	C	-0.293381	-0.945221	-0.420328
C37	C	-0.293372	-1.054944	-0.420325
C38	C	-0.428301	-1.101208	-0.612901
C39	C	-0.473282	-1.043484	-0.677101
C40	C	-0.473288	-0.933760	-0.677111
C41	C	-0.428313	-0.881759	-0.612920
C42	C	-0.155155	-1.508514	-0.496279
C43	C	-0.077084	-1.513557	-0.501292
C44	C	-0.338288	-1.496753	-0.758553
C45	C	-0.338257	-1.496784	-0.875332
C46	C	-0.338374	-0.770713	-0.484529
C47	C	-0.338363	-0.887490	-0.484527
C48	C	-0.293320	-1.432519	-0.933081
C49	C	-0.293299	-1.432552	-1.042806
C50	C	-0.383155	-1.561125	-1.037024
C51	C	-0.383179	-1.561085	-0.927300
C52	C	-0.248399	-1.368218	-0.881112
C53	C	-0.203457	-1.303948	-0.938861
C54	C	-0.203436	-1.303981	-1.048587
C55	C	-0.248357	-1.368284	-1.100563
C56	C	-0.338380	-1.496672	-0.211546
C57	C	-0.338213	-1.496857	-0.094781
H58	H	-0.605611	-1.601404	-0.589428
H59	H	-0.937059	-1.644244	-0.632210
C60	C	-0.522043	-0.870903	-0.746780
C61	C	-0.512413	-0.763684	-0.733071
C62	C	-0.557311	-0.705751	-0.797241
H63	H	-0.569251	-0.885718	-0.728324
H64	H	-0.511813	-0.889510	-0.818073
H65	H	-0.522648	-0.745083	-0.661793
H66	H	-0.465214	-0.748837	-0.751534
H67	H	-0.547080	-0.724358	-0.868535
H68	H	-0.604516	-0.720574	-0.778780
H69	H	-0.550778	-0.632997	-0.787956
H70	H	-0.248338	-1.368303	-1.189909
H71	H	-0.419761	-1.613430	-0.880280
H72	H	-1.070399	-1.392138	-0.379709
C73	C	-0.521993	-1.100079	-0.746864
C74	C	-0.482273	-1.165672	-0.816824
C75	C	-0.527122	-1.217831	-0.881098
H76	H	-0.548795	-1.050104	-0.785201
H77	H	-0.552552	-1.140962	-0.704665
H78	H	-0.451726	-1.124793	-0.859018
H79	H	-0.455472	-1.215667	-0.778516
H80	H	-0.557682	-1.258714	-0.838900
H81	H	-0.553923	-1.167849	-0.919428
H82	H	-0.500180	-1.262349	-0.928567
C83	C	-0.244599	-0.888900	-0.350455
C84	C	-0.259801	-0.914601	-0.245496
C85	C	-0.214873	-0.862752	-0.181095
H86	H	-0.251002	-0.815272	-0.359507
H87	H	-0.197404	-0.909939	-0.368907
H88	H	-0.306984	-0.893555	-0.227051
H89	H	-0.253394	-0.988220	-0.236411
H90	H	-0.167677	-0.883791	-0.199547
H91	H	-0.221279	-0.789126	-0.190157
H92	H	-0.225176	-0.880190	-0.109875
C93	C	-0.860389	-1.390437	-0.378150
C94	C	-0.812636	-1.334626	-0.322306
C95	C	-0.849253	-1.265028	-0.252677
H96	H	-0.889010	-1.428731	-0.330499
H97	H	-0.888994	-1.342774	-0.416457
H98	H	-0.784043	-1.382283	-0.284001
H99	H	-0.784013	-1.296311	-0.369929
H100	H	-0.877857	-1.217364	-0.290985
H101	H	-0.877872	-1.303330	-0.205034
H102	H	-0.816858	-1.227144	-0.214786
C103	C	-0.748499	-1.610725	-0.598609
C104	C	-0.700615	-1.672593	-0.660518
C105	C	-0.737083	-1.737607	-0.725468
H106	H	-0.777121	-1.568838	-0.642631
H107	H	-0.777089	-1.654765	-0.556643
H108	H	-0.672037	-1.628558	-0.702480
H109	H	-0.671991	-1.714501	-0.616523
H110	H	-0.765673	-1.781647	-0.683502
H111	H	-0.765704	-1.695711	-0.769484
H112	H	-0.704599	-1.779598	-0.767474
H113	H	-0.166888	-1.251590	-0.896535
C114	C	-1.080203	-1.653312	-0.641319
C115	C	-1.152310	-1.634367	-0.622357
C116	C	-1.189058	-1.699073	-0.687238
H117	H	-1.068235	-1.724711	-0.626837
H118	H	-1.068194	-1.638641	-0.712682
H119	H	-1.164314	-1.649046	-0.551010
H120	H	-1.164299	-1.562980	-0.636845
H121	H	-1.177048	-1.684402	-0.758601
H122	H	-1.177084	-1.770468	-0.672751
H123	H	-1.237985	-1.686221	-0.674388
H124	H	-0.166847	-1.251643	-1.095603
H125	H	-0.937322	-1.400546	-0.388188
C126	C	-0.596049	-1.340053	-0.327666
C127	C	-0.643931	-1.278235	-0.265705
C128	C	-0.607461	-1.213329	-0.200649
H129	H	-0.567439	-1.295971	-0.369527
H130	H	-0.567447	-1.382047	-0.283688
H131	H	-0.672522	-1.236244	-0.309678
H132	H	-0.672543	-1.322289	-0.223823
H133	H	-0.578859	-1.255324	-0.156671
H134	H	-0.578852	-1.169254	-0.242518
H135	H	-0.639944	-1.171385	-0.158594
H136	H	-0.738950	-1.349292	-0.336939
H137	H	-0.825471	-1.584124	-0.572074
C138	C	-0.431840	-1.630910	-1.093647
C139	C	-0.422186	-1.617212	-1.202100
C140	C	-0.467013	-1.681496	-1.254293
H141	H	-0.479066	-1.612548	-1.072760
H142	H	-0.421561	-1.702180	-1.076383
H143	H	-0.432470	-1.545958	-1.219356
H144	H	-0.374969	-1.635581	-1.223018
H145	H	-0.456734	-1.752767	-1.237029
H146	H	-0.514236	-1.663129	-1.233397
H147	H	-0.460464	-1.672218	-1.327883
H148	H	-0.428315	-0.792414	-0.612942
H149	H	-0.428302	-1.190550	-0.612898
H150	H	-0.256742	-1.101943	-0.368059
C151	C	-0.248344	-1.367992	-0.761987
C152	C	-0.199399	-1.297909	-0.728831
C153	C	-0.199336	-1.297666	-0.619102
H154	H	-0.236187	-1.436508	-0.737819
H155	H	-0.293661	-1.346831	-0.734211
H156	H	-0.154092	-1.319075	-0.756596
H157	H	-0.211545	-1.229383	-0.752972
H158	H	-0.244653	-1.276504	-0.591325
H159	H	-0.187180	-1.366185	-0.594943
H160	H	-0.166133	-1.250108	-0.596591
