data_functionalizedCrystal
_audit_creation_method	'MofGen! by Chris Wilmer'
_symmetry_space_group_name_H-M	'P1'
_symmetry_Int_Tables_number	1
_symmetry_cell_setting	triclinic
loop_
_symmetry_equiv_pos_as_xyz
  x,y,z
_cell_length_a	14.044220
_cell_length_b	8.559649
_cell_length_c	7.681481
_cell_angle_alpha	85.086760
_cell_angle_beta	83.732834
_cell_angle_gamma	98.516229
loop_
_atom_site_label
_atom_site_type_symbol
_atom_site_fract_x
_atom_site_fract_y
_atom_site_fract_z
O1	O	-0.021858	-2.101908	-0.146399
O2	O	0.478142	-1.601908	0.353601
O3	O	0.026593	-1.643608	-0.146411
O4	O	0.526593	-1.143608	0.353589
O5	O	-0.135117	-1.865881	-0.146388
O6	O	0.364883	-1.365881	0.353612
O7	O	0.139853	-1.879635	-0.146422
O8	O	0.639853	-1.379635	0.353578
O9	O	-0.155061	-1.893233	0.146473
O10	O	0.344939	-1.393233	0.646473
O11	O	0.006649	-1.670961	0.146449
O12	O	0.506649	-1.170961	0.646449
O13	O	-0.041802	-2.129260	0.146461
O14	O	0.458198	-1.629260	0.646461
Zn15	Zn	-0.020743	-1.904453	0.192953
Zn16	Zn	0.479257	-1.404453	0.692953
Zn17	Zn	0.005534	-1.868415	-0.192903
Zn18	Zn	0.505534	-1.368415	0.307097
O19	O	0.119909	-1.906988	0.146438
O20	O	0.619909	-1.406988	0.646438
C21	C	0.020293	-1.598278	0.000018
C22	C	0.520293	-1.098278	0.500018
C23	C	0.031222	-1.422455	0.000014
C24	C	0.531222	-0.922455	0.500014
C25	C	-0.179966	-1.873534	0.000043
C26	C	0.320034	-1.373534	0.500043
C27	C	-0.283884	-1.855571	0.000045
C28	C	0.216116	-1.355571	0.500045
N29	N	-0.038678	-1.929059	0.456290
N30	N	0.461322	-1.429059	0.956290
C31	C	-0.474153	-1.822727	0.000018
C32	C	0.025847	-1.322727	0.500018
C33	C	-0.541060	-1.950133	0.000016
C34	C	-0.041060	-1.450133	0.500016
C35	C	-0.646933	-1.931858	0.000002
C36	C	-0.146933	-1.431858	0.500002
C37	C	-0.368270	-1.840999	0.000033
C38	C	0.131730	-1.340999	0.500033
C39	C	0.164757	-1.899334	0.000003
C40	C	0.664757	-1.399334	0.500003
C41	C	0.268676	-1.917296	-0.000010
C42	C	0.768676	-1.417296	0.499990
C43	C	-0.035501	-2.174590	0.000029
C44	C	0.464499	-1.674590	0.500029
C45	C	-0.046430	-2.350412	0.000021
C46	C	0.453570	-1.850412	0.500021
N47	N	0.023461	-1.843820	-0.456240
N48	N	0.523461	-1.343820	0.043760
H49	H	-0.518821	-2.072922	-0.000099
H50	H	-0.018821	-1.572922	0.499901
H51	H	-0.496383	-1.699936	0.000011
H52	H	0.003617	-1.199936	0.500011
H53	H	0.106070	-1.349615	-0.000005
H54	H	0.606070	-0.849615	0.499995
H55	H	-0.121272	-1.423241	0.000022
H56	H	0.378728	-0.923241	0.500022
H57	H	0.086886	-1.756808	0.468554
H58	H	0.586886	-1.256808	0.968554
H59	H	-0.102101	-2.016090	0.531505
H60	H	0.397899	-1.516090	1.031505
