data_functionalizedCrystal
_audit_creation_method	'MofGen! by Chris Wilmer'
_symmetry_space_group_name_H-M	'P1'
_symmetry_Int_Tables_number	1
_symmetry_cell_setting	triclinic
loop_
_symmetry_equiv_pos_as_xyz
  x,y,z
_cell_length_a	29.839131
_cell_length_b	19.121102
_cell_length_c	19.120904
_cell_angle_alpha	90.088173
_cell_angle_beta	87.590850
_cell_angle_gamma	92.404422
loop_
_atom_site_label
_atom_site_type_symbol
_atom_site_fract_x
_atom_site_fract_y
_atom_site_fract_z
Zn1	Zn	-0.219753	-1.054749	0.442036
Zn2	Zn	0.280247	-0.554749	0.942036
Zn3	Zn	-0.291816	-1.059636	0.324791
Zn4	Zn	0.208184	-0.559636	0.824791
Zn5	Zn	-0.213364	-0.942520	0.319821
Zn6	Zn	0.286636	-0.442520	0.819821
Zn7	Zn	-0.291514	-0.937448	0.436994
Zn8	Zn	0.208486	-0.437448	0.936994
O9	O	-0.254112	-0.998588	0.380911
O10	O	0.245888	-0.498588	0.880911
O11	O	-0.232113	-1.153501	0.430674
O12	O	0.267887	-0.653501	0.930674
O13	O	-0.278861	-1.048269	0.226027
O14	O	0.221139	-0.548269	0.726027
O15	O	-0.151347	-0.957485	0.336063
O16	O	0.348653	-0.457485	0.836063
O17	O	-0.285057	-1.157092	0.344535
O18	O	0.214943	-0.657092	0.844535
O19	O	-0.156042	-1.039939	0.425855
O20	O	0.343958	-0.539939	0.925855
O21	O	-0.221223	-0.962224	0.222376
O22	O	0.278777	-0.462224	0.722376
O23	O	-0.220930	-0.843743	0.331174
O24	O	0.279070	-0.343743	0.831174
O25	O	-0.284542	-0.948840	0.535767
O26	O	0.215458	-0.448840	1.035767
O27	O	-0.278346	-0.840017	0.417260
O28	O	0.221654	-0.340017	0.917260
O29	O	-0.231820	-1.035020	0.539472
O30	O	0.268180	-0.535020	1.039472
O31	O	-0.354640	-1.043351	0.339645
O32	O	0.145360	-0.543351	0.839645
O33	O	-0.354418	-0.953579	0.422080
O34	O	0.145582	-0.453579	0.922080
C35	C	-0.248912	-0.816443	0.373131
C36	C	0.251088	-0.316443	0.873131
C37	C	-0.246699	-0.738519	0.369819
C38	C	0.253301	-0.238519	0.869819
C39	C	-0.370830	-0.998463	0.380870
C40	C	0.129170	-0.498463	0.880870
C41	C	-0.420765	-0.998473	0.380879
C42	C	0.079235	-0.498473	0.880879
C43	C	-0.258860	-0.990819	0.563768
C44	C	0.241140	-0.490819	1.063768
C45	C	-0.260884	-0.987508	0.641691
C46	C	0.239116	-0.487508	1.141691
C47	C	-0.730519	-1.045411	0.338056
C48	C	-0.230519	-0.545411	0.838056
C49	C	-0.918195	-1.045496	0.338087
C50	C	-0.418195	-0.545496	0.838087
O51	O	-0.942551	-1.085306	0.301646
O52	O	-0.442551	-0.585306	0.801646
N53	N	-0.941559	-0.998731	0.380970
N54	N	-0.441559	-0.498731	0.880970
C55	C	-0.918001	-0.951945	0.423851
C56	C	-0.418001	-0.451945	0.923851
O57	O	-0.942181	-0.912175	0.460332
O58	O	-0.442181	-0.412175	0.960332
C59	C	-0.730326	-0.951864	0.423824
C60	C	-0.230326	-0.451864	0.923824
C61	C	-0.706964	-0.998627	0.380933
C62	C	-0.206964	-0.498627	0.880933
C63	C	-0.707157	-1.092171	0.295169
C64	C	-0.207157	-0.592171	0.795169
C65	C	-0.660241	-1.092146	0.295159
C66	C	-0.160241	-0.592146	0.795159
C67	C	-0.636686	-1.045362	0.338036
C68	C	-0.136686	-0.545362	0.838036
C69	C	-0.660048	-0.998602	0.380923
C70	C	-0.160048	-0.498602	0.880923
C71	C	-0.706770	-0.905081	0.466708
C72	C	-0.206770	-0.405081	0.966708
C73	C	-0.659848	-0.905066	0.466699
C74	C	-0.159848	-0.405066	0.966699
C75	C	-0.636486	-0.951829	0.423808
C76	C	-0.136486	-0.451829	0.923808
C77	C	-0.589577	-0.951794	0.423789
C78	C	-0.089577	-0.451794	0.923789
N79	N	-0.566213	-0.998559	0.380906
N80	N	-0.066213	-0.498559	0.880906
C81	C	-0.589768	-1.045343	0.338030
C82	C	-0.089768	-0.545343	0.838030
C83	C	-1.016534	-0.951990	0.423862
C84	C	-0.516534	-0.451990	0.923862
C85	C	-1.063452	-0.952010	0.423868
C86	C	-0.563452	-0.452010	0.923868
C87	C	-1.063642	-1.045562	0.338104
C88	C	-0.563642	-0.545562	0.838104
C89	C	-1.016723	-1.045539	0.338095
C90	C	-0.516723	-0.545539	0.838095
C91	C	-0.993169	-0.998755	0.380979
C92	C	-0.493169	-0.498755	0.880979
C93	C	-0.491240	-1.045288	0.338011
C94	C	0.008760	-0.545288	0.838011
C95	C	-0.444319	-1.045257	0.338003
C96	C	0.055681	-0.545257	0.838003
C97	C	-0.444133	-0.951708	0.423769
C98	C	0.055867	-0.451708	0.923769
C99	C	-0.491049	-0.951735	0.423775
C100	C	0.008951	-0.451735	0.923775
C101	C	-0.514602	-0.998531	0.380894
C102	C	-0.014602	-0.498531	0.880894
O103	O	-0.565193	-0.912011	0.460217
O104	O	-0.065193	-0.412011	0.960217
O105	O	-0.565581	-1.085117	0.301566
O106	O	-0.065581	-0.585117	0.801566
C107	C	-0.777435	-1.045435	0.338066
C108	C	-0.277435	-0.545435	0.838066
C109	C	-0.800797	-0.998676	0.380953
C110	C	-0.300797	-0.498676	0.880953
C111	C	-0.777243	-0.951891	0.423830
C112	C	-0.277243	-0.451891	0.923830
C113	C	-0.847716	-0.998695	0.380959
C114	C	-0.347716	-0.498695	0.880959
C115	C	-0.871270	-1.045479	0.338082
C116	C	-0.371270	-0.545479	0.838082
C117	C	-0.847906	-1.092244	0.295199
C118	C	-0.347906	-0.592244	0.795199
C119	C	-0.800990	-1.092220	0.295189
C120	C	-0.300990	-0.592220	0.795189
C121	C	-0.800607	-0.905126	0.466712
C122	C	-0.300607	-0.405126	0.966712
C123	C	-0.847523	-0.905154	0.466718
C124	C	-0.347523	-0.405154	0.966718
C125	C	-0.871078	-0.951938	0.423842
C126	C	-0.371078	-0.451938	0.923842
C127	C	-0.136939	-0.998732	0.380967
C128	C	0.363061	-0.498732	0.880967
C129	C	-0.087007	-0.998794	0.380991
C130	C	0.412993	-0.498794	0.880991
C131	C	-0.259331	-1.181445	0.388721
C132	C	0.240669	-0.681445	0.888721
C133	C	-0.261556	-1.259368	0.392050
C134	C	0.238444	-0.759368	0.892050
C135	C	-0.275595	-0.699992	0.413013
C136	C	0.224405	-0.199992	0.913013
C137	C	-0.273510	-0.626774	0.409905
C138	C	0.226490	-0.126774	0.909905
C139	C	-0.242531	-0.592086	0.363599
C140	C	0.257469	-0.092086	0.863599
C141	C	-0.213632	-0.630619	0.320403
C142	C	0.286368	-0.130619	0.820403
C143	C	-0.215716	-0.703835	0.323515
C144	C	0.284284	-0.203835	0.823515
C145	C	-0.234741	-0.371117	0.351966
C146	C	0.265259	0.128883	0.851966
C147	C	-0.232660	-0.297896	0.348855
C148	C	0.267340	0.202104	0.848855
C149	C	-0.292537	-0.294056	0.438359
C150	C	0.207463	0.205944	0.938359
C151	C	-0.294620	-0.367274	0.441464
C152	C	0.205380	0.132726	0.941464
C153	C	-0.265720	-0.405800	0.398271
C154	C	0.234280	0.094200	0.898271
C155	C	-0.240400	-0.517246	0.360419
C156	C	0.259600	-0.017246	0.860419
C157	C	-0.267849	-0.480639	0.401455
C158	C	0.232151	0.019361	0.901455
C159	C	-0.249350	-1.006368	0.198766
C160	C	0.250650	-0.506368	0.698766
C161	C	-0.247204	-1.009815	0.120849
C162	C	0.252796	-0.509815	0.620849
C163	C	-0.234387	-1.030820	0.680230
C164	C	0.265613	-0.530820	1.180230
C165	C	-0.236286	-1.027700	0.753446
C166	C	0.263714	-0.527700	1.253446
C167	C	-0.264686	-0.981272	0.788123
C168	C	0.235314	-0.481272	1.288123
C169	C	-0.291184	-0.937956	0.749580
C170	C	0.208816	-0.437956	1.249580
C171	C	-0.289282	-0.941072	0.676364
C172	C	0.210718	-0.441072	1.176364
C173	C	-0.271800	-0.969615	1.009090
C174	C	0.228200	-0.469615	1.509090
C175	C	-0.273701	-0.966503	1.082311
C176	C	0.226299	-0.466503	1.582311
C177	C	-0.218802	-1.056247	1.086172
C178	C	0.281198	-0.556247	1.586172
C179	C	-0.216905	-1.059362	1.012955
C180	C	0.283095	-0.559362	1.512955
C181	C	-0.243401	-1.016043	0.974418
C182	C	0.256599	-0.516043	1.474418
C183	C	-0.266629	-0.978084	0.862963
C184	C	0.233371	-0.478084	1.362963
C185	C	-0.241455	-1.019228	0.899580
C186	C	0.258545	-0.519228	1.399580
H187	H	-0.425299	-1.083337	0.303073
H188	H	0.074701	-0.583337	0.803073
Br189	Br	-0.325241	-0.882285	0.624061
Br190	Br	0.174759	-0.382285	1.124061
Br191	Br	-0.202908	-1.082227	0.852517
Br192	Br	0.297092	-0.582227	1.352517
H193	H	-0.293382	-0.934351	0.977722
H194	H	0.206618	-0.434351	1.477722
H195	H	-0.316066	-0.262680	0.473526
H196	H	0.183934	0.237320	0.973526
Br197	Br	-0.190620	-0.250819	0.285999
Br198	Br	0.309380	0.249181	0.785999
H199	H	-0.510411	-1.083395	0.303095
H200	H	-0.010411	-0.583395	0.803095
H201	H	-0.297040	-0.595408	0.445078
H202	H	0.202960	-0.095408	0.945078
H203	H	-0.296828	-0.928693	1.110543
H204	H	0.203172	-0.428693	1.610543
H205	H	-0.997359	-0.913892	0.458784
H206	H	-0.497359	-0.413892	0.958784
H207	H	-0.781972	-1.130299	0.260264
H208	H	-0.281972	-0.630299	0.760264
Br209	Br	-1.095151	-0.888533	0.482068
Br210	Br	-0.595151	-0.388533	0.982068
Br211	Br	-0.317643	-0.747062	0.475856
Br212	Br	0.182357	-0.247062	0.975856
H213	H	-0.197230	-1.091514	1.117557
H214	H	0.302770	-0.591514	1.617557
H215	H	-0.641222	-1.130227	0.260236
H216	H	-0.141222	-0.630227	0.760236
H217	H	-0.314306	-0.900150	0.777819
H218	H	0.185694	-0.400150	1.277819
Br219	Br	-0.739115	-1.155674	0.236973
Br220	Br	-0.239115	-0.655674	0.736973
H221	H	-0.289754	-0.940285	0.891205
H222	H	0.210246	-0.440285	1.391205
Br223	Br	-0.412157	-0.888220	0.481959
Br224	Br	0.087843	-0.388220	0.981959
Br225	Br	-0.738463	-0.841620	0.524929
Br226	Br	-0.238463	-0.341620	1.024929
Br227	Br	-0.198357	-0.470163	0.297578
Br228	Br	0.301643	0.029837	0.797578
H229	H	-0.211262	-1.068629	0.652001
H230	H	0.288738	-0.568629	1.152001
H231	H	-0.781432	-0.867030	0.501629
H232	H	-0.281432	-0.367030	1.001629
H233	H	-0.293070	-0.508885	0.439160
H234	H	0.206930	-0.008885	0.939160
H235	H	-0.192183	-0.735203	0.288345
H236	H	0.307817	-0.235203	0.788345
Br237	Br	-0.171585	-0.583542	0.257564
Br238	Br	0.328415	-0.083542	0.757564
Br239	Br	-0.985022	-1.109004	0.279883
Br240	Br	-0.485022	-0.609004	0.779883
Br241	Br	-0.178362	-1.122376	0.965899
Br242	Br	0.321638	-0.622376	1.465899
H243	H	-0.640673	-0.866970	0.501623
H244	H	-0.140673	-0.366970	1.001623
Br245	Br	-1.095618	-1.109052	0.279912
Br246	Br	-0.595618	-0.609052	0.779912
Br247	Br	-0.879882	-1.155734	0.237007
Br248	Br	-0.379882	-0.655734	0.737007
Br249	Br	-0.522755	-0.888254	0.481966
Br250	Br	-0.022755	-0.388254	0.981966
H251	H	-0.211211	-0.402476	0.316789
H252	H	0.288789	0.097524	0.816789
H253	H	-0.866540	-0.867068	0.501645
H254	H	-0.366540	-0.367068	1.001645
H255	H	-0.319847	-0.395512	0.479171
H256	H	0.180153	0.104488	0.979171
H257	H	-0.214710	-1.062971	0.784821
H258	H	0.285290	-0.562971	1.284821
