data_functionalizedCrystal
_audit_creation_method	'MofGen! by Chris Wilmer'
_symmetry_space_group_name_H-M	'P1'
_symmetry_Int_Tables_number	1
_symmetry_cell_setting	triclinic
loop_
_symmetry_equiv_pos_as_xyz
  x,y,z
_cell_length_a	18.215407
_cell_length_b	18.215404
_cell_length_c	18.215399
_cell_angle_alpha	89.972485
_cell_angle_beta	90.019833
_cell_angle_gamma	89.975729
loop_
_atom_site_label
_atom_site_type_symbol
_atom_site_fract_x
_atom_site_fract_y
_atom_site_fract_z
Zn1	Zn	1.125077	0.292983	0.416118
Zn2	Zn	1.625077	0.792983	0.916118
Zn3	Zn	1.124988	0.416054	0.293053
Zn4	Zn	1.624988	0.916054	0.793053
Zn5	Zn	1.002010	0.293007	0.293065
Zn6	Zn	1.502010	0.793007	0.793065
Zn7	Zn	1.001978	0.416013	0.416078
Zn8	Zn	1.501978	0.916013	0.916078
O9	O	1.063513	0.354514	0.354578
O10	O	1.563513	0.854514	0.854578
O11	O	1.228050	0.309316	0.399805
O12	O	1.728050	0.809316	0.899805
O13	O	1.108651	0.399759	0.190070
O14	O	1.608651	0.899759	0.690070
O15	O	1.018386	0.190020	0.309411
O16	O	1.518386	0.690020	0.809411
O17	O	1.227984	0.399736	0.309389
O18	O	1.727984	0.899736	0.809389
O19	O	1.108803	0.190002	0.399817
O20	O	1.608803	0.690002	0.899817
O21	O	1.018299	0.309357	0.190079
O22	O	1.518299	0.809357	0.690079
O23	O	0.899021	0.309317	0.309372
O24	O	1.399021	0.809317	0.809372
O25	O	1.018332	0.399666	0.519067
O26	O	1.518332	0.899666	1.019067
O27	O	0.898998	0.399689	0.399748
O28	O	1.398998	0.899689	0.899748
O29	O	1.108772	0.309276	0.519097
O30	O	1.608772	0.809276	1.019097
O31	O	1.108620	0.519033	0.309350
O32	O	1.608620	1.019033	0.809350
O33	O	1.018245	0.519003	0.399736
O34	O	1.518245	1.019003	0.899736
C35	C	0.872307	0.354502	0.354557
C36	C	1.372307	0.854502	0.854557
C37	C	0.790508	0.354514	0.354566
C38	C	1.290508	0.854514	0.854566
C39	C	1.063439	0.545721	0.354553
C40	C	1.563439	1.045721	0.854553
C41	C	1.063475	0.627520	0.354567
C42	C	1.563475	1.127520	0.854567
C43	C	0.602321	0.401645	0.401566
C44	C	1.102321	0.901645	0.901566
C45	C	0.525463	0.401647	0.401575
C46	C	1.025463	0.901647	0.901575
C47	C	0.525457	0.307397	0.307607
C48	C	1.025457	0.807397	0.807607
C49	C	0.602315	0.307392	0.307602
C50	C	1.102315	0.807392	0.807602
C51	C	0.640745	0.354520	0.354581
C52	C	1.140745	0.854520	0.854581
C53	C	0.487029	0.354528	0.354595
C54	C	0.987029	0.854528	0.854595
C55	C	0.403695	0.354530	0.354604
C56	C	0.903695	0.854530	0.854604
C57	C	0.724084	0.354517	0.354572
C58	C	1.224084	0.854517	0.854572
C59	C	1.110647	0.815705	0.307600
C60	C	1.610647	1.315705	0.807600
C61	C	1.110681	0.892563	0.307622
C62	C	1.610681	1.392563	0.807622
C63	C	1.016492	0.892572	0.401663
C64	C	1.516492	1.392572	0.901663
C65	C	1.016462	0.815715	0.401644
C66	C	1.516462	1.315715	0.901644
C67	C	1.063539	0.777283	0.354609
C68	C	1.563539	1.277283	0.854609
C69	C	1.063603	0.930999	0.354649
C70	C	1.563603	1.430999	0.854649
C71	C	1.063640	1.014333	0.354673
C72	C	1.563640	1.514333	0.854673
C73	C	1.063503	0.693944	0.354585
C74	C	1.563503	1.193944	0.854585
C75	C	1.255466	0.354528	0.354600
C76	C	1.755466	0.854528	0.854600
C77	C	1.337265	0.354533	0.354609
C78	C	1.837265	0.854533	0.854609
C79	C	1.063613	1.162561	0.354633
C80	C	1.563613	1.662561	0.854633
C81	C	1.063667	1.080763	0.354691
C82	C	1.563667	1.580763	0.854691
C83	C	1.063558	0.354464	0.546531
C84	C	1.563558	0.854464	1.046531
C85	C	1.063577	0.354442	0.628330
C86	C	1.563577	0.854442	1.128330
C87	C	1.063511	0.354512	0.163372
C88	C	1.563511	0.854512	0.663372
C89	C	1.063635	0.354326	0.081574
C90	C	1.563635	0.854326	0.581574
C91	C	1.110687	0.307332	0.816541
C92	C	1.610687	0.807332	1.316541
C93	C	1.110695	0.307311	0.893400
C94	C	1.610695	0.807311	1.393400
C95	C	1.016520	0.401438	0.893358
C96	C	1.516520	0.901438	1.393358
C97	C	1.016508	0.401455	0.816500
C98	C	1.516508	0.901455	1.316500
C99	C	1.063596	0.354403	0.778094
C100	C	1.563596	0.854403	1.278094
C101	C	1.063616	0.354365	0.931810
C102	C	1.563616	0.854365	1.431810
C103	C	1.063625	0.354342	1.015144
C104	C	1.563625	0.854342	1.515144
C105	C	1.063586	0.354425	0.694755
C106	C	1.563586	0.854425	1.194755
H107	H	0.633609	0.440018	0.439820
H108	H	1.133609	0.940018	0.939820
C109	C	1.162501	0.934824	0.255905
C110	C	1.662501	1.434824	0.755905
N111	N	1.201534	0.966654	0.216949
N112	N	1.701534	1.466654	0.716949
H113	H	0.494182	0.440020	0.439836
H114	H	0.994182	0.940020	0.939836
C115	C	0.644583	0.255548	0.255912
C116	C	1.144583	0.755548	0.755912
N117	N	0.676419	0.216500	0.216981
N118	N	1.176419	0.716500	0.716981
H119	H	0.494158	0.269028	0.269358
H120	H	0.994158	0.769028	0.769358
C121	C	1.162436	0.773433	0.255863
C122	C	1.662436	1.273433	0.755863
N123	N	1.201447	0.741595	0.216895
N124	N	1.701447	1.241595	0.716895
H125	H	0.978164	0.923873	0.439957
H126	H	1.478164	1.423873	0.939957
H127	H	1.149040	0.268979	0.924700
H128	H	1.649040	0.768979	1.424700
H129	H	0.978185	0.439748	0.924637
H130	H	1.478185	0.939748	1.424637
C131	C	0.964652	0.773448	0.453376
C132	C	1.464652	1.273448	0.953376
N133	N	0.925636	0.741613	0.492344
N134	N	1.425636	1.241613	0.992344
H135	H	1.149026	0.269017	0.785273
H136	H	1.649026	0.769017	1.285273
H137	H	0.978156	0.439786	0.785196
H138	H	1.478156	0.939786	1.285196
