data_functionalizedCrystal
_audit_creation_method	'MofGen! by Chris Wilmer'
_symmetry_space_group_name_H-M	'P1'
_symmetry_Int_Tables_number	1
_symmetry_cell_setting	triclinic
loop_
_symmetry_equiv_pos_as_xyz
  x,y,z
_cell_length_a	14.971490
_cell_length_b	13.448316
_cell_length_c	14.971506
_cell_angle_alpha	90.001105
_cell_angle_beta	96.380982
_cell_angle_gamma	89.992749
loop_
_atom_site_label
_atom_site_type_symbol
_atom_site_fract_x
_atom_site_fract_y
_atom_site_fract_z
O1	O	-1.186952	0.082742	0.116575
O2	O	-0.853619	0.416075	0.449908
O3	O	-0.520285	0.749409	0.783241
O4	O	-0.926553	0.082732	0.130530
O5	O	-0.593220	0.416065	0.463863
O6	O	-0.259887	0.749399	0.797197
O7	O	-1.063723	0.082735	-0.006647
O8	O	-0.730389	0.416068	0.326687
O9	O	-0.397056	0.749401	0.660020
O10	O	-1.049783	0.082739	0.253751
O11	O	-0.716449	0.416073	0.587084
O12	O	-0.383116	0.749406	0.920418
O13	O	-1.063709	-0.082649	-0.006645
O14	O	-0.730376	0.250684	0.326688
O15	O	-0.397042	0.584018	0.660021
O16	O	-0.926540	-0.082652	0.130531
O17	O	-0.593206	0.250681	0.463864
O18	O	-0.259873	0.584015	0.797198
O19	O	-1.186938	-0.082642	0.116576
O20	O	-0.853605	0.250692	0.449909
O21	O	-0.520272	0.584025	0.783243
Cu22	Cu	-1.056738	-0.097748	0.123554
Cu23	Cu	-0.723404	0.235586	0.456887
Cu24	Cu	-0.390071	0.568919	0.790220
Cu25	Cu	-1.056754	0.097838	0.123552
Cu26	Cu	-0.723420	0.431171	0.456885
Cu27	Cu	-0.390087	0.764504	0.790219
O28	O	-1.049769	-0.082645	0.253752
O29	O	-0.716436	0.250689	0.587086
O30	O	-0.383102	0.584022	0.920419
C31	C	-0.893222	0.000039	0.129906
C32	C	-0.559888	0.333372	0.463239
C33	C	-0.226555	0.666705	0.796572
C34	C	-0.793925	0.000035	0.128034
C35	C	-0.460591	0.333368	0.461367
C36	C	-0.127258	0.666702	0.794700
N37	N	-1.056733	-0.235312	0.123554
N38	N	-0.723400	0.098021	0.456888
N39	N	-0.390066	0.431355	0.790221
C40	C	-0.366226	0.090204	0.119955
C41	C	-0.032892	0.423538	0.453288
C42	C	0.300441	0.756871	0.786622
C43	C	-0.459526	0.090202	0.121711
C44	C	-0.126193	0.423535	0.455045
C45	C	0.207140	0.756868	0.788378
C46	C	-0.506165	0.000048	0.122596
C47	C	-0.172831	0.333381	0.455929
C48	C	0.160502	0.666715	0.789263
C49	C	-0.459499	-0.090109	0.121715
C50	C	-0.126166	0.243224	0.455049
C51	C	0.207168	0.576558	0.788382
C52	C	-0.366201	-0.090105	0.119953
C53	C	-0.032868	0.243228	0.453286
C54	C	0.300466	0.576562	0.786619
C55	C	-0.653961	-0.090111	0.125391
C56	C	-0.320628	0.243223	0.458725
C57	C	0.012706	0.576556	0.792058
C58	C	-0.747265	-0.090115	0.127156
C59	C	-0.413932	0.243218	0.460489
C60	C	-0.080599	0.576552	0.793822
C61	C	-0.747286	0.090196	0.127150
C62	C	-0.413953	0.423529	0.460483
C63	C	-0.080620	0.756863	0.793817
C64	C	-0.653988	0.090200	0.125387
C65	C	-0.320655	0.423533	0.458721
C66	C	0.012678	0.756866	0.792054
C67	C	-0.607329	0.000043	0.124508
C68	C	-0.273996	0.333376	0.457842
C69	C	0.059338	0.666709	0.791175
C70	C	-1.063089	0.000044	-0.039970
C71	C	-0.729756	0.333378	0.293363
C72	C	-0.396422	0.666711	0.626696
C73	C	-1.061211	0.000048	-0.139266
C74	C	-0.727878	0.333382	0.194067
C75	C	-0.394545	0.666715	0.527400
C76	C	-0.220270	0.000051	0.117201
C77	C	0.113064	0.333385	0.450535
C78	C	0.446397	0.666718	0.783868
C79	C	-0.319566	0.000055	0.119077
C80	C	0.013767	0.333388	0.452410
C81	C	0.347100	0.666721	0.785744
C82	C	-1.002460	-0.712563	0.069204
C83	C	-0.669126	-0.379230	0.402537
C84	C	-0.335793	-0.045896	0.735871
C85	C	-1.002457	-0.608460	0.069201
C86	C	-0.669123	-0.275126	0.402534
C87	C	-0.335790	0.058207	0.735868
C88	C	-1.056755	-0.556393	0.123544
C89	C	-0.723422	-0.223060	0.456878
C90	C	-0.390089	0.110273	0.790211
C91	C	-1.111068	-0.608436	0.177887
C92	C	-0.777734	-0.275102	0.511221
C93	C	-0.444401	0.058231	0.844554
C94	C	-1.111075	-0.712537	0.177885
C95	C	-0.777742	-0.379204	0.511218
C96	C	-0.444408	-0.045870	0.844551
C97	C	-1.111047	-0.391456	0.177891
C98	C	-0.777714	-0.058122	0.511224
C99	C	-0.444381	0.275211	0.844557
C100	C	-1.111039	-0.287347	0.177895
C101	C	-0.777706	0.045986	0.511228
C102	C	-0.444372	0.379320	0.844562
C103	C	-1.002429	-0.287378	0.069207
C104	C	-0.669096	0.045955	0.402540
C105	C	-0.335762	0.379288	0.735874
C106	C	-1.002436	-0.391480	0.069204
C107	C	-0.669103	-0.058146	0.402538
C108	C	-0.335769	0.275187	0.735871
C109	C	-1.056747	-0.443515	0.123549
C110	C	-0.723414	-0.110181	0.456882
C111	C	-0.390081	0.223152	0.790215
N112	N	-1.056766	0.235402	0.123545
N113	N	-0.723432	0.568735	0.456878
N114	N	-0.390099	0.902069	0.790211
C115	C	-1.134629	0.000051	-0.577548
C116	C	-0.801296	0.333384	-0.244215
C117	C	-0.467962	0.666718	0.089119
C118	C	-1.136387	0.000044	-0.484248
C119	C	-0.803053	0.333378	-0.150914
C120	C	-0.469720	0.666711	0.182419
C121	C	-1.055794	0.000045	-0.427029
C122	C	-0.722461	0.333378	-0.093696
C123	C	-0.389128	0.666711	0.239638
C124	C	-0.973439	0.000041	-0.463114
C125	C	-0.640106	0.333375	-0.129781
C126	C	-0.306773	0.666708	0.203552
C127	C	-0.971683	0.000041	-0.556413
C128	C	-0.638350	0.333374	-0.223080
C129	C	-0.305016	0.666707	0.110254
C130	C	-0.977106	0.000045	-0.268651
C131	C	-0.643773	0.333379	0.064682
C132	C	-0.310440	0.666712	0.398015
C133	C	-0.978862	0.000048	-0.175346
C134	C	-0.645529	0.333381	0.157987
C135	C	-0.312196	0.666715	0.491320
C136	C	-1.141810	0.000049	-0.196486
C137	C	-0.808477	0.333383	0.136847
C138	C	-0.475143	0.666716	0.470181
C139	C	-1.140053	0.000048	-0.289785
C140	C	-0.806720	0.333382	0.043549
C141	C	-0.473387	0.666715	0.376882
C142	C	-1.057698	0.000047	-0.325864
C143	C	-0.724365	0.333380	0.007470
C144	C	-0.391031	0.666714	0.340803
C145	C	-1.050403	0.000048	0.287076
C146	C	-0.717069	0.333381	0.620409
C147	C	-0.383736	0.666715	0.953743
C148	C	-1.052280	0.000050	0.386372
C149	C	-0.718947	0.333384	0.719706
C150	C	-0.385614	0.666717	1.053039
H151	H	-0.328259	0.163618	0.119241
H152	H	0.005075	0.496952	0.452574
H153	H	0.338408	0.830285	0.785908
H154	H	-1.155297	-0.754903	0.222134
H155	H	-0.821964	-0.421569	0.555467
H156	H	-0.488630	-0.088236	0.888801
H157	H	-0.497513	0.163611	0.122421
H158	H	-0.164180	0.496944	0.455754
H159	H	0.169154	0.830277	0.789087
F160	F	-0.889454	0.000038	-0.307047
F161	F	-0.556121	0.333371	0.026287
F162	F	-0.222787	0.666705	0.359620
F163	F	-0.893087	0.000040	-0.114451
F164	F	-0.559754	0.333373	0.218882
F165	F	-0.226421	0.666706	0.552216
F166	F	-0.604353	0.186151	0.124453
F167	F	-0.271020	0.519485	0.457787
F168	F	0.062314	0.852818	0.791120
F169	F	-0.887667	0.000037	-0.402215
F170	F	-0.554333	0.333370	-0.068882
F171	F	-0.221000	0.666703	0.264451
H172	H	-0.904626	0.000032	-0.585787
H173	H	-0.571293	0.333365	-0.252454
H174	H	-0.237959	0.666699	0.080880
H175	H	-0.785281	0.163605	0.127867
H176	H	-0.451947	0.496939	0.461200
H177	H	-0.118614	0.830272	0.794534
H178	H	-1.155251	-0.244957	0.222149
H179	H	-0.821918	0.088376	0.555482
H180	H	-0.488584	0.421709	0.888816
F181	F	-0.796900	-0.186066	0.128092
F182	F	-0.463567	0.147267	0.461426
F183	F	-0.130234	0.480600	0.794759
F184	F	-0.509138	-0.186058	0.122654
F185	F	-0.175805	0.147276	0.455987
F186	F	0.157529	0.480609	0.789321
F187	F	-0.944626	-0.231998	0.011370
F188	F	-0.611293	0.101336	0.344703
F189	F	-0.277959	0.434669	0.678037
H190	H	-1.155275	-0.433819	0.222141
H191	H	-0.821942	-0.100486	0.555475
H192	H	-0.488609	0.232847	0.888808
H193	H	-1.205679	0.000054	-0.336371
H194	H	-0.872346	0.333388	-0.003037
H195	H	-0.539012	0.666721	0.330296
F196	F	-1.220408	0.000058	-0.638437
F197	F	-0.887075	0.333391	-0.305104
F198	F	-0.553742	0.666725	0.028230
H199	H	-0.328211	-0.163514	0.119247
H200	H	0.005122	0.169819	0.452580
H201	H	0.338456	0.503152	0.785914
F202	F	-0.604306	-0.186067	0.124446
F203	F	-0.270973	0.147267	0.457780
F204	F	0.062361	0.480600	0.791113
H205	H	-0.958238	-0.754948	0.024956
H206	H	-0.624905	-0.421614	0.358289
H207	H	-0.291572	-0.088281	0.691623
H208	H	-0.958238	-0.566097	0.024949
H209	H	-0.624904	-0.232764	0.358282
H210	H	-0.291571	0.100569	0.691616
H211	H	-0.958217	-0.433869	0.024958
H212	H	-0.624883	-0.100536	0.358291
H213	H	-0.291550	0.232798	0.691624
F214	F	-1.168861	-0.553020	0.235719
F215	F	-0.835528	-0.219687	0.569053
F216	F	-0.502195	0.113647	0.902386
H217	H	-1.203443	0.000044	-0.454877
H218	H	-0.870110	0.333377	-0.121543
H219	H	-0.536776	0.666710	0.211790
F220	F	-1.229459	0.000051	-0.158087
F221	F	-0.896126	0.333385	0.175246
F222	F	-0.562793	0.666718	0.508579
