data_functionalizedCrystal
_audit_creation_method	'MofGen! by Chris Wilmer'
_symmetry_space_group_name_H-M	'P1'
_symmetry_Int_Tables_number	1
_symmetry_cell_setting	triclinic
loop_
_symmetry_equiv_pos_as_xyz
  x,y,z
_cell_length_a	12.827893
_cell_length_b	18.050589
_cell_length_c	12.827885
_cell_angle_alpha	90.032172
_cell_angle_beta	90.021189
_cell_angle_gamma	90.033934
loop_
_atom_site_label
_atom_site_type_symbol
_atom_site_fract_x
_atom_site_fract_y
_atom_site_fract_z
Zn1	Zn	-1.597521	0.295663	-0.590885
Zn2	Zn	-1.264187	0.628996	-0.257551
Zn3	Zn	-0.930854	0.962329	0.075782
Zn4	Zn	-1.597352	0.419871	-0.416138
Zn5	Zn	-1.264019	0.753204	-0.082804
Zn6	Zn	-0.930685	1.086537	0.250529
Zn7	Zn	-1.422762	0.295695	-0.416153
Zn8	Zn	-1.089429	0.629028	-0.082819
Zn9	Zn	-0.756095	0.962361	0.250514
Zn10	Zn	-1.422685	0.419811	-0.590832
Zn11	Zn	-1.089351	0.753144	-0.257499
Zn12	Zn	-0.756018	1.086478	0.075835
O13	O	-1.510080	0.357760	-0.503502
O14	O	-1.176746	0.691093	-0.170168
O15	O	-0.843413	1.024426	0.163165
O16	O	-1.743734	0.312151	-0.567720
O17	O	-1.410401	0.645484	-0.234387
O18	O	-1.077068	0.978817	0.098947
O19	O	-1.574154	0.403437	-0.269904
O20	O	-1.240821	0.736770	0.063430
O21	O	-0.907487	1.070103	0.396763
O22	O	-1.446047	0.191766	-0.439359
O23	O	-1.112714	0.525099	-0.106026
O24	O	-0.779380	0.858432	0.227307
O25	O	-1.743610	0.403406	-0.439334
O26	O	-1.410277	0.736739	-0.106001
O27	O	-1.076944	1.070072	0.227332
O28	O	-1.574441	0.191742	-0.567734
O29	O	-1.241108	0.525076	-0.234401
O30	O	-0.907775	0.858409	0.098932
O31	O	-1.445884	0.312205	-0.269914
O32	O	-1.112550	0.645538	0.063419
O33	O	-0.779217	0.978872	0.396752
O34	O	-1.276516	0.312147	-0.439308
O35	O	-0.943182	0.645481	-0.105975
O36	O	-0.609849	0.978814	0.227358
O37	O	-1.445915	0.403304	-0.737075
O38	O	-1.112582	0.736638	-0.403742
O39	O	-0.779249	1.069971	-0.070408
O40	O	-1.276459	0.403335	-0.567644
O41	O	-0.943126	0.736669	-0.234311
O42	O	-0.609792	1.070002	0.099022
O43	O	-1.574366	0.312093	-0.737114
O44	O	-1.241033	0.645426	-0.403781
O45	O	-0.907700	0.978760	-0.070447
O46	O	-1.574079	0.523787	-0.439283
O47	O	-1.240746	0.857121	-0.105950
O48	O	-0.907413	1.190454	0.227384
O49	O	-1.445752	0.523744	-0.567630
O50	O	-1.112418	0.857077	-0.234297
O51	O	-0.779085	1.190410	0.099037
C52	C	-1.238570	0.357739	-0.503473
C53	C	-0.905237	0.691072	-0.170139
C54	C	-0.571903	1.024406	0.163194
C55	C	-1.122417	0.357748	-0.503485
C56	C	-0.789083	0.691081	-0.170152
C57	C	-0.455750	1.024415	0.163182
C58	C	-1.509917	0.550712	-0.503472
C59	C	-1.176584	0.884045	-0.170139
C60	C	-0.843251	1.217379	0.163195
C61	C	-1.509943	0.633258	-0.503494
C62	C	-1.176610	0.966591	-0.170161
C63	C	-0.843277	1.299924	0.163173
C64	C	-1.070632	0.402940	-0.566890
C65	C	-0.737298	0.736273	-0.233557
C66	C	-0.403965	1.069606	0.099776
C67	C	-0.950581	0.402950	-0.566905
C68	C	-0.617248	0.736283	-0.233571
C69	C	-0.283915	1.069617	0.099762
C70	C	-0.782650	0.357775	-0.503523
C71	C	-0.449317	0.691109	-0.170190
C72	C	-0.115983	1.024442	0.163144
C73	C	-0.898803	0.357766	-0.503511
C74	C	-0.565470	0.691100	-0.170177
C75	C	-0.232136	1.024433	0.163156
C76	C	-1.510151	0.357689	-0.776072
C77	C	-1.176818	0.691022	-0.442739
C78	C	-0.843484	1.024355	-0.109405
C79	C	-1.510181	0.357658	-0.892225
C80	C	-1.176848	0.690991	-0.558892
C81	C	-0.843515	1.024325	-0.225559
C82	C	-1.440230	0.882087	-0.573292
C83	C	-1.106897	1.215420	-0.239958
C84	C	-0.773563	1.548753	0.093375
C85	C	-1.535527	0.832617	-0.598935
C86	C	-1.202193	1.165950	-0.265602
C87	C	-0.868860	1.499283	0.067732
C88	C	-1.510114	0.930378	-0.503555
C89	C	-1.176781	1.263711	-0.170221
C90	C	-0.843447	1.597045	0.163112
C91	C	-1.414738	0.832766	-0.477931
C92	C	-1.081405	1.166100	-0.144597
C93	C	-0.748072	1.499433	0.188736
C94	C	-1.510025	0.784393	-0.503527
C95	C	-1.176692	1.117726	-0.170194
C96	C	-0.843358	1.451060	0.163139
C97	C	-1.605461	0.881995	-0.529248
C98	C	-1.272128	1.215329	-0.195914
C99	C	-0.938795	1.548662	0.137419
C100	C	-1.484609	0.882149	-0.408199
C101	C	-1.151276	1.215483	-0.074865
C102	C	-0.817942	1.548816	0.258468
C103	C	-1.579972	0.832702	-0.433806
C104	C	-1.246638	1.166035	-0.100473
C105	C	-0.913305	1.499368	0.232861
C106	C	-1.510164	1.014476	-0.503573
C107	C	-1.176830	1.347810	-0.170240
C108	C	-0.843497	1.681143	0.163094
C109	C	-1.509986	0.700296	-0.503509
C110	C	-1.176653	1.033630	-0.170176
C111	C	-0.843319	1.366963	0.163158
C112	C	-1.510232	1.164054	-0.503556
C113	C	-1.176899	1.497388	-0.170223
C114	C	-0.843566	1.830721	0.163110
C115	C	-1.510197	1.081508	-0.503585
C116	C	-1.176864	1.414842	-0.170252
C117	C	-0.843531	1.748175	0.163082
C118	C	-1.573750	0.312515	-0.944029
C119	C	-1.240417	0.645848	-0.610696
C120	C	-0.907083	0.979182	-0.277363
C121	C	-1.573783	0.312483	-1.064080
C122	C	-1.240449	0.645816	-0.730746
C123	C	-0.907116	0.979149	-0.397413
C124	C	-1.510069	0.357777	-0.231992
C125	C	-1.176736	0.691111	0.101342
C126	C	-0.843402	1.024444	0.434675
C127	C	-1.510241	0.357598	-0.115839
C128	C	-1.176908	0.690932	0.217494
C129	C	-0.843575	1.024265	0.550827
H130	H	-1.115173	0.441620	-0.621167
H131	H	-0.781840	0.774953	-0.287833
H132	H	-0.448506	1.108287	0.045500
H133	H	-1.557068	0.810861	-0.679564
H134	H	-1.223735	1.144195	-0.346231
H135	H	-0.890401	1.477528	-0.012898
H136	H	-1.639100	0.811155	-0.374820
H137	H	-1.305767	1.144489	-0.041487
H138	H	-0.972434	1.477822	0.291847
O139	O	-0.891605	0.454202	-0.638820
O140	O	-0.558271	0.787536	-0.305486
O141	O	-0.224938	1.120869	0.027847
H142	H	-0.806568	0.446163	-0.627552
H143	H	-0.473235	0.779496	-0.294219
H144	H	-0.139901	1.112830	0.039114
H145	H	-1.463040	0.903921	-0.327593
H146	H	-1.129706	1.237255	0.005740
H147	H	-0.796373	1.570588	0.339073
O148	O	-1.438126	0.408794	-1.056856
O149	O	-1.104793	0.742127	-0.723523
O150	O	-0.771459	1.075460	-0.390190
H151	H	-1.484876	0.446567	-1.007113
H152	H	-1.151542	0.779900	-0.673780
H153	H	-0.818209	1.113233	-0.340446
O154	O	-1.712283	0.910518	-0.558071
O155	O	-1.378950	1.243851	-0.224738
O156	O	-1.045616	1.577185	0.108596
H157	H	-1.765324	0.862975	-0.572340
H158	H	-1.431991	1.196308	-0.239007
H159	H	-1.098658	1.529642	0.094327
O160	O	-1.307940	0.804162	-0.449181
O161	O	-0.974607	1.137495	-0.115848
O162	O	-0.641273	1.470828	0.217485
H163	H	-1.250113	0.823965	-0.507180
H164	H	-0.916780	1.157299	-0.173847
H165	H	-0.583447	1.490632	0.159486
O166	O	-1.645822	0.261353	-0.885066
O167	O	-1.312488	0.594686	-0.551732
O168	O	-0.979155	0.928019	-0.218399
H169	H	-1.634494	0.269413	-0.800026
H170	H	-1.301161	0.602746	-0.466693
H171	H	-0.967828	0.936079	-0.133360
O172	O	-1.645861	0.261270	-1.123077
O173	O	-1.312528	0.594603	-0.789744
O174	O	-0.979194	0.927937	-0.456411
H175	H	-1.634562	0.269271	-1.208111
H176	H	-1.301228	0.602604	-0.874777
H177	H	-0.967895	0.935937	-0.541444
H178	H	-1.077875	0.319062	-0.449217
H179	H	-0.744542	0.652395	-0.115883
H180	H	-0.411209	0.985729	0.217450
O181	O	-0.957767	0.306511	-0.431590
O182	O	-0.624434	0.639844	-0.098256
O183	O	-0.291100	0.973178	0.235077
H184	H	-1.007539	0.268787	-0.478488
H185	H	-0.674205	0.602120	-0.145154
H186	H	-0.340872	0.935454	0.188179
O187	O	-1.362092	0.910817	-0.651474
O188	O	-1.028758	1.244151	-0.318140
O189	O	-0.695425	1.577484	0.015193
H190	H	-1.383481	0.890976	-0.730557
H191	H	-1.050148	1.224309	-0.397224
H192	H	-0.716814	1.557642	-0.063890
O193	O	-1.438111	0.408819	-0.951194
O194	O	-1.104778	0.742152	-0.617861
O195	O	-0.771444	1.075485	-0.284527
H196	H	-1.455942	0.467126	-0.930290
H197	H	-1.122608	0.800460	-0.596957
H198	H	-0.789275	1.133793	-0.263623
