data_functionalizedCrystal
_audit_creation_method	'MofGen! by Chris Wilmer'
_symmetry_space_group_name_H-M	'P1'
_symmetry_Int_Tables_number	1
_symmetry_cell_setting	triclinic
loop_
_symmetry_equiv_pos_as_xyz
  x,y,z
_cell_length_a	10.540535
_cell_length_b	14.044220
_cell_length_c	13.101039
_cell_angle_alpha	86.332523
_cell_angle_beta	86.607812
_cell_angle_gamma	91.143740
loop_
_atom_site_label
_atom_site_type_symbol
_atom_site_fract_x
_atom_site_fract_y
_atom_site_fract_z
O1	O	1.705801	-0.128473	-0.085234
O2	O	1.337661	-0.141073	-0.085233
O3	O	1.516204	0.003248	-0.085224
O4	O	1.527257	-0.272795	-0.085244
O5	O	1.503396	-0.007124	0.085206
O6	O	1.324852	-0.151446	0.085196
O7	O	1.692992	-0.138845	0.085195
Zn8	Zn	1.506889	-0.146792	0.112255
Zn9	Zn	1.523764	-0.133126	-0.112293
O10	O	1.514449	-0.283167	0.085185
C11	C	1.283858	-0.145315	-0.000018
C12	C	1.142624	-0.142491	-0.000018
C13	C	1.504962	0.033409	-0.000009
C14	C	1.490532	0.138732	-0.000007
C15	C	1.746795	-0.134603	-0.000022
C16	C	1.888030	-0.137427	-0.000030
C17	C	1.935353	-0.242799	-0.000035
C18	C	2.082225	-0.245795	0.000358
C19	C	2.085210	-0.095239	0.097115
C20	C	1.938213	-0.093001	0.097190
C21	C	1.952723	-0.079672	-0.096626
C22	C	2.099657	-0.084468	-0.097897
C23	C	1.525691	-0.313328	-0.000032
C24	C	1.540121	-0.418650	-0.000040
N25	N	1.495381	-0.156118	0.265503
C26	C	1.464153	0.331573	-0.000022
C27	C	1.566495	0.388515	-0.000025
C28	C	1.551817	0.495818	-0.000034
C29	C	1.478829	0.224260	-0.000014
N30	N	1.535281	-0.123793	-0.265541
C31	C	1.479725	-0.168815	0.474544
C32	C	1.550933	-0.111099	0.525424
C33	C	1.542222	-0.118164	0.641742
C34	C	1.488434	-0.161752	0.358216
H35	H	2.120992	-0.283131	-0.069261
H36	H	1.365518	0.363409	-0.000024
H37	H	1.665143	0.356681	-0.000095
Cl38	Cl	1.900666	-0.123406	-0.210329
H39	H	1.618440	-0.056381	0.481625
H40	H	1.412224	-0.223531	0.518338
Cl41	Cl	2.130196	-0.158370	0.209140
H42	H	1.890694	-0.286820	0.069510
Cl43	Cl	1.884954	-0.298733	-0.107565
Cl44	Cl	1.873343	-0.155285	0.209709
Cl45	Cl	2.124505	-0.316254	0.108483
H46	H	2.124628	-0.019398	0.100458
Cl47	Cl	1.890106	0.025863	0.103648
H48	H	2.137571	-0.118781	-0.169757
H49	H	1.922764	-0.002089	-0.097563
Cl50	Cl	2.164290	0.032503	-0.107393
