data_functionalizedCrystal
_audit_creation_method	'MofGen! by Chris Wilmer'
_symmetry_space_group_name_H-M	'P1'
_symmetry_Int_Tables_number	1
_symmetry_cell_setting	triclinic
loop_
_symmetry_equiv_pos_as_xyz
  x,y,z
_cell_length_a	10.489741
_cell_length_b	27.731996
_cell_length_c	9.565339
_cell_angle_alpha	89.994276
_cell_angle_beta	89.999100
_cell_angle_gamma	83.580281
loop_
_atom_site_label
_atom_site_type_symbol
_atom_site_fract_x
_atom_site_fract_y
_atom_site_fract_z
O1	O	1.691022	0.068189	-0.116194
O2	O	1.319542	0.074590	-0.116218
O3	O	1.516854	0.001064	-0.116175
O4	O	1.493710	0.141715	-0.116237
O5	O	1.516839	0.001068	0.116345
O6	O	1.319527	0.074594	0.116302
O7	O	1.691007	0.068193	0.116326
Zn8	Zn	1.505264	0.071395	0.153232
Zn9	Zn	1.505285	0.071389	-0.153124
O10	O	1.493695	0.141719	0.116283
C11	C	1.272024	0.074109	0.000040
C12	C	1.130459	0.072662	0.000032
C13	C	1.516371	-0.016944	0.000090
C14	C	1.514939	-0.070610	0.000104
C15	C	1.064398	0.025880	0.000066
C16	C	0.971297	0.047977	-0.114586
C17	C	0.971315	0.047993	0.114661
C18	C	1.039222	0.094779	-0.114714
C19	C	1.039250	0.094788	0.114635
C20	C	0.946175	0.116919	-0.000044
C21	C	1.505938	-0.403385	-0.126712
C22	C	1.500500	-0.605078	-0.126737
O23	O	1.499749	-0.631155	-0.234531
N24	N	1.499816	-0.630297	0.000009
C25	C	1.500483	-0.605089	0.126770
O26	O	1.499764	-0.631167	0.234574
C27	C	1.505912	-0.403397	0.126793
C28	C	1.506609	-0.378181	0.000039
C29	C	1.506633	-0.378169	-0.253455
C30	C	1.508000	-0.327750	-0.253448
C31	C	1.508671	-0.302546	-0.126697
C32	C	1.507975	-0.327761	0.000047
C33	C	1.506570	-0.378190	0.253552
C34	C	1.507924	-0.327763	0.253547
C35	C	1.508621	-0.302548	0.126793
C36	C	1.510013	-0.252138	0.126805
N37	N	1.510697	-0.226919	0.000060
C38	C	1.510025	-0.252123	-0.126691
C39	C	1.497636	-0.710980	0.126748
C40	C	1.496281	-0.761403	0.126743
C41	C	1.496295	-0.761388	-0.126764
C42	C	1.497659	-0.710965	-0.126757
C43	C	1.498320	-0.685761	0.000003
C44	C	1.512896	-0.146238	-0.126666
C45	C	1.514268	-0.095814	-0.126647
C46	C	1.514247	-0.095833	0.126859
C47	C	1.512882	-0.146252	0.126841
C48	C	1.512202	-0.171454	0.000067
O49	O	1.510750	-0.226028	0.234543
O50	O	1.510717	-0.226035	-0.234479
C51	C	1.504571	-0.453805	-0.126719
C52	C	1.503876	-0.479021	0.000024
C53	C	1.504547	-0.453817	0.126775
C54	C	1.502521	-0.529444	0.000019
C55	C	1.501850	-0.554648	-0.126732
C56	C	1.502534	-0.529429	-0.253478
C57	C	1.503900	-0.479009	-0.253470
C58	C	1.503863	-0.479036	0.253521
C59	C	1.502498	-0.529456	0.253503
C60	C	1.501827	-0.554660	0.126752
C61	C	1.738525	0.068675	0.000065
C62	C	1.880090	0.070121	0.000064
C63	C	1.494178	0.159727	0.000015
C64	C	1.495610	0.213393	-0.000008
N65	N	1.505259	0.071398	0.362311
N66	N	1.505300	0.071381	-0.362203
C67	C	1.413982	0.105390	0.453494
C68	C	1.529044	0.115170	0.546676
C69	C	1.390247	0.061622	0.546685
C70	C	1.620379	0.081200	0.453441
C71	C	1.481506	0.027633	0.453442
C72	C	1.596652	0.037395	0.546581
H73	H	1.115797	-0.012578	-0.000061
H74	H	1.069411	0.114568	0.211554
Br75	Br	0.921138	0.014991	0.276218
H76	H	1.336861	0.134163	0.412623
H77	H	1.514838	-0.075285	-0.229870
Br78	Br	1.511973	-0.180431	-0.298717
H79	H	1.495733	-0.781931	0.229959
H80	H	0.941169	0.028181	-0.211500
H81	H	1.495750	-0.781918	-0.229970
H82	H	1.673944	0.008640	0.587196
Br83	Br	1.501634	-0.563645	-0.425495
H84	H	1.498180	-0.690465	0.229977
H85	H	1.069177	0.114556	-0.211753
Br86	Br	1.782560	0.095040	0.385472
H87	H	1.461352	-0.009359	0.412457
H88	H	0.895040	0.155418	-0.000123
Br89	Br	1.515161	-0.061618	0.298870
H90	H	1.512326	-0.166785	0.230054
H91	H	1.508562	-0.307223	-0.356664
H92	H	1.506082	-0.398685	-0.356677
H93	H	1.498225	-0.690438	-0.229971
Br94	Br	1.228110	0.047853	0.614960
Br95	Br	1.505620	-0.412398	0.425587
H96	H	1.508443	-0.307244	0.356773
Br97	Br	1.504847	-0.444796	-0.425503
Br98	Br	1.501563	-0.563671	0.425543
H99	H	1.549162	0.152174	0.587628
H100	H	1.504412	-0.458520	0.356739
