data_functionalizedCrystal
_audit_creation_method	'MofGen! by Chris Wilmer'
_symmetry_space_group_name_H-M	'P1'
_symmetry_Int_Tables_number	1
_symmetry_cell_setting	triclinic
loop_
_symmetry_equiv_pos_as_xyz
  x,y,z
_cell_length_a	17.699083
_cell_length_b	17.699077
_cell_length_c	16.776229
_cell_angle_alpha	89.994802
_cell_angle_beta	89.995692
_cell_angle_gamma	83.281795
loop_
_atom_site_label
_atom_site_type_symbol
_atom_site_fract_x
_atom_site_fract_y
_atom_site_fract_z
O1	O	-0.095688	-1.004080	0.066279
O2	O	0.404312	-0.504080	0.566279
O3	O	-0.108145	-0.783701	0.066283
O4	O	0.391855	-0.283701	0.566283
O5	O	0.008273	-0.900117	0.066274
O6	O	0.508273	-0.400117	0.566274
O7	O	-0.212106	-0.887664	0.066288
O8	O	0.287894	-0.387664	0.566288
O9	O	0.008273	-0.900104	-0.066302
O10	O	0.508273	-0.400104	0.433698
O11	O	-0.108145	-0.783688	-0.066293
O12	O	0.391855	-0.283688	0.433707
O13	O	-0.095688	-1.004067	-0.066297
O14	O	0.404312	-0.504067	0.433703
Zn15	Zn	-0.101916	-0.893875	-0.087345
Zn16	Zn	0.398084	-0.393875	0.412655
Zn17	Zn	-0.101917	-0.893893	0.087331
Zn18	Zn	0.398083	-0.393893	0.587331
O19	O	-0.212106	-0.887651	-0.066288
O20	O	0.287894	-0.387651	0.433712
C21	C	-0.107700	-0.755498	-0.000004
C22	C	0.392300	-0.255498	0.499996
C23	C	-0.106363	-0.671479	-0.000003
C24	C	0.393637	-0.171479	0.499997
C25	C	0.036470	-0.899664	-0.000014
C26	C	0.536470	-0.399664	0.499986
C27	C	0.120488	-0.898326	-0.000015
C28	C	0.620488	-0.398326	0.499985
C29	C	-0.096133	-1.032271	-0.000008
C30	C	0.403867	-0.532271	0.499992
C31	C	-0.097470	-1.116289	-0.000004
C32	C	0.402530	-0.616289	0.499996
C33	C	-0.240303	-0.888104	0.000002
C34	C	0.259697	-0.388104	0.500002
C35	C	-0.324321	-0.889443	0.000008
C36	C	0.175679	-0.389443	0.500008
C37	C	0.169110	-0.966659	-0.000017
C38	C	0.669110	-0.466659	0.499983
C39	C	0.248054	-0.965397	-0.000010
C40	C	0.748054	-0.465397	0.499990
C41	C	0.278373	-0.895800	-0.000006
C42	C	0.778373	-0.395800	0.499994
C43	C	0.229744	-0.827461	-0.000001
C44	C	0.729744	-0.327461	0.499999
C45	C	0.150803	-0.828724	-0.000003
C46	C	0.650803	-0.328724	0.499997
C47	C	0.548107	-0.822366	0.000005
C48	C	1.048107	-0.322366	0.500005
C49	C	0.627055	-0.821108	0.000004
C50	C	1.127055	-0.321108	0.500004
C51	C	0.645358	-0.959039	-0.000002
C52	C	1.145358	-0.459039	0.499998
C53	C	0.566417	-0.960302	-0.000003
C54	C	1.066417	-0.460302	0.499997
C55	C	0.517795	-0.891963	0.000006
C56	C	1.017795	-0.391963	0.500006
C57	C	0.432196	-0.893333	-0.000000
C58	C	0.932196	-0.393333	0.500000
C59	C	0.363971	-0.894430	-0.000006
C60	C	0.863971	-0.394430	0.499994
N61	N	-0.101916	-0.893869	-0.206556
N62	N	0.398084	-0.393869	0.293444
C63	C	-0.105733	-0.632005	-0.072271
C64	C	0.394267	-0.132005	0.427729
C65	C	-0.104464	-0.553062	-0.072272
C66	C	0.395536	-0.053062	0.427728
C67	C	-0.103832	-0.513595	-0.000004
C68	C	0.396168	-0.013595	0.499996
C69	C	-0.104460	-0.553075	0.072270
C70	C	0.395540	-0.053075	0.572270
C71	C	-0.105722	-0.632017	0.072270
C72	C	0.394278	-0.132017	0.572270
C73	C	-0.099366	-0.234712	0.072271
C74	C	0.400634	0.265288	0.572271
C75	C	-0.098106	-0.155764	0.072265
C76	C	0.401894	0.344236	0.572265
C77	C	-0.098108	-0.155757	-0.072271
C78	C	0.401892	0.344243	0.427729
C79	C	-0.099371	-0.234699	-0.072271
C80	C	0.400629	0.265301	0.427729
C81	C	-0.099995	-0.274173	0.000002
C82	C	0.400005	0.225827	0.500002
C83	C	-0.101369	-0.359772	0.000002
C84	C	0.398631	0.140228	0.500002
C85	C	-0.102464	-0.427997	-0.000003
C86	C	0.397536	0.072003	0.499997
C87	C	-0.147763	-0.939684	-0.248267
C88	C	0.352237	-0.439684	0.251733
C89	C	-0.147760	-0.939693	-0.331719
C90	C	0.352240	-0.439693	0.168281
C91	C	-0.101913	-0.893881	-0.373459
C92	C	0.398087	-0.393881	0.126541
C93	C	-0.056060	-0.848064	-0.331742
C94	C	0.443940	-0.348064	0.168258
C95	C	-0.056060	-0.848061	-0.248291
C96	C	0.443940	-0.348061	0.251709
C97	C	-0.056061	-0.848080	-0.668289
C98	C	0.443939	-0.348080	-0.168289
C99	C	-0.056067	-0.848085	-0.751745
C100	C	0.443933	-0.348085	-0.251745
C101	C	-0.147762	-0.939712	-0.751717
C102	C	0.352238	-0.439712	-0.251717
C103	C	-0.147761	-0.939708	-0.668267
C104	C	0.352239	-0.439708	-0.168267
C105	C	-0.101906	-0.893894	-0.626557
C106	C	0.398094	-0.393894	-0.126557
C107	C	-0.101908	-0.893887	-0.536068
C108	C	0.398092	-0.393887	-0.036068
C109	C	-0.101914	-0.893884	-0.463946
C110	C	0.398086	-0.393884	0.036054
N111	N	-0.101911	-0.893905	0.206542
N112	N	0.398089	-0.393905	0.706542
H113	H	0.144431	-1.023333	-0.000025
H114	H	0.644431	-0.523333	0.499975
N115	N	-0.197217	-0.989092	-0.203251
N116	N	0.302783	-0.489092	0.296749
H117	H	-0.226258	-1.018118	-0.242342
H118	H	0.273742	-0.518118	0.257658
H119	H	-0.164168	-1.026151	-0.168624
H120	H	0.335832	-0.526151	0.331376
N121	N	0.697807	-1.032745	-0.000002
N122	N	1.197807	-0.532745	0.499998
H123	H	0.688065	-1.063124	0.049141
H124	H	1.188065	-0.563124	0.549141
H125	H	0.688051	-1.063048	-0.049184
H126	H	1.188051	-0.563048	0.450816
N127	N	-0.103782	-0.510483	-0.150217
N128	N	0.396218	-0.010483	0.349783
H129	H	-0.103842	-0.547531	-0.195999
H130	H	0.396158	-0.047531	0.304001
H131	H	-0.150431	-0.471867	-0.153604
H132	H	0.349569	0.028133	0.346396
N133	N	0.495674	-0.748660	0.000011
N134	N	0.995674	-0.248660	0.500011
H135	H	0.441063	-0.760015	0.000016
H136	H	0.941063	-0.260015	0.500016
H137	H	0.505480	-0.718334	0.049162
H138	H	1.005480	-0.218334	0.549162
H139	H	-0.018727	-0.810768	-0.365732
H140	H	0.481273	-0.310768	0.134268
N141	N	0.098356	-0.755022	0.000005
N142	N	0.598356	-0.255022	0.500005
H143	H	0.129540	-0.710741	0.000006
H144	H	0.629540	-0.210741	0.500006
H145	H	0.065205	-0.752535	-0.049142
H146	H	0.565205	-0.252535	0.450858
N147	N	-0.100045	-0.277265	-0.150219
N148	N	0.399955	0.222735	0.349781
H149	H	-0.100941	-0.333265	-0.139252
H150	H	0.399059	0.166735	0.360748
H151	H	-0.146725	-0.257241	-0.181778
H152	H	0.353275	0.242759	0.318222
H153	H	-0.018730	-0.810779	-0.785727
H154	H	0.481270	-0.310779	-0.285727
H155	H	0.541735	-1.016974	-0.000010
H156	H	1.041735	-0.516974	0.499990
H157	H	-0.018723	-0.810776	-0.634339
H158	H	0.481277	-0.310776	-0.134339
N159	N	-0.197210	-0.989118	-0.623248
N160	N	0.302790	-0.489118	-0.123248
H161	H	-0.226253	-1.018147	-0.662335
H162	H	0.273747	-0.518147	-0.162335
H163	H	-0.164157	-1.026175	-0.588623
H164	H	0.335843	-0.526175	-0.088623
N165	N	-0.006605	-0.798649	-0.203301
N166	N	0.493395	-0.298649	0.296699
H167	H	-0.021602	-0.743555	-0.217825
H168	H	0.478398	-0.243555	0.282175
H169	H	-0.013579	-0.805664	-0.144117
H170	H	0.486421	-0.305664	0.355883
H171	H	0.651737	-0.764431	0.000006
H172	H	1.151737	-0.264431	0.500006
N173	N	-0.097434	-0.113181	-0.150226
N174	N	0.402566	0.386819	0.349774
H175	H	-0.097592	-0.057052	-0.139269
H176	H	0.402408	0.442948	0.360731
H177	H	-0.050223	-0.132483	-0.181310
H178	H	0.449777	0.367517	0.318690
H179	H	0.254436	-0.770794	0.000007
H180	H	0.754436	-0.270794	0.500007
N181	N	-0.197173	-0.989145	-0.376709
N182	N	0.302827	-0.489145	0.123291
H183	H	-0.226208	-1.018173	-0.337605
H184	H	0.273792	-0.518173	0.162395
H185	H	-0.234224	-0.956111	-0.411357
H186	H	0.265776	-0.456111	0.088643
H187	H	-0.097590	-0.123632	0.131118
H188	H	0.402410	0.376368	0.631118
N189	N	-0.197221	-0.989129	-0.796704
N190	N	0.302779	-0.489129	-0.296704
H191	H	-0.190265	-0.982185	-0.855904
H192	H	0.309735	-0.482185	-0.355904
H193	H	-0.182200	-1.044200	-0.782107
H194	H	0.317800	-0.544200	-0.282107
H195	H	-0.099872	-0.266843	0.131120
H196	H	0.400128	0.233157	0.631120
N197	N	0.300497	-1.039099	-0.000017
N198	N	0.800497	-0.539099	0.499983
H199	H	0.269311	-1.083379	-0.000027
H200	H	0.769311	-0.583379	0.499973
H201	H	0.333652	-1.041568	-0.049165
H202	H	0.833652	-0.541568	0.450835
H203	H	-0.103939	-0.520935	0.131112
H204	H	0.396061	-0.020935	0.631112
N205	N	-0.106423	-0.674569	-0.150219
N206	N	0.393577	-0.174569	0.349781
H207	H	-0.105830	-0.637580	-0.196000
H208	H	0.394170	-0.137580	0.304000
H209	H	-0.060047	-0.713549	-0.153372
H210	H	0.439953	-0.213549	0.346628
H211	H	-0.106237	-0.664156	0.131118
H212	H	0.393763	-0.164156	0.631118
