data_functionalizedCrystal
_audit_creation_method	'MofGen! by Chris Wilmer'
_symmetry_space_group_name_H-M	'P1'
_symmetry_Int_Tables_number	1
_symmetry_cell_setting	triclinic
loop_
_symmetry_equiv_pos_as_xyz
  x,y,z
_cell_length_a	15.297475
_cell_length_b	25.639239
_cell_length_c	15.298259
_cell_angle_alpha	80.281399
_cell_angle_beta	88.370891
_cell_angle_gamma	80.340538
loop_
_atom_site_label
_atom_site_type_symbol
_atom_site_fract_x
_atom_site_fract_y
_atom_site_fract_z
Zn1	Zn	1.253385	-0.261141	-0.726620
Zn2	Zn	1.278578	-0.365812	-0.580102
Zn3	Zn	1.132236	-0.266227	-0.554843
Zn4	Zn	1.106836	-0.336373	-0.701248
O5	O	1.192759	-0.307388	-0.640703
O6	O	1.379303	-0.285218	-0.728374
O7	O	1.280339	-0.367050	-0.454162
O8	O	1.148393	-0.192391	-0.577678
O9	O	1.397813	-0.362119	-0.620727
O10	O	1.237401	-0.188655	-0.703882
O11	O	1.172822	-0.293885	-0.435604
O12	O	1.006290	-0.265340	-0.553075
O13	O	1.105102	-0.311945	-0.827203
O14	O	0.987629	-0.316876	-0.660638
O15	O	1.212772	-0.256673	-0.845844
O16	O	1.255710	-0.435068	-0.596124
O17	O	1.129531	-0.413439	-0.685130
C18	C	0.965177	-0.288465	-0.601363
C19	C	0.867812	-0.280380	-0.584553
C20	C	0.554653	-0.365177	-0.760845
C21	C	0.646132	-0.372778	-0.776635
C22	C	0.701556	-0.349679	-0.728616
C23	C	0.665493	-0.318978	-0.664803
C24	C	0.574006	-0.311381	-0.649006
C25	C	0.720909	-0.295882	-0.616778
C26	C	0.684846	-0.265182	-0.552965
C27	C	0.593368	-0.257585	-0.537171
C28	C	0.537943	-0.280684	-0.585190
C29	C	0.812397	-0.303480	-0.632575
C30	C	0.831750	-0.249683	-0.520737
C31	C	0.740271	-0.242083	-0.504946
C32	C	1.192618	-0.443223	-0.640638
C33	C	1.192633	-0.501337	-0.640653
C34	C	1.258590	-0.872958	-0.594479
C35	C	1.258622	-0.927564	-0.594496
O36	O	1.314555	-0.965365	-0.555167
N37	N	1.192903	-0.943633	-0.640788
C38	C	1.127153	-0.905093	-0.687072
O39	O	1.071257	-0.923775	-0.726449
C40	C	1.127125	-0.850488	-0.687059
C41	C	1.192843	-0.834423	-0.640757
C42	C	1.324303	-0.856892	-0.548182
C43	C	1.324270	-0.802290	-0.548163
C44	C	1.258523	-0.763754	-0.594441
C45	C	1.192810	-0.779821	-0.640739
C46	C	1.061380	-0.811949	-0.733348
C47	C	1.061358	-0.757341	-0.733332
C48	C	1.127076	-0.741276	-0.687030
C49	C	1.127031	-0.686683	-0.686998
N50	N	1.192750	-0.670614	-0.640707
C51	C	1.258496	-0.709149	-0.594428
C52	C	1.127216	-1.019767	-0.687097
C53	C	1.127240	-1.074371	-0.687105
C54	C	1.258710	-1.096838	-0.594531
C55	C	1.258682	-1.042234	-0.594518
C56	C	1.192935	-1.003698	-0.640806
C57	C	1.258421	-0.594480	-0.594392
C58	C	1.258380	-0.539873	-0.594374
C59	C	1.126913	-0.517410	-0.686952
C60	C	1.126951	-0.572013	-0.686967
C61	C	1.192712	-0.610548	-0.640685
O62	O	1.071128	-0.648852	-0.726311
O63	O	1.314389	-0.690458	-0.555068
C64	C	1.421229	-0.326385	-0.680198
C65	C	1.518590	-0.334481	-0.697028
C66	C	1.153293	-0.280458	-0.869198
C67	C	1.136476	-0.268981	-0.966569
C68	C	1.192920	-0.171022	-0.640792
C69	C	1.192989	-0.112911	-0.640830
C70	C	1.312987	-0.389009	-1.279682
C71	C	1.328783	-0.399795	-1.188196
C72	C	1.280708	-0.367092	-1.132785
C73	C	1.216833	-0.323603	-1.168869
C74	C	1.201030	-0.312819	-1.260362
C75	C	1.168751	-0.290902	-1.113466
C76	C	1.104876	-0.247412	-1.149549
C77	C	1.089076	-0.236630	-1.241034
C78	C	1.137152	-0.269333	-1.296445
C79	C	1.184554	-0.301686	-1.021972
C80	C	1.072597	-0.225495	-1.002652
C81	C	1.056801	-0.214710	-1.094138
C82	C	1.232121	-0.334180	-0.413106
C83	C	1.249109	-0.345523	-0.315765
H84	H	0.841750	-0.328476	-0.684533
C85	C	1.254828	-0.349517	-0.982293
N86	N	1.307767	-0.385544	-0.952409
H87	H	1.311896	-0.526795	-0.556667
H88	H	0.776042	-0.355869	-0.741477
H89	H	1.311972	-0.625850	-0.556707
H90	H	1.377846	-0.888263	-0.510496
C91	C	0.700590	-0.208315	-0.434750
N92	N	0.670701	-0.182882	-0.381878
H93	H	1.073381	-0.486026	-0.724629
C94	C	0.437307	-0.272315	-0.567837
N95	N	0.361506	-0.266010	-0.554772
C96	C	0.685795	-0.406549	-0.846826
N97	N	0.715669	-0.431987	-0.899697
H98	H	0.876877	-0.230875	-0.481635
H99	H	1.073671	-0.988393	-0.724786
H100	H	1.377785	-0.789213	-0.510463
C101	C	1.330978	-1.024567	-0.543586
N102	N	1.385436	-1.011264	-0.505223
C103	C	0.989030	-0.714954	-0.784254
N104	N	0.934551	-0.683030	-0.822607
H105	H	1.004793	-0.179300	-1.123530
H106	H	1.352116	-0.415634	-1.324804
H107	H	1.293573	-0.375877	-1.058294
H108	H	1.124296	-0.260552	-1.370941
C109	C	1.054656	-0.589686	-0.737897
N110	N	1.000207	-0.602993	-0.776267
C111	C	1.331038	-1.139238	-0.543631
N112	N	1.385513	-1.171174	-0.505297
H113	H	0.509519	-0.383985	-0.799929
C114	C	0.553702	-0.223815	-0.466974
N115	N	0.523826	-0.198377	-0.414103
H116	H	1.073719	-1.087446	-0.724799
C117	C	0.989086	-0.829607	-0.784288
N118	N	0.934630	-0.842906	-0.822661
C119	C	1.399082	-0.447612	-1.148518
N120	N	1.452049	-0.483624	-1.118635
H121	H	1.037057	-0.201222	-1.270408
H122	H	1.033450	-0.198866	-0.957536
