data_functionalizedCrystal
_audit_creation_method	'MofGen! by Chris Wilmer'
_symmetry_space_group_name_H-M	'P1'
_symmetry_Int_Tables_number	1
_symmetry_cell_setting	triclinic
loop_
_symmetry_equiv_pos_as_xyz
  x,y,z
_cell_length_a	13.032831
_cell_length_b	13.032721
_cell_length_c	13.034356
_cell_angle_alpha	89.133493
_cell_angle_beta	105.184960
_cell_angle_gamma	90.902885
loop_
_atom_site_label
_atom_site_type_symbol
_atom_site_fract_x
_atom_site_fract_y
_atom_site_fract_z
Zn1	Zn	1.642124	-0.515027	0.864471
Zn2	Zn	1.598125	-0.704067	0.708141
Zn3	Zn	1.441928	-0.515035	0.664355
Zn4	Zn	1.447483	-0.665685	0.858869
O5	O	1.532415	-0.599954	0.773959
O6	O	1.783115	-0.556163	0.864403
O7	O	1.556667	-0.695058	0.555503
O8	O	1.484574	-0.372873	0.674920
O9	O	1.750789	-0.695050	0.749547
O10	O	1.631657	-0.372867	0.821945
O11	O	1.441910	-0.556178	0.523333
O12	O	1.295838	-0.518960	0.669488
O13	O	1.494041	-0.629633	1.006442
O14	O	1.299919	-0.629642	0.812397
O15	O	1.637043	-0.518945	1.010558
O16	O	1.562053	-0.841137	0.744115
O17	O	1.451377	-0.812938	0.854855
C18	C	1.259807	-0.570138	0.735584
C19	C	1.143185	-0.557404	0.719195
C20	C	1.093214	-0.606600	0.782513
C21	C	0.972679	-0.593440	0.765575
C22	C	1.502575	-0.863899	0.803656
C23	C	1.489910	-0.976823	0.816409
C24	C	1.539087	-1.041086	0.767358
C25	C	1.525999	-1.157799	0.780538
C26	C	1.806087	-0.629887	0.812484
C27	C	1.922710	-0.642642	0.828901
C28	C	1.571070	-0.570007	1.047636
C29	C	1.587542	-0.557245	1.164260
C30	C	1.562404	-0.334978	0.744173
C31	C	1.575183	-0.222061	0.731480
C32	C	1.493980	-0.629717	0.501347
C33	C	1.477743	-0.642215	0.384719
C34	C	1.541152	-0.593139	1.334757
C35	C	1.524124	-0.606328	1.214219
H36	H	0.969159	-0.694500	0.895659
H37	H	1.626984	-1.190680	0.679730
C38	C	1.434782	-0.675294	1.152389
C39	C	1.337200	-0.638952	1.161892
C40	C	1.254879	-0.702467	1.104962
H41	H	1.435038	-0.675039	1.079578
H42	H	1.444870	-0.743290	1.180155
H43	H	1.327114	-0.570974	1.134122
H44	H	1.336908	-0.639211	1.234690
H45	H	1.264968	-0.770463	1.132728
H46	H	1.255146	-0.702207	1.032154
H47	H	1.188662	-0.677823	1.111410
H48	H	1.139668	-0.658456	0.849263
H49	H	0.926231	-0.541571	0.698827
C50	C	1.676644	-0.488191	1.226372
C51	C	1.675795	-0.488801	1.333572
C52	C	1.757846	-0.425187	1.390817
H53	H	1.743020	-0.512632	1.220186
H54	H	1.666491	-0.420173	1.198681
H55	H	1.685957	-0.556806	1.361256
H56	H	1.609439	-0.464351	1.339791
H57	H	1.747693	-0.357169	1.363126
H58	H	1.824215	-0.449634	1.384622
H59	H	1.757275	-0.425585	1.463556
H60	H	1.096733	-0.505539	0.652451
H61	H	1.410854	-0.693999	1.338257
H62	H	1.590885	-1.009701	0.715611
C63	C	1.456938	-1.199833	0.849462
C64	C	1.457658	-1.307238	0.848804
C65	C	1.394042	-1.345996	0.912272
H66	H	1.484055	-1.176517	0.920225
H67	H	1.386167	-1.176596	0.822182
H68	H	1.528414	-1.330466	0.876088
H69	H	1.430531	-1.330582	0.778058
H70	H	1.323271	-1.322759	0.884993
H71	H	1.421166	-1.322673	0.983031
H72	H	1.394514	-1.418873	0.911827
C73	C	1.421009	-1.018603	0.885605
C74	C	1.461325	-0.983949	0.989755
C75	C	1.397889	-1.022424	1.053533
H76	H	1.350246	-0.995333	0.858472
H77	H	1.421410	-1.091489	0.885365
H78	H	1.460913	-0.911078	0.989990
H79	H	1.532080	-1.007217	1.016919
H80	H	1.398290	-1.095310	1.053294
H81	H	1.327129	-0.999151	1.026391
H82	H	1.425240	-0.998925	1.124207
H83	H	1.608048	-0.541363	1.381222
