data_functionalizedCrystal
_audit_creation_method	'MofGen! by Chris Wilmer'
_symmetry_space_group_name_H-M	'P1'
_symmetry_Int_Tables_number	1
_symmetry_cell_setting	triclinic
loop_
_symmetry_equiv_pos_as_xyz
  x,y,z
_cell_length_a	33.592126
_cell_length_b	33.591377
_cell_length_c	33.588093
_cell_angle_alpha	60.004089
_cell_angle_beta	60.008299
_cell_angle_gamma	59.994549
loop_
_atom_site_label
_atom_site_type_symbol
_atom_site_fract_x
_atom_site_fract_y
_atom_site_fract_z
O1	O	0.055297	-0.581666	0.486338
O2	O	0.020882	-0.452873	0.391864
O3	O	0.102445	-0.534352	0.391775
O4	O	-0.026266	-0.500187	0.486427
O5	O	0.129510	-0.507292	0.418747
O6	O	0.047947	-0.425814	0.418835
O7	O	0.082362	-0.554606	0.513309
Cu8	Cu	0.067626	-0.487739	0.468535
Cu9	Cu	0.035618	-0.519740	0.436638
O10	O	0.000799	-0.473128	0.513398
N11	N	0.090139	-0.465235	0.490972
N12	N	0.013110	-0.542249	0.414202
C13	C	0.124394	-0.431229	0.734914
C14	C	0.334265	-0.431145	0.524799
C15	C	0.124204	-0.431200	0.524965
C16	C	0.124184	-0.221175	0.524955
C17	C	0.158017	-0.322536	0.558710
C18	C	0.158027	-0.397406	0.558711
C19	C	0.176763	-0.378688	0.577408
C20	C	0.258412	-0.364594	0.534386
C21	C	0.309454	-0.381596	0.517340
C22	C	0.309485	-0.464188	0.548836
C23	C	0.258444	-0.447186	0.565883
C24	C	0.170304	-0.297002	0.508532
C25	C	0.153260	-0.245956	0.491537
C26	C	0.111648	-0.245983	0.574901
C27	C	0.128691	-0.297029	0.591896
C28	C	0.107841	-0.385091	0.571080
C29	C	0.090813	-0.402108	0.554078
C30	C	0.174153	-0.443755	0.512351
C31	C	0.191183	-0.426739	0.529347
C32	C	0.107923	-0.385106	0.659111
C33	C	0.090955	-0.402138	0.710156
C34	C	0.174335	-0.443795	0.710087
C35	C	0.191302	-0.426764	0.659041
C36	C	0.158095	-0.397418	0.633555
C37	C	0.232909	-0.397388	0.558656
C38	C	0.105069	-0.449619	0.791057
C39	C	0.390406	-0.449193	0.505789
C40	C	0.104813	-0.449599	0.506607
C41	C	0.105125	-0.165028	0.506915
C42	C	-0.020560	-0.576246	0.169890
C43	C	-0.020889	-0.786183	0.379970
C44	C	-0.020859	-0.576235	0.380063
C45	C	-0.230772	-0.576015	0.379658
C46	C	-0.129417	-0.609898	0.346025
C47	C	-0.054587	-0.609979	0.346172
C48	C	-0.073269	-0.628671	0.327396
C49	C	-0.087401	-0.710299	0.370335
C50	C	-0.070424	-0.761345	0.387369
C51	C	0.012165	-0.761428	0.356003
C52	C	-0.004813	-0.710383	0.338967
C53	C	-0.155001	-0.622196	0.396191
C54	C	-0.206043	-0.605128	0.413125
C55	C	-0.205914	-0.563467	0.329724
C56	C	-0.154872	-0.580535	0.312790
C57	C	-0.066886	-0.559797	0.333828
C58	C	-0.049903	-0.542809	0.350903
C59	C	-0.008321	-0.626180	0.392654
C60	C	-0.025304	-0.643170	0.375585
C61	C	-0.066758	-0.559805	0.245702
C62	C	-0.049671	-0.542819	0.194658
C63	C	-0.008026	-0.626194	0.194706
C64	C	-0.025111	-0.643179	0.245752
C65	C	-0.054479	-0.609983	0.271248
C66	C	-0.054597	-0.684821	0.346135
C67	C	-0.002109	-0.556901	0.113746
C68	C	-0.002869	-0.842328	0.398966
C69	C	-0.002496	-0.556887	0.398501
C70	C	-0.286914	-0.556929	0.397631
N71	N	0.436349	-0.465146	0.490703
O72	O	0.592194	-0.469605	0.374236
O73	O	0.592389	-0.564393	0.502890
O74	O	0.592305	-0.564176	0.421300
O75	O	0.592277	-0.469822	0.455826
O76	O	0.511216	-0.537214	0.448415
O77	O	0.511300	-0.537431	0.530004
O78	O	0.511104	-0.442643	0.401350
Cu79	Cu	0.503798	-0.487575	0.468153
Cu80	Cu	0.599695	-0.519461	0.436087
O81	O	0.511188	-0.442860	0.482940
N82	N	0.667145	-0.541890	0.413532
N83	N	0.090108	-0.119085	0.490958
O84	O	-0.026275	0.036848	0.486394
O85	O	0.102381	0.036888	0.391584
O86	O	0.020751	0.036852	0.391854
O87	O	0.055356	0.036884	0.486124
O88	O	0.047821	-0.044242	0.418876
O89	O	0.129452	-0.044207	0.418606
O90	O	0.000796	-0.044246	0.513417
Cu91	Cu	0.067596	-0.051631	0.468479
Cu92	Cu	0.035582	0.044273	0.436522
O93	O	0.082426	-0.044211	0.513146
N94	N	0.013063	0.111726	0.414043
N95	N	0.090453	-0.465282	0.837001
O96	O	0.085913	-0.581648	0.992925
O97	O	-0.008857	-0.452947	0.992970
O98	O	-0.008635	-0.534562	0.992946
O99	O	0.085691	-0.500033	0.992949
O100	O	0.018365	-0.507512	0.911855
O101	O	0.018143	-0.425898	0.911878
O102	O	0.112912	-0.554598	0.911834
Cu103	Cu	0.067993	-0.487778	0.904452
Cu104	Cu	0.036063	-0.519767	1.000352
O105	O	0.112691	-0.472984	0.911857
N106	N	0.013602	-0.542269	1.067803
C107	C	0.031188	-0.423114	0.392334
C108	C	0.132194	-0.524016	0.392223
C109	C	0.072056	-0.584366	0.512840
C110	C	-0.028950	-0.483464	0.512950
C111	C	0.551868	-0.563965	0.532655
C112	C	0.551766	-0.563697	0.431617
C113	C	0.551623	-0.443070	0.371586
C114	C	0.551728	-0.443339	0.472623
C115	C	0.132090	-0.003555	0.392006
C116	C	0.031035	-0.003698	0.392374
C117	C	-0.028947	-0.003703	0.512961
C118	C	0.072143	-0.003661	0.512626
C119	C	-0.008408	-0.423209	0.952430
C120	C	-0.008128	-0.524272	0.952385
C121	C	0.112464	-0.584336	0.952374
C122	C	0.112190	-0.483267	0.952401
H123	H	0.050098	-0.392105	0.730957
H124	H	0.079554	-0.003651	0.542242
H125	H	0.023621	-0.003702	0.362756
O126	O	-0.043406	-0.533142	0.952322
C127	C	-0.065692	-0.591060	0.952275
C128	C	-0.025693	-0.581076	0.952336
H129	H	-0.051390	-0.629817	0.952297
H130	H	-0.076336	-0.564083	0.918325
H131	H	-0.098981	-0.586676	0.986198
H132	H	0.007622	-0.585467	0.918436
H133	H	-0.015091	-0.608051	0.986309
H134	H	0.079411	-0.621363	0.542512
O135	O	0.020176	-0.658470	0.421165
C136	C	0.095264	-0.724550	0.427798
C137	C	0.063035	-0.688014	0.395460
H138	H	0.129927	-0.748438	0.407025
H139	H	0.074472	-0.748452	0.462405
H140	H	0.105266	-0.703780	0.437895
H141	H	0.053023	-0.708744	0.385326
H142	H	0.083844	-0.664112	0.360875
H143	H	-0.065919	-0.476185	0.542670
O144	O	-0.043859	-0.379094	0.952467
C145	C	-0.066521	-0.298760	0.952460
C146	C	-0.026334	-0.348701	0.952430
H147	H	-0.052364	-0.274170	0.952421
H148	H	-0.099767	-0.303858	0.986409
H149	H	-0.077174	-0.281270	0.918536
H150	H	-0.015639	-0.366219	0.986332
H151	H	0.006886	-0.343571	0.918459
O152	O	-0.073061	-0.003686	0.548408
C153	C	-0.153381	-0.003727	0.571123
C154	C	-0.103446	-0.003741	0.530936
H155	H	-0.177957	-0.003782	0.557016
H156	H	-0.170916	0.030224	0.581744
H157	H	-0.148222	-0.037652	0.604380
H158	H	-0.108562	0.030161	0.497653
H159	H	-0.085928	-0.037715	0.520357
O160	O	0.551616	-0.407549	0.327506
C161	C	0.593532	-0.354197	0.255917
C162	C	0.593596	-0.394414	0.305832
H163	H	0.627474	-0.343572	0.238375
H164	H	0.559598	-0.320938	0.261054
H165	H	0.593491	-0.368332	0.231354
H166	H	0.593654	-0.380324	0.330422
H167	H	0.627527	-0.427665	0.300659
H168	H	0.142219	-0.621297	0.952354
O169	O	0.176328	-0.532771	0.356823
C170	C	0.256611	-0.590542	0.334248
C171	C	0.206656	-0.580688	0.374385
H172	H	0.281141	-0.629286	0.348428
H173	H	0.274185	-0.563526	0.323580
H174	H	0.251475	-0.586116	0.301004
H175	H	0.211749	-0.585121	0.407655
H176	H	0.189099	-0.607702	0.385011
O177	O	0.551804	-0.407991	0.481381
C178	C	0.593752	-0.354733	0.457879
C179	C	0.593731	-0.394770	0.447916
H180	H	0.627641	-0.344024	0.430822
H181	H	0.593835	-0.369020	0.496595
H182	H	0.559771	-0.321486	0.453575
H183	H	0.627706	-0.428030	0.452192
H184	H	0.593623	-0.380444	0.409203
O185	O	0.022454	-0.379020	0.356871
C186	C	0.017903	-0.335365	0.275666
C187	C	0.027818	-0.385334	0.315781
H188	H	0.022227	-0.340452	0.242439
H189	H	0.044929	-0.317779	0.264946
H190	H	-0.020824	-0.310865	0.289934
H191	H	0.066532	-0.409871	0.301547
H192	H	0.000763	-0.402881	0.326496
O193	O	0.551954	-0.599421	0.576755
C194	C	0.552013	-0.622082	0.657065
C195	C	0.551928	-0.581889	0.607141
H196	H	0.551982	-0.607919	0.681650
H197	H	0.585977	-0.655320	0.651940
H198	H	0.518105	-0.632754	0.674577
H199	H	0.585812	-0.571176	0.589602
H200	H	0.517941	-0.548678	0.612298
O201	O	0.551757	-0.598999	0.422734
C202	C	0.551740	-0.621315	0.364812
C203	C	0.551739	-0.581289	0.374810
H204	H	0.551736	-0.607015	0.326063
H205	H	0.517826	-0.632002	0.391801
H206	H	0.585698	-0.654578	0.369164
H207	H	0.517804	-0.548000	0.370453
H208	H	0.585675	-0.570643	0.347824
O209	O	0.176096	-0.003249	0.356452
C210	C	0.256295	-0.002847	0.333617
C211	C	0.206477	-0.003182	0.373920
H212	H	0.280875	-0.002804	0.347729
H213	H	0.250982	0.031174	0.300474
H214	H	0.273918	-0.036702	0.322819
H215	H	0.188826	0.030649	0.384759
H216	H	0.211821	-0.037225	0.407037
O217	O	0.147559	-0.474403	0.952307
C218	C	0.198785	-0.424895	0.910309
C219	C	0.158737	-0.434888	0.910348
H220	H	0.207828	-0.392941	0.876394
H221	H	0.232870	-0.458690	0.910263
H222	H	0.185279	-0.415635	0.944266
H223	H	0.172198	-0.444135	0.876398
H224	H	0.124661	-0.401085	0.910420
O225	O	0.075597	-0.356622	0.634430
C226	C	-0.008896	-0.317075	0.639886
C227	C	0.027656	-0.349343	0.667898
H228	H	-0.047664	-0.311171	0.666933
H229	H	-0.003072	-0.335767	0.616006
H230	H	-0.003008	-0.280365	0.615975
H231	H	0.021791	-0.386059	0.691835
H232	H	0.021823	-0.330613	0.691747
H233	H	0.232159	-0.436796	0.638236
O234	O	0.206660	-0.472305	0.734765
C235	C	0.291154	-0.511788	0.729302
C236	C	0.254599	-0.479506	0.701294
H237	H	0.329921	-0.517612	0.702253
H238	H	0.285341	-0.548534	0.753186
H239	H	0.285260	-0.493087	0.753210
H240	H	0.260472	-0.498164	0.677360
H241	H	0.260422	-0.442762	0.677441
H242	H	0.049948	-0.392069	0.564138
O243	O	0.206429	-0.472228	0.483817
C244	C	0.290892	-0.511768	0.444252
C245	C	0.254392	-0.479510	0.476561
H246	H	0.329678	-0.517673	0.438384
H247	H	0.285013	-0.493066	0.407529
H248	H	0.285000	-0.548478	0.462953
H249	H	0.260261	-0.442794	0.457903
H250	H	0.260279	-0.498250	0.513283
H251	H	0.232048	-0.436761	0.519270
O252	O	0.233744	-0.479106	0.589429
C253	C	0.239164	-0.562825	0.618891
C254	C	0.267196	-0.526727	0.592207
H255	H	0.266197	-0.601336	0.621155
H256	H	0.215255	-0.552619	0.598045
H257	H	0.215282	-0.561245	0.657264
H258	H	0.291104	-0.528288	0.553834
H259	H	0.291075	-0.536945	0.613091
H260	H	0.330277	-0.504737	0.554712
O261	O	0.334154	-0.349672	0.493754
C262	C	0.328738	-0.265961	0.464335
C263	C	0.300704	-0.302060	0.491045
H264	H	0.301707	-0.227460	0.462145
H265	H	0.352595	-0.267477	0.425938
H266	H	0.352673	-0.276229	0.485182
H267	H	0.276743	-0.291817	0.470239
H268	H	0.276878	-0.300538	0.529444
H269	H	-0.059677	-0.501957	0.173865
O270	O	0.233556	-0.316241	0.527452
C271	C	0.175968	-0.254484	0.565079
C272	C	0.204079	-0.309259	0.573001
H273	H	0.152137	-0.248820	0.601899
H274	H	0.152011	-0.240098	0.542685
H275	H	0.202976	-0.233975	0.544782
H276	H	0.177106	-0.329807	0.593310
H277	H	0.228043	-0.323607	0.595375
H278	H	0.194180	-0.317769	0.481510
O279	O	0.165171	-0.221202	0.442780
C280	C	0.161184	-0.205542	0.366359
C281	C	0.147673	-0.233614	0.421566
H282	H	0.147034	-0.215559	0.349192
H283	H	0.202510	-0.215572	0.349095
H284	H	0.143981	-0.164680	0.359925
H285	H	0.164844	-0.274483	0.428043
H286	H	0.106343	-0.223544	0.438802
O287	O	0.083153	-0.221278	0.607201
C288	C	0.043716	-0.226690	0.691681
C289	C	0.075981	-0.254728	0.655154
H290	H	0.037916	-0.253722	0.730459
H291	H	0.006962	-0.202817	0.685872
H292	H	0.062416	-0.202767	0.685748
H293	H	0.057325	-0.278676	0.661065
H294	H	0.112735	-0.278570	0.660973
H295	H	0.080840	-0.361208	0.594989
H296	H	-0.015291	-0.684031	0.385637
H297	H	0.118680	-0.317820	0.632757
H298	H	0.015877	-0.653227	0.173952
O299	O	-0.095254	-0.527490	0.270394
C300	C	-0.134765	-0.443000	0.264959
C301	C	-0.102488	-0.479540	0.236935
H302	H	-0.140632	-0.404224	0.237919
H303	H	-0.116104	-0.448866	0.288889
H304	H	-0.171488	-0.448864	0.288820
H305	H	-0.065759	-0.473698	0.213047
H306	H	-0.121187	-0.473665	0.213036
H307	H	-0.090726	-0.532768	0.309877
O308	O	-0.013241	-0.691929	0.270545
C309	C	-0.017139	-0.768353	0.286114
C310	C	-0.030622	-0.713150	0.258015
H311	H	-0.031177	-0.785528	0.275986
H312	H	-0.034408	-0.774821	0.326981
H313	H	0.024185	-0.785585	0.276150
H314	H	-0.071940	-0.695882	0.267938
H315	H	-0.013320	-0.706717	0.217155
O316	O	-0.061863	-0.494047	0.338840
C317	C	-0.104892	-0.413144	0.295620
C318	C	-0.091381	-0.468352	0.309242
H319	H	-0.128767	-0.392354	0.271696
H320	H	-0.070246	-0.403127	0.274865
H321	H	-0.125692	-0.403080	0.330247
H322	H	-0.070593	-0.478456	0.274640
H323	H	-0.126045	-0.478340	0.330015
H324	H	-0.134277	-0.646110	0.423254
H325	H	0.052703	-0.782242	0.350169
O326	O	0.027118	-0.685707	0.315488
C327	C	0.110831	-0.691178	0.286150
C328	C	0.074721	-0.719183	0.312759
H329	H	0.149327	-0.718232	0.283926
H330	H	0.100601	-0.667289	0.307027
H331	H	0.109298	-0.667276	0.247763
H332	H	0.076235	-0.743113	0.351146
H333	H	0.084963	-0.743042	0.291845
H334	H	-0.097137	-0.782089	0.407066
H335	H	-0.226875	-0.615140	0.453976
O336	O	-0.135750	-0.685486	0.377218
C337	C	-0.206099	-0.669819	0.362115
C338	C	-0.151341	-0.697948	0.354283
H339	H	-0.218723	-0.679892	0.343586
H340	H	-0.212615	-0.628954	0.345757
H341	H	-0.227505	-0.679812	0.402838
H342	H	-0.129899	-0.687995	0.313571
H343	H	-0.144862	-0.738806	0.370674
O344	O	-0.230592	-0.535005	0.297397
C345	C	-0.246141	-0.528486	0.231311
C346	C	-0.218154	-0.560768	0.267886
H347	H	-0.236103	-0.549306	0.207449
H348	H	-0.236058	-0.493876	0.207389
H349	H	-0.287014	-0.518386	0.252046
H350	H	-0.177275	-0.570905	0.247190
H351	H	-0.228278	-0.595355	0.291807
H352	H	-0.134040	-0.570516	0.271939
