data_functionalizedCrystal
_audit_creation_method	'MofGen! by Chris Wilmer'
_symmetry_space_group_name_H-M	'P1'
_symmetry_Int_Tables_number	1
_symmetry_cell_setting	triclinic
loop_
_symmetry_equiv_pos_as_xyz
  x,y,z
_cell_length_a	15.297475
_cell_length_b	19.121063
_cell_length_c	19.121175
_cell_angle_alpha	85.048230
_cell_angle_beta	101.657175
_cell_angle_gamma	83.156694
loop_
_atom_site_label
_atom_site_type_symbol
_atom_site_fract_x
_atom_site_fract_y
_atom_site_fract_z
Zn1	Zn	1.385261	-0.492335	0.604399
Zn2	Zn	1.885261	0.007665	1.104399
Zn3	Zn	1.372807	-0.603228	0.489999
Zn4	Zn	1.872807	-0.103228	0.989999
Zn5	Zn	1.228240	-0.465208	0.464690
Zn6	Zn	1.728240	0.034792	0.964690
Zn7	Zn	1.228179	-0.587824	0.587301
Zn8	Zn	1.728179	-0.087824	1.087301
O9	O	1.303622	-0.537149	0.536597
O10	O	1.803622	-0.037149	1.036597
O11	O	1.509850	-0.524845	0.606971
O12	O	2.009850	-0.024845	1.106971
O13	O	1.348443	-0.580013	0.387451
O14	O	1.848443	-0.080013	0.887451
O15	O	1.254307	-0.371082	0.479786
O16	O	1.754307	0.128918	0.979786
O17	O	1.500700	-0.606317	0.522922
O18	O	2.000700	-0.106317	1.022922
O19	O	1.369669	-0.391012	0.582430
O20	O	1.869669	0.108988	1.082430
O21	O	1.242230	-0.478610	0.368857
O22	O	1.742230	0.021390	0.868857
O23	O	1.101991	-0.463673	0.463207
O24	O	1.601991	0.036327	0.963207
O25	O	1.254203	-0.580063	0.688759
O26	O	1.754203	-0.080063	1.188759
O27	O	1.101946	-0.553759	0.553288
O28	O	1.601946	-0.053759	1.053288
O29	O	1.369610	-0.509908	0.701321
O30	O	1.869610	-0.009908	1.201321
O31	O	1.348384	-0.698909	0.506342
O32	O	1.848384	-0.198909	1.006342
O33	O	1.242127	-0.687592	0.577830
O34	O	1.742127	-0.187592	1.077830
C35	C	1.069236	-0.504102	0.503646
C36	C	1.569236	-0.004102	1.003646
C37	C	0.968964	-0.489982	0.489567
C38	C	1.468964	0.010018	0.989567
C39	C	0.686293	-0.638071	0.637224
C40	C	1.186293	-0.138071	1.137224
C41	C	0.780503	-0.651343	0.650450
C42	C	1.280503	-0.151343	1.150450
C43	C	0.827623	-0.611004	0.610231
C44	C	1.327623	-0.111004	1.110231
C45	C	0.780524	-0.557391	0.556782
C46	C	1.280524	-0.057391	1.056782
C47	C	0.686305	-0.544122	0.543551
C48	C	1.186305	-0.044122	1.043551
C49	C	0.827634	-0.517054	0.516558
C50	C	1.327634	-0.017054	1.016558
C51	C	0.780536	-0.463441	0.463110
C52	C	1.280536	0.036559	0.963110
C53	C	0.686326	-0.450174	0.449881
C54	C	1.186326	0.049826	0.949881
C55	C	0.639206	-0.490513	0.490101
C56	C	1.139206	0.009487	0.990101
C57	C	0.921854	-0.530323	0.529789
C58	C	1.421854	-0.030323	1.029789
C59	C	0.921865	-0.436373	0.436117
C60	C	1.421865	0.063627	0.936117
C61	C	0.827656	-0.423102	0.422891
C62	C	1.327656	0.076898	0.922891
C63	C	1.293923	-0.718594	0.542996
C64	C	1.793923	-0.218594	1.042996
C65	C	1.289857	-0.796229	0.545769
C66	C	1.789857	-0.296229	1.045769
C67	C	1.343316	-0.838580	0.509895
C68	C	1.843316	-0.338580	1.009895
C69	C	1.339498	-0.911527	0.512508
C70	C	1.839498	-0.411527	1.012508
C71	C	1.282216	-0.942122	0.550990
C72	C	1.782216	-0.442122	1.050990
C73	C	1.228754	-0.899766	0.586868
C74	C	1.728754	-0.399766	1.086868
C75	C	1.232578	-0.826821	0.584259
C76	C	1.732578	-0.326821	1.084259
C77	C	1.267906	-1.162077	0.560731
C78	C	1.767906	-0.662077	1.060731
C79	C	1.264085	-1.235028	0.563336
C80	C	1.764085	-0.735028	1.063336
C81	C	1.374830	-1.246784	0.488977
C82	C	1.874830	-0.746784	0.988977
C83	C	1.378645	-1.173836	0.486368
C84	C	1.878645	-0.673836	0.986368
C85	C	1.325187	-1.131487	0.522248
C86	C	1.825187	-0.631487	1.022248
C87	C	1.278310	-1.016686	0.553660
C88	C	1.778310	-0.516686	1.053660
C89	C	1.329098	-1.056925	0.519583
C90	C	1.829098	-0.556925	1.019583
C91	C	1.538923	-0.570325	0.569677
C92	C	2.038923	-0.070325	1.069677
C93	C	1.639194	-0.584463	0.583773
C94	C	2.139194	-0.084463	1.083773
C95	C	1.313289	-0.546293	0.721478
C96	C	1.813289	-0.046293	1.221478
C97	C	1.317409	-0.550190	0.800263
C98	C	1.817409	-0.050190	1.300263
C99	C	1.313384	-0.354999	0.530192
C100	C	1.813384	0.145001	1.030192
C101	C	1.317544	-0.277378	0.527463
C102	C	1.817544	0.222622	1.027463
C103	C	1.294046	-0.527996	0.352441
C104	C	1.794046	-0.027996	0.852441
C105	C	1.290112	-0.523927	0.273674
C106	C	1.790112	-0.023927	0.773674
C107	C	1.264047	-0.499227	0.827595
C108	C	1.764047	0.000773	1.327595
C109	C	1.267915	-0.502894	0.901622
C110	C	1.767915	-0.002894	1.401622
C111	C	1.325148	-0.557522	0.948316
C112	C	1.825148	-0.057522	1.448316
C113	C	1.378512	-0.608490	0.920979
C114	C	1.878512	-0.108490	1.420979
C115	C	1.374639	-0.604825	0.846953
C116	C	1.874639	-0.104825	1.346953
C117	C	1.339603	-0.571231	1.172311
C118	C	1.839603	-0.071231	1.672311
C119	C	1.343473	-0.574890	1.246341
C120	C	1.843473	-0.074890	1.746341
C121	C	1.232874	-0.469295	1.226979
C122	C	1.732874	0.030705	1.726979
C123	C	1.229011	-0.465633	1.152953
C124	C	1.729011	0.034367	1.652953
C125	C	1.282371	-0.516603	1.125622
C126	C	1.782371	-0.016603	1.625622
C127	C	1.329105	-0.561270	1.023984
C128	C	1.829105	-0.061270	1.523984
C129	C	1.278409	-0.512857	1.049955
C130	C	1.778409	-0.012857	1.549955
H131	H	0.789294	-0.379450	0.379372
H132	H	1.289294	0.120550	0.879372
N133	N	1.394110	-0.623275	1.144380
N134	N	1.894110	-0.123275	1.644380
N135	N	1.357839	-0.661256	1.100167
N136	N	1.857839	-0.161256	1.600167
H137	H	1.396341	-0.698009	1.080435
H138	H	1.896341	-0.198009	1.580435
H139	H	1.383030	-0.946007	0.483296
H140	H	1.883030	-0.446007	0.983296
N141	N	1.429151	-0.656871	0.819021
N142	N	1.929151	-0.156871	1.319021
N143	N	1.425687	-0.653592	0.752925
N144	N	1.925687	-0.153592	1.252925
H145	H	1.464186	-0.690351	0.733197
H146	H	1.964186	-0.190351	1.233197
N147	N	1.401938	-0.630681	1.294059
N148	N	1.901938	-0.130681	1.794059
N149	N	1.462894	-0.616246	1.342582
N150	N	1.962894	-0.116246	1.842582
H151	H	1.504185	-0.655642	1.376287
H152	H	2.004185	-0.155642	1.876287
H153	H	0.904333	-0.621812	0.621003
H154	H	1.404333	-0.121812	1.121003
N155	N	0.969956	-0.585090	0.584374
N156	N	1.469956	-0.085090	1.084374
N157	N	0.955742	-0.647804	0.580355
N158	N	1.455742	-0.147804	1.080355
H159	H	0.989715	-0.686487	0.618908
H160	H	1.489715	-0.186487	1.118908
H161	H	1.217450	-1.259937	0.594686
H162	H	1.717450	-0.759937	1.094686
N163	N	0.970000	-0.395174	0.395032
N164	N	1.470000	0.104826	0.895032
N165	N	1.054118	-0.407028	0.406852
N166	N	1.554118	0.092972	0.906852
H167	H	1.088120	-0.377935	0.377837
H168	H	1.588120	0.122065	0.877837
H169	H	1.389958	-0.813674	0.478556
H170	H	1.889958	-0.313674	0.978556
N171	N	1.437124	-1.142570	0.447037
N172	N	1.937124	-0.642570	0.947037
N173	N	1.440505	-1.077436	0.444691
N174	N	1.940505	-0.577436	0.944691
H175	H	1.481790	-1.055350	0.416898
H176	H	1.981790	-0.555350	0.916898
N177	N	1.429426	-1.290052	0.452331
N178	N	1.929426	-0.790052	0.952331
N179	N	1.426006	-1.355180	0.454662
N180	N	1.926006	-0.855180	0.954662
H181	H	1.464567	-1.385740	0.428781
H182	H	1.964567	-0.885740	0.928781
N183	N	1.177955	-0.783557	0.620889
N184	N	1.677955	-0.283557	1.120889
N185	N	1.121318	-0.733566	0.586382
N186	N	1.621318	-0.233566	1.086382
H187	H	1.082740	-0.703011	0.612254
H188	H	1.582740	-0.203011	1.112254
N189	N	1.387595	-1.025664	0.480270
N190	N	1.887595	-0.525664	0.980270
N191	N	1.355657	-0.978295	0.429177
N192	N	1.855657	-0.478295	0.929177
H193	H	1.396966	-0.956209	0.401409
H194	H	1.896966	-0.456209	0.901409
H195	H	1.224459	-0.461397	0.923871
H196	H	1.724459	0.038603	1.423871
H197	H	1.425108	-0.652972	0.959003
H198	H	1.925108	-0.152972	1.459003
H199	H	0.562493	-0.479709	0.479336
H200	H	1.062493	0.020291	0.979336
N201	N	1.219962	-0.457058	1.002251
N202	N	1.719962	0.042942	1.502251
N203	N	1.251941	-0.414999	0.963842
N204	N	1.751941	0.085001	1.463842
H205	H	1.210666	-0.375589	0.930144
H206	H	1.710666	0.124411	1.430144
N207	N	1.387595	-0.617047	1.071691
N208	N	1.887595	-0.117047	1.571691
N209	N	1.470655	-0.623724	1.074969
N210	N	1.970655	-0.123724	1.574969
H211	H	1.511968	-0.663113	1.108668
H212	H	2.011968	-0.163113	1.608668
N213	N	0.828596	-0.706107	0.705042
N214	N	1.328596	-0.206107	1.205042
N215	N	0.786518	-0.742120	0.740947
N216	N	1.286518	-0.242120	1.240947
H217	H	0.820484	-0.780800	0.779506
H218	H	1.320484	-0.280800	1.279506
N219	N	1.213296	-1.118835	0.597385
N220	N	1.713296	-0.618835	1.097385
N221	N	1.162154	-1.146163	0.631738
N222	N	1.662154	-0.646163	1.131738
H223	H	1.123582	-1.115622	0.657627
H224	H	1.623582	-0.615622	1.157627
H225	H	1.231668	-1.041604	0.584990
H226	H	1.731668	-0.541604	1.084990
N227	N	0.638148	-0.679271	0.678289
N228	N	1.138148	-0.179271	1.178289
N229	N	0.554029	-0.667417	0.666464
N230	N	1.054029	-0.167417	1.166464
H231	H	0.520024	-0.696518	0.695468
H232	H	1.020024	-0.196518	1.195468
H233	H	1.182118	-0.924683	0.618204
H234	H	1.682118	-0.424683	1.118204
N235	N	1.205590	-0.443414	0.779913
N236	N	1.705590	0.056586	1.279913
N237	N	1.157953	-0.397915	0.804330
N238	N	1.657953	0.102085	1.304330
H239	H	1.116666	-0.358494	0.770657
H240	H	1.616666	0.141506	1.270657
N241	N	0.638227	-0.395418	0.395274
N242	N	1.138227	0.104582	0.895274
N243	N	0.680303	-0.359407	0.359366
N244	N	1.180303	0.140593	0.859366
H245	H	0.646336	-0.320736	0.320798
H246	H	1.146336	0.179264	0.820798
N247	N	1.170536	-0.409830	1.105268
N248	N	1.670536	0.090170	1.605268
N249	N	1.122890	-0.364334	1.129681
N250	N	1.622890	0.135666	1.629681
H251	H	1.081589	-0.324923	1.096003
H252	H	1.581589	0.175077	1.596003
H253	H	1.189431	-0.427798	1.249240
H254	H	1.689431	0.072202	1.749240
