data_functionalizedCrystal
_audit_creation_method	'MofGen! by Chris Wilmer'
_symmetry_space_group_name_H-M	'P1'
_symmetry_Int_Tables_number	1
_symmetry_cell_setting	triclinic
loop_
_symmetry_equiv_pos_as_xyz
  x,y,z
_cell_length_a	12.759401
_cell_length_b	12.759400
_cell_length_c	12.759393
_cell_angle_alpha	90.027853
_cell_angle_beta	90.019676
_cell_angle_gamma	90.014710
loop_
_atom_site_label
_atom_site_type_symbol
_atom_site_fract_x
_atom_site_fract_y
_atom_site_fract_z
Zn1	Zn	1.606269	-0.418204	0.594004
Zn2	Zn	2.106269	0.081796	1.094004
Zn3	Zn	1.606162	-0.593919	0.418332
Zn4	Zn	2.106162	-0.093919	0.918332
Zn5	Zn	1.430568	-0.418256	0.418343
Zn6	Zn	1.930568	0.081744	0.918343
Zn7	Zn	1.430561	-0.593842	0.593973
Zn8	Zn	1.930561	-0.093842	1.093973
O9	O	1.518390	-0.506055	0.506163
O10	O	2.018390	-0.006055	1.006163
O11	O	1.753276	-0.441523	0.570709
O12	O	2.253276	0.058477	1.070709
O13	O	1.582827	-0.570671	0.271313
O14	O	2.082827	-0.070671	0.771313
O15	O	1.453923	-0.271228	0.441662
O16	O	1.953923	0.228772	0.941662
O17	O	1.753197	-0.570620	0.441644
O18	O	2.253197	-0.070620	0.941644
O19	O	1.583010	-0.271189	0.570720
O20	O	2.083010	0.228811	1.070720
O21	O	1.453819	-0.441612	0.271320
O22	O	1.953819	0.058388	0.771320
O23	O	1.283546	-0.441538	0.441632
O24	O	1.783546	0.058462	0.941632
O25	O	1.453912	-0.570489	0.740999
O26	O	1.953912	-0.070489	1.240999
O27	O	1.283541	-0.570540	0.570667
O28	O	1.783541	-0.070540	1.070667
O29	O	1.583004	-0.441448	0.741021
O30	O	2.083004	0.058552	1.241021
O31	O	1.582820	-0.740930	0.441614
O32	O	2.082820	-0.240930	0.941614
O33	O	1.453807	-0.740874	0.570657
O34	O	1.953807	-0.240874	1.070657
C35	C	1.245423	-0.506037	0.506148
C36	C	1.745423	-0.006037	1.006148
C37	C	1.128646	-0.506055	0.506167
C38	C	1.628646	-0.006055	1.006167
C39	C	1.073826	-0.438955	0.573475
C40	C	1.573826	0.061045	1.073475
C41	C	0.964102	-0.438966	0.573482
C42	C	1.464102	0.061034	1.073482
C43	C	0.964028	-0.573185	0.438870
C44	C	1.464028	-0.073185	0.938870
C45	C	1.073750	-0.573168	0.438858
C46	C	1.573750	-0.073168	0.938858
C47	C	1.518330	-0.779023	0.506154
C48	C	2.018330	-0.279023	1.006154
C49	C	1.518400	-0.895799	0.506185
C50	C	2.018400	-0.395799	1.006185
C51	C	1.451209	-0.950670	0.573324
C52	C	1.951209	-0.450670	1.073324
C53	C	1.451264	-1.060394	0.573334
C54	C	1.951264	-0.560394	1.073334
C55	C	1.585712	-1.060367	0.439062
C56	C	2.085712	-0.560367	0.939062
C57	C	1.585650	-0.950645	0.439048
C58	C	2.085650	-0.450645	0.939048
C59	C	1.383958	-0.895825	0.640461
C60	C	1.883958	-0.395825	1.140461
C61	C	1.316762	-0.950696	0.707607
C62	C	1.816762	-0.450696	1.207607
C63	C	1.316818	-1.060420	0.707617
C64	C	1.816818	-0.560420	1.207617
C65	C	1.384070	-1.115273	0.640481
C66	C	1.884070	-0.615273	1.140481
C67	C	1.792423	-0.506074	0.506179
C68	C	2.292423	-0.006074	1.006179
C69	C	1.909200	-0.506082	0.506185
C70	C	2.409200	-0.006082	1.006185
C71	C	1.518469	-0.505954	0.780197
C72	C	2.018469	-0.005954	1.280197
C73	C	1.518502	-0.505911	0.896973
C74	C	2.018502	-0.005911	1.396973
C75	C	1.518479	-0.232022	0.506196
C76	C	2.018479	0.267978	1.006196
C77	C	1.518517	-0.115245	0.506209
C78	C	2.018517	0.384755	1.006209
C79	C	1.518372	-0.506080	0.233196
C80	C	2.018372	-0.006080	0.733196
C81	C	1.518542	-0.505827	0.116420
C82	C	2.018542	-0.005827	0.616420
C83	C	1.585725	-0.438709	0.951849
C84	C	2.085725	0.061291	1.451849
C85	C	1.585743	-0.438664	1.061573
C86	C	2.085743	0.061336	1.561573
C87	C	1.451312	-0.573032	1.061537
C88	C	1.951312	-0.073032	1.561537
C89	C	1.451289	-0.573071	0.951814
C90	C	1.951289	-0.073071	1.451814
H91	H	1.118519	-0.384304	0.628278
H92	H	1.618519	0.115696	1.128278
F93	F	1.379787	-0.644509	1.119911
F94	F	1.879787	-0.144509	1.619911
H95	H	1.383908	-0.806482	0.640463
H96	H	1.883908	-0.306482	1.140463
H97	H	0.919472	-0.384325	0.628289
H98	H	1.419472	0.115675	1.128289
H99	H	1.640452	-0.384020	0.907200
H100	H	2.140452	0.115980	1.407200
H101	H	1.640481	-0.383939	1.106248
H102	H	2.140481	0.116061	1.606248
F103	F	1.245186	-0.892316	0.779046
F104	F	1.745186	-0.392316	1.279046
H105	H	0.919318	-0.627827	0.384071
H106	H	1.419318	-0.127827	0.884071
H107	H	1.262098	-1.105093	0.762284
H108	H	1.762098	-0.605093	1.262284
F109	F	1.132097	-0.644580	0.367208
F110	F	1.632097	-0.144580	0.867208
F111	F	1.384153	-1.232052	0.640522
F112	F	1.884153	-0.732052	1.140522
H113	H	1.640466	-1.105037	0.384405
H114	H	2.140466	-0.605037	0.884405
F115	F	1.379732	-0.644596	0.893409
F116	F	1.879732	-0.144596	1.393409
H117	H	1.640363	-0.905968	0.384376
H118	H	2.140363	-0.405968	0.884376
