data_functionalizedCrystal
_audit_creation_method	'MofGen! by Chris Wilmer'
_symmetry_space_group_name_H-M	'P1'
_symmetry_Int_Tables_number	1
_symmetry_cell_setting	triclinic
loop_
_symmetry_equiv_pos_as_xyz
  x,y,z
_cell_length_a	23.532407
_cell_length_b	23.532407
_cell_length_c	12.996460
_cell_angle_alpha	89.989202
_cell_angle_beta	89.999749
_cell_angle_gamma	82.848678
loop_
_atom_site_label
_atom_site_type_symbol
_atom_site_fract_x
_atom_site_fract_y
_atom_site_fract_z
O1	O	0.755260	0.069136	-0.085449
O2	O	1.255260	0.569136	0.414551
O3	O	0.589397	0.079139	-0.085480
O4	O	1.089397	0.579139	0.414520
O5	O	0.677330	-0.008794	-0.085445
O6	O	1.177330	0.491206	0.414555
O7	O	0.667327	0.157069	-0.085484
O8	O	1.167327	0.657069	0.414516
O9	O	0.677321	-0.008799	0.085689
O10	O	1.177321	0.491201	0.585689
O11	O	0.589388	0.079134	0.085653
O12	O	1.089388	0.579134	0.585653
O13	O	0.755251	0.069131	0.085685
O14	O	1.255251	0.569131	0.585685
Cu15	Cu	0.672319	0.074132	0.101295
Cu16	Cu	1.172319	0.574132	0.601295
Cu17	Cu	0.672329	0.074138	-0.101091
Cu18	Cu	1.172329	0.574138	0.398909
O19	O	0.667318	0.157064	0.085649
O20	O	1.167318	0.657064	0.585649
C21	C	0.568176	0.078882	0.000083
C22	C	1.068176	0.578882	0.500083
C23	C	0.504959	0.078116	0.000071
C24	C	1.004959	0.578116	0.500071
C25	C	0.105856	0.125350	0.000107
C26	C	0.605856	0.625350	0.500107
C27	C	0.046456	0.124638	0.000113
C28	C	0.546456	0.624638	0.500113
O29	O	0.009711	0.168424	0.000140
O30	O	0.509711	0.668424	0.500140
N31	N	0.023830	0.072362	0.000124
N32	N	0.523830	0.572362	0.500124
C33	C	0.060607	0.020794	0.000139
C34	C	0.560607	0.520794	0.500139
O35	O	0.035908	-0.023737	0.000149
O36	O	0.535908	0.476263	0.500149
C37	C	0.120006	0.021506	0.000140
C38	C	0.620006	0.521506	0.500140
C39	C	0.142629	0.073785	0.000118
C40	C	0.642629	0.573785	0.500118
C41	C	0.128479	0.177625	0.000087
C42	C	0.628479	0.677625	0.500087
C43	C	0.187876	0.178336	0.000078
C44	C	0.687876	0.678336	0.500078
C45	C	0.224649	0.126772	0.000090
C46	C	0.724649	0.626772	0.500090
C47	C	0.202025	0.074496	0.000110
C48	C	0.702025	0.574496	0.500110
C49	C	0.156783	-0.030062	0.000162
C50	C	0.656783	0.469938	0.500162
C51	C	0.216185	-0.029345	0.000163
C52	C	0.716185	0.470655	0.500163
C53	C	0.238808	0.022934	0.000142
C54	C	0.738808	0.522934	0.500142
C55	C	0.298194	0.023643	0.000113
C56	C	0.798194	0.523643	0.500113
N57	N	0.320820	0.075920	0.000103
N58	N	0.820820	0.575920	0.500103
C59	C	0.284048	0.127484	0.000091
C60	C	0.784048	0.627484	0.500091
C61	C	-0.064135	0.019302	0.000139
C62	C	0.435865	0.519302	0.500139
C63	C	-0.123533	0.018589	0.000130
C64	C	0.376467	0.518589	0.500130
C65	C	-0.137680	0.122434	0.000107
C66	C	0.362320	0.622434	0.500107
C67	C	-0.078281	0.123146	0.000108
C68	C	0.421719	0.623146	0.500108
C69	C	-0.041509	0.071578	0.000128
C70	C	0.458491	0.571578	0.500128
C71	C	0.408784	0.128974	0.000072
C72	C	0.908784	0.628974	0.500072
C73	C	0.468186	0.129680	0.000060
C74	C	0.968186	0.629680	0.500060
C75	C	0.482329	0.025836	0.000089
C76	C	0.982329	0.525836	0.500089
C77	C	0.422932	0.025129	0.000096
C78	C	0.922932	0.525129	0.500096
C79	C	0.386160	0.076702	0.000091
C80	C	0.886160	0.576702	0.500091
O81	O	0.334974	-0.020119	0.000091
O82	O	0.834974	0.479881	0.500091
O83	O	0.308755	0.172007	0.000094
O84	O	0.808755	0.672007	0.500094
C85	C	0.677071	-0.030013	0.000125
C86	C	1.177071	0.469987	0.500125
C87	C	0.676305	-0.093230	0.000132
C88	C	1.176305	0.406770	0.500132
C89	C	0.723539	-0.492333	0.000085
C90	C	1.223539	0.007667	0.500085
C91	C	0.722827	-0.551733	0.000077
C92	C	1.222827	-0.051733	0.500077
O93	O	0.766613	-0.588478	0.000047
O94	O	1.266613	-0.088478	0.500047
N95	N	0.670551	-0.574359	0.000068
N96	N	1.170551	-0.074359	0.500068
C97	C	0.618983	-0.537582	0.000056
C98	C	1.118983	-0.037582	0.500056
O99	O	0.574452	-0.562281	0.000047
O100	O	1.074452	-0.062281	0.500047
C101	C	0.619695	-0.478182	0.000057
C102	C	1.119695	0.021818	0.500057
C103	C	0.671974	-0.455560	0.000076
C104	C	1.171974	0.044440	0.500076
C105	C	0.775814	-0.469710	0.000104
C106	C	1.275814	0.030290	0.500104
C107	C	0.776525	-0.410313	0.000113
C108	C	1.276525	0.089687	0.500113
C109	C	0.724961	-0.373540	0.000105
C110	C	1.224961	0.126460	0.500105
C111	C	0.672685	-0.396164	0.000086
C112	C	1.172685	0.103836	0.500086
C113	C	0.568127	-0.441406	0.000038
C114	C	1.068127	0.058594	0.500038
C115	C	0.568844	-0.382004	0.000037
C116	C	1.068844	0.117996	0.500037
C117	C	0.621123	-0.359381	0.000057
C118	C	1.121123	0.140619	0.500057
C119	C	0.621832	-0.299995	0.000087
C120	C	1.121832	0.200005	0.500087
N121	N	0.674109	-0.277368	0.000097
N122	N	1.174109	0.222632	0.500097
C123	C	0.725673	-0.314141	0.000105
C124	C	1.225673	0.185859	0.500105
C125	C	0.617491	-0.662324	0.000053
C126	C	1.117491	-0.162324	0.500053
C127	C	0.616778	-0.721722	0.000060
C128	C	1.116778	-0.221722	0.500060
C129	C	0.720623	-0.735869	0.000079
C130	C	1.220623	-0.235869	0.500079
C131	C	0.721335	-0.676470	0.000080
C132	C	1.221335	-0.176470	0.500080
C133	C	0.669767	-0.639698	0.000062
C134	C	1.169767	-0.139698	0.500062
C135	C	0.727163	-0.189405	0.000127
C136	C	1.227163	0.310595	0.500127
C137	C	0.727869	-0.130003	0.000141
C138	C	1.227869	0.369997	0.500141
C139	C	0.624025	-0.115860	0.000117
C140	C	1.124025	0.384140	0.500117
C141	C	0.623318	-0.175257	0.000108
C142	C	1.123318	0.324743	0.500108
C143	C	0.674891	-0.212029	0.000110
C144	C	1.174891	0.287971	0.500110
O145	O	0.578070	-0.263215	0.000113
O146	O	1.078070	0.236785	0.500113
O147	O	0.770196	-0.289433	0.000101
O148	O	1.270196	0.210567	0.500101
C149	C	0.776472	0.069388	0.000120
C150	C	1.276472	0.569388	0.500120
C151	C	0.839689	0.070154	0.000124
C152	C	1.339689	0.570154	0.500124
C153	C	0.667577	0.178283	0.000078
C154	C	1.167577	0.678283	0.500078
C155	C	0.668343	0.241500	0.000063
C156	C	1.168343	0.741500	0.500063
N157	N	0.672315	0.074128	0.243642
N158	N	1.172315	0.574128	0.743642
N159	N	0.672337	0.074138	-0.243438
N160	N	1.172337	0.574138	0.256562
C161	C	0.672329	0.074138	0.663456
C162	C	1.172329	0.574138	1.163456
C163	C	0.672323	0.074137	0.546651
C164	C	1.172323	0.574137	1.046651
C165	C	0.672322	0.074134	0.453553
C166	C	1.172322	0.574134	0.953553
C167	C	0.672316	0.074132	0.336740
C168	C	1.172316	0.574132	0.836740
H169	H	0.486602	0.172255	0.000042
H170	H	0.986602	0.672255	0.500042
H171	H	-0.034198	-0.022693	0.000146
H172	H	0.465802	0.477307	0.500146
H173	H	-0.141947	-0.023982	0.000132
H174	H	0.358053	0.476018	0.500132
H175	H	0.378851	0.170970	0.000072
H176	H	0.878851	0.670970	0.500072
C177	C	0.783217	-0.229227	0.000187
C178	C	1.283217	0.270773	0.500187
C179	C	0.829144	-0.196691	0.000233
C180	C	1.329144	0.303309	0.500233
C181	C	0.880790	-0.233355	0.000308
C182	C	1.380790	0.266645	0.500308
H183	H	0.785190	-0.252699	-0.059477
H184	H	1.285190	0.247301	0.440523
H185	H	0.785128	-0.252693	0.059887
H186	H	1.285128	0.247307	0.559887
H187	H	0.827235	-0.173236	-0.059462
H188	H	1.327235	0.326764	0.440538
H189	H	0.827191	-0.173220	0.059892
H190	H	1.327191	0.326780	0.559892
H191	H	0.882700	-0.256820	0.060009
H192	H	1.382700	0.243180	0.560009
H193	H	0.882756	-0.256825	-0.059356
H194	H	1.382756	0.243175	0.440644
H195	H	0.911957	-0.211285	0.000349
H196	H	1.411957	0.288715	0.500349
C197	C	0.561437	-0.622496	0.000103
C198	C	1.061437	-0.122496	0.500103
C199	C	0.515509	-0.655031	0.000123
C200	C	1.015509	-0.155031	0.500123
C201	C	0.463865	-0.618365	0.000181
C202	C	0.963865	-0.118365	0.500181
H203	H	0.559473	-0.599010	-0.059557
H204	H	1.059473	-0.099010	0.440443
H205	H	0.559521	-0.599046	0.059807
H206	H	1.059521	-0.099046	0.559807
H207	H	0.517425	-0.678472	-0.059575
H208	H	1.017425	-0.178472	0.440425
H209	H	0.517455	-0.678516	0.059779
H210	H	1.017455	-0.178516	0.559779
H211	H	0.461948	-0.594915	0.059885
H212	H	0.961948	-0.094915	0.559885
H213	H	0.461906	-0.594880	-0.059480
H214	H	0.961906	-0.094880	0.440520
H215	H	0.432697	-0.640434	0.000204
H216	H	0.932697	-0.140434	0.500204
H217	H	0.582043	-0.085909	0.000113
H218	H	1.082043	0.414091	0.500113
H219	H	0.206289	0.220908	0.000061
H220	H	0.706289	0.720908	0.500061
H221	H	0.526850	-0.352066	0.000022
H222	H	1.026850	0.147934	0.500022
H223	H	0.512280	-0.016146	0.000094
H224	H	1.012280	0.483854	0.500094
H225	H	0.525555	-0.459814	0.000015
H226	H	1.025555	0.040186	0.500015
H227	H	0.819097	-0.391900	0.000125
H228	H	1.319097	0.108100	0.500125
H229	H	0.762610	-0.765821	0.000082
H230	H	1.262610	-0.265821	0.500082
H231	H	0.817806	-0.499645	0.000107
H232	H	1.317806	0.000355	0.500107
H233	H	0.763906	-0.658056	0.000095
H234	H	1.263906	-0.158056	0.500095
H235	H	0.574207	-0.740136	0.000062
H236	H	1.074207	-0.240136	0.500062
H237	H	0.770443	-0.111587	0.000160
H238	H	1.270443	0.388413	0.500160
C239	C	-0.053833	0.179966	0.000145
C240	C	0.446167	0.679966	0.500145
C241	C	-0.098758	0.224967	0.000157
C242	C	0.401242	0.724967	0.500157
C243	C	-0.076262	0.277319	0.000208
C244	C	0.423738	0.777319	0.500208
H245	H	-0.030964	0.182488	-0.059515
H246	H	0.469036	0.682488	0.440485
H247	H	-0.030975	0.182434	0.059849
H248	H	0.469025	0.682434	0.559849
H249	H	-0.121607	0.222500	-0.059541
H250	H	0.378393	0.722500	0.440459
H251	H	-0.121631	0.222464	0.059813
H252	H	0.378369	0.722464	0.559813
H253	H	-0.053403	0.279787	0.059912
H254	H	0.446597	0.779787	0.559912
H255	H	-0.053392	0.279835	-0.059453
H256	H	0.446608	0.779835	0.440547
H257	H	-0.106739	0.307859	0.000226
H258	H	0.393261	0.807859	0.500226
C259	C	0.088655	0.233676	0.000016
C260	C	0.588655	0.733676	0.500016
C261	C	0.121193	0.279602	-0.000027
C262	C	0.621193	0.779602	0.499973
C263	C	0.084531	0.331248	-0.000114
C264	C	0.584531	0.831248	0.499886
H265	H	0.065173	0.235646	0.059674
H266	H	0.565173	0.735646	0.559674
H267	H	0.065199	0.235591	-0.059690
H268	H	0.565199	0.735591	0.440310
H269	H	0.144639	0.277687	0.059673
H270	H	0.644639	0.777687	0.559673
H271	H	0.144674	0.277651	-0.059680
H272	H	0.644674	0.777651	0.440320
H273	H	0.061076	0.333163	-0.059820
H274	H	0.561076	0.833163	0.440180
H275	H	0.061051	0.333212	0.059545
H276	H	0.561051	0.833212	0.559545
H277	H	0.106603	0.362414	-0.000153
H278	H	0.606603	0.862414	0.499847
C279	C	0.566499	-0.199712	0.000036
C280	C	1.066499	0.300288	0.500036
C281	C	0.521495	-0.154791	0.000008
C282	C	1.021495	0.345209	0.500008
C283	C	0.469145	-0.177292	-0.000085
C284	C	0.969145	0.322708	0.499915
H285	H	0.563975	-0.222593	0.059688
H286	H	1.063975	0.277407	0.559688
H287	H	0.564038	-0.222560	-0.059676
H288	H	1.064038	0.277440	0.440324
H289	H	0.523955	-0.131953	0.059715
H290	H	1.023955	0.368047	0.559715
H291	H	0.524001	-0.131906	-0.059639
H292	H	1.024001	0.368094	0.440361
H293	H	0.466684	-0.200140	-0.059798
H294	H	0.966684	0.299860	0.440202
H295	H	0.466626	-0.200173	0.059567
H296	H	0.966626	0.299827	0.559567
H297	H	0.438603	-0.146817	-0.000114
H298	H	0.938603	0.353183	0.499886
C299	C	0.132343	-0.086883	0.000248
C300	C	0.632343	0.413117	0.500248
C301	C	0.177271	-0.131881	0.000295
C302	C	0.677271	0.368119	0.500295
C303	C	0.154780	-0.184236	0.000393
C304	C	0.654780	0.315764	0.500393
H305	H	0.109472	-0.089411	-0.059407
H306	H	0.609472	0.410589	0.440593
H307	H	0.109485	-0.089350	0.059957
H308	H	0.609485	0.410650	0.559957
H309	H	0.200118	-0.129415	-0.059407
H310	H	0.700118	0.370585	0.440593
H311	H	0.200145	-0.129372	0.059947
H312	H	0.700145	0.370628	0.559947
H313	H	0.131923	-0.186703	0.060101
H314	H	0.631923	0.313297	0.560101
H315	H	0.131910	-0.186757	-0.059264
H316	H	0.631910	0.313243	0.440736
H317	H	0.185260	-0.214773	0.000435
H318	H	0.685260	0.285227	0.500435
H319	H	0.246123	-0.071339	0.000181
H320	H	0.746123	0.428661	0.500181
C321	C	0.398332	-0.031613	-0.000100
C322	C	0.898332	0.468387	0.499900
C323	C	0.364648	-0.035061	-0.088146
C324	C	0.864648	0.464939	0.411854
C325	C	0.341988	-0.087326	-0.088357
C326	C	0.841988	0.412674	0.411643
H327	H	0.375421	-0.034105	0.059516
H328	H	0.875421	0.465895	0.559516
H329	H	0.428725	-0.062238	-0.000153
H330	H	0.928725	0.437762	0.499847
H331	H	0.334259	-0.004444	-0.088083
H332	H	0.834259	0.495556	0.411917
H333	H	0.387546	-0.032578	-0.147776
H334	H	0.887546	0.467422	0.352224
H335	H	0.372381	-0.117952	-0.088411
H336	H	0.872381	0.382048	0.411589
H337	H	0.319079	-0.089814	-0.028738
H338	H	0.819079	0.410186	0.471262
H339	H	0.319135	-0.089674	-0.148100
H340	H	0.819135	0.410326	0.351900
H341	H	-0.167632	0.164421	0.000102
H342	H	0.332368	0.664421	0.500102
