data_functionalizedCrystal
_audit_creation_method	'MofGen! by Chris Wilmer'
_symmetry_space_group_name_H-M	'P1'
_symmetry_Int_Tables_number	1
_symmetry_cell_setting	triclinic
loop_
_symmetry_equiv_pos_as_xyz
  x,y,z
_cell_length_a	15.297475
_cell_length_b	15.299816
_cell_length_c	12.759393
_cell_angle_alpha	99.651000
_cell_angle_beta	80.311482
_cell_angle_gamma	72.651123
loop_
_atom_site_label
_atom_site_type_symbol
_atom_site_fract_x
_atom_site_fract_y
_atom_site_fract_z
Zn1	Zn	1.485950	-0.616464	-1.017398
Zn2	Zn	1.512742	-0.771947	-0.878473
Zn3	Zn	1.330417	-0.589561	-0.805008
Zn4	Zn	1.357279	-0.744945	-1.017379
O5	O	1.421597	-0.680729	-0.929565
O6	O	1.619656	-0.659649	-1.029723
O7	O	1.488527	-0.747795	-0.721709
O8	O	1.328595	-0.463031	-0.802444
O9	O	1.639341	-0.773881	-0.927656
O10	O	1.442863	-0.482796	-0.958486
O11	O	1.354574	-0.613796	-0.667734
O12	O	1.203828	-0.587613	-0.802426
O13	O	1.374377	-0.727860	-1.164400
O14	O	1.223563	-0.701773	-0.958454
O15	O	1.468910	-0.633466	-1.164414
O16	O	1.514574	-0.898464	-0.927637
O17	O	1.400356	-0.878626	-1.029691
C18	C	1.179949	-0.638845	-0.872467
C19	C	1.076575	-0.620949	-0.848070
C20	C	0.826448	-0.808642	-1.103934
C21	C	0.923574	-0.825463	-1.126855
C22	C	0.961829	-0.774336	-1.057161
C23	C	0.902948	-0.706385	-0.964542
C24	C	0.805813	-0.689567	-0.941615
C25	C	0.941194	-0.655261	-0.894841
C26	C	0.882313	-0.587310	-0.802222
C27	C	0.785187	-0.570495	-0.779300
C28	C	0.746932	-0.621622	-0.848994
C29	C	1.038329	-0.672078	-0.917769
C30	C	1.017694	-0.553004	-0.755449
C31	C	0.920568	-0.536183	-0.732529
C32	C	1.463313	-0.922282	-0.986663
C33	C	1.481244	-1.025635	-1.011145
C34	C	1.294050	-1.276143	-0.755087
C35	C	1.277198	-1.179038	-0.732087
C36	C	1.328208	-1.140682	-0.801849
C37	C	1.396073	-1.199442	-0.894617
C38	C	1.412921	-1.296556	-0.917624
C39	C	1.447080	-1.161095	-0.964386
C40	C	1.514944	-1.219854	-1.057154
C41	C	1.531790	-1.316958	-1.080157
C42	C	1.480780	-1.355314	-1.010394
C43	C	1.430231	-1.063981	-0.941378
C44	C	1.549102	-1.084393	-1.103915
C45	C	1.565954	-1.181498	-1.126916
C46	C	1.664189	-0.722778	-0.986886
C47	C	1.767567	-0.740697	-1.011313
C48	C	1.421651	-0.680652	-1.203593
C49	C	1.421674	-0.680619	-1.320368
C50	C	1.379744	-0.438237	-0.872272
C51	C	1.361909	-0.334902	-0.847857
C52	C	1.470901	-0.631459	-1.375238
C53	C	1.470910	-0.631422	-1.484956
C54	C	1.372464	-0.729712	-1.484927
C55	C	1.372451	-0.729743	-1.375208
C56	C	1.485238	-0.527496	-1.616854
C57	C	1.534480	-0.478347	-1.671732
C58	C	1.622765	-0.479815	-1.654203
C59	C	1.661828	-0.530450	-1.581805
C60	C	1.612592	-0.579607	-1.526934
C61	C	1.524291	-0.578118	-1.544455
C62	C	1.358132	-0.833672	-1.243311
C63	C	1.308901	-0.882835	-1.188441
C64	C	1.220616	-0.881376	-1.205970
C65	C	1.181559	-0.830758	-1.278377
C66	C	1.230791	-0.781595	-1.333247
C67	C	1.319074	-0.783053	-1.315710
C68	C	1.421585	-0.680748	-0.656599
C69	C	1.421697	-0.680550	-0.539805
H70	H	0.667845	-0.607928	-0.830338
H71	H	1.048841	-0.511373	-0.698697
H72	H	1.332391	-0.769709	-1.529592
H73	H	1.590637	-1.053165	-1.160724
H74	H	0.971509	-0.880791	-1.202263
H75	H	1.644399	-0.620836	-1.467993
H76	H	1.252521	-1.307381	-0.698301
H77	H	0.737250	-0.515174	-0.703875
H78	H	1.374975	-1.016147	-0.865846
H79	H	1.587046	-1.364798	-1.155698
H80	H	1.494500	-1.434385	-1.029114
H81	H	1.221943	-1.131199	-0.656557
H82	H	1.086261	-0.727404	-0.993180
H83	H	1.198982	-0.740379	-1.392203
H84	H	0.795291	-0.850268	-1.160664
H85	H	1.621210	-1.229354	-1.202449
H86	H	1.733722	-0.531649	-1.567548
H87	H	1.109672	-0.829573	-1.292652
H88	H	1.314484	-1.061614	-0.783115
H89	H	1.510979	-0.591456	-1.330589
H90	H	0.872613	-0.480856	-0.657117
H91	H	1.662858	-0.439796	-1.698893
H92	H	1.502666	-0.437119	-1.730678
H93	H	1.413345	-0.526286	-1.631124
H94	H	1.180539	-0.921418	-1.161294
H95	H	1.340715	-0.924060	-1.129495
H96	H	1.430019	-0.834858	-1.229026
H97	H	1.040914	-0.788035	-1.075829
