data_functionalizedCrystal
_audit_creation_method	'MofGen! by Chris Wilmer'
_symmetry_space_group_name_H-M	'P1'
_symmetry_Int_Tables_number	1
_symmetry_cell_setting	triclinic
loop_
_symmetry_equiv_pos_as_xyz
  x,y,z
_cell_length_a	8.597340
_cell_length_b	8.634740
_cell_length_c	7.088929
_cell_angle_alpha	82.809607
_cell_angle_beta	103.954719
_cell_angle_gamma	92.880213
loop_
_atom_site_label
_atom_site_type_symbol
_atom_site_fract_x
_atom_site_fract_y
_atom_site_fract_z
O1	O	2.133928	0.211732	0.192543
O2	O	1.673116	0.236900	0.116630
O3	O	1.881709	-0.000131	0.150997
O4	O	1.925335	0.448763	0.158175
O5	O	1.909575	-0.031879	0.473564
O6	O	1.700981	0.205152	0.439196
O7	O	2.161794	0.179984	0.515109
Cu8	Cu	1.933932	0.189669	0.506605
Cu9	Cu	1.900978	0.227215	0.125133
O10	O	1.953200	0.417015	0.480741
C11	C	1.627442	0.220092	0.268093
C12	C	1.449829	0.217290	0.238834
C13	C	1.885759	-0.073441	0.310650
C14	C	1.856291	-0.244584	0.305786
C15	C	2.207467	0.196793	0.363641
C16	C	2.385079	0.199596	0.392888
C17	C	1.949150	0.490326	0.321085
C18	C	1.978617	0.661470	0.325935
N19	N	1.957121	0.163260	0.774914
N20	N	1.877799	0.253612	-0.143174
H21	H	1.369377	0.230295	0.084540
C22	C	2.150563	-0.270323	0.354265
C23	C	2.249939	-0.291121	0.205519
C24	C	2.421888	-0.222904	0.233849
C25	C	2.494461	-0.133888	0.410925
C26	C	2.395084	-0.113086	0.559683
C27	C	2.223135	-0.181304	0.531353
H28	H	2.196217	-0.357019	0.074426
H29	H	2.495453	-0.238303	0.123728
H30	H	2.621748	-0.083389	0.431897
H31	H	2.448806	-0.047188	0.690776
H32	H	2.149570	-0.165905	0.641475
H33	H	1.795589	0.347242	0.761635
C34	C	1.493741	0.182020	0.601325
C35	C	1.485936	0.301194	0.743070
C36	C	1.594610	0.283619	0.951511
C37	C	1.711090	0.146869	1.018208
C38	C	1.718901	0.027685	0.876460
C39	C	1.610226	0.045261	0.668019
H40	H	1.399706	0.402434	0.693700
H41	H	1.588828	0.371847	1.056442
H42	H	1.791538	0.133858	1.172508
H43	H	1.805130	-0.073554	0.925830
H44	H	1.616009	-0.042968	0.563089
C45	C	1.684336	-0.312796	0.277455
C46	C	1.584961	-0.291995	0.426201
C47	C	1.413010	-0.360207	0.397871
C48	C	1.340433	-0.449221	0.220794
C49	C	1.439809	-0.470026	0.072036
C50	C	1.611760	-0.401814	0.100367
H51	H	1.638686	-0.226098	0.557295
H52	H	1.339446	-0.344805	0.507993
H53	H	1.213145	-0.499716	0.199822
H54	H	1.386084	-0.535923	-0.059057
H55	H	1.685324	-0.417216	-0.009755
H56	H	2.039350	0.069635	0.870118
