data_functionalizedCrystal
_audit_creation_method	'MofGen! by Chris Wilmer'
_symmetry_space_group_name_H-M	'P1'
_symmetry_Int_Tables_number	1
_symmetry_cell_setting	triclinic
loop_
_symmetry_equiv_pos_as_xyz
  x,y,z
_cell_length_a	16.109295
_cell_length_b	10.065875
_cell_length_c	16.109296
_cell_angle_alpha	98.793159
_cell_angle_beta	83.459379
_cell_angle_gamma	81.258551
loop_
_atom_site_label
_atom_site_type_symbol
_atom_site_fract_x
_atom_site_fract_y
_atom_site_fract_z
O1	O	-1.115289	0.113381	-0.094633
O2	O	-0.873228	0.113402	-0.107935
O3	O	-1.000912	0.113405	0.019749
O4	O	-0.987606	0.113378	-0.222317
O5	O	-0.976564	-0.113584	-0.004696
O6	O	-0.848881	-0.113588	-0.132380
O7	O	-1.090942	-0.113608	-0.119078
Zn8	Zn	-0.966046	-0.149638	-0.129610
Zn9	Zn	-0.998124	0.149431	-0.097403
O10	O	-0.963258	-0.113612	-0.246762
C11	C	-0.830080	-0.000090	-0.119619
C12	C	-0.737785	-0.000081	-0.118005
N13	N	-0.944159	-0.353744	-0.151591
C14	C	-0.515509	-0.000104	-0.190020
C15	C	-0.428787	-0.000112	-0.188498
C16	C	-0.448667	-0.000089	-0.037006
C17	C	-0.535386	-0.000091	-0.038530
C18	C	-0.568805	-0.000091	-0.115038
C19	C	-0.395365	-0.000098	-0.111993
C20	C	-0.301337	-0.000106	-0.110343
C21	C	-0.662838	-0.000085	-0.116689
C22	C	-0.990504	-0.421521	-0.105045
C23	C	-0.973666	-0.578689	-0.121968
C24	C	-0.134090	-0.000112	-0.107398
C25	C	-0.226384	-0.000108	-0.109026
C26	C	-0.988201	-0.000083	0.038502
C27	C	-0.986589	-0.000063	0.130800
N28	N	-1.020018	0.353537	-0.075416
C29	C	-0.994594	0.123652	0.443192
C30	C	-0.996122	0.123658	0.356473
C31	C	-0.969589	-0.123818	0.329807
C32	C	-0.968067	-0.123823	0.416525
C33	C	-0.980565	-0.000084	0.473216
C34	C	-0.983615	-0.000073	0.299778
C35	C	-0.985272	-0.000067	0.205753
C36	C	-0.978910	-0.000089	0.567247
C37	C	-0.975972	-0.000111	0.734487
C38	C	-0.977592	-0.000093	0.642194
H39	H	-0.542714	-0.000114	-0.252319
H40	H	-0.385396	-0.000125	-0.249556
H41	H	-0.421445	-0.000097	0.025284
H42	H	-0.578781	-0.000084	0.022533
H43	H	-1.007546	0.224416	0.332033
H44	H	-1.042645	-0.363196	-0.052663
F45	F	-0.905501	-0.654917	-0.190431
F46	F	-0.956284	-0.255502	0.269466
F47	F	-1.088318	-0.570238	-0.007087
F48	F	-0.875997	-0.429977	-0.220050
F49	F	-1.007899	0.255346	0.503524
H50	H	-0.956645	-0.224590	0.440970
