data_functionalizedCrystal
_audit_creation_method	'MofGen! by Chris Wilmer'
_symmetry_space_group_name_H-M	'P1'
_symmetry_Int_Tables_number	1
_symmetry_cell_setting	triclinic
loop_
_symmetry_equiv_pos_as_xyz
  x,y,z
_cell_length_a	10.489741
_cell_length_b	19.188930
_cell_length_c	8.965430
_cell_angle_alpha	89.995304
_cell_angle_beta	89.998843
_cell_angle_gamma	83.841978
loop_
_atom_site_label
_atom_site_type_symbol
_atom_site_fract_x
_atom_site_fract_y
_atom_site_fract_z
O1	O	1.691851	0.098497	-0.123966
O2	O	1.320449	0.107743	-0.123991
O3	O	1.516868	0.001536	-0.123949
O4	O	1.495432	0.204704	-0.124008
O5	O	1.516851	0.001543	0.124130
O6	O	1.320432	0.107750	0.124088
O7	O	1.691834	0.098504	0.124113
Cu8	Cu	1.506132	0.103128	0.146752
Cu9	Cu	1.506151	0.103120	-0.146630
O10	O	1.495415	0.204711	0.124070
C11	C	1.272924	0.107048	0.000046
C12	C	1.131341	0.104959	0.000037
C13	C	1.064712	0.037383	0.000071
C14	C	0.971880	0.069302	-0.122251
C15	C	0.971897	0.069325	0.122336
C16	C	1.040374	0.136906	-0.122386
C17	C	1.040401	0.136919	0.122310
C18	C	0.947595	0.168887	-0.000041
C19	C	1.516165	-0.024476	0.000095
C20	C	1.514081	-0.101994	0.000108
C21	C	1.629334	-0.146146	0.000123
C22	C	1.627376	-0.218983	0.000099
C23	C	1.510159	-0.247665	0.000090
C24	C	1.394892	-0.203503	0.000066
C25	C	1.396853	-0.130668	0.000075
N26	N	1.420556	-0.356268	0.084510
N27	N	1.418701	-0.425459	0.084504
C28	C	1.504244	-0.467113	0.000059
N29	N	1.591732	-0.436964	-0.084362
N30	N	1.593591	-0.367767	-0.084350
C31	C	1.508020	-0.326642	0.000079
C32	C	1.617382	-0.590244	0.000046
C33	C	1.615419	-0.663081	0.000012
C34	C	1.382932	-0.647600	-0.000005
C35	C	1.384898	-0.574764	0.000013
C36	C	1.502126	-0.546090	0.000046
C37	C	1.739359	0.099199	0.000073
C38	C	1.880941	0.101288	0.000071
C39	C	1.496118	0.230723	0.000023
C40	C	1.498202	0.308242	0.000001
N41	N	1.506127	0.103133	0.353101
N42	N	1.506166	0.103109	-0.352979
C43	C	1.415262	0.152234	0.450387
C44	C	1.530443	0.166361	0.549804
C45	C	1.390995	0.089012	0.549812
C46	C	1.621366	0.117292	0.450329
C47	C	1.481842	0.039916	0.450328
C48	C	1.597106	0.054016	0.549700
H49	H	1.070570	0.165474	-0.225917
O50	O	0.887078	0.235214	0.000130
C51	C	0.810560	0.245489	0.129186
H52	H	0.848804	0.206700	0.219025
H53	H	0.813563	0.301271	0.171743
H54	H	0.707440	0.236806	0.101148
H55	H	1.070801	0.165492	0.225715
O56	O	1.743240	-0.118329	-0.000123
C57	C	1.813499	-0.140846	-0.128579
H58	H	1.744953	-0.156332	-0.218391
H59	H	1.867526	-0.096458	-0.171696
H60	H	1.884830	-0.187953	-0.099525
O61	O	1.323543	0.201720	0.398277
C62	C	1.234445	0.169268	0.311757
H63	H	1.236817	0.111881	0.345630
H64	H	1.134122	0.196958	0.331005
H65	H	1.260346	0.172726	0.188678
O66	O	1.555195	0.230074	0.602026
C67	C	1.668086	0.222303	0.688513
H68	H	1.729343	0.172140	0.654541
H69	H	1.724306	0.269163	0.669337
H70	H	1.641898	0.219324	0.811592
H71	H	0.941552	0.040722	0.225750
H72	H	1.721231	-0.254938	0.000105
H73	H	1.299453	-0.226861	0.000056
O74	O	1.274767	0.074729	0.601689
C75	C	1.192853	0.065398	0.480298
H76	H	1.252764	0.049967	0.377050
H77	H	1.129912	0.022252	0.507846
H78	H	1.129644	0.116428	0.457837
O79	O	1.125389	-0.028909	-0.000320
C80	C	1.090676	-0.064284	-0.129502
H81	H	1.057048	-0.024373	-0.219197
H82	H	1.177114	-0.099760	-0.172189
H83	H	1.009801	-0.097324	-0.101580
H84	H	1.302998	-0.094719	0.000064
O85	O	1.731281	-0.562416	-0.000211
C86	C	1.801530	-0.584924	-0.128680
H87	H	1.732979	-0.600413	-0.218484
H88	H	1.855541	-0.540530	-0.171801
H89	H	1.872875	-0.632028	-0.099642
H90	H	1.709275	-0.699030	0.000016
H91	H	0.941512	0.040706	-0.225651
O92	O	1.737571	0.131718	0.398649
C93	C	1.763151	0.198163	0.450580
H94	H	1.704538	0.212009	0.555569
H95	H	1.869596	0.197034	0.477340
H96	H	1.736005	0.239173	0.360828
O97	O	1.689056	0.004540	0.601339
C98	C	1.810222	0.019671	0.550342
H99	H	1.806247	0.077841	0.522590
H100	H	1.884877	0.005983	0.641060
H101	H	1.837521	-0.012576	0.446141
H102	H	1.461239	-0.013519	0.406599
O103	O	1.269178	-0.675568	0.000045
C104	C	1.292158	-0.749323	-0.000007
H105	H	1.391782	-0.765927	0.046972
H106	H	1.217167	-0.772068	0.071998
H107	H	1.286106	-0.769615	-0.119030
H108	H	1.291047	-0.538814	0.000010
