data_functionalizedCrystal
_audit_creation_method	'MofGen! by Chris Wilmer'
_symmetry_space_group_name_H-M	'P1'
_symmetry_Int_Tables_number	1
_symmetry_cell_setting	triclinic
loop_
_symmetry_equiv_pos_as_xyz
  x,y,z
_cell_length_a	10.967874
_cell_length_b	9.730217
_cell_length_c	11.026607
_cell_angle_alpha	89.996940
_cell_angle_beta	83.619819
_cell_angle_gamma	102.132411
loop_
_atom_site_label
_atom_site_type_symbol
_atom_site_fract_x
_atom_site_fract_y
_atom_site_fract_z
O1	O	1.694013	0.515486	-0.170530
O2	O	1.334379	0.430314	-0.186850
O3	O	1.484390	0.465836	-0.001789
O4	O	1.544002	0.479964	-0.355591
O5	O	1.484375	0.237252	-0.001781
O6	O	1.334364	0.201731	-0.186843
O7	O	1.693998	0.286902	-0.170522
Zn8	Zn	1.514178	0.208024	-0.178681
Zn9	Zn	1.514198	0.509193	-0.178691
O10	O	1.543987	0.251380	-0.355584
C11	C	1.287615	0.304949	-0.185658
C12	C	1.148292	0.271954	-0.182104
N13	N	1.514174	0.002486	-0.178674
C14	C	1.086185	0.375657	-0.180523
C15	C	0.942188	0.341557	-0.176849
C16	C	1.329403	-0.041333	-0.029833
C17	C	1.237031	-0.135180	0.044590
C18	C	1.237049	-0.279055	0.044590
C19	C	1.329448	-0.329085	-0.029844
C20	C	1.421820	-0.235239	-0.104266
C21	C	1.421794	-0.091362	-0.104256
C22	C	1.606583	-0.191422	-0.253112
C23	C	1.606572	-0.047544	-0.253107
C24	C	1.698982	-0.241452	-0.327545
C25	C	1.791362	-0.147604	-0.401964
C26	C	1.791340	-0.003720	-0.401960
C27	C	1.698944	0.046302	-0.327530
C28	C	1.740762	0.412270	-0.171714
C29	C	1.880085	0.445274	-0.175269
C30	C	1.473385	0.348941	0.043517
C31	C	1.440601	0.341182	0.178505
N32	N	1.514211	0.714732	-0.178689
C33	C	1.554992	0.368278	-0.400890
C34	C	1.587775	0.376046	-0.535877
C35	C	1.531122	0.362622	0.251556
C36	C	1.497241	0.354603	0.391073
H37	H	1.139620	0.489685	-0.181896
H38	H	0.933513	0.559312	-0.176643
C39	C	1.076826	0.119992	-0.180210
C40	C	0.948205	0.116381	-0.176898
C41	C	0.882333	-0.023585	-0.175133
H42	H	1.104444	0.075199	-0.251502
H43	H	1.091758	0.072292	-0.109947
H44	H	0.933280	0.164060	-0.247154
H45	H	0.920550	0.161144	-0.105610
H46	H	0.897266	-0.071285	-0.104870
H47	H	0.909962	-0.068366	-0.246427
H48	H	0.795057	-0.026054	-0.172875
H49	H	1.329386	0.075817	-0.029817
H50	H	1.161800	-0.094429	0.105190
C51	C	1.136949	-0.381083	0.125470
C52	C	1.194292	-0.450120	0.207100
C53	C	1.102121	-0.544130	0.281613
H54	H	1.081868	-0.330855	0.169912
H55	H	1.090618	-0.448272	0.076194
H56	H	1.240601	-0.382941	0.256370
H57	H	1.249365	-0.500375	0.162692
H58	H	1.055790	-0.611320	0.232337
H59	H	1.047045	-0.493891	0.326047
H60	H	1.141015	-0.590993	0.337000
C61	C	1.891600	-0.202188	-0.482639
C62	C	1.871856	-0.348271	-0.466696
C63	C	1.964183	-0.398605	-0.540981
H64	H	1.887132	-0.179824	-0.565663
H65	H	1.972098	-0.159615	-0.460800
H66	H	1.791378	-0.390829	-0.488542
H67	H	1.876336	-0.370673	-0.383687
H68	H	2.044681	-0.356032	-0.519142
H69	H	1.959707	-0.376231	-0.624001
H70	H	1.950806	-0.497724	-0.530165
C71	C	1.891776	0.097951	-0.482806
C72	C	1.972706	0.023338	-0.547963
C73	C	2.065253	0.116948	-0.622440
H74	H	1.853249	0.144957	-0.538399
H75	H	1.938203	0.165050	-0.433526
H76	H	1.926285	-0.043735	-0.597240
H77	H	2.011263	-0.023663	-0.492402
H78	H	2.111679	0.184046	-0.573160
H79	H	2.026715	0.163948	-0.678025
H80	H	2.120181	0.066338	-0.666650
C81	C	1.360501	0.322438	0.445549
C82	C	1.336464	0.434332	0.517605
C83	C	1.210521	0.404745	0.567822
H84	H	1.307965	0.310064	0.381753
H85	H	1.343915	0.238843	0.494555
H86	H	1.353037	0.517903	0.468602
H87	H	1.388968	0.446723	0.581421
H88	H	1.193935	0.321150	0.616828
H89	H	1.157997	0.392370	0.504018
H90	H	1.194199	0.480653	0.616727
H91	H	0.888759	0.227521	-0.175490
H92	H	1.329445	-0.446240	-0.029848
C93	C	1.667834	0.394927	0.197006
C94	C	1.674260	0.396411	0.069471
C95	C	1.800180	0.426146	0.019182
H96	H	1.708419	0.484227	0.223160
H97	H	1.708305	0.324767	0.223238
H98	H	1.633806	0.466566	0.043250
H99	H	1.633701	0.307123	0.043283
H100	H	1.840651	0.355987	0.045414
H101	H	1.840754	0.515445	0.045345
H102	H	1.804556	0.427145	-0.067355
H103	H	1.698985	-0.358606	-0.327546
H104	H	1.698921	0.163451	-0.327517
H105	H	1.690364	0.400445	0.423384
H106	H	1.338020	0.316897	0.219250
