data_functionalizedCrystal
_audit_creation_method	'MofGen! by Chris Wilmer'
_symmetry_space_group_name_H-M	'P1'
_symmetry_Int_Tables_number	1
_symmetry_cell_setting	triclinic
loop_
_symmetry_equiv_pos_as_xyz
  x,y,z
_cell_length_a	19.077105
_cell_length_b	16.120444
_cell_length_c	19.076919
_cell_angle_alpha	84.952692
_cell_angle_beta	89.923776
_cell_angle_gamma	90.739589
loop_
_atom_site_label
_atom_site_type_symbol
_atom_site_fract_x
_atom_site_fract_y
_atom_site_fract_z
Zn1	Zn	1.040330	-0.403263	0.456946
Zn2	Zn	1.540330	0.096737	0.956946
Zn3	Zn	1.039008	-0.537289	0.344933
Zn4	Zn	1.539008	-0.037289	0.844933
Zn5	Zn	0.928045	-0.392097	0.334282
Zn6	Zn	1.428045	0.107903	0.834282
Zn7	Zn	0.916852	-0.536786	0.457665
Zn8	Zn	1.416852	-0.036786	0.957665
O9	O	0.981059	-0.467359	0.398456
O10	O	1.481059	0.032641	0.898456
O11	O	1.138270	-0.425926	0.446244
O12	O	1.638270	0.074074	0.946244
O13	O	1.028419	-0.513566	0.245006
O14	O	1.528419	-0.013566	0.745006
O15	O	0.948178	-0.276935	0.345795
O16	O	1.448178	0.223065	0.845795
O17	O	1.137298	-0.524394	0.363948
O18	O	1.637298	-0.024394	0.863948
O19	O	1.030673	-0.285139	0.435916
O20	O	1.530673	0.214861	0.935916
O21	O	0.946895	-0.406894	0.237181
O22	O	1.446895	0.093106	0.737181
O23	O	0.828446	-0.406406	0.346492
O24	O	1.328446	0.093594	0.846492
O25	O	0.929101	-0.523537	0.556084
O26	O	1.429101	-0.023537	1.056084
O27	O	0.820222	-0.512709	0.437141
O28	O	1.320222	-0.012709	0.937141
O29	O	1.019820	-0.425438	0.555556
O30	O	1.519820	0.074562	1.055556
O31	O	1.017566	-0.653865	0.364645
O32	O	1.517566	-0.153865	0.864645
O33	O	0.927819	-0.653496	0.447469
O34	O	1.427819	-0.153496	0.947469
C35	C	0.798894	-0.458292	0.390739
C36	C	1.298894	0.041708	0.890739
C37	C	0.720961	-0.454434	0.387455
C38	C	1.220961	0.045566	0.887455
C39	C	0.680085	-0.508045	0.433041
C40	C	1.180085	-0.008045	0.933041
C41	C	0.606859	-0.504409	0.429958
C42	C	1.106859	-0.004409	0.929958
C43	C	0.574512	-0.447166	0.381286
C44	C	1.074512	0.052834	0.881286
C45	C	0.615394	-0.393550	0.335698
C46	C	1.115394	0.106450	0.835698
C47	C	0.688618	-0.397182	0.338785
C48	C	1.188618	0.102818	0.838785
C49	C	0.355972	-0.430356	0.367004
C50	C	0.855972	0.069644	0.867004
C51	C	0.282743	-0.426729	0.363920
C52	C	0.782743	0.073271	0.863920
C53	C	0.274213	-0.537589	0.458181
C54	C	0.774213	-0.037589	0.958181
C55	C	0.347439	-0.541219	0.461261
C56	C	0.847439	-0.041219	0.961261
C57	C	0.388315	-0.487600	0.415675
C58	C	0.888315	0.012400	0.915675
N59	N	0.499664	-0.443450	0.378132
N60	N	0.999664	0.056550	0.878132
N61	N	0.463162	-0.491312	0.418833
N62	N	0.963162	0.008688	0.918833
C63	C	0.971353	-0.683927	0.407307
C64	C	1.471353	-0.183927	0.907307
C65	C	0.967263	-0.776580	0.411119
C66	C	1.467263	-0.276580	0.911119
C67	C	1.002437	-0.987660	0.378838
C68	C	1.502437	-0.487660	0.878838
C69	C	0.959810	-0.946213	0.418087
C70	C	1.459810	-0.446213	0.918087
C71	C	0.963958	-0.851820	0.414209
C72	C	1.463958	-0.351820	0.914209
C73	C	0.998290	-1.082061	0.382716
C74	C	1.498290	-0.582061	0.882716
C75	C	1.163935	-0.476461	0.406204
C76	C	1.663935	0.023539	0.906204
C77	C	1.241866	-0.480340	0.409506
C78	C	1.741866	0.019660	0.909506
C79	C	0.973359	-0.475677	0.582077
C80	C	1.473359	0.024323	1.082077
C81	C	0.970078	-0.479222	0.660326
C82	C	1.470078	0.020778	1.160326
C83	C	0.990822	-0.249947	0.389588
C84	C	1.490822	0.250053	0.889588
C85	C	0.994982	-0.157299	0.385808
C86	C	1.494982	0.342701	0.885808
C87	C	0.988772	-0.459015	0.215549
C88	C	1.488772	0.040985	0.715549
C89	C	0.992199	-0.455242	0.137297
C90	C	1.492199	0.044758	0.637297
C91	C	1.015767	-0.429815	0.696813
C92	C	1.515767	0.070185	1.196813
C93	C	1.012676	-0.433142	0.770336
C94	C	1.512676	0.066858	1.270336
C95	C	0.963899	-0.485881	0.807369
C96	C	1.463899	0.014119	1.307369
C97	C	0.918205	-0.535290	0.770876
C98	C	1.418205	-0.035290	1.270876
C99	C	0.921294	-0.531958	0.697355
C100	C	1.421294	-0.031958	1.197355
C101	C	0.949594	-0.501319	1.027283
C102	C	1.449594	-0.001319	1.527283
C103	C	0.946510	-0.504649	1.100809
C104	C	1.446510	-0.004649	1.600809
C105	C	1.040980	-0.402499	1.100263
C106	C	1.540980	0.097501	1.600263
C107	C	1.044067	-0.399176	1.026741
C108	C	1.544067	0.100824	1.526741
C109	C	0.998371	-0.448581	0.990255
C110	C	1.498371	0.051419	1.490255
N111	N	0.960739	-0.489285	0.882521
N112	N	1.460739	0.010715	1.382521
N113	N	1.001528	-0.445172	0.915104
N114	N	1.501528	0.054828	1.415104
H115	H	0.573580	-0.548066	0.467078
H116	H	1.073580	-0.048066	0.967078
H117	H	0.912395	-0.541561	0.997585
H118	H	1.412395	-0.041561	1.497585
H119	H	0.884082	-0.572182	0.667647
H120	H	1.384082	-0.072182	1.167647
C121	C	0.776384	-0.288686	0.328045
C122	C	1.276384	0.211314	0.828045
C123	C	0.733550	-0.338251	0.288673
C124	C	1.233550	0.161749	0.788673
H125	H	0.804118	-0.252299	0.297107
H126	H	1.304118	0.247701	0.797107
H127	H	0.806126	-0.323296	0.357466
H128	H	1.306126	0.176704	0.857466
H129	H	0.747953	-0.256837	0.356255
H130	H	1.247953	0.243163	0.856255
H131	H	0.761980	-0.370105	0.260467
H132	H	1.261980	0.129895	0.760467
H133	H	0.703805	-0.303637	0.259240
H134	H	1.203805	0.196363	0.759240
H135	H	1.055489	-0.386871	0.666666
H136	H	1.555489	0.113129	1.166666
C137	C	0.664292	-0.617250	0.525910
C138	C	1.164292	-0.117250	1.025910
C139	C	0.715638	-0.570967	0.486546
C140	C	1.215638	-0.070967	0.986546
H141	H	0.686241	-0.656091	0.558946
H142	H	1.186241	-0.156091	1.058946
H143	H	0.635590	-0.646270	0.495291
H144	H	1.135590	-0.146270	0.995291
H145	H	0.636229	-0.580777	0.550198
H146	H	1.136229	-0.080777	1.050198
H147	H	0.743698	-0.607440	0.462254
H148	H	1.243698	-0.107440	0.962254
H149	H	0.744351	-0.541945	0.517169
H150	H	1.244351	-0.041945	1.017169
C151	C	0.204852	-0.406564	0.265301
C152	C	0.704852	0.093436	0.765301
C153	C	0.247174	-0.363789	0.310435
C154	C	0.747174	0.136211	0.810435
H155	H	0.182894	-0.367706	0.232287
H156	H	0.682894	0.132294	0.732287
H157	H	0.170041	-0.437982	0.292010
H158	H	0.670041	0.062018	0.792010
H159	H	0.232924	-0.443005	0.240989
H160	H	0.732924	0.056995	0.740989
H161	H	0.219102	-0.327352	0.334752
H162	H	0.719102	0.172648	0.834752
H163	H	0.281990	-0.332356	0.283724
H164	H	0.781990	0.167644	0.783724
C165	C	0.600595	-0.249675	0.294885
C166	C	1.100595	0.250325	0.794885
C167	C	0.579841	-0.330623	0.282197
C168	C	1.079841	0.169377	0.782197
H169	H	0.578644	-0.210828	0.261856
H170	H	1.078644	0.289172	0.761856
H171	H	0.650049	-0.244172	0.290199
H172	H	1.150049	0.255828	0.790199
H173	H	0.587157	-0.239124	0.341204
H174	H	1.087157	0.260876	0.841204
H175	H	0.593284	-0.341177	0.235881
H176	H	1.093284	0.158823	0.735881
H177	H	0.530376	-0.336129	0.286878
H178	H	1.030376	0.163871	0.786878
H179	H	1.042044	-0.952255	0.342324
H180	H	1.542044	-0.452255	0.842324
C181	C	0.357037	-0.320413	0.273524
C182	C	0.857037	0.179587	0.773524
C183	C	0.400896	-0.371419	0.316897
C184	C	0.900896	0.128581	0.816897
H185	H	0.384776	-0.284030	0.242587
H186	H	0.884776	0.215970	0.742587
H187	H	0.328620	-0.288569	0.301738
H188	H	0.828620	0.211431	0.801738
H189	H	0.327980	-0.354052	0.246823
H190	H	0.827980	0.145948	0.746823
H191	H	0.429950	-0.337780	0.343602
H192	H	0.929950	0.162220	0.843602
H193	H	0.429326	-0.403266	0.288679
H194	H	0.929326	0.096734	0.788679
C195	C	1.142346	-0.388492	0.947554
C196	C	1.642346	0.111508	1.447554
C197	C	1.097654	-0.341178	0.986017
C198	C	1.597654	0.158822	1.486017
H199	H	1.175423	-0.352680	0.922411
H200	H	1.675423	0.147320	1.422411
H201	H	1.115575	-0.417452	0.915317
H202	H	1.615575	0.082548	1.415317
H203	H	1.166358	-0.427423	0.978851
H204	H	1.666358	0.072577	1.478851
H205	H	1.073638	-0.302251	0.954719
H206	H	1.573638	0.197749	1.454719
H207	H	1.124429	-0.312204	1.018257
H208	H	1.624429	0.187796	1.518257
C209	C	0.871527	-0.585759	0.883820
C210	C	1.371527	-0.085759	1.383820
C211	C	0.864588	-0.593262	0.811582
C212	C	1.364588	-0.093262	1.311582
H213	H	0.838428	-0.621555	0.908948
H214	H	1.338428	-0.121555	1.408948
H215	H	0.863273	-0.529796	0.893147
H216	H	1.363273	-0.029796	1.393147
H217	H	0.917584	-0.600851	0.898358
H218	H	1.417584	-0.100851	1.398358
H219	H	0.818532	-0.578164	0.797044
H220	H	1.318532	-0.078164	1.297044
H221	H	0.872836	-0.649238	0.802251
H222	H	1.372836	-0.149238	1.302251
H223	H	0.373771	-0.587834	0.500893
H224	H	0.873771	-0.087834	1.000893
H225	H	1.049882	-0.392911	0.800041
H226	H	1.549882	0.107089	1.300041
C227	C	1.080520	-0.264082	1.118585
C228	C	1.580520	0.235918	1.618585
C229	C	1.091203	-0.348187	1.140369
C230	C	1.591203	0.151813	1.640369
H231	H	1.111529	-0.230550	1.143341
H232	H	1.611529	0.269450	1.643341
H233	H	1.033459	-0.250092	1.128142
H234	H	1.533459	0.249908	1.628142
H235	H	1.089340	-0.254563	1.069497
H236	H	1.589340	0.245437	1.569497
H237	H	1.082378	-0.357707	1.189455
H238	H	1.582378	0.142293	1.689455
H239	H	1.138275	-0.362181	1.130817
H240	H	1.638275	0.137819	1.630817
H241	H	0.920200	-0.981622	0.454603
H242	H	1.420200	-0.481622	0.954603
C243	C	0.853428	-0.605280	1.093967
C244	C	1.353428	-0.105280	1.593967
C245	C	0.892887	-0.562621	1.141518
C246	C	1.392887	-0.062621	1.641518
H247	H	0.820324	-0.641064	1.119101
H248	H	1.320324	-0.141064	1.619101
H249	H	0.883744	-0.637386	1.067887
H250	H	1.383744	-0.137386	1.567887
H251	H	0.829446	-0.566318	1.062673
H252	H	1.329446	-0.066318	1.562673
H253	H	0.916874	-0.601583	1.172810
H254	H	1.416874	-0.101583	1.672810
H255	H	0.862568	-0.530512	1.167610
H256	H	1.362568	-0.030512	1.667610
H257	H	0.240925	-0.581241	0.495295
H258	H	0.740925	-0.081241	0.995295
