data_functionalizedCrystal
_audit_creation_method	'MofGen! by Chris Wilmer'
_symmetry_space_group_name_H-M	'P1'
_symmetry_Int_Tables_number	1
_symmetry_cell_setting	triclinic
loop_
_symmetry_equiv_pos_as_xyz
  x,y,z
_cell_length_a	10.489741
_cell_length_b	11.792241
_cell_length_c	10.268362
_cell_angle_alpha	90.005428
_cell_angle_beta	90.001881
_cell_angle_gamma	84.366295
loop_
_atom_site_label
_atom_site_type_symbol
_atom_site_fract_x
_atom_site_fract_y
_atom_site_fract_z
O1	O	-1.693508	-0.160138	-0.108220
O2	O	-1.322261	-0.175169	-0.108241
O3	O	-1.516894	-0.002507	-0.108221
O4	O	-1.498876	-0.332799	-0.108240
O5	O	-1.516877	-0.002500	0.108380
O6	O	-1.322244	-0.175162	0.108360
O7	O	-1.693491	-0.160130	0.108380
Cu8	Cu	-1.507866	-0.167645	0.128148
Cu9	Cu	-1.507886	-0.167654	-0.128008
O10	O	-1.498858	-0.332792	0.108361
C11	C	-1.274725	-0.174030	0.000057
C12	C	-1.133107	-0.170633	0.000050
C13	C	-1.515753	0.039791	0.000079
C14	C	-1.512366	0.165813	0.000078
C15	C	-1.741027	-0.161269	0.000080
C16	C	-1.882645	-0.164666	0.000079
C17	C	-1.065341	-0.060774	0.000068
C18	C	-0.973046	-0.112674	-0.106727
C19	C	-0.973063	-0.112693	0.106824
C20	C	-1.042677	-0.222579	-0.106834
C21	C	-1.042704	-0.222583	0.106813
C22	C	-0.950436	-0.274563	-0.000009
C23	C	-1.499999	-0.375090	0.000058
C24	C	-1.503387	-0.501113	0.000051
N25	N	-1.507861	-0.167639	0.308313
C26	C	-1.506136	0.396542	0.000055
C27	C	-1.509598	0.268148	0.000067
N28	N	-1.507901	-0.167652	-0.308174
C29	C	-1.507880	-0.167652	0.573984
C30	C	-1.507865	-0.167648	0.426146
H31	H	-1.115339	0.029538	-0.000060
H32	H	-1.073584	-0.269026	0.197101
O33	O	-0.932235	-0.051107	0.226434
H34	H	-0.978707	0.037610	0.226204
O35	O	-1.083322	-0.284069	-0.226588
H36	H	-1.131756	-0.359487	-0.196708
H37	H	-0.900704	-0.364970	-0.000072
O38	O	-0.932157	-0.051112	-0.226313
H39	H	-0.978598	0.037615	-0.226089
