data_functionalizedCrystal
_audit_creation_method	'MofGen! by Chris Wilmer'
_symmetry_space_group_name_H-M	'P1'
_symmetry_Int_Tables_number	1
_symmetry_cell_setting	triclinic
loop_
_symmetry_equiv_pos_as_xyz
  x,y,z
_cell_length_a	18.215407
_cell_length_b	16.625546
_cell_length_c	18.215399
_cell_angle_alpha	89.970824
_cell_angle_beta	89.982632
_cell_angle_gamma	90.019912
loop_
_atom_site_label
_atom_site_type_symbol
_atom_site_fract_x
_atom_site_fract_y
_atom_site_fract_z
Zn1	Zn	1.125084	-0.321065	-0.416061
Zn2	Zn	1.375084	-0.071065	-0.166061
Zn3	Zn	1.625084	0.178935	0.083939
Zn4	Zn	1.875084	0.428935	0.333939
Zn5	Zn	1.124998	-0.455905	-0.292992
Zn6	Zn	1.374998	-0.205905	-0.042992
Zn7	Zn	1.624998	0.044095	0.207008
Zn8	Zn	1.874998	0.294095	0.457008
Zn9	Zn	1.002017	-0.321084	-0.293014
Zn10	Zn	1.252017	-0.071084	-0.043014
Zn11	Zn	1.502017	0.178916	0.206986
Zn12	Zn	1.752017	0.428916	0.456986
Zn13	Zn	1.001988	-0.455853	-0.416022
Zn14	Zn	1.251988	-0.205853	-0.166022
Zn15	Zn	1.501988	0.044147	0.083978
Zn16	Zn	1.751988	0.294147	0.333978
O17	O	1.063522	-0.388477	-0.354522
O18	O	1.313522	-0.138477	-0.104522
O19	O	1.563522	0.111523	0.145478
O20	O	1.813522	0.361523	0.395478
O21	O	1.228057	-0.338965	-0.399743
O22	O	1.478057	-0.088965	-0.149743
O23	O	1.728057	0.161035	0.100257
O24	O	1.978057	0.411035	0.350257
O25	O	1.108660	-0.438051	-0.190011
O26	O	1.358660	-0.188051	0.059989
O27	O	1.608660	0.061949	0.309989
O28	O	1.858660	0.311949	0.559989
O29	O	1.018390	-0.208249	-0.309362
O30	O	1.268390	0.041751	-0.059362
O31	O	1.518390	0.291751	0.190638
O32	O	1.768390	0.541751	0.440638
O33	O	1.227994	-0.438032	-0.309325
O34	O	1.477994	-0.188032	-0.059325
O35	O	1.727994	0.061968	0.190675
O36	O	1.977994	0.311968	0.440675
O37	O	1.108807	-0.208235	-0.399764
O38	O	1.358807	0.041765	-0.149764
O39	O	1.608807	0.291765	0.100236
O40	O	1.858807	0.541765	0.350236
O41	O	1.018306	-0.338998	-0.190027
O42	O	1.268306	-0.088998	0.059973
O43	O	1.518306	0.161002	0.309973
O44	O	1.768306	0.411002	0.559973
O45	O	0.899029	-0.338948	-0.309324
O46	O	1.149029	-0.088948	-0.059324
O47	O	1.399029	0.161052	0.190676
O48	O	1.649029	0.411052	0.440676
O49	O	1.018341	-0.437943	-0.519012
O50	O	1.268341	-0.187943	-0.269012
O51	O	1.518341	0.062057	-0.019012
O52	O	1.768341	0.312057	0.230988
O53	O	0.899008	-0.437962	-0.399698
O54	O	1.149008	-0.187962	-0.149698
O55	O	1.399008	0.062038	0.100302
O56	O	1.649008	0.312038	0.350302
O57	O	1.108779	-0.338915	-0.519040
O58	O	1.358779	-0.088915	-0.269040
O59	O	1.608779	0.161085	-0.019040
O60	O	1.858779	0.411085	0.230960
O61	O	1.108632	-0.568731	-0.309287
O62	O	1.358632	-0.318731	-0.059287
O63	O	1.608632	-0.068731	0.190713
O64	O	1.858632	0.181269	0.440713
O65	O	1.018257	-0.568693	-0.399677
O66	O	1.268257	-0.318693	-0.149677
O67	O	1.518257	-0.068693	0.100323
O68	O	1.768257	0.181307	0.350323
C69	C	0.872315	-0.388452	-0.354510
C70	C	1.122315	-0.138452	-0.104510
C71	C	1.372315	0.111548	0.145490
C72	C	1.622315	0.361548	0.395490
C73	C	0.790517	-0.388461	-0.354521
C74	C	1.040517	-0.138461	-0.104521
C75	C	1.290517	0.111539	0.145479
C76	C	1.540517	0.361539	0.395479
C77	C	0.602355	-0.336983	-0.401677
C78	C	0.852355	-0.086983	-0.151677
C79	C	1.102355	0.163017	0.098323
C80	C	1.352355	0.413017	0.348323
C81	C	0.525496	-0.336990	-0.401679
C82	C	0.775496	-0.086990	-0.151679
C83	C	1.025496	0.163010	0.098321
C84	C	1.275496	0.413010	0.348321
C85	C	0.525441	-0.439993	-0.307381
C86	C	0.775441	-0.189993	-0.057381
C87	C	1.025441	0.060007	0.192619
C88	C	1.275441	0.310007	0.442619
C89	C	0.602298	-0.439982	-0.307376
C90	C	0.852298	-0.189982	-0.057376
C91	C	1.102298	0.060018	0.192624
C92	C	1.352298	0.310018	0.442624
C93	C	0.640753	-0.388478	-0.354527
C94	C	0.890753	-0.138478	-0.104527
C95	C	1.140753	0.111522	0.145473
C96	C	1.390753	0.361522	0.395473
C97	C	0.487037	-0.388496	-0.354536
C98	C	0.737037	-0.138496	-0.104536
C99	C	0.987037	0.111504	0.145464
C100	C	1.237037	0.361504	0.395464
C101	C	0.403703	-0.388504	-0.354538
C102	C	0.653703	-0.138504	-0.104538
C103	C	0.903703	0.111496	0.145462
C104	C	1.153703	0.361496	0.395462
C105	C	0.724092	-0.388469	-0.354524
C106	C	0.974092	-0.138469	-0.104524
C107	C	1.224092	0.111531	0.145476
C108	C	1.474092	0.361531	0.395476
C109	C	1.063452	-0.597968	-0.354492
C110	C	1.313452	-0.347968	-0.104492
C111	C	1.563452	-0.097968	0.145508
C112	C	1.813452	0.152032	0.395508
C113	C	1.063490	-0.687589	-0.354503
C114	C	1.313490	-0.437589	-0.104503
C115	C	1.563490	-0.187589	0.145497
C116	C	1.813490	0.062411	0.395497
C117	C	1.063618	-1.015764	-0.354580
C118	C	1.313618	-0.765764	-0.104580
C119	C	1.563618	-0.515764	0.145420
C120	C	1.813618	-0.265764	0.395420
C121	C	1.063580	-0.924456	-0.354560
C122	C	1.313580	-0.674456	-0.104560
C123	C	1.563580	-0.424456	0.145440
C124	C	1.813580	-0.174456	0.395440
C125	C	1.063553	-0.851680	-0.354541
C126	C	1.313553	-0.601680	-0.104541
C127	C	1.563553	-0.351680	0.145459
C128	C	1.813553	-0.101680	0.395459
C129	C	1.063516	-0.760365	-0.354522
C130	C	1.313516	-0.510365	-0.104522
C131	C	1.563516	-0.260365	0.145478
C132	C	1.813516	-0.010365	0.395478
C133	C	1.255475	-0.388502	-0.354536
C134	C	1.505475	-0.138502	-0.104536
C135	C	1.755475	0.111498	0.145464
C136	C	2.005475	0.361498	0.395464
C137	C	1.337273	-0.388513	-0.354541
C138	C	1.587273	-0.138513	-0.104541
C139	C	1.837273	0.111487	0.145459
C140	C	2.087273	0.361487	0.395459
C141	C	1.063567	-0.388421	-0.546475
C142	C	1.313567	-0.138421	-0.296475
C143	C	1.563567	0.111579	-0.046475
C144	C	1.813567	0.361579	0.203525
C145	C	1.063586	-0.388398	-0.628274
C146	C	1.313586	-0.138398	-0.378274
C147	C	1.563586	0.111602	-0.128274
C148	C	1.813586	0.361602	0.121726
C149	C	1.063612	-0.178168	-0.354569
C150	C	1.313612	0.071832	-0.104569
C151	C	1.563612	0.321832	0.145431
C152	C	1.813612	0.571832	0.395431
C153	C	1.063650	-0.088547	-0.354590
C154	C	1.313650	0.161453	-0.104590
C155	C	1.563650	0.411453	0.145410
C156	C	1.813650	0.661453	0.395410
C157	C	1.110694	-0.336785	-0.816484
C158	C	1.360694	-0.086785	-0.566484
C159	C	1.610694	0.163215	-0.316484
C160	C	1.860694	0.413215	-0.066484
C161	C	1.110703	-0.336762	-0.893343
C162	C	1.360703	-0.086762	-0.643343
C163	C	1.610703	0.163238	-0.393343
C164	C	1.860703	0.413238	-0.143343
C165	C	1.016530	-0.439885	-0.893302
C166	C	1.266530	-0.189885	-0.643302
C167	C	1.516530	0.060115	-0.393302
C168	C	1.766530	0.310115	-0.143302
C169	C	1.016518	-0.439904	-0.816445
C170	C	1.266518	-0.189904	-0.566445
C171	C	1.516518	0.060096	-0.316445
C172	C	1.766518	0.310096	-0.066445
C173	C	1.063604	-0.388355	-0.778038
C174	C	1.313604	-0.138355	-0.528038
C175	C	1.563604	0.111645	-0.278038
C176	C	1.813604	0.361645	-0.028038
C177	C	1.063625	-0.388313	-0.931754
C178	C	1.313625	-0.138313	-0.681754
C179	C	1.563625	0.111687	-0.431754
C180	C	1.813625	0.361687	-0.181754
C181	C	1.063634	-0.388288	-1.015088
C182	C	1.313634	-0.138288	-0.765088
C183	C	1.563634	0.111712	-0.515088
C184	C	1.813634	0.361712	-0.265088
C185	C	1.063594	-0.388379	-0.694699
C186	C	1.313594	-0.138379	-0.444699
C187	C	1.563594	0.111621	-0.194699
C188	C	1.813594	0.361621	0.055301
C189	C	1.063519	-0.388474	-0.163316
C190	C	1.313519	-0.138474	0.086684
C191	C	1.563519	0.111526	0.336684
C192	C	1.813519	0.361526	0.586684
C193	C	1.063643	-0.388271	-0.081518
C194	C	1.313643	-0.138271	0.168482
C195	C	1.563643	0.111729	0.418482
C196	C	1.813643	0.361729	0.668482
H197	H	0.633662	-0.295043	-0.440068
H198	H	0.883662	-0.045043	-0.190068
H199	H	1.133662	0.204957	0.059932
H200	H	1.383662	0.454957	0.309932
N201	N	0.486285	-0.284380	-0.449842
N202	N	0.736285	-0.034380	-0.199842
N203	N	0.986285	0.215620	0.050158
N204	N	1.236285	0.465620	0.300158
N205	N	0.520631	-0.238398	-0.491932
N206	N	0.770631	0.011602	-0.241932
N207	N	1.020631	0.261602	0.008068
N208	N	1.270631	0.511602	0.258068
H209	H	0.492939	-0.201238	-0.525949
H210	H	0.742939	0.048762	-0.275949
H211	H	0.992939	0.298762	-0.025949
H212	H	1.242939	0.548762	0.224051
N213	N	0.641515	-0.492585	-0.259201
N214	N	0.891515	-0.242585	-0.009201
N215	N	1.141515	0.007415	0.240799
N216	N	1.391515	0.257415	0.490799
N217	N	0.607174	-0.538568	-0.217108
N218	N	0.857174	-0.288568	0.032892
N219	N	1.107174	-0.038568	0.282892
N220	N	1.357174	0.211432	0.532892
H221	H	0.634870	-0.575716	-0.183083
H222	H	0.884870	-0.325716	0.066917
H223	H	1.134870	-0.075716	0.316917
H224	H	1.384870	0.174284	0.566917
H225	H	0.978195	-0.481856	-0.924583
H226	H	1.228195	-0.231856	-0.674583
H227	H	1.478195	0.018144	-0.424583
H228	H	1.728195	0.268144	-0.174583
H229	H	0.494121	-0.481927	-0.268993
H230	H	0.744121	-0.231927	-0.018993
H231	H	0.994121	0.018073	0.231007
H232	H	1.244121	0.268073	0.481007
N233	N	1.158793	-0.284126	-0.777263
N234	N	1.408793	-0.034126	-0.527263
N235	N	1.658793	0.215874	-0.277263
N236	N	1.908793	0.465874	-0.027263
N237	N	1.200833	-0.238084	-0.811604
N238	N	1.450833	0.011916	-0.561604
N239	N	1.700833	0.261916	-0.311604
N240	N	1.950833	0.511916	-0.061604
H241	H	1.234804	-0.200890	-0.783906
H242	H	1.484804	0.049110	-0.533906
H243	H	1.734804	0.299110	-0.283906
H244	H	1.984804	0.549110	-0.033906
N245	N	1.158807	-0.284097	-0.932626
N246	N	1.408807	-0.034097	-0.682626
N247	N	1.658807	0.215903	-0.432626
N248	N	1.908807	0.465903	-0.182626
N249	N	1.158812	-0.284084	-1.001248
N250	N	1.408812	-0.034084	-0.751248
N251	N	1.658812	0.215916	-0.501248
N252	N	1.908812	0.465916	-0.251248
H253	H	1.192787	-0.246887	-1.028993
H254	H	1.442787	0.003113	-0.778993
H255	H	1.692787	0.253113	-0.528993
H256	H	1.942787	0.503113	-0.278993
H257	H	0.978166	-0.481898	-0.785141
H258	H	1.228166	-0.231898	-0.535141
H259	H	1.478166	0.018102	-0.285141
H260	H	1.728166	0.268102	-0.035141
