data_functionalizedCrystal
_audit_creation_method	'MofGen! by Chris Wilmer'
_symmetry_space_group_name_H-M	'P1'
_symmetry_Int_Tables_number	1
_symmetry_cell_setting	triclinic
loop_
_symmetry_equiv_pos_as_xyz
  x,y,z
_cell_length_a	12.759394
_cell_length_b	21.395364
_cell_length_c	21.395355
_cell_angle_alpha	90.025298
_cell_angle_beta	89.985423
_cell_angle_gamma	89.968462
loop_
_atom_site_label
_atom_site_type_symbol
_atom_site_fract_x
_atom_site_fract_y
_atom_site_fract_z
Zn1	Zn	-0.417920	-0.957928	-0.354291
Zn2	Zn	-0.593585	-0.957860	-0.249521
Zn3	Zn	-0.417971	-0.853143	-0.249526
Zn4	Zn	-0.593609	-0.853141	-0.354260
O5	O	-0.505771	-0.905518	-0.301900
O6	O	-0.441191	-1.045597	-0.340404
O7	O	-0.570301	-0.943941	-0.161844
O8	O	-0.270943	-0.867073	-0.263439
O9	O	-0.570251	-1.045547	-0.263430
O10	O	-0.270906	-0.944058	-0.340409
O11	O	-0.441278	-0.867006	-0.161848
O12	O	-0.441302	-0.765465	-0.263409
O13	O	-0.570292	-0.867070	-0.441942
O14	O	-0.570342	-0.765464	-0.340356
O15	O	-0.441214	-0.944056	-0.441965
O16	O	-0.740609	-0.943939	-0.263399
O17	O	-0.740627	-0.867003	-0.340350
C18	C	-0.505831	-0.742731	-0.301880
C19	C	-0.505881	-0.673089	-0.301886
C20	C	-0.438791	-0.640425	-0.342028
C21	C	-0.438767	-0.574989	-0.342030
C22	C	-0.505851	-0.542221	-0.301896
C23	C	-0.572946	-0.574893	-0.261746
C24	C	-0.572961	-0.640328	-0.261741
C25	C	-0.600471	-0.438512	-0.296861
C26	C	-0.600458	-0.373079	-0.296870
C27	C	-0.505803	-0.340400	-0.301907
C28	C	-0.411160	-0.373162	-0.306948
C29	C	-0.411175	-0.438596	-0.306943
C30	C	-0.505841	-0.471269	-0.301896
C31	C	-0.438681	-0.236783	-0.342053
C32	C	-0.438655	-0.171347	-0.342050
C33	C	-0.572843	-0.171252	-0.261770
C34	C	-0.572860	-0.236687	-0.261769
C35	C	-0.505781	-0.269449	-0.301914
C36	C	-0.778739	-0.905481	-0.301884
C37	C	-0.895515	-0.905522	-0.301899
C38	C	-0.895444	-0.985696	-0.221830
C39	C	-0.950268	-1.025799	-0.181802
C40	C	-1.059990	-1.025835	-0.181819
C41	C	-1.114889	-0.985766	-0.221869
C42	C	-1.060064	-0.945663	-0.261897
C43	C	-0.950340	-0.945629	-0.261874
C44	C	-1.060136	-0.865493	-0.341968
C45	C	-0.950415	-0.865452	-0.341949
C46	C	-1.115035	-0.825424	-0.382018
C47	C	-1.060210	-0.785316	-0.422043
C48	C	-0.950482	-0.785281	-0.422024
C49	C	-0.895590	-0.825349	-0.381976
C50	C	-0.231738	-0.905573	-0.301928
C51	C	-0.114961	-0.905596	-0.301941
C52	C	-0.505750	-0.905570	-0.465323
C53	C	-0.505741	-0.905592	-0.534964
C54	C	-0.505725	-0.068941	-0.301916
C55	C	-0.505738	-0.138583	-0.301915
C56	C	-0.438527	-0.945677	-0.567690
C57	C	-0.438482	-0.945677	-0.633126
C58	C	-0.505669	-0.905597	-0.665833
C59	C	-0.572888	-0.865504	-0.633098
C60	C	-0.572923	-0.865502	-0.567664
C61	C	-0.600271	-0.900637	-0.769502
C62	C	-0.600237	-0.900644	-0.834935
C63	C	-0.505558	-0.905601	-0.867653
C64	C	-0.410911	-0.910565	-0.834931
C65	C	-0.410947	-0.910562	-0.769497
C66	C	-0.505637	-0.905595	-0.736785
C67	C	-0.438290	-0.945687	-0.971332
C68	C	-0.438243	-0.945682	-1.036769
C69	C	-0.572658	-0.865513	-1.036740
C70	C	-0.572695	-0.865515	-0.971305
C71	C	-0.505513	-0.905606	-0.938605
C72	C	-0.505717	-0.905502	-0.139112
C73	C	-0.505430	-0.905602	-0.069471
H74	H	-0.334113	-0.465268	-0.311046
C75	C	-0.889879	-1.069875	-0.137751
C76	C	-0.769189	-1.069840	-0.137727
C77	C	-0.708804	-1.113919	-0.093678
C78	C	-0.769109	-1.158033	-0.049652
C79	C	-0.889806	-1.158071	-0.049674
C80	C	-0.950191	-1.113992	-0.093723
H81	H	-0.724541	-1.037182	-0.170319
H82	H	-0.619456	-1.113891	-0.093662
H83	H	-0.724409	-1.190663	-0.017044
H84	H	-0.934454	-1.190728	-0.017082
H85	H	-1.039539	-1.114020	-0.093739
C86	C	-0.306754	-0.916016	-0.870912
C87	C	-0.202651	-0.921473	-0.834921
C88	C	-0.098498	-0.926925	-0.870904
C89	C	-0.098449	-0.926921	-0.942879
C90	C	-0.202556	-0.921464	-0.978875
C91	C	-0.306708	-0.916011	-0.942891
H92	H	-0.202684	-0.921476	-0.781637
H93	H	-0.021431	-0.930965	-0.844258
H94	H	-0.021349	-0.930957	-0.969517
H95	H	-0.202523	-0.921460	-1.032158
H96	H	-0.383775	-0.911971	-0.969537
H97	H	-0.627434	-0.832877	-0.944659
H98	H	-0.627565	-0.548209	-0.229068
C99	C	-0.646564	-0.821419	-1.072704
C100	C	-0.729022	-0.848544	-1.117704
C101	C	-0.802927	-0.804444	-1.153669
C102	C	-0.794374	-0.733220	-1.144635
C103	C	-0.711912	-0.706091	-1.099633
C104	C	-0.638007	-0.750191	-1.063668
H105	H	-0.735357	-0.901271	-1.124394
H106	H	-0.863970	-0.824526	-1.186982
H107	H	-0.849082	-0.700574	-1.171258
H108	H	-0.705577	-0.653364	-1.092943
H109	H	-0.576964	-0.730109	-1.030354
C110	C	-0.646674	-0.272623	-0.217619
C111	C	-0.720469	-0.236583	-0.173473
C112	C	-0.794285	-0.272518	-0.129320
C113	C	-0.794307	-0.344493	-0.129313
C114	C	-0.720509	-0.380537	-0.173462
C115	C	-0.646693	-0.344602	-0.217615
H116	H	-0.720455	-0.183299	-0.173476
H117	H	-0.848915	-0.245836	-0.096638
H118	H	-0.848950	-0.371095	-0.096629
H119	H	-0.720522	-0.433821	-0.173459
H120	H	-0.592063	-0.371284	-0.250296
C121	C	-0.704546	-0.895372	-0.733612
C122	C	-0.738354	-0.947930	-0.688792
C123	C	-0.842683	-0.942754	-0.652950
C124	C	-0.913203	-0.885021	-0.661926
C125	C	-0.879396	-0.832459	-0.706748
C126	C	-0.775068	-0.837634	-0.742590
H127	H	-0.686150	-0.990671	-0.682146
H128	H	-0.867708	-0.981664	-0.619770
H129	H	-0.990433	-0.881189	-0.635393
H130	H	-0.931601	-0.789717	-0.713395
H131	H	-0.750042	-0.798724	-0.775770
C132	C	-1.120305	-1.069947	-0.137790
C133	C	-1.105301	-1.064856	-0.066555
C134	C	-1.165617	-1.108966	-0.022525
C135	C	-1.240938	-1.158167	-0.049730
C136	C	-1.255946	-1.163260	-0.120968
C137	C	-1.195630	-1.119150	-0.164998
H138	H	-1.049541	-1.028433	-0.046413
H139	H	-1.154507	-1.105196	0.030210
H140	H	-1.285588	-1.190820	-0.017137
H141	H	-1.311707	-1.199683	-0.141110
H142	H	-1.206740	-1.122920	-0.217734
C143	C	-0.704428	-0.895115	-0.870829
C144	C	-0.738592	-0.947464	-0.915833
C145	C	-0.842827	-0.941901	-0.951679
C146	C	-0.912897	-0.883990	-0.942521
C147	C	-0.878734	-0.831638	-0.897515
C148	C	-0.774500	-0.837200	-0.861669
H149	H	-0.686721	-0.990337	-0.922614
H150	H	-0.868116	-0.980657	-0.984995
H151	H	-0.990058	-0.879873	-0.969056
H152	H	-0.930606	-0.788765	-0.890734
H153	H	-0.749210	-0.798445	-0.828353
C154	C	-1.120600	-0.741245	-0.466094
C155	C	-1.105663	-0.670014	-0.460918
C156	C	-1.166058	-0.625942	-0.504969
C157	C	-1.241390	-0.653101	-0.554195
C158	C	-1.256330	-0.724336	-0.559373
C159	C	-1.195935	-0.768408	-0.515322
H160	H	-1.049895	-0.649907	-0.424475
H161	H	-1.154998	-0.573209	-0.501135
H162	H	-1.286098	-0.620476	-0.586804
H163	H	-1.312098	-0.744443	-0.595816
H164	H	-1.206995	-0.821141	-0.519156
H165	H	-0.383743	-0.978317	-0.659777
C166	C	-0.364965	-0.539045	-0.386186
C167	C	-0.410611	-0.494063	-0.435326
C168	C	-0.336809	-0.458120	-0.479481
C169	C	-0.217360	-0.467158	-0.474496
C170	C	-0.171708	-0.512141	-0.425353
C171	C	-0.245510	-0.548085	-0.381199
H172	H	-0.499039	-0.487371	-0.439019
H173	H	-0.370604	-0.424820	-0.515859
H174	H	-0.162727	-0.440550	-0.507181
H175	H	-0.083280	-0.518834	-0.421661
H176	H	-0.211715	-0.581385	-0.344821
C177	C	-0.890179	-0.741165	-0.466055
C178	C	-0.950569	-0.697094	-0.510104
C179	C	-0.890270	-0.652978	-0.554136
C180	C	-0.769581	-0.652932	-0.554119
C181	C	-0.709183	-0.697005	-0.510068
C182	C	-0.769482	-0.741121	-0.466036
H183	H	-1.039917	-0.697127	-0.510118
H184	H	-0.934982	-0.620352	-0.586745
H185	H	-0.724944	-0.620274	-0.586714
H186	H	-0.619835	-0.696972	-0.510054
H187	H	-0.724771	-0.773747	-0.433427
C188	C	-0.364617	-0.989771	-0.531723
C189	C	-0.245179	-0.984682	-0.540718
C190	C	-0.171266	-1.028775	-0.504750
C191	C	-0.216791	-1.077957	-0.459788
C192	C	-0.336236	-1.083048	-0.450791
C193	C	-0.410149	-1.038956	-0.486759
H194	H	-0.211473	-0.948272	-0.574004
H195	H	-0.082846	-1.025005	-0.511411
H196	H	-0.162077	-1.110597	-0.433163
H197	H	-0.369942	-1.119458	-0.417506
H198	H	-0.498569	-1.042725	-0.480099
C199	C	-0.704561	-0.337044	-0.291329
C200	C	-0.808678	-0.372986	-0.285777
C201	C	-0.912785	-0.336953	-0.280237
C202	C	-0.912775	-0.264978	-0.280248
C203	C	-0.808654	-0.229032	-0.285800
C204	C	-0.704548	-0.265065	-0.291340
H205	H	-0.808688	-0.426270	-0.285769
H206	H	-0.989861	-0.363563	-0.276127
H207	H	-0.989841	-0.238304	-0.276147
H208	H	-0.808644	-0.175748	-0.285809
H209	H	-0.627471	-0.238456	-0.295450
H210	H	-0.384169	-0.667095	-0.374717
C211	C	-0.306840	-0.916015	-0.733504
C212	C	-0.272964	-0.863603	-0.688496
C213	C	-0.168855	-0.869054	-0.652504
C214	C	-0.098621	-0.926916	-0.661519
C215	C	-0.132495	-0.979333	-0.706529
C216	C	-0.236605	-0.973883	-0.742521
H217	H	-0.324957	-0.820766	-0.681821
H218	H	-0.143779	-0.830251	-0.619185
H219	H	-0.021553	-0.930951	-0.634876
H220	H	-0.080503	-1.022170	-0.713204
H221	H	-0.261680	-1.012685	-0.775840
H222	H	-0.334083	-0.346556	-0.311050
H223	H	-0.627595	-0.666923	-0.229052
H224	H	-0.384055	-0.263459	-0.374738
H225	H	-0.384016	-0.144752	-0.374738
H226	H	-0.627464	-0.144573	-0.229092
H227	H	-0.627589	-0.832869	-0.659733
H228	H	-0.677555	-0.465114	-0.292759
H229	H	-0.627655	-0.832857	-0.541019
H230	H	-0.806102	-0.985662	-0.221804
H231	H	-1.204230	-0.985805	-0.221885
H232	H	-1.204376	-0.825459	-0.382032
H233	H	-0.806249	-0.825320	-0.381952
H234	H	-0.383580	-0.978328	-0.944706
H235	H	-0.383503	-0.978323	-1.063413
