data_functionalizedCrystal
_audit_creation_method	'MofGen! by Chris Wilmer'
_symmetry_space_group_name_H-M	'P1'
_symmetry_Int_Tables_number	1
_symmetry_cell_setting	triclinic
loop_
_symmetry_equiv_pos_as_xyz
  x,y,z
_cell_length_a	16.109302
_cell_length_b	17.699092
_cell_length_c	15.186229
_cell_angle_alpha	89.997943
_cell_angle_beta	89.994701
_cell_angle_gamma	83.374074
loop_
_atom_site_label
_atom_site_type_symbol
_atom_site_fract_x
_atom_site_fract_y
_atom_site_fract_z
O1	O	1.102966	0.097287	-0.073265
O2	O	0.860883	0.109393	-0.073257
O3	O	0.988761	-0.006839	-0.073259
O4	O	0.975089	0.213519	-0.073263
O5	O	0.988752	-0.006841	0.073198
O6	O	0.860875	0.109391	0.073200
O7	O	1.102957	0.097285	0.073193
Zn8	Zn	0.981915	0.103338	0.096449
Zn9	Zn	0.981926	0.103340	-0.096514
O10	O	0.975080	0.213517	0.073194
C11	C	0.829905	0.108902	-0.000028
C12	C	0.737612	0.107431	-0.000025
C13	C	0.525273	0.104030	0.079800
C14	C	0.438555	0.102640	0.079797
C15	C	0.438575	0.102646	-0.079879
C16	C	0.525292	0.104030	-0.079875
C17	C	0.568638	0.104726	-0.000033
C18	C	0.395203	0.101952	-0.000040
C19	C	0.301180	0.100445	-0.000044
C20	C	0.662667	0.106232	-0.000029
C21	C	0.988265	-0.035037	-0.000032
C22	C	0.986792	-0.119057	-0.000036
C23	C	0.986107	-0.158525	-0.079871
C24	C	0.984717	-0.237470	-0.079872
C25	C	0.984019	-0.276946	-0.000037
C26	C	0.984702	-0.237473	0.079804
C27	C	0.986086	-0.158529	0.079804
C28	C	0.979121	-0.555846	0.079805
C29	C	0.977740	-0.634796	0.079799
C30	C	0.977753	-0.634787	-0.079870
C31	C	0.979136	-0.555843	-0.079870
C32	C	0.979815	-0.516376	-0.000030
C33	C	0.981320	-0.430775	-0.000030
C34	C	0.982520	-0.362547	-0.000036
C35	C	1.133936	0.097776	-0.000039
C36	C	1.226228	0.099247	-0.000047
C37	C	0.975576	0.241716	-0.000035
C38	C	0.977049	0.325736	-0.000037
N39	N	0.981913	0.103336	0.228142
N40	N	0.981934	0.103336	-0.228207
C41	C	1.038556	0.051886	0.453864
C42	C	1.038559	0.051884	0.546054
C43	C	0.925285	0.154789	0.546065
C44	C	0.925279	0.154786	0.453877
C45	C	0.981919	0.103336	0.407779
C46	C	0.981928	0.103336	0.592156
C47	C	0.981930	0.103335	0.692112
C48	C	0.981916	0.103336	0.307816
H49	H	0.403251	0.102074	0.144805
H50	H	0.560601	0.104595	-0.144888
H51	H	1.084675	0.009991	0.416333
H52	H	0.986679	-0.126389	-0.144882
H53	H	0.403271	0.102080	-0.144883
H54	H	0.984129	-0.269621	0.144807
H55	H	0.986632	-0.126394	0.144814
H56	H	0.984162	-0.269601	-0.144881
H57	H	0.979709	-0.523705	-0.144880
H58	H	0.977196	-0.666930	-0.144880
H59	H	0.979691	-0.523724	0.144816
H60	H	0.879171	0.196680	0.583607
H61	H	0.977170	-0.666936	0.144814
H62	H	0.879154	0.196683	0.416351
H63	H	0.560562	0.104597	0.144813
H64	H	1.084677	0.009988	0.583574
