data_functionalizedCrystal
_audit_creation_method	'MofGen! by Chris Wilmer'
_symmetry_space_group_name_H-M	'P1'
_symmetry_Int_Tables_number	1
_symmetry_cell_setting	triclinic
loop_
_symmetry_equiv_pos_as_xyz
  x,y,z
_cell_length_a	11.026623
_cell_length_b	9.482944
_cell_length_c	11.026607
_cell_angle_alpha	81.873049
_cell_angle_beta	108.586360
_cell_angle_gamma	81.814548
loop_
_atom_site_label
_atom_site_type_symbol
_atom_site_fract_x
_atom_site_fract_y
_atom_site_fract_z
O1	O	-1.748417	0.120896	-0.555239
O2	O	-1.381837	0.120898	-0.494473
O3	O	-1.534744	0.120892	-0.341565
O4	O	-1.595510	0.120902	-0.708147
O5	O	-1.491361	-0.120901	-0.298346
O6	O	-1.338454	-0.120895	-0.451254
O7	O	-1.705033	-0.120897	-0.512020
Cu8	Cu	-1.517782	-0.142974	-0.477691
Cu9	Cu	-1.569088	0.142975	-0.528803
O10	O	-1.552126	-0.120891	-0.664928
C11	C	-1.312486	0.000001	-0.461654
C12	C	-1.170472	0.000002	-0.428236
N13	N	-1.481706	-0.344094	-0.441743
C14	C	-1.116823	0.000006	-0.520506
C15	C	-0.970044	0.000006	-0.485970
C16	C	-1.558438	-0.416293	-0.518197
C17	C	-1.528429	-0.583710	-0.488278
C18	C	-0.774385	0.000002	-0.544839
C19	C	-0.916400	0.000010	-0.578253
C20	C	-1.501843	-0.000003	-0.272296
C21	C	-1.468427	0.000002	-0.130283
N22	N	-1.605173	0.344095	-0.564743
C23	C	-1.585028	0.000007	-0.734198
C24	C	-1.618446	0.000011	-0.876213
C25	C	-1.560697	0.000004	-0.076635
C26	C	-1.526162	0.000010	0.070143
H27	H	-0.907321	0.000040	-0.381406
H28	H	-1.723036	0.000120	0.061040
H29	H	-1.421594	0.000020	0.132871
C30	C	-1.722500	-0.573346	-0.681588
C31	C	-1.787490	-0.672402	-0.746302
C32	C	-1.895585	-0.596403	-0.853932
H33	H	-1.694010	-0.513968	-0.739650
H34	H	-1.780247	-0.513989	-0.652629
H35	H	-1.729754	-0.731734	-0.775263
H36	H	-1.816011	-0.731783	-0.688277
H37	H	-1.953332	-0.537046	-0.824974
H38	H	-1.867083	-0.537028	-0.911984
H39	H	-1.939701	-0.663601	-0.897847
H40	H	-1.363866	0.000012	-0.067551
C41	C	-1.700201	0.000307	-0.160264
C42	C	-1.782975	0.124725	-0.156303
C43	C	-1.911494	0.125067	-0.233339
H44	H	-1.726489	-0.083911	-0.127657
H45	H	-1.704947	0.000386	-0.247830
H46	H	-1.778235	0.124634	-0.068755
H47	H	-1.756728	0.208963	-0.188921
H48	H	-1.916240	0.125146	-0.320905
H49	H	-1.937769	0.040844	-0.200724
H50	H	-1.967670	0.209489	-0.230671
H51	H	-0.979126	0.000003	-0.682822
C52	C	-1.200346	0.000234	-0.660029
C53	C	-1.196417	0.124615	-0.742732
C54	C	-1.273326	0.124865	-0.871274
H55	H	-1.287930	0.000307	-0.664901
H56	H	-1.167579	-0.084039	-0.686259
H57	H	-1.229190	0.208867	-0.716510
H58	H	-1.108852	0.124569	-0.737900
H59	H	-1.240558	0.040592	-0.897504
H60	H	-1.360905	0.124933	-0.876133
H61	H	-1.270661	0.209248	-0.927405
C62	C	-1.087033	0.000227	-0.288794
C63	C	-1.135600	0.124605	-0.250559
C64	C	-1.058784	0.124853	-0.122105
H65	H	-0.999474	0.000302	-0.283944
H66	H	-1.089559	-0.084048	-0.232435
H67	H	-1.133060	0.208859	-0.306902
H68	H	-1.223148	0.124557	-0.255377
H69	H	-1.061310	0.040578	-0.065747
H70	H	-0.971229	0.124924	-0.117268
H71	H	-1.091732	0.209235	-0.096142
H72	H	-1.393799	-0.406227	-0.354136
H73	H	-1.440517	-0.645837	-0.400665
H74	H	-1.646351	-0.354160	-0.605797
