data_functionalizedCrystal
_audit_creation_method	'MofGen! by Chris Wilmer'
_symmetry_space_group_name_H-M	'P1'
_symmetry_Int_Tables_number	1
_symmetry_cell_setting	triclinic
loop_
_symmetry_equiv_pos_as_xyz
  x,y,z
_cell_length_a	16.120484
_cell_length_b	14.908610
_cell_length_c	14.908308
_cell_angle_alpha	89.826017
_cell_angle_beta	95.986071
_cell_angle_gamma	90.215361
loop_
_atom_site_label
_atom_site_type_symbol
_atom_site_fract_x
_atom_site_fract_y
_atom_site_fract_z
Zn1	Zn	-0.434983	-1.320094	-0.609992
Zn2	Zn	0.065017	-0.820094	-0.109992
Zn3	Zn	-0.566804	-1.321037	-0.466415
Zn4	Zn	-0.066804	-0.821037	0.033585
Zn5	Zn	-0.418969	-1.179337	-0.450162
Zn6	Zn	0.081031	-0.679337	0.049838
Zn7	Zn	-0.565807	-1.162123	-0.608012
Zn8	Zn	-0.065807	-0.662123	-0.108012
O9	O	-0.496641	-1.245648	-0.533645
O10	O	0.003359	-0.745648	-0.033645
O11	O	-0.459588	-1.445633	-0.598576
O12	O	0.040412	-0.945633	-0.098576
O13	O	-0.540909	-1.309839	-0.338111
O14	O	-0.040909	-0.809839	0.161889
O15	O	-0.304473	-1.204819	-0.465391
O16	O	0.195527	-0.704819	0.034609
O17	O	-0.556437	-1.446326	-0.493091
O18	O	-0.056437	-0.946326	0.006909
O19	O	-0.316238	-1.308232	-0.582817
O20	O	0.183762	-0.808232	-0.082817
O21	O	-0.432295	-1.205733	-0.326170
O22	O	0.067705	-0.705733	0.173830
O23	O	-0.431328	-1.051640	-0.463471
O24	O	0.068672	-0.551640	0.036529
O25	O	-0.554737	-1.175479	-0.734422
O26	O	-0.054737	-0.675479	-0.234422
O27	O	-0.539209	-1.038993	-0.579442
O28	O	-0.039209	-0.538993	-0.079442
O29	O	-0.458621	-1.291540	-0.735877
O30	O	0.041379	-0.791540	-0.235877
O31	O	-0.683292	-1.293147	-0.491171
O32	O	-0.183292	-0.793147	0.008829
O33	O	-0.682559	-1.176393	-0.595201
O34	O	-0.182559	-0.676393	-0.095201
C35	C	-0.483423	-1.012798	-0.519479
C36	C	0.016577	-0.512798	-0.019479
C37	C	-0.477790	-0.913181	-0.513441
C38	C	0.022210	-0.413181	-0.013441
C39	C	-0.413608	-0.779334	-0.444641
C40	C	0.086392	-0.279334	0.055359
C41	C	-0.418897	-0.872933	-0.450311
C42	C	0.081103	-0.372933	0.049689
C43	C	-0.531396	-0.859824	-0.570908
C44	C	-0.031396	-0.359824	-0.070908
C45	C	-0.526107	-0.766225	-0.565238
C46	C	-0.026107	-0.266225	-0.065238
C47	C	-0.467212	-0.725983	-0.502102
C48	C	0.032788	-0.225983	-0.002102
C49	C	-0.461928	-0.632382	-0.496429
C50	C	0.038072	-0.132382	0.003571
C51	C	-0.574423	-0.619275	-0.617030
C52	C	-0.074423	-0.119275	-0.117030
C53	C	-0.579711	-0.712874	-0.622699
C54	C	-0.079711	-0.212874	-0.122699
C55	C	-0.713166	-1.233028	-0.544756
C56	C	-0.213166	-0.733028	-0.044756
C57	C	-0.805803	-1.227709	-0.549544
C58	C	-0.305803	-0.727709	-0.049544
C59	C	-0.975413	-1.218002	-0.558305
C60	C	-0.475413	-0.718002	-0.058305
C61	C	-1.017037	-1.273453	-0.509009
C62	C	-0.517037	-0.773453	-0.009009
C63	C	-1.111414	-1.268052	-0.513884
C64	C	-0.611414	-0.768052	-0.013884
C65	C	-0.881028	-1.223402	-0.553432
C66	C	-0.381028	-0.723402	-0.053432
C67	C	-0.279272	-1.258340	-0.522512
C68	C	0.220728	-0.758340	-0.022512
C69	C	-0.186642	-1.263749	-0.517768
C70	C	0.313358	-0.763749	-0.017768
C71	C	-0.508354	-1.231484	-0.768773
C72	C	-0.008354	-0.731484	-0.268773
C73	C	-0.513346	-1.225448	-0.868970
C74	C	-0.013346	-0.725448	-0.368970
C75	C	-0.509903	-0.479408	-0.547859
C76	C	-0.009903	0.020592	-0.047859
C77	C	-0.515535	-0.579024	-0.553896
C78	C	-0.015535	-0.079024	-0.053896
C79	C	-0.422621	-1.334959	-1.058767
C80	C	0.077379	-0.834959	-0.558767
C81	C	-0.427308	-1.329291	-1.152912
C82	C	0.072692	-0.829291	-0.652912
C83	C	-0.527403	-1.208440	-1.151405
C84	C	-0.027403	-0.708440	-0.651405
C85	C	-0.522716	-1.214108	-1.057260
C86	C	-0.022716	-0.714108	-0.557260
C87	C	-0.470324	-1.277371	-1.010945
C88	C	0.029676	-0.777371	-0.510945
C89	C	-0.465641	-1.283043	-0.916799
C90	C	0.034359	-0.783043	-0.416799
C91	C	-0.565731	-1.162188	-0.915294
C92	C	-0.065731	-0.662188	-0.415294
C93	C	-0.570419	-1.156520	-1.009438
C94	C	-0.070419	-0.656520	-0.509438
C95	C	-0.484915	-1.259812	-0.299432
C96	C	0.015085	-0.759812	0.200568
C97	C	-0.479699	-1.266035	-0.199234
C98	C	0.020301	-0.766035	0.300766
H99	H	-0.375244	-0.916368	-0.403523
H100	H	0.124756	-0.416368	0.096477
C101	C	-0.349589	-0.735805	-0.376064
C102	C	0.150411	-0.235805	0.123936
C103	C	-0.303766	-0.802562	-0.326965
C104	C	0.196234	-0.302562	0.173035
C105	C	-0.244776	-0.762499	-0.263791
C106	C	0.255224	-0.262499	0.236209
H107	H	-0.377297	-0.699809	-0.336071
H108	H	0.122703	-0.199809	0.163929
H109	H	-0.312938	-0.699350	-0.406516
H110	H	0.187062	-0.199350	0.093484
H111	H	-0.340411	-0.839002	-0.296514
H112	H	0.159589	-0.339002	0.203486
H113	H	-0.276040	-0.838563	-0.366934
H114	H	0.223960	-0.338563	0.133066
H115	H	-0.208125	-0.726044	-0.294243
H116	H	0.291875	-0.226044	0.205757
H117	H	-0.272491	-0.726504	-0.223804
H118	H	0.227509	-0.226504	0.276196
H119	H	-0.213673	-0.807787	-0.230475
H120	H	0.286327	-0.307787	0.269525
C121	C	-0.970107	-1.342297	-0.447969
C122	C	-0.470107	-0.842297	0.052031
C123	C	-0.997113	-1.428594	-0.474132
C124	C	-0.497113	-0.928594	0.025868
C125	C	-0.953887	-1.492030	-0.417930
C126	C	-0.453887	-0.992030	0.082070
H127	H	-0.980571	-1.332196	-0.387291
H128	H	-0.480571	-0.832196	0.112709
H129	H	-0.911997	-1.336900	-0.452789
H130	H	-0.411997	-0.836900	0.047211
H131	H	-1.055210	-1.433989	-0.469304
H132	H	-0.555210	-0.933989	0.030696
H133	H	-0.986648	-1.438724	-0.534801
H134	H	-0.486648	-0.938724	-0.034801
H135	H	-0.895777	-1.486633	-0.422750
H136	H	-0.395777	-0.986633	0.077250
H137	H	-0.964354	-1.481921	-0.357255
H138	H	-0.464354	-0.981921	0.142745
H139	H	-0.972199	-1.550590	-0.435679
H140	H	-0.472199	-1.050590	0.064321
H141	H	-1.010654	-1.166477	-0.604166
H142	H	-0.510654	-0.666477	-0.104166
C143	C	-0.595306	-0.903694	-0.639361
C144	C	-0.095306	-0.403694	-0.139361
C145	C	-0.588472	-0.997083	-0.632010
C146	C	-0.088472	-0.497083	-0.132010
C147	C	-0.647341	-1.037525	-0.695045
C148	C	-0.147341	-0.537525	-0.195045
H149	H	-0.585413	-0.885527	-0.698448
H150	H	-0.085413	-0.385527	-0.198448
H151	H	-0.649775	-0.885956	-0.628006
H152	H	-0.149775	-0.385956	-0.128006
H153	H	-0.534016	-1.014814	-0.643371
H154	H	-0.034016	-0.514814	-0.143371
H155	H	-0.598373	-1.015275	-0.572936
H156	H	-0.098373	-0.515275	-0.072936
H157	H	-0.701810	-1.019787	-0.683690
H158	H	-0.201810	-0.519787	-0.183690
H159	H	-0.637443	-1.019352	-0.754128
H160	H	-0.137443	-0.519352	-0.254128
H161	H	-0.642717	-1.100893	-0.690060
H162	H	-0.142717	-0.600893	-0.190060
H163	H	-0.413973	-0.599619	-0.445021
H164	H	0.086027	-0.099619	0.054979
H165	H	-0.627660	-0.745652	-0.674105
H166	H	-0.127660	-0.245652	-0.174105
H167	H	-0.618071	-0.575826	-0.663819
H168	H	-0.118071	-0.075826	-0.163819
H169	H	-0.422982	-1.334555	-0.879091
H170	H	0.077018	-0.834555	-0.379091
H171	H	-0.379965	-1.386474	-1.021057
H172	H	0.120035	-0.886474	-0.521057
H173	H	-0.388461	-1.376183	-1.191845
H174	H	0.111539	-0.876183	-0.691845
H175	H	-0.570058	-1.156935	-1.189131
H176	H	-0.070058	-0.656935	-0.689131
H177	H	-0.613073	-1.105012	-1.047161
H178	H	-0.113073	-0.605012	-0.547161
C179	C	-0.617672	-1.099751	-0.863436
C180	C	-0.117672	-0.599751	-0.363436
C181	C	-0.702375	-1.113089	-0.891737
C182	C	-0.202375	-0.613089	-0.391737
C183	C	-0.750248	-1.055599	-0.843980
C184	C	-0.250248	-0.555599	-0.343980
H185	H	-0.602932	-1.039282	-0.874545
H186	H	-0.102932	-0.539282	-0.374545
H187	H	-0.607438	-1.112187	-0.800727
H188	H	-0.107438	-0.612187	-0.300727
H189	H	-0.712605	-1.100647	-0.954431
H190	H	-0.212605	-0.600647	-0.454431
H191	H	-0.717141	-1.173546	-0.880626
H192	H	-0.217141	-0.673546	-0.380626
H193	H	-0.740013	-1.068035	-0.781271
H194	H	-0.240013	-0.568035	-0.281271
H195	H	-0.735500	-0.995134	-0.855093
H196	H	-0.235500	-0.495134	-0.355093
H197	H	-0.807724	-1.064647	-0.863169
H198	H	-0.307724	-0.564647	-0.363169
