data_functionalizedCrystal
_audit_creation_method	'MofGen! by Chris Wilmer'
_symmetry_space_group_name_H-M	'P1'
_symmetry_Int_Tables_number	1
_symmetry_cell_setting	triclinic
loop_
_symmetry_equiv_pos_as_xyz
  x,y,z
_cell_length_a	16.109302
_cell_length_b	10.540539
_cell_length_c	9.616153
_cell_angle_alpha	89.997886
_cell_angle_beta	90.005219
_cell_angle_gamma	83.993636
loop_
_atom_site_label
_atom_site_type_symbol
_atom_site_fract_x
_atom_site_fract_y
_atom_site_fract_z
O1	O	1.104128	0.163156	0.115702
O2	O	0.862191	0.183460	0.115690
O3	O	0.988679	-0.011477	0.115694
O4	O	0.977640	0.358093	0.115697
O5	O	0.988670	-0.011466	-0.115597
O6	O	0.862181	0.183471	-0.115602
O7	O	1.104119	0.163167	-0.115590
Zn8	Zn	0.983149	0.173321	-0.152318
Zn9	Zn	0.983161	0.173306	0.152418
O10	O	0.977631	0.358104	-0.115594
C11	C	0.831206	0.182643	0.000043
C12	C	0.738896	0.180177	0.000038
C13	C	0.526515	0.174480	-0.126025
C14	C	0.439781	0.172149	-0.126020
C15	C	0.439801	0.172144	0.126147
C16	C	0.526535	0.174465	0.126140
C17	C	0.569889	0.175640	0.000051
C18	C	0.396421	0.170987	0.000062
C19	C	0.302380	0.168460	0.000068
C20	C	0.663936	0.178165	0.000044
C21	C	0.987847	-0.058763	0.000051
C22	C	0.985370	-0.199675	0.000058
C23	C	0.890460	-0.381750	0.000573
C24	C	0.892971	-0.235167	0.000052
C25	C	1.029831	-0.261960	-0.132018
C26	C	1.026678	-0.408460	-0.132130
C27	C	1.028567	-0.409018	0.130892
C28	C	1.029418	-0.262048	0.132638
C29	C	1.135104	0.163984	0.000060
C30	C	1.227414	0.166451	0.000074
C31	C	0.978463	0.405390	0.000052
C32	C	0.980940	0.546303	0.000054
N33	N	0.983146	0.173330	-0.360293
C34	C	0.915454	0.277593	-0.419337
C35	C	0.915223	0.277299	-0.580504
C36	C	0.963790	0.040691	-0.581080
C37	C	0.963290	0.041327	-0.419862
C38	C	1.070424	0.200464	-0.419674
C39	C	1.069871	0.203449	-0.580903
N40	N	0.983170	0.173287	0.360393
H41	H	0.857986	-0.192070	0.094730
H42	H	0.998666	-0.440149	0.230998
N43	N	0.573315	0.175719	0.262137
H44	H	0.603029	0.255321	0.267752
H45	H	0.615530	0.097986	0.267674
N46	N	0.842107	-0.418947	0.126024
H47	H	0.878380	-0.482800	0.183741
H48	H	0.790760	-0.458246	0.094387
H49	H	1.011774	-0.038796	-0.619357
N50	N	0.983129	-0.445192	-0.262897
H51	H	0.980647	-0.540533	-0.264276
H52	H	1.015018	-0.419191	-0.346833
N53	N	0.830157	0.254886	-0.365728
H54	H	0.792373	0.240268	-0.446702
H55	H	0.805849	0.331842	-0.311185
N56	N	0.986383	-0.207237	0.262073
H57	H	0.938554	-0.142270	0.234959
H58	H	1.027572	-0.164810	0.320689
H59	H	1.120805	0.124439	-0.381478
H60	H	0.854105	-0.411434	-0.093614
N61	N	0.846302	-0.179171	-0.125573
H62	H	0.824020	-0.249724	-0.180833
H63	H	0.885370	-0.133933	-0.185646
N64	N	1.114695	-0.473266	-0.140072
H65	H	1.155369	-0.406629	-0.143492
H66	H	1.121020	-0.527666	-0.226643
H67	H	0.998938	-0.218916	-0.230308
H68	H	0.900863	0.016264	-0.621494
N69	N	0.573277	0.175747	-0.262014
H70	H	0.532636	0.174656	-0.341881
H71	H	0.615539	0.098069	-0.267508
N72	N	0.392999	0.170892	-0.262001
H73	H	0.433697	0.171094	-0.341870
H74	H	0.351136	0.249023	-0.267918
H75	H	0.926830	0.375847	-0.620079
H76	H	0.404492	0.171189	0.228804
N77	N	1.119723	-0.233683	-0.138504
H78	H	1.132519	-0.180089	-0.055694
H79	H	1.129257	-0.185702	-0.227013
N80	N	1.118655	-0.231248	0.143218
H81	H	1.131853	-0.176183	0.061853
H82	H	1.157386	-0.313035	0.142086
N83	N	1.116972	-0.472825	0.132083
H84	H	1.126162	-0.530398	0.048330
H85	H	1.126596	-0.525050	0.219762
H86	H	0.926870	0.376482	-0.380583
N87	N	0.829463	0.254221	-0.631643
H88	H	0.787029	0.324151	-0.596396
H89	H	0.815023	0.169077	-0.596107
N90	N	0.878965	0.009748	-0.370076
H91	H	0.842467	-0.004452	-0.452856
H92	H	0.851881	0.082792	-0.312447
N93	N	1.026082	-0.064560	-0.368104
H94	H	1.053961	-0.111447	-0.450020
H95	H	0.996660	-0.125878	-0.309877
H96	H	1.088928	0.295126	-0.379024
N97	N	1.089341	0.332662	-0.631556
H98	H	1.042204	0.371508	-0.692281
H99	H	1.142849	0.322756	-0.687058
H100	H	1.122649	0.132459	-0.621133
