data_functionalizedCrystal
_audit_creation_method	'MofGen! by Chris Wilmer'
_symmetry_space_group_name_H-M	'P1'
_symmetry_Int_Tables_number	1
_symmetry_cell_setting	triclinic
loop_
_symmetry_equiv_pos_as_xyz
  x,y,z
_cell_length_a	13.032831
_cell_length_b	13.897447
_cell_length_c	13.032268
_cell_angle_alpha	82.850929
_cell_angle_beta	89.113023
_cell_angle_gamma	82.824382
loop_
_atom_site_label
_atom_site_type_symbol
_atom_site_fract_x
_atom_site_fract_y
_atom_site_fract_z
Zn1	Zn	1.498459	-0.651421	0.780831
Zn2	Zn	1.520196	-0.795136	0.608850
Zn3	Zn	1.348318	-0.611126	0.587072
Zn4	Zn	1.326445	-0.789920	0.758975
O5	O	1.423354	-0.711901	0.683932
O6	O	1.645262	-0.689531	0.776278
O7	O	1.515648	-0.756045	0.462045
O8	O	1.368292	-0.481500	0.612807
O9	O	1.661233	-0.795118	0.649925
O10	O	1.478599	-0.511105	0.755161
O11	O	1.389370	-0.620854	0.446044
O12	O	1.201497	-0.615797	0.591615
O13	O	1.331011	-0.786229	0.905791
O14	O	1.185426	-0.747157	0.717911
O15	O	1.457389	-0.684474	0.921848
O16	O	1.494438	-0.929415	0.628732
O17	O	1.352089	-0.925583	0.739028
C18	C	1.156144	-0.676539	0.650029
C19	C	1.041828	-0.661437	0.635549
C20	C	0.982950	-0.719783	0.691489
C21	C	0.864797	-0.704175	0.676525
C22	C	1.423274	-0.962502	0.683898
C23	C	1.423329	-1.069726	0.683929
C24	C	1.423376	-1.156804	0.683959
C25	C	1.423445	-1.266049	0.683995
C26	C	1.691608	-0.747401	0.717969
C27	C	1.805921	-0.762529	0.732473
C28	C	1.389335	-0.739265	0.952179
C29	C	1.374838	-0.750926	1.066490
C30	C	1.423460	-0.460327	0.683993
C31	C	1.423506	-0.353122	0.684019
C32	C	1.457300	-0.684581	0.416736
C33	C	1.471996	-0.672675	0.302451
C34	C	1.430904	-0.705778	1.125398
C35	C	1.415923	-0.717829	1.243545
H36	H	1.004763	-0.599927	0.576583
H37	H	0.827737	-0.642661	0.617555
Br38	Br	1.276335	-0.830213	1.128203
Br39	Br	0.867675	-0.865037	0.830791
H40	H	1.489992	-0.658200	1.088364
H41	H	1.356820	-0.765399	1.280573
Br42	Br	1.044715	-0.822304	0.789779
Br43	Br	1.570509	-0.593389	1.240747
