data_functionalizedCrystal
_audit_creation_method	'MofGen! by Chris Wilmer'
_symmetry_space_group_name_H-M	'P1'
_symmetry_Int_Tables_number	1
_symmetry_cell_setting	triclinic
loop_
_symmetry_equiv_pos_as_xyz
  x,y,z
_cell_length_a	12.594516
_cell_length_b	12.827893
_cell_length_c	12.827885
_cell_angle_alpha	89.980728
_cell_angle_beta	90.028054
_cell_angle_gamma	89.983977
loop_
_atom_site_label
_atom_site_type_symbol
_atom_site_fract_x
_atom_site_fract_y
_atom_site_fract_z
Zn1	Zn	-0.423691	-1.597665	0.590861
Zn2	Zn	-0.601707	-1.597557	0.416127
Zn3	Zn	-0.423743	-1.422906	0.416135
Zn4	Zn	-0.601628	-1.422889	0.590827
O5	O	-0.512693	-1.510254	0.503487
O6	O	-0.447317	-1.743887	0.567693
O7	O	-0.578155	-1.574351	0.269892
O8	O	-0.274791	-1.446140	0.439330
O9	O	-0.578105	-1.743807	0.439317
O10	O	-0.274752	-1.574535	0.567701
O11	O	-0.447405	-1.446036	0.269898
O12	O	-0.447329	-1.276668	0.439297
O13	O	-0.577970	-1.446112	0.737067
O14	O	-0.578020	-1.276656	0.567642
O15	O	-0.447240	-1.574519	0.737093
O16	O	-0.750643	-1.574335	0.439283
O17	O	-0.750584	-1.446007	0.567635
C18	C	-0.512672	-1.238744	0.503468
C19	C	-0.512689	-1.122591	0.503484
C20	C	-0.789234	-1.510186	0.503477
C21	C	-0.907539	-1.510252	0.503508
C22	C	-0.512590	-1.510325	0.776058
C23	C	-0.512547	-1.510356	0.892211
C24	C	-0.976799	-1.440448	0.573269
C25	C	-1.047668	-1.414986	0.477914
C26	C	-1.047469	-1.535809	0.598879
C27	C	-0.976849	-1.484740	0.408102
C28	C	-0.976645	-1.605607	0.529132
C29	C	-1.047481	-1.580182	0.433711
C30	C	-0.235072	-1.510352	0.503521
C31	C	-0.116766	-1.510393	0.503535
C32	C	-0.512714	-1.782824	0.503508
C33	C	-0.512723	-1.898978	0.503517
C34	C	-0.577460	-1.070828	0.566895
C35	C	-0.577479	-0.950778	0.566914
C36	C	-0.512718	-1.510244	0.231978
C37	C	-0.512461	-1.510416	0.115825
C38	C	-0.447845	-1.573902	0.944008
C39	C	-0.447799	-1.573935	1.064059
H40	H	-0.945763	-1.381312	0.632178
N41	N	-0.647064	-0.894961	0.635022
N42	N	-0.745279	-0.907060	0.627938
H43	H	-0.794428	-0.867639	0.676042
H44	H	-0.392482	-1.628279	0.899477
H45	H	-0.945956	-1.463087	0.327436
N46	N	-1.086373	-1.562874	0.700044
N47	N	-1.062300	-1.648695	0.739737
H48	H	-1.089773	-1.667803	0.811187
H49	H	-0.632895	-1.115388	0.621174
N50	N	-0.582010	-1.442140	0.948061
N51	N	-0.680241	-1.449020	0.935946
H52	H	-0.729302	-1.400838	0.975386
H53	H	-0.392409	-1.628343	1.108603
H54	H	-0.567862	-1.456012	1.071287
N55	N	-0.443150	-0.954823	0.435420
N56	N	-0.375420	-1.015778	0.472349
H57	H	-0.326283	-1.055228	0.424257
N58	N	-1.086792	-1.313896	0.450737
N59	N	-1.064166	-1.236869	0.506105
H60	H	-1.091793	-1.165471	0.486918
H61	H	-0.945428	-1.686164	0.550829
N62	N	-1.086164	-1.654307	0.359626
N63	N	-1.063325	-1.644776	0.265288
H64	H	-1.090646	-1.697123	0.212962
N65	N	-0.443138	-1.066718	0.435378
N66	N	-0.382245	-1.115322	0.375758
H67	H	-0.333122	-1.075865	0.327654
