data_functionalizedCrystal
_audit_creation_method	'MofGen! by Chris Wilmer'
_symmetry_space_group_name_H-M	'P1'
_symmetry_Int_Tables_number	1
_symmetry_cell_setting	triclinic
loop_
_symmetry_equiv_pos_as_xyz
  x,y,z
_cell_length_a	25.639242
_cell_length_b	25.639239
_cell_length_c	25.639233
_cell_angle_alpha	89.981253
_cell_angle_beta	90.022166
_cell_angle_gamma	89.965787
loop_
_atom_site_label
_atom_site_type_symbol
_atom_site_fract_x
_atom_site_fract_y
_atom_site_fract_z
Zn1	Zn	0.799225	0.208277	0.295742
Zn2	Zn	1.049225	0.458277	0.545742
Zn3	Zn	1.299225	0.708277	0.795742
Zn4	Zn	1.549225	0.958277	1.045742
Zn5	Zn	0.799149	0.295696	0.208307
Zn6	Zn	1.049149	0.545696	0.458307
Zn7	Zn	1.299149	0.795696	0.708307
Zn8	Zn	1.549149	1.045696	0.958307
Zn9	Zn	0.711801	0.208269	0.208306
Zn10	Zn	0.961801	0.458269	0.458306
Zn11	Zn	1.211801	0.708269	0.708306
Zn12	Zn	1.461801	0.958269	0.958306
Zn13	Zn	0.711746	0.295676	0.295696
Zn14	Zn	0.961746	0.545676	0.545696
Zn15	Zn	1.211746	0.795676	0.795696
Zn16	Zn	1.461746	1.045676	1.045696
O17	O	0.755480	0.251979	0.252013
O18	O	1.005480	0.501979	0.502013
O19	O	1.255480	0.751979	0.752013
O20	O	1.505480	1.001979	1.002013
O21	O	0.872380	0.219884	0.284163
O22	O	1.122380	0.469884	0.534163
O23	O	1.372380	0.719884	0.784163
O24	O	1.622380	0.969884	1.034163
O25	O	0.787553	0.284103	0.135141
O26	O	1.037553	0.534103	0.385141
O27	O	1.287553	0.784103	0.635141
O28	O	1.537553	1.034103	0.885141
O29	O	0.723453	0.135105	0.219924
O30	O	0.973453	0.385105	0.469924
O31	O	1.223453	0.635105	0.719924
O32	O	1.473453	0.885105	0.969924
O33	O	0.872324	0.284111	0.219924
O34	O	1.122324	0.534111	0.469924
O35	O	1.372324	0.784111	0.719924
O36	O	1.622324	1.034111	0.969924
O37	O	0.787683	0.135111	0.284163
O38	O	1.037683	0.385111	0.534163
O39	O	1.287683	0.635111	0.784163
O40	O	1.537683	0.885111	1.034163
O41	O	0.723379	0.219871	0.135141
O42	O	0.973379	0.469871	0.385141
O43	O	1.223379	0.719871	0.635141
O44	O	1.473379	0.969871	0.885141
O45	O	0.638629	0.219853	0.219880
O46	O	0.888629	0.469853	0.469880
O47	O	1.138629	0.719853	0.719880
O48	O	1.388629	0.969853	0.969880
O49	O	0.723360	0.284078	0.368868
O50	O	0.973360	0.534078	0.618868
O51	O	1.223360	0.784078	0.868868
O52	O	1.473360	1.034078	1.118868
O53	O	0.638589	0.284070	0.284085
O54	O	0.888589	0.534070	0.534085
O55	O	1.138589	0.784070	0.784085
O56	O	1.388589	1.034070	1.034085
O57	O	0.787630	0.219866	0.368901
O58	O	1.037630	0.469866	0.618901
O59	O	1.287630	0.719866	0.868901
O60	O	1.537630	0.969866	1.118901
O61	O	0.787499	0.368858	0.219880
O62	O	1.037499	0.618858	0.469880
O63	O	1.287499	0.868858	0.719880
O64	O	1.537499	1.118858	0.969880
O65	O	0.723286	0.368844	0.284085
O66	O	0.973286	0.618844	0.534085
O67	O	1.223286	0.868844	0.784085
O68	O	1.473286	1.118844	1.034085
C69	C	0.619638	0.251959	0.251977
C70	C	0.869638	0.501959	0.501977
C71	C	1.119638	0.751959	0.751977
C72	C	1.369638	1.001959	1.001977
C73	C	0.561524	0.251963	0.251975
C74	C	0.811524	0.501963	0.501975
C75	C	1.061524	0.751963	0.751975
C76	C	1.311524	1.001963	1.001975
C77	C	0.755392	0.387822	0.251989
C78	C	1.005392	0.637822	0.501989
C79	C	1.255392	0.887822	0.751989
C80	C	1.505392	1.137822	1.001989
C81	C	0.755403	0.445936	0.251996
C82	C	1.005403	0.695936	0.501996
C83	C	1.255403	0.945936	0.751996
C84	C	1.505403	1.195936	1.001996
C85	C	0.201149	0.285473	0.285413
C86	C	0.451149	0.535473	0.535413
C87	C	0.701149	0.785473	0.785413
C88	C	0.951149	1.035473	1.035413
C89	C	0.146544	0.285477	0.285421
C90	C	0.396544	0.535477	0.535421
C91	C	0.646544	0.785477	0.785421
C92	C	0.896544	1.035477	1.035421
O93	O	0.118297	0.313943	0.313821
O94	O	0.368297	0.563943	0.563821
O95	O	0.618297	0.813943	0.813821
O96	O	0.868297	1.063943	1.063821
N97	N	0.119241	0.251994	0.252047
N98	N	0.369241	0.501994	0.502047
N99	N	0.619241	0.751994	0.752047
N100	N	0.869241	1.001994	1.002047
C101	C	0.146545	0.218502	0.218666
C102	C	0.396545	0.468502	0.468666
C103	C	0.646545	0.718502	0.718666
C104	C	0.896545	0.968502	0.968666
O105	O	0.118308	0.190022	0.190280
O106	O	0.368308	0.440022	0.440280
O107	O	0.618308	0.690022	0.690280
O108	O	0.868308	0.940022	0.940280
C109	C	0.201149	0.218496	0.218661
C110	C	0.451149	0.468496	0.468661
C111	C	0.701149	0.718496	0.718661
C112	C	0.951149	0.968496	0.968661
C113	C	0.228449	0.251985	0.252034
C114	C	0.478449	0.501985	0.502034
C115	C	0.728449	0.751985	0.752034
C116	C	0.978449	1.001985	1.002034
C117	C	0.228449	0.318959	0.318783
C118	C	0.478449	0.568959	0.568783
C119	C	0.728449	0.818959	0.818783
C120	C	0.978449	1.068959	1.068783
C121	C	0.283049	0.318956	0.318774
C122	C	0.533049	0.568956	0.568774
C123	C	0.783049	0.818956	0.818774
C124	C	1.033049	1.068956	1.068774
C125	C	0.310350	0.285468	0.285395
C126	C	0.560350	0.535468	0.535395
C127	C	0.810350	0.785468	0.785395
C128	C	1.060350	1.035468	1.035395
C129	C	0.283049	0.251983	0.252024
C130	C	0.533049	0.501983	0.502024
C131	C	0.783049	0.751983	0.752024
C132	C	1.033049	1.001983	1.002024
C133	C	0.228452	0.185002	0.185283
C134	C	0.478452	0.435002	0.435283
C135	C	0.728452	0.685002	0.685283
C136	C	0.978452	0.935002	0.935283
C137	C	0.283059	0.185000	0.185281
C138	C	0.533059	0.435000	0.435281
C139	C	0.783059	0.685000	0.685281
C140	C	1.033059	0.935000	0.935281
C141	C	0.310359	0.218488	0.218654
C142	C	0.560359	0.468488	0.468654
C143	C	0.810359	0.718488	0.718654
C144	C	1.060359	0.968488	0.968654
C145	C	0.364950	0.218492	0.218636
C146	C	0.614950	0.468492	0.468636
C147	C	0.864950	0.718492	0.718636
C148	C	1.114950	0.968492	0.968636
N149	N	0.392253	0.251974	0.252010
N150	N	0.642253	0.501974	0.502010
N151	N	0.892253	0.751974	0.752010
N152	N	1.142253	1.001974	1.002010
C153	C	0.364953	0.285463	0.285389
C154	C	0.614953	0.535463	0.535389
C155	C	0.864953	0.785463	0.785389
C156	C	1.114953	1.035463	1.035389
C157	C	0.031875	0.218515	0.218680
C158	C	0.281875	0.468515	0.468680
C159	C	0.531875	0.718515	0.718680
C160	C	0.781875	0.968515	0.968680
C161	C	-0.022728	0.218523	0.218683
C162	C	0.227272	0.468523	0.468683
C163	C	0.477272	0.718523	0.718683
C164	C	0.727272	0.968523	0.968683
C165	C	-0.022725	0.285497	0.285438
C166	C	0.227275	0.535497	0.535438
C167	C	0.477275	0.785497	0.785438
C168	C	0.727275	1.035497	1.035438
C169	C	0.031878	0.285492	0.285433
C170	C	0.281878	0.535492	0.535433
C171	C	0.531878	0.785492	0.785433
C172	C	0.781878	1.035492	1.035433
C173	C	0.059178	0.251998	0.252054
C174	C	0.309178	0.501998	0.502054
C175	C	0.559178	0.751998	0.752054
C176	C	0.809178	1.001998	1.002054
C177	C	0.479618	0.285455	0.285368
C178	C	0.729618	0.535455	0.535368
C179	C	0.979618	0.785455	0.785368
C180	C	1.229618	1.035455	1.035368
C181	C	0.534223	0.285451	0.285354
C182	C	0.784223	0.535451	0.535354
C183	C	1.034223	0.785451	0.785354
C184	C	1.284223	1.035451	1.035354
C185	C	0.534216	0.218475	0.218601
C186	C	0.784216	0.468475	0.468601
C187	C	1.034216	0.718475	0.718601
C188	C	1.284216	0.968475	0.968601
C189	C	0.479615	0.218481	0.218612
C190	C	0.729615	0.468481	0.468612
C191	C	0.979615	0.718481	0.718612
C192	C	1.229615	0.968481	0.968612
C193	C	0.452318	0.251972	0.252000
C194	C	0.702318	0.501972	0.502000
C195	C	0.952318	0.751972	0.752000
C196	C	1.202318	1.001972	1.002000
O197	O	0.393232	0.190038	0.190252
O198	O	0.643232	0.440038	0.440252
O199	O	0.893232	0.690038	0.690252
O200	O	1.143232	0.940038	0.940252
O201	O	0.393197	0.313933	0.313776
O202	O	0.643197	0.563933	0.563776
O203	O	0.893197	0.813933	0.813776
O204	O	1.143197	1.063933	1.063776
C205	C	0.755497	0.251970	0.388386
C206	C	1.005497	0.501970	0.638386
C207	C	1.255497	0.751970	0.888386
C208	C	1.505497	1.001970	1.138386
C209	C	0.755504	0.251966	0.446500
C210	C	1.005504	0.501966	0.696500
C211	C	1.255504	0.751966	0.946500
C212	C	1.505504	1.001966	1.196500
C213	C	0.891853	0.252000	0.252049
C214	C	1.141853	0.502000	0.502049
C215	C	1.391853	0.752000	0.752049
C216	C	1.641853	1.002000	1.002049
C217	C	0.949967	0.252009	0.252064
C218	C	1.199967	0.502009	0.502064
C219	C	1.449967	0.752009	0.752064
C220	C	1.699967	1.002009	1.002064
C221	C	0.755583	0.115606	0.252048
C222	C	1.005583	0.365606	0.502048
C223	C	1.255583	0.615606	0.752048
C224	C	1.505583	0.865606	1.002048
C225	C	0.755627	0.057492	0.252064
C226	C	1.005627	0.307492	0.502064
C227	C	1.255627	0.557492	0.752064
C228	C	1.505627	0.807492	1.002064
C229	C	0.789004	0.806294	0.218638
C230	C	1.039004	1.056294	0.468638
C231	C	1.289004	1.306294	0.718638
C232	C	1.539004	1.556294	0.968638
C233	C	0.789024	0.860898	0.218645
C234	C	1.039024	1.110898	0.468645
C235	C	1.289024	1.360898	0.718645
C236	C	1.539024	1.610898	0.968645
O237	O	0.817502	0.889131	0.190257
O238	O	1.067502	1.139131	0.440257
O239	O	1.317502	1.389131	0.690257
O240	O	1.567502	1.639131	0.940257
N241	N	0.755572	0.888218	0.252048
N242	N	1.005572	1.138218	0.502048
N243	N	1.255572	1.388218	0.752048
N244	N	1.505572	1.638218	1.002048
C245	C	0.722102	0.860932	0.285449
C246	C	0.972102	1.110932	0.535449
C247	C	1.222102	1.360932	0.785449
C248	C	1.472102	1.610932	1.035449
O249	O	0.693651	0.889184	0.313861
O250	O	0.943651	1.139184	0.563861
O251	O	1.193651	1.389184	0.813861
O252	O	1.443651	1.639184	1.063861
C253	C	0.722085	0.806328	0.285444
C254	C	0.972085	1.056328	0.535444
C255	C	1.222085	1.306328	0.785444
C256	C	1.472085	1.556328	1.035444
C257	C	0.755535	0.779011	0.252036
C258	C	1.005535	1.029011	0.502036
C259	C	1.255535	1.279011	0.752036
C260	C	1.505535	1.529011	1.002036
C261	C	0.822452	0.778976	0.185233
C262	C	1.072452	1.028976	0.435233
C263	C	1.322452	1.278976	0.685233
C264	C	1.572452	1.528976	0.935233
C265	C	0.822431	0.724376	0.185226
C266	C	1.072431	0.974376	0.435226
C267	C	1.322431	1.224376	0.685226
C268	C	1.572431	1.474376	0.935226
C269	C	0.788962	0.697093	0.218623
C270	C	1.038962	0.947093	0.468623
C271	C	1.288962	1.197093	0.718623
C272	C	1.538962	1.447093	0.968623
C273	C	0.755514	0.724410	0.252028
C274	C	1.005514	0.974410	0.502028
C275	C	1.255514	1.224410	0.752028
C276	C	1.505514	1.474410	1.002028
C277	C	0.688617	0.779042	0.318847
C278	C	0.938617	1.029042	0.568847
C279	C	1.188617	1.279042	0.818847
C280	C	1.438617	1.529042	1.068847
C281	C	0.688603	0.724435	0.318840
C282	C	0.938603	0.974435	0.568840
C283	C	1.188603	1.224435	0.818840
C284	C	1.438603	1.474435	1.068840
C285	C	0.722053	0.697118	0.285432
C286	C	0.972053	0.947118	0.535432
C287	C	1.222053	1.197118	0.785432
C288	C	1.472053	1.447118	1.035432
C289	C	0.722024	0.642527	0.285418
C290	C	0.972024	0.892527	0.535418
C291	C	1.222024	1.142527	0.785418
C292	C	1.472024	1.392527	1.035418
N293	N	0.755475	0.615206	0.252016
N294	N	1.005475	0.865206	0.502016
N295	N	1.255475	1.115206	0.752016
N296	N	1.505475	1.365206	1.002016
C297	C	0.788944	0.642490	0.218618
C298	C	1.038944	0.892490	0.468618
C299	C	1.288944	1.142490	0.718618
C300	C	1.538944	1.392490	0.968618
C301	C	0.722141	0.975602	0.285457
C302	C	0.972141	1.225602	0.535457
C303	C	1.222141	1.475602	0.785457
C304	C	1.472141	1.725602	1.035457
C305	C	0.722155	1.030204	0.285459
C306	C	0.972155	1.280204	0.535459
C307	C	1.222155	1.530204	0.785459
C308	C	1.472155	1.780204	1.035459
C309	C	0.789078	1.030167	0.218656
C310	C	1.039078	1.280167	0.468656
C311	C	1.289078	1.530167	0.718656
C312	C	1.539078	1.780167	0.968656
C313	C	0.789061	0.975564	0.218652
C314	C	1.039061	1.225564	0.468652
C315	C	1.289061	1.475564	0.718652
C316	C	1.539061	1.725564	0.968652
C317	C	0.755593	0.948282	0.252055
C318	C	1.005593	1.198282	0.502055
C319	C	1.255593	1.448282	0.752055
C320	C	1.505593	1.698282	1.002055
C321	C	0.788897	0.527824	0.218605
C322	C	1.038897	0.777824	0.468605
C323	C	1.288897	1.027824	0.718605
C324	C	1.538897	1.277824	0.968605
C325	C	0.788872	0.473219	0.218599
C326	C	1.038872	0.723219	0.468599
C327	C	1.288872	0.973219	0.718599
C328	C	1.538872	1.223219	0.968599
C329	C	0.721951	0.473261	0.285403
C330	C	0.971951	0.723261	0.535403
C331	C	1.221951	0.973261	0.785403
C332	C	1.471951	1.223261	1.035403
C333	C	0.721974	0.527862	0.285408
C334	C	0.971974	0.777862	0.535408
C335	C	1.221974	1.027862	0.785408
C336	C	1.471974	1.277862	1.035408
C337	C	0.755452	0.555142	0.252007
C338	C	1.005452	0.805142	0.502007
C339	C	1.255452	1.055142	0.752007
C340	C	1.505452	1.305142	1.002007
O341	O	0.693562	0.614260	0.313793
O342	O	0.943562	0.864260	0.563793
O343	O	1.193562	1.114260	0.813793
O344	O	1.443562	1.364260	1.063793
O345	O	0.817396	0.614231	0.190216
O346	O	1.067396	0.864231	0.440216
O347	O	1.317396	1.114231	0.690216
O348	O	1.567396	1.364231	0.940216
C349	C	0.755494	0.251951	0.116170
C350	C	1.005494	0.501951	0.366170
C351	C	1.255494	0.751951	0.616170
C352	C	1.505494	1.001951	0.866170
C353	C	0.755588	0.251807	0.058057
C354	C	1.005588	0.501807	0.308057
C355	C	1.255588	0.751807	0.558057
C356	C	1.505588	1.001807	0.808057
C357	C	0.789012	0.218432	0.806886
C358	C	1.039012	0.468432	1.056886
C359	C	1.289012	0.718432	1.306886
C360	C	1.539012	0.968432	1.556886
C361	C	0.789019	0.218417	0.861491
C362	C	1.039019	0.468417	1.111491
C363	C	1.289019	0.718417	1.361491
C364	C	1.539019	0.968417	1.611491
O365	O	0.817466	0.189967	0.889747
O366	O	1.067466	0.439967	1.139747
O367	O	1.317466	0.689967	1.389747
O368	O	1.567466	0.939967	1.639747
N369	N	0.755562	0.251844	0.888783
N370	N	1.005562	0.501844	1.138783
N371	N	1.255562	0.751844	1.388783
N372	N	1.505562	1.001844	1.638783
C373	C	0.722093	0.285283	0.861468
C374	C	0.972093	0.535283	1.111468
C375	C	1.222093	0.785283	1.361468
C376	C	1.472093	1.035283	1.611468
O377	O	0.693636	0.313713	0.889695
O378	O	0.943636	0.563713	1.139695
O379	O	1.193636	0.813713	1.389695
O380	O	1.443636	1.063713	1.639695
C381	C	0.722084	0.285294	0.806864
C382	C	0.972084	0.535294	1.056864
C383	C	1.222084	0.785294	1.306864
C384	C	1.472084	1.035294	1.556864
C385	C	0.755547	0.251870	0.779575
C386	C	1.005547	0.501870	1.029575
C387	C	1.255547	0.751870	1.279575
C388	C	1.505547	1.001870	1.529575
C389	C	0.822472	0.185009	0.779597
C390	C	1.072472	0.435009	1.029597
C391	C	1.322472	0.685009	1.279597
C392	C	1.572472	0.935009	1.529597
C393	C	0.822466	0.185025	0.724997
C394	C	1.072466	0.435025	0.974997
C395	C	1.322466	0.685025	1.224997
C396	C	1.572466	0.935025	1.474997
C397	C	0.789000	0.218462	0.697685
C398	C	1.039000	0.468462	0.947685
C399	C	1.289000	0.718462	1.197685
C400	C	1.539000	0.968462	1.447685
C401	C	0.755541	0.251885	0.724974
C402	C	1.005541	0.501885	0.974974
C403	C	1.255541	0.751885	1.224974
C404	C	1.505541	1.001885	1.474974
C405	C	0.688613	0.318731	0.779550
C406	C	0.938613	0.568731	1.029550
C407	C	1.188613	0.818731	1.279550
C408	C	1.438613	1.068731	1.529550
C409	C	0.688607	0.318739	0.724943
C410	C	0.938607	0.568739	0.974943
C411	C	1.188607	0.818739	1.224943
C412	C	1.438607	1.068739	1.474943
C413	C	0.722069	0.285314	0.697654
C414	C	0.972069	0.535314	0.947654
C415	C	1.222069	0.785314	1.197654
C416	C	1.472069	1.035314	1.447654
C417	C	0.722070	0.285338	0.643063
C418	C	0.972070	0.535338	0.893063
C419	C	1.222070	0.785338	1.143063
C420	C	1.472070	1.035338	1.393063
N421	N	0.755526	0.251912	0.615771
N422	N	1.005526	0.501912	0.865771
N423	N	1.255526	0.751912	1.115771
N424	N	1.505526	1.001912	1.365771
C425	C	0.788992	0.218474	0.643082
C426	C	1.038992	0.468474	0.893082
C427	C	1.288992	0.718474	1.143082
C428	C	1.538992	0.968474	1.393082
C429	C	0.722113	0.285256	0.976138
C430	C	0.972113	0.535256	1.226138
C431	C	1.222113	0.785256	1.476138
C432	C	1.472113	1.035256	1.726138
C433	C	0.722124	0.285247	1.030741
C434	C	0.972124	0.535247	1.280741
C435	C	1.222124	0.785247	1.530741
C436	C	1.472124	1.035247	1.780741
C437	C	0.789049	0.218381	1.030760
C438	C	1.039049	0.468381	1.280760
C439	C	1.289049	0.718381	1.530760
C440	C	1.539049	0.968381	1.780760
C441	C	0.789041	0.218392	0.976157
C442	C	1.039041	0.468392	1.226157
C443	C	1.289041	0.718392	1.476157
C444	C	1.539041	0.968392	1.726157
C445	C	0.755570	0.251829	0.948846
C446	C	1.005570	0.501829	1.198846
C447	C	1.255570	0.751829	1.448846
C448	C	1.505570	1.001829	1.698846
C449	C	0.788977	0.218509	0.528417
C450	C	1.038977	0.468509	0.778417
C451	C	1.288977	0.718509	1.028417
C452	C	1.538977	0.968509	1.278417
C453	C	0.788970	0.218529	0.473811
C454	C	1.038970	0.468529	0.723811
C455	C	1.288970	0.718529	0.973811
C456	C	1.538970	0.968529	1.223811
C457	C	0.722043	0.285393	0.473797
C458	C	0.972043	0.535393	0.723797
C459	C	1.222043	0.785393	0.973797
C460	C	1.472043	1.035393	1.223797
C461	C	0.722052	0.285375	0.528397
C462	C	0.972052	0.535375	0.778397
C463	C	1.222052	0.785375	1.028397
C464	C	1.472052	1.035375	1.278397
C465	C	0.755521	0.251929	0.555706
C466	C	1.005521	0.501929	0.805706
C467	C	1.255521	0.751929	1.055706
C468	C	1.505521	1.001929	1.305706
O469	O	0.693635	0.313773	0.614771
O470	O	0.943635	0.563773	0.864771
O471	O	1.193635	0.813773	1.114771
O472	O	1.443635	1.063773	1.364771
O473	O	0.817439	0.190044	0.614847
O474	O	1.067439	0.440044	0.864847
O475	O	1.317439	0.690044	1.114847
O476	O	1.567439	0.940044	1.364847
H477	H	0.556449	0.312723	0.312530
H478	H	0.806449	0.562723	0.562530
H479	H	1.056449	0.812723	0.812530
H480	H	1.306449	1.062723	1.062530
C481	C	0.449599	0.322301	0.322092
C482	C	0.699599	0.572301	0.572092
C483	C	0.949599	0.822301	0.822092
C484	C	1.199599	1.072301	1.072092
N485	N	0.426988	0.350057	0.349750
N486	N	0.676988	0.600057	0.599750
N487	N	0.926988	0.850057	0.849750
N488	N	1.176988	1.100057	1.099750
C489	C	0.685352	1.060248	0.322206
C490	C	0.935352	1.310248	0.572206
C491	C	1.185352	1.560248	0.822206
C492	C	1.435352	1.810248	1.072206
N493	N	0.657633	1.082874	0.349887
N494	N	0.907633	1.332874	0.599887
N495	N	1.157633	1.582874	0.849887
N496	N	1.407633	1.832874	1.099887
H497	H	0.816333	1.052391	0.191464
H498	H	1.066333	1.302391	0.441464
H499	H	1.316333	1.552391	0.691464
H500	H	1.566333	1.802391	0.941464
H501	H	0.694857	0.312487	0.953905
H502	H	0.944857	0.562487	1.203905
H503	H	1.194857	0.812487	1.453905
H504	H	1.444857	1.062487	1.703905
C505	C	0.061903	0.322328	0.322148
C506	C	0.311903	0.572328	0.572148
C507	C	0.561903	0.822328	0.822148
C508	C	0.811903	1.072328	1.072148
N509	N	0.084516	0.350074	0.349805
N510	N	0.334516	0.600074	0.599805
N511	N	0.584516	0.850074	0.849805
N512	N	0.834516	1.100074	1.099805
C513	C	0.685245	0.322147	0.558416
C514	C	0.935245	0.572147	0.808416
C515	C	1.185245	0.822147	1.058416
C516	C	1.435245	1.072147	1.308416
N517	N	0.657517	0.349841	0.581023
N518	N	0.907517	0.599841	0.831023
N519	N	1.157517	0.849841	1.081023
N520	N	1.407517	1.099841	1.331023
C521	C	-0.052766	0.322331	0.322160
C522	C	0.197234	0.572331	0.572160
C523	C	0.447234	0.822331	0.822160
C524	C	0.697234	1.072331	1.072160
N525	N	-0.075394	0.350072	0.349818
N526	N	0.174606	0.600072	0.599818
N527	N	0.424606	0.850072	0.849818
N528	N	0.674606	1.100072	1.099818
H529	H	0.694883	0.953392	0.312656
H530	H	0.944883	1.203392	0.562656
H531	H	1.194883	1.453392	0.812656
H532	H	1.444883	1.703392	1.062656
C533	C	0.825721	0.557825	0.181859
C534	C	1.075721	0.807825	0.431859
C535	C	1.325721	1.057825	0.681859
C536	C	1.575721	1.307825	0.931859
N537	N	0.853454	0.580421	0.154179
N538	N	1.103454	0.830421	0.404179
N539	N	1.353454	1.080421	0.654179
N540	N	1.603454	1.330421	0.904179
H541	H	0.206227	0.346229	0.345967
H542	H	0.456227	0.596229	0.595967
H543	H	0.706227	0.846229	0.845967
H544	H	0.956227	1.096229	1.095967
H545	H	0.816111	0.450979	0.191392
H546	H	1.066111	0.700979	0.441392
H547	H	1.316111	0.950979	0.691392
H548	H	1.566111	1.200979	0.941392
H549	H	0.849670	0.702137	0.158024
H550	H	1.099670	0.952137	0.408024
H551	H	1.349670	1.202137	0.658024
H552	H	1.599670	1.452137	0.908024
H553	H	-0.044951	0.191258	0.191502
H554	H	0.205049	0.441258	0.441502
H555	H	0.455049	0.691258	0.691502
H556	H	0.705049	0.941258	0.941502
C557	C	0.449584	0.181646	0.181897
C558	C	0.699584	0.431646	0.431897
C559	C	0.949584	0.681646	0.681897
C560	C	1.199584	0.931646	0.931897
N561	N	0.426969	0.153897	0.154245
N562	N	0.676969	0.403897	0.404245
N563	N	0.926969	0.653897	0.654245
N564	N	1.176969	0.903897	0.904245
H565	H	0.556454	0.191211	0.191422
H566	H	0.806454	0.441211	0.441422
H567	H	1.056454	0.691211	0.691422
H568	H	1.306454	0.941211	0.941422
H569	H	0.694798	0.312619	0.451550
H570	H	0.944798	0.562619	0.701550
H571	H	1.194798	0.812619	0.951550
H572	H	1.444798	1.062619	1.201550
H573	H	0.054099	0.191241	0.191496
H574	H	0.304099	0.441241	0.441496
H575	H	0.554099	0.691241	0.691496
H576	H	0.804099	0.941241	0.941496
H577	H	0.816288	0.191174	0.953941
H578	H	1.066288	0.441174	1.203941
H579	H	1.316288	0.691174	1.453941
H580	H	1.566288	0.941174	1.703941
H581	H	0.661350	0.702225	0.346042
H582	H	0.911350	0.952225	0.596042
H583	H	1.161350	1.202225	0.846042
H584	H	1.411350	1.452225	1.096042
C585	C	0.651820	0.809079	0.355601
C586	C	0.901820	1.059079	0.605601
C587	C	1.151820	1.309079	0.855601
C588	C	1.401820	1.559079	1.105601
N589	N	0.624103	0.831702	0.383287
N590	N	0.874103	1.081702	0.633287
N591	N	1.124103	1.331702	0.883287
N592	N	1.374103	1.581702	1.133287
H593	H	0.305283	0.157721	0.158103
H594	H	0.555283	0.407721	0.408103
H595	H	0.805283	0.657721	0.658103
H596	H	1.055283	0.907721	0.908103
C597	C	0.313072	0.355794	0.355489
C598	C	0.563072	0.605794	0.605489
C599	C	0.813072	0.855794	0.855489
C600	C	1.063072	1.105794	1.105489
N601	N	0.335682	0.383542	0.383146
N602	N	0.585682	0.633542	0.633146
N603	N	0.835682	0.883542	0.883146
N604	N	1.085682	1.133542	1.133146
H605	H	0.206233	0.157734	0.158106
H606	H	0.456233	0.407734	0.408106
H607	H	0.706233	0.657734	0.658106
H608	H	0.956233	0.907734	0.908106
C609	C	0.859292	0.148224	0.809631
C610	C	1.109292	0.398224	1.059631
C611	C	1.359292	0.648224	1.309631
C612	C	1.609292	0.898224	1.559631
N613	N	0.887030	0.120517	0.832249
N614	N	1.137030	0.370517	1.082249
N615	N	1.387030	0.620517	1.332249
N616	N	1.637030	0.870517	1.582249
H617	H	0.849709	0.801185	0.158037
H618	H	1.099709	1.051185	0.408037
H619	H	1.349709	1.301185	0.658037
H620	H	1.599709	1.551185	0.908037
C621	C	0.825860	0.945520	0.181902
C622	C	1.075860	1.195520	0.431902
C623	C	1.325860	1.445520	0.681902
C624	C	1.575860	1.695520	0.931902
N625	N	0.853580	0.922894	0.154222
N626	N	1.103580	1.172894	0.404222
N627	N	1.353580	1.422894	0.654222
N628	N	1.603580	1.672894	0.904222
H629	H	0.694738	0.550105	0.312613
H630	H	0.944738	0.800105	0.562613
H631	H	1.194738	1.050105	0.812613
H632	H	1.444738	1.300105	1.062613
C633	C	0.651796	0.355497	0.809556
C634	C	0.901796	0.605497	1.059556
C635	C	1.151796	0.855497	1.309556
C636	C	1.401796	1.105497	1.559556
N637	N	0.624062	0.383190	0.832155
N638	N	0.874062	0.633190	1.082155
N639	N	1.124062	0.883190	1.332155
N640	N	1.374062	1.133190	1.582155
H641	H	0.694699	0.451039	0.312594
H642	H	0.944699	0.701039	0.562594
H643	H	1.194699	0.951039	0.812594
H644	H	1.444699	1.201039	1.062594
C645	C	0.825780	0.181754	0.443797
C646	C	1.075780	0.431754	0.693797
C647	C	1.325780	0.681754	0.943797
C648	C	1.575780	0.931754	1.193797
N649	N	0.853504	0.154055	0.421191
N650	N	1.103504	0.404055	0.671191
N651	N	1.353504	0.654055	0.921191
N652	N	1.603504	0.904055	1.171191
H653	H	0.816229	0.191272	0.550645
H654	H	1.066229	0.441272	0.800645
H655	H	1.316229	0.691272	1.050645
H656	H	1.566229	0.941272	1.300645
C657	C	0.859270	0.148247	0.694986
C658	C	1.109270	0.398247	0.944986
C659	C	1.359270	0.648247	1.194986
C660	C	1.609270	0.898247	1.444986
N661	N	0.886991	0.120541	0.672385
N662	N	1.136991	0.370541	0.922385
N663	N	1.386991	0.620541	1.172385
N664	N	1.636991	0.870541	1.422385
C665	C	0.825859	0.181595	1.060813
C666	C	1.075859	0.431595	1.310813
C667	C	1.325859	0.681595	1.560813
C668	C	1.575859	0.931595	1.810813
N669	N	0.853581	0.153889	1.083450
N670	N	1.103581	0.403889	1.333450
N671	N	1.353581	0.653889	1.583450
N672	N	1.603581	0.903889	1.833450
H673	H	0.694881	0.312471	1.052955
H674	H	0.944881	0.562471	1.302955
H675	H	1.194881	0.812471	1.552955
H676	H	1.444881	1.062471	1.802955
H677	H	0.661345	0.345963	0.702710
H678	H	0.911345	0.595963	0.952710
H679	H	1.161345	0.845963	1.202710
H680	H	1.411345	1.095963	1.452710
