data_functionalizedCrystal
_audit_creation_method	'MofGen! by Chris Wilmer'
_symmetry_space_group_name_H-M	'P1'
_symmetry_Int_Tables_number	1
_symmetry_cell_setting	triclinic
loop_
_symmetry_equiv_pos_as_xyz
  x,y,z
_cell_length_a	9.065215
_cell_length_b	11.026607
_cell_length_c	7.540329
_cell_angle_alpha	89.998289
_cell_angle_beta	89.997574
_cell_angle_gamma	96.800357
loop_
_atom_site_label
_atom_site_type_symbol
_atom_site_fract_x
_atom_site_fract_y
_atom_site_fract_z
O1	O	2.004898	0.178436	-0.147456
O2	O	1.579264	0.193077	-0.147464
O3	O	1.756805	0.008716	-0.147454
O4	O	1.827357	0.362797	-0.147466
O5	O	1.756791	0.008714	0.147511
O6	O	1.579250	0.193075	0.147502
O7	O	2.004884	0.178433	0.147509
Cu8	Cu	1.792066	0.185754	0.174438
Cu9	Cu	1.792082	0.185757	-0.174392
O10	O	1.827343	0.362795	0.147499
C11	C	1.523920	0.191670	0.000018
C12	C	1.359028	0.187465	0.000015
C13	C	1.743782	-0.036639	0.000026
C14	C	1.704982	-0.171779	0.000019
C15	C	1.812116	-0.244408	0.000019
C16	C	1.772017	-0.384083	0.000011
C17	C	2.060229	0.179841	0.000024
C18	C	2.225120	0.184046	0.000015
C19	C	1.840366	0.408150	0.000015
C20	C	1.879166	0.543290	0.000011
N21	N	1.792065	0.185751	0.419786
N22	N	1.792093	0.185750	-0.419741
H23	H	1.933523	-0.203183	0.000032
O24	O	2.024070	-0.407691	0.000253
C25	C	2.094873	-0.446542	0.153043
H26	H	2.031299	-0.535088	0.203970
H27	H	2.213457	-0.462673	0.118689
H28	H	2.097117	-0.373285	0.260016
O29	O	1.627242	-0.433446	0.000081
C30	C	1.619433	-0.561914	0.000025
H31	H	1.727043	-0.590336	0.055870
H32	H	1.521996	-0.601957	0.085653
H33	H	1.602946	-0.597332	-0.141489
H34	H	1.583575	-0.213004	0.000005
