data_functionalizedCrystal
_audit_creation_method	'MofGen! by Chris Wilmer'
_symmetry_space_group_name_H-M	'P1'
_symmetry_Int_Tables_number	1
_symmetry_cell_setting	triclinic
loop_
_symmetry_equiv_pos_as_xyz
  x,y,z
_cell_length_a	19.805407
_cell_length_b	13.032721
_cell_length_c	19.805407
_cell_angle_alpha	82.831252
_cell_angle_beta	90.009221
_cell_angle_gamma	97.204665
loop_
_atom_site_label
_atom_site_type_symbol
_atom_site_fract_x
_atom_site_fract_y
_atom_site_fract_z
Zn1	Zn	1.000446	-0.416228	0.416956
Zn2	Zn	1.500446	0.083772	0.916956
Zn3	Zn	0.986017	-0.590950	0.318140
Zn4	Zn	1.486017	-0.090950	0.818140
Zn5	Zn	0.887282	-0.416213	0.303780
Zn6	Zn	1.387282	0.083787	0.803780
Zn7	Zn	0.872860	-0.590938	0.431286
Zn8	Zn	1.372860	-0.090938	0.931286
O9	O	0.936651	-0.503582	0.367540
O10	O	1.436651	-0.003582	0.867540
O11	O	1.093248	-0.439417	0.403861
O12	O	1.593248	0.060583	0.903861
O13	O	0.972916	-0.567770	0.221518
O14	O	1.472916	-0.067770	0.721518
O15	O	0.914368	-0.269971	0.306786
O16	O	1.414368	0.230029	0.806786
O17	O	1.082646	-0.567784	0.331261
O18	O	1.582646	-0.067784	0.831261
O19	O	0.997509	-0.269982	0.389937
O20	O	1.497509	0.230018	0.889937
O21	O	0.900377	-0.439392	0.210968
O22	O	1.400377	0.060608	0.710968
O23	O	0.790654	-0.439380	0.320681
O24	O	1.290654	0.060620	0.820681
O25	O	0.889788	-0.567763	0.524102
O26	O	1.389788	-0.067763	1.024102
O27	O	0.780058	-0.567749	0.414359
O28	O	1.280058	-0.067749	0.914359
O29	O	0.983525	-0.439405	0.513574
O30	O	1.483525	0.060595	1.013574
O31	O	0.958932	-0.737193	0.345156
O32	O	1.458932	-0.237193	0.845156
O33	O	0.875796	-0.737184	0.428283
O34	O	1.375796	-0.237184	0.928283
C35	C	0.760797	-0.503562	0.367517
C36	C	1.260797	-0.003562	0.867517
C37	C	0.685564	-0.503579	0.367525
C38	C	1.185564	-0.003579	0.867525
C39	C	0.644712	-0.570521	0.416241
C40	C	1.144712	-0.070521	0.916241
C41	C	0.574023	-0.570523	0.416251
C42	C	1.074023	-0.070523	0.916251
C43	C	0.544187	-0.503587	0.367541
C44	C	1.044187	-0.003587	0.867541
C45	C	0.585045	-0.436637	0.318822
C46	C	1.085045	0.063363	0.818822
C47	C	0.655733	-0.436631	0.318816
C48	C	1.155733	0.063369	0.818816
C49	C	0.299970	-0.436660	0.318846
C50	C	0.799970	0.063340	0.818846
C51	C	0.229276	-0.436674	0.318855
C52	C	0.729276	0.063326	0.818855
C53	C	0.218260	-0.570553	0.416281
C54	C	0.718260	-0.070553	0.916281
C55	C	0.288948	-0.570546	0.416275
C56	C	0.788948	-0.070546	0.916275
C57	C	0.329800	-0.503593	0.367559
C58	C	0.829800	-0.003593	0.867559
C59	C	0.406448	-0.503590	0.367550
C60	C	0.906448	-0.003590	0.867550
C61	C	0.467540	-0.503594	0.367546
C62	C	0.967540	-0.003594	0.867546
C63	C	0.914252	-0.775108	0.389847
C64	C	1.414252	-0.275108	0.889847
C65	C	0.904731	-0.891267	0.399413
C66	C	1.404731	-0.391267	0.899413
C67	C	0.941656	-0.943025	0.362579
C68	C	1.441656	-0.443025	0.862579
C69	C	0.931817	-1.063082	0.372464
C70	C	1.431817	-0.563082	0.872464
C71	C	1.113192	-0.503603	0.367565
C72	C	1.613192	-0.003603	0.867565
C73	C	1.188424	-0.503612	0.367575
C74	C	1.688424	-0.003612	0.867575
C75	C	0.936657	-0.503584	0.544083
C76	C	1.436657	-0.003584	1.044083
C77	C	0.936660	-0.503585	0.619315
C78	C	1.436660	-0.003585	1.119315
C79	C	0.959157	-0.230997	0.345161
C80	C	1.459157	0.269003	0.845161
C81	C	0.968748	-0.114837	0.335625
C82	C	1.468748	0.385163	0.835625
C83	C	0.985462	-0.436759	0.649180
C84	C	1.485462	0.063241	1.149180
C85	C	0.985457	-0.436756	0.719868
C86	C	1.485457	0.063244	1.219868
C87	C	0.936651	-0.503585	0.760691
C88	C	1.436651	-0.003585	1.260691
C89	C	0.887844	-0.570414	0.730822
C90	C	1.387844	-0.070414	1.230822
C91	C	0.887847	-0.570411	0.660135
C92	C	1.387847	-0.070411	1.160135
C93	C	0.887829	-0.570426	1.015896
C94	C	1.387829	-0.070426	1.515896
C95	C	0.887831	-0.570426	1.086588
C96	C	1.387831	-0.070426	1.586588
C97	C	0.985439	-0.436771	1.075630
C98	C	1.485439	0.063229	1.575630
C99	C	0.985442	-0.436768	1.004942
C100	C	1.485442	0.063232	1.504942
C101	C	0.936633	-0.503593	0.975079
C102	C	1.436633	-0.003593	1.475079
C103	C	0.936639	-0.503594	0.898431
C104	C	1.436639	-0.003594	1.398431
C105	C	0.936648	-0.503590	0.837338
C106	C	1.436648	-0.003590	1.337338
C107	C	0.936637	-0.503601	1.191686
C108	C	1.436637	-0.003601	1.691686
C109	C	0.936631	-0.503594	1.116453
C110	C	1.436631	-0.003594	1.616453
H111	H	0.184990	-0.625065	0.455951
H112	H	0.684990	-0.125065	0.955951
H113	H	0.540764	-0.625035	0.455920
H114	H	1.040764	-0.125035	0.955920
H115	H	0.848101	-0.624817	0.635820
H116	H	1.348101	-0.124817	1.135820
H117	H	0.204987	-0.382160	0.279189
H118	H	0.704987	0.117840	0.779189
F119	F	0.553290	-0.365392	0.266984
F120	F	1.053290	0.134608	0.766984
F121	F	1.037419	-0.365667	0.751651
F122	F	1.537419	0.134333	1.251651
H123	H	0.848103	-0.624823	0.764065
H124	H	1.348103	-0.124823	1.264065
F125	F	0.343438	-0.365400	0.266999
F126	F	0.843438	0.134600	0.766999
F127	F	0.676458	-0.641770	0.468083
F128	F	1.176458	-0.141770	0.968083
H129	H	0.688994	-0.382114	0.279149
H130	H	1.188994	0.117886	0.779149
H131	H	0.980557	-0.898457	0.323727
H132	H	1.480557	-0.398457	0.823727
H133	H	0.892919	-1.107648	0.411324
H134	H	1.392919	-0.607648	0.911324
H135	H	1.007651	-1.070272	0.296770
H136	H	1.507651	-0.570272	0.796770
H137	H	1.025207	-0.382343	0.615946
H138	H	1.525207	0.117657	1.115946
H139	H	0.865836	-0.935838	0.438270
H140	H	1.365836	-0.435838	0.938270
H141	H	1.025187	-0.382353	0.971707
H142	H	1.525187	0.117647	1.471707
H143	H	1.025180	-0.382356	1.099952
H144	H	1.525180	0.117644	1.599952
F145	F	0.835883	-0.641558	1.130035
F146	F	1.335883	-0.141558	1.630035
H147	H	0.313236	-0.625056	0.455938
H148	H	0.813236	-0.125056	0.955938
H149	H	0.848094	-0.624854	0.991592
H150	H	1.348094	-0.124854	1.491592
