data_functionalizedCrystal
_audit_creation_method	'MofGen! by Chris Wilmer'
_symmetry_space_group_name_H-M	'P1'
_symmetry_Int_Tables_number	1
_symmetry_cell_setting	triclinic
loop_
_symmetry_equiv_pos_as_xyz
  x,y,z
_cell_length_a	16.109301
_cell_length_b	10.540539
_cell_length_c	14.586319
_cell_angle_alpha	89.998343
_cell_angle_beta	89.999213
_cell_angle_gamma	83.993486
loop_
_atom_site_label
_atom_site_type_symbol
_atom_site_fract_x
_atom_site_fract_y
_atom_site_fract_z
O1	O	1.104129	0.163159	-0.076178
O2	O	0.862191	0.183464	-0.076192
O3	O	0.988679	-0.011474	-0.076184
O4	O	0.977640	0.358096	-0.076186
O5	O	0.988670	-0.011477	0.076297
O6	O	0.862182	0.183461	0.076289
O7	O	1.104120	0.163156	0.076303
Cu8	Cu	0.983150	0.173308	0.090219
Cu9	Cu	0.983160	0.173312	-0.090108
O10	O	0.977631	0.358094	0.076294
C11	C	0.831206	0.182640	0.000047
C12	C	0.738896	0.180174	0.000041
C13	C	0.517296	0.290112	0.000051
C14	C	0.430561	0.287785	0.000057
C15	C	0.449021	0.056499	0.000055
C16	C	0.535754	0.058827	0.000055
C17	C	0.569889	0.175637	0.000049
C18	C	0.396421	0.170982	0.000054
C19	C	0.302380	0.168459	0.000060
C20	C	0.663936	0.178162	0.000044
C21	C	0.987847	-0.058767	0.000055
C22	C	0.985370	-0.199679	0.000050
C23	C	0.890460	-0.381753	-0.000298
C24	C	0.892971	-0.235171	0.000046
C25	C	1.029832	-0.261973	0.087127
C26	C	1.026678	-0.408472	0.087200
C27	C	1.028567	-0.409014	-0.086199
C28	C	1.029419	-0.262044	-0.087350
C29	C	1.135104	0.163980	0.000062
C30	C	1.227414	0.166446	0.000062
C31	C	0.978463	0.405386	0.000054
C32	C	0.980940	0.546299	0.000053
N33	N	0.983149	0.173305	0.217050
N34	N	0.983168	0.173305	-0.216939
C35	C	1.039177	0.087015	0.452060
C36	C	1.039179	0.087012	0.548042
C37	C	0.927134	0.259598	0.548044
C38	C	0.927129	0.259594	0.452064
C39	C	0.983154	0.173304	0.404075
C40	C	0.983163	0.173305	0.596036
C41	C	0.983165	0.173303	0.700103
C42	C	0.983151	0.173305	0.300001
H43	H	0.578578	-0.034398	0.000056
O44	O	0.846615	-0.178056	-0.082622
H45	H	0.822195	-0.255124	-0.123205
O46	O	0.373832	0.411253	0.000061
H47	H	0.386045	0.467152	-0.062091
H48	H	0.545085	0.385227	0.000052
O49	O	1.099581	-0.006089	0.400304
H50	H	1.090166	0.008399	0.325501
O51	O	0.412206	-0.069488	0.000055
H52	H	0.343059	-0.051877	0.000047
H53	H	0.853964	-0.409832	-0.062742
O54	O	0.866694	0.352654	0.400296
H55	H	0.902049	0.414352	0.356549
O56	O	0.842299	-0.421052	0.081953
H57	H	0.882525	-0.491603	0.123083
H58	H	0.857734	-0.192914	0.062566
O59	O	0.983135	-0.445222	0.173407
H60	H	0.964521	-0.358396	0.214649
O61	O	1.114695	-0.473283	0.092460
H62	H	1.159320	-0.399945	0.094947
H63	H	1.097687	-0.240586	0.090368
H64	H	0.998939	-0.218934	0.151923
O65	O	0.988962	-0.450225	-0.173627
H66	H	0.934883	-0.503024	-0.156576
H67	H	0.996887	-0.220721	-0.151767
H68	H	1.096785	-0.238783	-0.092605
H69	H	1.095307	-0.457191	-0.086781
O70	O	1.099613	-0.006040	0.599801
H71	H	1.138574	-0.066028	0.550303
O72	O	0.866717	0.352681	0.599802
H73	H	0.876139	0.338200	0.674605
