data_functionalizedCrystal
_audit_creation_method	'MofGen! by Chris Wilmer'
_symmetry_space_group_name_H-M	'P1'
_symmetry_Int_Tables_number	1
_symmetry_cell_setting	triclinic
loop_
_symmetry_equiv_pos_as_xyz
  x,y,z
_cell_length_a	9.565339
_cell_length_b	11.026607
_cell_length_c	10.967829
_cell_angle_alpha	83.619437
_cell_angle_beta	102.127646
_cell_angle_gamma	89.996104
loop_
_atom_site_label
_atom_site_type_symbol
_atom_site_fract_x
_atom_site_fract_y
_atom_site_fract_z
O1	O	0.242379	-1.614527	0.523496
O2	O	0.228020	-1.260724	0.463885
O3	O	0.191873	-1.445784	0.313876
O4	O	0.278526	-1.429467	0.673505
O5	O	-0.040645	-1.445770	0.313885
O6	O	-0.004498	-1.260709	0.463894
O7	O	0.009861	-1.614513	0.523505
Zn8	Zn	-0.034236	-1.437609	0.493701
Zn9	Zn	0.272117	-1.437628	0.493689
O10	O	0.046008	-1.429452	0.673514
C11	C	0.109111	-1.215414	0.452892
C12	C	0.101214	-1.080427	0.420109
C13	C	0.064351	-1.444589	0.267124
C14	C	0.030790	-1.441033	0.127803
N15	N	-0.243313	-1.437604	0.493710
C16	C	-0.317808	-1.351994	0.563049
C17	C	-0.399197	-1.462061	0.611985
C18	C	-0.439475	-1.327585	0.444793
C19	C	-0.322634	-1.547727	0.542715
C20	C	-0.362919	-1.413178	0.375458
C21	C	-0.444273	-1.523325	0.424364
N22	N	0.481192	-1.437642	0.493672
C23	C	0.128772	-1.659822	0.534498
C24	C	0.136679	-1.794810	0.567281
C25	C	0.123026	-1.007376	0.510629
C26	C	0.114864	-0.867859	0.476748
C27	C	0.136281	-1.439456	0.065691
C28	C	0.101597	-1.435781	-0.078305
C29	C	0.173533	-1.430648	0.720265
C30	C	0.207102	-1.434204	0.859587
H31	H	-0.416072	-1.482746	0.711975
H32	H	0.161388	-0.835549	0.669869
H33	H	-0.262804	-1.279663	0.621770
H34	H	0.076533	-1.039680	0.317528
N35	N	-0.255390	-1.671022	0.597663
H36	H	-0.302548	-1.735754	0.545709
H37	H	-0.149879	-1.670127	0.597375
N38	N	0.082127	-0.813914	0.340855
H39	H	-0.014440	-0.841846	0.297809
H40	H	0.081015	-0.721906	0.336014
H41	H	0.252272	-1.440820	0.119118
H42	H	-0.014402	-1.434403	-0.131728
H43	H	0.323102	-1.435559	-0.086993
N44	N	-0.122860	-1.439224	0.057052
H45	H	-0.143157	-1.362605	-0.004054
H46	H	-0.139774	-1.513127	0.009598
N47	N	-0.516783	-1.619340	0.346684
H48	H	-0.473744	-1.702377	0.383767
H49	H	-0.622399	-1.618246	0.346523
N50	N	-0.340514	-1.385746	0.243040
H51	H	-0.383258	-1.302562	0.206165
H52	H	-0.234691	-1.386801	0.244076
H53	H	-0.490402	-1.234528	0.403439
N54	N	0.155758	-1.061332	0.646513
H55	H	0.156947	-1.153351	0.651455
H56	H	0.252310	-1.033315	0.689480
