data_functionalizedCrystal
_audit_creation_method	'MofGen! by Chris Wilmer'
_symmetry_space_group_name_H-M	'P1'
_symmetry_Int_Tables_number	1
_symmetry_cell_setting	triclinic
loop_
_symmetry_equiv_pos_as_xyz
  x,y,z
_cell_length_a	16.109302
_cell_length_b	14.853567
_cell_length_c	15.186229
_cell_angle_alpha	90.000050
_cell_angle_beta	89.994701
_cell_angle_gamma	83.548356
loop_
_atom_site_label
_atom_site_type_symbol
_atom_site_fract_x
_atom_site_fract_y
_atom_site_fract_z
O1	O	1.103293	0.115884	-0.073261
O2	O	1.603293	0.615884	0.426739
O3	O	0.861251	0.130304	-0.073253
O4	O	1.361251	0.630304	0.426747
O5	O	0.988738	-0.008146	-0.073260
O6	O	1.488738	0.491854	0.426740
O7	O	0.975807	0.254334	-0.073254
O8	O	1.475807	0.754334	0.426746
O9	O	0.988729	-0.008148	0.073198
O10	O	1.488729	0.491852	0.573198
O11	O	0.861243	0.130302	0.073204
O12	O	1.361243	0.630302	0.573204
O13	O	1.103285	0.115882	0.073197
O14	O	1.603285	0.615882	0.573197
Zn15	Zn	0.982262	0.123092	0.096454
Zn16	Zn	1.482262	0.623092	0.596454
Zn17	Zn	0.982274	0.123094	-0.096510
Zn18	Zn	1.482274	0.623094	0.403490
O19	O	0.975798	0.254332	0.073203
O20	O	1.475798	0.754332	0.573203
C21	C	0.830271	0.129719	-0.000023
C22	C	1.330271	0.629719	0.499977
C23	C	0.737974	0.127967	-0.000021
C24	C	1.237974	0.627967	0.499979
C25	C	0.525622	0.123916	0.079804
C26	C	1.025622	0.623916	0.579804
C27	C	0.438900	0.122261	0.079801
C28	C	0.938900	0.622261	0.579801
C29	C	0.438920	0.122267	-0.079874
C30	C	0.938920	0.622267	0.420126
C31	C	0.525641	0.123916	-0.079870
C32	C	1.025641	0.623916	0.420130
C33	C	0.568990	0.124745	-0.000028
C34	C	1.068990	0.624745	0.499972
C35	C	0.395546	0.121441	-0.000035
C36	C	0.895546	0.621441	0.499965
C37	C	0.301518	0.119646	-0.000039
C38	C	0.801518	0.619646	0.499961
C39	C	0.663024	0.126539	-0.000024
C40	C	1.163024	0.626539	0.499976
C41	C	0.988147	-0.041735	-0.000033
C42	C	1.488147	0.458265	0.499967
C43	C	0.986392	-0.141816	-0.000041
C44	C	1.486392	0.358184	0.499959
C45	C	0.903240	-0.554213	-0.000022
C46	C	1.403240	-0.054213	0.499978
C47	C	1.054697	-0.575743	-0.000027
C48	C	1.554697	-0.075743	0.499973
C49	C	1.056348	-0.481712	-0.000032
C50	C	1.556348	0.018288	0.499968
C51	C	0.981444	-0.423927	-0.000031
C52	C	1.481444	0.076073	0.499969
C53	C	0.904889	-0.460173	-0.000024
C54	C	1.404889	0.039827	0.499976
C55	C	1.132901	-0.445459	-0.000029
C56	C	1.632901	0.054541	0.499971
C57	C	1.134555	-0.351423	-0.000034
C58	C	1.634555	0.148577	0.499966
C59	C	1.059650	-0.293636	-0.000039
C60	C	1.559650	0.206364	0.499961
C61	C	0.983092	-0.329887	-0.000033
C62	C	1.483092	0.170113	0.499967
C63	C	0.908188	-0.272102	-0.000032
C64	C	1.408188	0.227898	0.499968
C65	C	0.831630	-0.308351	-0.000033
C66	C	1.331630	0.191649	0.499967
C67	C	0.829984	-0.402385	-0.000029
C68	C	1.329984	0.097615	0.499971
C69	C	1.061296	-0.199601	-0.000042
C70	C	1.561296	0.300399	0.499958
C71	C	0.909837	-0.178062	-0.000035
C72	C	1.409837	0.321938	0.499965
C73	C	1.134264	0.116467	-0.000035
C74	C	1.634264	0.616467	0.499965
C75	C	1.226562	0.118219	-0.000043
C76	C	1.726562	0.618219	0.499957
C77	C	0.976389	0.287921	-0.000025
C78	C	1.476389	0.787921	0.499975
C79	C	0.978144	0.388002	-0.000023
C80	C	1.478144	0.888002	0.499977
N81	N	0.982261	0.123089	0.228146
N82	N	1.482261	0.623089	0.728146
N83	N	0.982282	0.123090	-0.228203
N84	N	1.482282	0.623090	0.271797
C85	C	1.038731	0.061804	0.453866
C86	C	1.538731	0.561804	0.953866
C87	C	1.038733	0.061802	0.546056
C88	C	1.538733	0.561802	1.046056
C89	C	0.925806	0.184378	0.546071
C90	C	1.425806	0.684378	1.046071
C91	C	0.925800	0.184375	0.453883
C92	C	1.425800	0.684375	0.953883
C93	C	0.982267	0.123089	0.407783
C94	C	1.482267	0.623089	0.907783
C95	C	0.982276	0.123090	0.592161
C96	C	1.482276	0.623090	1.092161
C97	C	0.982278	0.123088	0.692117
C98	C	1.482278	0.623088	1.192117
C99	C	0.982264	0.123090	0.307821
C100	C	1.482264	0.623090	0.807821
H101	H	0.403615	0.121593	-0.144879
H102	H	0.903615	0.621593	0.355121
H103	H	0.403594	0.121586	0.144809
H104	H	0.903594	0.621586	0.644809
N105	N	0.572373	0.124801	0.165920
N106	N	1.072373	0.624801	0.665920
H107	H	0.615031	0.069633	0.169477
H108	H	1.115031	0.569633	0.669477
H109	H	0.601623	0.181375	0.169436
H110	H	1.101623	0.681375	0.669436
N111	N	0.572425	0.124800	-0.165980
N112	N	1.072425	0.624800	0.334020
H113	H	0.531806	0.124029	-0.216560
H114	H	1.031806	0.624029	0.283440
H115	H	0.601735	0.181336	-0.169455
H116	H	1.101735	0.681336	0.330545
H117	H	0.879832	0.234277	0.583615
H118	H	1.379832	0.734277	1.083615
N119	N	1.099622	-0.004316	0.404156
N120	N	1.599622	0.495684	0.904156
H121	H	1.067798	-0.044243	0.365920
H122	H	1.567798	0.455757	0.865920
H123	H	1.136466	0.030193	0.365947
H124	H	1.636466	0.530193	0.865947
H125	H	0.879816	0.234281	0.416360
H126	H	1.379816	0.734281	0.916360
H127	H	1.123628	-0.170091	-0.000036
H128	H	1.623628	0.329909	0.499964
H129	H	0.848840	-0.131018	-0.000037
H130	H	1.348840	0.368982	0.499963
H131	H	1.084710	0.011897	0.583574
H132	H	1.584710	0.511897	1.083574
H133	H	0.770643	-0.261290	-0.000026
H134	H	1.270643	0.238710	0.499974
N135	N	0.747416	-0.441482	-0.000027
N136	N	1.247416	0.058518	0.499973
H137	H	0.757740	-0.509820	-0.000020
H138	H	1.257740	-0.009820	0.499980
H139	H	0.714634	-0.420339	0.054268
H140	H	1.214634	0.079661	0.554268
N141	N	0.820669	-0.593302	-0.000027
N142	N	1.320669	-0.093302	0.499973
H143	H	0.830986	-0.661641	-0.000028
H144	H	1.330986	-0.161641	0.499972
H145	H	0.787885	-0.572162	0.054268
H146	H	1.287885	-0.072162	0.554268
N147	N	1.135482	-0.638063	-0.000014
N148	N	1.635482	-0.138063	0.499986
H149	H	1.122822	-0.703134	-0.000007
H150	H	1.622822	-0.203134	0.499993
H151	H	1.168846	-0.626337	-0.054308
H152	H	1.668846	-0.126337	0.445692
N153	N	1.213686	-0.507781	-0.000015
N154	N	1.713686	-0.007781	0.499985
H155	H	1.201023	-0.572851	-0.000015
H156	H	1.701023	-0.072851	0.499985
H157	H	1.247055	-0.496051	-0.054304
H158	H	1.747055	0.003949	0.445696
N159	N	1.217123	-0.312328	-0.000033
N160	N	1.717123	0.187672	0.499967
H161	H	1.264323	-0.363205	-0.000032
H162	H	1.764323	0.136795	0.499968
H163	H	1.221110	-0.273787	-0.054329
H164	H	1.721110	0.226213	0.445671
