data_functionalizedCrystal
_audit_creation_method	'MofGen! by Chris Wilmer'
_symmetry_space_group_name_H-M	'P1'
_symmetry_Int_Tables_number	1
_symmetry_cell_setting	triclinic
loop_
_symmetry_equiv_pos_as_xyz
  x,y,z
_cell_length_a	17.639664
_cell_length_b	19.805405
_cell_length_c	17.640968
_cell_angle_alpha	101.231546
_cell_angle_beta	87.861045
_cell_angle_gamma	101.262500
loop_
_atom_site_label
_atom_site_type_symbol
_atom_site_fract_x
_atom_site_fract_y
_atom_site_fract_z
Zn1	Zn	-1.247824	0.019362	-0.195101
Zn2	Zn	-1.222023	0.159013	-0.068118
Zn3	Zn	-1.095141	0.063402	-0.093744
Zn4	Zn	-1.120762	0.150110	-0.220698
O5	O	-1.171437	0.097972	-0.144415
O6	O	-1.350678	0.023181	-0.156819
O7	O	-1.183672	0.168487	0.034756
O8	O	-1.115469	-0.037171	-0.107202
O9	O	-1.331723	0.125782	-0.063525
O10	O	-1.227645	-0.069528	-0.181668
O11	O	-1.090451	0.098242	0.015929
O12	O	-0.992263	0.089610	-0.132022
O13	O	-1.159137	0.110609	-0.323576
O14	O	-1.011087	0.153313	-0.225295
O15	O	-1.252489	0.014549	-0.304770
O16	O	-1.208516	0.252563	-0.088345
O17	O	-1.134120	0.246022	-0.200446
C18	C	-0.974118	0.125275	-0.184217
C19	C	-0.889708	0.136968	-0.201263
C20	C	-0.780540	0.186692	-0.273766
C21	C	-0.859855	0.175701	-0.257743
C22	C	-0.840251	0.109207	-0.160785
C23	C	-0.760933	0.120190	-0.176802
C24	C	-0.731084	0.158933	-0.233293
C25	C	-0.711477	0.092431	-0.136329
C26	C	-0.632166	0.103416	-0.152343
C27	C	-0.602310	0.142160	-0.208829
C28	C	-0.651772	0.169918	-0.249306
C29	C	-0.741327	0.053692	-0.079835
C30	C	-0.691872	0.025934	-0.039362
C31	C	-0.612559	0.036914	-0.055379
C32	C	-0.582703	0.075658	-0.111865
C33	C	-0.563097	0.009156	-0.014902
C34	C	-0.483785	0.020141	-0.030915
C35	C	-0.503392	0.086643	-0.127879
C36	C	-1.171322	0.273850	-0.144405
C37	C	-1.171347	0.349076	-0.144412
C38	C	-1.211549	0.056673	-0.342499
C39	C	-1.228643	0.039074	-0.426910
C40	C	-0.369526	0.070563	-0.104452
C41	C	-0.453936	0.058884	-0.087406
C42	C	-1.229732	0.367511	-0.183230
C43	C	-1.229753	0.438194	-0.183238
C44	C	-1.171392	0.490442	-0.144423
C45	C	-1.113002	0.472003	-0.105604
C46	C	-1.112978	0.401321	-0.105601
C47	C	-1.113094	0.757058	-0.105617
C48	C	-1.113123	0.827744	-0.105622
C49	C	-1.229868	0.793931	-0.183255
C50	C	-1.229845	0.723249	-0.183252
C51	C	-1.171453	0.704816	-0.144436
C52	C	-1.171430	0.628173	-0.144429
C53	C	-1.171417	0.567084	-0.144426
C54	C	-1.171544	0.921407	-0.144438
C55	C	-1.171505	0.846180	-0.144445
C56	C	-1.041873	0.231261	-0.753480
C57	C	-1.057951	0.214713	-0.832794
C58	C	-1.155150	0.114695	-0.813202
C59	C	-1.139077	0.131232	-0.733886
C60	C	-1.082439	0.189517	-0.704031
C61	C	-1.179643	0.089487	-0.684436
C62	C	-1.163575	0.106026	-0.605126
C63	C	-1.106941	0.164309	-0.575264
C64	C	-1.066370	0.206055	-0.624720
C65	C	-1.236286	0.031206	-0.714292
C66	C	-1.276852	-0.010539	-0.664843
C67	C	-1.260780	0.005997	-0.585532
C68	C	-1.204145	0.064280	-0.555670
C69	C	-1.301350	-0.035749	-0.536076
C70	C	-1.285281	-0.019211	-0.456765
C71	C	-1.188077	0.080818	-0.476360
C72	C	-1.131525	0.139055	0.052907
C73	C	-1.114579	0.156443	0.137347
H74	H	-0.479089	0.118183	-0.173886
H75	H	-0.716186	-0.005609	0.006635
Cl76	Cl	-1.372558	-0.109012	-0.573616
H77	H	-0.756237	0.218232	-0.319774
H78	H	-1.141938	0.128266	-0.452054
H79	H	-1.318313	-0.053204	-0.416502
H80	H	-1.020231	0.253503	-0.600415
Cl81	Cl	-0.877784	0.060504	-0.089771
Cl82	Cl	-1.303274	0.817108	-0.232057
H83	H	-1.065550	0.742057	-0.074011
Cl84	Cl	-0.970662	0.304530	-0.715943
Cl85	Cl	-1.039748	0.893428	-0.056823
H86	H	-1.065481	0.514549	-0.074004
H87	H	-1.201267	0.067241	-0.837521
Cl88	Cl	-1.086743	0.185105	-0.475558
Cl89	Cl	-1.039577	0.378146	-0.056799
H90	H	-1.024913	0.248711	-0.873054
H91	H	-0.537729	0.151104	-0.221865
Cl92	Cl	-1.256488	0.010417	-0.813998
H93	H	-1.322969	-0.057992	-0.689161
H94	H	-1.277300	0.453199	-0.214841
H95	H	-0.627470	0.201459	-0.295314
Cl96	Cl	-0.600630	-0.039540	0.056119
H97	H	-0.900121	0.198307	-0.290707
H98	H	-0.805908	0.044751	-0.066798
H99	H	-1.277259	0.324973	-0.214834
Cl100	Cl	-0.421607	-0.014751	0.019971
H101	H	-1.277370	0.680710	-0.214855
