data_functionalizedCrystal
_audit_creation_method	'MofGen! by Chris Wilmer'
_symmetry_space_group_name_H-M	'P1'
_symmetry_Int_Tables_number	1
_symmetry_cell_setting	triclinic
loop_
_symmetry_equiv_pos_as_xyz
  x,y,z
_cell_length_a	19.077105
_cell_length_b	16.625546
_cell_length_c	19.076919
_cell_angle_alpha	92.269917
_cell_angle_beta	90.076224
_cell_angle_gamma	87.718759
loop_
_atom_site_label
_atom_site_type_symbol
_atom_site_fract_x
_atom_site_fract_y
_atom_site_fract_z
Zn1	Zn	1.058283	-0.390077	-0.440407
Zn2	Zn	1.062927	-0.519720	-0.322896
Zn3	Zn	0.945500	-0.379275	-0.318200
Zn4	Zn	0.940748	-0.519234	-0.435649
O5	O	1.001864	-0.452076	-0.379288
O6	O	1.157231	-0.411998	-0.428775
O7	O	1.051282	-0.496773	-0.223942
O8	O	0.960506	-0.267879	-0.334437
O9	O	1.160642	-0.507246	-0.342441
O10	O	1.043367	-0.275815	-0.424222
O11	O	0.965009	-0.393589	-0.220492
O12	O	0.846538	-0.393117	-0.329824
O13	O	0.952407	-0.506418	-0.534611
O14	O	0.843047	-0.495944	-0.416113
O15	O	1.038759	-0.411527	-0.538107
O16	O	1.046674	-0.632485	-0.337827
O17	O	0.956910	-0.632127	-0.420666
C18	C	0.819296	-0.443306	-0.371943
C19	C	0.741192	-0.439575	-0.368817
C20	C	0.702702	-0.491432	-0.412204
C21	C	0.629314	-0.487916	-0.409270
C22	C	0.594418	-0.432544	-0.362946
C23	C	0.632913	-0.380681	-0.319557
C24	C	0.706299	-0.384194	-0.322495
C25	C	0.375130	-0.416284	-0.349354
C26	C	0.301739	-0.412776	-0.346418
C27	C	0.298145	-0.520010	-0.436133
C28	C	0.371533	-0.523522	-0.439063
C29	C	0.410021	-0.471655	-0.395677
N30	N	0.519405	-0.428950	-0.359945
N31	N	0.485034	-0.475247	-0.398682
C32	C	1.001799	-0.661563	-0.379256
C33	C	1.001834	-0.751186	-0.379268
C34	C	1.001954	-1.079371	-0.379346
C35	C	1.001918	-0.988060	-0.379327
C36	C	1.001894	-0.915281	-0.379307
C37	C	1.001859	-0.823965	-0.379288
C38	C	1.185146	-0.460881	-0.386662
C39	C	1.263249	-0.464634	-0.389805
C40	C	0.994535	-0.460123	-0.562568
C41	C	0.991412	-0.463552	-0.640671
C42	C	1.001948	-0.241774	-0.379336
C43	C	1.001984	-0.152155	-0.379357
C44	C	1.034901	-0.415760	-0.679185
C45	C	1.031958	-0.418978	-0.752571
C46	C	0.985529	-0.469993	-0.787441
C47	C	0.942035	-0.517786	-0.748922
C48	C	0.944975	-0.514563	-0.675537
C49	C	0.971911	-0.484926	-1.006722
C50	C	0.968976	-0.488147	-1.080112
C51	C	1.058898	-0.389338	-1.083755
C52	C	1.061837	-0.386123	-1.010369
C53	C	1.018341	-0.433913	-0.971856
N54	N	0.982521	-0.473286	-0.862453
N55	N	1.021346	-0.430616	-0.896846
C56	C	1.009205	-0.444005	-0.196723
C57	C	1.012465	-0.440356	-0.118626
H58	H	0.273329	-0.367677	-0.308699
H59	H	0.909554	-0.553472	-0.644180
H60	H	0.266800	-0.562235	-0.471456
H61	H	1.094310	-0.350429	-1.115120
H62	H	1.072711	-0.374221	-0.650799
C63	C	1.067361	-0.380022	-0.866681
C64	C	1.079753	-0.366433	-0.794906
H65	H	1.096863	-0.347572	-0.892815
H66	H	1.077150	-0.435207	-0.879113
H67	H	1.019666	-0.366487	-0.876793
H68	H	1.127447	-0.379974	-0.784793
H69	H	1.069969	-0.311235	-0.782469
H70	H	0.931165	-0.529691	-1.108501
C71	C	0.691770	-0.597067	-0.500594
C72	C	0.741056	-0.552297	-0.463128
H73	H	0.715448	-0.634637	-0.532037
H74	H	0.664360	-0.625138	-0.468785
H75	H	0.662083	-0.561786	-0.526378
H76	H	0.770739	-0.587577	-0.437340
H77	H	0.768477	-0.524224	-0.494942
H78	H	0.936503	-0.523853	-0.975374
H79	H	0.406459	-0.374056	-0.314021
H80	H	0.597979	-0.530145	-0.444600
C81	C	0.450296	-0.542985	-0.536873
C82	C	0.409886	-0.584382	-0.489992
H83	H	0.473975	-0.580561	-0.568311
H84	H	0.420604	-0.507721	-0.562655
H85	H	0.483722	-0.512610	-0.511445
H86	H	0.376455	-0.614753	-0.515419
H87	H	0.439580	-0.619660	-0.464207
H88	H	1.099647	-0.344584	-0.981983
C89	C	0.792598	-0.372629	-0.231301
C90	C	0.748614	-0.327195	-0.274802
H91	H	0.818723	-0.337436	-0.201862
H92	H	0.765030	-0.405148	-0.203220
H93	H	0.823876	-0.406107	-0.259320
H94	H	0.717332	-0.293722	-0.246783
H95	H	0.776184	-0.294662	-0.302886
C96	C	0.522015	-0.327680	-0.275219
C97	C	0.594557	-0.319812	-0.268639
H98	H	0.498339	-0.290104	-0.243780
H99	H	0.508118	-0.317464	-0.321965
H100	H	0.510393	-0.380806	-0.264364
H101	H	0.606181	-0.266687	-0.279499
H102	H	0.608460	-0.330022	-0.221883
H103	H	0.904228	-0.559320	-0.777319
