data_functionalizedCrystal
_audit_creation_method	'MofGen! by Chris Wilmer'
_symmetry_space_group_name_H-M	'P1'
_symmetry_Int_Tables_number	1
_symmetry_cell_setting	triclinic
loop_
_symmetry_equiv_pos_as_xyz
  x,y,z
_cell_length_a	18.215407
_cell_length_b	12.594516
_cell_length_c	18.215407
_cell_angle_alpha	90.007506
_cell_angle_beta	90.009037
_cell_angle_gamma	90.016501
loop_
_atom_site_label
_atom_site_type_symbol
_atom_site_fract_x
_atom_site_fract_y
_atom_site_fract_z
Zn1	Zn	1.125039	-0.423894	0.416146
Zn2	Zn	1.625039	0.076106	0.916146
Zn3	Zn	1.124989	-0.601846	0.293092
Zn4	Zn	1.624989	-0.101846	0.793092
Zn5	Zn	1.001994	-0.423883	0.293093
Zn6	Zn	1.501994	0.076117	0.793093
Zn7	Zn	1.001956	-0.601832	0.416117
Zn8	Zn	1.501956	-0.101832	0.916117
O9	O	1.063495	-0.512864	0.354612
O10	O	1.563495	-0.012864	0.854612
O11	O	1.228016	-0.447510	0.399834
O12	O	1.728016	0.052490	0.899834
O13	O	1.108669	-0.578240	0.190108
O14	O	1.608669	-0.078240	0.690108
O15	O	1.018353	-0.274939	0.309429
O16	O	1.518353	0.225061	0.809429
O17	O	1.227980	-0.578250	0.309427
O18	O	1.727980	-0.078250	0.809427
O19	O	1.108753	-0.274947	0.399835
O20	O	1.608753	0.225053	0.899835
O21	O	1.018305	-0.447492	0.190109
O22	O	1.518305	0.052508	0.690109
O23	O	0.899005	-0.447478	0.309401
O24	O	1.399005	0.052522	0.809401
O25	O	1.018288	-0.578227	0.519105
O26	O	1.518288	-0.078227	1.019105
O27	O	0.898977	-0.578216	0.399786
O28	O	1.398977	-0.078216	0.899786
O29	O	1.108716	-0.447496	0.519126
O30	O	1.608716	0.052504	1.019126
O31	O	1.108632	-0.750790	0.309399
O32	O	1.608632	-0.250790	0.809399
O33	O	1.018240	-0.750780	0.399785
O34	O	1.518240	-0.250780	0.899785
C35	C	0.872288	-0.512845	0.354591
C36	C	1.372288	-0.012845	0.854591
C37	C	0.790489	-0.512863	0.354599
C38	C	1.290489	-0.012863	0.854599
C39	C	0.602300	-0.581046	0.401603
C40	C	1.102300	-0.081046	0.901603
C41	C	0.525441	-0.581049	0.401613
C42	C	1.025441	-0.081049	0.901613
C43	C	0.525441	-0.444701	0.307636
C44	C	1.025441	0.055299	0.807636
C45	C	0.602298	-0.444693	0.307631
C46	C	1.102298	0.055307	0.807631
C47	C	0.640726	-0.512871	0.354614
C48	C	1.140726	-0.012871	0.854614
C49	C	0.487010	-0.512883	0.354628
C50	C	0.987010	-0.012883	0.854628
C51	C	0.403676	-0.512886	0.354637
C52	C	0.903676	-0.012886	0.854637
C53	C	0.724065	-0.512867	0.354605
C54	C	1.224065	-0.012867	0.854605
C55	C	1.063446	-0.789405	0.354605
C56	C	1.563446	-0.289405	0.854605
C57	C	1.063493	-0.907710	0.354626
C58	C	1.563493	-0.407710	0.854626
C59	C	1.014324	-0.976996	0.403752
C60	C	1.514324	-0.476996	0.903752
C61	C	0.996407	-1.047830	0.336599
C62	C	1.496407	-0.547830	0.836599
C63	C	1.081477	-1.047675	0.421790
C64	C	1.581477	-0.547675	0.921790
C65	C	1.045541	-0.976986	0.287438
C66	C	1.545541	-0.476986	0.787438
C67	C	1.130641	-0.976824	0.372674
C68	C	1.630641	-0.476824	0.872674
C69	C	1.112750	-1.047626	0.305475
C70	C	1.612750	-0.547626	0.805475
C71	C	1.255448	-0.512883	0.354633
C72	C	1.755448	-0.012883	0.854633
C73	C	1.337246	-0.512891	0.354643
C74	C	1.837246	-0.012891	0.854643
C75	C	1.063503	-0.512861	0.546565
C76	C	1.563503	-0.012861	1.046565
C77	C	1.063507	-0.512860	0.628364
C78	C	1.563507	-0.012860	1.128364
C79	C	1.063563	-0.235243	0.354635
C80	C	1.563563	0.264757	0.854635
C81	C	1.063592	-0.116937	0.354645
C82	C	1.563592	0.383063	0.854645
C83	C	1.110572	-0.444797	0.893433
C84	C	1.610572	0.055203	1.393433
C85	C	1.110578	-0.444797	0.816575
C86	C	1.610578	0.055203	1.316575
C87	C	1.016420	-0.580940	0.816542
C88	C	1.516420	-0.080940	1.316542
C89	C	1.016419	-0.580945	0.893400
C90	C	1.516419	-0.080945	1.393400
C91	C	1.063494	-0.512868	0.931843
C92	C	1.563494	-0.012868	1.431843
C93	C	1.063500	-0.512862	0.778127
C94	C	1.563500	-0.012862	1.278127
C95	C	1.063505	-0.512862	0.694793
C96	C	1.563505	-0.012862	1.194793
C97	C	1.063490	-0.512869	1.015182
C98	C	1.563490	-0.012869	1.515182
C99	C	1.063483	-0.512885	1.163405
C100	C	1.563483	-0.012885	1.663405
C101	C	1.063487	-0.512870	1.081607
C102	C	1.563487	-0.012870	1.581607
H103	H	0.633586	-0.636558	0.439862
H104	H	1.133586	-0.136558	0.939862
H105	H	0.494158	-0.636562	0.439877
H106	H	0.994158	-0.136562	0.939877
H107	H	0.633586	-0.389171	0.269366
H108	H	1.133586	0.110829	0.769366
H109	H	0.972669	-0.945982	0.445236
H110	H	1.472669	-0.445982	0.945236
N111	N	0.921247	-1.089134	0.316373
N112	N	1.421247	-0.589134	0.816373
H113	H	0.884101	-1.063448	0.353501
H114	H	1.384101	-0.563448	0.853501
H115	H	0.922025	-1.169315	0.316047
H116	H	1.422025	-0.669315	0.816047
H117	H	1.030305	-0.946064	0.230630
H118	H	1.530305	-0.446064	0.730630
H119	H	0.494144	-0.389194	0.269383
H120	H	0.994144	0.110806	0.769383
H121	H	1.154373	-1.078444	0.263890
H122	H	1.654373	-0.578444	0.763890
N123	N	1.205783	-0.935481	0.392914
N124	N	1.705783	-0.435481	0.892914
H125	H	1.202023	-0.890198	0.438524
H126	H	1.702023	-0.390198	0.938524
H127	H	1.225802	-0.891395	0.351153
H128	H	1.725802	-0.391395	0.851153
H129	H	1.096647	-1.078726	0.478583
H130	H	1.596647	-0.578726	0.978583
H131	H	0.978081	-0.636382	0.924674
H132	H	1.478081	-0.136382	1.424674
H133	H	0.978092	-0.636365	0.785232
H134	H	1.478092	-0.136365	1.285232
N135	N	1.161347	-0.371371	0.934892
N136	N	1.661347	0.128629	1.434892
H137	H	1.213925	-0.387903	0.921524
H138	H	1.713925	0.112097	1.421524
H139	H	1.154142	-0.381727	0.989397
H140	H	1.654142	0.118273	1.489397
N141	N	1.161357	-0.371383	0.775146
N142	N	1.661357	0.128617	1.275146
H143	H	1.191178	-0.328261	0.811165
H144	H	1.691178	0.171739	1.311165
H145	H	1.131413	-0.322125	0.743255
H146	H	1.631413	0.177875	1.243255
