data_functionalizedCrystal
_audit_creation_method	'MofGen! by Chris Wilmer'
_symmetry_space_group_name_H-M	'P1'
_symmetry_Int_Tables_number	1
_symmetry_cell_setting	triclinic
loop_
_symmetry_equiv_pos_as_xyz
  x,y,z
_cell_length_a	12.827893
_cell_length_b	21.295417
_cell_length_c	12.827885
_cell_angle_alpha	89.961900
_cell_angle_beta	89.980538
_cell_angle_gamma	90.030477
loop_
_atom_site_label
_atom_site_type_symbol
_atom_site_fract_x
_atom_site_fract_y
_atom_site_fract_z
Zn1	Zn	1.597562	-0.250579	-0.590788
Zn2	Zn	1.930895	0.082754	-0.257455
Zn3	Zn	2.264228	0.416087	0.075878
Zn4	Zn	1.597409	-0.355861	-0.416023
Zn5	Zn	1.930743	-0.022528	-0.082690
Zn6	Zn	2.264076	0.310805	0.250643
Zn7	Zn	1.422803	-0.250610	-0.416062
Zn8	Zn	1.756136	0.082723	-0.082729
Zn9	Zn	2.089469	0.416057	0.250605
Zn10	Zn	1.422742	-0.355814	-0.590723
Zn11	Zn	1.756076	-0.022481	-0.257390
Zn12	Zn	2.089409	0.310852	0.075943
O13	O	1.510129	-0.303216	-0.503399
O14	O	1.843462	0.030117	-0.170066
O15	O	2.176796	0.363450	0.163268
O16	O	1.743778	-0.264552	-0.567616
O17	O	2.077111	0.068781	-0.234283
O18	O	2.410444	0.402115	0.099050
O19	O	1.574209	-0.341932	-0.269792
O20	O	1.907542	-0.008599	0.063541
O21	O	2.240875	0.324735	0.396874
O22	O	1.446074	-0.162516	-0.439283
O23	O	1.779407	0.170817	-0.105950
O24	O	2.112741	0.504150	0.227384
O25	O	1.743665	-0.341902	-0.439217
O26	O	2.076999	-0.008569	-0.105884
O27	O	2.410332	0.324764	0.227449
O28	O	1.574469	-0.162494	-0.567654
O29	O	1.907802	0.170839	-0.234321
O30	O	2.241135	0.504173	0.099013
O31	O	1.445926	-0.264604	-0.269821
O32	O	1.779259	0.068729	0.063513
O33	O	2.112593	0.402063	0.396846
O34	O	1.276559	-0.264559	-0.439220
O35	O	1.609892	0.068775	-0.105887
O36	O	1.943225	0.402108	0.227447
O37	O	1.445971	-0.341822	-0.736968
O38	O	1.779305	-0.008489	-0.403635
O39	O	2.112638	0.324844	-0.070301
O40	O	1.276514	-0.341852	-0.567543
O41	O	1.609848	-0.008519	-0.234210
O42	O	1.943181	0.324815	0.099124
O43	O	1.574410	-0.264506	-0.737016
O44	O	1.907744	0.068827	-0.403682
O45	O	2.241077	0.402160	-0.070349
O46	O	1.574150	-0.443944	-0.439154
O47	O	1.907484	-0.110611	-0.105821
O48	O	2.240817	0.222722	0.227513
O49	O	1.445823	-0.443910	-0.567505
O50	O	1.779157	-0.110577	-0.234172
O51	O	2.112490	0.222757	0.099161
C52	C	1.238619	-0.303204	-0.503379
C53	C	1.571952	0.030129	-0.170046
C54	C	1.905286	0.363463	0.163287
C55	C	1.122466	-0.303214	-0.503396
C56	C	1.455799	0.030119	-0.170062
C57	C	1.789133	0.363453	0.163271
C58	C	1.070687	-0.341521	-0.566796
C59	C	1.404020	-0.008188	-0.233462
C60	C	1.737354	0.325146	0.099871
C61	C	0.950637	-0.341532	-0.566814
C62	C	1.283970	-0.008199	-0.233481
C63	C	1.617303	0.325134	0.099853
C64	C	1.509992	-0.466768	-0.503341
C65	C	1.843325	-0.133435	-0.170008
C66	C	2.176659	0.199899	0.163325
C67	C	1.510029	-0.536736	-0.503351
C68	C	1.843362	-0.203403	-0.170018
C69	C	2.176696	0.129931	0.163315
C70	C	1.576908	-0.569600	-0.436587
C71	C	1.910242	-0.236266	-0.103254
C72	C	2.243575	0.097067	0.230079
C73	C	1.576957	-0.635342	-0.436611
C74	C	1.910291	-0.302009	-0.103278
C75	C	2.243624	0.031325	0.230056
C76	C	1.510108	-0.668218	-0.503387
C77	C	1.843442	-0.334885	-0.170054
C78	C	2.176775	-0.001552	0.163279
C79	C	1.443224	-0.635347	-0.570165
C80	C	1.776558	-0.302014	-0.236831
C81	C	2.109891	0.031320	0.096502
C82	C	1.443185	-0.569606	-0.570147
C83	C	1.776518	-0.236272	-0.236813
C84	C	2.109851	0.097061	0.096520
N85	N	1.418692	-0.771484	-0.511347
N86	N	1.752025	-0.438150	-0.178014
N87	N	2.085358	-0.104817	0.155319
N88	N	1.418732	-0.833935	-0.511358
N89	N	1.752066	-0.500602	-0.178025
N90	N	2.085399	-0.167268	0.155308
C91	C	1.510225	-0.866293	-0.503447
C92	C	1.843559	-0.532960	-0.170114
C93	C	2.176892	-0.199626	0.163219
N94	N	1.601678	-0.833840	-0.495504
N95	N	1.935011	-0.500507	-0.162171
N96	N	2.268345	-0.167174	0.171162
N97	N	1.601636	-0.771383	-0.495488
N98	N	1.934970	-0.438050	-0.162155
N99	N	2.268303	-0.104717	0.171179
C100	C	1.510144	-0.739504	-0.503415
C101	C	1.843478	-0.406170	-0.170082
C102	C	2.176811	-0.072837	0.163252
C103	C	1.577163	-0.970442	-0.436705
C104	C	1.910497	-0.637109	-0.103372
C105	C	2.243830	-0.303776	0.229961
C106	C	1.577214	-1.036186	-0.436736
C107	C	1.910547	-0.702853	-0.103403
C108	C	2.243881	-0.369519	0.229931
C109	C	1.443472	-1.036189	-0.570284
C110	C	1.776805	-0.702856	-0.236951
C111	C	2.110139	-0.369523	0.096382
C112	C	1.443431	-0.970447	-0.570259
C113	C	1.776764	-0.637114	-0.236926
C114	C	2.110097	-0.303780	0.096408
C115	C	1.510275	-0.937577	-0.503464
C116	C	1.843608	-0.604244	-0.170130
C117	C	2.176941	-0.270911	0.163203
C118	C	1.782699	-0.303229	-0.503420
C119	C	2.116032	0.030104	-0.170086
C120	C	2.449366	0.363438	0.163247
C121	C	1.898852	-0.303234	-0.503428
C122	C	2.232186	0.030099	-0.170095
C123	C	2.565519	0.363432	0.163238
C124	C	1.510201	-0.303156	-0.775969
C125	C	1.843534	0.030178	-0.442636
C126	C	2.176868	0.363511	-0.109303
C127	C	1.510232	-0.303130	-0.892123
C128	C	1.843565	0.030203	-0.558789
C129	C	2.176898	0.363537	-0.225456
C130	C	1.510295	-0.139026	-0.503480
C131	C	1.843628	0.194307	-0.170147
C132	C	2.176962	0.527641	0.163187
C133	C	1.510366	-0.069058	-0.503515
C134	C	1.843699	0.264276	-0.170181
C135	C	2.177032	0.597609	0.163152
C136	C	1.573747	-0.341351	-1.063938
C137	C	1.907081	-0.008018	-0.730604
C138	C	2.240414	0.325316	-0.397271
C139	C	1.573717	-0.341379	-0.943887
C140	C	1.907050	-0.008045	-0.610554
C141	C	2.240384	0.325288	-0.277221
C142	C	1.510117	-0.303231	-0.231889
C143	C	1.843451	0.030102	0.101444
C144	C	2.176784	0.363436	0.434777
C145	C	1.510289	-0.303079	-0.115737
C146	C	1.843623	0.030254	0.217597
C147	C	2.176956	0.363587	0.550930
H148	H	0.906108	-0.374330	-0.621090
H149	H	1.239441	-0.040997	-0.287757
H150	H	1.572774	0.292337	0.045576
H151	H	1.388723	-0.542847	-0.624515
H152	H	1.722056	-0.209514	-0.291182
H153	H	2.055389	0.123819	0.042152
Br154	Br	0.973055	-0.248572	-0.412942
Br155	Br	1.306389	0.084761	-0.079608
Br156	Br	1.639722	0.418095	0.253725
Br157	Br	1.667639	-0.524994	-0.345952
Br158	Br	2.000973	-0.191660	-0.012619
Br159	Br	2.334306	0.141673	0.320715
H160	H	1.077919	-0.270424	-0.449134
H161	H	1.411253	0.062909	-0.115801
H162	H	1.744586	0.396243	0.217533
Br163	Br	1.667729	-0.679953	-0.345996
Br164	Br	2.001062	-0.346620	-0.012663
Br165	Br	2.334395	-0.013286	0.320670
H166	H	1.628050	-0.374142	-0.899342
H167	H	1.961383	-0.040809	-0.566008
H168	H	2.294716	0.292525	-0.232675
H169	H	1.631595	-0.943679	-0.382320
H170	H	1.964929	-0.610345	-0.048986
H171	H	2.298262	-0.277012	0.284347
H172	H	1.388797	-0.662119	-0.624536
H173	H	1.722131	-0.328786	-0.291203
H174	H	2.055464	0.004548	0.042130
H175	H	1.115234	-0.374306	-0.621065
H176	H	1.448567	-0.040973	-0.287732
H177	H	1.781900	0.292360	0.045601
Br178	Br	1.664331	-0.395939	-1.138146
Br179	Br	1.997665	-0.062606	-0.804813
Br180	Br	2.330998	0.270728	-0.471479
H181	H	1.455935	-0.270336	-1.071207
H182	H	1.789268	0.062997	-0.737873
H183	H	2.122602	0.396331	-0.404540
H184	H	1.455905	-0.270360	-0.936662
H185	H	1.789238	0.062974	-0.603328
H186	H	2.122571	0.396307	-0.269995
H187	H	1.631682	-1.062942	-0.382371
H188	H	1.965015	-0.729609	-0.049037
H189	H	2.298348	-0.396276	0.284296
H190	H	1.389047	-1.062957	-0.624660
H191	H	1.722380	-0.729623	-0.291326
H192	H	2.055714	-0.396290	0.042007
H193	H	1.388967	-0.943688	-0.624620
H194	H	1.722300	-0.610354	-0.291287
H195	H	2.055633	-0.277021	0.042047
