data_functionalizedCrystal
_audit_creation_method	'MofGen! by Chris Wilmer'
_symmetry_space_group_name_H-M	'P1'
_symmetry_Int_Tables_number	1
_symmetry_cell_setting	triclinic
loop_
_symmetry_equiv_pos_as_xyz
  x,y,z
_cell_length_a	10.654559
_cell_length_b	14.519709
_cell_length_c	9.730223
_cell_angle_alpha	89.997715
_cell_angle_beta	89.999563
_cell_angle_gamma	84.084414
loop_
_atom_site_label
_atom_site_type_symbol
_atom_site_fract_x
_atom_site_fract_y
_atom_site_fract_z
O1	O	1.666581	0.129569	-0.114301
O2	O	1.300986	0.141901	-0.114302
O3	O	1.493477	0.001547	-0.114289
O4	O	1.474090	0.269923	-0.114314
O5	O	1.493475	0.001550	0.114291
O6	O	1.300984	0.141904	0.114278
O7	O	1.666579	0.129572	0.114279
Zn8	Zn	1.483781	0.135739	0.150571
Zn9	Zn	1.483784	0.135734	-0.150593
O10	O	1.474088	0.269926	0.114266
C11	C	1.254196	0.140995	-0.000012
C12	C	1.114779	0.138281	-0.000012
C13	C	1.492572	-0.032816	0.000001
C14	C	1.489865	-0.135211	0.000002
C15	C	1.064058	0.053091	-0.000001
C16	C	0.933061	0.050547	-0.000011
C17	C	0.903515	0.218388	-0.000038
C18	C	1.034510	0.220932	-0.000038
C19	C	1.144327	-0.029560	0.000025
C20	C	1.093608	-0.114756	0.000038
C21	C	0.962610	-0.117301	0.000028
C22	C	0.882332	-0.034650	0.000005
C23	C	1.479898	-0.510159	-0.000034
C24	C	1.482665	-0.405837	-0.000023
C25	C	1.484881	-0.322688	-0.000015
C26	C	1.487649	-0.218359	-0.000007
C27	C	1.713369	0.130478	-0.000014
C28	C	1.852786	0.133192	-0.000023
C29	C	1.474993	0.304289	-0.000027
C30	C	1.477700	0.406684	-0.000037
N31	N	1.483788	0.135742	0.356107
N32	N	1.483787	0.135724	-0.356130
C33	C	1.569045	0.073614	0.428039
C34	C	1.569042	0.073603	0.571922
C35	C	1.398521	0.197855	0.571928
C36	C	1.398519	0.197861	0.428048
C37	C	1.654314	0.011495	0.356098
C38	C	1.739579	-0.050637	0.428030
C39	C	1.739576	-0.050648	0.571913
C40	C	1.654308	0.011472	0.643864
H41	H	1.250994	-0.027497	0.000037
Cl42	Cl	0.717648	-0.037852	-0.000019
H43	H	0.921318	-0.186672	0.000025
H44	H	1.075807	0.290301	-0.000035
H45	H	1.654327	0.011500	0.238941
H46	H	0.838143	0.285679	-0.000054
H47	H	1.808994	-0.101219	0.369440
Cl48	Cl	1.194525	-0.218655	0.000051
H49	H	1.808993	-0.101244	0.630478
H50	H	1.654304	0.011452	0.761023
Cl51	Cl	1.291339	0.275947	0.662381
H52	H	1.329094	0.248450	0.369481
