data_functionalizedCrystal
_audit_creation_method	'MofGen! by Chris Wilmer'
_symmetry_space_group_name_H-M	'P1'
_symmetry_Int_Tables_number	1
_symmetry_cell_setting	triclinic
loop_
_symmetry_equiv_pos_as_xyz
  x,y,z
_cell_length_a	18.215407
_cell_length_b	13.897448
_cell_length_c	18.215399
_cell_angle_alpha	90.026747
_cell_angle_beta	90.016885
_cell_angle_gamma	90.015136
loop_
_atom_site_label
_atom_site_type_symbol
_atom_site_fract_x
_atom_site_fract_y
_atom_site_fract_z
Zn1	Zn	1.125105	-0.384087	0.416076
Zn2	Zn	1.125030	-0.545397	0.293013
Zn3	Zn	1.002039	-0.384111	0.293028
Zn4	Zn	1.002019	-0.545334	0.416043
O5	O	1.063548	-0.464732	0.354540
O6	O	1.228079	-0.405501	0.399758
O7	O	1.108692	-0.524039	0.190031
O8	O	1.018404	-0.249126	0.309371
O9	O	1.228024	-0.524016	0.309345
O10	O	1.108820	-0.249108	0.399773
O11	O	1.018331	-0.405543	0.190042
O12	O	0.899052	-0.405481	0.309339
O13	O	1.018370	-0.523908	0.519032
O14	O	0.899037	-0.523931	0.399718
O15	O	1.108801	-0.405440	0.519056
O16	O	1.108673	-0.680371	0.309313
O17	O	1.018297	-0.680324	0.399703
C18	C	0.872342	-0.464703	0.354527
C19	C	0.790543	-0.464713	0.354539
C20	C	0.602377	-0.403130	0.401692
C21	C	0.525518	-0.403138	0.401694
C22	C	0.525472	-0.526362	0.307401
C23	C	0.602329	-0.526348	0.307396
C24	C	0.640780	-0.464733	0.354545
C25	C	0.487064	-0.464755	0.354553
C26	C	0.403730	-0.464765	0.354555
C27	C	0.724119	-0.464722	0.354542
C28	C	1.063495	-0.715347	0.354519
C29	C	1.063539	-0.822561	0.354534
C30	C	1.063616	-1.018856	0.354580
C31	C	1.063571	-0.909623	0.354557
C32	C	1.255501	-0.464763	0.354553
C33	C	1.337300	-0.464776	0.354559
C34	C	1.063592	-0.464664	0.546493
C35	C	1.063610	-0.464635	0.628292
C36	C	1.063622	-0.213139	0.354578
C37	C	1.063654	-0.105925	0.354594
C38	C	1.063548	-0.464731	0.163334
C39	C	1.063672	-0.464488	0.081535
C40	C	1.110724	-0.402865	0.893363
C41	C	1.110716	-0.402891	0.816505
C42	C	1.016555	-0.526264	0.816469
C43	C	1.016568	-0.526242	0.893327
C44	C	1.063652	-0.464537	0.931772
C45	C	1.063630	-0.464586	0.778056
C46	C	1.063620	-0.464614	0.694722
C47	C	1.063663	-0.464510	1.015111
H48	H	0.633597	-0.576514	0.268999
O49	O	0.970905	-0.586341	0.779149
C50	C	0.935137	-0.750428	0.755620
C51	C	0.986888	-0.682499	0.797919
H52	H	0.948030	-0.828185	0.770792
H53	H	0.943224	-0.739929	0.694083
H54	H	0.875802	-0.733447	0.770709
H55	H	1.046243	-0.699438	0.782892
H56	H	0.978738	-0.693010	0.859446
O57	O	1.156533	-0.342903	0.930596
C58	C	1.249898	-0.220501	0.922515
C59	C	1.198067	-0.288374	0.880261
H60	H	1.283481	-0.176382	0.881838
H61	H	1.288423	-0.264732	0.958474
H62	H	1.216119	-0.170090	0.958522
H63	H	1.231787	-0.338798	0.844214
H64	H	1.159540	-0.244082	0.844348
H65	H	1.149048	-0.352673	0.785236
H66	H	0.978235	-0.576469	0.924600
H67	H	0.494254	-0.352973	0.440085
O68	O	0.639615	-0.343185	0.447511
C69	C	0.631545	-0.221006	0.541068
C70	C	0.589285	-0.288831	0.489203
H71	H	0.590872	-0.177057	0.574800
H72	H	0.667502	-0.170443	0.507381
H73	H	0.667556	-0.265364	0.579458
H74	H	0.553234	-0.244551	0.450803
H75	H	0.553375	-0.339396	0.522936
H76	H	0.494156	-0.576527	0.269014
