data_functionalizedCrystal
_audit_creation_method	'MofGen! by Chris Wilmer'
_symmetry_space_group_name_H-M	'P1'
_symmetry_Int_Tables_number	1
_symmetry_cell_setting	triclinic
loop_
_symmetry_equiv_pos_as_xyz
  x,y,z
_cell_length_a	16.120530
_cell_length_b	18.050589
_cell_length_c	16.120297
_cell_angle_alpha	92.875657
_cell_angle_beta	90.128140
_cell_angle_gamma	87.123928
loop_
_atom_site_label
_atom_site_type_symbol
_atom_site_fract_x
_atom_site_fract_y
_atom_site_fract_z
Zn1	Zn	1.247404	-0.376248	-0.534587
Zn2	Zn	1.254344	-0.494473	-0.395537
Zn3	Zn	1.115396	-0.363698	-0.388504
Zn4	Zn	1.108300	-0.493789	-0.527506
O5	O	1.181361	-0.432052	-0.461533
O6	O	1.364691	-0.397469	-0.522048
O7	O	1.241786	-0.472159	-0.278238
O8	O	1.132972	-0.261442	-0.407903
O9	O	1.369789	-0.484328	-0.419888
O10	O	1.229959	-0.270662	-0.515230
O11	O	1.139701	-0.376080	-0.273071
O12	O	0.998089	-0.375417	-0.401037
O13	O	1.120879	-0.483162	-0.644811
O14	O	0.992876	-0.470994	-0.503160
O15	O	1.223078	-0.396806	-0.650014
O16	O	1.234906	-0.598303	-0.413022
O17	O	1.127608	-0.597800	-0.509979
C18	C	0.965310	-0.421770	-0.450568
C19	C	0.872881	-0.417390	-0.445896
C20	C	0.703653	-0.409376	-0.437374
C21	C	0.659907	-0.454785	-0.485754
C22	C	0.565742	-0.450326	-0.481012
C23	C	0.797826	-0.413834	-0.442115
C24	C	1.181261	-0.624999	-0.461515
C25	C	1.181293	-0.707547	-0.461538
C26	C	1.123001	-0.906753	-0.514247
C27	C	1.106578	-0.951975	-0.437341
C28	C	1.181375	-0.858682	-0.461553
C29	C	1.197838	-0.960544	-0.538470
C30	C	1.181451	-1.004671	-0.461574
C31	C	1.164914	-0.902813	-0.384605
C32	C	1.256207	-0.911381	-0.485787
C33	C	1.239815	-0.956580	-0.408830
C34	C	1.181328	-0.774581	-0.461542
C35	C	1.181498	-1.088770	-0.461577
C36	C	1.398256	-0.442375	-0.472543
C37	C	1.490683	-0.446774	-0.477234
C38	C	1.170413	-0.441308	-0.678428
C39	C	1.165748	-0.445252	-0.770856
C40	C	1.181483	-0.238354	-0.461572
C41	C	1.181535	-0.155811	-0.461588
C42	C	1.157199	-0.452435	-0.940081
C43	C	1.205687	-0.411454	-0.983846
C44	C	1.200930	-0.415451	-1.078009
C45	C	1.161955	-0.448439	-0.845910
C46	C	1.192314	-0.422781	-0.245485
C47	C	1.197141	-0.418635	-0.153066
H48	H	0.670386	-0.367156	-0.392397
H49	H	1.112120	-0.490519	-0.973329
C50	C	1.340598	-0.887487	-0.513030
C51	C	1.401756	-0.913878	-0.458578
C52	C	1.479508	-0.891890	-0.483664
H53	H	1.340222	-0.834820	-0.512319
H54	H	1.352238	-0.907352	-0.567695
H55	H	1.390119	-0.894010	-0.403927
H56	H	1.402158	-0.966543	-0.459281
H57	H	1.491148	-0.911755	-0.538329
H58	H	1.479123	-0.839223	-0.482954
H59	H	1.521013	-0.909798	-0.446728
C60	C	0.704105	-0.511119	-0.545808
C61	C	0.645236	-0.552128	-0.589523
C62	C	0.685923	-0.604022	-0.644855
H63	H	0.739571	-0.543711	-0.515695
H64	H	0.736165	-0.485905	-0.583815
H65	H	0.613190	-0.577340	-0.551522
H66	H	0.609767	-0.519556	-0.619653
H67	H	0.717983	-0.578809	-0.682862
H68	H	0.721388	-0.636610	-0.614735
H69	H	0.645986	-0.631849	-0.674528
C70	C	1.216490	-0.994275	-0.625121
C71	C	1.289119	-1.040061	-0.623088
C72	C	1.306313	-1.071151	-0.702894
H73	H	1.223874	-0.955751	-0.662051
H74	H	1.171505	-1.022844	-0.643701
H75	H	1.334094	-1.011493	-0.604520
H76	H	1.281754	-1.078597	-0.586175
H77	H	1.261328	-1.099721	-0.721474
H78	H	1.313693	-1.032622	-0.739818
H79	H	1.355588	-1.102226	-0.701524
H80	H	1.250770	-0.373367	-0.950596
H81	H	1.073570	-0.884877	-0.558738
C82	C	1.022175	-0.975913	-0.410171
C83	C	0.961258	-0.950699	-0.465546
C84	C	0.883497	-0.972742	-0.440556
H85	H	1.009991	-0.955326	-0.355922
H86	H	1.022930	-1.028564	-0.409920
H87	H	0.960501	-0.898059	-0.465788
H88	H	0.973414	-0.971283	-0.519799
H89	H	0.884251	-1.025393	-0.440305
H90	H	0.871321	-0.952153	-0.386306
H91	H	0.842156	-0.955643	-0.478127
C92	C	1.146120	-0.869261	-0.297906
C93	C	1.073850	-0.823021	-0.300073
C94	C	1.056502	-0.792108	-0.220223
H95	H	1.191238	-0.841042	-0.278963
H96	H	1.138243	-0.907882	-0.261211
H97	H	1.081732	-0.784406	-0.336755
H98	H	1.028717	-0.851224	-0.319001
H99	H	1.048625	-0.830729	-0.183528
H100	H	1.101625	-0.763892	-0.201287
H101	H	1.007462	-0.760736	-0.221681
C102	C	1.305583	-0.985514	-0.349219
C103	C	1.287993	-0.955993	-0.268844
C104	C	1.348549	-0.982640	-0.213905
H105	H	1.358613	-0.970965	-0.365849
H106	H	1.305550	-1.038170	-0.349834
H107	H	1.288035	-0.903348	-0.268231
H108	H	1.234973	-0.970540	-0.252188
H109	H	1.348516	-1.035296	-0.214520
H110	H	1.401576	-0.968089	-0.230543
H111	H	1.336619	-0.962619	-0.159363
