data_functionalizedCrystal
_audit_creation_method	'MofGen! by Chris Wilmer'
_symmetry_space_group_name_H-M	'P1'
_symmetry_Int_Tables_number	1
_symmetry_cell_setting	triclinic
loop_
_symmetry_equiv_pos_as_xyz
  x,y,z
_cell_length_a	23.532407
_cell_length_b	16.109318
_cell_length_c	14.586319
_cell_angle_alpha	90.000075
_cell_angle_beta	89.991566
_cell_angle_gamma	83.158621
loop_
_atom_site_label
_atom_site_type_symbol
_atom_site_fract_x
_atom_site_fract_y
_atom_site_fract_z
O1	O	0.073249	1.102546	-0.076174
O2	O	0.082349	0.860414	-0.076193
O3	O	-0.005106	0.988782	-0.076166
O4	O	0.160703	0.974179	-0.076201
O5	O	-0.005107	0.988773	0.076315
O6	O	0.082347	0.860405	0.076287
O7	O	0.073248	1.102537	0.076307
Cu8	Cu	0.077797	0.981470	0.090220
Cu9	Cu	0.077799	0.981481	-0.090106
O10	O	0.160702	0.974170	0.076280
C11	C	0.081978	0.829438	0.000045
C12	C	0.080867	0.737152	0.000038
C13	C	0.077282	0.438112	-0.083062
C14	C	0.078321	0.524825	-0.083068
C15	C	0.078312	0.524834	0.083175
C16	C	0.077269	0.438123	0.083179
C17	C	0.076757	0.394764	0.000058
C18	C	0.078840	0.568188	0.000047
C19	C	0.079967	0.662206	0.000042
C20	C	0.075629	0.300740	0.000064
C21	C	-0.026324	0.988405	0.000077
C22	C	-0.089545	0.987287	0.000084
C23	C	-0.488391	1.056240	0.000039
C24	C	-0.547795	1.055201	0.000032
O25	O	-0.584301	1.119121	0.000003
N26	N	-0.570706	0.978887	0.000026
C27	C	-0.534209	0.903606	0.000018
O28	O	-0.559151	0.838600	0.000012
C29	C	-0.474806	0.904646	0.000019
C30	C	-0.451899	0.980965	0.000034
C31	C	-0.465483	1.132553	0.000053
C32	C	-0.406083	1.133591	0.000062
C33	C	-0.369591	1.058316	0.000056
C34	C	-0.392499	0.982003	0.000043
C35	C	-0.438311	0.829366	0.000005
C36	C	-0.378904	0.830412	0.000004
C37	C	-0.355997	0.906731	0.000019
C38	C	-0.296607	0.907767	0.000046
N39	N	-0.273696	0.984081	0.000052
C40	C	-0.310188	1.059356	0.000057
C41	C	-0.658960	0.901429	0.000016
C42	C	-0.718362	0.900389	0.000022
C43	C	-0.731943	1.051984	0.000034
C44	C	-0.672540	1.053024	0.000034
C45	C	-0.636049	0.977743	0.000021
C46	C	-0.185443	1.061530	0.000076
C47	C	-0.126037	1.062562	0.000089
C48	C	-0.112461	0.910967	0.000072
C49	C	-0.171861	0.909935	0.000064
C50	C	-0.208352	0.985224	0.000063
O51	O	-0.260066	0.843881	0.000071
O52	O	-0.285237	1.124352	0.000051
C53	C	0.181920	0.974546	0.000035
C54	C	0.245141	0.975664	0.000022
C55	C	0.073619	1.133513	0.000067
C56	C	0.074729	1.225799	0.000068
N57	N	0.077796	0.981469	0.217052
N58	N	0.077796	0.981489	-0.216938
C59	C	0.039084	1.038329	0.452070
C60	C	0.039083	1.038331	0.548052
C61	C	0.116509	0.924623	0.548037
C62	C	0.116508	0.924617	0.452057
C63	C	0.077796	0.981475	0.404076
C64	C	0.077796	0.981483	0.596037
C65	C	0.077795	0.981485	0.700104
C66	C	0.077796	0.981472	0.300003
H67	H	0.078730	0.560148	0.150849
H68	H	0.007562	1.084624	0.413007
H69	H	0.076840	0.402829	0.150870
H70	H	-0.653894	1.115169	0.000045
H71	H	0.148029	0.878332	0.587112
N72	N	0.078883	0.571581	-0.172719
H73	H	0.078399	0.530953	-0.225372
H74	H	0.114597	0.600531	-0.176349
H75	H	-0.190513	0.847790	0.000078
N76	N	0.076727	0.391344	-0.172710
H77	H	0.077216	0.431966	-0.225367
H78	H	0.041011	0.362398	-0.176323
H79	H	0.007560	1.084626	0.587125
H80	H	0.148031	0.878316	0.412978
H81	H	-0.107389	1.124713	0.000103
H82	H	-0.215147	1.122838	0.000072
H83	H	-0.387437	1.195738	0.000070
N84	N	-0.504837	1.213749	0.000059
H85	H	-0.481302	1.262243	0.000069
H86	H	-0.529782	1.216618	0.056589
H87	H	-0.761666	1.113277	0.000034
H88	H	-0.082738	0.849681	0.000071
H89	H	-0.737007	0.838242	0.000026
N90	N	-0.619603	0.820229	0.000010
H91	H	-0.643135	0.771732	0.000008
H92	H	-0.594666	0.817352	0.056538
H93	H	-0.456951	0.767219	-0.000013
H94	H	-0.349195	0.769108	-0.000007
