data_functionalizedCrystal
_audit_creation_method	'MofGen! by Chris Wilmer'
_symmetry_space_group_name_H-M	'P1'
_symmetry_Int_Tables_number	1
_symmetry_cell_setting	triclinic
loop_
_symmetry_equiv_pos_as_xyz
  x,y,z
_cell_length_a	9.065218
_cell_length_b	15.500227
_cell_length_c	9.065215
_cell_angle_alpha	87.128820
_cell_angle_beta	85.015291
_cell_angle_gamma	92.886578
loop_
_atom_site_label
_atom_site_type_symbol
_atom_site_fract_x
_atom_site_fract_y
_atom_site_fract_z
O1	O	1.967172	0.071944	0.209599
O2	O	1.537887	0.071946	0.227345
O3	O	1.761404	0.071941	0.003830
O4	O	1.743654	0.071949	0.433114
O5	O	1.747840	-0.071947	0.017339
O6	O	1.524322	-0.071943	0.240855
O7	O	1.953607	-0.071944	0.223108
Cu8	Cu	1.737726	-0.085082	0.233215
Cu9	Cu	1.753768	0.085083	0.217238
O10	O	1.730090	-0.071940	0.446624
C11	C	1.476118	0.000001	0.232394
C12	C	1.312275	0.000002	0.227295
N13	N	1.726454	-0.204766	0.244451
C14	C	1.821200	-0.250045	0.149776
C15	C	1.812689	-0.340617	0.158287
C16	C	1.709439	-0.385910	0.261483
C17	C	1.614682	-0.340625	0.356162
C18	C	1.623187	-0.250054	0.347643
C19	C	1.678800	-0.659376	0.292150
C20	C	1.670305	-0.749954	0.300666
C21	C	1.868311	-0.749940	0.102788
C22	C	1.876813	-0.659367	0.094283
C23	C	1.782052	-0.614090	0.188958
C24	C	1.700740	-0.478490	0.270189
C25	C	1.790745	-0.521512	0.180244
C26	C	2.015376	0.000002	0.218059
C27	C	2.179220	0.000007	0.223158
C28	C	1.752917	-0.000002	-0.044402
C29	C	1.747820	0.000001	-0.208246
N30	N	1.765051	0.204768	0.205990
C31	C	1.738577	0.000006	0.494856
C32	C	1.743675	0.000009	0.658698
H33	H	1.905284	-0.213173	0.065749
H34	H	1.601644	-0.622519	0.369241
H35	H	1.889838	-0.377483	0.081194
Cl36	Cl	2.006617	-0.602427	-0.035447
Cl37	Cl	1.987427	-0.806863	-0.016229
Cl38	Cl	1.540493	-0.806887	0.430413
Cl39	Cl	1.484872	-0.397563	0.485889
Cl40	Cl	1.504066	-0.193134	0.466664
H41	H	1.616673	-0.515374	0.354215
H42	H	1.874806	-0.484632	0.096216
