data_functionalizedCrystal
_audit_creation_method	'MofGen! by Chris Wilmer'
_symmetry_space_group_name_H-M	'P1'
_symmetry_Int_Tables_number	1
_symmetry_cell_setting	triclinic
loop_
_symmetry_equiv_pos_as_xyz
  x,y,z
_cell_length_a	6.817900
_cell_length_b	11.102188
_cell_length_c	17.982968
_cell_angle_alpha	94.233461
_cell_angle_beta	102.451960
_cell_angle_gamma	108.603875
loop_
_atom_site_label
_atom_site_type_symbol
_atom_site_fract_x
_atom_site_fract_y
_atom_site_fract_z
V1	V	-4.041363	-0.177029	-0.237549
O2	O	-4.001741	0.007282	-0.233027
O3	O	-4.018610	-0.349841	-0.235924
O4	O	-3.987546	-0.174844	-0.341152
O5	O	-4.033021	-0.168927	-0.127070
V6	V	-4.522369	-0.154920	-0.224334
O7	O	-4.308141	-0.225528	-0.266535
O8	O	-4.705788	-0.106422	-0.195348
O9	O	-4.321915	0.017892	-0.225959
O10	O	-4.679388	-0.339231	-0.228856
O11	O	-4.648109	-0.163022	-0.334813
O12	O	-4.352980	-0.157106	-0.120731
C13	C	-3.870026	-0.391952	-0.232177
C14	C	-3.932674	-0.533232	-0.231539
C15	C	-3.922543	-0.581106	-0.161469
C16	C	-3.981431	-0.713854	-0.160873
C17	C	-4.060569	-0.750844	-0.300423
C18	C	-4.001696	-0.618098	-0.301018
C19	C	-3.830399	-0.168724	-0.366404
C20	C	-3.867851	-0.168080	-0.451100
C21	C	-4.068311	-0.174147	-0.494772
C22	C	-4.103489	-0.173541	-0.574352
C23	C	-3.938208	-0.166879	-0.610261
C24	C	-3.737729	-0.160808	-0.566583
C25	C	-3.702550	-0.161404	-0.487003
C26	C	-3.879599	-0.158401	-0.887520
C27	C	-3.914797	-0.157809	-0.967106
C28	C	-4.280538	-0.170538	-0.974869
C29	C	-4.245359	-0.171135	-0.895289
C30	C	-4.044881	-0.165057	-0.851618
C31	C	-4.006738	-0.165711	-0.765327
C32	C	-3.976352	-0.166234	-0.696551
C33	C	-4.133843	0.059996	-0.229704
C34	C	-4.050433	0.201274	-0.230347
C35	C	-4.173470	-0.163229	-0.095475
C36	C	-4.115256	-0.163867	-0.010778
H37	H	-3.866343	-0.512011	-0.104894
O38	O	-4.405663	-0.177434	-0.860305
C39	C	-4.342164	-0.067512	-0.804183
H40	H	-4.160077	-0.025193	-0.785447
H41	H	-4.406985	-0.095507	-0.752189
H42	H	-4.408085	0.007046	-0.829531
O43	O	-4.298063	-0.179206	-0.616792
C44	C	-4.275232	-0.068621	-0.652733
H45	H	-4.123044	0.012135	-0.619317
H46	H	-4.419218	-0.037111	-0.653608
H47	H	-4.264973	-0.091465	-0.714336
O48	O	-4.475274	-0.176597	-1.017392
C49	C	-4.560683	-0.287280	-1.073980
H50	H	-4.425205	-0.318542	-1.085974
H51	H	-4.650653	-0.264674	-1.129261
H52	H	-4.675254	-0.368123	-1.052466
H53	H	-3.780192	-0.152381	-0.996339
O54	O	-3.576909	-0.154268	-0.601334
C55	C	-3.392445	-0.149070	-0.545723
H56	H	-3.401206	-0.110920	-0.486357
H57	H	-3.244380	-0.082426	-0.560206
H58	H	-3.382585	-0.249655	-0.545638
H59	H	-3.539301	-0.156433	-0.451443
O60	O	-3.971428	-0.760510	-0.092852
C61	C	-3.829331	-0.830013	-0.084709
H62	H	-3.814559	-0.863900	-0.143994
H63	H	-3.893094	-0.916921	-0.055577
H64	H	-3.665442	-0.765423	-0.047971
O65	O	-4.127556	-0.833459	-0.367839
C66	C	-4.177392	-0.960893	-0.352291
H67	H	-4.087912	-0.960875	-0.290925
H68	H	-4.127621	-1.019697	-0.394601
H69	H	-4.356935	-1.005152	-0.358776
O70	O	-4.011571	-0.571797	-0.369155
C71	C	-4.085149	-0.675165	-0.430352
H72	H	-4.051994	-0.762119	-0.408156
H73	H	-3.998405	-0.646284	-0.477299
H74	H	-4.264537	-0.700678	-0.455086
H75	H	-3.716385	-0.153498	-0.851976
H76	H	-4.202911	-0.179581	-0.465542
