data_functionalizedCrystal
_audit_creation_method	'MofGen! by Chris Wilmer'
_symmetry_space_group_name_H-M	'P1'
_symmetry_Int_Tables_number	1
_symmetry_cell_setting	triclinic
loop_
_symmetry_equiv_pos_as_xyz
  x,y,z
_cell_length_a	16.974897
_cell_length_b	14.853559
_cell_length_c	16.053802
_cell_angle_alpha	92.571272
_cell_angle_beta	83.774775
_cell_angle_gamma	83.516184
loop_
_atom_site_label
_atom_site_type_symbol
_atom_site_fract_x
_atom_site_fract_y
_atom_site_fract_z
O1	O	1.056009	0.107270	-0.140702
O2	O	1.556009	0.607270	0.359298
O3	O	0.825073	0.122744	-0.125116
O4	O	1.325073	0.622744	0.374884
O5	O	0.946713	-0.016262	-0.133325
O6	O	1.446713	0.483738	0.366675
O7	O	0.934369	0.246276	-0.132494
O8	O	1.434369	0.746276	0.367506
O9	O	0.940018	-0.008642	0.005986
O10	O	1.440018	0.491358	0.505986
O11	O	0.818377	0.130364	0.014195
O12	O	1.318377	0.630364	0.514195
O13	O	1.049313	0.114890	-0.001392
O14	O	1.549313	0.614890	0.498608
Zn15	Zn	0.932782	0.123837	0.028520
Zn16	Zn	1.432782	0.623837	0.528520
Zn17	Zn	0.941604	0.113797	-0.155028
Zn18	Zn	1.441604	0.613797	0.344972
O19	O	0.927673	0.253896	0.006817
O20	O	1.427673	0.753896	0.506817
C21	C	0.792171	0.126105	-0.053466
C22	C	1.292171	0.626105	0.446534
C23	C	0.704108	0.124755	-0.047523
C24	C	1.204108	0.624755	0.452477
C25	C	0.666378	0.119970	-0.120663
C26	C	1.166378	0.619970	0.379337
C27	C	0.583632	0.118716	-0.115066
C28	C	1.083632	0.618716	0.384934
C29	C	0.538618	0.122242	-0.036328
C30	C	1.038618	0.622242	0.463672
C31	C	0.576353	0.127030	0.036817
C32	C	1.076353	0.627030	0.536817
C33	C	0.659097	0.128290	0.031219
C34	C	1.159097	0.628290	0.531219
C35	C	0.290758	0.118926	-0.011444
C36	C	0.790758	0.618926	0.488556
C37	C	0.208008	0.117664	-0.005852
C38	C	0.708008	0.617664	0.494148
C39	C	0.215293	0.109351	-0.157736
C40	C	0.715293	0.609351	0.342264
C41	C	0.298039	0.110606	-0.163327
C42	C	0.798039	0.610606	0.336673
C43	C	0.335766	0.115399	-0.090181
C44	C	0.835766	0.615399	0.409819
N45	N	0.454038	0.120958	-0.030606
N46	N	0.954038	0.620958	0.469394
N47	N	0.420344	0.116689	-0.095905
N48	N	0.920344	0.616689	0.404095
C49	C	0.942807	-0.046038	-0.063633
C50	C	1.442807	0.453962	0.436367
C51	C	0.941135	-0.146111	-0.063525
C52	C	1.441135	0.353889	0.436475
C53	C	0.937689	-0.573395	-0.138985
C54	C	1.437689	-0.073395	0.361015
C55	C	0.930390	-0.565083	0.012897
C56	C	1.430390	-0.065083	0.512897
C57	C	0.931968	-0.471059	0.012791
C58	C	1.431968	0.028941	0.512791
C59	C	0.936405	-0.428200	-0.063204
C60	C	1.436405	0.071800	0.436796
C61	C	0.939265	-0.479363	-0.139093
C62	C	1.439265	0.020637	0.360907
C63	C	0.929100	-0.419887	0.088680
C64	C	1.429100	0.080113	0.588680
C65	C	0.930677	-0.325858	0.088577
C66	C	1.430677	0.174142	0.588577
C67	C	0.935120	-0.282997	0.012581
C68	C	1.435120	0.217003	0.512581
C69	C	0.937981	-0.334167	-0.063312
C70	C	1.437981	0.165833	0.436688
C71	C	0.942419	-0.291307	-0.139306
C72	C	1.442419	0.208693	0.360694
C73	C	0.945285	-0.342476	-0.215200
C74	C	1.445285	0.157524	0.284800
C75	C	0.943709	-0.436503	-0.215089
C76	C	1.443709	0.063497	0.284911
C77	C	0.936697	-0.188971	0.012470
C78	C	1.436697	0.311029	0.512470
C79	C	0.943995	-0.197275	-0.139414
C80	C	1.443995	0.302725	0.360586
C81	C	1.082215	0.111529	-0.073043
C82	C	1.582215	0.611529	0.426957
C83	C	1.170278	0.112878	-0.078992
C84	C	1.670278	0.612878	0.421008
C85	C	0.931579	0.283671	-0.062876
C86	C	1.431579	0.783671	0.437124
C87	C	0.933252	0.383745	-0.062990
C88	C	1.433252	0.883745	0.437010
N89	N	0.926768	0.130688	0.153786
N90	N	1.426768	0.630688	0.653786
N91	N	0.947625	0.106939	-0.280294
N92	N	1.447625	0.606939	0.219706
C93	C	0.978545	0.071561	0.193986
C94	C	1.478545	0.571561	0.693986
C95	C	0.974345	0.076362	0.281676
C96	C	1.474345	0.576362	0.781676
C97	C	0.918371	0.140295	0.329165
C98	C	1.418371	0.640295	0.829165
C99	C	0.866589	0.199424	0.288959
C100	C	1.366589	0.699424	0.788959
C101	C	0.870785	0.194618	0.201271
C102	C	1.370785	0.694618	0.701271
C103	C	0.900039	0.161262	0.591812
C104	C	1.400039	0.661262	1.091812
C105	C	0.895848	0.166065	0.679506
C106	C	1.395848	0.666065	1.179506
C107	C	1.003603	0.043002	0.672217
C108	C	1.503603	0.543002	1.172217
C109	C	1.007798	0.038205	0.584527
C110	C	1.507798	0.538205	1.084527
C111	C	0.956013	0.097331	0.544329
C112	C	1.456013	0.597331	1.044329
N113	N	0.914078	0.145205	0.418798
N114	N	1.414078	0.645205	0.918798
N115	N	0.960303	0.092416	0.454697
N116	N	1.460303	0.592416	0.954697
H117	H	0.689815	0.132191	0.090778
H118	H	1.189815	0.632191	0.590778
H119	H	0.928346	-0.284204	0.150374
H120	H	1.428346	0.215796	0.650374
N121	N	0.948788	-0.151051	-0.221382
N122	N	1.448788	0.348949	0.278618
H123	H	0.950366	-0.197736	-0.269439
H124	H	1.450366	0.302264	0.230561
H125	H	0.900464	-0.104672	-0.221423
H126	H	1.400464	0.395328	0.278577
H127	H	1.016505	0.028216	0.314406
H128	H	1.516505	0.528216	0.814406
H129	H	0.334685	0.107729	-0.227443
H130	H	0.834685	0.607729	0.272557
N131	N	0.159459	0.121463	0.079078
N132	N	0.659459	0.621463	0.579078
H133	H	0.195988	0.124067	0.124556
H134	H	0.695988	0.624067	0.624556
H135	H	0.118963	0.177332	0.085362
H136	H	0.618963	0.677332	0.585362
N137	N	0.925609	-0.611309	0.094857
N138	N	1.425609	-0.111309	0.594857
H139	H	0.924038	-0.564628	0.142916
H140	H	1.424038	-0.064628	0.642916
H141	H	0.875659	-0.642589	0.101528
H142	H	1.375659	-0.142589	0.601528
H143	H	0.321466	0.122823	0.048116
H144	H	0.821466	0.622823	0.548116
H145	H	0.948893	-0.307567	-0.277075
H146	H	1.448893	0.192433	0.222925
N147	N	0.174604	0.104196	-0.236627
N148	N	0.674604	0.604196	0.263373
H149	H	0.196962	0.046717	-0.271230
H150	H	0.696962	0.546717	0.228770
H151	H	0.115362	0.103973	-0.221072
H152	H	0.615362	0.603973	0.278928
H153	H	0.828622	0.242764	0.168542
H154	H	1.328622	0.742764	0.668542
H155	H	1.045764	-0.005137	0.704954
H156	H	1.545764	0.494863	1.204954
N157	N	0.527801	0.130837	0.121740
N158	N	1.027801	0.630837	0.621740
H159	H	0.498830	0.075200	0.126588
H160	H	0.998830	0.575200	0.626588
H161	H	0.564439	0.132865	0.167161
H162	H	1.064439	0.632865	0.667161
N163	N	0.946800	-0.491689	-0.296939
N164	N	1.446800	0.008311	0.203061
H165	H	0.945124	-0.557757	-0.285337
H166	H	1.445124	-0.057757	0.214663
H167	H	0.899533	-0.469517	-0.326804
H168	H	1.399533	0.030483	0.173196
N169	N	0.806222	0.268385	0.340177
N170	N	1.306222	0.768385	0.840177
H171	H	0.774057	0.305112	0.301402
H172	H	1.274057	0.805112	0.801402
H173	H	0.769378	0.236015	0.378944
H174	H	1.269378	0.736015	0.878944
H175	H	1.024128	0.019504	0.155326
H176	H	1.524128	0.519504	0.655326
N177	N	0.714928	0.116157	-0.205587
N178	N	1.214928	0.616157	0.294413
H179	H	0.678467	0.112936	-0.251071
H180	H	1.178467	0.612936	0.248929
H181	H	0.743053	0.172381	-0.210791
H182	H	1.243053	0.672381	0.289209
N183	N	0.940787	-0.628577	-0.220839
N184	N	1.440787	-0.128577	0.279161
H185	H	0.939119	-0.694648	-0.209244
H186	H	1.439119	-0.194648	0.290756
H187	H	0.893520	-0.606408	-0.250705
H188	H	1.393520	-0.106408	0.249295
N189	N	0.924330	-0.466121	0.170636
N190	N	1.424330	0.033879	0.670636
H191	H	0.874387	-0.497413	0.177386
H192	H	1.374387	0.002587	0.677386
H193	H	0.972695	-0.512443	0.170678
H194	H	1.472695	-0.012443	0.670678
H195	H	0.934345	-0.147311	0.074262
H196	H	1.434345	0.352689	0.574262
H197	H	0.850265	0.218131	0.718168
H198	H	1.350265	0.718131	1.218168
H199	H	0.552916	0.114820	-0.174624
H200	H	1.052916	0.614820	0.325376
H201	H	1.053377	-0.013853	0.545863
H202	H	1.553377	0.486147	1.045863
H203	H	0.857875	0.209406	0.559090
H204	H	1.357875	0.709406	1.059090
