data_functionalizedCrystal
_audit_creation_method	'MofGen! by Chris Wilmer'
_symmetry_space_group_name_H-M	'P1'
_symmetry_Int_Tables_number	1
_symmetry_cell_setting	triclinic
loop_
_symmetry_equiv_pos_as_xyz
  x,y,z
_cell_length_a	10.685194
_cell_length_b	10.685901
_cell_length_c	10.686551
_cell_angle_alpha	89.651709
_cell_angle_beta	81.584560
_cell_angle_gamma	90.347428
loop_
_atom_site_label
_atom_site_type_symbol
_atom_site_fract_x
_atom_site_fract_y
_atom_site_fract_z
Zn1	Zn	-0.609717	1.922266	-0.518947
Zn2	Zn	-0.109717	2.422266	-0.018947
Zn3	Zn	-0.835447	1.887543	-0.293300
Zn4	Zn	-0.335447	2.387543	0.206700
Zn5	Zn	-0.607348	1.696586	-0.325490
Zn6	Zn	-0.107348	2.196586	0.174510
Zn7	Zn	-0.803221	1.696620	-0.521397
Zn8	Zn	-0.303221	2.196620	-0.021397
O9	O	-0.713933	1.800754	-0.414783
O10	O	-0.213933	2.300754	0.085217
O11	O	-0.654138	2.092009	-0.474518
O12	O	-0.154138	2.592009	0.025482
O13	O	-0.817684	1.847666	-0.121148
O14	O	-0.317684	2.347666	0.378852
O15	O	-0.431220	1.741040	-0.363599
O16	O	0.068780	2.241040	0.136401
O17	O	-0.819981	2.066499	-0.308736
O18	O	-0.319981	2.566499	0.191264
O19	O	-0.432960	1.906846	-0.505731
O20	O	0.067040	2.406846	-0.005731
O21	O	-0.650101	1.707371	-0.144798
O22	O	-0.150101	2.207371	0.355202
O23	O	-0.618853	1.522241	-0.365974
O24	O	-0.118853	2.022241	0.134026
O25	O	-0.765057	1.741098	-0.697494
O26	O	-0.265057	2.241098	-0.197494
O27	O	-0.762760	1.522266	-0.509906
O28	O	-0.262760	2.022266	-0.009906
O29	O	-0.622890	1.906879	-0.695694
O30	O	-0.122890	2.406879	-0.195694
O31	O	-1.007614	1.847699	-0.311111
O32	O	-0.507614	2.347699	0.188889
O33	O	-0.983938	1.707429	-0.478693
O34	O	-0.483938	2.207429	0.021307
C35	C	-0.687053	1.477047	-0.441700
C36	C	-0.187053	1.977047	0.058300
C37	C	-0.675582	1.338563	-0.453242
C38	C	-0.175582	1.838563	0.046758
C39	C	-1.041527	1.773836	-0.391699
C40	C	-0.541527	2.273836	0.108301
C41	C	-1.181679	1.762438	-0.381856
C42	C	-0.681679	2.262438	0.118144
C43	C	-0.385061	1.827813	-0.437982
C44	C	0.114939	2.327813	0.062018
C45	C	-0.244915	1.839344	-0.447869
C46	C	0.255085	2.339344	0.052131
C47	C	-0.690643	1.827866	-0.743617
C48	C	-0.190643	2.327866	-0.243617
C49	C	-0.680718	1.839419	-0.883746
C50	C	-0.180718	2.339419	-0.383746
C51	C	-0.740919	2.125725	-0.387763
C52	C	-0.240919	2.625725	0.112237
C53	C	-0.752418	2.264208	-0.376248
C54	C	-0.252418	2.764208	0.123752
C55	C	-0.737048	1.773826	-0.087230
C56	C	-0.237048	2.273826	0.412770
C57	C	-0.746637	1.762543	0.052894
C58	C	-0.246637	2.262543	0.552894
H59	H	-1.234760	1.687864	-0.317817
H60	H	-0.734760	2.187864	0.182183
O61	O	-0.841473	1.314440	-0.287041
O62	O	-0.341473	1.814440	0.212959
C63	C	-0.910587	1.217508	-0.217750
C64	C	-0.410587	1.717508	0.282250
H65	H	-0.903781	1.128601	-0.276708
H66	H	-0.403781	1.628601	0.223292
H67	H	-1.013960	1.245935	-0.194037
H68	H	-0.513960	1.745935	0.305963
H69	H	-0.869912	1.199607	-0.126478
H70	H	-0.369912	1.699607	0.373522
O71	O	-0.586791	1.287975	-0.542484
O72	O	-0.086791	1.787975	-0.042484
C73	C	-0.646788	1.213540	-0.624946
C74	C	-0.146788	1.713540	-0.124946
H75	H	-0.743847	1.182646	-0.575193
H76	H	-0.243847	1.682646	-0.075193
H77	H	-0.586760	1.127581	-0.653087
H78	H	-0.086760	1.627581	-0.153087
H79	H	-0.658270	1.270198	-0.713236
H80	H	-0.158270	1.770198	-0.213236
O81	O	-1.181404	1.928278	-0.524182
O82	O	-0.681404	2.428278	-0.024182
C83	C	-1.050911	1.920241	-0.517374
C84	C	-0.550911	2.420241	-0.017374
H85	H	-1.036629	1.872921	-0.424669
H86	H	-0.536629	2.372921	0.075331
H87	H	-1.007824	2.018310	-0.521732
H88	H	-0.507824	2.518310	-0.021732
H89	H	-1.002761	1.862997	-0.600215
H90	H	-0.502761	2.362997	-0.100215
H91	H	-0.810670	1.687891	-0.894148
H92	H	-0.310670	2.187891	-0.394148
O93	O	-0.604339	1.928386	-0.947122
O94	O	-0.104339	2.428386	-0.447122
C95	C	-0.611111	1.920522	-1.077617
C96	C	-0.111111	2.420522	-0.577617
H97	H	-0.643177	1.822431	-1.100560
H98	H	-0.143177	2.322431	-0.600560
H99	H	-0.513857	1.940824	-1.133707
H100	H	-0.013857	2.440824	-0.633707
H101	H	-0.681772	1.991950	-1.104105
H102	H	-0.181772	2.491950	-0.604105
