data_functionalizedCrystal
_audit_creation_method	'MofGen! by Chris Wilmer'
_symmetry_space_group_name_H-M	'P1'
_symmetry_Int_Tables_number	1
_symmetry_cell_setting	triclinic
loop_
_symmetry_equiv_pos_as_xyz
  x,y,z
_cell_length_a	9.065218
_cell_length_b	15.186229
_cell_length_c	9.065218
_cell_angle_alpha	89.998407
_cell_angle_beta	85.015885
_cell_angle_gamma	90.005739
loop_
_atom_site_label
_atom_site_type_symbol
_atom_site_fract_x
_atom_site_fract_y
_atom_site_fract_z
O1	O	1.960405	0.073227	0.216347
O2	O	2.460405	0.573227	0.716347
O3	O	1.531120	0.073228	0.234093
O4	O	2.031120	0.573228	0.734093
O5	O	1.754636	0.073226	0.010578
O6	O	2.254636	0.573226	0.510578
O7	O	1.736889	0.073229	0.439863
O8	O	2.236889	0.573229	0.939863
O9	O	1.754609	-0.073232	0.010590
O10	O	2.254609	0.426768	0.510590
O11	O	1.531094	-0.073229	0.234106
O12	O	2.031094	0.426771	0.734106
O13	O	1.960379	-0.073230	0.216359
O14	O	2.460379	0.426770	0.716359
Zn15	Zn	1.745732	-0.096483	0.225235
Zn16	Zn	2.245732	0.403517	0.725235
Zn17	Zn	1.745767	0.096481	0.225218
Zn18	Zn	2.245767	0.596481	0.725218
O19	O	1.736863	-0.073228	0.439875
O20	O	2.236863	0.426772	0.939875
C21	C	1.476120	-0.000001	0.232394
C22	C	1.976120	0.499999	0.732394
C23	C	1.312277	-0.000000	0.227294
C24	C	1.812277	0.500000	0.727294
N25	N	1.745719	-0.228176	0.225245
N26	N	2.245719	0.271824	0.725245
C27	C	1.836430	-0.453898	0.315964
C28	C	2.336430	0.046102	0.815964
C29	C	1.836446	-0.546088	0.315954
C30	C	2.336446	-0.046088	0.815954
C31	C	1.655076	-0.546098	0.134467
C32	C	2.155076	-0.046098	0.634467
C33	C	1.655069	-0.453910	0.134471
C34	C	2.155069	0.046090	0.634471
C35	C	1.745744	-0.407812	0.225228
C36	C	2.245744	0.092188	0.725228
C37	C	1.745767	-0.592190	0.225214
C38	C	2.245767	-0.092190	0.725214
C39	C	1.745783	-0.692146	0.225202
C40	C	2.245783	-0.192146	0.725202
C41	C	1.745729	-0.307850	0.225238
C42	C	2.245729	0.192150	0.725238
C43	C	2.015378	0.000000	0.218059
C44	C	2.515378	0.500000	0.718059
C45	C	2.179221	0.000005	0.223158
C46	C	2.679221	0.500005	0.723158
C47	C	1.752917	-0.000002	-0.044403
C48	C	2.252917	0.499998	0.455597
C49	C	1.747817	0.000003	-0.208245
C50	C	2.247817	0.500003	0.291755
N51	N	1.745791	0.228173	0.225196
N52	N	2.245791	0.728173	0.725196
C53	C	1.738582	0.000001	0.494855
C54	C	2.238582	0.500001	0.994855
C55	C	1.743681	0.000003	0.658698
C56	C	2.243681	0.500003	1.158698
H57	H	1.910263	-0.416368	0.389864
H58	H	2.410263	0.083632	0.889864
F59	F	1.932970	-0.595131	0.412526
F60	F	2.432970	-0.095131	0.912526
H61	H	1.581251	-0.583642	0.060578
H62	H	2.081251	-0.083642	0.560578
F63	F	1.558541	-0.404860	0.037893
F64	F	2.058541	0.095140	0.537893
