data_functionalizedCrystal
_audit_creation_method	'MofGen! by Chris Wilmer'
_symmetry_space_group_name_H-M	'P1'
_symmetry_Int_Tables_number	1
_symmetry_cell_setting	triclinic
loop_
_symmetry_equiv_pos_as_xyz
  x,y,z
_cell_length_a	17.077404
_cell_length_b	12.759394
_cell_length_c	12.759387
_cell_angle_alpha	89.968595
_cell_angle_beta	89.980480
_cell_angle_gamma	90.015062
loop_
_atom_site_label
_atom_site_type_symbol
_atom_site_fract_x
_atom_site_fract_y
_atom_site_fract_z
Zn1	Zn	1.200099	-0.418207	-0.594063
Zn2	Zn	1.200024	-0.593924	-0.418381
Zn3	Zn	1.068830	-0.418260	-0.418393
Zn4	Zn	1.068817	-0.593846	-0.594013
O5	O	1.134443	-0.506059	-0.506212
O6	O	1.309936	-0.441527	-0.570774
O7	O	1.182596	-0.570676	-0.271361
O8	O	1.086280	-0.271232	-0.441722
O9	O	1.309881	-0.570625	-0.441701
O10	O	1.182723	-0.271193	-0.570786
O11	O	1.086208	-0.441617	-0.271370
O12	O	0.958982	-0.441541	-0.441673
O13	O	1.086257	-0.570492	-0.741041
O14	O	0.958972	-0.570543	-0.570701
O15	O	1.182709	-0.441452	-0.741078
O16	O	1.182582	-0.740934	-0.441653
O17	O	1.086185	-0.740877	-0.570689
C18	C	0.930495	-0.506040	-0.506183
C19	C	0.843245	-0.506057	-0.506196
C20	C	0.802270	-0.573330	-0.573273
C21	C	0.720290	-0.573332	-0.573289
C22	C	0.679286	-0.506066	-0.506223
C23	C	0.720266	-0.438786	-0.439144
C24	C	0.802245	-0.438779	-0.439133
C25	C	0.549396	-0.438807	-0.439169
C26	C	0.467411	-0.438815	-0.439178
C27	C	0.467441	-0.573360	-0.573325
C28	C	0.549420	-0.573353	-0.573315
C29	C	0.590394	-0.506074	-0.506233
C30	C	1.134395	-0.779027	-0.506187
C31	C	1.134447	-0.895803	-0.506211
C32	C	1.234901	-0.895810	-0.371947
C33	C	1.285148	-0.950674	-0.304827
C34	C	1.285194	-1.060395	-0.304855
C35	C	1.234989	-1.115255	-0.372013
C36	C	1.184742	-1.060391	-0.439133
C37	C	1.184700	-0.950667	-0.439095
C38	C	1.084293	-1.060385	-0.573401
C39	C	1.084242	-0.950663	-0.573369
C40	C	1.034088	-1.115245	-0.640559
C41	C	0.983835	-1.060381	-0.707676
C42	C	0.983791	-0.950653	-0.707644
C43	C	1.033995	-0.895800	-0.640489
C44	C	1.339187	-0.506079	-0.506242
C45	C	1.426437	-0.506087	-0.506255
C46	C	1.134490	-0.505957	-0.780246
C47	C	1.134510	-0.505914	-0.897023
C48	C	1.134511	-0.232026	-0.506261
C49	C	1.134541	-0.115249	-0.506282
C50	C	1.234934	-0.640231	-1.116439
C51	C	1.285103	-0.707447	-1.061563
C52	C	1.285077	-0.707487	-0.951841
C53	C	1.234875	-0.640306	-0.896993
C54	C	1.184706	-0.573090	-0.951869
C55	C	1.184739	-0.573055	-1.061593
C56	C	1.084341	-0.438698	-0.951899
C57	C	1.084370	-0.438651	-1.061620
C58	C	1.034139	-0.371517	-0.897050
C59	C	0.983972	-0.304294	-0.951926
C60	C	0.984001	-0.304256	-1.061654
C61	C	1.034201	-0.371435	-1.116496
C62	C	1.134440	-0.506085	-0.233245
C63	C	1.134572	-0.505832	-0.116469
H64	H	0.434028	-0.384028	-0.384580
Br65	Br	0.915907	-0.213034	-1.136120
H66	H	1.034232	-0.371406	-1.205837
Br67	Br	0.857911	-0.664633	-0.664288
H68	H	1.234859	-0.806469	-0.371903
Br69	Br	0.605068	-0.664654	-0.664324
Br70	Br	1.033782	-1.264153	-0.640108
Br71	Br	1.353225	-0.798625	-1.136003
Br72	Br	0.664618	-0.347485	-0.348134
H73	H	0.942966	-1.105057	-0.762355
Br74	Br	1.353156	-0.798718	-0.877362
Br75	Br	1.353287	-0.876217	-0.213696
Br76	Br	0.411833	-0.664654	-0.664378
H77	H	1.234851	-0.640353	-0.807652
H78	H	0.582755	-0.384012	-0.384554
Br79	Br	0.664684	-0.664633	-0.664329
Br80	Br	1.353393	-1.134858	-0.213772
H81	H	0.942876	-0.905989	-0.762305
Br82	Br	1.234685	-1.264163	-0.371559
H83	H	0.835606	-0.383993	-0.384518
Br84	Br	1.034190	-0.746891	-0.640778
Br85	Br	1.034101	-0.371572	-0.748141
H86	H	1.234967	-0.640195	-1.205780
Br87	Br	0.915851	-0.213127	-0.877486
