data_functionalizedCrystal
_audit_creation_method	'MofGen! by Chris Wilmer'
_symmetry_space_group_name_H-M	'P1'
_symmetry_Int_Tables_number	1
_symmetry_cell_setting	triclinic
loop_
_symmetry_equiv_pos_as_xyz
  x,y,z
_cell_length_a	17.917603
_cell_length_b	14.809374
_cell_length_c	14.809374
_cell_angle_alpha	60.797835
_cell_angle_beta	90.574021
_cell_angle_gamma	64.657176
loop_
_atom_site_label
_atom_site_type_symbol
_atom_site_fract_x
_atom_site_fract_y
_atom_site_fract_z
Zr1	Zr	0.852693	0.871538	-0.152519
O2	O	0.758128	1.038737	-0.305351
O3	O	0.868294	0.692241	-0.093506
O4	O	0.899872	0.838290	-0.278152
O5	O	0.716870	0.923133	0.011111
O6	O	1.026911	0.825825	-0.270531
O7	O	0.726550	0.892688	-0.120706
O8	O	0.970424	0.564570	0.059767
O9	O	0.773357	1.184389	-0.319186
O10	O	0.985931	0.761167	-0.077344
O11	O	0.883899	0.793190	0.015342
O12	O	0.921077	0.965144	-0.202054
O13	O	0.819045	0.997168	-0.109368
Zr14	Zr	1.039867	0.900215	0.069869
Zr15	Zr	1.055306	0.851658	-0.140364
Zr16	Zr	0.837254	0.920095	0.057714
Zr17	Zr	0.876981	1.103836	-0.174583
Zr18	Zr	1.015578	0.667918	0.091933
O19	O	1.024266	1.079513	0.010856
O20	O	1.046217	1.010471	-0.288069
O21	O	0.736177	1.107779	-0.006426
O22	O	1.134432	0.733016	0.222701
O23	O	1.156383	0.663974	-0.076223
O24	O	0.846343	0.761283	0.205419
O25	O	1.175690	0.848620	-0.093761
O26	O	0.992688	0.933464	0.195502
O27	O	0.865649	0.945928	0.187881
O28	O	1.166010	0.879066	0.038056
O29	O	0.934407	1.168587	-0.309524
O30	O	0.958153	0.603166	0.226874
O31	O	1.119203	0.587365	0.236536
O32	O	1.131474	0.548768	0.069428
O33	O	0.761086	1.222985	-0.152078
O34	O	0.922136	1.207184	-0.142416
O35	O	0.971483	0.806609	0.119404
O36	O	1.073514	0.774586	0.026718
O37	O	1.008661	0.978563	-0.097992
O38	O	0.906629	1.010587	-0.005306
C39	C	0.915898	0.595308	-0.013726
C40	C	0.905587	0.496691	-0.004359
C41	C	0.951605	0.436839	-0.046162
C42	C	0.940949	0.334914	-0.036482
C43	C	0.692842	0.910743	-0.056529
C44	C	0.606828	0.919183	-0.061689
C45	C	0.449355	0.934599	-0.071113
C46	C	0.443198	0.837160	-0.011540
C47	C	0.355575	0.845737	-0.016783
C48	C	0.536985	0.926023	-0.065871
C49	C	1.199718	0.861010	-0.026121
C50	C	1.285732	0.852571	-0.020961
C51	C	0.965591	0.825139	-0.304295
C52	C	0.972145	0.804526	-0.393545
C53	C	0.976662	1.176446	-0.068924
C54	C	0.986973	1.275062	-0.078290
C55	C	0.942895	0.896522	-0.495200
C56	C	0.949669	0.875219	-0.587445
C57	C	0.926969	0.946614	0.221645
C58	C	0.920415	0.967228	0.310895
C59	C	1.169336	0.570441	0.001478
C60	C	1.245039	0.463386	0.016005
C61	C	0.896587	0.656045	0.249244
C62	C	0.879722	0.578043	0.347860
C63	C	1.150025	0.631179	0.264448
C64	C	1.219174	0.544737	0.368224
C65	C	0.742535	1.140575	-0.347098
C66	C	0.673385	1.227017	-0.450874
C67	C	0.723224	1.201312	-0.084128
C68	C	0.647520	1.308368	-0.098655
C69	C	0.995973	1.115708	-0.331894
C70	C	1.012838	1.193711	-0.430510
C71	C	1.234873	0.406104	-0.031501
C72	C	1.305999	0.305523	-0.017873
C73	C	1.387290	0.262220	0.043268
C74	C	1.397455	0.319511	0.090774
C75	C	1.326331	0.420095	0.077139
C76	C	0.917519	0.548418	0.448499
C77	C	0.901670	0.475142	0.541166
C78	C	0.848028	0.431484	0.533193
C79	C	0.810226	0.461115	0.432543
C80	C	0.826071	0.534398	0.339877
C81	C	1.304916	0.487426	0.368578
C82	C	1.369899	0.406215	0.466078
C83	C	1.349137	0.382310	0.563224
C84	C	1.263388	0.439630	0.562867
C85	C	1.198407	0.520846	0.465367
C86	C	0.587645	1.284339	-0.451229
C87	C	0.522666	1.365579	-0.548732
C88	C	0.543427	1.389489	-0.645878
C89	C	0.629176	1.332162	-0.645521
C90	C	0.694155	1.250930	-0.548019
C91	C	0.657688	1.365657	-0.051158
C92	C	0.586566	1.466258	-0.064812
C93	C	0.505276	1.509564	-0.125956
C94	C	0.495110	1.452270	-0.173458
C95	C	0.566233	1.351675	-0.159810
C96	C	1.066484	1.237346	-0.422502
C97	C	1.082347	1.310625	-0.515152
C98	C	1.044559	1.340276	-0.615810
C99	C	0.990910	1.296632	-0.623816
C100	C	0.975052	1.223347	-0.531166
H101	H	0.858303	0.472472	0.038598
Cl102	Cl	0.414875	1.437626	-0.549156
Cl103	Cl	1.477689	0.334164	0.466503
H104	H	1.034266	0.299269	-0.121244
H105	H	0.890359	1.061768	-0.707853
H106	H	1.002204	0.709993	-0.374806
Cl107	Cl	0.742794	0.406218	0.422538
H108	H	0.594860	1.512892	-0.026124
H109	H	1.168690	0.441357	-0.081300
H110	H	1.402057	0.316176	0.642607
Cl111	Cl	0.536659	0.698414	0.073267
H112	H	1.463652	0.284238	0.140555
Cl113	Cl	1.237302	0.409563	0.685003
Cl114	Cl	0.355899	1.073330	-0.155935
H115	H	0.979729	0.780679	-0.568699
H116	H	0.490509	1.455635	-0.725263
H117	H	0.912844	0.991054	-0.513938
H118	H	1.445197	0.180316	0.054363
Cl119	Cl	0.984961	0.603285	0.458552
Cl120	Cl	1.293200	0.233516	-0.077598
H121	H	1.334620	0.466723	0.115832
Cl122	Cl	1.090618	0.592879	0.464942
Cl123	Cl	0.801941	1.178867	-0.547591
H124	H	0.932458	0.451024	0.623111
H125	H	0.835133	0.371814	0.608656
Cl126	Cl	0.778552	0.571622	0.213364
H127	H	1.321836	0.506875	0.289487
H128	H	0.570724	1.264878	-0.372137
H129	H	0.723872	1.330407	-0.001363
Cl130	Cl	0.943401	1.333931	-0.750368
Cl131	Cl	0.655262	1.362229	-0.767657
Cl132	Cl	0.415873	1.636027	-0.143101
H133	H	0.428915	1.487545	-0.223242
H134	H	1.057478	1.399950	-0.691244
H135	H	0.557941	1.305034	-0.198486
H136	H	1.097259	1.213218	-0.340550
Cl137	Cl	1.149787	1.365485	-0.505064
H138	H	0.998895	0.461050	-0.089113
Cl139	Cl	0.867941	0.297532	0.029850
Cl140	Cl	0.907598	1.168512	-0.541254
