data_functionalizedCrystal
_audit_creation_method	'MofGen! by Chris Wilmer'
_symmetry_space_group_name_H-M	'P1'
_symmetry_Int_Tables_number	1
_symmetry_cell_setting	triclinic
loop_
_symmetry_equiv_pos_as_xyz
  x,y,z
_cell_length_a	10.686285
_cell_length_b	19.805407
_cell_length_c	19.805399
_cell_angle_alpha	89.978936
_cell_angle_beta	94.389466
_cell_angle_gamma	94.369619
loop_
_atom_site_label
_atom_site_type_symbol
_atom_site_fract_x
_atom_site_fract_y
_atom_site_fract_z
Zn1	Zn	-0.502409	-1.055501	0.362136
Zn2	Zn	-0.002409	-0.555501	0.862136
Zn3	Zn	-0.713420	-1.064138	0.240292
Zn4	Zn	-0.213420	-0.564138	0.740292
Zn5	Zn	-0.502440	-0.942317	0.248957
Zn6	Zn	-0.002440	-0.442317	0.748957
Zn7	Zn	-0.713349	-0.950998	0.353439
Zn8	Zn	-0.213349	-0.450998	0.853439
O9	O	-0.607905	-1.003239	0.301206
O10	O	-0.107905	-0.503239	0.801206
O11	O	-0.530417	-1.151364	0.345987
O12	O	-0.030417	-0.651364	0.845987
O13	O	-0.685476	-1.047959	0.146723
O14	O	-0.185476	-0.547959	0.646723
O15	O	-0.325861	-0.950084	0.271237
O16	O	0.174139	-0.450084	0.771237
O17	O	-0.685446	-1.157709	0.256469
O18	O	-0.185446	-0.657709	0.756469
O19	O	-0.325838	-1.033240	0.354389
O20	O	0.174162	-0.533240	0.854389
O21	O	-0.530470	-0.958458	0.153089
O22	O	-0.030470	-0.458458	0.653089
O23	O	-0.530401	-0.848752	0.262803
O24	O	-0.030401	-0.348752	0.762803
O25	O	-0.685325	-0.964879	0.449311
O26	O	-0.185325	-0.464879	0.949311
O27	O	-0.685355	-0.855129	0.339565
O28	O	-0.185355	-0.355129	0.839565
O29	O	-0.530348	-1.041657	0.455701
O30	O	-0.030348	-0.541657	0.955701
O31	O	-0.889986	-1.056377	0.248035
O32	O	-0.389986	-0.556377	0.748035
O33	O	-0.889934	-0.973254	0.331163
O34	O	-0.389934	-0.473254	0.831163
C35	C	-0.607875	-0.827381	0.301181
C36	C	-0.107875	-0.327381	0.801181
C37	C	-0.607892	-0.752150	0.301185
C38	C	-0.107892	-0.252150	0.801185
C39	C	-0.688697	-0.720150	0.341079
C40	C	-0.188697	-0.220150	0.841079
C41	C	-0.688697	-0.649461	0.341087
C42	C	-0.188697	-0.149461	0.841087
C43	C	-0.607898	-0.610775	0.301196
C44	C	-0.107898	-0.110775	0.801196
C45	C	-0.527084	-0.642780	0.261300
C46	C	-0.027084	-0.142780	0.761300
C47	C	-0.527078	-0.713467	0.261297
C48	C	-0.027078	-0.213467	0.761297
C49	C	-0.527102	-0.357707	0.261314
C50	C	-0.027102	0.142293	0.761314
C51	C	-0.527116	-0.287016	0.261320
C52	C	-0.027116	0.212984	0.761320
C53	C	-0.688721	-0.293702	0.341105
C54	C	-0.188721	0.206298	0.841105
C55	C	-0.688716	-0.364389	0.341101
C56	C	-0.188716	0.135611	0.841101
C57	C	-0.607898	-0.396387	0.301208
C58	C	-0.107898	0.103613	0.801208
C59	C	-0.607897	-0.473036	0.301201
C60	C	-0.107897	0.026964	0.801201
C61	C	-0.607904	-0.534128	0.301199
C62	C	-0.107904	-0.034128	0.801199
C63	C	-0.935744	-1.016713	0.287730
C64	C	-0.435744	-0.516713	0.787730
C65	C	-1.075995	-1.022539	0.281987
C66	C	-0.575995	-0.522539	0.781987
C67	C	-0.278786	-0.989730	0.314750
C68	C	0.221214	-0.489730	0.814750
C69	C	-0.138535	-0.983974	0.320521
C70	C	0.361465	-0.483974	0.820521
C71	C	-0.607825	-1.003273	0.477752
C72	C	-0.107825	-0.503273	0.977752
C73	C	-0.607791	-1.003288	0.552985
C74	C	-0.107791	-0.503288	1.052985
C75	C	-0.607927	-0.179782	0.301226
C76	C	-0.107927	0.320218	0.801226
C77	C	-0.607916	-0.255014	0.301218
C78	C	-0.107916	0.244986	0.801218
C79	C	-0.607893	-1.003239	0.125351
C80	C	-0.107893	-0.503239	0.625351
C81	C	-0.607571	-1.003341	0.050132
C82	C	-0.107571	-0.503341	0.550132
C83	C	-0.527091	-1.043267	0.591658
C84	C	-0.027091	-0.543267	1.091658
C85	C	-0.527054	-1.043273	0.662348
C86	C	-0.027054	-0.543273	1.162348
C87	C	-0.607725	-1.003302	0.694364
C88	C	-0.107725	-0.503302	1.194364
C89	C	-0.688430	-0.963318	0.655686
C90	C	-0.188430	-0.463318	1.155686
C91	C	-0.688459	-0.963310	0.584998
C92	C	-0.188459	-0.463310	1.084998
C93	C	-0.688312	-0.963352	0.940764
C94	C	-0.188312	-0.463352	1.440764
C95	C	-0.688279	-0.963365	1.011458
C96	C	-0.188279	-0.463365	1.511458
C97	C	-0.526907	-1.043315	1.018115
C98	C	-0.026907	-0.543315	1.518115
C99	C	-0.526937	-1.043306	0.947427
C100	C	-0.026937	-0.543306	1.447427
C101	C	-0.607635	-1.003320	0.908755
C102	C	-0.107635	-0.503320	1.408755
C103	C	-0.607672	-1.003313	0.832105
C104	C	-0.107672	-0.503313	1.332105
C105	C	-0.607696	-1.003312	0.771012
C106	C	-0.107696	-0.503312	1.271012
H107	H	-0.754498	-0.623410	0.373572
H108	H	-0.254498	-0.123410	0.873572
H109	H	-0.461290	-0.611276	0.228824
H110	H	0.038710	-0.111276	0.728824
H111	H	-0.461312	-0.255519	0.228836
H112	H	0.038688	0.244481	0.728836
H113	H	-0.753974	-0.930813	1.037522
H114	H	-0.253974	-0.430813	1.537522
C115	C	-1.148616	-1.073163	0.231473
C116	C	-0.648616	-0.573163	0.731473
N117	N	-1.203316	-1.111293	0.193427
N118	N	-0.703316	-0.611293	0.693427
C119	C	-1.065918	-0.933351	0.371031
C120	C	-0.565918	-0.433351	0.871031
N121	N	-1.011215	-0.895221	0.409077
N122	N	-0.511215	-0.395221	0.909077
H123	H	-0.754522	-0.267640	0.373590
H124	H	-0.254522	0.232360	0.873590
H125	H	-0.461403	-1.075818	0.565596
H126	H	0.038597	-0.575818	1.065596
H127	H	-0.754498	-0.751644	0.373560
H128	H	-0.254498	-0.251644	0.873560
C129	C	-0.438190	-0.748667	0.217408
C130	C	0.061810	-0.248667	0.717408
N131	N	-0.371233	-0.775179	0.184351
N132	N	0.128767	-0.275179	0.684351
H133	H	-0.461343	-1.075829	0.693833
H134	H	0.038657	-0.575829	1.193833
H135	H	-0.461250	-1.075857	0.921363
H136	H	0.038750	-0.575857	1.421363
H137	H	-0.754515	-0.395884	0.373582
H138	H	-0.254515	0.104116	0.873582
H139	H	-0.461305	-0.383752	0.228826
H140	H	0.038695	0.116248	0.728826
C141	C	-0.438121	-1.087292	1.060661
C142	C	0.061879	-0.587292	1.560661
N143	N	-0.371248	-1.120414	1.092705
N144	N	0.128752	-0.620414	1.592705
H145	H	-0.754040	-0.930803	0.909285
H146	H	-0.254040	-0.430803	1.409285
H147	H	-0.754109	-0.930771	0.681759
H148	H	-0.254109	-0.430771	1.181759
C149	C	-0.777238	-0.919331	0.542458
C150	C	-0.277238	-0.419331	1.042458
N151	N	-0.844107	-0.886203	0.510417
N152	N	-0.344107	-0.386203	1.010417
