data_functionalizedCrystal
_audit_creation_method	'MofGen! by Chris Wilmer'
_symmetry_space_group_name_H-M	'P1'
_symmetry_Int_Tables_number	1
_symmetry_cell_setting	triclinic
loop_
_symmetry_equiv_pos_as_xyz
  x,y,z
_cell_length_a	12.811457
_cell_length_b	14.971486
_cell_length_c	13.448316
_cell_angle_alpha	90.006811
_cell_angle_beta	95.425199
_cell_angle_gamma	96.170139
loop_
_atom_site_label
_atom_site_type_symbol
_atom_site_fract_x
_atom_site_fract_y
_atom_site_fract_z
O1	O	1.392808	-0.120466	0.042912
O2	O	1.087245	-0.133569	0.015354
O3	O	1.248216	0.003160	0.029878
O4	O	1.231836	-0.257194	0.028387
O5	O	1.248196	0.003168	0.195260
O6	O	1.087224	-0.133560	0.180736
O7	O	1.392788	-0.120457	0.208294
Cu8	Cu	1.240004	-0.127008	0.209615
Cu9	Cu	1.240028	-0.127018	0.014032
O10	O	1.231816	-0.257186	0.193769
C11	C	1.048130	-0.132831	0.094518
C12	C	0.931611	-0.130634	0.084010
C13	C	0.712639	-0.126479	0.244583
C14	C	0.603159	-0.124414	0.234715
C15	C	0.603171	-0.124433	0.054405
C16	C	0.712651	-0.126498	0.064274
C17	C	0.767381	-0.127522	0.159366
C18	C	0.876861	-0.129593	0.169233
C19	C	0.876872	-0.129606	-0.011075
C20	C	0.767392	-0.127541	-0.020944
C21	C	1.247474	0.036491	0.112503
C22	C	1.245278	0.135794	0.112304
C23	C	1.431902	-0.121195	0.129127
C24	C	1.548421	-0.123392	0.139629
C25	C	1.232559	-0.290517	0.111142
C26	C	1.234754	-0.389820	0.111334
N27	N	1.239995	-0.127000	0.347179
C28	C	1.339845	0.192755	0.120834
C29	C	1.337776	0.286060	0.120637
C30	C	1.241139	0.322403	0.111918
C31	C	1.146566	0.265435	0.103385
C32	C	1.148636	0.172132	0.103575
C33	C	1.142258	0.459910	0.102993
C34	C	1.140188	0.553219	0.102805
C35	C	1.331398	0.573838	0.120055
C36	C	1.333468	0.480534	0.120245
C37	C	1.238894	0.423573	0.111714
N38	N	1.240046	-0.127019	-0.123531
C39	C	1.311295	-0.066482	0.405653
C40	C	1.311302	-0.066481	0.509757
C41	C	1.240012	-0.127004	0.555385
C42	C	1.168704	-0.187525	0.496903
C43	C	1.168694	-0.187521	0.392801
C44	C	1.168734	-0.187531	0.713886
C45	C	1.168745	-0.187537	0.817995
C46	C	1.311342	-0.066492	0.830842
C47	C	1.311331	-0.066487	0.726739
C48	C	1.240024	-0.127010	0.668265
H49	H	0.757199	-0.127324	0.322011
H50	H	1.412158	0.450947	0.127352
H51	H	0.921454	-0.130460	-0.080466
H52	H	1.110632	-0.236800	0.345192
H53	H	1.408404	0.620221	0.126999
H54	H	0.558593	-0.123584	-0.023014
O55	O	1.099409	-0.246193	0.541332
C56	C	1.034596	-0.198018	0.595710
H57	H	1.076317	-0.128202	0.615070
H58	H	1.018048	-0.235285	0.667419
H59	H	0.957015	-0.191612	0.548615
O60	O	0.930163	-0.130467	0.261550
C61	C	1.005262	-0.054276	0.273720
H62	H	1.025599	-0.028802	0.197277
H63	H	1.079594	-0.073123	0.318579
H64	H	0.971321	0.000707	0.315145
H65	H	1.061498	0.582806	0.095721
O66	O	0.550138	-0.123446	0.317597
C67	C	0.621929	-0.124768	0.403639
H68	H	0.695662	-0.154526	0.383855
H69	H	0.583685	-0.167538	0.463246
H70	H	0.644491	-0.053312	0.433392
O71	O	0.714150	-0.126707	-0.113290
C72	C	0.639014	-0.202875	-0.125438
H73	H	0.663764	-0.257568	-0.072044
H74	H	0.633815	-0.228837	-0.205640
H75	H	0.558707	-0.183812	-0.108455
H76	H	1.065246	0.413533	0.096043
H77	H	1.067883	0.295033	0.096280
O78	O	1.433810	0.157603	0.129265
C79	C	1.516832	0.227891	0.136772
H80	H	1.487329	0.291374	0.102802
H81	H	1.584298	0.208141	0.094838
H82	H	1.546002	0.240994	0.218745
H83	H	1.369359	-0.017202	0.557366
O84	O	1.380475	-0.007484	0.682564
C85	C	1.363191	0.081064	0.706643
H86	H	1.279122	0.081732	0.727628
H87	H	1.375229	0.126028	0.639372
H88	H	1.421245	0.107034	0.772397
H89	H	1.414781	0.332434	0.127585
H90	H	1.071630	0.125754	0.096629
H91	H	1.369352	-0.017201	0.368510
O92	O	1.380753	-0.007788	0.887609
C93	C	1.484660	-0.022762	0.871501
H94	H	1.485246	-0.094378	0.842922
H95	H	1.537326	-0.012704	0.944704
H96	H	1.515429	0.026687	0.813854
O97	O	1.099342	-0.246226	0.862268
C98	C	0.995432	-0.231241	0.827472
H99	H	0.994849	-0.159626	0.798803
H100	H	0.942785	-0.241289	0.891201
H101	H	0.964637	-0.280691	0.764277
O102	O	1.099573	-0.246447	0.657135
C103	C	1.116729	-0.335064	0.684119
H104	H	1.200761	-0.335853	0.720299
H105	H	1.104709	-0.379902	0.614567
H106	H	1.058593	-0.361096	0.739308
