data_functionalizedCrystal
_audit_creation_method	'MofGen! by Chris Wilmer'
_symmetry_space_group_name_H-M	'P1'
_symmetry_Int_Tables_number	1
_symmetry_cell_setting	triclinic
loop_
_symmetry_equiv_pos_as_xyz
  x,y,z
_cell_length_a	11.026607
_cell_length_b	15.944551
_cell_length_c	10.065875
_cell_angle_alpha	98.788968
_cell_angle_beta	79.302338
_cell_angle_gamma	96.042377
loop_
_atom_site_label
_atom_site_type_symbol
_atom_site_fract_x
_atom_site_fract_y
_atom_site_fract_z
O1	O	1.627949	0.342077	-0.113512
O2	O	1.274640	0.302024	-0.113511
O3	O	1.460941	0.201235	-0.113499
O4	O	1.441648	0.442866	-0.113524
O5	O	1.425416	0.220553	0.113487
O6	O	1.239115	0.321342	0.113475
O7	O	1.592424	0.361394	0.113475
Zn8	Zn	1.410129	0.344435	0.149514
Zn9	Zn	1.456935	0.318983	-0.149550
O10	O	1.406123	0.462183	0.113463
C11	C	1.211666	0.304294	-0.000018
C12	C	1.076950	0.282267	-0.000017
C13	C	1.003150	0.343086	-0.000024
C14	C	0.863914	0.320322	-0.000024
C15	C	1.442377	0.179479	-0.000006
C16	C	1.439975	0.085870	-0.000005
C17	C	1.318759	-0.147313	-0.000024
C18	C	1.357533	-0.190296	0.111894
C19	C	1.435632	-0.085514	-0.000015
C20	C	1.392586	-0.209321	-0.111896
C21	C	1.431429	-0.251063	-0.000031
C22	C	1.474424	-0.127256	0.111995
C23	C	1.509476	-0.146286	-0.111896
C24	C	1.548331	-0.189236	0.000049
C25	C	1.438050	0.009855	-0.000005
C26	C	1.429019	-0.346429	-0.000032
C27	C	1.655399	0.359124	-0.000022
C28	C	1.790116	0.381150	-0.000031
C29	C	1.424687	0.483939	-0.000034
C30	C	1.427090	0.577548	-0.000043
N31	N	1.378194	0.361806	0.353617
N32	N	1.488879	0.301607	-0.353654
C33	C	1.445816	0.325021	0.421401
C34	C	1.421248	0.338398	0.578566
H35	H	1.043047	0.412009	-0.000024
H36	H	0.830005	0.450078	-0.000029
C37	C	1.023065	0.189157	-0.000016
H38	H	0.936553	0.186071	-0.000027
H39	H	1.037306	0.168710	0.079138
H40	H	1.062085	0.155246	-0.079182
C41	C	1.187690	-0.122108	0.000123
H42	H	1.133898	-0.137002	0.079744
H43	H	1.158070	-0.151317	-0.078574
H44	H	1.190243	-0.062443	-0.000679
C45	C	1.345792	-0.257430	-0.239716
H46	H	1.264221	-0.243228	-0.239569
H47	H	1.345317	-0.316995	-0.239249
H48	H	1.398958	-0.241728	-0.319189
C49	C	1.270759	-0.216685	0.239712
H50	H	1.316606	-0.241696	0.292406
H51	H	1.206766	-0.256743	0.212813
H52	H	1.235382	-0.167885	0.292785
C53	C	1.521110	-0.079281	0.239963
H54	H	1.522302	-0.019689	0.239213
H55	H	1.602368	-0.093891	0.240292
H56	H	1.467436	-0.094656	0.319338
H57	H	1.521895	0.283620	0.363081
H58	H	1.645418	-0.207712	0.000112
H59	H	1.573676	-0.126742	-0.206519
C60	C	1.591667	0.245677	0.567585
H61	H	1.630899	0.224328	0.630495
H62	H	1.650987	0.278741	0.511823
H63	H	1.556514	0.199442	0.511862
C64	C	1.318462	0.394327	0.657337
H65	H	1.315439	0.395986	0.752636
H66	H	1.241040	0.371105	0.634006
H67	H	1.335515	0.450403	0.633979
H68	H	1.302107	0.403200	0.411939
H69	H	0.824027	0.251392	-0.000052
