data_functionalizedCrystal
_audit_creation_method	'MofGen! by Chris Wilmer'
_symmetry_space_group_name_H-M	'P1'
_symmetry_Int_Tables_number	1
_symmetry_cell_setting	triclinic
loop_
_symmetry_equiv_pos_as_xyz
  x,y,z
_cell_length_a	9.065218
_cell_length_b	9.798715
_cell_length_c	9.065218
_cell_angle_alpha	90.001303
_cell_angle_beta	85.015885
_cell_angle_gamma	90.003772
loop_
_atom_site_label
_atom_site_type_symbol
_atom_site_fract_x
_atom_site_fract_y
_atom_site_fract_z
O1	O	1.960400	0.113488	0.216354
O2	O	2.460400	0.613488	0.716354
O3	O	1.531115	0.113490	0.234100
O4	O	2.031115	0.613490	0.734100
O5	O	1.754631	0.113486	0.010584
O6	O	2.254631	0.613486	0.510584
O7	O	1.736884	0.113492	0.439869
O8	O	2.236884	0.613492	0.939869
O9	O	1.754614	-0.113496	0.010584
O10	O	2.254614	0.386504	0.510584
O11	O	1.531098	-0.113492	0.234099
O12	O	2.031098	0.386508	0.734099
O13	O	1.960383	-0.113494	0.216353
O14	O	2.460383	0.386506	0.716353
Zn15	Zn	1.745738	-0.149531	0.225226
Zn16	Zn	2.245738	0.350469	0.725226
Zn17	Zn	1.745760	0.149527	0.225227
Zn18	Zn	2.245760	0.649527	0.725227
O19	O	1.736868	-0.113490	0.439869
O20	O	2.236868	0.386510	0.939869
C21	C	1.476120	-0.000001	0.232394
C22	C	1.976120	0.499999	0.732394
C23	C	1.312277	-0.000000	0.227294
C24	C	1.812277	0.500000	0.727294
N25	N	1.745734	-0.353631	0.225225
N26	N	2.245734	0.146369	0.725225
C27	C	1.839580	-0.421409	0.130961
C28	C	2.339580	0.078591	0.630961
C29	C	1.839604	-0.578572	0.130956
C30	C	2.339604	-0.078572	0.630956
C31	C	2.015378	0.000000	0.218059
C32	C	2.515378	0.500000	0.718059
C33	C	2.179221	0.000008	0.223158
C34	C	2.679221	0.500008	0.723158
C35	C	1.752917	-0.000003	-0.044403
C36	C	2.252917	0.499997	0.455597
C37	C	1.747817	0.000004	-0.208245
C38	C	2.247817	0.500004	0.291755
N39	N	1.745776	0.353627	0.225217
N40	N	2.245776	0.853627	0.725217
C41	C	1.738582	0.000002	0.494855
C42	C	2.238582	0.500002	0.994855
C43	C	1.743681	0.000004	0.658698
C44	C	2.243681	0.500004	1.158698
H45	H	1.919955	-0.636859	0.050258
H46	H	2.419955	-0.136859	0.550258
O47	O	1.649833	-0.423350	0.321299
O48	O	2.149833	0.076650	0.821299
C49	C	1.557579	-0.505992	0.241192
C50	C	2.057579	-0.005992	0.741192
H51	H	1.614526	-0.527246	0.126392
H52	H	2.114526	-0.027246	0.626392
H53	H	1.535340	-0.606535	0.302395
H54	H	2.035340	-0.106535	0.802395
H55	H	1.448274	-0.451027	0.230015
H56	H	1.948274	0.048973	0.730015
O57	O	1.650120	-0.576707	0.321570
O58	O	2.150120	-0.076707	0.821570
C59	C	1.730702	-0.494068	0.413403
C60	C	2.230702	0.005932	0.913403
H61	H	1.845264	-0.472780	0.355915
H62	H	2.345264	0.027220	0.855915
H63	H	1.669564	-0.393542	0.435957
H64	H	2.169564	0.106458	0.935957
H65	H	1.742438	-0.549054	0.522592
H66	H	2.242438	-0.049054	1.022592
O67	O	1.935243	-0.351662	0.034676
O68	O	2.435243	0.148338	0.534676
C69	C	1.854691	-0.269009	-0.057157
C70	C	2.354691	0.230991	0.442843
H71	H	1.740092	-0.247793	0.000277
H72	H	2.240092	0.252207	0.500277
H73	H	1.915803	-0.168449	-0.079610
H74	H	2.415803	0.331551	0.420390
H75	H	1.843043	-0.323946	-0.166395
H76	H	2.343043	0.176054	0.333605
