data_functionalizedCrystal
_audit_creation_method	'MofGen! by Chris Wilmer'
_symmetry_space_group_name_H-M	'P1'
_symmetry_Int_Tables_number	1
_symmetry_cell_setting	triclinic
loop_
_symmetry_equiv_pos_as_xyz
  x,y,z
_cell_length_a	25.639240
_cell_length_b	21.395362
_cell_length_c	21.395355
_cell_angle_alpha	89.956060
_cell_angle_beta	89.985684
_cell_angle_gamma	90.047938
loop_
_atom_site_label
_atom_site_type_symbol
_atom_site_fract_x
_atom_site_fract_y
_atom_site_fract_z
Zn1	Zn	-0.207990	0.957854	-0.354604
Zn2	Zn	0.042010	1.207854	-0.104604
Zn3	Zn	0.292010	1.457854	0.145396
Zn4	Zn	0.542010	1.707854	0.395396
Zn5	Zn	-0.295409	0.957754	-0.249834
Zn6	Zn	-0.045409	1.207754	0.000166
Zn7	Zn	0.204591	1.457754	0.250166
Zn8	Zn	0.454591	1.707754	0.500166
Zn9	Zn	-0.208014	0.853069	-0.249805
Zn10	Zn	0.041986	1.103069	0.000195
Zn11	Zn	0.291986	1.353069	0.250195
Zn12	Zn	0.541986	1.603069	0.500195
Zn13	Zn	-0.295420	0.853035	-0.354539
Zn14	Zn	-0.045420	1.103035	-0.104539
Zn15	Zn	0.204580	1.353035	0.145461
Zn16	Zn	0.454580	1.603035	0.395461
O17	O	-0.251708	0.905428	-0.302195
O18	O	-0.001708	1.155428	-0.052195
O19	O	0.248292	1.405428	0.197805
O20	O	0.498292	1.655428	0.447805
O21	O	-0.219571	1.045518	-0.340745
O22	O	0.030429	1.295518	-0.090745
O23	O	0.280429	1.545518	0.159255
O24	O	0.530429	1.795518	0.409255
O25	O	-0.283822	0.943839	-0.162152
O26	O	-0.033822	1.193839	0.087848
O27	O	0.216178	1.443839	0.337848
O28	O	0.466178	1.693839	0.587848
O29	O	-0.134846	0.867024	-0.263722
O30	O	0.115154	1.117024	-0.013722
O31	O	0.365154	1.367024	0.236278
O32	O	0.615154	1.617024	0.486278
O33	O	-0.283798	1.045445	-0.263771
O34	O	-0.033798	1.295445	-0.013771
O35	O	0.216202	1.545445	0.236229
O36	O	0.466202	1.795445	0.486229
O37	O	-0.134828	0.944009	-0.340717
O38	O	0.115172	1.194009	-0.090717
O39	O	0.365172	1.444009	0.159283
O40	O	0.615172	1.694009	0.409283
O41	O	-0.219613	0.866927	-0.162131
O42	O	0.030387	1.116927	0.087869
O43	O	0.280387	1.366927	0.337869
O44	O	0.530387	1.616927	0.587869
O45	O	-0.219623	0.765386	-0.263659
O46	O	0.030377	1.015386	-0.013659
O47	O	0.280377	1.265386	0.236341
O48	O	0.530377	1.515386	0.486341
O49	O	-0.283817	0.866968	-0.442225
O50	O	-0.033817	1.116968	-0.192225
O51	O	0.216183	1.366968	0.057775
O52	O	0.466183	1.616968	0.307775
O53	O	-0.283840	0.765362	-0.340606
O54	O	-0.033840	1.015362	-0.090606
O55	O	0.216160	1.265362	0.159394
O56	O	0.466160	1.515362	0.409394
O57	O	-0.219582	0.943977	-0.442273
O58	O	0.030418	1.193977	-0.192273
O59	O	0.280418	1.443977	0.057727
O60	O	0.530418	1.693977	0.307727
O61	O	-0.368576	0.943807	-0.263708
O62	O	-0.118576	1.193807	-0.013708
O63	O	0.131424	1.443807	0.236292
O64	O	0.381424	1.693807	0.486292
O65	O	-0.368584	0.866871	-0.340634
O66	O	-0.118584	1.116871	-0.090634
O67	O	0.131416	1.366871	0.159366
O68	O	0.381416	1.616871	0.409366
C69	C	-0.251736	0.742640	-0.302123
C70	C	-0.001736	0.992640	-0.052123
C71	C	0.248264	1.242640	0.197877
C72	C	0.498264	1.492640	0.447877
C73	C	-0.251760	0.672999	-0.302107
C74	C	-0.001760	0.922999	-0.052107
C75	C	0.248240	1.172999	0.197893
C76	C	0.498240	1.422999	0.447893
C77	C	-0.285242	0.640289	-0.342113
C78	C	-0.035242	0.890289	-0.092113
C79	C	0.214758	1.140289	0.157887
C80	C	0.464758	1.390289	0.407887
C81	C	-0.285230	0.574854	-0.342141
C82	C	-0.035230	0.824854	-0.092141
C83	C	0.214770	1.074854	0.157859
C84	C	0.464770	1.324854	0.407859
C85	C	-0.251740	0.542131	-0.302151
C86	C	-0.001740	0.792131	-0.052151
C87	C	0.248260	1.042131	0.197849
C88	C	0.498260	1.292131	0.447849
C89	C	-0.218252	0.574848	-0.262142
C90	C	0.031748	0.824848	-0.012142
C91	C	0.281748	1.074848	0.237858
C92	C	0.531748	1.324848	0.487858
C93	C	-0.218262	0.640282	-0.262120
C94	C	0.031738	0.890282	-0.012120
C95	C	0.281738	1.140282	0.237880
C96	C	0.531738	1.390282	0.487880
C97	C	-0.247528	0.438406	-0.245746
C98	C	0.002472	0.688406	0.004254
C99	C	0.252472	0.938406	0.254254
C100	C	0.502472	1.188406	0.504254
C101	C	-0.247522	0.372973	-0.245767
C102	C	0.002478	0.622973	0.004233
C103	C	0.252478	0.872973	0.254233
C104	C	0.502478	1.122973	0.504233
C105	C	-0.251706	0.340310	-0.302220
C106	C	-0.001706	0.590310	-0.052220
C107	C	0.248294	0.840310	0.197780
C108	C	0.498294	1.090310	0.447780
C109	C	-0.255908	0.373088	-0.358654
C110	C	-0.005908	0.623088	-0.108654
C111	C	0.244092	0.873088	0.141346
C112	C	0.494092	1.123088	0.391346
C113	C	-0.255918	0.438522	-0.358632
C114	C	-0.005918	0.688522	-0.108632
C115	C	0.244082	0.938522	0.141368
C116	C	0.494082	1.188522	0.391368
C117	C	-0.251725	0.471178	-0.302171
C118	C	-0.001725	0.721178	-0.052171
C119	C	0.248275	0.971178	0.197829
C120	C	0.498275	1.221178	0.447829
C121	C	-0.285176	0.236648	-0.342260
C122	C	-0.035176	0.486648	-0.092260
C123	C	0.214824	0.736648	0.157740
C124	C	0.464824	0.986648	0.407740
C125	C	-0.285160	0.171211	-0.342289
C126	C	-0.035160	0.421211	-0.092289
C127	C	0.214840	0.671211	0.157711
C128	C	0.464840	0.921211	0.407711
C129	C	-0.218184	0.171206	-0.262285
C130	C	0.031816	0.421206	-0.012285
C131	C	0.281816	0.671206	0.237715
C132	C	0.531816	0.921206	0.487715
C133	C	-0.218198	0.236642	-0.262261
C134	C	0.031802	0.486642	-0.012261
C135	C	0.281802	0.736642	0.237739
C136	C	0.531802	0.986642	0.487739
C137	C	-0.251697	0.269359	-0.302248
C138	C	-0.001697	0.519359	-0.052248
C139	C	0.248303	0.769359	0.197752
C140	C	0.498303	1.019359	0.447752
C141	C	-0.387551	0.905341	-0.302181
C142	C	-0.137551	1.155341	-0.052181
C143	C	0.112449	1.405341	0.197819
C144	C	0.362449	1.655341	0.447819
C145	C	-0.445665	0.905362	-0.302196
C146	C	-0.195665	1.155362	-0.052196
C147	C	0.054335	1.405362	0.197804
C148	C	0.304335	1.655362	0.447804
C149	C	-0.696798	0.945510	-0.342328
C150	C	-0.446798	1.195510	-0.092328
C151	C	-0.196798	1.445510	0.157672
C152	C	0.053202	1.695510	0.407672
C153	C	-0.642194	0.945492	-0.342323
C154	C	-0.392194	1.195492	-0.092323
C155	C	-0.142194	1.445492	0.157677
C156	C	0.107806	1.695492	0.407677
O157	O	-0.613905	0.979555	-0.376424
O158	O	-0.363905	1.229555	-0.126424
O159	O	-0.113905	1.479555	0.123576
O160	O	0.136095	1.729555	0.373576
N161	N	-0.614939	0.905430	-0.302204
N162	N	-0.364939	1.155430	-0.052204
N163	N	-0.114939	1.405430	0.197796
N164	N	0.135061	1.655430	0.447796
C165	C	-0.642291	0.865389	-0.262082
C166	C	-0.392291	1.115389	-0.012082
C167	C	-0.142291	1.365389	0.237918
C168	C	0.107709	1.615389	0.487918
O169	O	-0.614095	0.831313	-0.227956
O170	O	-0.364095	1.081313	0.022044
O171	O	-0.114095	1.331313	0.272044
O172	O	0.135905	1.581313	0.522044
C173	C	-0.696895	0.865412	-0.262084
C174	C	-0.446895	1.115412	-0.012084
C175	C	-0.196895	1.365412	0.237916
C176	C	0.053105	1.615412	0.487916
C177	C	-0.724146	0.905471	-0.302210
C178	C	-0.474146	1.155471	-0.052210
C179	C	-0.224146	1.405471	0.197790
C180	C	0.025854	1.655471	0.447790
C181	C	-0.724050	0.985567	-0.382451
C182	C	-0.474050	1.235567	-0.132451
C183	C	-0.224050	1.485567	0.117549
C184	C	0.025950	1.735567	0.367549
C185	C	-0.778650	0.985585	-0.382456
C186	C	-0.528650	1.235585	-0.132456
C187	C	-0.278650	1.485585	0.117544
C188	C	-0.028650	1.735585	0.367544
C189	C	-0.805999	0.945546	-0.342339
C190	C	-0.555999	1.195546	-0.092339
C191	C	-0.305999	1.445546	0.157661
C192	C	-0.055999	1.695546	0.407661
C193	C	-0.778747	0.905489	-0.302216
C194	C	-0.528747	1.155489	-0.052216
C195	C	-0.278747	1.405489	0.197784
C196	C	-0.028747	1.655489	0.447784
C197	C	-0.724246	0.825375	-0.221959
C198	C	-0.474246	1.075375	0.028041
C199	C	-0.224246	1.325375	0.278041
C200	C	0.025754	1.575375	0.528041
C201	C	-0.778853	0.825401	-0.221965
C202	C	-0.528853	1.075401	0.028035
C203	C	-0.278853	1.325401	0.278035
C204	C	-0.028853	1.575401	0.528035
C205	C	-0.806105	0.865461	-0.262091
C206	C	-0.556105	1.115461	-0.012091
C207	C	-0.306105	1.365461	0.237909
C208	C	-0.056105	1.615461	0.487909
C209	C	-0.860696	0.865468	-0.262104
C210	C	-0.610696	1.115468	-0.012104
C211	C	-0.360696	1.365468	0.237896
C212	C	-0.110696	1.615468	0.487896
N213	N	-0.887951	0.905530	-0.302223
N214	N	-0.637951	1.155530	-0.052223
N215	N	-0.387951	1.405530	0.197777
N216	N	-0.137951	1.655530	0.447777
C217	C	-0.860602	0.945568	-0.342341
C218	C	-0.610602	1.195568	-0.092341
C219	C	-0.360602	1.445568	0.157659
C220	C	-0.110602	1.695568	0.407659
C221	C	-0.527621	0.865346	-0.262080
C222	C	-0.277621	1.115346	-0.012080
C223	C	-0.027621	1.365346	0.237920
C224	C	0.222379	1.615346	0.487920
C225	C	-0.473018	0.865320	-0.262080
C226	C	-0.223018	1.115320	-0.012080
C227	C	0.026982	1.365320	0.237920
C228	C	0.276982	1.615320	0.487920
C229	C	-0.472924	0.945423	-0.342321
C230	C	-0.222924	1.195423	-0.092321
C231	C	0.027076	1.445423	0.157679
C232	C	0.277076	1.695423	0.407679
C233	C	-0.527528	0.945446	-0.342323
C234	C	-0.277528	1.195446	-0.092323
C235	C	-0.027528	1.445446	0.157677
C236	C	0.222472	1.695446	0.407677
C237	C	-0.554875	0.905407	-0.302199
C238	C	-0.304875	1.155407	-0.052199
C239	C	-0.054875	1.405407	0.197801
C240	C	0.195125	1.655407	0.447801
C241	C	-0.975267	0.945603	-0.342349
C242	C	-0.725267	1.195603	-0.092349
C243	C	-0.475267	1.445603	0.157651
C244	C	-0.225267	1.695603	0.407651
C245	C	-1.029873	0.945615	-0.342353
C246	C	-0.779873	1.195615	-0.092353
C247	C	-0.529873	1.445615	0.157647
C248	C	-0.279873	1.695615	0.407647
C249	C	-1.029962	0.865514	-0.262111
C250	C	-0.779962	1.115514	-0.012111
C251	C	-0.529962	1.365514	0.237889
C252	C	-0.279962	1.615514	0.487889
C253	C	-0.975361	0.865499	-0.262109
C254	C	-0.725361	1.115499	-0.012109
C255	C	-0.475361	1.365499	0.237891
C256	C	-0.225361	1.615499	0.487891
C257	C	-0.948015	0.905549	-0.302230
C258	C	-0.698015	1.155549	-0.052230
C259	C	-0.448015	1.405549	0.197770
C260	C	-0.198015	1.655549	0.447770
O261	O	-0.889019	0.831423	-0.228019
O262	O	-0.639019	1.081423	0.021981
O263	O	-0.389019	1.331423	0.271981
O264	O	-0.139019	1.581423	0.521981
O265	O	-0.888805	0.979645	-0.376455
O266	O	-0.638805	1.229645	-0.126455
O267	O	-0.388805	1.479645	0.123545
O268	O	-0.138805	1.729645	0.373545
C269	C	-0.115335	0.905532	-0.302224
C270	C	0.134665	1.155532	-0.052224
C271	C	0.384665	1.405532	0.197776
C272	C	0.634665	1.655532	0.447776
C273	C	-0.057221	0.905576	-0.302236
C274	C	0.192779	1.155576	-0.052236
C275	C	0.442779	1.405576	0.197764
C276	C	0.692779	1.655576	0.447764
C277	C	-0.251698	0.905480	-0.465619
C278	C	-0.001698	1.155480	-0.215619
C279	C	0.248302	1.405480	0.034381
C280	C	0.498302	1.655480	0.284381
C281	C	-0.251693	0.905502	-0.535260
C282	C	-0.001693	1.155502	-0.285260
C283	C	0.248307	1.405502	-0.035260
C284	C	0.498307	1.655502	0.214740
C285	C	-0.251681	1.068851	-0.302269
C286	C	-0.001681	1.318851	-0.052269
C287	C	0.248319	1.568851	0.197731
C288	C	0.498319	1.818851	0.447731
C289	C	-0.251669	1.138492	-0.302300
C290	C	-0.001669	1.388492	-0.052300
C291	C	0.248331	1.638492	0.197700
C292	C	0.498331	1.888492	0.447700
C293	C	-0.218245	0.945599	-0.567999
C294	C	0.031755	1.195599	-0.317999
C295	C	0.281755	1.445599	-0.067999
C296	C	0.531755	1.695599	0.182001
C297	C	-0.218222	0.945598	-0.633435
C298	C	0.031778	1.195598	-0.383435
C299	C	0.281778	1.445598	-0.133435
C300	C	0.531778	1.695598	0.116565
C301	C	-0.251658	0.905507	-0.666128
C302	C	-0.001658	1.155507	-0.416128
C303	C	0.248342	1.405507	-0.166128
C304	C	0.498342	1.655507	0.083872
C305	C	-0.285108	0.865402	-0.633382
C306	C	-0.035108	1.115402	-0.383382
C307	C	0.214892	1.365402	-0.133382
C308	C	0.464892	1.615402	0.116618
C309	C	-0.285126	0.865399	-0.567947
C310	C	-0.035126	1.115399	-0.317947
C311	C	0.214874	1.365399	-0.067947
C312	C	0.464874	1.615399	0.182053
C313	C	-0.298736	0.900530	-0.769796
C314	C	-0.048736	1.150530	-0.519796
C315	C	0.201264	1.400530	-0.269796
C316	C	0.451264	1.650530	-0.019796
C317	C	-0.298719	0.900536	-0.835229
C318	C	-0.048719	1.150536	-0.585229
C319	C	0.201281	1.400536	-0.335229
C320	C	0.451281	1.650536	-0.085229
C321	C	-0.251602	0.905511	-0.867949
C322	C	-0.001602	1.155511	-0.617949
C323	C	0.248398	1.405511	-0.367949
C324	C	0.498398	1.655511	-0.117949
C325	C	-0.204501	0.910491	-0.835228
C326	C	0.045499	1.160491	-0.585228
C327	C	0.295499	1.410491	-0.335228
C328	C	0.545499	1.660491	-0.085228
C329	C	-0.204519	0.910489	-0.769794
C330	C	0.045481	1.160489	-0.519794
C331	C	0.295481	1.410489	-0.269794
C332	C	0.545481	1.660489	-0.019794
C333	C	-0.251642	0.905505	-0.737081
C334	C	-0.001642	1.155505	-0.487081
C335	C	0.248358	1.405505	-0.237081
C336	C	0.498358	1.655505	0.012919
C337	C	-0.218127	0.945609	-0.971641
C338	C	0.031873	1.195609	-0.721641
C339	C	0.281873	1.445609	-0.471641
C340	C	0.531873	1.695609	-0.221641
C341	C	-0.218103	0.945604	-1.037078
C342	C	0.031897	1.195604	-0.787078
C343	C	0.281897	1.445604	-0.537078
C344	C	0.531897	1.695604	-0.287078
C345	C	-0.284994	0.865411	-1.037023
C346	C	-0.034994	1.115411	-0.787023
C347	C	0.215006	1.365411	-0.537023
C348	C	0.465006	1.615411	-0.287023
C349	C	-0.285013	0.865413	-0.971588
C350	C	-0.035013	1.115413	-0.721588
C351	C	0.214987	1.365413	-0.471588
C352	C	0.464987	1.615413	-0.221588
C353	C	-0.251580	0.905515	-0.938901
C354	C	-0.001580	1.155515	-0.688901
C355	C	0.248420	1.405515	-0.438901
C356	C	0.498420	1.655515	-0.188901
C357	C	-0.251681	0.905412	-0.139408
C358	C	-0.001681	1.155412	0.110592
C359	C	0.248319	1.405412	0.360592
C360	C	0.498319	1.655412	0.610592
C361	C	-0.251538	0.905511	-0.069767
C362	C	-0.001538	1.155511	0.180233
C363	C	0.248462	1.405511	0.430233
C364	C	0.498462	1.655511	0.680233
H365	H	-0.259314	0.346495	-0.404624
H366	H	-0.009314	0.596495	-0.154624
H367	H	0.240686	0.846495	0.095376
H368	H	0.490686	1.096495	0.345376
H369	H	-0.800834	1.018210	-0.415126
H370	H	-0.550834	1.268210	-0.165126
H371	H	-0.300834	1.518210	0.084874
H372	H	-0.050834	1.768210	0.334874
H373	H	-0.190901	0.978259	-0.945026
H374	H	0.059099	1.228259	-0.695026
H375	H	0.309099	1.478259	-0.445026
H376	H	0.559099	1.728259	-0.195026
H377	H	-0.259338	0.465207	-0.404583
H378	H	-0.009338	0.715207	-0.154583
H379	H	0.240662	0.965207	0.095417
H380	H	0.490662	1.215207	0.345417
H381	H	-0.701787	1.018175	-0.415119
H382	H	-0.451787	1.268175	-0.165119
H383	H	-0.201787	1.518175	0.084881
H384	H	0.048213	1.768175	0.334881
H385	H	-0.702065	0.792755	-0.189285
H386	H	-0.452065	1.042755	0.060715
H387	H	-0.202065	1.292755	0.310715
H388	H	0.047935	1.542755	0.560715
H389	H	-0.190995	0.666914	-0.229541
H390	H	0.059005	0.916914	0.020459
H391	H	0.309005	1.166914	0.270459
H392	H	0.559005	1.416914	0.520459
H393	H	-0.953172	0.832873	-0.229441
H394	H	-0.703172	1.082873	0.020559
H395	H	-0.453172	1.332873	0.270559
H396	H	-0.203172	1.582873	0.520559
H397	H	-0.166167	0.914543	-0.743155
H398	H	0.083833	1.164543	-0.493155
H399	H	0.333833	1.414543	-0.243155
H400	H	0.583833	1.664543	0.006845
H401	H	-0.549713	0.978063	-0.375000
H402	H	-0.299713	1.228063	-0.125000
H403	H	-0.049713	1.478063	0.125000
H404	H	0.200287	1.728063	0.375000
H405	H	-0.166134	0.914543	-0.861867
H406	H	0.083866	1.164543	-0.611867
H407	H	0.333866	1.414543	-0.361867
H408	H	0.583866	1.664543	-0.111867
H409	H	-0.190863	0.978255	-1.063733
H410	H	0.059137	1.228255	-0.813733
H411	H	0.309137	1.478255	-0.563733
H412	H	0.559137	1.728255	-0.313733
H413	H	-0.337072	0.896485	-0.861866
H414	H	-0.087072	1.146485	-0.611866
H415	H	0.162928	1.396485	-0.361866
H416	H	0.412928	1.646485	-0.111866
H417	H	-0.312213	0.832761	-1.063642
H418	H	-0.062213	1.082761	-0.813642
H419	H	0.187787	1.332761	-0.563642
H420	H	0.437787	1.582761	-0.313642
H421	H	-0.312253	0.832765	-0.944931
H422	H	-0.062253	1.082765	-0.694931
H423	H	0.187747	1.332765	-0.444931
H424	H	0.437747	1.582765	-0.194931
H425	H	-0.801117	0.792797	-0.189290
H426	H	-0.551117	1.042797	0.060710
H427	H	-0.301117	1.292797	0.310710
H428	H	-0.051117	1.542797	0.560710
H429	H	-1.052239	0.832914	-0.229450
H430	H	-0.802239	1.082914	0.020550
H431	H	-0.552239	1.332914	0.270550
H432	H	-0.302239	1.582914	0.520550
H433	H	-0.312424	0.144580	-0.374871
H434	H	-0.062424	0.394580	-0.124871
H435	H	0.187576	0.644580	0.125129
H436	H	0.437576	0.894580	0.375129
H437	H	-0.312330	0.832757	-0.660005
H438	H	-0.062330	1.082757	-0.410005
H439	H	0.187670	1.332757	-0.160005
H440	H	0.437670	1.582757	0.089995
H441	H	-1.052059	0.978235	-0.375033
H442	H	-0.802059	1.228235	-0.125033
H443	H	-0.552059	1.478235	0.124967
H444	H	-0.302059	1.728235	0.374967
H445	H	-0.190982	0.978249	-0.660096
H446	H	0.059018	1.228249	-0.410096
H447	H	0.309018	1.478249	-0.160096
H448	H	0.559018	1.728249	0.089904
H449	H	-0.191020	0.978253	-0.541389
H450	H	0.058980	1.228253	-0.291389
H451	H	0.308980	1.478253	-0.041389
H452	H	0.558980	1.728253	0.208611
H453	H	-0.337094	0.896311	-0.743161
H454	H	-0.087094	1.146311	-0.493161
H455	H	0.162906	1.396311	-0.243161
H456	H	0.412906	1.646311	0.006839
H457	H	-0.312519	0.666923	-0.374674
H458	H	-0.062519	0.916923	-0.124674
H459	H	0.187481	1.166923	0.125326
H460	H	0.437481	1.416923	0.375326
H461	H	-0.312495	0.548217	-0.374721
H462	H	-0.062495	0.798217	-0.124721
H463	H	0.187505	1.048217	0.125279
H464	H	0.437505	1.298217	0.375279
H465	H	-0.312450	0.263287	-0.374823
H466	H	-0.062450	0.513287	-0.124823
H467	H	0.187550	0.763287	0.125177
H468	H	0.437550	1.013287	0.375177
H469	H	-0.450647	0.978026	-0.374986
H470	H	-0.200647	1.228026	-0.124986
H471	H	0.049353	1.478026	0.125014
H472	H	0.299353	1.728026	0.375014
H473	H	-0.190914	0.144564	-0.229727
H474	H	0.059086	0.394564	0.020273
H475	H	0.309086	0.644564	0.270273
H476	H	0.559086	0.894564	0.520273
H477	H	-0.244119	0.464995	-0.199771
H478	H	0.005881	0.714995	0.050229
H479	H	0.255881	0.964995	0.300229
H480	H	0.505881	1.214995	0.550229
H481	H	-0.190936	0.263274	-0.229681
H482	H	0.059064	0.513274	0.020319
H483	H	0.309064	0.763274	0.270319
H484	H	0.559064	1.013274	0.520319
H485	H	-0.549884	0.832736	-0.229408
H486	H	-0.299884	1.082736	0.020592
H487	H	-0.049884	1.332736	0.270592
H488	H	0.200116	1.582736	0.520592
H489	H	-0.312363	0.832745	-0.541292
H490	H	-0.062363	1.082745	-0.291292
H491	H	0.187637	1.332745	-0.041292
H492	H	0.437637	1.582745	0.208708
H493	H	-0.953008	0.978215	-0.375019
H494	H	-0.703008	1.228215	-0.125019
H495	H	-0.453008	1.478215	0.124981
H496	H	-0.203008	1.728215	0.374981
H497	H	-0.190984	0.548200	-0.229583
H498	H	0.059016	0.798200	0.020417
H499	H	0.309016	1.048200	0.270417
H500	H	0.559016	1.298200	0.520417
H501	H	-0.244104	0.346290	-0.199815
H502	H	0.005896	0.596290	0.050185
H503	H	0.255896	0.846290	0.300185
H504	H	0.505896	1.096290	0.550185
H505	H	-0.450834	0.832693	-0.229413
H506	H	-0.200834	1.082693	0.020587
H507	H	0.049166	1.332693	0.270587
H508	H	0.299166	1.582693	0.520587
