data_functionalizedCrystal
_audit_creation_method	'MofGen! by Chris Wilmer'
_symmetry_space_group_name_H-M	'P1'
_symmetry_Int_Tables_number	1
_symmetry_cell_setting	triclinic
loop_
_symmetry_equiv_pos_as_xyz
  x,y,z
_cell_length_a	13.032831
_cell_length_b	16.959454
_cell_length_c	13.032268
_cell_angle_alpha	97.150351
_cell_angle_beta	90.886977
_cell_angle_gamma	82.825094
loop_
_atom_site_label
_atom_site_type_symbol
_atom_site_fract_x
_atom_site_fract_y
_atom_site_fract_z
Zn1	Zn	1.498450	-0.533808	-0.780847
Zn2	Zn	1.998450	-0.033808	-0.280847
Zn3	Zn	1.520186	-0.651576	-0.608869
Zn4	Zn	2.020186	-0.151576	-0.108869
Zn5	Zn	1.348310	-0.500789	-0.587087
Zn6	Zn	1.848310	-0.000789	-0.087087
Zn7	Zn	1.326434	-0.647302	-0.758994
Zn8	Zn	1.826434	-0.147302	-0.258994
O9	O	1.423345	-0.583369	-0.683949
O10	O	1.923345	-0.083369	-0.183949
O11	O	1.645253	-0.565038	-0.776295
O12	O	2.145253	-0.065038	-0.276295
O13	O	1.515638	-0.619543	-0.462063
O14	O	2.015638	-0.119543	0.037937
O15	O	1.368285	-0.394566	-0.612819
O16	O	1.868285	0.105434	-0.112819
O17	O	1.661222	-0.651561	-0.649944
O18	O	2.161222	-0.151561	-0.149944
O19	O	1.478592	-0.418826	-0.755173
O20	O	1.978592	0.081174	-0.255173
O21	O	1.389361	-0.508760	-0.446059
O22	O	1.889361	-0.008760	0.053941
O23	O	1.201488	-0.504616	-0.591629
O24	O	1.701488	-0.004616	-0.091629
O25	O	1.331000	-0.644277	-0.905810
O26	O	1.831000	-0.144277	-0.405810
O27	O	1.185416	-0.612259	-0.717929
O28	O	1.685416	-0.112259	-0.217929
O29	O	1.457380	-0.560894	-0.921865
O30	O	1.957380	-0.060894	-0.421865
O31	O	1.494425	-0.761611	-0.628754
O32	O	1.994425	-0.261611	-0.128754
O33	O	1.352077	-0.758471	-0.739051
O34	O	1.852077	-0.258471	-0.239051
C35	C	1.156135	-0.554392	-0.650045
C36	C	1.656135	-0.054392	-0.150045
C37	C	1.041819	-0.542016	-0.635565
C38	C	1.541819	-0.042016	-0.135565
C39	C	1.423261	-0.788724	-0.683921
C40	C	1.923261	-0.288724	-0.183921
C41	C	1.423315	-0.876589	-0.683955
C42	C	1.923315	-0.376589	-0.183955
C43	C	0.982940	-0.589828	-0.691506
C44	C	1.482940	-0.089828	-0.191506
C45	C	0.864788	-0.577038	-0.676542
C46	C	1.364788	-0.077038	-0.176542
C47	C	1.349320	-1.246472	-0.741386
C48	C	1.849320	-0.746472	-0.241386
C49	C	1.497643	-1.249702	-0.626654
C50	C	1.997643	-0.749702	-0.126654
C51	C	1.497608	-1.167152	-0.626640
C52	C	1.997608	-0.667152	-0.126640
C53	C	1.423427	-1.124257	-0.683998
C54	C	1.923427	-0.624257	-0.183998
C55	C	1.349281	-1.163913	-0.741371
C56	C	1.849281	-0.663913	-0.241371
C57	C	1.571746	-1.127488	-0.569260
C58	C	2.071746	-0.627488	-0.069260
C59	C	1.571713	-1.044932	-0.569243
C60	C	2.071713	-0.544932	-0.069243
C61	C	1.497536	-1.002037	-0.626608
C62	C	1.997536	-0.502037	-0.126608
C63	C	1.423388	-1.041698	-0.683984
C64	C	1.923388	-0.541698	-0.183984
C65	C	1.349208	-0.998804	-0.741342
C66	C	1.849208	-0.498804	-0.241342
C67	C	1.275063	-1.038465	-0.798724
C68	C	1.775063	-0.538465	-0.298724
C69	C	1.275104	-1.121018	-0.798736
C70	C	1.775104	-0.621018	-0.298736
C71	C	1.497495	-0.919484	-0.626597
C72	C	1.997495	-0.419484	-0.126597
C73	C	1.349169	-0.916245	-0.741327
C74	C	1.849169	-0.416245	-0.241327
C75	C	1.691598	-0.612460	-0.717986
C76	C	2.191598	-0.112460	-0.217986
C77	C	1.805911	-0.624856	-0.732491
C78	C	2.305911	-0.124856	-0.232491
C79	C	1.389325	-0.605792	-0.952197
C80	C	1.889325	-0.105792	-0.452197
C81	C	1.374828	-0.615348	-1.066508
C82	C	1.874828	-0.115348	-0.566508
C83	C	1.423454	-0.377216	-0.684004
C84	C	1.923454	0.122784	-0.184004
C85	C	1.423501	-0.289366	-0.684027
C86	C	1.923501	0.210634	-0.184027
C87	C	1.430895	-0.578351	-1.125415
C88	C	1.930895	-0.078351	-0.625415
C89	C	1.415913	-0.588227	-1.243562
C90	C	1.915913	-0.088227	-0.743562
C91	C	1.457291	-0.560982	-0.416753
C92	C	1.957291	-0.060982	0.083247
C93	C	1.471987	-0.551225	-0.302467
C94	C	1.971987	-0.051225	0.197533
H95	H	1.020003	-0.640227	-0.750482
H96	H	1.520003	-0.140227	-0.250482
Cl97	Cl	0.984605	-0.464194	-0.544519
Cl98	Cl	1.484605	0.035806	-0.044519
Cl99	Cl	1.590688	-0.869626	-0.554453
Cl100	Cl	2.090688	-0.369626	-0.054453
H101	H	1.214739	-1.153317	-0.845452
H102	H	1.714739	-0.653317	-0.345452
Cl103	Cl	0.863115	-0.702668	-0.823564
Cl104	Cl	1.363115	-0.202668	-0.323564
Cl105	Cl	1.324666	-0.648416	-1.300726
Cl106	Cl	1.824666	-0.148416	-0.800726
Cl107	Cl	1.563244	-0.491043	-1.245307
Cl108	Cl	2.063244	0.008957	-0.745307
Cl109	Cl	1.283585	-0.675534	-1.123677
Cl110	Cl	1.783585	-0.175534	-0.623677
H111	H	1.288765	-0.881326	-0.788040
H112	H	1.788765	-0.381326	-0.288040
H113	H	1.214661	-1.003530	-0.845421
H114	H	1.714661	-0.503530	-0.345421
Cl115	Cl	1.664929	-0.995082	-0.497117
Cl116	Cl	2.164929	-0.495082	0.002883
Cl117	Cl	1.256119	-1.296329	-0.813525
Cl118	Cl	1.756119	-0.796329	-0.313525
H119	H	0.827729	-0.526630	-0.617570
H120	H	1.327729	-0.026630	-0.117570
Cl121	Cl	1.590893	-1.303627	-0.554551
Cl122	Cl	2.090893	-0.803627	-0.054551
H123	H	1.489984	-0.539364	-1.088380
H124	H	1.989984	-0.039364	-0.588380
Cl125	Cl	1.665000	-1.181416	-0.497165
Cl126	Cl	2.165000	-0.681416	0.002835
