data_functionalizedCrystal
_audit_creation_method	'MofGen! by Chris Wilmer'
_symmetry_space_group_name_H-M	'P1'
_symmetry_Int_Tables_number	1
_symmetry_cell_setting	triclinic
loop_
_symmetry_equiv_pos_as_xyz
  x,y,z
_cell_length_a	21.395362
_cell_length_b	21.295417
_cell_length_c	21.395356
_cell_angle_alpha	89.969378
_cell_angle_beta	89.957023
_cell_angle_gamma	90.046383
loop_
_atom_site_label
_atom_site_type_symbol
_atom_site_fract_x
_atom_site_fract_y
_atom_site_fract_z
Zn1	Zn	0.957854	-0.250358	-0.354573
Zn2	Zn	0.957759	-0.355627	-0.249790
Zn3	Zn	0.853071	-0.250404	-0.249774
Zn4	Zn	0.853039	-0.355623	-0.354495
O5	O	0.905431	-0.303003	-0.302158
O6	O	1.045520	-0.264305	-0.340713
O7	O	0.943846	-0.341690	-0.162110
O8	O	0.867024	-0.162309	-0.263702
O9	O	1.045450	-0.341645	-0.263729
O10	O	0.944008	-0.162275	-0.340697
O11	O	0.866932	-0.264383	-0.162098
O12	O	0.765389	-0.264380	-0.263626
O13	O	0.866969	-0.341638	-0.442183
O14	O	0.765365	-0.341683	-0.340564
O15	O	0.943977	-0.264301	-0.442240
O16	O	0.943814	-0.443716	-0.263653
O17	O	0.866877	-0.443713	-0.340579
C18	C	0.742643	-0.303036	-0.302085
C19	C	0.673002	-0.303066	-0.302069
C20	C	0.640293	-0.343371	-0.342070
C21	C	0.574858	-0.343356	-0.342098
C22	C	0.542134	-0.303042	-0.302114
C23	C	0.574851	-0.262728	-0.262109
C24	C	0.640285	-0.262741	-0.262087
C25	C	0.438410	-0.297979	-0.245709
C26	C	0.372977	-0.297972	-0.245730
C27	C	0.340313	-0.303000	-0.302183
C28	C	0.373090	-0.308050	-0.358616
C29	C	0.438524	-0.308062	-0.358594
C30	C	0.471181	-0.303024	-0.302134
C31	C	0.236651	-0.343291	-0.342218
C32	C	0.171215	-0.343271	-0.342247
C33	C	0.171209	-0.262647	-0.262252
C34	C	0.236645	-0.262664	-0.262229
C35	C	0.269362	-0.302989	-0.302211
C36	C	0.905349	-0.466555	-0.302123
C37	C	0.905371	-0.536523	-0.302129
C38	C	0.945468	-0.569370	-0.262115
C39	C	0.945497	-0.635113	-0.262129
C40	C	0.905418	-0.668005	-0.302151
C41	C	0.865319	-0.635150	-0.342173
C42	C	0.865295	-0.569409	-0.342162
N43	N	0.850609	-0.771286	-0.306903
N44	N	0.850633	-0.833738	-0.306910
C45	C	0.905489	-0.866080	-0.302187
N46	N	0.960320	-0.833611	-0.297445
N47	N	0.960295	-0.771154	-0.297435
C48	C	0.905440	-0.739291	-0.302167
C49	C	0.945621	-0.970213	-0.262186
C50	C	0.945651	-1.035956	-0.262204
C51	C	0.865467	-1.035993	-0.342245
C52	C	0.865442	-0.970250	-0.342230
C53	C	0.905518	-0.937364	-0.302197
C54	C	1.068854	-0.302970	-0.302231
C55	C	1.138496	-0.302956	-0.302262
C56	C	0.905480	-0.302964	-0.465581
C57	C	0.905501	-0.302947	-0.535223
C58	C	0.905530	-0.138813	-0.302206
C59	C	0.905573	-0.068845	-0.302227
C60	C	0.865463	-0.262689	-0.567920
C61	C	0.865461	-0.262678	-0.633355
C62	C	0.905508	-0.302917	-0.666091
C63	C	0.945549	-0.343183	-0.633386
C64	C	0.945546	-0.343198	-0.567952
C65	C	0.961960	-0.307851	-0.769796
C66	C	0.961965	-0.307831	-0.835229
C67	C	0.905518	-0.302875	-0.867912
C68	C	0.849066	-0.297925	-0.835153
C69	C	0.849063	-0.297940	-0.769719
C70	C	0.905516	-0.302906	-0.737043
C71	C	0.865474	-0.262602	-0.971562
C72	C	0.865471	-0.262595	-1.036998
C73	C	0.945565	-0.343097	-1.037028
C74	C	0.945563	-0.343108	-0.971592
C75	C	0.905518	-0.302857	-0.938863
C76	C	0.905418	-0.302997	-0.139370
C77	C	0.905518	-0.302836	-0.069729
H78	H	0.666927	-0.376206	-0.374628
H79	H	0.832789	-0.943504	-0.374811
C80	C	0.676266	-0.218403	-0.218077
N81	N	0.703368	-0.185009	-0.184926
C82	C	0.135217	-0.218301	-0.218269
N83	N	0.108104	-0.184897	-0.185140
H84	H	0.832853	-0.229916	-0.541276
C85	C	0.135235	-0.387618	-0.386249
N86	N	0.108135	-0.421024	-0.419389
H87	H	0.978102	-0.542596	-0.229519
H88	H	0.548221	-0.376177	-0.374675
H89	H	0.832643	-0.542664	-0.374747
H90	H	0.465209	-0.312172	-0.404544
C91	C	0.337165	-0.313580	-0.420720
N92	N	0.310103	-0.317745	-0.467495
C93	C	0.272626	-0.218330	-0.218218
N94	N	0.299727	-0.184935	-0.185067
H95	H	0.832837	-1.062773	-0.374834
C96	C	0.821419	-0.218333	-0.935557
N97	N	0.788234	-0.184989	-0.908441
H98	H	0.832858	-0.229892	-0.659982
H99	H	0.978168	-0.375889	-0.944970
C100	C	0.786966	-0.292501	-0.733688
N101	N	0.740193	-0.288407	-0.706549
H102	H	0.978152	-0.375980	-0.541330
H103	H	0.548203	-0.229903	-0.229555
H104	H	0.832863	-0.229814	-1.063619
C105	C	0.989763	-1.072088	-0.218182
N106	N	1.022988	-1.099303	-0.185023
C107	C	0.474334	-0.292450	-0.183602
N108	N	0.501390	-0.288286	-0.136824
C109	C	0.336929	-0.292412	-0.183653
N110	N	0.309778	-0.288222	-0.136895
C111	C	0.786969	-0.292478	-0.871099
N112	N	0.740200	-0.288377	-0.898177
H113	H	0.978255	-0.943436	-0.229590
C114	C	0.989646	-0.387333	-1.073033
N115	N	1.022859	-0.420643	-1.100156
C116	C	0.989605	-0.671252	-0.218105
N117	N	1.022826	-0.698470	-0.184945
H118	H	0.263291	-0.376123	-0.374777
C119	C	1.024063	-0.313276	-0.871257
N120	N	1.070837	-0.317378	-0.898392
H121	H	0.978156	-0.375947	-0.660043
C122	C	0.821230	-0.671333	-0.386195
N123	N	0.788021	-0.698587	-0.419354
H124	H	1.007929	-0.311882	-0.743191
