data_functionalizedCrystal
_audit_creation_method	'MofGen! by Chris Wilmer'
_symmetry_space_group_name_H-M	'P1'
_symmetry_Int_Tables_number	1
_symmetry_cell_setting	triclinic
loop_
_symmetry_equiv_pos_as_xyz
  x,y,z
_cell_length_a	12.759387
_cell_length_b	12.759401
_cell_length_c	12.759400
_cell_angle_alpha	89.984446
_cell_angle_beta	89.970299
_cell_angle_gamma	90.021090
loop_
_atom_site_label
_atom_site_type_symbol
_atom_site_fract_x
_atom_site_fract_y
_atom_site_fract_z
Zn1	Zn	-0.594029	-1.606273	-0.418168
Zn2	Zn	-0.418353	-1.606166	-0.593885
Zn3	Zn	-0.418365	-1.430571	-0.418225
Zn4	Zn	-0.593991	-1.430566	-0.593810
O5	O	-0.506184	-1.518394	-0.506022
O6	O	-0.570737	-1.753280	-0.441485
O7	O	-0.271334	-1.582830	-0.570639
O8	O	-0.441688	-1.453926	-0.271197
O9	O	-0.441669	-1.753201	-0.570583
O10	O	-0.570748	-1.583013	-0.271155
O11	O	-0.271342	-1.453822	-0.441582
O12	O	-0.441650	-1.283549	-0.441510
O13	O	-0.741017	-1.453916	-0.570456
O14	O	-0.570682	-1.283545	-0.570511
O15	O	-0.741045	-1.583007	-0.441412
O16	O	-0.441631	-1.582825	-0.740896
O17	O	-0.570671	-1.453812	-0.740841
C18	C	-0.506164	-1.245426	-0.506009
C19	C	-0.506180	-1.128650	-0.506029
C20	C	-0.780218	-1.518473	-0.505919
C21	C	-0.896995	-1.518507	-0.505875
C22	C	-0.506168	-1.518335	-0.778990
C23	C	-0.506197	-1.518405	-0.895766
C24	C	-0.897044	-1.652939	-0.371511
C25	C	-0.951930	-1.720170	-0.304313
C26	C	-1.061652	-1.720195	-0.304275
C27	C	-1.116490	-1.652981	-0.371440
C28	C	-1.061605	-1.585750	-0.438637
C29	C	-0.951880	-1.585734	-0.438671
C30	C	-1.061555	-1.451314	-0.572995
C31	C	-0.951833	-1.451292	-0.573040
C32	C	-1.116394	-1.384100	-0.640159
C33	C	-1.061508	-1.316873	-0.707364
C34	C	-0.951780	-1.316851	-0.707400
C35	C	-0.896948	-1.384062	-0.640238
C36	C	-0.233217	-1.518375	-0.506049
C37	C	-0.116441	-1.518545	-0.505797
C38	C	-0.506206	-1.792427	-0.506036
C39	C	-0.506215	-1.909204	-0.506042
C40	C	-0.573261	-1.073813	-0.573302
C41	C	-0.573281	-0.964089	-0.573306
C42	C	-0.439131	-0.964048	-0.438761
C43	C	-0.439116	-1.073770	-0.438752
C44	C	-0.573479	-1.585644	-1.060253
C45	C	-0.573454	-1.585590	-0.950529
C46	C	-0.438951	-1.451278	-0.950733
C47	C	-0.438970	-1.451338	-1.060455
C48	C	-0.506224	-1.518482	-0.231989
C49	C	-0.506240	-1.518519	-0.115212
H50	H	-0.807703	-1.652935	-0.371545
Br51	Br	-1.135935	-1.225654	-0.798497
Br52	Br	-0.347664	-1.360105	-0.876413
H53	H	-0.628205	-1.640250	-0.905785
Br54	Br	-0.664329	-0.889672	-0.664605
H55	H	-0.907268	-1.774892	-0.249628
Br56	Br	-1.136144	-1.811416	-0.213057
Br57	Br	-0.347704	-1.360242	-1.135049
H58	H	-1.205831	-1.652998	-0.371393
H59	H	-0.384491	-1.118419	-0.383964
H60	H	-0.807607	-1.384055	-0.640265
Br61	Br	-1.265303	-1.384131	-0.640107
H62	H	-0.907098	-1.262092	-0.762110
Br63	Br	-0.664277	-1.148290	-0.664604
H64	H	-0.384529	-0.919351	-0.383988
H65	H	-0.628258	-1.640343	-1.104833
