data_functionalizedCrystal
_audit_creation_method	'MofGen! by Chris Wilmer'
_symmetry_space_group_name_H-M	'P1'
_symmetry_Int_Tables_number	1
_symmetry_cell_setting	triclinic
loop_
_symmetry_equiv_pos_as_xyz
  x,y,z
_cell_length_a	15.538191
_cell_length_b	14.586319
_cell_length_c	16.109301
_cell_angle_alpha	89.994786
_cell_angle_beta	114.633213
_cell_angle_gamma	90.004821
loop_
_atom_site_label
_atom_site_type_symbol
_atom_site_fract_x
_atom_site_fract_y
_atom_site_fract_z
O1	O	1.249994	0.076243	0.270055
O2	O	0.975705	0.076245	0.174048
O3	O	1.120384	0.076234	0.345355
O4	O	1.105315	0.076253	0.098748
O5	O	1.120374	-0.076246	0.345353
O6	O	0.975695	-0.076236	0.174046
O7	O	1.249984	-0.076238	0.270054
Cu8	Cu	1.112839	-0.090160	0.222050
Cu9	Cu	1.112850	0.090167	0.222052
O10	O	1.105305	-0.076227	0.098747
C11	C	0.940602	0.000005	0.164002
C12	C	0.836019	0.000005	0.134081
N13	N	1.112837	-0.216991	0.222052
C14	C	1.176922	-0.452002	0.297894
C15	C	1.176925	-0.547984	0.297897
C16	C	1.048767	-0.547984	0.146212
C17	C	1.048761	-0.452004	0.146212
C18	C	1.112844	-0.404016	0.222054
C19	C	1.112853	-0.595977	0.222056
C20	C	1.112855	-0.700044	0.222059
C21	C	1.112840	-0.299942	0.222053
C22	C	0.548320	-0.000003	0.431335
C23	C	0.450045	-0.000000	0.403199
C24	C	0.427554	0.000012	0.244941
C25	C	0.525828	0.000004	0.273063
C26	C	0.586204	-0.000002	0.366262
C27	C	0.563712	0.000005	0.207990
C28	C	0.661978	0.000003	0.236111
C29	C	0.722360	-0.000001	0.329305
C30	C	0.684470	-0.000004	0.394382
C31	C	0.503335	0.000018	0.114793
C32	C	0.541219	0.000019	0.049719
C33	C	0.639487	0.000010	0.077840
C34	C	0.699869	0.000007	0.171034
C35	C	0.677377	0.000014	0.012763
C36	C	0.775643	0.000012	0.040883
C37	C	0.798135	0.000004	0.199155
C38	C	1.285087	0.000004	0.280100
C39	C	1.389670	0.000010	0.310020
C40	C	1.119769	-0.000006	0.376145
C41	C	1.117939	-0.000008	0.467888
N42	N	1.112859	0.216998	0.222059
C43	C	1.105920	0.000015	0.067957
C44	C	1.107750	0.000023	-0.023786
C45	C	1.199533	0.000006	0.714764
C46	C	1.197806	0.000014	0.800964
C47	C	1.026149	0.000012	0.729329
C48	C	1.027877	0.000011	0.643131
C49	C	1.114572	0.000003	0.635852
C50	C	1.111117	0.000012	0.808250
C51	C	1.109244	0.000020	0.901711
C52	C	1.116446	-0.000003	0.542385
H53	H	1.229101	-0.412933	0.359650
N54	N	0.979650	-0.400234	0.064410
H55	H	0.937951	-0.360424	0.083624
H56	H	0.939122	-0.445251	0.016393
H57	H	0.847297	-0.000006	0.275046
H58	H	0.802374	0.000010	0.352199
N59	N	1.293036	-0.000001	0.706913
H60	H	1.330260	0.056526	0.737566
H61	H	1.281162	-0.000040	0.640316
H62	H	0.996594	-0.587065	0.084462
H63	H	0.733632	-0.000015	0.470273
H64	H	0.597482	-0.000014	0.507226
N65	N	1.246048	-0.599738	0.379692
H66	H	1.236330	-0.667823	0.368188
H67	H	1.235189	-0.582968	0.435403
H68	H	1.266990	0.000018	0.865214
N69	N	0.409183	0.000005	0.473390
H70	H	0.462344	0.000002	0.536694
H71	H	0.368896	-0.056520	0.465173
H72	H	0.955565	0.000016	0.735267
H73	H	0.628205	0.000028	-0.063119
H74	H	0.378383	0.000021	0.169059
N75	N	0.936236	0.000014	0.558009
H76	H	0.881054	0.000012	0.575698
H77	H	0.933213	-0.056512	0.520687
N78	N	0.397345	0.000020	0.084446
H79	H	0.378089	0.056539	0.108742
H80	H	0.378154	-0.056548	0.108736
N81	N	0.816507	0.000015	-0.029303
H82	H	0.794488	-0.056508	-0.068792
H83	H	0.887912	0.000051	0.002722
N84	N	0.476098	0.000031	-0.050797
H85	H	0.408098	0.000034	-0.058739
H86	H	0.488358	-0.056496	-0.080436
