data_functionalizedCrystal
_audit_creation_method	'MofGen! by Chris Wilmer'
_symmetry_space_group_name_H-M	'P1'
_symmetry_Int_Tables_number	1
_symmetry_cell_setting	triclinic
loop_
_symmetry_equiv_pos_as_xyz
  x,y,z
_cell_length_a	18.426585
_cell_length_b	14.560438
_cell_length_c	14.560438
_cell_angle_alpha	60.007151
_cell_angle_beta	60.000820
_cell_angle_gamma	89.999707
loop_
_atom_site_label
_atom_site_type_symbol
_atom_site_fract_x
_atom_site_fract_y
_atom_site_fract_z
Zr1	Zr	0.699143	-0.120399	1.005227
O2	O	0.583274	-0.267013	1.196803
O3	O	0.734659	-0.075473	0.813645
O4	O	0.734667	-0.267046	1.005226
O5	O	0.583266	0.075698	1.005224
O6	O	0.854093	-0.267050	1.005233
O7	O	0.583267	-0.075440	1.005221
O8	O	0.854079	0.075639	0.662528
O9	O	0.583279	-0.266991	1.347928
O10	O	0.838938	-0.056293	0.892452
O11	O	0.749811	0.056503	0.892449
O12	O	0.749819	-0.169049	1.118012
O13	O	0.660692	-0.056254	1.118009
Zr14	Zr	0.889612	0.120643	1.005241
Zr15	Zr	0.889614	-0.120405	1.005237
Zr16	Zr	0.699142	0.120649	1.005231
Zr17	Zr	0.699151	-0.120364	1.246254
Zr18	Zr	0.889604	0.120607	0.764214
O19	O	0.854096	0.075717	1.196823
O20	O	0.854099	-0.267022	1.196817
O21	O	0.583272	0.075726	1.196809
O22	O	1.005481	0.267257	0.813665
O23	O	1.005484	-0.075482	0.813659
O24	O	0.734657	0.267266	0.813651
O25	O	1.005490	-0.075454	1.005244
O26	O	0.854089	0.267290	1.005242
O27	O	0.734663	0.267294	1.005235
O28	O	1.005489	0.075684	1.005247
O29	O	0.734678	-0.266996	1.347937
O30	O	0.854078	0.267240	0.662532
O31	O	1.005476	0.267235	0.662540
O32	O	1.005478	0.075634	0.662536
O33	O	0.583278	-0.075390	1.347932
O34	O	0.734676	-0.075395	1.347940
O35	O	0.838936	0.169293	0.892456
O36	O	0.928063	0.056497	0.892459
O37	O	0.838945	-0.056259	1.118019
O38	O	0.749818	0.056536	1.118016
C39	C	0.556128	0.000129	1.005221
C40	C	0.475268	0.000132	1.005217
C41	C	0.794368	0.000078	0.703745
C42	C	0.794365	0.000063	0.601423
C43	C	0.794375	0.301636	1.005239
C44	C	0.794375	0.403967	1.005241
C45	C	0.179154	0.000112	1.005256
C46	C	0.261540	0.000115	1.005251
C47	C	0.327208	0.000121	1.005237
C48	C	0.409600	0.000126	1.005231
C49	C	1.032627	0.000114	1.005247
C50	C	1.113487	0.000112	1.005251
C51	C	0.794380	-0.301393	1.005229
C52	C	0.794381	-0.403724	1.005227
C53	C	0.747860	0.393188	1.122979
C54	C	0.747860	0.489343	1.122972
C55	C	0.840897	0.607053	0.887480
C56	C	0.840891	0.510900	0.887488
C57	C	0.694150	0.325229	1.258938
C58	C	0.694150	0.421384	1.258932
C59	C	0.728578	-0.083156	0.636544
C60	C	0.728592	-0.083099	0.540355
C61	C	0.860184	0.083404	0.373924
C62	C	0.860173	0.083342	0.470112
C63	C	0.652603	-0.179282	0.732631
C64	C	0.652617	-0.179226	0.636442
C65	C	0.794387	0.000166	1.306723
C66	C	0.794390	0.000181	1.409045
C67	C	1.032618	0.000070	0.703758
C68	C	1.113474	0.000052	0.601440
C69	C	0.794366	0.301592	0.703750
C70	C	0.794362	0.403908	0.601430
C71	C	1.032616	0.301584	0.703763
C72	C	1.113471	0.403898	0.601447
C73	C	0.556140	-0.301341	1.306705
C74	C	0.475284	-0.403654	1.409021
C75	C	0.556138	0.000174	1.306710
C76	C	0.475281	0.000191	1.409028
C77	C	0.794389	-0.301348	1.306718
C78	C	0.794393	-0.403665	1.409038
C79	C	1.104923	-0.058841	0.553387
C80	C	1.180889	-0.058880	0.457261
C81	C	1.265405	-0.000019	0.409184
C82	C	1.273955	0.058877	0.457247
C83	C	1.197990	0.058909	0.553377
C84	C	1.197973	0.393067	0.553399
C85	C	1.273953	0.489193	0.457275
C86	C	1.265429	0.596147	0.409194
C87	C	1.180918	0.606976	0.457251
C88	C	1.104940	0.510852	0.553380
C89	C	0.390782	-0.392824	1.457080
C90	C	0.314802	-0.488949	1.553234
C91	C	0.323326	-0.595904	1.601320
C92	C	0.407837	-0.606732	1.553257
C93	C	0.483815	-0.510608	1.457112
C94	C	0.483833	0.059075	1.457092
C95	C	0.407867	0.059087	1.553244
C96	C	0.323350	0.000222	1.601324
C97	C	0.314800	-0.058669	1.553257
C98	C	0.390766	-0.058687	1.457113
C99	C	0.840884	0.510852	0.553358
C100	C	0.840873	0.606985	0.457222
C101	C	0.747817	0.489217	0.457234
C102	C	0.747823	0.393086	0.553375
C103	C	0.894612	0.578845	0.553346
C104	C	0.894602	0.674978	0.457210
H105	H	0.878759	0.519685	0.791615
H106	H	0.878767	0.694127	0.791610
H107	H	0.623012	0.273044	1.311144
H108	H	0.552619	-0.519440	1.417983
F109	F	1.363887	0.477645	0.406143
F110	F	0.740476	0.258674	1.314088
F111	F	1.015009	0.522396	0.604499
F112	F	0.698295	0.279269	0.604550
F113	F	0.224868	-0.477401	1.604366
F114	F	0.242455	-0.698199	1.703647
H115	H	0.414845	0.107047	1.592364
F116	F	0.848279	0.741552	0.504422
F117	F	0.604260	0.432861	1.313966
H118	H	0.724040	0.421386	1.311131
F119	F	0.669963	-0.279159	0.636395
H120	H	0.383824	-0.305744	1.417934
H121	H	0.965735	0.727160	0.367199
H122	H	1.204931	0.305988	0.592533
H123	H	0.659143	-0.261413	0.795605
H124	H	1.327254	-0.000053	0.330907
H125	H	1.327302	0.674409	0.330920
H126	H	0.587735	-0.170914	0.647253
H127	H	0.552643	0.107017	1.417952
H128	H	0.414768	-0.693826	1.592422
F129	F	0.242508	0.000253	1.703649
F130	F	1.171860	0.720814	0.406066
H131	H	0.913762	0.151207	0.267002
F132	F	0.930199	0.171905	0.432725
H133	H	0.245977	-0.106595	1.592419
H134	H	1.036112	-0.106787	0.592530
H135	H	0.592178	-0.162484	0.792302
F136	F	1.363911	0.121521	0.406063
H137	H	0.383790	-0.106634	1.417983
H138	H	0.709926	0.480420	0.418097
F139	F	0.855562	0.578882	0.670987
H140	H	1.173910	-0.106840	0.418140
F141	F	1.207105	0.121602	0.604502
H142	H	0.963395	0.570109	0.517218
