data_functionalizedCrystal
_audit_creation_method	'MofGen! by Chris Wilmer'
_symmetry_space_group_name_H-M	'P1'
_symmetry_Int_Tables_number	1
_symmetry_cell_setting	triclinic
loop_
_symmetry_equiv_pos_as_xyz
  x,y,z
_cell_length_a	16.120490
_cell_length_b	21.295412
_cell_length_c	16.120444
_cell_angle_alpha	92.872206
_cell_angle_beta	90.165174
_cell_angle_gamma	87.081018
loop_
_atom_site_label
_atom_site_type_symbol
_atom_site_fract_x
_atom_site_fract_y
_atom_site_fract_z
Zn1	Zn	1.254503	-0.419020	-0.395701
Zn2	Zn	1.247335	-0.318800	-0.534755
Zn3	Zn	1.115433	-0.308180	-0.388654
Zn4	Zn	1.108352	-0.418448	-0.527646
O5	O	1.181406	-0.366112	-0.461689
O6	O	1.369918	-0.410410	-0.420071
O7	O	1.229802	-0.229301	-0.515400
O8	O	1.139844	-0.318678	-0.273225
O9	O	1.364652	-0.336779	-0.522233
O10	O	1.242018	-0.400112	-0.278402
O11	O	1.132894	-0.221499	-0.408060
O12	O	0.998128	-0.318123	-0.401167
O13	O	1.127776	-0.506613	-0.510117
O14	O	0.992926	-0.399136	-0.503284
O15	O	1.235152	-0.507034	-0.413177
O16	O	1.222936	-0.336224	-0.650175
O17	O	1.120826	-0.409434	-0.644952
C18	C	0.965354	-0.357416	-0.450690
C19	C	0.872925	-0.353711	-0.446005
C20	C	0.659958	-0.385329	-0.485985
C21	C	0.703702	-0.346947	-0.437459
C22	C	0.797866	-0.350711	-0.442215
C23	C	0.565784	-0.381566	-0.481230
C24	C	1.181473	-0.530303	-0.461640
C25	C	1.181502	-0.600271	-0.461620
C26	C	1.131057	-0.629066	-0.405723
C27	C	1.131055	-0.694808	-0.405707
C28	C	1.181513	-0.731753	-0.461581
C29	C	1.231962	-0.702951	-0.517488
C30	C	1.231956	-0.637210	-0.517508
N31	N	1.253985	-0.838146	-0.471632
N32	N	1.253988	-0.900597	-0.471608
C33	C	1.181531	-0.929826	-0.461526
N34	N	1.109071	-0.894245	-0.451452
N35	N	1.109069	-0.831789	-0.451471
C36	C	1.181524	-0.803038	-0.461566
C37	C	1.131079	-1.029905	-0.405609
C38	C	1.131075	-1.095648	-0.405599
C39	C	1.231990	-1.103791	-0.517376
C40	C	1.231986	-1.038049	-0.517390
C41	C	1.181532	-1.001110	-0.461502
C42	C	1.398301	-0.374843	-0.472731
C43	C	1.490729	-0.378563	-0.477436
C44	C	1.170357	-0.373934	-0.677737
C45	C	1.165706	-0.377304	-0.770167
C46	C	1.181389	-0.202559	-0.461679
C47	C	1.181533	-0.132589	-0.461474
C48	C	1.205734	-0.348772	-0.983141
C49	C	1.157231	-0.383465	-0.939393
C50	C	1.161948	-0.380036	-0.845227
C51	C	1.201018	-0.352200	-1.077316
C52	C	1.192520	-0.358274	-0.244798
C53	C	1.197257	-0.354934	-0.152373
H54	H	0.693225	-0.421014	-0.531099
O55	O	1.082164	-0.593156	-0.351360
C56	C	1.132251	-0.555089	-0.300089
H57	H	1.198010	-0.577362	-0.298278
H58	H	1.105453	-0.550813	-0.234566
H59	H	1.133792	-0.506311	-0.325963
O60	O	1.082030	-0.722686	-0.351324
C61	C	1.037480	-0.675985	-0.302017
H62	H	1.071680	-0.630394	-0.300888
H63	H	1.031979	-0.692256	-0.236043
H64	H	0.972760	-0.667543	-0.329246
O65	O	1.103570	-0.422008	-0.979170
C66	C	1.148418	-0.466403	-1.031726
H67	H	1.210822	-0.447242	-1.047801
H68	H	1.111535	-0.475635	-1.091152
H69	H	1.159161	-0.512231	-0.998726
O70	O	1.281075	-0.738864	-0.571647
C71	C	1.337201	-0.777361	-0.527027
H72	H	1.345691	-0.755389	-0.461803
H73	H	1.399655	-0.781780	-0.560359
H74	H	1.311644	-0.826042	-0.522837
O75	O	1.280888	-0.609135	-0.571775
C76	C	1.270083	-0.543190	-0.559792
H77	H	1.207305	-0.530632	-0.529293
H78	H	1.272529	-0.520680	-0.622371
H79	H	1.321676	-0.524932	-0.518026
H80	H	1.089996	-0.999828	-0.360102
O81	O	1.259421	-0.310276	-0.943328
C82	C	1.252240	-0.315388	-0.856809
H83	H	1.188629	-0.332970	-0.841837
H84	H	1.259524	-0.267289	-0.824046
H85	H	1.302759	-0.350039	-0.834584
H86	H	1.089990	-1.119091	-0.360083
O87	O	1.281127	-1.139602	-0.571619
C88	C	1.364936	-1.126242	-0.557652
H89	H	1.368289	-1.077426	-0.525783
H90	H	1.399149	-1.127663	-0.619563
H91	H	1.395139	-1.162831	-0.516319
O92	O	0.663884	-0.304368	-0.383731
C93	C	0.577366	-0.310032	-0.390892
H94	H	0.562357	-0.332462	-0.454506
H95	H	0.544553	-0.261376	-0.383578
H96	H	0.555227	-0.340837	-0.340384
O97	O	1.280952	-1.010147	-0.571795
C98	C	1.258522	-1.028457	-0.653744
H99	H	1.226469	-1.074958	-0.653828
H100	H	1.316627	-1.034481	-0.694082
H101	H	1.214333	-0.990739	-0.679587
