data_functionalizedCrystal
_audit_creation_method	'MofGen! by Chris Wilmer'
_symmetry_space_group_name_H-M	'P1'
_symmetry_Int_Tables_number	1
_symmetry_cell_setting	triclinic
loop_
_symmetry_equiv_pos_as_xyz
  x,y,z
_cell_length_a	16.625548
_cell_length_b	21.295419
_cell_length_c	16.625539
_cell_angle_alpha	90.018037
_cell_angle_beta	90.018832
_cell_angle_gamma	90.000443
loop_
_atom_site_label
_atom_site_type_symbol
_atom_site_fract_x
_atom_site_fract_y
_atom_site_fract_z
Zn1	Zn	-1.232775	0.250622	-0.455995
Zn2	Zn	-0.899442	0.583955	-0.122661
Zn3	Zn	-0.566108	0.917289	0.210672
Zn4	Zn	-1.232738	0.355892	-0.321182
Zn5	Zn	-0.899405	0.689225	0.012152
Zn6	Zn	-0.566071	1.022559	0.345485
Zn7	Zn	-1.097945	0.250640	-0.321171
Zn8	Zn	-0.764612	0.583974	0.012162
Zn9	Zn	-0.431279	0.917307	0.345496
Zn10	Zn	-1.097959	0.355857	-0.455967
Zn11	Zn	-0.764626	0.689190	-0.122634
Zn12	Zn	-0.431292	1.022524	0.210699
O13	O	-1.165354	0.303253	-0.388579
O14	O	-0.832021	0.636586	-0.055245
O15	O	-0.498688	0.969919	0.278088
O16	O	-1.345603	0.264593	-0.438127
O17	O	-1.012269	0.597927	-0.104794
O18	O	-0.678936	0.931260	0.228539
O19	O	-1.214836	0.341952	-0.208348
O20	O	-0.881503	0.675286	0.124986
O21	O	-0.548170	1.008619	0.458319
O22	O	-1.115840	0.162548	-0.339063
O23	O	-0.782507	0.495882	-0.005729
O24	O	-0.449174	0.829215	0.327604
O25	O	-1.345575	0.341935	-0.339081
O26	O	-1.012242	0.675268	-0.005747
O27	O	-0.678909	1.008601	0.327586
O28	O	-1.214899	0.162535	-0.438117
O29	O	-0.881566	0.495868	-0.104784
O30	O	-0.548233	0.829202	0.228550
O31	O	-1.115805	0.264624	-0.208340
O32	O	-0.782471	0.597958	0.124993
O33	O	-0.449138	0.931291	0.458327
O34	O	-0.985115	0.264591	-0.339036
O35	O	-0.651781	0.597924	-0.005703
O36	O	-0.318448	0.931257	0.327631
O37	O	-1.115864	0.341875	-0.568803
O38	O	-0.782530	0.675208	-0.235470
O39	O	-0.449197	1.008542	0.097863
O40	O	-0.985125	0.341893	-0.438070
O41	O	-0.651791	0.675226	-0.104737
O42	O	-0.318458	1.008559	0.228596
O43	O	-1.214913	0.264559	-0.568823
O44	O	-0.881579	0.597893	-0.235490
O45	O	-0.548246	0.931226	0.097843
O46	O	-1.214850	0.443977	-0.339054
O47	O	-0.881516	0.777310	-0.005721
O48	O	-0.548183	1.110643	0.327612
O49	O	-1.115828	0.443951	-0.438081
O50	O	-0.782495	0.777284	-0.104747
O51	O	-0.449161	1.110618	0.228586
C52	C	-0.955863	0.303240	-0.388550
C53	C	-0.622530	0.636574	-0.055216
C54	C	-0.289197	0.969907	0.278117
C55	C	-0.866242	0.303250	-0.388556
C56	C	-0.532909	0.636583	-0.055223
C57	C	-0.199576	0.969917	0.278110
C58	C	-1.165373	0.139063	-0.388592
C59	C	-0.832039	0.472396	-0.055258
C60	C	-0.498706	0.805729	0.278075
C61	C	-1.165380	0.069094	-0.388597
C62	C	-0.832047	0.402428	-0.055264
C63	C	-0.498714	0.735761	0.278069
C64	C	-0.538067	0.303249	-0.388581
C65	C	-0.204733	0.636582	-0.055247
C66	C	0.128600	0.969916	0.278086
C67	C	-0.629375	0.303247	-0.388571
C68	C	-0.296042	0.636581	-0.055238
C69	C	0.037291	0.969914	0.278095
C70	C	-0.702152	0.303250	-0.388568
C71	C	-0.368818	0.636583	-0.055235
C72	C	-0.035485	0.969917	0.278099
C73	C	-0.793466	0.303248	-0.388560
C74	C	-0.460133	0.636581	-0.055226
C75	C	-0.126799	0.969914	0.278107
C76	C	-1.113884	-0.430376	-0.440174
C77	C	-0.780551	-0.097043	-0.106840
C78	C	-0.447217	0.236291	0.226493
C79	C	-1.113872	-0.364633	-0.440169
C80	C	-0.780538	-0.031300	-0.106836
C81	C	-0.447205	0.302033	0.226498
C82	C	-1.165423	-0.331745	-0.388612
C83	C	-0.832090	0.001588	-0.055279
C84	C	-0.498757	0.334922	0.278055
C85	C	-1.216976	-0.364605	-0.337041
C86	C	-0.883643	-0.031271	-0.003707
C87	C	-0.550310	0.302062	0.329626
C88	C	-1.216981	-0.430346	-0.337041
C89	C	-0.883648	-0.097013	-0.003707
C90	C	-0.550315	0.236321	0.329626
N91	N	-1.235993	-0.228521	-0.382436
N92	N	-0.902660	0.104813	-0.049102
N93	N	-0.569327	0.438146	0.284231
N94	N	-1.235986	-0.166069	-0.382440
N95	N	-0.902653	0.167264	-0.049107
N96	N	-0.569320	0.500597	0.284226
C97	C	-1.165410	-0.133670	-0.388607
C98	C	-0.832077	0.199663	-0.055274
C99	C	-0.498743	0.532996	0.278060
N100	N	-1.094839	-0.166082	-0.394784
N101	N	-0.761506	0.167251	-0.061451
N102	N	-0.428173	0.500585	0.271882
N103	N	-1.094847	-0.228539	-0.394784
N104	N	-0.761514	0.104794	-0.061451
N105	N	-0.428181	0.438127	0.271883
C106	C	-1.165423	-0.260460	-0.388606
C107	C	-0.832090	0.072874	-0.055272
C108	C	-0.498757	0.406207	0.278061
C109	C	-1.113843	-0.029533	-0.440166
C110	C	-0.780509	0.303800	-0.106833
C111	C	-0.447176	0.637134	0.226501
C112	C	-1.113829	0.036211	-0.440156
C113	C	-0.780496	0.369544	-0.106823
C114	C	-0.447162	0.702877	0.226511
C115	C	-1.216941	0.036238	-0.337032
C116	C	-0.883608	0.369571	-0.003698
C117	C	-0.550274	0.702905	0.329635
C118	C	-1.216948	-0.029504	-0.337038
C119	C	-0.883614	0.303829	-0.003704
C120	C	-0.550281	0.637162	0.329629
C121	C	-1.165399	-0.062386	-0.388609
C122	C	-0.832066	0.270947	-0.055276
C123	C	-0.498733	0.604281	0.278058
C124	C	-0.375663	0.303262	-0.388601
C125	C	-0.042330	0.636595	-0.055267
C126	C	0.291003	0.969928	0.278066
C127	C	-0.465284	0.303255	-0.388590
C128	C	-0.131951	0.636588	-0.055257
C129	C	0.201382	0.969921	0.278077
C130	C	-1.165358	0.466804	-0.388583
C131	C	-0.832025	0.800138	-0.055250
C132	C	-0.498691	1.133471	0.278083
C133	C	-1.165433	0.536772	-0.388612
C134	C	-0.832100	0.870106	-0.055279
C135	C	-0.498767	1.203439	0.278054
C136	C	-1.165394	0.303211	-0.598888
C137	C	-0.832061	0.636545	-0.265554
C138	C	-0.498727	0.969878	0.067779
C139	C	-1.165411	0.303193	-0.688509
C140	C	-0.832077	0.636527	-0.355176
C141	C	-0.498744	0.969860	-0.021842
C142	C	-1.165424	0.303180	-0.761291
C143	C	-0.832090	0.636513	-0.427958
C144	C	-0.498757	0.969846	-0.094625
C145	C	-1.165443	0.303156	-0.852600
C146	C	-0.832109	0.636489	-0.519267
C147	C	-0.498776	0.969823	-0.185933
C148	C	-1.165462	0.303134	-0.925376
C149	C	-0.832128	0.636467	-0.592043
C150	C	-0.498795	0.969801	-0.258710
C151	C	-1.165482	0.303111	-1.016691
C152	C	-0.832148	0.636445	-0.683357
C153	C	-0.498815	0.969778	-0.350024
C154	C	-1.165361	0.303249	-0.179088
C155	C	-0.832028	0.636582	0.154245
C156	C	-0.498695	0.969915	0.487579
C157	C	-1.165501	0.303089	-0.089467
C158	C	-0.832167	0.636422	0.243866
C159	C	-0.498834	0.969756	0.577199
H160	H	-1.071908	-0.457146	-0.482164
H161	H	-0.738575	-0.123813	-0.148831
H162	H	-0.405242	0.209520	0.184503
H163	H	-1.258914	0.063015	-0.295051
H164	H	-0.925581	0.396348	0.038282
H165	H	-0.592247	0.729682	0.371615
N166	N	-1.269611	-0.063056	-0.284364
N167	N	-0.936278	0.270278	0.048969
N168	N	-0.602945	0.603611	0.382302
N169	N	-1.315634	-0.033686	-0.238331
N170	N	-0.982301	0.299647	0.095003
N171	N	-0.648967	0.632980	0.428336
H172	H	-1.352829	-0.057381	-0.201125
H173	H	-1.019495	0.275952	0.132208
H174	H	-0.686162	0.609285	0.465541
N175	N	-1.061203	-0.331077	-0.492841
N176	N	-0.727870	0.002257	-0.159507
N177	N	-0.394537	0.335590	0.173826
N178	N	-1.015180	-0.360443	-0.538877
N179	N	-0.681847	-0.027109	-0.205544
N180	N	-0.348514	0.306224	0.127790
H181	H	-0.977982	-0.336745	-0.576077
H182	H	-0.644649	-0.003412	-0.242743
H183	H	-0.311316	0.329921	0.090590
H184	H	-1.258949	-0.337823	-0.295061
H185	H	-0.925616	-0.004489	0.038272
H186	H	-0.592283	0.328844	0.371605
N187	N	-1.061186	-0.063116	-0.492847
N188	N	-0.727852	0.270217	-0.159514
N189	N	-0.394519	0.603551	0.173820
N190	N	-1.015156	-0.033773	-0.538878
N191	N	-0.681823	0.299561	-0.205544
N192	N	-0.348490	0.632894	0.127789
H193	H	-0.977967	-0.057488	-0.576085
H194	H	-0.644634	0.275845	-0.242752
H195	H	-0.311300	0.609178	0.090581
N196	N	-1.269643	-0.463897	-0.284362
N197	N	-0.936310	-0.130563	0.048971
N198	N	-0.602977	0.202770	0.382305
N199	N	-1.315664	-0.434529	-0.238326
N200	N	-0.982331	-0.101195	0.095008
N201	N	-0.648997	0.232138	0.428341
H202	H	-1.352858	-0.458224	-0.201120
H203	H	-1.019525	-0.124891	0.132213
H204	H	-0.686191	0.208442	0.465546
H205	H	-1.071844	0.062957	-0.482140
H206	H	-0.738511	0.396291	-0.148806
H207	H	-0.405178	0.729624	0.184527
