data_functionalizedCrystal
_audit_creation_method	'MofGen! by Chris Wilmer'
_symmetry_space_group_name_H-M	'P1'
_symmetry_Int_Tables_number	1
_symmetry_cell_setting	triclinic
loop_
_symmetry_equiv_pos_as_xyz
  x,y,z
_cell_length_a	14.519709
_cell_length_b	11.026607
_cell_length_c	10.065875
_cell_angle_alpha	79.302338
_cell_angle_beta	81.195396
_cell_angle_gamma	83.866919
loop_
_atom_site_label
_atom_site_type_symbol
_atom_site_fract_x
_atom_site_fract_y
_atom_site_fract_z
O1	O	0.375708	-1.628737	0.113512
O2	O	0.331718	-1.275335	0.113511
O3	O	0.221020	-1.461404	0.113499
O4	O	0.486407	-1.442668	0.113524
O5	O	0.242237	-1.425923	-0.113487
O6	O	0.352935	-1.239855	-0.113475
O7	O	0.396926	-1.593256	-0.113475
Zn8	Zn	0.378299	-1.410922	-0.149514
Zn9	Zn	0.350345	-1.457669	0.149550
O10	O	0.507624	-1.407187	-0.113463
C11	C	0.197125	-1.442790	0.000006
C12	C	0.094312	-1.440173	0.000005
C13	C	0.334211	-1.212366	0.000018
C14	C	0.310019	-1.077600	0.000017
C15	C	0.394432	-1.656225	0.000022
C16	C	0.418624	-1.790993	0.000031
C17	C	-0.282174	-1.430544	0.000040
C18	C	-0.177425	-1.433218	0.000030
C19	C	-0.093934	-1.435358	0.000021
C20	C	0.010822	-1.438033	0.000014
C21	C	0.531519	-1.425802	0.000034
C22	C	0.634330	-1.428420	0.000043
N23	N	0.397378	-1.379027	-0.353617
C24	C	0.376818	-1.003940	0.000024
C25	C	0.351815	-0.864652	0.000024
C26	C	0.356976	-1.446564	-0.421401
C27	C	0.371668	-1.422027	-0.578566
N28	N	0.331260	-1.489574	0.353654
H29	H	0.452517	-1.043996	0.000024
Br30	Br	0.255736	-1.616520	-0.549162
H31	H	0.276108	-0.824606	0.000052
Br32	Br	0.544806	-0.857730	0.000017
H33	H	0.311504	-1.522548	-0.363081
Br34	Br	0.183846	-1.010848	-0.000010
Br35	Br	0.447446	-1.295357	-0.675755
H36	H	0.442841	-1.303036	-0.411939
