data_functionalizedCrystal
_audit_creation_method	'MofGen! by Chris Wilmer'
_symmetry_space_group_name_H-M	'P1'
_symmetry_Int_Tables_number	1
_symmetry_cell_setting	triclinic
loop_
_symmetry_equiv_pos_as_xyz
  x,y,z
_cell_length_a	9.065215
_cell_length_b	7.540329
_cell_length_c	10.654550
_cell_angle_alpha	89.997570
_cell_angle_beta	95.250200
_cell_angle_gamma	90.002426
loop_
_atom_site_label
_atom_site_type_symbol
_atom_site_fract_x
_atom_site_fract_y
_atom_site_fract_z
O1	O	1.959394	0.147457	-0.184140
O2	O	1.530026	0.147465	-0.199250
O3	O	1.754582	0.147454	-0.008995
O4	O	1.734838	0.147467	-0.374395
O5	O	1.754569	-0.147511	-0.008992
O6	O	1.530013	-0.147501	-0.199247
O7	O	1.959381	-0.147508	-0.184138
Cu8	Cu	1.744696	-0.174437	-0.191692
Cu9	Cu	1.744711	0.174393	-0.191695
O10	O	1.734825	-0.147498	-0.374393
C11	C	1.475041	-0.000017	-0.197797
C12	C	1.311221	-0.000014	-0.193458
N13	N	1.744695	-0.419785	-0.191689
C14	C	2.014366	-0.000023	-0.185590
C15	C	2.178186	-0.000014	-0.189930
C16	C	1.753126	-0.000026	0.037810
C17	C	1.748789	-0.000020	0.177271
N18	N	1.744724	0.419742	-0.191688
C19	C	1.736281	-0.000013	-0.421198
C20	C	1.740618	-0.000008	-0.560658
C21	C	1.881003	-0.000028	0.256234
C22	C	1.876919	-0.000015	0.387271
C23	C	1.608393	0.000005	0.360369
C24	C	1.612479	0.000005	0.229334
C25	C	2.036035	-0.000047	0.271767
C26	C	2.031951	-0.000035	0.402804
H27	H	1.504817	0.000036	0.165046
H28	H	1.497415	0.000027	0.402775
O29	O	2.116342	0.163456	0.232538
H30	H	2.152406	0.243515	0.317251
O31	O	2.101442	-0.168728	0.224301
H32	H	2.132819	-0.258156	0.305106
O33	O	2.109338	-0.163525	0.457825
H34	H	2.106077	-0.163391	0.561710
H35	H	2.078809	0.127322	0.448261
