data_functionalizedCrystal
_audit_creation_method	'MofGen! by Chris Wilmer'
_symmetry_space_group_name_H-M	'P1'
_symmetry_Int_Tables_number	1
_symmetry_cell_setting	triclinic
loop_
_symmetry_equiv_pos_as_xyz
  x,y,z
_cell_length_a	11.792241
_cell_length_b	15.995350
_cell_length_c	10.268362
_cell_angle_alpha	89.996947
_cell_angle_beta	89.999626
_cell_angle_gamma	83.842895
loop_
_atom_site_label
_atom_site_type_symbol
_atom_site_fract_x
_atom_site_fract_y
_atom_site_fract_z
O1	O	1.505952	0.114763	-0.108167
O2	O	1.839285	0.448097	0.225166
O3	O	2.172618	0.781430	0.558500
O4	O	1.175512	0.126591	-0.108197
O5	O	1.508845	0.459924	0.225137
O6	O	1.842178	0.793258	0.558470
O7	O	1.349764	-0.001170	-0.108180
O8	O	1.683098	0.332164	0.225154
O9	O	2.016431	0.665497	0.558487
O10	O	1.331699	0.242524	-0.108184
O11	O	1.665032	0.575857	0.225150
O12	O	1.998366	0.909190	0.558483
O13	O	1.349749	-0.001175	0.108421
O14	O	1.683083	0.332158	0.441754
O15	O	2.016416	0.665492	0.775088
O16	O	1.175497	0.126586	0.108404
O17	O	1.508830	0.459919	0.441737
O18	O	1.842163	0.793252	0.775071
O19	O	1.505936	0.114758	0.108434
O20	O	1.839270	0.448091	0.441767
O21	O	2.172603	0.781425	0.775100
Cu22	Cu	1.340715	0.120671	0.128196
Cu23	Cu	1.674049	0.454005	0.461530
Cu24	Cu	2.007382	0.787338	0.794863
Cu25	Cu	1.340733	0.120678	-0.127959
Cu26	Cu	1.674066	0.454011	0.205374
Cu27	Cu	2.007400	0.787344	0.538708
O28	O	1.331684	0.242518	0.108417
O29	O	1.665017	0.575852	0.441750
O30	O	1.998350	0.909185	0.775084
C31	C	1.133220	0.125845	0.000100
C32	C	1.466553	0.459179	0.333433
C33	C	1.799886	0.792512	0.666767
C34	C	1.007224	0.123621	0.000088
C35	C	1.340558	0.456955	0.333422
C36	C	1.673891	0.790288	0.666755
C37	C	1.349010	-0.032370	0.000118
C38	C	1.682343	0.300963	0.333451
C39	C	2.015677	0.634296	0.666785
C40	C	1.346771	-0.125331	0.000111
C41	C	1.680104	0.208002	0.333444
C42	C	2.013438	0.541336	0.666777
C43	C	0.776546	0.119532	0.000126
C44	C	1.109880	0.452866	0.333459
C45	C	1.443213	0.786199	0.666793
C46	C	0.904913	0.121804	0.000105
C47	C	1.238246	0.455138	0.333439
C48	C	1.571579	0.788471	0.666772
C49	C	1.338730	-0.463115	0.000114
C50	C	1.672063	-0.129782	0.333448
C51	C	2.005397	0.203552	0.666781
C52	C	1.214630	-0.416244	-0.000383
C53	C	1.547964	-0.082911	0.332951
C54	C	1.881297	0.250422	0.666284
C55	C	1.216870	-0.319544	0.000106
C56	C	1.550203	0.013790	0.333439
C57	C	1.883537	0.347123	0.666772
C58	C	1.342718	-0.295536	0.000112
C59	C	1.676052	0.037797	0.333445
C60	C	2.009385	0.371130	0.666778
C61	C	1.403920	-0.336339	0.123804
C62	C	1.737253	-0.003006	0.457138
C63	C	2.070587	0.330328	0.790471
C64	C	1.400803	-0.432989	0.123908
C65	C	1.734136	-0.099656	0.457241
C66	C	2.067469	0.233678	0.790574
C67	C	1.403383	-0.433329	-0.122408
C68	C	1.736717	-0.099996	0.210926
C69	C	2.070050	0.233337	0.544259
C70	C	1.403354	-0.336384	-0.124042
C71	C	1.736687	-0.003051	0.209291
C72	C	2.070021	0.330283	0.542624
C73	C	1.344979	-0.200829	0.000115
C74	C	1.678313	0.132505	0.333448
C75	C	2.011646	0.465838	0.666781
C76	C	1.336473	-0.557823	0.000120
C77	C	1.669806	-0.224490	0.333453
C78	C	2.003139	0.108844	0.666787
C79	C	1.548229	0.115504	0.000134
C80	C	1.881562	0.448837	0.333468
C81	C	2.214895	0.782170	0.666801
C82	C	1.674224	0.117727	0.000137
C83	C	2.007557	0.451061	0.333471
C84	C	2.340891	0.784394	0.666804
C85	C	1.332438	0.273719	0.000116
C86	C	1.665772	0.607053	0.333450
C87	C	1.999105	0.940386	0.666783
C88	C	1.334677	0.366680	0.000115
C89	C	1.668011	0.700013	0.333449
C90	C	2.001344	1.033346	0.666782
N91	N	1.340711	0.120666	0.308362
N92	N	1.674044	0.454000	0.641695
N93	N	2.007378	0.787333	0.975029
N94	N	1.340746	0.120676	-0.308125
N95	N	1.674080	0.454009	0.025208
N96	N	2.007413	0.787343	0.358542
C97	C	1.340727	0.120676	0.574033
C98	C	1.674061	0.454009	0.907366
C99	C	2.007394	0.787343	1.240699
C100	C	1.340715	0.120673	0.426195
C101	C	1.674048	0.454006	0.759528
C102	C	2.007381	0.787340	1.092861
H103	H	1.168761	-0.291338	-0.088562
H104	H	1.502094	0.041995	0.244771
H105	H	1.835427	0.375329	0.578104
C106	C	1.528823	-0.316698	0.130037
C107	C	1.862156	0.016635	0.463370
C108	C	2.195489	0.349969	0.796704
H109	H	1.564219	-0.341966	0.205548
H110	H	1.897553	-0.008632	0.538881
H111	H	2.230886	0.324701	0.872215
H112	H	1.530998	-0.257551	0.133743
H113	H	1.864331	0.075782	0.467076
H114	H	2.197665	0.409115	0.800409
H115	H	1.568316	-0.338478	0.054663
H116	H	1.901649	-0.005145	0.387996
H117	H	2.234983	0.328189	0.721329
H118	H	1.356161	-0.451495	0.216366
H119	H	1.689495	-0.118162	0.549699
H120	H	2.022828	0.215172	0.883032
H121	H	1.491914	-0.464823	0.129524
H122	H	1.825248	-0.131490	0.462857
H123	H	2.158581	0.201843	0.796191
H124	H	1.358608	-0.309336	-0.215547
H125	H	1.691941	0.023997	0.117787
H126	H	2.025274	0.357330	0.451120
H127	H	1.168425	-0.291901	0.088916
H128	H	1.501758	0.041432	0.422250
H129	H	1.835092	0.374766	0.755583
H130	H	1.362816	-0.454051	-0.216159
H131	H	1.696149	-0.120717	0.117174
H132	H	2.029482	0.212616	0.450508
H133	H	1.165243	-0.436065	0.087817
H134	H	1.498576	-0.102731	0.421151
H135	H	1.831910	0.230602	0.754484
C136	C	1.346473	-0.298277	0.248150
C137	C	1.679806	0.035056	0.581484
C138	C	2.013139	0.368390	0.914817
H139	H	1.285200	-0.257531	0.224950
H140	H	1.618534	0.075803	0.558283
H141	H	1.951867	0.409136	0.891617
H142	H	1.400672	-0.272294	0.298202
H143	H	1.734005	0.061040	0.631535
H144	H	2.067338	0.394373	0.964868
H145	H	1.318077	-0.341532	0.298002
H146	H	1.651411	-0.008199	0.631335
H147	H	1.984744	0.325135	0.964668
C148	C	1.527336	-0.315076	-0.134128
C149	C	1.860669	0.018257	0.199205
C150	C	2.194003	0.351591	0.532539
H151	H	1.543819	-0.280841	-0.062428
H152	H	1.877152	0.052492	0.270906
H153	H	2.210485	0.385825	0.604239
H154	H	1.536955	-0.285686	-0.213071
H155	H	1.870288	0.047648	0.120262
H156	H	2.203621	0.380981	0.453596
H157	H	1.577732	-0.365564	-0.133074
H158	H	1.911065	-0.032230	0.200259
H159	H	2.244399	0.301103	0.533593
C160	C	1.526983	-0.475679	-0.123539
C161	C	1.860316	-0.142346	0.209795
C162	C	2.193650	0.190987	0.543128
H163	H	1.539173	-0.511345	-0.049750
H164	H	1.872506	-0.178011	0.283583
H165	H	2.205839	0.155322	0.616917
H166	H	1.578259	-0.433785	-0.120823
H167	H	1.911592	-0.100451	0.212510
H168	H	2.244925	0.232882	0.545844
H169	H	1.539758	-0.508055	-0.200733
H170	H	1.873091	-0.174722	0.132600
H171	H	2.206424	0.158611	0.465933
H172	H	1.165035	-0.434999	-0.089086
H173	H	1.498368	-0.101666	0.244248
H174	H	1.831702	0.231668	0.577581
