data_functionalizedCrystal
_audit_creation_method	'MofGen! by Chris Wilmer'
_symmetry_space_group_name_H-M	'P1'
_symmetry_Int_Tables_number	1
_symmetry_cell_setting	triclinic
loop_
_symmetry_equiv_pos_as_xyz
  x,y,z
_cell_length_a	19.188930
_cell_length_b	19.188930
_cell_length_c	18.266242
_cell_angle_alpha	90.011475
_cell_angle_beta	89.977082
_cell_angle_gamma	96.855221
loop_
_atom_site_label
_atom_site_type_symbol
_atom_site_fract_x
_atom_site_fract_y
_atom_site_fract_z
O1	O	0.926149	-0.087169	-0.061124
O2	O	1.426149	0.412831	0.438876
O3	O	0.722838	-0.098903	-0.061075
O4	O	1.222838	0.401097	0.438925
O5	O	0.830361	0.008620	-0.061087
O6	O	1.330361	0.508620	0.438913
O7	O	0.818627	-0.194691	-0.061113
O8	O	1.318627	0.305309	0.438887
O9	O	0.830343	0.008625	0.060675
O10	O	1.330343	0.508625	0.560675
O11	O	0.722820	-0.098897	0.060687
O12	O	1.222820	0.401103	0.560687
O13	O	0.926131	-0.087163	0.060638
O14	O	1.426131	0.412837	0.560638
Zn15	Zn	0.824473	-0.093029	0.079994
Zn16	Zn	1.324473	0.406971	0.579994
Zn17	Zn	0.824497	-0.093037	-0.080432
Zn18	Zn	1.324497	0.406963	0.419568
O19	O	0.818608	-0.194686	0.060649
O20	O	1.318608	0.305314	0.560649
C21	C	0.696818	-0.098520	-0.000188
C22	C	1.196818	0.401480	0.499812
C23	C	0.619313	-0.097380	-0.000169
C24	C	1.119313	0.402620	0.499831
C25	C	0.574389	-0.160470	-0.000188
C26	C	1.074389	0.339530	0.499812
C27	C	0.501566	-0.159399	-0.000196
C28	C	1.001566	0.340601	0.499804
C29	C	0.473669	-0.095233	-0.000199
C30	C	0.973669	0.404767	0.499801
C31	C	0.518603	-0.032133	-0.000175
C32	C	1.018603	0.467867	0.499825
C33	C	0.591425	-0.033207	-0.000160
C34	C	1.091425	0.466793	0.499840
N35	N	0.365695	-0.046188	-0.041663
N36	N	0.865695	0.453812	0.458337
N37	N	0.296516	-0.045172	-0.041679
N38	N	0.796516	0.454828	0.458321
C39	C	0.254260	-0.091994	-0.000243
C40	C	0.754260	0.408006	0.499757
N41	N	0.283795	-0.139881	0.041200
N42	N	0.783795	0.360119	0.541200
N43	N	0.352980	-0.140899	0.041213
N44	N	0.852980	0.359101	0.541213
C45	C	0.394707	-0.094062	-0.000215
C46	C	0.894707	0.405938	0.499785
C47	C	0.130372	-0.153928	-0.000270
C48	C	0.630372	0.346072	0.499730
C49	C	0.057547	-0.152853	-0.000274
C50	C	0.557547	0.347147	0.499726
C51	C	0.074586	-0.025586	-0.000261
C52	C	0.574586	0.474414	0.499739
C53	C	0.147409	-0.026662	-0.000250
C54	C	0.647409	0.473338	0.499750
C55	C	0.175298	-0.090835	-0.000258
C56	C	0.675298	0.409165	0.499742
C57	C	0.829972	0.034634	-0.000204
C58	C	1.329972	0.534634	0.499796
C59	C	0.828831	0.112138	-0.000197
C60	C	1.328831	0.612138	0.499803
C61	C	0.952151	-0.087546	-0.000252
C62	C	1.452151	0.412454	0.499748
C63	C	1.029656	-0.088687	-0.000276
C64	C	1.529656	0.411313	0.499724
C65	C	0.818997	-0.220700	-0.000236
C66	C	1.318997	0.279300	0.499764
C67	C	0.820138	-0.298204	-0.000247
C68	C	1.320138	0.201796	0.499753
N69	N	0.824461	-0.093024	0.189481
N70	N	1.324461	0.406976	0.689481
C71	C	0.891922	0.157062	-0.000209
C72	C	1.391922	0.657062	0.499791
C73	C	0.890850	0.229886	-0.000220
C74	C	1.390850	0.729886	0.499780
C75	C	0.826684	0.257782	-0.000206
C76	C	1.326684	0.757782	0.499794
C77	C	0.763585	0.212849	-0.000198
C78	C	1.263585	0.712849	0.499802
C79	C	0.764658	0.140026	-0.000194
C80	C	1.264658	0.640026	0.499806
N81	N	0.777631	0.365789	0.041244
N82	N	1.277631	0.865789	0.541244
N83	N	0.776615	0.434968	0.041242
N84	N	1.276615	0.934968	0.541242
C85	C	0.823446	0.477191	-0.000220
C86	C	1.323446	0.977191	0.499780
N87	N	0.871341	0.447624	-0.041669
N88	N	1.371341	0.947624	0.458331
N89	N	0.872359	0.378439	-0.041664
N90	N	1.372359	0.878439	0.458336
C91	C	0.825513	0.336745	-0.000210
C92	C	1.325513	0.836745	0.499790
C93	C	0.885379	0.601079	-0.000245
C94	C	1.385379	1.101079	0.499755
C95	C	0.884305	0.673904	-0.000261
C96	C	1.384305	1.173904	0.499739
C97	C	0.757038	0.656865	-0.000231
C98	C	1.257038	1.156865	0.499769
C99	C	0.758114	0.584042	-0.000222
C100	C	1.258114	1.084042	0.499778
C101	C	0.822287	0.556154	-0.000226
C102	C	1.322287	1.056154	0.499774
N103	N	0.824513	-0.093037	-0.189919
N104	N	1.324513	0.406963	0.310081
C105	C	0.872088	-0.045436	0.227785
C106	C	1.372088	0.454564	0.727785
C107	C	0.872092	-0.045433	0.304430
C108	C	1.372092	0.454567	0.804430
C109	C	0.824477	-0.093030	0.342768
C110	C	1.324477	0.406970	0.842768
C111	C	0.776841	-0.140621	0.304455
C112	C	1.276841	0.359379	0.804455
C113	C	0.776834	-0.140618	0.227812
C114	C	1.276834	0.359382	0.727812
N115	N	0.815401	-0.154837	0.463094
N116	N	1.315401	0.345163	0.963094
N117	N	0.815413	-0.154838	0.535902
N118	N	1.315413	0.345162	1.035902
C119	C	0.824496	-0.093040	0.573691
C120	C	1.324496	0.406960	1.073691
N121	N	0.833582	-0.031239	0.535920
N122	N	1.333582	0.468761	1.035920
N123	N	0.833574	-0.031240	0.463106
N124	N	1.333574	0.468760	0.963106
C125	C	0.824480	-0.093038	0.425875
C126	C	1.324480	0.406962	0.925875
C127	C	0.872131	-0.045444	0.695101
C128	C	1.372131	0.454556	1.195101
C129	C	0.872130	-0.045440	0.771748
C130	C	1.372130	0.454560	1.271748
C131	C	0.776882	-0.140634	0.771772
C132	C	1.276882	0.359366	1.271772
C133	C	0.776879	-0.140632	0.695127
C134	C	1.276879	0.359368	1.195127
C135	C	0.824507	-0.093038	0.656796
C136	C	1.324507	0.406962	1.156796
H137	H	0.495885	0.020111	-0.000188
H138	H	0.995885	0.520111	0.499812
H139	H	0.153080	-0.206181	-0.000267
H140	H	0.653080	0.293819	0.499733
H141	H	0.051874	0.026659	-0.000309
H142	H	0.551874	0.526659	0.499691
C143	C	0.724505	-0.192991	0.813931
C144	C	1.224505	0.307009	1.313931
H145	H	0.696137	-0.221332	0.780138
H146	H	1.196137	0.278668	1.280138
H147	H	0.749531	-0.221994	0.843811
H148	H	1.249531	0.278006	1.343811
H149	H	0.695519	-0.167943	0.843849
H150	H	1.195519	0.332057	1.343849
C151	C	0.953707	0.723324	-0.000282
C152	C	1.453707	1.223324	0.499718
H153	H	0.943878	0.770690	-0.000295
H154	H	1.443878	1.270690	0.499705
H155	H	0.980023	0.714905	0.042174
H156	H	1.480023	1.214905	0.542174
H157	H	0.980032	0.714875	-0.042753
H158	H	1.480032	1.214875	0.457247
C159	C	0.695256	0.090608	-0.000174
C160	C	1.195256	0.590608	0.499826
H161	H	0.656885	0.117649	-0.000163
H162	H	1.156885	0.617649	0.499837
H163	H	0.693035	0.061832	-0.042630
H164	H	1.193035	0.561832	0.457370
H165	H	0.693025	0.061860	0.042298
H166	H	1.193025	0.561860	0.542298
H167	H	0.706738	0.547464	-0.000208
H168	H	1.206738	1.047464	0.499792
C169	C	0.605063	-0.231057	-0.000184
C170	C	1.105063	0.268943	0.499816
H171	H	0.567874	-0.268479	-0.000189
H172	H	1.067874	0.231521	0.499811
H173	H	0.633144	-0.234128	-0.042636
H174	H	1.133144	0.265872	0.457364
H175	H	0.633089	-0.234117	0.042291
H176	H	1.133089	0.265883	0.542291
C177	C	0.452138	-0.228799	-0.000221
C178	C	0.952138	0.271201	0.499779
H179	H	0.404773	-0.218967	-0.000225
H180	H	0.904773	0.281033	0.499775
H181	H	0.460596	-0.255120	-0.042684
H182	H	0.960596	0.244880	0.457316
H183	H	0.460545	-0.255121	0.042243
H184	H	0.960545	0.244879	0.542243
C185	C	0.960253	0.279311	-0.000228
C186	C	1.460253	0.779311	0.499772
H187	H	0.998624	0.252272	-0.000225
H188	H	1.498624	0.752272	0.499775
H189	H	0.962490	0.308067	-0.042689
H190	H	1.462490	0.808067	0.457311
H191	H	0.962464	0.308078	0.042239
H192	H	1.462464	0.808078	0.542239
C193	C	0.693004	0.243532	-0.000179
C194	C	1.193004	0.743532	0.499821
H195	H	0.701400	0.293337	-0.000175
H196	H	1.201400	0.793337	0.499825
H197	H	0.667041	0.228090	-0.042633
H198	H	1.167041	0.728090	0.457367
H199	H	0.667030	0.228105	0.042294
H200	H	1.167030	0.728105	0.542294
C201	C	0.955964	0.570399	-0.000257
C202	C	1.455964	1.070399	0.499743
H203	H	0.993387	0.607587	-0.000276
H204	H	1.493387	1.107587	0.499724
H205	H	0.959023	0.542357	0.042206
H206	H	1.459023	1.042357	0.542206
H207	H	0.959033	0.542334	-0.042721
H208	H	1.459033	1.042334	0.457279
H209	H	0.183988	0.024713	-0.000238
H210	H	0.683988	0.524713	0.499762
H211	H	0.738100	-0.179386	0.663938
H212	H	1.238100	0.320614	1.163938
C213	C	0.686456	0.687543	-0.000217
C214	C	1.186456	1.187543	0.499783
H215	H	0.694852	0.737348	-0.000218
H216	H	1.194852	1.237348	0.499782
H217	H	0.660494	0.672097	-0.042671
H218	H	1.160494	1.172097	0.457329
H219	H	0.660481	0.672120	0.042257
H220	H	1.160481	1.172120	0.542257
H221	H	0.910868	-0.006681	0.196579
H222	H	1.410868	0.493319	0.696579
H223	H	0.628003	0.018171	-0.000145
H224	H	1.128003	0.518171	0.499855
H225	H	0.910877	-0.006680	0.335623
H226	H	1.410877	0.493320	0.835623
C227	C	0.724468	-0.192978	0.346624
C228	C	1.224468	0.307022	0.846624
H229	H	0.731298	-0.186169	0.397757
H230	H	1.231298	0.313831	0.897757
H231	H	0.677894	-0.185511	0.334093
H232	H	1.177894	0.314489	0.834093
H233	H	0.731908	-0.239559	0.334045
H234	H	1.231908	0.260441	0.834045
H235	H	0.738049	-0.179371	0.196624
H236	H	1.238049	0.320629	0.696624
H237	H	0.020970	-0.204232	-0.000285
H238	H	0.520970	0.295768	0.499715
C239	C	0.962507	0.126385	-0.000216
C240	C	1.462507	0.626385	0.499784
H241	H	0.954112	0.076580	-0.000205
H242	H	1.454112	0.576580	0.499795
H243	H	0.988487	0.141810	-0.042680
H244	H	1.488487	0.641810	0.457320
H245	H	0.988463	0.141830	0.042247
H246	H	1.488463	0.641830	0.542247
H247	H	0.910910	-0.006688	0.663892
H248	H	1.410910	0.493312	1.163892
C249	C	0.924523	0.006908	0.813882
C250	C	1.424523	0.506908	1.313882
H251	H	0.952890	0.035247	0.780074
H252	H	1.452890	0.535247	1.280074
H253	H	0.899507	0.035914	0.843801
H254	H	1.399507	0.535914	1.343801
H255	H	0.953509	-0.018147	0.843759
H256	H	1.453509	0.481853	1.343759
