data_functionalizedCrystal
_audit_creation_method	'MofGen! by Chris Wilmer'
_symmetry_space_group_name_H-M	'P1'
_symmetry_Int_Tables_number	1
_symmetry_cell_setting	triclinic
loop_
_symmetry_equiv_pos_as_xyz
  x,y,z
_cell_length_a	16.956995
_cell_length_b	14.853567
_cell_length_c	15.455313
_cell_angle_alpha	92.672621
_cell_angle_beta	87.515363
_cell_angle_gamma	79.844701
loop_
_atom_site_label
_atom_site_type_symbol
_atom_site_fract_x
_atom_site_fract_y
_atom_site_fract_z
O1	O	1.061572	0.033154	-0.072188
O2	O	1.561572	0.533154	0.427812
O3	O	0.829449	0.064802	-0.072175
O4	O	1.329449	0.564802	0.427825
O5	O	0.951711	-0.082722	-0.072185
O6	O	1.451711	0.417278	0.427815
O7	O	0.939310	0.180679	-0.072179
O8	O	1.439310	0.680679	0.427821
O9	O	0.944719	-0.074319	0.072078
O10	O	1.444719	0.425681	0.572078
O11	O	0.822457	0.073206	0.072088
O12	O	1.322457	0.573206	0.572088
O13	O	1.054580	0.041558	0.072074
O14	O	1.554580	0.541558	0.572074
Cu15	Cu	0.937880	0.058149	0.085253
Cu16	Cu	1.437880	0.558149	0.585253
Cu17	Cu	0.946149	0.048211	-0.085354
Cu18	Cu	1.446149	0.548211	0.414646
O19	O	0.932318	0.189083	0.072084
O20	O	1.432318	0.689083	0.572084
C21	C	0.796247	0.070625	-0.000042
C22	C	1.296247	0.570625	0.499958
C23	C	0.707731	0.075442	-0.000037
C24	C	1.207731	0.575442	0.499963
C25	C	0.208473	0.111480	-0.000069
C26	C	0.708473	0.611480	0.499931
C27	C	0.291643	0.106946	-0.000068
C28	C	0.791643	0.606946	0.499932
C29	C	0.342636	0.021850	-0.000064
C30	C	0.842636	0.521850	0.499936
C31	C	0.310457	-0.058718	-0.000068
C32	C	0.810457	0.441282	0.499932
C33	C	0.227288	-0.054184	-0.000075
C34	C	0.727288	0.445816	0.499925
C35	C	0.592383	-0.000592	-0.000049
C36	C	1.092383	0.499408	0.499951
C37	C	0.675557	-0.005120	-0.000040
C38	C	1.175557	0.494880	0.499960
C39	C	0.656737	0.160545	-0.000041
C40	C	1.156737	0.660545	0.499959
C41	C	0.573567	0.165072	-0.000043
C42	C	1.073567	0.665072	0.499957
C43	C	0.541395	0.084503	-0.000052
C44	C	1.041395	0.584503	0.499948
N45	N	0.427650	0.017214	-0.000060
N46	N	0.927650	0.517214	0.499940
N47	N	0.456384	0.089140	-0.000062
N48	N	0.956384	0.589140	0.499938
C49	C	0.947653	-0.112067	-0.000056
C50	C	1.447653	0.387933	0.499944
C51	C	0.945970	-0.212023	-0.000063
C52	C	1.445970	0.287977	0.499937
C53	C	0.866225	-0.618501	-0.000042
C54	C	1.366225	-0.118501	0.499958
C55	C	1.011475	-0.650811	-0.000051
C56	C	1.511475	-0.150811	0.499949
C57	C	1.013058	-0.556898	-0.000056
C58	C	1.513058	-0.056898	0.499944
C59	C	0.941224	-0.493781	-0.000053
C60	C	1.441224	0.006219	0.499947
C61	C	0.867806	-0.524578	-0.000045
C62	C	1.367806	-0.024578	0.499955
C63	C	1.086474	-0.526094	-0.000055
C64	C	1.586474	-0.026094	0.499945
C65	C	1.088061	-0.432175	-0.000059
C66	C	1.588061	0.067825	0.499941
C67	C	1.016226	-0.369057	-0.000063
C68	C	1.516226	0.130943	0.499937
C69	C	0.942805	-0.399859	-0.000056
C70	C	1.442805	0.100141	0.499944
C71	C	0.870971	-0.336742	-0.000053
C72	C	1.370971	0.163258	0.499947
C73	C	0.797550	-0.367542	-0.000052
C74	C	1.297550	0.132458	0.499948
C75	C	0.795971	-0.461460	-0.000048
C76	C	1.295971	0.038540	0.499952
C77	C	1.017804	-0.275140	-0.000066
C78	C	1.517804	0.224860	0.499934
C79	C	0.872552	-0.242820	-0.000055
C80	C	1.372552	0.257180	0.499945
C81	C	1.087782	0.035736	-0.000061
C82	C	1.587782	0.535736	0.499939
C83	C	1.176298	0.030918	-0.000071
C84	C	1.676298	0.530918	0.499929
C85	C	0.936376	0.218427	-0.000047
C86	C	1.436376	0.718427	0.499953
C87	C	0.938059	0.318383	-0.000045
C88	C	1.438059	0.818383	0.499955
N89	N	0.932071	0.065138	0.205249
N90	N	1.432071	0.565138	0.705249
N91	N	0.951965	0.041215	-0.205350
N92	N	1.451965	0.541215	0.294650
C93	C	0.984030	0.002485	0.250639
C94	C	1.484030	0.502485	0.750639
C95	C	0.979644	0.007778	0.341447
C96	C	1.479644	0.507778	0.841447
C97	C	0.923301	0.075729	0.386864
C98	C	1.423301	0.575729	0.886864
C99	C	0.871337	0.138386	0.341468
C100	C	1.371337	0.638386	0.841468
C101	C	0.875720	0.133088	0.250661
C102	C	1.375720	0.633088	0.750661
C103	C	0.904383	0.098573	0.658447
C104	C	1.404383	0.598573	1.158447
C105	C	0.900005	0.103868	0.749260
C106	C	1.400005	0.603868	1.249260
C107	C	1.008312	-0.026742	0.749233
C108	C	1.508312	0.473258	1.249233
C109	C	1.012693	-0.032030	0.658425
C110	C	1.512693	0.467970	1.158425
C111	C	0.960725	0.030623	0.613037
C112	C	1.460725	0.530623	1.113037
N113	N	0.918818	0.081143	0.479685
N114	N	1.418818	0.581143	0.979685
N115	N	0.965205	0.025205	0.520218
N116	N	1.465205	0.525205	1.020218
H117	H	0.717075	-0.074419	-0.000040
H118	H	1.217075	0.425581	0.499960
H119	H	0.166958	0.180775	-0.000066
H120	H	0.666958	0.680775	0.499934
H121	H	1.058571	-0.087361	0.621449
H122	H	1.558571	0.412639	1.121449
O123	O	0.819683	0.200667	0.201698
O124	O	1.319683	0.700667	0.701698
H125	H	0.779773	0.248814	0.248532
H126	H	1.279773	0.748814	0.748532
O127	O	1.035697	-0.059799	0.390393
O128	O	1.535697	0.440201	0.890393
H129	H	1.000100	-0.098737	0.431771
H130	H	1.500100	0.401263	0.931771
H131	H	0.806448	-0.643583	-0.000045
H132	H	1.306448	-0.143583	0.499955
O133	O	0.810570	0.211679	0.390453
O134	O	1.310570	0.711679	0.890453
H135	H	0.821647	0.280184	0.373004
H136	H	1.321647	0.780184	0.873004
H137	H	0.739062	-0.316140	-0.000043
H138	H	1.239062	0.183860	0.499957
O139	O	1.167251	-0.398968	-0.000074
O140	O	1.667251	0.101032	0.499926
H141	H	1.168607	-0.353527	0.058724
H142	H	1.668607	0.146473	0.558724
O143	O	0.518572	0.256857	-0.000046
O144	O	1.018572	0.756857	0.499954
H145	H	0.483081	0.259458	-0.058843
H146	H	0.983081	0.759458	0.441157
H147	H	0.862070	0.149589	0.621499
H148	H	1.362070	0.649589	1.121499
H149	H	1.050620	-0.077752	0.786197
H150	H	1.550620	0.422248	1.286197
H151	H	0.566199	-0.066196	-0.000054
H152	H	1.066199	0.433804	0.499946
O153	O	0.716789	-0.494685	-0.000042
O154	O	1.216789	0.005315	0.499958
H155	H	0.667102	-0.435021	-0.000049
H156	H	1.167102	0.064979	0.499951
O157	O	0.839224	0.177151	0.798251
O158	O	1.339224	0.677151	1.298251
H159	H	0.803816	0.219821	0.751434
H160	H	1.303816	0.719821	1.251434
H161	H	1.029913	-0.052845	0.213667
H162	H	1.529913	0.447155	0.713667
O163	O	0.326348	0.193838	-0.000046
O164	O	0.826348	0.693838	0.499954
H165	H	0.276915	0.253773	-0.000032
H166	H	0.776915	0.753773	0.499968
H167	H	0.682941	0.226139	-0.000035
H168	H	1.182941	0.726139	0.499965
H169	H	0.351983	-0.128005	-0.000070
H170	H	0.851983	0.371995	0.499930
H171	H	0.201094	-0.119786	-0.000079
H172	H	0.701094	0.380214	0.499921
H173	H	0.814055	-0.191435	-0.000057
H174	H	1.314055	0.308565	0.499943
H175	H	1.069959	-0.702205	-0.000046
H176	H	1.569959	-0.202205	0.499954
H177	H	1.144957	-0.577489	-0.000050
H178	H	1.644957	-0.077489	0.499950
O179	O	1.096983	-0.241914	-0.000073
O180	O	1.596983	0.258086	0.499927
H181	H	1.146668	-0.301581	-0.000078
H182	H	1.646668	0.198419	0.499922
