data_functionalizedCrystal
_audit_creation_method	'MofGen! by Chris Wilmer'
_symmetry_space_group_name_H-M	'P1'
_symmetry_Int_Tables_number	1
_symmetry_cell_setting	triclinic
loop_
_symmetry_equiv_pos_as_xyz
  x,y,z
_cell_length_a	15.944551
_cell_length_b	16.098538
_cell_length_c	15.944551
_cell_angle_alpha	92.722095
_cell_angle_beta	96.501262
_cell_angle_gamma	92.734390
loop_
_atom_site_label
_atom_site_type_symbol
_atom_site_fract_x
_atom_site_fract_y
_atom_site_fract_z
O1	O	1.118280	0.069171	-0.104583
O2	O	1.451614	0.402504	0.228750
O3	O	1.784947	0.735837	0.562084
O4	O	0.873732	0.069192	-0.117938
O5	O	1.207065	0.402525	0.215395
O6	O	1.540399	0.735858	0.548729
O7	O	1.002684	0.069173	0.011014
O8	O	1.336017	0.402507	0.344347
O9	O	1.669350	0.735840	0.677680
O10	O	0.989328	0.069189	-0.233535
O11	O	1.322662	0.402523	0.099798
O12	O	1.655995	0.735856	0.433132
O13	O	0.995151	-0.069339	0.003511
O14	O	1.328484	0.263995	0.336844
O15	O	1.661818	0.597328	0.670177
O16	O	0.866199	-0.069320	-0.125441
O17	O	1.199532	0.264013	0.207892
O18	O	1.532866	0.597347	0.541225
O19	O	1.110748	-0.069341	-0.112086
O20	O	1.444081	0.263992	0.221247
O21	O	1.777414	0.597326	0.554580
Zn22	Zn	0.987277	-0.091322	-0.119955
Zn23	Zn	1.320611	0.242011	0.213378
Zn24	Zn	1.653944	0.575344	0.546712
Zn25	Zn	0.997202	0.091173	-0.110069
Zn26	Zn	1.330535	0.424506	0.223264
Zn27	Zn	1.663869	0.757840	0.556597
O28	O	0.981796	-0.069322	-0.241038
O29	O	1.315129	0.264011	0.092295
O30	O	1.648462	0.597344	0.425628
C31	C	0.838672	-0.000062	-0.121135
C32	C	1.172005	0.333272	0.212198
C33	C	1.505338	0.666605	0.545532
C34	C	0.745426	-0.000054	-0.119472
C35	C	1.078759	0.333280	0.213861
C36	C	1.412093	0.666613	0.547194
N37	N	0.980510	-0.215871	-0.126701
N38	N	1.313843	0.117463	0.206632
N39	N	1.647177	0.450796	0.539965
C40	C	0.530568	-0.000075	-0.035569
C41	C	0.863901	0.333258	0.297764
C42	C	1.197235	0.666591	0.631097
C43	C	0.473262	0.068221	-0.070832
C44	C	0.806596	0.401554	0.262501
C45	C	1.139929	0.734887	0.595835
C46	C	0.574700	-0.000064	-0.116466
C47	C	0.908033	0.333269	0.216868
C48	C	1.241366	0.666603	0.550201
C49	C	0.465858	-0.068341	-0.078249
C50	C	0.799191	0.264992	0.255085
C51	C	1.132524	0.598326	0.588418
C52	C	0.409786	-0.000077	-0.113556
C53	C	0.743120	0.333256	0.219778
C54	C	1.076453	0.666589	0.553111
C55	C	0.518625	0.068289	-0.151748
C56	C	0.851958	0.401622	0.181586
C57	C	1.185292	0.734955	0.514919
C58	C	0.511223	-0.068334	-0.159156
C59	C	0.844557	0.264999	0.174177
C60	C	1.177890	0.598332	0.507510
C61	C	0.453936	-0.000021	-0.194477
C62	C	0.787269	0.333312	0.138856
C63	C	1.120603	0.666645	0.472190
C64	C	0.669702	-0.000055	-0.118140
C65	C	1.003036	0.333278	0.215194
C66	C	1.336369	0.666611	0.548527
C67	C	0.314785	-0.000080	-0.111888
C68	C	0.648118	0.333254	0.221446
C69	C	0.981452	0.666587	0.554779
C70	C	1.035262	-0.259463	-0.071988
C71	C	1.368596	0.073870	0.261345
C72	C	1.701929	0.407203	0.594678
C73	C	1.030536	-0.346652	-0.076716
C74	C	1.363870	-0.013318	0.256618
C75	C	1.697203	0.320015	0.589951
C76	C	0.971061	-0.390245	-0.136161
C77	C	1.304394	-0.056912	0.197173
C78	C	1.637728	0.276421	0.530506
C79	C	0.916303	-0.346646	-0.190876
C80	C	1.249636	-0.013313	0.142457
C81	C	1.582970	0.320020	0.475791
C82	C	0.921026	-0.259460	-0.186144
C83	C	1.254359	0.073874	0.147189
C84	C	1.587692	0.407207	0.480523
C85	C	0.953941	-0.653493	-0.153300
C86	C	1.287274	-0.320160	0.180034
C87	C	1.620607	0.013174	0.513367
C88	C	0.949224	-0.740686	-0.158029
C89	C	1.282557	-0.407352	0.175304
C90	C	1.615890	-0.074019	0.508637
C91	C	1.063456	-0.740685	-0.043867
C92	C	1.396790	-0.407352	0.289466
C93	C	1.730123	-0.074018	0.622799
C94	C	1.068177	-0.653497	-0.039144
C95	C	1.401511	-0.320163	0.294189
C96	C	1.734844	0.013170	0.627522
C97	C	1.013416	-0.609905	-0.093857
C98	C	1.346750	-0.276572	0.239477
C99	C	1.680083	0.056761	0.572810
C100	C	0.966231	-0.479366	-0.140996
C101	C	1.299564	-0.146033	0.192337
C102	C	1.632897	0.187301	0.525671
C103	C	1.018243	-0.520786	-0.089017
C104	C	1.351577	-0.187453	0.244317
C105	C	1.684910	0.145880	0.577650
C106	C	1.145808	-0.000086	-0.108889
C107	C	1.479141	0.333247	0.224444
C108	C	1.812475	0.666581	0.557777
C109	C	1.239054	-0.000088	-0.110552
C110	C	1.572387	0.333245	0.222782
C111	C	1.905720	0.666579	0.556115
C112	C	0.998363	-0.000083	0.038556
C113	C	1.331696	0.333251	0.371889
C114	C	1.665030	0.666584	0.705223
C115	C	0.996701	-0.000083	0.131802
C116	C	1.330034	0.333250	0.465135
C117	C	1.663367	0.666584	0.798469
N118	N	1.003976	0.215721	-0.103316
N119	N	1.337309	0.549055	0.230017
N120	N	1.670643	0.882388	0.563350
C121	C	0.986117	-0.000065	-0.268580
C122	C	1.319450	0.333269	0.064753
C123	C	1.652783	0.666602	0.398086
C124	C	0.987779	-0.000059	-0.361826
C125	C	1.321113	0.333274	-0.028493
C126	C	1.654446	0.666608	0.304840
C127	C	0.912797	-0.000064	0.346660
C128	C	1.246131	0.333269	0.679993
C129	C	1.579464	0.666602	1.013327
C130	C	0.948045	-0.068363	0.403977
C131	C	1.281379	0.264971	0.737311
C132	C	1.614712	0.598304	1.070644
C133	C	0.993694	-0.000076	0.302528
C134	C	1.327027	0.333257	0.635862
C135	C	1.660360	0.666590	0.969195
C136	C	0.955491	0.068199	0.411358
C137	C	1.288824	0.401533	0.744692
C138	C	1.622158	0.734866	1.078025
C139	C	0.990783	-0.000066	0.467442
C140	C	1.324117	0.333267	0.800775
C141	C	1.657450	0.666600	1.134108
C142	C	1.028961	-0.068431	0.358615
C143	C	1.362294	0.264902	0.691948
C144	C	1.695628	0.598236	1.025281
C145	C	1.036399	0.068192	0.365993
C146	C	1.369732	0.401526	0.699326
C147	C	1.703065	0.734859	1.032659
C148	C	1.071705	-0.000122	0.423292
C149	C	1.405038	0.333211	0.756625
C150	C	1.738371	0.666544	1.089958
C151	C	0.995368	-0.000083	0.207526
C152	C	1.328701	0.333250	0.540859
C153	C	1.662035	0.666584	0.874192
C154	C	0.989115	-0.000066	0.562443
C155	C	1.322449	0.333267	0.895776
C156	C	1.655782	0.666601	1.229109
H157	H	0.563905	0.000005	0.031573
H158	H	0.897239	0.333338	0.364906
H159	H	1.230572	0.666671	0.698240
H160	H	0.541756	0.126091	-0.182807
H161	H	0.875089	0.459424	0.150526
H162	H	1.208423	0.792758	0.483860
H163	H	1.060005	-0.126235	0.335493
H164	H	1.393338	0.207098	0.668826
H165	H	1.726671	0.540432	1.002160
Cl166	Cl	0.402740	0.000041	-0.298234
Cl167	Cl	0.736073	0.333375	0.035099
Cl168	Cl	1.069407	0.666708	0.368433
Cl169	Cl	1.099368	-0.401456	-0.007932
Cl170	Cl	1.432702	-0.068122	0.325402
Cl171	Cl	1.766035	0.265211	0.658735
Cl172	Cl	0.430000	-0.157485	-0.030231
Cl173	Cl	0.763333	0.175849	0.303103
Cl174	Cl	1.096667	0.509182	0.636436
Cl175	Cl	1.142948	-0.598693	0.035586
Cl176	Cl	1.476281	-0.265360	0.368919
Cl177	Cl	1.809614	0.067974	0.702253
H178	H	0.456292	0.125956	-0.033488
H179	H	0.789625	0.459289	0.299845
H180	H	1.122959	0.792623	0.633178
H181	H	0.917806	-0.514867	-0.189399
H182	H	1.251139	-0.181534	0.143935
H183	H	1.584473	0.151800	0.477268
Cl184	Cl	0.537461	-0.157478	-0.216769
Cl185	Cl	0.870795	0.175855	0.116564
Cl186	Cl	1.204128	0.509189	0.449898
Cl187	Cl	1.132292	-0.795489	0.024913
Cl188	Cl	1.465625	-0.462156	0.358246
Cl189	Cl	1.798958	-0.128823	0.691579
Cl190	Cl	1.110039	-0.204669	0.002743
Cl191	Cl	1.443373	0.128664	0.336076
Cl192	Cl	1.776706	0.461998	0.669409
H193	H	1.138910	-0.000167	0.456448
H194	H	1.472243	0.333167	0.789781
H195	H	1.805576	0.666500	1.123115
H196	H	0.910689	-0.126097	0.420958
H197	H	1.244023	0.207236	0.754292
H198	H	1.577356	0.540569	1.087625
H199	H	1.073726	0.125930	0.348990
H200	H	1.407059	0.459263	0.682323
H201	H	1.740392	0.792597	1.015657
Cl202	Cl	0.874449	-0.795484	-0.232769
Cl203	Cl	1.207782	-0.462150	0.100564
Cl204	Cl	1.541115	-0.128817	0.433898
Cl205	Cl	0.852188	-0.204658	-0.254927
Cl206	Cl	1.185521	0.128675	0.078407
Cl207	Cl	1.518854	0.462009	0.411740
Cl208	Cl	0.809122	-0.000155	0.295230
Cl209	Cl	1.142455	0.333178	0.628563
Cl210	Cl	1.475788	0.666511	0.961897
Cl211	Cl	0.907490	0.157340	0.447206
Cl212	Cl	1.240823	0.490673	0.780539
Cl213	Cl	1.574157	0.824006	1.113873
H214	H	0.909353	-0.618008	-0.197850
H215	H	1.242687	-0.284674	0.135483
H216	H	1.576020	0.048659	0.468816
Cl217	Cl	0.841529	-0.401448	-0.265604
Cl218	Cl	1.174862	-0.068115	0.067729
Cl219	Cl	1.508196	0.265219	0.401063
H220	H	1.066665	-0.485290	-0.040614
H221	H	1.399998	-0.151957	0.292720
H222	H	1.733332	0.181377	0.626053
