data_functionalizedCrystal
_audit_creation_method	'MofGen! by Chris Wilmer'
_symmetry_space_group_name_H-M	'P1'
_symmetry_Int_Tables_number	1
_symmetry_cell_setting	triclinic
loop_
_symmetry_equiv_pos_as_xyz
  x,y,z
_cell_length_a	14.971496
_cell_length_b	14.971490
_cell_length_c	17.766277
_cell_angle_alpha	90.008057
_cell_angle_beta	89.994547
_cell_angle_gamma	96.383114
loop_
_atom_site_label
_atom_site_type_symbol
_atom_site_fract_x
_atom_site_fract_y
_atom_site_fract_z
O1	O	0.116578	-1.186948	-0.062637
O2	O	0.130533	-0.926549	-0.062629
O3	O	-0.006644	-1.063724	-0.062626
O4	O	0.253755	-1.049774	-0.062639
O5	O	-0.006648	-1.063708	0.062562
O6	O	0.130529	-0.926534	0.062559
O7	O	0.116574	-1.186933	0.062552
Cu8	Cu	0.123552	-1.056732	0.073986
Cu9	Cu	0.123555	-1.056750	-0.074064
O10	O	0.253751	-1.049759	0.062549
C11	C	0.129906	-0.893217	-0.000034
C12	C	0.128034	-0.793920	-0.000031
C13	C	0.119958	-0.366222	-0.068285
C14	C	0.121714	-0.459522	-0.068283
C15	C	0.122597	-0.506160	-0.000041
C16	C	0.121713	-0.459494	0.068204
C17	C	0.119951	-0.366196	0.068201
C18	C	0.125389	-0.653956	0.068205
C19	C	0.127154	-0.747260	0.068209
C20	C	0.127153	-0.747282	-0.068279
C21	C	0.125391	-0.653984	-0.068282
C22	C	0.124509	-0.607324	-0.000037
C23	C	-0.039970	-1.063091	-0.000032
C24	C	-0.139267	-1.061216	-0.000032
C25	C	-0.566969	-1.053157	-0.068291
C26	C	-0.473670	-1.054923	-0.068288
C27	C	-0.427028	-1.055791	-0.000045
C28	C	-0.473692	-1.054903	0.068199
C29	C	-0.566990	-1.053144	0.068195
C30	C	-0.279229	-1.058568	0.068203
C31	C	-0.185924	-1.060326	0.068207
C32	C	-0.185909	-1.060347	-0.068280
C33	C	-0.279207	-1.058587	-0.068284
C34	C	-0.325864	-1.057698	-0.000040
C35	C	0.287077	-1.050392	-0.000047
C36	C	0.386374	-1.052266	-0.000052
C37	C	0.117202	-0.220265	-0.000043
C38	C	0.119078	-0.319562	-0.000046
N39	N	0.123548	-1.056726	0.178117
N40	N	0.123552	-1.056763	-0.178194
C41	C	0.062826	-1.117506	0.782407
C42	C	0.062829	-1.117507	0.703605
C43	C	0.123547	-1.056750	0.664205
C44	C	0.184284	-0.996004	0.703614
C45	C	0.184286	-0.996010	0.782415
C46	C	0.135141	-0.975296	0.539376
C47	C	0.135133	-0.975288	0.460577
C48	C	0.123546	-1.056731	0.421159
C49	C	0.111948	-1.138185	0.460550
C50	C	0.111950	-1.138191	0.539350
C51	C	0.123552	-1.056737	0.578760
C52	C	0.062819	-1.117480	0.296314
C53	C	0.062828	-1.117482	0.217511
C54	C	0.184279	-0.995971	0.217522
C55	C	0.184275	-0.995976	0.296323
C56	C	0.123540	-1.056730	0.335715
H57	H	0.124679	-0.616014	-0.123851
H58	H	0.122426	-0.497474	0.123768
H59	H	0.122426	-0.497510	-0.123851
H60	H	0.102519	-1.204503	0.428458
C61	C	0.128115	-0.798560	0.143279
N62	N	0.128836	-0.837201	0.199823
H63	H	0.127872	-0.785277	-0.123847
H64	H	0.013375	-1.166977	0.814477
H65	H	0.233737	-0.946545	0.814494
H66	H	-0.435710	-1.055616	0.123764
C67	C	0.124421	-0.602631	0.143279
N68	N	0.123697	-0.563973	0.199823
H69	H	-0.147915	-1.061064	-0.123847
H70	H	0.119243	-0.328205	0.123769
C71	C	-0.618268	-1.052211	-0.143365
N72	N	-0.656904	-1.051505	-0.199914
H73	H	0.144582	-0.908971	0.571463
C74	C	-0.422352	-1.055902	-0.143356
N75	N	-0.383700	-1.056640	-0.199901
H76	H	-0.317214	-1.057845	0.123775
H77	H	-0.604977	-1.052418	0.123763
H78	H	-0.317179	-1.057875	-0.123854
C79	C	0.118987	-0.314930	-0.143359
N80	N	0.118250	-0.276299	-0.199907
C81	C	-0.134621	-1.061294	0.143278
N82	N	-0.095981	-1.062028	0.199823
C83	C	-0.003981	-1.184326	0.660257
N84	N	-0.054305	-1.234653	0.627609
H85	H	0.233720	-0.946511	0.328404
C86	C	0.099149	-1.227787	0.582677
N87	N	0.089491	-1.295271	0.615311
C88	C	-0.003979	-1.184307	0.174171
N89	N	-0.054300	-1.234640	0.141528
H90	H	0.013368	-1.166952	0.328388
H91	H	0.233721	-0.946505	0.185443
H92	H	0.144566	-0.908964	0.428511
C93	C	0.251074	-0.929170	0.660274
N94	N	0.301383	-0.878830	0.627629
