data_functionalizedCrystal
_audit_creation_method	'MofGen! by Chris Wilmer'
_symmetry_space_group_name_H-M	'P1'
_symmetry_Int_Tables_number	1
_symmetry_cell_setting	triclinic
loop_
_symmetry_equiv_pos_as_xyz
  x,y,z
_cell_length_a	12.759401
_cell_length_b	18.101395
_cell_length_c	12.759393
_cell_angle_alpha	89.966350
_cell_angle_beta	89.982620
_cell_angle_gamma	90.031265
loop_
_atom_site_label
_atom_site_type_symbol
_atom_site_fract_x
_atom_site_fract_y
_atom_site_fract_z
Zn1	Zn	1.606124	-0.294781	-0.593968
Zn2	Zn	1.605972	-0.418643	-0.418282
Zn3	Zn	1.430429	-0.294820	-0.418307
Zn4	Zn	1.430364	-0.418586	-0.593923
O5	O	1.518222	-0.356708	-0.506120
O6	O	1.753125	-0.311219	-0.570671
O7	O	1.582649	-0.402258	-0.271264
O8	O	1.453827	-0.191182	-0.441638
O9	O	1.753013	-0.402220	-0.441595
O10	O	1.582909	-0.191154	-0.570695
O11	O	1.453679	-0.311286	-0.271283
O12	O	1.283400	-0.311231	-0.441595
O13	O	1.453716	-0.402122	-0.740950
O14	O	1.283352	-0.402160	-0.570619
O15	O	1.582846	-0.311164	-0.740983
O16	O	1.582586	-0.522269	-0.441552
O17	O	1.453568	-0.522226	-0.570595
C18	C	1.245255	-0.356694	-0.506106
C19	C	1.128478	-0.356706	-0.506125
C20	C	1.073619	-0.404129	-0.573197
C21	C	0.963895	-0.404138	-0.573208
C22	C	0.963899	-0.309300	-0.439066
C23	C	1.073621	-0.309287	-0.439061
C24	C	1.073615	-0.458886	-0.650639
C25	C	0.963891	-0.458895	-0.650650
C26	C	1.518082	-0.549118	-0.506089
C27	C	1.518118	-0.631432	-0.506111
C28	C	1.518348	-0.930523	-0.506168
C29	C	1.437362	-0.899202	-0.587559
C30	C	1.436977	-0.813584	-0.587305
C31	C	1.518234	-0.782141	-0.506140
C32	C	1.488255	-0.813301	-0.395415
C33	C	1.487733	-0.898946	-0.395903
C34	C	1.629490	-0.898865	-0.534526
C35	C	1.628837	-0.813213	-0.536954
C36	C	1.518171	-0.698281	-0.506118
C37	C	1.518409	-1.014383	-0.506182
C38	C	1.792256	-0.356722	-0.506135
C39	C	1.909032	-0.356728	-0.506141
C40	C	1.518291	-0.356632	-0.780153
C41	C	1.518320	-0.356600	-0.896930
C42	C	1.518392	-0.163546	-0.506174
C43	C	1.518464	-0.081232	-0.506197
C44	C	1.451193	-0.309222	-0.951808
C45	C	1.451225	-0.309200	-1.061532
C46	C	1.585519	-0.403936	-1.061491
C47	C	1.585481	-0.403961	-0.951769
C48	C	1.373663	-0.254525	-0.951832
C49	C	1.373695	-0.254503	-1.061556
C50	C	1.518215	-0.356729	-0.233153
C51	C	1.518389	-0.356553	-0.116376
H52	H	1.455733	-0.792514	-0.669407
Cl53	Cl	1.574840	-0.930943	-0.299074
H54	H	1.545386	-0.792935	-0.333119
Cl55	Cl	1.119653	-0.435272	-0.776322
Cl56	Cl	1.407264	-0.165911	-1.107573
H57	H	1.656821	-0.920406	-0.613890
H58	H	0.919221	-0.270692	-0.384467
H59	H	1.355482	-0.920790	-0.569012
Cl60	Cl	1.364146	-0.780294	-0.357659
H61	H	1.118284	-0.270666	-0.384452
Cl62	Cl	1.669944	-0.463473	-1.130439
Cl63	Cl	1.126106	-0.542983	-0.605523
Cl64	Cl	1.248001	-0.278241	-0.905849
Cl65	Cl	1.722652	-0.930151	-0.443019
Cl66	Cl	0.911403	-0.427287	-0.770073
H67	H	0.934073	-0.516237	-0.628715
Cl68	Cl	1.663745	-0.781765	-0.662765
Cl69	Cl	1.669859	-0.463533	-0.882783
H70	H	1.692368	-0.791805	-0.481993
H71	H	1.354596	-0.793163	-0.568521
H72	H	1.402850	-0.200053	-0.917819
Cl73	Cl	1.254354	-0.286213	-1.114098
H74	H	1.455932	-0.919744	-0.669927
Cl75	Cl	1.362299	-0.929897	-0.358815
