data_functionalizedCrystal
_audit_creation_method	'MofGen! by Chris Wilmer'
_symmetry_space_group_name_H-M	'P1'
_symmetry_Int_Tables_number	1
_symmetry_cell_setting	triclinic
loop_
_symmetry_equiv_pos_as_xyz
  x,y,z
_cell_length_a	6.817900
_cell_length_b	14.125465
_cell_length_c	12.200722
_cell_angle_alpha	94.993976
_cell_angle_beta	107.140920
_cell_angle_gamma	100.398878
loop_
_atom_site_label
_atom_site_type_symbol
_atom_site_fract_x
_atom_site_fract_y
_atom_site_fract_z
V1	V	-4.009703	-0.300078	-0.157727
O2	O	-3.978506	-0.294261	0.008593
O3	O	-3.979643	-0.298127	-0.313722
O4	O	-3.945510	-0.430906	-0.154856
O5	O	-4.012876	-0.160562	-0.151372
V6	V	-4.493001	-0.283378	-0.137886
O7	O	-4.271455	-0.336710	-0.201251
O8	O	-4.681446	-0.246747	-0.094362
O9	O	-4.299854	-0.285330	0.018109
O10	O	-4.641594	-0.289196	-0.304206
O11	O	-4.607225	-0.422894	-0.144241
O12	O	-4.333987	-0.152550	-0.140757
C13	C	-3.829616	-0.293419	-0.351764
C14	C	-3.886221	-0.292696	-0.479288
C15	C	-3.932184	-0.292099	-0.582851
C16	C	-3.989867	-0.291356	-0.712776
C17	C	-3.786076	-0.462791	-0.149113
C18	C	-3.814996	-0.569744	-0.147798
C19	C	-3.868005	-0.765566	-0.145386
C20	C	-4.054067	-0.817890	-0.150225
C21	C	-4.083564	-0.926852	-0.148882
C22	C	-3.838500	-0.656594	-0.146728
C23	C	-4.113223	-0.290035	0.056145
C24	C	-4.035857	-0.290764	0.183668
C25	C	-4.156764	-0.120660	-0.146503
C26	C	-4.107082	-0.013706	-0.147813
H27	H	-3.730878	-0.802600	-0.140238
H28	H	-4.191212	-0.780855	-0.155386
