data_functionalizedCrystal
_audit_creation_method	'MofGen! by Chris Wilmer'
_symmetry_space_group_name_H-M	'P1'
_symmetry_Int_Tables_number	1
_symmetry_cell_setting	triclinic
loop_
_symmetry_equiv_pos_as_xyz
  x,y,z
_cell_length_a	11.792241
_cell_length_b	8.559649
_cell_length_c	7.088929
_cell_angle_alpha	95.324765
_cell_angle_beta	83.733449
_cell_angle_gamma	76.986040
loop_
_atom_site_label
_atom_site_type_symbol
_atom_site_fract_x
_atom_site_fract_y
_atom_site_fract_z
O1	O	-0.025389	2.103507	-0.158968
O2	O	0.474611	2.603507	0.341032
O3	O	0.033182	1.638810	-0.158976
O4	O	0.533182	2.138810	0.341024
O5	O	-0.162307	1.882437	-0.158958
O6	O	0.337693	2.382437	0.341042
O7	O	0.170101	1.859880	-0.158986
O8	O	0.670101	2.359880	0.341014
O9	O	-0.188485	1.914995	0.159019
O10	O	0.311515	2.414995	0.659019
O11	O	0.007004	1.671368	0.159001
O12	O	0.507004	2.171368	0.659001
O13	O	-0.051567	2.136065	0.159010
O14	O	0.448433	2.636065	0.659010
Cu15	Cu	-0.024671	1.906689	0.188039
Cu16	Cu	0.475329	2.406689	0.688039
Cu17	Cu	0.006287	1.868186	-0.188006
Cu18	Cu	0.506287	2.368186	0.311994
O19	O	0.143923	1.892438	0.158992
O20	O	0.643923	2.392438	0.658992
C21	C	0.024532	1.595597	0.000011
C22	C	0.524532	2.095597	0.500011
C23	C	0.037744	1.418331	0.000008
C24	C	0.537744	1.918331	0.500008
C25	C	-0.217557	1.897299	0.000030
C26	C	0.282443	2.397299	0.500030
C27	C	-0.343183	1.893058	0.000028
C28	C	0.156817	2.393058	0.500028
N29	N	-0.046448	1.933782	0.452529
N30	N	0.453552	2.433782	0.952529
C31	C	-0.573179	1.885258	-0.000004
C32	C	-0.073179	2.385258	0.499996
C33	C	-0.445191	1.889592	0.000013
C34	C	0.054809	2.389592	0.500013
C35	C	0.199173	1.877576	-0.000000
C36	C	0.699173	2.377576	0.500000
C37	C	0.324800	1.881815	-0.000011
C38	C	0.824800	2.381815	0.499989
C39	C	-0.042916	2.179277	0.000018
C40	C	0.457084	2.679277	0.500018
C41	C	-0.056128	2.356542	0.000008
C42	C	0.443872	2.856542	0.500008
N43	N	0.028053	1.841106	-0.452496
N44	N	0.528053	2.341106	0.047504
H45	H	-0.146609	2.439264	0.000011
H46	H	0.353391	2.939264	0.500011
H47	H	0.105258	1.745057	0.465851
H48	H	0.605258	2.245057	0.965851
H49	H	0.128222	2.335616	-0.000013
H50	H	0.628222	2.835616	0.499987
H51	H	-0.123650	2.029849	0.534193
H52	H	0.376350	2.529849	1.034193
