data_functionalizedCrystal
_audit_creation_method	'MofGen! by Chris Wilmer'
_symmetry_space_group_name_H-M	'P1'
_symmetry_Int_Tables_number	1
_symmetry_cell_setting	triclinic
loop_
_symmetry_equiv_pos_as_xyz
  x,y,z
_cell_length_a	15.995292
_cell_length_b	15.995350
_cell_length_c	13.101039
_cell_angle_alpha	93.364563
_cell_angle_beta	86.641931
_cell_angle_gamma	83.480495
loop_
_atom_site_label
_atom_site_type_symbol
_atom_site_fract_x
_atom_site_fract_y
_atom_site_fract_z
O1	O	1.115623	0.103071	-0.085238
O2	O	1.448957	0.436405	0.248096
O3	O	1.782290	0.769738	0.581429
O4	O	0.871841	0.116450	-0.085233
O5	O	1.205175	0.449783	0.248100
O6	O	1.538508	0.783117	0.581434
O7	O	1.000396	-0.012128	-0.085234
O8	O	1.333730	0.321205	0.248099
O9	O	1.667063	0.654538	0.581432
O10	O	0.987068	0.231650	-0.085236
O11	O	1.320402	0.564983	0.248097
O12	O	1.653735	0.898316	0.581431
O13	O	0.991173	-0.002888	0.085196
O14	O	1.324506	0.330446	0.418529
O15	O	1.657839	0.663779	0.751862
O16	O	0.862618	0.125690	0.085197
O17	O	1.195951	0.459024	0.418530
O18	O	1.529284	0.792357	0.751864
O19	O	1.106400	0.112312	0.085192
O20	O	1.439733	0.445645	0.418526
O21	O	1.773066	0.778979	0.751859
Zn22	Zn	0.983044	0.120468	0.112254
Zn23	Zn	1.316378	0.453802	0.445588
Zn24	Zn	1.649711	0.787135	0.778921
Zn25	Zn	0.995197	0.108293	-0.112295
Zn26	Zn	1.328530	0.441627	0.221039
Zn27	Zn	1.661863	0.774960	0.554372
O28	O	0.977845	0.240890	0.085194
O29	O	1.311178	0.574223	0.418527
O30	O	1.644511	0.907557	0.751861
C31	C	0.836034	0.120526	-0.000017
C32	C	1.169367	0.453859	0.333316
C33	C	1.502700	0.787192	0.666649
C34	C	0.743081	0.118893	-0.000016
C35	C	1.076414	0.452227	0.333318
C36	C	1.409747	0.785560	0.666651
C37	C	0.995233	-0.038703	-0.000021
C38	C	1.328567	0.294630	0.333312
C39	C	1.661900	0.627964	0.666645
C40	C	0.993582	-0.131653	-0.000027
C41	C	1.326915	0.201680	0.333306
C42	C	1.660249	0.535013	0.666640
C43	C	0.405343	0.112892	-0.000027
C44	C	0.738676	0.446225	0.333306
C45	C	1.072010	0.779558	0.666639
C46	C	0.428676	0.205675	-0.000408
C47	C	0.762009	0.539009	0.332925
C48	C	1.095343	0.872342	0.666258
C49	C	0.525330	0.207460	-0.000020
C50	C	0.858664	0.540793	0.333313
C51	C	1.191997	0.874127	0.666647
C52	C	0.572899	0.115870	-0.000022
C53	C	0.906232	0.449203	0.333311
C54	C	1.239565	0.782536	0.666645
C55	C	0.538530	0.074749	0.097299
C56	C	0.871863	0.408082	0.430632
C57	C	1.205196	0.741415	0.763965
C58	C	0.441735	0.073636	0.097376
C59	C	0.775068	0.406969	0.430709
C60	C	1.108402	0.740302	0.764042
C61	C	0.452369	0.061232	-0.096435
C62	C	0.785702	0.394565	0.236898
C63	C	1.119035	0.727899	0.570232
C64	C	0.548931	0.064602	-0.097717
C65	C	0.882264	0.397935	0.235616
C66	C	1.215597	0.731268	0.568950
C67	C	0.667594	0.117548	-0.000016
C68	C	1.000928	0.450881	0.333318
C69	C	1.334261	0.784215	0.666651
C70	C	0.310647	0.111211	-0.000027
C71	C	0.643980	0.444544	0.333307
C72	C	0.977314	0.777877	0.666640
C73	C	0.987649	-0.469399	-0.000024
C74	C	1.320983	-0.136066	0.333310
C75	C	1.654316	0.197267	0.666643
C76	C	0.896115	-0.421967	-0.000404
C77	C	1.229449	-0.088633	0.332929
C78	C	1.562782	0.244700	0.666263
C79	C	0.897747	-0.325256	-0.000020
C80	C	1.231080	0.008077	0.333313
C81	C	1.564414	0.341411	0.666647
C82	C	0.990592	-0.301839	-0.000026
C83	C	1.323925	0.031494	0.333307
C84	C	1.657259	0.364827	0.666641
C85	C	1.030483	-0.337650	0.097295
C86	C	1.363816	-0.004316	0.430629
C87	C	1.697150	0.329017	0.763962
C88	C	1.028179	-0.434281	0.097377
C89	C	1.361512	-0.100947	0.430710
C90	C	1.694845	0.232386	0.764044
C91	C	1.040559	-0.445147	-0.096434
C92	C	1.373892	-0.111814	0.236899
C93	C	1.707226	0.221519	0.570233
C94	C	1.040607	-0.348272	-0.097720
C95	C	1.373940	-0.014938	0.235613
C96	C	1.707273	0.318395	0.568947
C97	C	0.992260	-0.207142	-0.000024
C98	C	1.325593	0.126191	0.333310
C99	C	1.658927	0.459524	0.666643
C100	C	0.985984	-0.564096	-0.000019
C101	C	1.319317	-0.230763	0.333315
C102	C	1.652651	0.102570	0.666648
C103	C	1.142207	0.108236	-0.000025
C104	C	1.475541	0.441569	0.333308
C105	C	1.808874	0.774903	0.666641
C106	C	1.235161	0.109868	-0.000034
C107	C	1.568494	0.443201	0.333300
C108	C	1.901827	0.776535	0.666633
C109	C	0.983008	0.267464	-0.000021
C110	C	1.316341	0.600798	0.333312
C111	C	1.649674	0.934131	0.666645
C112	C	0.984660	0.360414	-0.000022
C113	C	1.317993	0.693748	0.333311
C114	C	1.651326	1.027081	0.666644
N115	N	0.974756	0.128777	0.265503
N116	N	1.308090	0.462110	0.598836
N117	N	1.641423	0.795443	0.932169
N118	N	1.003491	0.099978	-0.265543
N119	N	1.336824	0.433312	0.067790
N120	N	1.670158	0.766645	0.401123
C121	C	0.963481	0.140089	0.474546
C122	C	1.296814	0.473422	0.807879
C123	C	1.630147	0.806755	1.141212
C124	C	1.014764	0.088669	0.525421
C125	C	1.348097	0.422003	0.858754
C126	C	1.681431	0.755336	1.192087
C127	C	1.008490	0.094963	0.641739
C128	C	1.341823	0.428297	0.975072
C129	C	1.675157	0.761630	1.308406
C130	C	0.969754	0.133796	0.358217
C131	C	1.303087	0.467129	0.691550
C132	C	1.636420	0.800462	1.024883
H133	H	0.548133	0.240010	-0.069786
H134	H	0.881466	0.573343	0.263548
H135	H	1.214799	0.906676	0.596881
H136	H	0.914867	0.188834	0.518343
H137	H	1.248201	0.522168	0.851677
H138	H	1.581534	0.855501	1.185010
Cl139	Cl	0.563443	0.130556	0.209124
Cl140	Cl	0.896776	0.463889	0.542458
Cl141	Cl	1.230109	0.797223	0.875791
H142	H	1.063382	0.039922	0.481618
H143	H	1.396715	0.373255	0.814951
H144	H	1.730048	0.706588	1.148284
Cl145	Cl	0.583655	0.110703	-0.208880
Cl146	Cl	0.916988	0.444037	0.124453
Cl147	Cl	1.250322	0.777370	0.457787
H148	H	0.404457	0.237662	-0.070202
H149	H	0.737790	0.570995	0.263131
H150	H	1.071124	0.904329	0.596465
H151	H	1.011487	-0.324920	-0.169716
H152	H	1.344820	0.008414	0.163618
H153	H	1.678154	0.341747	0.496951
Cl154	Cl	0.378075	0.266411	0.106738
Cl155	Cl	0.711408	0.599744	0.440071
Cl156	Cl	1.044741	0.933078	0.773405
H157	H	0.410981	0.109713	0.170127
H158	H	0.744314	0.443047	0.503460
H159	H	1.077647	0.776380	0.836793
Cl160	Cl	0.547912	0.269743	0.107878
Cl161	Cl	0.881245	0.603077	0.441211
Cl162	Cl	1.214578	0.936410	0.774545
H163	H	1.098498	-0.323342	0.100910
H164	H	1.431831	0.009991	0.434244
H165	H	1.765165	0.343324	0.767577
Cl166	Cl	0.418893	-0.031041	0.104260
Cl167	Cl	0.752226	0.302293	0.437593
Cl168	Cl	1.085560	0.635626	0.770926
H169	H	0.570202	0.007546	0.100916
H170	H	0.903536	0.340880	0.434249
H171	H	1.236869	0.674213	0.767582
H172	H	0.582219	-0.002569	-0.103597
H173	H	0.915552	0.330765	0.229737
H174	H	1.248885	0.664098	0.563070
H175	H	0.855928	-0.437790	0.068999
H176	H	1.189262	-0.104457	0.402333
H177	H	1.522595	0.228876	0.735666
Cl178	Cl	0.414810	0.099853	-0.210322
Cl179	Cl	0.748143	0.433186	0.123012
Cl180	Cl	1.081477	0.766519	0.456345
H181	H	0.438411	-0.007114	-0.097095
H182	H	0.771744	0.326220	0.236239
H183	H	1.105078	0.659553	0.569572
H184	H	0.863299	-0.444275	-0.070195
H185	H	1.196632	-0.110942	0.263139
H186	H	1.529966	0.222392	0.596472
Cl187	Cl	0.848770	-0.287199	-0.107728
Cl188	Cl	1.182103	0.046134	0.225605
Cl189	Cl	1.515437	0.379468	0.558938
H190	H	0.858229	-0.293595	0.069864
H191	H	1.191562	0.039739	0.403197
H192	H	1.524896	0.373072	0.736531
H193	H	0.991312	-0.448630	0.170130
H194	H	1.324645	-0.115297	0.503463
H195	H	1.657979	0.218036	0.836797
Cl196	Cl	1.131585	-0.483724	0.104203
Cl197	Cl	1.464918	-0.150391	0.437536
Cl198	Cl	1.798251	0.182942	0.770869
Cl199	Cl	0.976008	-0.287763	0.209121
Cl200	Cl	1.309341	0.045571	0.542454
Cl201	Cl	1.642674	0.378904	0.875787
Cl202	Cl	1.000499	-0.483011	-0.210321
Cl203	Cl	1.333832	-0.149677	0.123012
Cl204	Cl	1.667166	0.183656	0.456346
Cl205	Cl	1.144831	-0.494262	-0.097454
Cl206	Cl	1.478165	-0.160929	0.235879
Cl207	Cl	1.811498	0.172405	0.569213
Cl208	Cl	1.145633	-0.325066	-0.106807
Cl209	Cl	1.478966	0.008268	0.226526
Cl210	Cl	1.812299	0.341601	0.559860
