data_functionalizedCrystal
_audit_creation_method	'MofGen! by Chris Wilmer'
_symmetry_space_group_name_H-M	'P1'
_symmetry_Int_Tables_number	1
_symmetry_cell_setting	triclinic
loop_
_symmetry_equiv_pos_as_xyz
  x,y,z
_cell_length_a	17.077404
_cell_length_b	18.050590
_cell_length_c	17.077396
_cell_angle_alpha	89.970225
_cell_angle_beta	89.981638
_cell_angle_gamma	90.016523
loop_
_atom_site_label
_atom_site_type_symbol
_atom_site_fract_x
_atom_site_fract_y
_atom_site_fract_z
Zn1	Zn	1.200078	-0.295700	-0.443812
Zn2	Zn	1.700078	0.204300	0.056188
Zn3	Zn	1.199995	-0.419897	-0.312543
Zn4	Zn	1.699995	0.080103	0.187457
Zn5	Zn	1.068810	-0.295721	-0.312562
Zn6	Zn	1.568810	0.204279	0.187438
Zn7	Zn	1.068788	-0.419848	-0.443769
Zn8	Zn	1.568788	0.080152	0.056231
O9	O	1.134418	-0.357791	-0.378171
O10	O	1.634418	0.142209	0.121829
O11	O	1.309914	-0.312186	-0.426408
O12	O	1.809914	0.187814	0.073592
O13	O	1.182568	-0.403454	-0.202698
O14	O	1.682568	0.096546	0.297302
O15	O	1.086267	-0.191793	-0.329999
O16	O	1.586267	0.308207	0.170001
O17	O	1.309853	-0.403433	-0.329966
O18	O	1.809853	0.096567	0.170034
O19	O	1.182709	-0.191778	-0.426427
O20	O	1.682709	0.308222	0.073573
O21	O	1.086187	-0.312222	-0.202713
O22	O	1.586187	0.187778	0.297287
O23	O	0.958960	-0.312175	-0.329957
O24	O	1.458960	0.187825	0.170043
O25	O	1.086229	-0.403350	-0.553622
O26	O	1.586229	0.096650	-0.053622
O27	O	0.958944	-0.403371	-0.426354
O28	O	1.458944	0.096629	0.073646
O29	O	1.182688	-0.312139	-0.553653
O30	O	1.682688	0.187861	-0.053653
O31	O	1.182546	-0.523815	-0.329924
O32	O	1.682546	-0.023815	0.170076
O33	O	1.086149	-0.523779	-0.426336
O34	O	1.586149	-0.023779	0.073664
C35	C	0.930470	-0.357770	-0.378154
C36	C	1.430470	0.142230	0.121846
C37	C	0.843220	-0.357779	-0.378165
C38	C	1.343220	0.142221	0.121835
C39	C	0.802263	-0.310351	-0.428459
C40	C	1.302263	0.189649	0.071541
C41	C	0.720282	-0.310356	-0.428463
C42	C	1.220282	0.189644	0.071537
C43	C	0.679261	-0.357793	-0.378176
C44	C	1.179261	0.142207	0.121824
C45	C	0.720224	-0.405223	-0.327876
C46	C	1.220224	0.094777	0.172124
C47	C	0.802203	-0.405214	-0.327869
C48	C	1.302203	0.094786	0.172131
C49	C	0.549354	-0.405240	-0.327895
C50	C	1.049354	0.094760	0.172105
C51	C	0.467370	-0.405250	-0.327903
C52	C	0.967370	0.094750	0.172097
C53	C	0.467433	-0.310382	-0.428489
C54	C	0.967433	0.189618	0.071511
C55	C	0.549412	-0.310373	-0.428482
C56	C	1.049412	0.189627	0.071518
C57	C	0.590370	-0.357804	-0.378183
C58	C	1.090370	0.142196	0.121817
C59	C	1.134358	-0.550743	-0.378140
C60	C	1.634358	-0.050743	0.121860
C61	C	1.134404	-0.633289	-0.378153
C62	C	1.634404	-0.133289	0.121847
C63	C	1.186934	-0.832732	-0.325798
C64	C	1.686934	-0.332732	0.174202
C65	C	1.206108	-0.882064	-0.397440
C66	C	1.706108	-0.382064	0.102560
C67	C	1.134448	-0.784420	-0.378184
C68	C	1.634448	-0.284420	0.121816
C69	C	1.115353	-0.882170	-0.306574
C70	C	1.615353	-0.382170	0.193426
C71	C	1.134493	-0.930405	-0.378208
C72	C	1.634493	-0.430405	0.121792
C73	C	1.153660	-0.832664	-0.449864
C74	C	1.653660	-0.332664	0.050136
C75	C	1.062871	-0.832765	-0.358950
C76	C	1.562871	-0.332765	0.141050
C77	C	1.082019	-0.882074	-0.430642
C78	C	1.582019	-0.382074	0.069358
C79	C	1.134424	-0.700321	-0.378170
C80	C	1.634424	-0.200321	0.121830
C81	C	1.134516	-1.014501	-0.378231
C82	C	1.634516	-0.514501	0.121769
C83	C	1.339162	-0.357813	-0.378190
C84	C	1.839162	0.142187	0.121810
C85	C	1.426412	-0.357822	-0.378197
C86	C	1.926412	0.142178	0.121803
C87	C	1.134465	-0.357737	-0.582916
C88	C	1.634465	0.142263	-0.082916
C89	C	1.134486	-0.357713	-0.670166
C90	C	1.634486	0.142287	-0.170166
C91	C	1.134500	-0.164086	-0.378220
C92	C	1.634500	0.335914	0.121780
C93	C	1.134535	-0.081540	-0.378241
C94	C	1.634535	0.418460	0.121759
C95	C	1.184713	-0.310216	-0.711173
C96	C	1.684713	0.189784	-0.211173
C97	C	1.184723	-0.310191	-0.793154
C98	C	1.684723	0.189809	-0.293154
C99	C	1.134508	-0.357668	-0.834125
C100	C	1.634508	0.142332	-0.334125
C101	C	1.084275	-0.405168	-0.793112
C102	C	1.584275	0.094832	-0.293112
C103	C	1.084262	-0.405188	-0.711133
C104	C	1.584262	0.094812	-0.211133
C105	C	1.084306	-0.405123	-0.963982
C106	C	1.584306	0.094877	-0.463982
C107	C	1.084320	-0.405104	-1.045966
C108	C	1.584320	0.094896	-0.545966
C109	C	1.184767	-0.310126	-1.046003
C110	C	1.684767	0.189874	-0.546003
C111	C	1.184754	-0.310146	-0.964024
C112	C	1.684754	0.189854	-0.464024
C113	C	1.134522	-0.357647	-0.923016
C114	C	1.634522	0.142353	-0.423016
C115	C	1.134416	-0.357792	-0.174224
C116	C	1.634416	0.142208	0.325776
C117	C	1.134548	-0.357606	-0.086974
C118	C	1.634548	0.142394	0.413026
H119	H	0.582699	-0.443862	-0.286934
H120	H	1.082699	0.056138	0.213066
H121	H	0.433972	-0.443878	-0.286955
H122	H	0.933972	0.056122	0.213045
H123	H	0.686818	-0.443843	-0.286927
H124	H	1.186818	0.056157	0.213073
H125	H	0.835656	-0.271724	-0.469411
H126	H	1.335656	0.228276	0.030589
O127	O	1.286313	-0.910750	-0.419014
O128	O	1.786313	-0.410750	0.080986
H129	H	1.285451	-0.972234	-0.419381
H130	H	1.785451	-0.472234	0.080619
O131	O	1.023245	-0.910595	-0.489398
O132	O	1.523245	-0.410595	0.010602
H133	H	1.053736	-0.945171	-0.533642
H134	H	1.553736	-0.445171	-0.033642
H135	H	1.231334	-0.811066	-0.281542
H136	H	1.731334	-0.311066	0.218458
H137	H	0.434081	-0.271760	-0.469443
H138	H	0.934081	0.228240	0.030557
H139	H	0.835550	-0.443834	-0.286913
H140	H	1.335550	0.056166	0.213087
H141	H	1.169769	-0.811011	-0.510486
H142	H	1.669769	-0.311011	-0.010486
O143	O	0.982693	-0.804042	-0.337356
O144	O	1.482693	-0.304042	0.162644
H145	H	0.966955	-0.823832	-0.277848
H146	H	1.466955	-0.323832	0.222152
O147	O	1.093803	-0.910902	-0.226351
O148	O	1.593803	-0.410902	0.273649
H149	H	1.093413	-0.972387	-0.227167
H150	H	1.593413	-0.472387	0.272833
H151	H	1.225607	-0.271556	-0.677821
H152	H	1.725607	0.228444	-0.177821
H153	H	1.225625	-0.271515	-0.826539
H154	H	1.725625	0.228485	-0.326539
O155	O	1.030078	-0.456407	-0.666896
O156	O	1.530078	0.043593	-0.166896
H157	H	0.995162	-0.489419	-0.709157
H158	H	1.495162	0.010581	-0.209157
H159	H	1.225648	-0.271490	-0.930668
H160	H	1.725648	0.228510	-0.430668
O161	O	1.238942	-0.258883	-1.090226
O162	O	1.738942	0.241117	-0.590226
H163	H	1.230508	-0.266835	-1.154114
H164	H	1.730508	0.233165	-0.654114
H165	H	0.686938	-0.271737	-0.469419
H166	H	1.186938	0.228263	0.030581
H167	H	1.043429	-0.443762	-1.079323
H168	H	1.543429	0.056238	-0.579323
O169	O	1.030123	-0.456350	-0.919747
O170	O	1.530123	0.043650	-0.419747
H171	H	0.995211	-0.489365	-0.962008
H172	H	1.495211	0.010635	-0.462008
H173	H	1.043386	-0.443822	-0.826477
H174	H	1.543386	0.056178	-0.326477
H175	H	0.582809	-0.271750	-0.469435
H176	H	1.082809	0.228250	0.030565
