data_functionalizedCrystal
_audit_creation_method	'MofGen! by Chris Wilmer'
_symmetry_space_group_name_H-M	'P1'
_symmetry_Int_Tables_number	1
_symmetry_cell_setting	triclinic
loop_
_symmetry_equiv_pos_as_xyz
  x,y,z
_cell_length_a	19.188930
_cell_length_b	19.188905
_cell_length_c	18.266242
_cell_angle_alpha	89.983837
_cell_angle_beta	89.988525
_cell_angle_gamma	83.139668
loop_
_atom_site_label
_atom_site_type_symbol
_atom_site_fract_x
_atom_site_fract_y
_atom_site_fract_z
O1	O	0.087085	0.926160	-0.061010
O2	O	0.098838	0.722847	-0.060986
O3	O	-0.008694	0.830371	-0.060984
O4	O	0.194618	0.818636	-0.061011
O5	O	-0.008700	0.830353	0.060778
O6	O	0.098833	0.722828	0.060776
O7	O	0.087080	0.926142	0.060752
Zn8	Zn	0.092955	0.824482	0.080097
Zn9	Zn	0.092963	0.824506	-0.080330
O10	O	0.194612	0.818618	0.060751
C11	C	0.098458	0.696826	-0.000102
C12	C	0.097324	0.619321	-0.000092
C13	C	0.096782	0.582939	-0.066466
C14	C	0.095709	0.510115	-0.066475
C15	C	0.095164	0.473678	-0.000106
C16	C	0.095709	0.510068	0.066277
C17	C	0.096789	0.582890	0.066284
N18	N	0.053733	0.364651	0.049292
N19	N	0.052705	0.295474	0.049280
C20	C	0.091911	0.254272	-0.000123
N21	N	0.132174	0.284861	-0.049526
N22	N	0.133199	0.354045	-0.049517
C23	C	0.093993	0.394716	-0.000106
C24	C	0.090207	0.138926	-0.066512
C25	C	0.089138	0.066100	-0.066518
C26	C	0.089132	0.066056	0.066236
C27	C	0.090207	0.138879	0.066240
C28	C	0.090742	0.175310	-0.000136
C29	C	-0.034708	0.829982	-0.000101
C30	C	-0.112213	0.828841	-0.000095
C31	C	-0.157142	0.891933	-0.000099
C32	C	-0.229966	0.890861	-0.000110
C33	C	-0.257857	0.826694	-0.000103
C34	C	-0.212917	0.763594	-0.000103
C35	C	-0.140095	0.764668	-0.000099
N36	N	-0.365859	0.777640	0.041341
N37	N	-0.435038	0.776624	0.041338
C38	C	-0.477265	0.823456	-0.000118
N39	N	-0.447702	0.871352	-0.041561
N40	N	-0.378517	0.872369	-0.041556
C41	C	-0.336819	0.825523	-0.000108
C42	C	-0.601159	0.885390	-0.000135
C43	C	-0.673984	0.884315	-0.000151
C44	C	-0.656933	0.757047	-0.000137
C45	C	-0.584110	0.758123	-0.000128
C46	C	-0.556228	0.822296	-0.000124
C47	C	0.220626	0.819007	-0.000134
C48	C	0.298131	0.820148	-0.000145
C49	C	0.087460	0.952163	-0.000134
C50	C	0.088594	1.029668	-0.000148
N51	N	0.092950	0.824471	0.189583
N52	N	0.092962	0.824523	-0.189817
C53	C	0.045358	0.872098	0.227893
C54	C	0.045355	0.872103	0.304538
C55	C	0.092956	0.824487	0.342870
C56	C	0.140551	0.776851	0.304552
C57	C	0.140549	0.776843	0.227908
N58	N	0.154764	0.815411	0.463195
N59	N	0.154764	0.815423	0.536003
C60	C	0.092966	0.824506	0.573793
N61	N	0.031165	0.833592	0.536024
N62	N	0.031165	0.833584	0.463209
C63	C	0.092963	0.824490	0.425977
C64	C	0.045366	0.872141	0.695210
C65	C	0.045362	0.872141	0.771856
C66	C	0.140565	0.776892	0.771868
C67	C	0.140563	0.776889	0.695223
C68	C	0.092964	0.824517	0.656898
H69	H	0.090644	0.168502	0.120290
O70	O	0.088582	0.026711	0.137792
H71	H	0.041226	0.047007	0.169675
O72	O	-0.005968	0.923522	0.813174
H73	H	-0.060378	0.914810	0.798475
H74	H	0.095267	0.480396	0.120315
H75	H	-0.547527	0.706747	-0.000121
H76	H	0.097231	0.612511	0.120336
O77	O	-0.127066	0.961145	-0.000114
H78	H	-0.170548	1.004837	-0.000130
O79	O	-0.278440	0.958911	-0.000104
H80	H	-0.246817	1.003714	-0.000095
H81	H	-0.235631	0.711349	-0.000099
H82	H	0.097218	0.612597	-0.120515
H83	H	-0.710565	0.935694	-0.000158
H84	H	-0.679641	0.704801	-0.000135
O85	O	-0.005987	0.923457	0.186555
H86	H	-0.039087	0.956571	0.226076
H87	H	0.095269	0.480487	-0.120527
O88	O	0.191910	0.725533	0.813199
H89	H	0.183920	0.733542	0.872931
H90	H	0.006598	0.910888	0.335735
H91	H	0.179308	0.738080	0.335766
H92	H	0.179304	0.738058	0.196716
H93	H	0.006606	0.910921	0.664004
H94	H	-0.103513	0.713289	-0.000096
H95	H	-0.578456	0.937644	-0.000135
O96	O	0.090789	0.178232	-0.138095
H97	H	0.138165	0.157900	-0.169929
O98	O	0.088530	0.026857	-0.138111
H99	H	0.089067	0.064430	-0.184261
O100	O	0.191902	0.725527	0.653895
H101	H	0.225007	0.692421	0.693424
