data_functionalizedCrystal
_audit_creation_method	'MofGen! by Chris Wilmer'
_symmetry_space_group_name_H-M	'P1'
_symmetry_Int_Tables_number	1
_symmetry_cell_setting	triclinic
loop_
_symmetry_equiv_pos_as_xyz
  x,y,z
_cell_length_a	33.428889
_cell_length_b	33.428139
_cell_length_c	33.424847
_cell_angle_alpha	60.004234
_cell_angle_beta	60.008465
_cell_angle_gamma	59.994972
loop_
_atom_site_label
_atom_site_type_symbol
_atom_site_fract_x
_atom_site_fract_y
_atom_site_fract_z
O1	O	0.055565	-0.584504	0.488714
O2	O	0.020982	-0.455083	0.393778
O3	O	0.102943	-0.536959	0.393689
O4	O	-0.026396	-0.502628	0.488803
O5	O	0.130140	-0.509767	0.420792
O6	O	0.048179	-0.427891	0.420881
O7	O	0.082762	-0.557312	0.515817
Cu8	Cu	0.067954	-0.490119	0.470823
Cu9	Cu	0.035790	-0.522276	0.438771
O10	O	0.000801	-0.475436	0.515906
N11	N	0.090577	-0.467504	0.493370
N12	N	0.013171	-0.544895	0.416225
C13	C	0.143377	-0.280390	0.546067
C14	C	0.143515	-0.414755	0.680369
C15	C	0.143392	-0.414735	0.546069
C16	C	0.277766	-0.414702	0.545966
C17	C	0.158177	-0.324719	0.560828
C18	C	0.158255	-0.399967	0.636038
C19	C	0.233434	-0.399936	0.560773
C20	C	0.158186	-0.399955	0.560829
C21	C	0.124540	-0.223964	0.527278
C22	C	0.124565	-0.433545	0.527281
C23	C	0.177014	-0.381145	0.579617
C24	C	0.359814	-0.400540	0.502735
C25	C	0.411105	-0.417624	0.485606
C26	C	0.411136	-0.500620	0.517255
C27	C	0.359845	-0.483534	0.534385
C28	C	0.136887	-0.198305	0.476855
C29	C	0.119761	-0.147011	0.459777
C30	C	0.077945	-0.147038	0.543547
C31	C	0.095072	-0.198332	0.560625
C32	C	0.074134	-0.421169	0.539710
C33	C	0.057023	-0.438269	0.522625
C34	C	0.140770	-0.480120	0.480694
C35	C	0.157883	-0.463020	0.497773
C36	C	0.074339	-0.421208	0.762475
C37	C	0.057288	-0.438323	0.813768
C38	C	0.141075	-0.480183	0.813699
C39	C	0.158125	-0.463069	0.762404
C40	C	0.124756	-0.433580	0.736794
C41	C	0.334186	-0.433494	0.527123
C42	C	-0.173769	-0.597444	0.363037
C43	C	-0.039302	-0.597595	0.228856
C44	C	-0.039496	-0.597587	0.363300
C45	C	-0.039512	-0.731889	0.363237
C46	C	-0.129442	-0.612265	0.348329
C47	C	-0.054138	-0.612351	0.273187
C48	C	-0.054257	-0.687554	0.348440
C49	C	-0.054247	-0.612346	0.348477
C50	C	-0.230191	-0.578579	0.381758
C51	C	-0.020722	-0.578803	0.382168
C52	C	-0.073020	-0.631130	0.329609
C53	C	-0.053713	-0.813916	0.406386
C54	C	-0.036654	-0.865210	0.423504
C55	C	0.046338	-0.865293	0.391984
C56	C	0.029278	-0.813999	0.374865
C57	C	-0.255900	-0.590938	0.432169
C58	C	-0.307191	-0.573786	0.449185
C59	C	-0.307060	-0.531922	0.365377
C60	C	-0.255769	-0.549074	0.348360
C61	C	-0.033081	-0.528377	0.369764
C62	C	-0.016014	-0.511306	0.386922
C63	C	0.025770	-0.595083	0.428877
C64	C	0.008703	-0.612156	0.411725
C65	C	-0.032755	-0.528393	0.146761
C66	C	-0.015585	-0.511324	0.095468
C67	C	0.026262	-0.595106	0.095516
C68	C	0.009094	-0.612174	0.146811
C69	C	-0.020417	-0.578816	0.172432
C70	C	-0.020748	-0.788312	0.382068
N71	N	0.436037	-0.467415	0.493101
O72	O	0.592642	-0.471896	0.376066
O73	O	0.592838	-0.567146	0.505347
O74	O	0.592754	-0.566928	0.423360
O75	O	0.592727	-0.472113	0.458053
O76	O	0.511269	-0.539835	0.450606
O77	O	0.511353	-0.540052	0.532594
O78	O	0.511157	-0.444802	0.403312
Cu79	Cu	0.503815	-0.489954	0.470441
Cu80	Cu	0.600180	-0.521995	0.438219
O81	O	0.511242	-0.445020	0.485300
N82	N	0.667959	-0.544533	0.415554
N83	N	0.090544	-0.122107	0.493359
O84	O	-0.026406	0.034587	0.488773
O85	O	0.102877	0.034627	0.393499
O86	O	0.020848	0.034591	0.393771
O87	O	0.055623	0.034623	0.488500
O88	O	0.048051	-0.046899	0.420925
O89	O	0.130080	-0.046864	0.420653
O90	O	0.000796	-0.046903	0.515927
Cu91	Cu	0.067922	-0.054324	0.470769
Cu92	Cu	0.035752	0.042048	0.438656
O93	O	0.082825	-0.046867	0.515655
N94	N	0.013123	0.109830	0.416068
N95	N	0.090892	-0.467554	0.838649
O96	O	0.086330	-0.584488	0.995334
O97	O	-0.008902	-0.455160	0.995379
O98	O	-0.008679	-0.537172	0.995355
O99	O	0.086107	-0.502475	0.995358
O100	O	0.018452	-0.509990	0.913868
O101	O	0.018230	-0.427978	0.913891
O102	O	0.113461	-0.557306	0.913847
Cu103	Cu	0.068323	-0.490160	0.906429
Cu104	Cu	0.036237	-0.522306	1.002797
O105	O	0.113239	-0.475293	0.913870
N106	N	0.013667	-0.544916	1.070577
C107	C	0.031339	-0.425179	0.394250
C108	C	0.132837	-0.526572	0.394139
C109	C	0.072405	-0.587216	0.515344
C110	C	-0.029093	-0.485823	0.515455
C111	C	0.552119	-0.566716	0.535258
C112	C	0.552016	-0.566447	0.433726
C113	C	0.551873	-0.445232	0.373402
C114	C	0.551980	-0.445502	0.474933
C115	C	0.132731	-0.006013	0.393923
C116	C	0.031182	-0.006158	0.394293
C117	C	-0.029092	-0.006163	0.515469
C118	C	0.072491	-0.006119	0.515133
C119	C	-0.008451	-0.425276	0.954641
C120	C	-0.008170	-0.526833	0.954596
C121	C	0.113010	-0.587190	0.954585
C122	C	0.112735	-0.485627	0.954611
H123	H	0.016234	-0.428240	0.834672
H124	H	0.338981	-0.510371	0.554246
O125	O	0.552187	-0.606328	0.584441
H126	H	0.585415	-0.615290	0.591364
O127	O	0.082351	-0.006110	0.554559
H128	H	0.078095	-0.039326	0.587102
O129	O	-0.048059	-0.376080	0.954661
H130	H	-0.034209	-0.352050	0.954671
O131	O	0.100293	-0.893000	0.384223
H132	H	0.114339	-0.916381	0.362266
H133	H	0.079796	-0.624394	0.545162
O134	O	0.021553	-0.375932	0.354752
H135	H	0.054671	-0.375798	0.321469
H136	H	-0.066242	-0.478508	0.545321
O137	O	-0.072207	-0.892832	0.449737
H138	H	-0.109861	-0.866354	0.451875
O139	O	0.182042	-0.536254	0.354574
H140	H	0.206046	-0.574146	0.368479
O141	O	0.152184	-0.475798	0.954607
H142	H	0.161056	-0.444565	0.921398
H143	H	0.552029	-0.596233	0.426301
H144	H	0.551811	-0.415327	0.336274
H145	H	-0.037935	-0.534246	0.954563
H146	H	0.551974	-0.415718	0.482355
H147	H	0.169783	-0.005775	0.363939
H148	H	0.023733	-0.006162	0.364531
O149	O	0.152619	-0.636386	0.954567
H150	H	0.163011	-0.653486	0.987775
O151	O	-0.078274	-0.006167	0.555088
H152	H	-0.102322	-0.006173	0.541254
H153	H	0.047163	-0.397193	0.741627
H154	H	0.199181	-0.473148	0.741498
O155	O	0.177065	-0.511985	0.841324
H156	H	0.214988	-0.517716	0.814849
H157	H	0.015959	-0.428182	0.532734
O158	O	0.038196	-0.389384	0.571540
H159	H	0.014805	-0.355504	0.551205
O160	O	0.176690	-0.511902	0.448854
H161	H	0.200093	-0.545789	0.469170
O162	O	0.212277	-0.476372	0.484375
H163	H	0.229047	-0.462568	0.443931
O164	O	0.438809	-0.554593	0.525093
H165	H	0.428945	-0.566965	0.506991
O166	O	0.438753	-0.382083	0.459301
H167	H	0.428880	-0.354656	0.426013
O168	O	0.332136	-0.346567	0.494909
H169	H	0.341951	-0.325693	0.455050
O170	O	0.168669	-0.225952	0.440889
H171	H	0.174370	-0.199490	0.402956
H172	H	0.129813	-0.126117	0.418717
H173	H	0.085016	-0.219221	0.601683
O174	O	0.046165	-0.119387	0.579512
H175	H	0.040459	-0.145849	0.617444
H176	H	-0.056788	-0.501226	0.167618
O177	O	-0.028904	-0.456937	0.067783
H178	H	-0.052314	-0.436613	0.094219
H179	H	0.050281	-0.622271	0.074658
H180	H	-0.057039	-0.501216	0.345698
O181	O	0.022404	-0.666562	0.174499
H182	H	0.008622	-0.683344	0.164616
O183	O	-0.029255	-0.456918	0.373463
H184	H	-0.052546	-0.436593	0.349991
H185	H	0.049734	-0.622248	0.452940
H186	H	0.018765	-0.653217	0.421828
H187	H	-0.094449	-0.793002	0.412253
O188	O	0.064833	-0.786384	0.348641
H189	H	0.102483	-0.812867	0.346517
H190	H	-0.235077	-0.614964	0.459366
H191	H	-0.327887	-0.507903	0.338181
O192	O	-0.334942	-0.587116	0.503555
H193	H	-0.325138	-0.573345	0.520417
O194	O	-0.228039	-0.535742	0.293988
H195	H	-0.254445	-0.512343	0.273626
