data_functionalizedCrystal
_audit_creation_method	'MofGen! by Chris Wilmer'
_symmetry_space_group_name_H-M	'P1'
_symmetry_Int_Tables_number	1
_symmetry_cell_setting	triclinic
loop_
_symmetry_equiv_pos_as_xyz
  x,y,z
_cell_length_a	10.489741
_cell_length_b	13.339070
_cell_length_c	9.565339
_cell_angle_alpha	89.996444
_cell_angle_beta	90.007258
_cell_angle_gamma	79.915763
loop_
_atom_site_label
_atom_site_type_symbol
_atom_site_fract_x
_atom_site_fract_y
_atom_site_fract_z
O1	O	0.641096	-1.346950	0.116345
O2	O	0.556949	-1.051810	0.116329
O3	O	0.415724	-1.206096	0.116329
O4	O	0.782321	-1.192665	0.116345
O5	O	0.415704	-1.206088	-0.116191
O6	O	0.556929	-1.051802	-0.116191
O7	O	0.641076	-1.346942	-0.116175
Zn8	Zn	0.598999	-1.199371	-0.153101
Zn9	Zn	0.599026	-1.199382	0.153254
O10	O	0.782301	-1.192656	-0.116175
C11	C	0.542725	-1.014013	0.000067
C12	C	0.500356	-0.901403	0.000060
C13	C	0.829794	-0.539010	0.000087
C14	C	0.869605	-0.644813	0.000097
C15	C	0.777296	-0.708965	0.000088
C16	C	0.645169	-0.667305	0.000069
C17	C	0.605353	-0.561492	0.000069
C18	C	0.552856	-0.731447	0.000070
C19	C	0.420729	-0.689787	0.000051
C20	C	0.380920	-0.583984	0.000050
C21	C	0.473229	-0.519832	0.000060
C22	C	0.592672	-0.837260	0.000069
C23	C	0.368232	-0.859742	0.000051
C24	C	0.328420	-0.753940	0.000041
C25	C	0.367835	-1.205078	0.000070
C26	C	0.225166	-1.202043	0.000072
C27	C	0.123419	-1.103875	0.000077
C28	C	0.047162	-1.150244	-0.114565
C29	C	0.047215	-1.150276	0.114681
C30	C	0.150789	-1.248452	-0.114665
C31	C	0.150847	-1.248470	0.114685
C32	C	0.074642	-1.294911	0.000015
C33	C	0.830190	-1.193675	0.000087
C34	C	0.972859	-1.196710	0.000094
C35	C	0.655300	-0.384739	0.000083
C36	C	0.697669	-0.497350	0.000078
N37	N	0.598983	-1.199371	-0.362180
C38	C	0.532774	-1.270165	-0.546516
C39	C	0.655225	-1.291500	-0.453271
C40	C	0.476557	-1.178081	-0.453356
C41	C	0.721560	-1.220771	-0.546473
C42	C	0.542803	-1.107311	-0.546566
C43	C	0.665324	-1.128609	-0.453363
N44	N	0.599035	-1.199389	0.362334
H45	H	0.273334	-0.550068	0.000050
O46	O	0.200127	-0.713298	0.000093
C47	C	0.039338	-0.560254	-0.000002
C48	C	0.184668	-0.606146	-0.000029
H49	H	0.026792	-0.473615	-0.000131
H50	H	-0.008215	-0.586529	0.097326
H51	H	-0.008159	-0.586653	-0.097293
H52	H	0.232276	-0.579767	0.097195
H53	H	0.232125	-0.579874	-0.097422
H54	H	0.145439	-1.023162	-0.000043
H55	H	0.721420	-1.068746	-0.412720
O56	O	-0.006787	-1.100530	-0.230093
C57	C	-0.043671	-0.943665	-0.360774
C58	C	0.017456	-0.999845	-0.229872
H59	H	-0.024069	-0.862258	-0.360654
H60	H	-0.152621	-0.942399	-0.360189
H61	H	0.000505	-0.984782	-0.458451
H62	H	-0.026616	-0.958772	-0.132127
H63	H	0.126407	-1.001120	-0.230581
O64	O	0.465895	-1.341561	-0.595155
C65	C	0.261760	-1.400838	-0.601043
C66	C	0.337345	-1.319928	-0.545836
H67	H	0.157807	-1.383364	-0.561215
H68	H	0.309811	-1.479313	-0.562668
H69	H	0.261690	-1.399697	-0.720215
H70	H	0.337440	-1.320976	-0.426667
H71	H	0.289269	-1.241490	-0.584317
O72	O	-0.006485	-1.100726	0.230415
C73	C	0.030055	-1.011768	0.441899
C74	C	0.091037	-1.067888	0.310916
H75	H	0.108869	-0.985184	0.507006
H76	H	-0.019519	-1.065478	0.506809
H77	H	-0.044361	-0.943028	0.408791
H78	H	0.165506	-1.136626	0.343900
H79	H	0.140527	-1.014110	0.246038
O80	O	0.485841	-1.014492	-0.595438
C81	C	0.292345	-0.887067	-0.603456
C82	C	0.356704	-0.992207	-0.548040
H83	H	0.187936	-0.869008	-0.565132
H84	H	0.293690	-0.887742	-0.722629
H85	H	0.347808	-0.826576	-0.563549
H86	H	0.301292	-1.052757	-0.587843
H87	H	0.355377	-0.991446	-0.428868
H88	H	0.977183	-0.678725	0.000124
H89	H	0.700250	-0.871170	0.000079
H90	H	0.293065	-0.911976	0.000049
H91	H	0.809719	-0.795114	0.000099
O92	O	0.204670	-1.298055	-0.230279
C93	C	0.356624	-1.439807	-0.320542
C94	C	0.295730	-1.383724	-0.189495
H95	H	0.430238	-1.509094	-0.287615
H96	H	0.407087	-1.386341	-0.384869
H97	H	0.277546	-1.465543	-0.386172
H98	H	0.374729	-1.357984	-0.123757
H99	H	0.245235	-1.437227	-0.125273
O100	O	0.711754	-1.384451	-0.404437
C101	C	0.705923	-1.564152	-0.396566
C102	C	0.641768	-1.458942	-0.451928
H103	H	0.649382	-1.624409	-0.434963
H104	H	0.706167	-1.563094	-0.277391
H105	H	0.809787	-1.582848	-0.436438
H106	H	0.537879	-1.440180	-0.412159
H107	H	0.641627	-1.460054	-0.571101
O108	O	0.845085	-1.242429	-0.595289
C109	C	0.983695	-1.266698	-0.797784
C110	C	0.843745	-1.242165	-0.742687
H111	H	0.982660	-1.266472	-0.916961
H112	H	1.031715	-1.344961	-0.758613
H113	H	1.040330	-1.206747	-0.758549
H114	H	0.787004	-1.302051	-0.781899
H115	H	0.795826	-1.163874	-0.781846
H116	H	0.440820	-0.433677	0.000051
H117	H	0.196108	-1.289975	0.211616
H118	H	0.904937	-0.486768	0.000107
H119	H	0.052875	-1.375696	-0.000044
H120	H	0.373000	-1.160065	-0.412450
