data_functionalizedCrystal
_audit_creation_method	'MofGen! by Chris Wilmer'
_symmetry_space_group_name_H-M	'P1'
_symmetry_Int_Tables_number	1
_symmetry_cell_setting	triclinic
loop_
_symmetry_equiv_pos_as_xyz
  x,y,z
_cell_length_a	16.120297
_cell_length_b	16.120490
_cell_length_c	12.827892
_cell_angle_alpha	87.107930
_cell_angle_beta	92.875882
_cell_angle_gamma	90.129683
loop_
_atom_site_label
_atom_site_type_symbol
_atom_site_fract_x
_atom_site_fract_y
_atom_site_fract_z
Zn1	Zn	-0.534559	1.247506	-0.529523
Zn2	Zn	-0.201225	1.580839	-0.196190
Zn3	Zn	0.132108	1.914172	0.137144
Zn4	Zn	-0.395508	1.254475	-0.695884
Zn5	Zn	-0.062175	1.587808	-0.362550
Zn6	Zn	0.271158	1.921141	-0.029217
Zn7	Zn	-0.388479	1.115493	-0.511855
Zn8	Zn	-0.055146	1.448827	-0.178522
Zn9	Zn	0.278188	1.782160	0.154812
Zn10	Zn	-0.527481	1.108430	-0.694911
Zn11	Zn	-0.194148	1.441764	-0.361578
Zn12	Zn	0.139185	1.775097	-0.028245
O13	O	-0.461507	1.181476	-0.608043
O14	O	-0.128173	1.514809	-0.274710
O15	O	0.205160	1.848143	0.058624
O16	O	-0.522017	1.364798	-0.559392
O17	O	-0.188684	1.698131	-0.226059
O18	O	0.144650	2.031464	0.107275
O19	O	-0.278210	1.241911	-0.664485
O20	O	0.055123	1.575244	-0.331151
O21	O	0.388457	1.908578	0.002182
O22	O	-0.407877	1.133044	-0.367966
O23	O	-0.074544	1.466377	-0.034633
O24	O	0.258790	1.799711	0.298700
O25	O	-0.419857	1.369918	-0.681616
O26	O	-0.086524	1.703251	-0.348283
O27	O	0.246809	2.036585	-0.014950
O28	O	-0.515201	1.230033	-0.380947
O29	O	-0.181868	1.563366	-0.047614
O30	O	0.151466	1.896700	0.285720
O31	O	-0.273046	1.139802	-0.529280
O32	O	0.060288	1.473135	-0.195946
O33	O	0.393621	1.806469	0.137387
O34	O	-0.401014	0.998189	-0.528337
O35	O	-0.067681	1.331522	-0.195003
O36	O	0.265652	1.664855	0.138330
O37	O	-0.644786	1.121006	-0.679959
O38	O	-0.311453	1.454340	-0.346626
O39	O	0.021881	1.787673	-0.013293
O40	O	-0.503139	0.992999	-0.662827
O41	O	-0.169805	1.326333	-0.329494
O42	O	0.163528	1.659666	0.003839
O43	O	-0.649986	1.223184	-0.558449
O44	O	-0.316652	1.556518	-0.225116
O45	O	0.016681	1.889851	0.108217
O46	O	-0.412995	1.235062	-0.841987
O47	O	-0.079661	1.568396	-0.508654
O48	O	0.253672	1.901729	-0.175320
O49	O	-0.509955	1.127764	-0.841273
O50	O	-0.176621	1.461097	-0.507939
O51	O	0.156712	1.794431	-0.174606
C52	C	-0.450546	0.965421	-0.593560
C53	C	-0.117213	1.298754	-0.260227
C54	C	0.216121	1.632088	0.073107
C55	C	-0.445877	0.872991	-0.587391
C56	C	-0.112543	1.206324	-0.254057
C57	C	0.220790	1.539658	0.079276
C58	C	-0.485729	0.660035	-0.640038
C59	C	-0.152395	0.993368	-0.306704
C60	C	0.180938	1.326701	0.026629
C61	C	-0.437351	0.703765	-0.576136
C62	C	-0.104017	1.037098	-0.242803
C63	C	0.229316	1.370432	0.090531
C64	C	-0.442096	0.797931	-0.582400
C65	C	-0.108763	1.131264	-0.249067
C66	C	0.224571	1.464598	0.084267
C67	C	-0.480984	0.565860	-0.633775
C68	C	-0.147651	0.899193	-0.300442
C69	C	0.185682	1.232527	0.032892
C70	C	-0.678402	1.170530	-0.621067
C71	C	-0.345069	1.503863	-0.287733
C72	C	-0.011735	1.837197	0.045600
C73	C	-0.770830	1.165866	-0.626616
C74	C	-0.437496	1.499199	-0.293283
C75	C	-0.104163	1.832532	0.040050
C76	C	-0.940055	1.157319	-0.636724
C77	C	-0.606722	1.490652	-0.303390
C78	C	-0.273388	1.823986	0.029943
C79	C	-0.983819	1.205797	-0.579060
C80	C	-0.650486	1.539130	-0.245727
C81	C	-0.317152	1.872463	0.087606
C82	C	-1.077982	1.201041	-0.584684
C83	C	-0.744648	1.534375	-0.251351
C84	C	-0.411315	1.867708	0.081982
C85	C	-0.845884	1.162073	-0.631101
C86	C	-0.512550	1.495407	-0.297768
C87	C	-0.179217	1.828740	0.035565
C88	C	-0.245458	1.192427	-0.594998
C89	C	0.087875	1.525760	-0.261665
C90	C	0.421209	1.859094	0.071669
C91	C	-0.153039	1.197252	-0.589165
C92	C	0.180294	1.530586	-0.255831
C93	C	0.513628	1.863919	0.077502
C94	C	-0.461489	1.181425	-0.879549
C95	C	-0.128155	1.514758	-0.546215
C96	C	0.205178	1.848091	-0.212882
C97	C	-0.461513	1.181477	-0.995707
C98	C	-0.128179	1.514811	-0.662373
C99	C	0.205154	1.848144	-0.329040
C100	C	-0.472511	1.398374	-0.622584
C101	C	-0.139178	1.731708	-0.289250
C102	C	0.194156	2.065041	0.044083
C103	C	-0.477200	1.490804	-0.628780
C104	C	-0.143867	1.824137	-0.295446
C105	C	0.189467	2.157470	0.037887
C106	C	-0.514664	1.229446	-1.053832
C107	C	-0.181331	1.562779	-0.720499
C108	C	0.152002	1.896112	-0.387166
C109	C	-0.514690	1.229501	-1.173888
C110	C	-0.181357	1.562835	-0.840555
C111	C	0.151976	1.896168	-0.507221
C112	C	-0.461544	1.181549	-0.335480
C113	C	-0.128211	1.514882	-0.002147
C114	C	0.205122	1.848216	0.331187
C115	C	-0.461560	1.181580	-0.219330
C116	C	-0.128227	1.514914	0.114003
C117	C	0.205106	1.848247	0.447337
H118	H	-0.392369	0.670482	-0.516724
H119	H	-0.059035	1.003816	-0.183391
H120	H	0.274298	1.337149	0.149943
H121	H	-0.530706	0.693315	-0.699446
H122	H	-0.197373	1.026648	-0.366112
H123	H	0.135960	1.359982	-0.032779
H124	H	-0.950568	1.250870	-0.525469
H125	H	-0.617234	1.584203	-0.192135
H126	H	-0.283901	1.917537	0.141198
H127	H	-0.973304	1.112249	-0.690311
H128	H	-0.639971	1.445582	-0.356978
H129	H	-0.306637	1.778916	-0.023644
Cl130	Cl	-0.584903	1.292781	-0.993448
Cl131	Cl	-0.251570	1.626115	-0.660115
Cl132	Cl	0.081763	1.959448	-0.326782
H133	H	-0.560193	1.270572	-1.223850
H134	H	-0.226859	1.603905	-0.890517
H135	H	0.106474	1.937239	-0.557184
H136	H	-0.416031	1.140447	-1.034824
H137	H	-0.082697	1.473780	-0.701490
H138	H	0.250636	1.807114	-0.368157
H139	H	-0.416049	1.140514	-1.169375
H140	H	-0.082716	1.473847	-0.836042
H141	H	0.250617	1.807180	-0.502708
