data_functionalizedCrystal
_audit_creation_method	'MofGen! by Chris Wilmer'
_symmetry_space_group_name_H-M	'P1'
_symmetry_Int_Tables_number	1
_symmetry_cell_setting	triclinic
loop_
_symmetry_equiv_pos_as_xyz
  x,y,z
_cell_length_a	17.917603
_cell_length_b	17.052862
_cell_length_c	17.052862
_cell_angle_alpha	61.493325
_cell_angle_beta	90.786232
_cell_angle_gamma	67.577043
loop_
_atom_site_label
_atom_site_type_symbol
_atom_site_fract_x
_atom_site_fract_y
_atom_site_fract_z
Zr1	Zr	0.890123	0.744198	-0.153027
O2	O	0.805307	0.878999	-0.285675
O3	O	0.897450	0.592879	-0.098446
O4	O	0.938605	0.707331	-0.257065
O5	O	0.752930	0.799388	-0.017766
O6	O	1.064996	0.697038	-0.250330
O7	O	0.764151	0.764547	-0.127055
O8	O	0.991377	0.492305	0.033412
O9	O	0.826549	1.004121	-0.301507
O10	O	1.017461	0.653555	-0.086956
O11	O	0.914762	0.687237	-0.010421
O12	O	0.963217	0.821989	-0.197175
O13	O	0.860519	0.855672	-0.120640
Zr14	Zr	1.073805	0.783349	0.032020
Zr15	Zr	1.091702	0.727782	-0.142285
Zr16	Zr	0.872227	0.799765	0.021277
Zr17	Zr	0.924003	0.943753	-0.178278
Zr18	Zr	1.039926	0.583794	0.057270
O19	O	1.066479	0.934667	-0.022562
O20	O	1.091926	0.855658	-0.270400
O21	O	0.779860	0.958008	-0.037836
O22	O	1.158622	0.648548	0.164667
O23	O	1.184069	0.569539	-0.083171
O24	O	0.872003	0.671888	0.149393
O25	O	1.210999	0.728159	-0.103242
O26	O	1.025324	0.820216	0.136058
O27	O	0.898933	0.830508	0.129322
O28	O	1.199778	0.762999	0.006048
O29	O	0.986777	0.991073	-0.292968
O30	O	0.977152	0.536474	0.171961
O31	O	1.137380	0.523426	0.180500
O32	O	1.151605	0.479257	0.041951
O33	O	0.812323	1.048289	-0.162958
O34	O	0.972552	1.035241	-0.154419
O35	O	1.000712	0.705557	0.076167
O36	O	1.103410	0.671875	-0.000368
O37	O	1.049167	0.840309	-0.110587
O38	O	0.946468	0.873992	-0.034052
C39	C	0.939587	0.514160	-0.028919
C40	C	0.925204	0.429444	-0.018200
C41	C	1.099091	0.120319	-0.147798
C42	C	1.112603	0.199917	-0.157876
C43	C	1.065754	0.257302	-0.122957
C44	C	1.005391	0.235082	-0.077960
C45	C	0.991874	0.155481	-0.067888
C46	C	0.958537	0.292464	-0.043047
C47	C	0.898174	0.270244	0.001950
C48	C	0.884660	0.190650	0.012021
C49	C	0.931508	0.133265	-0.022898
C50	C	0.972055	0.372066	-0.053120
C51	C	0.864838	0.407227	0.026790
C52	C	0.851326	0.327629	0.036868
C53	C	0.729820	0.784307	-0.073941
C54	C	0.644245	0.791276	-0.078502
C55	C	0.487574	0.804005	-0.086831
C56	C	0.476349	0.723545	-0.034180
C57	C	0.389172	0.730628	-0.038814
C58	C	0.574758	0.796924	-0.082198
C59	C	1.234109	0.743240	-0.047066
C60	C	1.319684	0.736271	-0.042506
C61	C	1.004351	0.694268	-0.278532
C62	C	1.011948	0.670678	-0.352529
C63	C	1.024342	1.013387	-0.092088
C64	C	1.038725	1.098103	-0.102808
C65	C	0.920094	0.955877	-0.791253
C66	C	0.912950	0.978044	-0.721732
C67	C	0.937699	0.901204	-0.629428
C68	C	0.969593	0.802194	-0.606652
C69	C	0.976731	0.780025	-0.676181
C70	C	0.994336	0.725353	-0.514356
C71	C	1.026230	0.626342	-0.491579
C72	C	1.033367	0.604178	-0.561102
C73	C	1.008618	0.681017	-0.653406
C74	C	0.987198	0.747522	-0.444827
C75	C	1.043835	0.571670	-0.329754
C76	C	1.050979	0.549503	-0.399276
C77	C	0.959578	0.833279	0.157525
C78	C	0.951981	0.856869	0.231522
C79	C	1.191731	0.493627	-0.015482
C80	C	1.262924	0.401942	-0.000202
C81	C	0.917200	0.583666	0.189109
C82	C	0.895220	0.522539	0.273825
C83	C	1.169345	0.563132	0.202546
C84	C	1.232940	0.495037	0.291823
C85	C	0.794584	0.964414	-0.323554
C86	C	0.730989	1.032510	-0.412831
C87	C	0.772198	1.033920	-0.105525
C88	C	0.701005	1.125605	-0.120805
C89	C	1.046729	0.943881	-0.310117
C90	C	1.068709	1.005008	-0.394833
C91	C	1.251493	0.349320	-0.038232
C92	C	1.318382	0.263178	-0.023893
C93	C	1.396700	0.229656	0.028482
C94	C	1.408130	0.282286	0.066512
C95	C	1.341243	0.368430	0.052167
C96	C	0.929762	0.503398	0.358815
C97	C	0.909107	0.445977	0.438420
C98	C	0.853914	0.407691	0.433034
C99	C	0.819368	0.426837	0.348036
C100	C	0.840019	0.484264	0.268432
C101	C	1.316421	0.445476	0.293798
C102	C	1.376186	0.381501	0.377676
C103	C	1.352467	0.367083	0.459578
C104	C	1.268978	0.416652	0.457599
C105	C	1.209216	0.480631	0.373722
C106	C	0.647510	1.082081	-0.414807
C107	C	0.587749	1.146080	-0.498688
C108	C	0.611469	1.160502	-0.580590
C109	C	0.694957	1.110928	-0.578611
C110	C	0.754717	1.046935	-0.494732
C111	C	0.712438	1.178233	-0.082784
C112	C	0.645555	1.264390	-0.097145
C113	C	0.567238	1.297914	-0.149522
C114	C	0.555806	1.245282	-0.187549
C115	C	0.622690	1.159130	-0.173193
C116	C	1.123904	1.043276	-0.389418
C117	C	1.144573	1.100701	-0.469009
C118	C	1.110041	1.119863	-0.554015
C119	C	1.054843	1.081587	-0.559428
C120	C	1.034179	1.024158	-0.479836
H121	H	0.920514	0.068444	-0.014690
N122	N	1.067766	0.497391	-0.536542
H123	H	1.119340	0.480433	-0.560309
H124	H	1.024586	0.488200	-0.565347
N125	N	1.017595	1.102266	-0.651116
H126	H	1.033776	1.037364	-0.648585
H127	H	1.039077	1.144488	-0.700658
H128	H	0.532210	0.649342	0.014377
N129	N	1.085378	0.442716	-0.374715
H130	H	1.086144	0.440338	-0.432766
H131	H	1.049145	0.412046	-0.339959
H132	H	0.562800	1.212611	-0.648883
N133	N	1.416935	0.298059	0.550037
H134	H	1.402329	0.242666	0.591859
H135	H	1.418228	0.336485	0.579935
H136	H	0.492031	1.272591	-0.230195
H137	H	1.014434	0.662974	-0.710021
H138	H	1.161749	0.218007	-0.194513
H139	H	1.137225	0.073597	-0.176231
H140	H	0.431717	0.878203	-0.135384
N141	N	0.974644	0.982887	-0.485684
H142	H	0.955907	1.003747	-0.551614
H143	H	0.924720	1.009383	-0.463092
N144	N	1.070535	0.488791	-0.230201
H145	H	1.131509	0.442639	-0.214626
H146	H	1.036750	0.450423	-0.219730
N147	N	0.819556	0.166681	0.060552
H148	H	0.791931	0.215105	0.081149
H149	H	0.846815	0.096738	0.115871
H150	H	1.021203	0.390150	-0.089757
N151	N	1.132319	1.181814	-0.639863
H152	H	1.159076	1.141166	-0.668331
H153	H	1.172497	1.203143	-0.623464
H154	H	1.187730	0.376608	-0.080890
H155	H	0.961229	0.828137	-0.463381
N156	N	0.720534	1.126487	-0.666951
H157	H	0.670003	1.174545	-0.720381
H158	H	0.746420	1.060751	-0.663813
H159	H	1.451156	0.159510	0.040156
H160	H	0.774428	0.395657	0.343664
H161	H	1.141242	0.520977	0.372127
N162	N	0.930003	0.925107	-0.554441
H163	H	0.906048	0.999488	-0.582875
H164	H	0.986780	0.892011	-0.512614
N165	N	0.878562	1.084823	-0.746293
H166	H	0.863971	1.130137	-0.815314
H167	H	0.921725	1.093988	-0.717428
N168	N	0.497703	1.199528	-0.500814
H169	H	0.478470	1.273739	-0.539753
H170	H	0.491810	1.180591	-0.436171
N171	N	0.621907	1.066539	-0.326482
H172	H	0.596036	1.132240	-0.329547
H173	H	0.672456	1.018445	-0.273081
H174	H	1.309058	0.220337	-0.054864
H175	H	0.937245	0.430395	0.507621
H176	H	0.899941	1.018429	-0.866408
N177	N	1.353579	0.425183	0.093187
H178	H	1.315670	0.427528	0.136129
H179	H	1.340006	0.495145	0.042317
H180	H	0.974703	0.534566	0.363216
N181	N	1.492604	0.246125	0.122999
H182	H	1.533234	0.183566	0.126313
H183	H	1.488348	0.231521	0.187111
H184	H	0.802178	0.309527	0.073504
N185	N	0.831647	0.345745	0.518895
H186	H	0.804898	0.386401	0.547359
H187	H	0.883720	0.284946	0.564199
N188	N	1.080325	0.343155	-0.133823
H189	H	1.125674	0.348523	-0.167625
H190	H	1.097693	0.331492	-0.071132
H191	H	0.811891	0.499838	0.199234
N192	N	0.814300	0.469115	0.064452
H193	H	0.832024	0.522909	0.051246
H194	H	0.823718	0.425199	0.133061
N195	N	1.342013	0.461008	0.205470
H196	H	1.403970	0.419898	0.219463
H197	H	1.327512	0.533668	0.162988
N198	N	1.466229	0.328031	0.379808
H199	H	1.487223	0.378356	0.341800
H200	H	1.471234	0.284596	0.353703
H201	H	0.512783	1.368066	-0.161205
H202	H	1.249677	0.404903	0.524295
H203	H	0.822688	1.006572	-0.493133
H204	H	0.776202	1.150947	-0.040128
N205	N	0.657895	1.321147	-0.056126
H206	H	0.717656	1.286825	-0.020760
H207	H	0.619931	1.323488	-0.013236
H208	H	0.613369	1.116283	-0.204154
N209	N	1.161154	1.022618	-0.297740
H210	H	1.199258	1.055577	-0.306400
H211	H	1.193932	0.948468	-0.254290
H212	H	1.189517	1.131861	-0.464585
