data_functionalizedCrystal
_audit_creation_method	'MofGen! by Chris Wilmer'
_symmetry_space_group_name_H-M	'P1'
_symmetry_Int_Tables_number	1
_symmetry_cell_setting	triclinic
loop_
_symmetry_equiv_pos_as_xyz
  x,y,z
_cell_length_a	14.908571
_cell_length_b	14.908520
_cell_length_c	14.908308
_cell_angle_alpha	96.360765
_cell_angle_beta	89.824947
_cell_angle_gamma	89.794039
loop_
_atom_site_label
_atom_site_type_symbol
_atom_site_fract_x
_atom_site_fract_y
_atom_site_fract_z
Zn1	Zn	1.316651	0.470613	0.613065
Zn2	Zn	1.316549	0.613252	0.470429
Zn3	Zn	1.176020	0.453291	0.453125
Zn4	Zn	1.157642	0.612180	0.612023
O5	O	1.241715	0.537334	0.537161
O6	O	1.441995	0.497231	0.601822
O7	O	1.305556	0.585232	0.341941
O8	O	1.202409	0.329399	0.467536
O9	O	1.441920	0.602028	0.497029
O10	O	1.305730	0.342124	0.585043
O11	O	1.202310	0.467710	0.329228
O12	O	1.048225	0.466671	0.466525
O13	O	1.171086	0.600202	0.738354
O14	O	1.034722	0.583406	0.583267
O15	O	1.287909	0.496192	0.739120
O16	O	1.287736	0.739300	0.496018
O17	O	1.170987	0.738513	0.600046
C18	C	1.008970	0.523043	0.522906
C19	C	0.909397	0.516953	0.516830
C20	C	1.227379	0.771629	0.549818
C21	C	1.221326	0.871868	0.555268
C22	C	0.708277	0.627234	0.626831
C23	C	0.614720	0.621514	0.621125
C24	C	0.628723	0.499789	0.499719
C25	C	0.722281	0.505509	0.505424
C26	C	0.762054	0.569235	0.568981
C27	C	0.855613	0.574958	0.574682
C28	C	0.869615	0.453230	0.453280
C29	C	0.776058	0.447510	0.447575
C30	C	1.227459	0.550010	0.772372
C31	C	1.221383	0.555411	0.872606
C32	C	1.475370	0.551681	0.551472
C33	C	1.574939	0.557795	0.557571
C34	C	1.256131	0.302127	0.524476
C35	C	1.262274	0.201896	0.519070
C36	C	1.331634	1.060998	0.457284
C37	C	1.325950	1.155181	0.462402
C38	C	1.204279	1.154420	0.570626
C39	C	1.209963	1.060237	0.565508
C40	C	1.273642	1.013529	0.508834
C41	C	1.279321	0.919343	0.503712
C42	C	1.157655	0.918584	0.611940
C43	C	1.151970	1.012768	0.617058
C44	C	1.255972	0.524646	0.302864
C45	C	1.262236	0.519001	0.202628
C46	C	1.331614	0.457236	1.061752
C47	C	1.325908	0.462308	1.155930
C48	C	1.204264	0.570623	1.155141
C49	C	1.209969	0.565551	1.060963
C50	C	1.273647	0.508856	1.014272
C51	C	1.279356	0.503789	0.920093
C52	C	1.157708	0.612099	0.919305
C53	C	1.152002	0.617171	1.013483
H54	H	0.887995	0.626848	0.626432
O55	O	1.090231	1.058253	0.672163
C56	C	1.064277	1.170332	0.798969
C57	C	1.134293	1.118903	0.736617
H58	H	1.099875	1.219365	0.851107
H59	H	1.017331	1.209445	0.757109
H60	H	1.023785	1.120204	0.834888
H61	H	1.174848	1.168969	0.700684
H62	H	1.181178	1.079776	0.778524
H63	H	1.373175	1.193828	0.420427
O64	O	0.747064	0.689111	0.688485
C65	C	0.884991	0.751835	0.751109
C66	C	0.841184	0.681731	0.681231
H67	H	0.961092	0.745880	0.745282
H68	H	0.863188	0.822564	0.737962
H69	H	0.863112	0.738917	0.821868
H70	H	0.863041	0.694565	0.610445
H71	H	0.862984	0.611026	0.694457
H72	H	0.570938	0.668742	0.668234
O73	O	0.589933	0.437940	0.438039
C74	C	0.452003	0.375081	0.375562
C75	C	0.495815	0.445199	0.445422
H76	H	0.375901	0.380913	0.381519
H77	H	0.473736	0.387964	0.304748
H78	H	0.473946	0.304406	0.388742
H79	H	0.473893	0.515902	0.432326
H80	H	0.474083	0.432237	0.516213
O81	O	1.341133	0.874058	0.448540
C82	C	1.395756	0.839625	0.296284
C83	C	1.325711	0.890971	0.358665
H84	H	1.383300	0.853266	0.223605
H85	H	1.465916	0.863373	0.317539
H86	H	1.389869	0.764163	0.301526
H87	H	1.331515	0.966442	0.353455
H88	H	1.255579	0.867149	0.337392
H89	H	1.110431	0.879924	0.653913
O90	O	0.737273	0.385686	0.385867
C91	C	0.599349	0.322881	0.323315
C92	C	0.643153	0.392953	0.393228
H93	H	0.523247	0.328720	0.329256
H94	H	0.621105	0.335807	0.252520
H95	H	0.621277	0.252189	0.336455
H96	H	0.621246	0.463673	0.380171
H97	H	0.621399	0.379948	0.463999
O98	O	1.341233	0.448641	0.874871
C99	C	1.461315	0.341778	0.885602
C100	C	1.391268	0.404183	0.936923
H101	H	1.501800	0.305831	0.935750
H102	H	1.425789	0.289673	0.836472
H103	H	1.508258	0.383686	0.846587
H104	H	1.344306	0.362350	0.975991
H105	H	1.426854	0.456291	0.986000
O106	O	0.921987	0.396927	0.397175
C107	C	1.072322	0.351838	0.352109
C108	C	1.013118	0.415633	0.415719
H109	H	1.146014	0.366951	0.367066
H110	H	1.057475	0.278864	0.363011
H111	H	1.057298	0.362510	0.279104
H112	H	1.028108	0.405041	0.488747
H113	H	1.027976	0.488584	0.404738
H114	H	1.110509	0.654134	0.880636
H115	H	1.373109	0.420271	1.194585
O116	O	1.393559	1.015763	0.402212
C117	C	1.513588	1.026448	0.295349
C118	C	1.443516	1.077789	0.357700
H119	H	1.553985	1.076571	0.259330
H120	H	1.560612	0.987424	0.337213
H121	H	1.477993	0.977323	0.243293
H122	H	1.479035	1.126959	0.409767
H123	H	1.396497	1.116752	0.315777
O124	O	1.393495	0.402094	1.016528
C125	C	1.513593	0.295247	1.027252
C126	C	1.443540	0.357642	1.078577
H127	H	1.554086	0.259305	1.077398
H128	H	1.478072	0.243139	0.978122
H129	H	1.560527	0.337164	0.988236
H130	H	1.396586	0.315800	1.117645
H131	H	1.479119	0.409753	1.127654
H132	H	1.152440	1.192467	0.616773
H133	H	1.152420	0.616780	1.193173
H134	H	1.100156	0.663328	1.051511
