data_functionalizedCrystal
_audit_creation_method	'MofGen! by Chris Wilmer'
_symmetry_space_group_name_H-M	'P1'
_symmetry_Int_Tables_number	1
_symmetry_cell_setting	triclinic
loop_
_symmetry_equiv_pos_as_xyz
  x,y,z
_cell_length_a	9.130313
_cell_length_b	11.026607
_cell_length_c	11.026607
_cell_angle_alpha	108.586017
_cell_angle_beta	89.999963
_cell_angle_gamma	90.000251
loop_
_atom_site_label
_atom_site_type_symbol
_atom_site_fract_x
_atom_site_fract_y
_atom_site_fract_z
O1	O	-0.121796	-1.726725	-0.533616
O2	O	0.378204	-1.226725	-0.033616
O3	O	-0.121798	-1.360145	-0.472853
O4	O	0.378202	-0.860145	0.027147
O5	O	-0.121792	-1.513053	-0.319945
O6	O	0.378208	-1.013053	0.180055
O7	O	-0.121802	-1.573817	-0.686525
O8	O	0.378198	-1.073817	-0.186525
O9	O	0.121807	-1.513052	-0.319949
O10	O	0.621807	-1.013052	0.180051
O11	O	0.121801	-1.360144	-0.472857
O12	O	0.621801	-0.860144	0.027143
O13	O	0.121803	-1.726724	-0.533621
O14	O	0.621803	-1.226724	-0.033621
Cu15	Cu	0.144044	-1.543434	-0.503240
Cu16	Cu	0.644044	-1.043434	-0.003240
Cu17	Cu	-0.144039	-1.543435	-0.503234
Cu18	Cu	0.355961	-1.043435	-0.003234
O19	O	0.121797	-1.573815	-0.686529
O20	O	0.621797	-1.073815	-0.186529
C21	C	0.000001	-1.312485	-0.461645
C22	C	0.500001	-0.812485	0.038355
C23	C	0.000000	-1.170471	-0.428228
C24	C	0.500000	-0.670471	0.071772
N25	N	0.346667	-1.543442	-0.503245
N26	N	0.846667	-1.043442	-0.003245
N27	N	-0.346662	-1.543435	-0.503221
N28	N	0.153338	-1.043435	-0.003221
C29	C	0.423322	-1.611178	-0.435571
C30	C	0.923322	-1.111178	0.064429
C31	C	0.576659	-1.611171	-0.435555
C32	C	1.076659	-1.111171	0.064445
C33	C	0.576672	-1.475690	-0.570897
C34	C	1.076672	-0.975690	-0.070897
C35	C	0.423338	-1.475690	-0.570905
C36	C	0.923338	-0.975690	-0.070905
C37	C	0.346650	-1.678929	-0.367911
C38	C	0.846650	-1.178929	0.132089
C39	C	0.423305	-1.746672	-0.300233
C40	C	0.923305	-1.246672	0.199767
C41	C	0.576642	-1.746665	-0.300217
C42	C	1.076642	-1.246665	0.199783
C43	C	0.653324	-1.678915	-0.367879
C44	C	1.153324	-1.178915	0.132121
C45	C	0.000006	-1.501843	-0.272287
C46	C	0.500006	-1.001843	0.227713
C47	C	0.000000	-1.468426	-0.130273
C48	C	0.500000	-0.968426	0.369727
C49	C	0.000001	-1.774384	-0.544828
C50	C	0.500001	-1.274384	-0.044828
C51	C	-0.000008	-1.916398	-0.578245
C52	C	0.499992	-1.416398	-0.078245
C53	C	-0.000003	-1.116821	-0.520498
C54	C	0.499997	-0.616821	-0.020498
C55	C	-0.000004	-0.970043	-0.485962
C56	C	0.499996	-0.470043	0.014038
C57	C	-0.000004	-1.585026	-0.734187
C58	C	0.499996	-1.085026	-0.234187
C59	C	-0.000008	-1.618443	-0.876200
C60	C	0.499992	-1.118443	-0.376200
C61	C	-0.000001	-1.560695	-0.076624
C62	C	0.499999	-1.060695	0.423376
C63	C	-0.000007	-1.526160	0.070155
C64	C	0.499993	-1.026160	0.570155
H65	H	0.221796	-1.678943	-0.367921
H66	H	0.721796	-1.178943	0.132079
F67	F	-0.000014	-1.755125	0.041816
F68	F	0.499986	-1.255125	0.541816
F69	F	-0.000009	-1.697370	-0.158615
F70	F	0.499991	-1.197370	0.341385
H71	H	0.639053	-1.801813	-0.245101
H72	H	1.139053	-1.301813	0.254899
F73	F	-0.000021	-1.389478	0.152141
F74	F	0.499979	-0.889478	0.652141
F75	F	0.658287	-1.403595	-0.642906
F76	F	1.158287	-0.903595	-0.142906
F77	F	0.341695	-1.818760	-0.228215
F78	F	0.841695	-1.318760	0.271785
F79	F	-0.000014	-1.331751	-0.048283
F80	F	0.499986	-0.831751	0.451717
H81	H	0.360926	-1.420532	-0.626009
H82	H	0.860926	-0.920532	-0.126009
H83	H	-0.000001	-0.979125	-0.682816
H84	H	0.499999	-0.479125	-0.182816
H85	H	-0.000035	-1.107738	-0.323666
H86	H	0.499965	-0.607738	0.176334
H87	H	0.778181	-1.678905	-0.367850
H88	H	1.278181	-1.178905	0.132150
F89	F	-0.000002	-1.198812	-0.657172
F90	F	0.499998	-0.698812	-0.157172
F91	F	0.000009	-0.888056	-0.349281
F92	F	0.500009	-0.388056	0.150719
