data_functionalizedCrystal
_audit_creation_method	'MofGen! by Chris Wilmer'
_symmetry_space_group_name_H-M	'P1'
_symmetry_Int_Tables_number	1
_symmetry_cell_setting	triclinic
loop_
_symmetry_equiv_pos_as_xyz
  x,y,z
_cell_length_a	14.853558
_cell_length_b	14.853559
_cell_length_c	13.330367
_cell_angle_alpha	89.997552
_cell_angle_beta	89.992972
_cell_angle_gamma	83.631294
loop_
_atom_site_label
_atom_site_type_symbol
_atom_site_fract_x
_atom_site_fract_y
_atom_site_fract_z
O1	O	1.196370	0.117664	-0.083406
O2	O	0.933909	0.131694	-0.083410
O3	O	1.072155	-0.006551	-0.083407
O4	O	1.058125	0.255910	-0.083409
O5	O	1.072135	-0.006554	0.083440
O6	O	0.933889	0.131691	0.083437
O7	O	1.196350	0.117661	0.083441
Cu8	Cu	1.065118	0.124676	0.098673
Cu9	Cu	1.065142	0.124680	-0.098643
O10	O	1.058105	0.255907	0.083438
C11	C	0.900310	0.131059	0.000013
C12	C	0.800226	0.129158	0.000011
C13	C	0.753217	0.128269	-0.090941
C14	C	0.753194	0.128254	0.090962
C15	C	0.659160	0.126464	0.090964
C16	C	0.612151	0.125574	0.000011
C17	C	0.659175	0.126475	-0.090942
C18	C	0.612130	0.125554	0.181916
C19	C	0.518091	0.123762	0.181921
C20	C	0.471079	0.122879	0.090968
C21	C	0.518109	0.123781	0.000010
C22	C	0.471100	0.122891	-0.090942
C23	C	0.518127	0.123800	-0.181900
C24	C	0.612163	0.125592	-0.181896
C25	C	0.377042	0.121087	0.090963
C26	C	0.377058	0.121098	-0.090943
C27	C	1.071510	-0.040142	0.000015
C28	C	1.069609	-0.140226	0.000009
C29	C	1.061557	-0.563399	-0.090940
C30	C	1.061535	-0.563397	0.090963
C31	C	1.063328	-0.469364	0.090964
C32	C	1.064234	-0.422343	0.000012
C33	C	1.063347	-0.469356	-0.090942
C34	C	1.064206	-0.422342	0.181916
C35	C	1.065998	-0.328303	0.181921
C36	C	1.066911	-0.281282	0.090967
C37	C	1.066025	-0.328301	0.000010
C38	C	1.066932	-0.281281	-0.090943
C39	C	1.066052	-0.328299	-0.181901
C40	C	1.064260	-0.422335	-0.181895
C41	C	1.068703	-0.187246	0.090961
C42	C	1.068722	-0.187239	-0.090945
C43	C	1.229949	0.118297	0.000016
C44	C	1.330033	0.120197	0.000011
C45	C	1.058749	0.289497	0.000014
C46	C	1.060650	0.389581	0.000013
N47	N	1.065108	0.124673	0.237455
N48	N	1.065159	0.124676	-0.237424
C49	C	1.003924	0.185871	0.710076
C50	C	1.126384	0.063481	0.710047
C51	C	1.126373	0.063479	0.605029
C52	C	1.065139	0.124674	0.552529
C53	C	1.003914	0.185872	0.605048
C54	C	1.187603	0.002288	0.552502
C55	C	1.187596	0.002284	0.447477
C56	C	1.126356	0.063475	0.394976
C57	C	1.065128	0.124675	0.447501
C58	C	1.003893	0.185870	0.395002
C59	C	0.942660	0.247066	0.447525
C60	C	0.942674	0.247063	0.552547
C61	C	1.126343	0.063478	0.289954
C62	C	1.003883	0.185871	0.289974
H63	H	0.338756	0.120356	0.165020
H64	H	1.060844	-0.601685	-0.164996
H65	H	0.479809	0.123022	0.255985
H66	H	0.892806	0.296895	0.404768
H67	H	0.791475	0.128972	0.165011
H68	H	0.892821	0.296887	0.595318
C69	C	1.069719	-0.135523	-0.190994
H70	H	1.068932	-0.176995	-0.245160
H71	H	1.122946	-0.105648	-0.194776
H72	H	1.017876	-0.092030	-0.194778
C73	C	0.663839	0.126534	0.281953
H74	H	0.726577	0.127743	0.268924
H75	H	0.655245	0.073705	0.319323
H76	H	0.641606	0.178775	0.319325
C77	C	1.254940	-0.065036	0.389711
H78	H	1.291405	-0.101485	0.436020
H79	H	1.292501	-0.032543	0.348723
H80	H	1.222453	-0.102627	0.348759
H81	H	1.237463	-0.047531	0.595250
C82	C	1.193736	-0.003827	0.767793
H83	H	1.184971	0.004935	0.837863
H84	H	1.253912	0.006068	0.750565
H85	H	1.183865	-0.064017	0.750591
C86	C	0.325350	0.120122	-0.190990
H87	H	0.262609	0.118929	-0.177967
H88	H	0.347582	0.067891	-0.228368
H89	H	0.333948	0.172961	-0.228350
C90	C	1.066969	-0.276588	0.281966
H91	H	1.068160	-0.213847	0.268941
H92	H	1.119199	-0.298814	0.319341
H93	H	1.014130	-0.285184	0.319330
C94	C	1.063281	-0.474055	-0.281937
H95	H	1.062073	-0.536792	-0.268907
H96	H	1.116108	-0.465463	-0.319314
H97	H	1.011039	-0.451826	-0.319303
C98	C	0.466411	0.122822	-0.281942
H99	H	0.403672	0.121627	-0.268908
H100	H	0.488639	0.070591	-0.319322
H101	H	0.475002	0.175660	-0.319305
C102	C	0.663896	0.126577	-0.281938
H103	H	0.726635	0.127760	-0.268909
H104	H	0.641683	0.178815	-0.319314
H105	H	0.655301	0.073745	-0.319304
C106	C	1.060541	-0.615117	0.191002
H107	H	1.059353	-0.677856	0.177977
H108	H	1.008303	-0.592893	0.228379
H109	H	1.113372	-0.606522	0.228366
C110	C	1.067048	-0.276575	-0.281945
H111	H	1.066262	-0.318039	-0.336117
H112	H	1.120275	-0.246697	-0.285720
H113	H	1.015205	-0.233082	-0.285723
H114	H	1.069399	-0.148965	0.165018
C115	C	1.063217	-0.474065	0.281954
H116	H	1.062038	-0.536805	0.268926
H117	H	1.010976	-0.451850	0.319330
H118	H	1.116046	-0.465463	0.319318
C119	C	0.936576	0.253184	0.767845
H120	H	0.945351	0.244425	0.837912
H121	H	0.876398	0.243287	0.750645
H122	H	0.946443	0.313374	0.750628
H123	H	0.791511	0.129012	-0.164997
C124	C	0.936525	0.253188	0.232232
H125	H	0.900067	0.289635	0.278556
H126	H	0.898959	0.220693	0.191268
H127	H	0.969001	0.290783	0.191259
H128	H	1.176202	0.013657	0.247194
