data_functionalizedCrystal
_audit_creation_method	'MofGen! by Chris Wilmer'
_symmetry_space_group_name_H-M	'P1'
_symmetry_Int_Tables_number	1
_symmetry_cell_setting	triclinic
loop_
_symmetry_equiv_pos_as_xyz
  x,y,z
_cell_length_a	16.992697
_cell_length_b	27.732048
_cell_length_c	15.455313
_cell_angle_alpha	92.637842
_cell_angle_beta	92.856959
_cell_angle_gamma	93.344446
loop_
_atom_site_label
_atom_site_type_symbol
_atom_site_fract_x
_atom_site_fract_y
_atom_site_fract_z
O1	O	-1.042605	0.100469	-0.072021
O2	O	-0.542605	0.600469	0.427979
O3	O	-0.814335	0.099344	-0.072050
O4	O	-0.314335	0.599344	0.427950
O5	O	-0.935559	0.029816	-0.072018
O6	O	-0.435559	0.529816	0.427982
O7	O	-0.921381	0.169996	-0.072053
O8	O	-0.421381	0.669996	0.427947
O9	O	-0.928627	0.033775	0.072242
O10	O	-0.428627	0.533775	0.572242
O11	O	-0.807403	0.103302	0.072210
O12	O	-0.307403	0.603302	0.572210
O13	O	-1.035673	0.104427	0.072240
O14	O	-0.535673	0.604427	0.572240
Cu15	Cu	-0.920905	0.104226	0.085397
Cu16	Cu	-0.420905	0.604226	0.585397
Cu17	Cu	-0.929103	0.099545	-0.085207
Cu18	Cu	-0.429103	0.599545	0.414793
O19	O	-0.914449	0.173954	0.072208
O20	O	-0.414449	0.673954	0.572208
C21	C	-0.781674	0.099877	0.000077
C22	C	-0.281674	0.599877	0.500077
C23	C	-0.694683	0.095563	0.000066
C24	C	-0.194683	0.595563	0.500066
C25	C	-0.931795	0.013776	0.000115
C26	C	-0.431795	0.513776	0.500115
C27	C	-0.930899	-0.039917	0.000122
C28	C	-0.430899	0.460083	0.500122
C29	C	-0.643939	0.137186	0.000056
C30	C	-0.143939	0.637186	0.500056
C31	C	-0.562201	0.133130	0.000068
C32	C	-0.062201	0.633130	0.500068
C33	C	-0.531209	0.087450	0.000084
C34	C	-0.031209	0.587450	0.500084
C35	C	-0.581959	0.045824	0.000097
C36	C	-0.081959	0.545824	0.500097
C37	C	-0.663695	0.049881	0.000091
C38	C	-0.163695	0.549881	0.500091
C39	C	-0.287814	0.070637	0.000107
C40	C	0.212186	0.570637	0.500107
C41	C	-0.206071	0.066583	0.000110
C42	C	0.293929	0.566583	0.500110
C43	C	-0.186318	0.153889	0.000083
C44	C	0.313682	0.653889	0.500083
C45	C	-0.268057	0.157942	0.000072
C46	C	0.231943	0.657942	0.500072
C47	C	-0.318800	0.116316	0.000089
C48	C	0.181200	0.616316	0.500089
N49	N	-0.447660	0.083303	0.000093
N50	N	0.052340	0.583303	0.500093
N51	N	-0.402347	0.120464	0.000087
N52	N	0.097653	0.620464	0.500087
C53	C	-0.996894	-0.375880	0.000086
C54	C	-0.496894	0.124120	0.500086
C55	C	-0.993570	-0.577684	0.000073
C56	C	-0.493570	-0.077684	0.500073
O57	O	-1.053918	-0.606331	0.000043
O58	O	-0.553918	-0.106331	0.500043
N59	N	-0.921688	-0.599916	0.000065
N60	N	-0.421688	-0.099916	0.500065
C61	C	-0.850633	-0.571694	0.000054
C62	C	-0.350633	-0.071694	0.500054
O63	O	-0.789418	-0.595234	0.000037
O64	O	-0.289418	-0.095234	0.500037
C65	C	-0.853959	-0.369891	0.000060
C66	C	-0.353959	0.130109	0.500060
C67	C	-0.925845	-0.347662	0.000077
C68	C	-0.425845	0.152338	0.500077
C69	C	-1.068774	-0.353651	0.000102
C70	C	-0.568774	0.146349	0.500102
C71	C	-1.069604	-0.303203	0.000110
C72	C	-0.569604	0.196797	0.500110
C73	C	-0.998555	-0.274984	0.000101
C74	C	-0.498555	0.225016	0.500101
C75	C	-0.926675	-0.297214	0.000085
C76	C	-0.426675	0.202786	0.500085
C77	C	-0.782906	-0.341670	0.000043
C78	C	-0.282906	0.158330	0.500043
C79	C	-0.783743	-0.291216	0.000042
C80	C	-0.283743	0.208784	0.500042
C81	C	-0.855629	-0.268987	0.000059
C82	C	-0.355629	0.231013	0.500059
C83	C	-0.856456	-0.218547	0.000085
C84	C	-0.356456	0.281453	0.500085
N85	N	-0.928337	-0.196315	0.000093
N86	N	-0.428337	0.303685	0.500093
C87	C	-0.999386	-0.224534	0.000101
C88	C	-0.499386	0.275466	0.500101
C89	C	-0.848892	-0.677643	0.000052
C90	C	-0.348892	-0.177643	0.500052
C91	C	-0.848061	-0.728093	0.000052
C92	C	-0.348061	-0.228093	0.500052
C93	C	-0.990997	-0.734080	0.000070
C94	C	-0.490997	-0.234080	0.500070
C95	C	-0.991828	-0.683629	0.000076
C96	C	-0.491828	-0.183629	0.500076
C97	C	-0.920774	-0.655411	0.000060
C98	C	-0.420774	-0.155411	0.500060
C99	C	-1.001124	-0.118589	0.000118
C100	C	-0.501124	0.381411	0.500118
C101	C	-1.001948	-0.068136	0.000130
C102	C	-0.501948	0.431864	0.500130
C103	C	-0.859012	-0.062154	0.000108
C104	C	-0.359012	0.437846	0.500108
C105	C	-0.858188	-0.112602	0.000101
C106	C	-0.358188	0.387398	0.500101
C107	C	-0.929251	-0.140819	0.000103
C108	C	-0.429251	0.359181	0.500103
O109	O	-0.796140	-0.189870	0.000105
O110	O	-0.296140	0.310130	0.500105
O111	O	-1.060594	-0.200985	0.000098
O112	O	-0.560594	0.299015	0.500098
C113	C	-0.996064	-0.426328	0.000078
C114	C	-0.496064	0.073672	0.500078
C115	C	-0.924184	-0.448558	0.000061
C116	C	-0.424184	0.051442	0.500061
C117	C	-0.853135	-0.420339	0.000053
C118	C	-0.353135	0.079661	0.500053
C119	C	-0.923353	-0.499008	0.000061
C120	C	-0.423353	0.000992	0.500061
C121	C	-0.994402	-0.527227	0.000070
C122	C	-0.494402	-0.027227	0.500070
C123	C	-1.066283	-0.504995	0.000078
C124	C	-0.566283	-0.004995	0.500078
C125	C	-1.067114	-0.454547	0.000086
C126	C	-0.567114	0.045453	0.500086
C127	C	-0.781254	-0.442571	0.000045
C128	C	-0.281254	0.057429	0.500045
C129	C	-0.780429	-0.493020	0.000038
C130	C	-0.280429	0.006980	0.500038
C131	C	-0.851479	-0.521238	0.000046
C132	C	-0.351479	-0.021238	0.500046
C133	C	-0.068335	0.103893	0.000107
C134	C	0.431665	0.603893	0.500107
C135	C	-0.155327	0.108206	0.000099
C136	C	0.344673	0.608206	0.500099
C137	C	-0.918213	0.189995	0.000073
C138	C	-0.418213	0.689995	0.500073
C139	C	-0.919110	0.243688	0.000060
C140	C	-0.419110	0.743688	0.500060
N141	N	-0.915145	0.107519	0.205391
N142	N	-0.415145	0.607519	0.705391
N143	N	-0.934869	0.096249	-0.205201
N144	N	-0.434869	0.596249	0.294799
C145	C	-0.966663	0.077993	0.250799
C146	C	-0.466663	0.577993	0.750799
C147	C	-0.962314	0.080488	0.341606
C148	C	-0.462314	0.580488	0.841606
C149	C	-0.906450	0.112511	0.387003
C150	C	-0.406450	0.612511	0.887003
C151	C	-0.854927	0.142037	0.341589
C152	C	-0.354927	0.642037	0.841589
C153	C	-0.859273	0.139540	0.250784
C154	C	-0.359273	0.639540	0.750784
C155	C	-0.887692	0.123278	0.658579
C156	C	-0.387692	0.623278	1.158579
C157	C	-0.883352	0.125774	0.749391
C158	C	-0.383352	0.625774	1.249391
C159	C	-0.990738	0.064224	0.749401
C160	C	-0.490738	0.564224	1.249401
C161	C	-0.995082	0.061731	0.658594
C162	C	-0.495082	0.561731	1.158594
C163	C	-0.943556	0.091256	0.613188
C164	C	-0.443556	0.591256	1.113188
N165	N	-0.902005	0.115063	0.479822
N166	N	-0.402005	0.615063	0.979822
N167	N	-0.947998	0.088701	0.520371
N168	N	-0.447998	0.588701	1.020371
H169	H	-0.520887	0.167023	0.000058
H170	H	-0.020887	0.667023	0.500058
H171	H	-0.293284	0.195139	0.000049
H172	H	0.206716	0.695139	0.500049
H173	H	-0.723395	-0.419601	0.000036
H174	H	-0.223395	0.080399	0.500036
H175	H	-0.721887	-0.511114	0.000032
H176	H	-0.221887	-0.011114	0.500032
O177	O	-0.803709	0.171381	0.201793
O178	O	-0.303709	0.671381	0.701793
H179	H	-0.812401	0.209915	0.219188
H180	H	-0.312401	0.709915	0.719188
H181	H	-0.801166	-0.039169	0.000104
H182	H	-0.301166	0.460831	0.500104
O183	O	-0.548534	-0.003445	0.000122
O184	O	-0.048534	0.496555	0.500122
H185	H	-0.571781	-0.025216	-0.058665
H186	H	-0.071781	0.474784	0.441335
O187	O	-0.172643	0.017312	0.000141
O188	O	0.327357	0.517312	0.500141
H189	H	-0.138700	0.011757	-0.058658
H190	H	0.361300	0.511757	0.441342
H191	H	-1.058991	-0.141557	0.000117
H192	H	-0.558991	0.358443	0.500117
H193	H	-0.809438	0.168109	0.378557
H194	H	-0.309438	0.668109	0.878557
O195	O	-1.026903	0.043442	0.201842
O196	O	-0.526903	0.543442	0.701842
H197	H	-1.021271	0.046664	0.131070
H198	H	-0.521271	0.546664	0.631070
O199	O	-1.055328	0.027188	0.609629
O200	O	-0.555328	0.527188	1.109629
H201	H	-1.090417	0.007072	0.656461
H202	H	-0.590417	0.507072	1.156461
H203	H	-1.004263	0.056446	0.378576
H204	H	-0.504263	0.556446	0.878576
H205	H	-0.845739	0.147319	0.621617
H206	H	-0.345739	0.647319	1.121617
O207	O	-1.046305	0.032376	0.798372
O208	O	-0.546305	0.532376	1.298372
H209	H	-1.033896	0.039488	0.869142
H210	H	-0.533896	0.539488	1.369142
H211	H	-0.837858	0.151853	0.786349
H212	H	-0.337858	0.651853	1.286349
H213	H	-0.669165	0.174383	0.000043
H214	H	-0.169165	0.674383	0.500043
H215	H	-1.060488	-0.050039	0.000146
H216	H	-0.560488	0.449961	0.500146
H217	H	-1.125650	-0.436452	0.000100
H218	H	-0.625650	0.063548	0.500100
H219	H	-0.144994	0.187779	0.000070
H220	H	0.355006	0.687779	0.500070
H221	H	-0.329120	0.036742	0.000122
H222	H	0.170880	0.536742	0.500122
H223	H	-0.705012	0.015987	0.000099
H224	H	-0.205012	0.515987	0.500099
H225	H	-1.128141	-0.285108	0.000120
H226	H	-0.628141	0.214892	0.500120
H227	H	-1.126635	-0.376621	0.000105
H228	H	-0.626635	0.123379	0.500105
H229	H	-1.048848	-0.757064	0.000077
H230	H	-0.548848	-0.257064	0.500077
O231	O	-1.069360	-0.659654	0.000078
O232	O	-0.569360	-0.159654	0.500078
H233	H	-1.118622	-0.687757	0.000077
H234	H	-0.618622	-0.187757	0.500077
O235	O	-0.770527	-0.752068	0.000045
O236	O	-0.270527	-0.252068	0.500045
H237	H	-0.721267	-0.723965	0.000031
H238	H	-0.221267	-0.223965	0.500031
H239	H	-1.124134	-0.527979	0.000089
H240	H	-0.624134	-0.027979	0.500089
H241	H	-0.725881	-0.268244	0.000028
H242	H	-0.225881	0.231756	0.500028
O243	O	-0.772250	-0.647210	0.000054
O244	O	-0.272250	-0.147210	0.500054
H245	H	-0.722133	-0.671149	0.000061
H246	H	-0.222133	-0.171149	0.500061
H247	H	-0.799652	-0.130701	0.000111
H248	H	-0.299652	0.369299	0.500111
O249	O	-0.705372	-0.365639	0.000021
O250	O	-0.205372	0.134361	0.500021
H251	H	-0.656115	-0.337534	0.000005
H252	H	-0.156115	0.162466	0.500005
