data_functionalizedCrystal
_audit_creation_method	'MofGen! by Chris Wilmer'
_symmetry_space_group_name_H-M	'P1'
_symmetry_Int_Tables_number	1
_symmetry_cell_setting	triclinic
loop_
_symmetry_equiv_pos_as_xyz
  x,y,z
_cell_length_a	25.639242
_cell_length_b	12.759400
_cell_length_c	12.759393
_cell_angle_alpha	90.029816
_cell_angle_beta	90.032165
_cell_angle_gamma	90.008688
loop_
_atom_site_label
_atom_site_type_symbol
_atom_site_fract_x
_atom_site_fract_y
_atom_site_fract_z
Zn1	Zn	-0.799361	0.418359	-0.594357
Zn2	Zn	-0.299361	0.918359	-0.094357
Zn3	Zn	-0.799308	0.594076	-0.418681
Zn4	Zn	-0.299308	1.094076	0.081319
Zn5	Zn	-0.711923	0.418396	-0.418656
Zn6	Zn	-0.211923	0.918396	0.081344
Zn7	Zn	-0.711920	0.593980	-0.594282
Zn8	Zn	-0.211920	1.093980	-0.094282
O9	O	-0.755628	0.506203	-0.506494
O10	O	-0.255628	1.006203	-0.006494
O11	O	-0.872519	0.441693	-0.571095
O12	O	-0.372519	0.941693	-0.071095
O13	O	-0.787696	0.570828	-0.271656
O14	O	-0.287696	1.070828	0.228344
O15	O	-0.723546	0.271370	-0.441984
O16	O	-0.223546	0.771370	0.058016
O17	O	-0.872480	0.570792	-0.442026
O18	O	-0.372480	1.070792	0.057974
O19	O	-0.787785	0.271343	-0.571071
O20	O	-0.287785	0.771343	-0.071071
O21	O	-0.723495	0.441756	-0.271638
O22	O	-0.223495	0.941756	0.228362
O23	O	-0.638758	0.441663	-0.441912
O24	O	-0.138758	0.941663	0.058088
O25	O	-0.723539	0.570628	-0.741313
O26	O	-0.223539	1.070628	-0.241313
O27	O	-0.638755	0.570664	-0.570943
O28	O	-0.138755	1.070664	-0.070943
O29	O	-0.787782	0.441600	-0.741368
O30	O	-0.287782	0.941600	-0.241368
O31	O	-0.787692	0.741085	-0.441954
O32	O	-0.287692	1.241085	0.058046
O33	O	-0.723488	0.741014	-0.570967
O34	O	-0.223488	1.241014	-0.070967
C35	C	-0.619785	0.506157	-0.506417
C36	C	-0.119785	1.006157	-0.006417
C37	C	-0.561671	0.506163	-0.506410
C38	C	-0.061671	1.006163	-0.006410
C39	C	-0.755598	0.779170	-0.506478
C40	C	-0.255598	1.279170	-0.006478
C41	C	-0.755634	0.895947	-0.506506
C42	C	-0.255634	1.395947	-0.006506
C43	C	-0.310470	0.438916	-0.439397
C44	C	0.189530	0.938916	0.060603
C45	C	-0.365075	0.438907	-0.439387
C46	C	0.134925	0.938907	0.060613
O47	O	-0.393305	0.381671	-0.382365
O48	O	0.106695	0.881671	0.117635
N49	N	-0.392397	0.506175	-0.506452
N50	N	0.107603	1.006175	-0.006452
C51	C	-0.365113	0.573449	-0.573540
C52	C	0.134887	1.073449	-0.073540
O53	O	-0.393367	0.630664	-0.630584
O54	O	0.106633	1.130664	-0.130584
C55	C	-0.310510	0.573452	-0.573555
C56	C	0.189490	1.073452	-0.073555
C57	C	-0.283190	0.506187	-0.506477
C58	C	0.216810	1.006187	-0.006477
C59	C	-0.283151	0.371656	-0.372325
C60	C	0.216849	0.871656	0.127675
C61	C	-0.228550	0.371667	-0.372334
C62	C	0.271450	0.871667	0.127666
C63	C	-0.201269	0.438938	-0.439415
C64	C	0.298731	0.938938	0.060585
C65	C	-0.228589	0.506198	-0.506486
C66	C	0.271411	1.006198	-0.006486
C67	C	-0.283226	0.640720	-0.640647
C68	C	0.216774	1.140720	-0.140647
C69	C	-0.228619	0.640717	-0.640656
C70	C	0.271381	1.140717	-0.140656
C71	C	-0.201299	0.573452	-0.573579
C72	C	0.298701	1.073452	-0.073579
C73	C	-0.146708	0.573480	-0.573575
C74	C	0.353292	1.073480	-0.073575
N75	N	-0.119385	0.506212	-0.506510
N76	N	0.380615	1.006212	-0.006510
C77	C	-0.146666	0.438941	-0.439429
C78	C	0.353334	0.938941	0.060571
C79	C	-0.479783	0.573436	-0.573506
C80	C	0.020217	1.073436	-0.073506
C81	C	-0.534386	0.573439	-0.573486
C82	C	-0.034386	1.073439	-0.073486
C83	C	-0.534344	0.438895	-0.439334
C84	C	-0.034344	0.938895	0.060666
C85	C	-0.479741	0.438898	-0.439349
C86	C	0.020259	0.938898	0.060651
C87	C	-0.452461	0.506168	-0.506440
C88	C	0.047539	1.006168	-0.006440
C89	C	-0.032001	0.438970	-0.439453
C90	C	0.467999	0.938970	0.060547
C91	C	0.022604	0.438990	-0.439464
C92	C	0.522604	0.938990	0.060536
C93	C	0.022558	0.573529	-0.573620
C94	C	0.522558	1.073529	-0.073620
C95	C	-0.032043	0.573513	-0.573605
C96	C	0.467957	1.073513	-0.073605
C97	C	-0.059321	0.506225	-0.506518
C98	C	0.440679	1.006225	-0.006518
O99	O	-0.118443	0.630684	-0.630571
O100	O	0.381557	1.130684	-0.130571
O101	O	-0.118405	0.381726	-0.382404
O102	O	0.381595	0.881726	0.117596
C103	C	-0.755666	0.506099	-0.780527
C104	C	-0.255666	1.006099	-0.280527
C105	C	-0.755682	0.506055	-0.897304
C106	C	-0.255682	1.006055	-0.397304
C107	C	0.107999	0.506247	-0.506556
C108	C	0.607999	1.006247	-0.006556
C109	C	0.049885	0.506261	-0.506545
C110	C	0.549885	1.006261	-0.006545
C111	C	-0.755672	0.232170	-0.506533
C112	C	-0.255672	0.732170	-0.006533
C113	C	-0.755690	0.115393	-0.506550
C114	C	-0.255690	0.615393	-0.006550
C115	C	-0.789095	1.060442	-0.573802
C116	C	-0.289095	1.560442	-0.073802
C117	C	-0.789068	0.950718	-0.573778
C118	C	-0.289068	1.450718	-0.073778
C119	C	-0.722228	0.950906	-0.439247
C120	C	-0.222228	1.450906	0.060753
C121	C	-0.722258	1.060628	-0.439266
C122	C	-0.222258	1.560628	0.060734
C123	C	-0.789146	0.438820	-1.061928
C124	C	-0.289146	0.938820	-0.561928
C125	C	-0.789136	0.438861	-0.952203
C126	C	-0.289136	0.938861	-0.452203
C127	C	-0.722239	0.573221	-0.952135
C128	C	-0.222239	1.073221	-0.452135
C129	C	-0.722252	0.573185	-1.061857
C130	C	-0.222252	1.073185	-0.561857
C131	C	-0.755620	0.506230	-0.233527
C132	C	-0.255620	1.006230	0.266473
C133	C	-0.755705	0.505978	-0.116750
C134	C	-0.255705	1.005978	0.383250
H135	H	0.044846	0.384213	-0.384839
H136	H	0.544846	0.884213	0.115161
H137	H	-0.816315	1.105029	-0.628593
H138	H	-0.316315	1.605029	-0.128593
H139	H	-0.305357	0.316870	-0.317701
H140	H	0.194643	0.816870	0.182299
H141	H	-0.695020	0.627879	-1.106495
H142	H	-0.195020	1.127879	-0.606495
H143	H	-0.816386	0.384096	-1.106619
H144	H	-0.316386	0.884096	-0.606619
C145	C	-0.825809	0.890276	-0.647762
C146	C	-0.325809	1.390276	-0.147762
H147	H	-0.845720	0.938610	-0.687839
H148	H	-0.345720	1.438610	-0.187839
H149	H	-0.848591	0.847469	-0.607621
H150	H	-0.348591	1.347469	-0.107621
H151	H	-0.805779	0.847471	-0.693488
H152	H	-0.305779	1.347471	-0.193488
H153	H	-0.695003	0.627937	-0.907427
H154	H	-0.195003	1.127937	-0.407427
H155	H	-0.206411	0.695494	-0.695295
H156	H	0.293589	1.195494	-0.195295
H157	H	-0.695007	0.906305	-0.384468
H158	H	-0.195007	1.406305	0.115532
H159	H	-0.305460	0.695495	-0.695268
H160	H	0.194540	1.195495	-0.195268
H161	H	-0.695056	1.105370	-0.384496
H162	H	-0.195056	1.605370	0.115504
H163	H	-0.816368	0.384175	-0.907572
H164	H	-0.316368	0.884175	-0.407572
H165	H	-0.556566	0.384117	-0.384716
H166	H	-0.056566	0.884117	0.115284
C167	C	-0.198505	0.297663	-0.298561
C168	C	0.301495	0.797663	0.201439
H169	H	-0.222579	0.257594	-0.258623
H170	H	0.277421	0.757594	0.241377
H171	H	-0.177185	0.337786	-0.252713
H172	H	0.322815	0.837786	0.247287
H173	H	-0.177223	0.251929	-0.338842
H174	H	0.322777	0.751929	0.161158
C175	C	-0.061999	0.364957	-0.365656
C176	C	0.438001	0.864957	0.134344
H177	H	-0.037902	0.324912	-0.325712
H178	H	0.462098	0.824912	0.174288
H179	H	-0.083315	0.319218	-0.405911
H180	H	0.416685	0.819218	0.094089
H181	H	-0.083282	0.405093	-0.319799
H182	H	0.416718	0.905093	0.180201
C183	C	-0.449694	0.364899	-0.365573
C184	C	0.050306	0.864899	0.134427
H185	H	-0.473766	0.324833	-0.325629
H186	H	0.026234	0.824833	0.174371
H187	H	-0.428372	0.405027	-0.319732
H188	H	0.071628	0.905027	0.180268
H189	H	-0.428413	0.319162	-0.405854
H190	H	0.071587	0.819162	0.094146
C191	C	-0.564432	0.647437	-0.647265
C192	C	-0.064432	1.147437	-0.147265
H193	H	-0.540359	0.687494	-0.687218
H194	H	-0.040359	1.187494	-0.187218
H195	H	-0.585719	0.693166	-0.607000
H196	H	-0.085719	1.193166	-0.107000
H197	H	-0.585747	0.607293	-0.693114
H198	H	-0.085747	1.107293	-0.193114
H199	H	-0.054288	0.628294	-0.628217
H200	H	0.445712	1.128294	-0.128217
H201	H	0.044780	0.628303	-0.628232
H202	H	0.544780	1.128303	-0.128232
C203	C	-0.449780	0.647434	-0.647314
C204	C	0.050220	1.147434	-0.147314
H205	H	-0.473877	0.687492	-0.687247
H206	H	0.026123	1.187492	-0.187247
H207	H	-0.428501	0.607295	-0.693165
H208	H	0.071499	1.107295	-0.193165
H209	H	-0.428461	0.693178	-0.607061
H210	H	0.071539	1.193178	-0.107061
