data_functionalizedCrystal
_audit_creation_method	'MofGen! by Chris Wilmer'
_symmetry_space_group_name_H-M	'P1'
_symmetry_Int_Tables_number	1
_symmetry_cell_setting	triclinic
loop_
_symmetry_equiv_pos_as_xyz
  x,y,z
_cell_length_a	16.992694
_cell_length_b	19.188930
_cell_length_c	15.455313
_cell_angle_alpha	92.650876
_cell_angle_beta	87.142206
_cell_angle_gamma	86.906503
loop_
_atom_site_label
_atom_site_type_symbol
_atom_site_fract_x
_atom_site_fract_y
_atom_site_fract_z
O1	O	1.043326	0.145160	-0.072038
O2	O	0.815047	0.143535	-0.072064
O3	O	0.935773	0.043078	-0.072033
O4	O	0.922600	0.245617	-0.072069
O5	O	0.928870	0.048798	0.072227
O6	O	0.808144	0.149255	0.072197
O7	O	1.036422	0.150879	0.072222
Cu8	Cu	0.921653	0.150589	0.085382
Cu9	Cu	0.929817	0.143825	-0.085223
O10	O	0.915696	0.251336	0.072192
C11	C	0.782390	0.144306	0.000064
C12	C	0.695368	0.138072	0.000055
C13	C	0.644922	0.198212	0.000045
C14	C	0.563155	0.192351	0.000058
C15	C	0.531836	0.126351	0.000075
C16	C	0.582288	0.066208	0.000087
C17	C	0.664053	0.072069	0.000080
C18	C	0.288320	0.102059	0.000102
C19	C	0.206548	0.096203	0.000106
C20	C	0.187420	0.222347	0.000079
C21	C	0.269188	0.228202	0.000067
C22	C	0.319633	0.168059	0.000084
N23	N	0.448257	0.120360	0.000085
N24	N	0.403210	0.174051	0.000079
C25	C	0.931895	0.019902	0.000099
C26	C	0.930614	-0.057677	0.000107
C27	C	1.001452	-0.098455	0.000119
C28	C	1.000250	-0.171350	0.000105
C29	C	0.928204	-0.203463	0.000096
C30	C	0.857356	-0.162676	0.000079
C31	C	0.858561	-0.089783	0.000085
N32	N	0.870784	-0.312744	0.049185
N33	N	0.869644	-0.381990	0.049181
C34	C	0.924569	-0.423085	0.000078
N35	N	0.980688	-0.392319	-0.049011
N36	N	0.981830	-0.323067	-0.049004
C37	C	0.926889	-0.282503	0.000090
C38	C	0.994108	-0.542904	0.000074
C39	C	0.992903	-0.615801	0.000054
C40	C	0.850007	-0.607124	0.000038
C41	C	0.851215	-0.534230	0.000048
C42	C	0.923267	-0.502124	0.000070
C43	C	1.069079	0.150109	0.000093
C44	C	1.156102	0.156342	0.000096
C45	C	0.919575	0.274513	0.000057
C46	C	0.920856	0.352092	0.000044
N47	N	0.915916	0.155346	0.205376
N48	N	0.935560	0.139063	-0.205217
C49	C	0.967222	0.112686	0.250783
C50	C	0.962891	0.116291	0.341590
C51	C	0.907257	0.162559	0.386988
C52	C	0.855945	0.205221	0.341574
C53	C	0.860273	0.201613	0.250769
C54	C	0.888576	0.178116	0.658564
C55	C	0.884253	0.181723	0.749376
C56	C	0.991199	0.092792	0.749385
C57	C	0.995525	0.089190	0.658578
C58	C	0.944211	0.131849	0.613173
N59	N	0.902830	0.166246	0.479807
N60	N	0.948634	0.128158	0.520355
H61	H	0.146339	0.271312	0.000067
O62	O	0.787304	-0.193756	0.000033
C63	C	0.725034	-0.142128	0.000046
H64	H	0.748146	-0.092518	-0.027260
H65	H	0.676724	-0.161811	-0.041846
H66	H	0.699880	-0.130307	0.069251
H67	H	1.040827	0.051515	0.621617
O68	O	1.012822	0.074832	0.385563
C69	C	1.062848	0.033216	0.326022
H70	H	1.066707	0.059313	0.261282
H71	H	1.124240	0.027148	0.352249
H72	H	1.038049	-0.020465	0.316389
H73	H	0.294682	0.281946	0.000043
H74	H	0.181052	0.042455	0.000119
O75	O	1.069008	-0.211040	0.000238
C76	C	1.069008	-0.250497	0.074963
H77	H	1.005601	-0.256664	0.099855
H78	H	1.099202	-0.304256	0.058167
H79	H	1.102220	-0.222477	0.127291
O80	O	0.779967	-0.638226	0.000143
C81	C	0.733227	-0.614842	0.074864
H82	H	0.753223	-0.562166	0.099782
H83	H	0.668714	-0.609044	0.058051
H84	H	0.739949	-0.654404	0.127177
O85	O	0.838699	0.219628	0.614600
C86	C	0.788658	0.261228	0.674145
H87	H	0.817715	0.266397	0.738866
H88	H	0.777754	0.315260	0.647895
H89	H	0.730043	0.235666	0.683822
O90	O	0.337343	0.043666	0.000261
C91	C	0.381663	0.046248	0.074960
H92	H	0.349103	0.082341	0.127180
H93	H	0.389855	-0.008475	0.100043
H94	H	0.441867	0.066965	0.058061
H95	H	1.052778	-0.516763	0.000088
H96	H	1.050591	-0.649002	0.000059
H97	H	0.793530	-0.501027	0.000043
O98	O	0.551739	0.002147	0.000066
C99	C	0.468752	0.009868	0.000089
H100	H	0.450666	0.062188	-0.027233
H101	H	0.445786	-0.034301	-0.041783
H102	H	0.442699	0.007961	0.069300
O103	O	1.041006	0.051248	0.793399
C104	C	1.029539	-0.019452	0.771248
H105	H	1.002467	-0.023683	0.705320
H106	H	1.088727	-0.050641	0.768146
H107	H	0.988152	-0.041203	0.822363
O108	O	0.713169	0.013722	0.000125
C109	C	0.792054	0.033046	0.000095
H110	H	0.793696	0.089134	0.027395
H111	H	0.827240	-0.003345	0.041984
H112	H	0.819014	0.028974	-0.069115
H113	H	0.838947	0.219403	0.786335
O114	O	0.801971	0.250150	0.385806
C115	C	0.809140	0.244178	0.475690
H116	H	0.870963	0.222090	0.488091
H117	H	0.798590	0.297923	0.510183
H118	H	0.763663	0.207692	0.501479
H119	H	0.818493	0.236350	0.213800
H120	H	0.670415	0.251956	0.000031
O121	O	1.021147	0.067674	0.206611
C122	C	0.981788	0.020148	0.154150
H123	H	0.921015	0.043982	0.140526
H124	H	1.017589	0.008365	0.090303
H125	H	0.974932	-0.030331	0.189198
H126	H	0.522084	0.241323	0.000049
H127	H	0.800874	-0.056581	0.000075
O128	O	1.071512	-0.067383	0.000096
C129	C	1.133778	-0.119012	0.000127
H130	H	1.113280	-0.170779	-0.027192
H131	H	1.186102	-0.102640	-0.041745
H132	H	1.152301	-0.125364	0.069340
