data_functionalizedCrystal
_audit_creation_method	'MofGen! by Chris Wilmer'
_symmetry_space_group_name_H-M	'P1'
_symmetry_Int_Tables_number	1
_symmetry_cell_setting	triclinic
loop_
_symmetry_equiv_pos_as_xyz
  x,y,z
_cell_length_a	12.827893
_cell_length_b	12.827892
_cell_length_c	19.805399
_cell_angle_alpha	90.022529
_cell_angle_beta	90.016454
_cell_angle_gamma	90.015363
loop_
_atom_site_label
_atom_site_type_symbol
_atom_site_fract_x
_atom_site_fract_y
_atom_site_fract_z
Zn1	Zn	1.597642	-0.416058	0.382687
Zn2	Zn	2.097642	0.083942	0.882687
Zn3	Zn	1.597545	-0.590813	0.269509
Zn4	Zn	2.097545	-0.090813	0.769509
Zn5	Zn	1.422892	-0.416087	0.269518
Zn6	Zn	1.922892	0.083913	0.769518
Zn7	Zn	1.422869	-0.590758	0.382662
Zn8	Zn	1.922869	-0.090758	0.882662
O9	O	1.510237	-0.503429	0.326094
O10	O	2.010237	-0.003429	0.826094
O11	O	1.743866	-0.439251	0.367681
O12	O	2.243866	0.060749	0.867681
O13	O	1.574345	-0.567671	0.174793
O14	O	2.074345	-0.067671	0.674793
O15	O	1.446123	-0.269847	0.284544
O16	O	1.946123	0.230153	0.784544
O17	O	1.743794	-0.567643	0.284529
O18	O	2.243794	-0.067643	0.784529
O19	O	1.574512	-0.269826	0.367689
O20	O	2.074512	0.230174	0.867689
O21	O	1.446029	-0.439300	0.174800
O22	O	1.946029	0.060700	0.674800
O23	O	1.276653	-0.439246	0.284520
O24	O	1.776653	0.060754	0.784520
O25	O	1.446085	-0.567548	0.477382
O26	O	1.946085	-0.067548	0.977382
O27	O	1.276636	-0.567576	0.367646
O28	O	1.776636	-0.067576	0.867646
O29	O	1.574490	-0.439197	0.477400
O30	O	2.074490	0.060803	0.977400
O31	O	1.574323	-0.737042	0.284504
O32	O	2.074323	-0.237042	0.784504
O33	O	1.445990	-0.737001	0.367637
O34	O	1.945990	-0.237001	0.867637
C35	C	1.238727	-0.503409	0.326082
C36	C	1.738727	-0.003409	0.826082
C37	C	1.122574	-0.503425	0.326092
C38	C	1.622574	-0.003425	0.826092
C39	C	1.510172	-0.774939	0.326082
C40	C	2.010172	-0.274939	0.826082
C41	C	1.510239	-0.891092	0.326099
C42	C	2.010239	-0.391092	0.826099
C43	C	1.070754	-0.566860	0.284892
C44	C	1.570754	-0.066860	0.784892
C45	C	0.950704	-0.566879	0.284902
C46	C	1.450704	-0.066879	0.784902
C47	C	1.573818	-0.942862	0.285008
C48	C	2.073818	-0.442862	0.785008
C49	C	1.573889	-1.062913	0.285025
C50	C	2.073889	-0.562913	0.785025
C51	C	1.782807	-0.503450	0.326107
C52	C	2.282807	-0.003450	0.826107
C53	C	1.898960	-0.503459	0.326112
C54	C	2.398960	-0.003459	0.826112
C55	C	1.510296	-0.503363	0.502637
C56	C	2.010296	-0.003363	1.002637
C57	C	1.510321	-0.503335	0.577869
C58	C	2.010321	-0.003335	1.077869
C59	C	1.510331	-0.230859	0.326121
C60	C	2.010331	0.269141	0.826121
C61	C	1.510371	-0.114706	0.326132
C62	C	2.010371	0.385294	0.826132
C63	C	1.510239	-0.503419	0.150238
C64	C	2.010239	-0.003419	0.650238
C65	C	1.510416	-0.503153	0.075006
C66	C	2.010416	-0.003153	0.575006
C67	C	1.577183	-0.436499	0.613224
C68	C	2.077183	0.063501	1.113224
C69	C	1.577193	-0.436469	0.683912
C70	C	2.077193	0.063531	1.183912
C71	C	1.510347	-0.503281	0.719244
C72	C	2.010347	-0.003281	1.219244
C73	C	1.443477	-0.570119	0.683884
C74	C	1.943477	-0.070119	1.183884
C75	C	1.443462	-0.570143	0.613197
C76	C	1.943462	-0.070143	1.113197
C77	C	1.443536	-0.570022	0.968958
C78	C	1.943536	-0.070022	1.468958
C79	C	1.443559	-0.569995	1.039650
C80	C	1.943559	-0.069995	1.539650
C81	C	1.577268	-0.436347	1.039673
C82	C	2.077268	0.063653	1.539673
C83	C	1.577252	-0.436372	0.968986
C84	C	2.077252	0.063628	1.468986
C85	C	1.510380	-0.503206	0.933632
C86	C	2.010380	-0.003206	1.433632
C87	C	1.510367	-0.503237	0.856983
C88	C	2.010367	-0.003237	1.356983
C89	C	1.510363	-0.503256	0.795892
C90	C	2.010363	-0.003256	1.295892
H91	H	1.115266	-0.621158	0.249613
H92	H	1.615266	-0.121158	0.749613
H93	H	1.455864	-0.935646	0.361294
H94	H	1.955864	-0.435646	0.861294
Br95	Br	1.419630	-1.040515	0.384767
Br96	Br	1.919630	-0.540515	0.884767
Br97	Br	0.973222	-0.412923	0.384903
Br98	Br	1.473222	0.087077	0.884903
Br99	Br	1.667982	-0.345702	0.921038
Br100	Br	2.167982	0.154298	1.421038
Br101	Br	0.876435	-0.657394	0.226101
Br102	Br	1.376435	-0.157394	0.726101
Br103	Br	1.664469	-0.868614	0.226355
Br104	Br	2.164469	-0.368614	0.726355
Br105	Br	1.667988	-0.345808	0.731892
Br106	Br	2.167988	0.154192	1.231892
H107	H	1.631621	-0.382097	0.584461
H108	H	2.131621	0.117903	1.084461
Br109	Br	1.664611	-1.137110	0.226381
Br110	Br	2.164611	-0.637110	0.726381
Br111	Br	1.668024	-0.345640	1.087656
Br112	Br	2.168024	0.154360	1.587656
H113	H	1.078062	-0.449134	0.361375
H114	H	1.578062	0.050866	0.861375
H115	H	1.389119	-0.624403	1.068416
H116	H	1.889119	-0.124403	1.568416
H117	H	1.389099	-0.624458	0.940181
H118	H	1.889099	-0.124458	1.440181
Br119	Br	1.352748	-0.660787	0.731834
Br120	Br	1.852748	-0.160787	1.231834
H121	H	1.389005	-0.624557	0.584412
H122	H	1.889005	-0.124557	1.084412
