data_functionalizedCrystal
_audit_creation_method	'MofGen! by Chris Wilmer'
_symmetry_space_group_name_H-M	'P1'
_symmetry_Int_Tables_number	1
_symmetry_cell_setting	triclinic
loop_
_symmetry_equiv_pos_as_xyz
  x,y,z
_cell_length_a	10.654546
_cell_length_b	10.654551
_cell_length_c	9.130313
_cell_angle_alpha	89.996157
_cell_angle_beta	89.992916
_cell_angle_gamma	95.515557
loop_
_atom_site_label
_atom_site_type_symbol
_atom_site_fract_x
_atom_site_fract_y
_atom_site_fract_z
O1	O	-1.667836	0.176369	0.122048
O2	O	-1.302357	0.193179	0.121993
O3	O	-1.493499	0.002035	0.122023
O4	O	-1.476694	0.367513	0.122019
O5	O	-1.493499	0.002048	-0.121576
O6	O	-1.302357	0.193193	-0.121605
O7	O	-1.667836	0.176382	-0.121551
Cu8	Cu	-1.485096	0.184788	-0.143821
Cu9	Cu	-1.485097	0.184773	0.144263
O10	O	-1.476694	0.367527	-0.121580
C11	C	-1.255559	0.191952	0.000187
C12	C	-1.116116	0.188262	0.000167
C13	C	-1.492265	-0.044757	0.000226
C14	C	-1.488572	-0.184200	0.000236
C15	C	-1.036630	0.300805	0.000181
C16	C	-0.905609	0.297330	0.000195
C17	C	-0.933572	0.068760	0.000188
C18	C	-1.064590	0.072236	0.000163
C19	C	-1.020485	0.432768	0.000191
C20	C	-0.889464	0.429293	0.000206
C21	C	-1.486840	-0.249719	0.133019
C22	C	-1.483360	-0.380739	0.133011
C23	C	-1.483349	-0.380710	-0.132573
C24	C	-1.486821	-0.249691	-0.132565
C25	C	-1.486852	-0.249737	0.286352
C26	C	-1.483372	-0.380758	0.286345
C27	C	-0.714634	0.177612	0.000238
C28	C	-0.854076	0.181311	0.000206
C29	C	-1.477928	0.414318	0.000219
C30	C	-1.481621	0.553761	0.000220
N31	N	-1.485105	0.184799	-0.346443
C32	C	-1.400446	0.269374	-0.576484
C33	C	-1.400446	0.269395	-0.423147
C34	C	-1.569761	0.100168	-0.423084
C35	C	-1.569754	0.100142	-0.576418
C36	C	-1.302697	0.367080	-0.576519
C37	C	-1.302697	0.367101	-0.423182
N38	N	-1.485098	0.184753	0.346886
H39	H	-1.129304	-0.019407	0.000130
H40	H	-0.843793	0.469180	-0.104967
H41	H	-1.324142	0.463643	-0.381594
H42	H	-1.481921	-0.434049	-0.240695
C43	C	-1.068665	0.489561	0.142241
H44	H	-1.157687	0.490033	0.137379
H45	H	-1.030855	0.573446	0.153456
H46	H	-1.047191	0.440228	0.223525
C47	C	-0.833099	0.496284	0.138034
H48	H	-0.898827	0.526198	0.194705
H49	H	-0.775053	0.565344	0.109892
H50	H	-0.790665	0.438574	0.194583
C51	C	-1.610604	-0.209786	0.350592
H52	H	-1.608797	-0.120483	0.348381
H53	H	-1.619588	-0.238421	0.448909
H54	H	-1.679784	-0.245792	0.294075
H55	H	-1.211508	0.336528	-0.375622
H56	H	-1.488224	-0.196350	-0.240689
C57	C	-0.876889	-0.058858	0.000198
H58	H	-0.787474	-0.044812	0.000224
H59	H	-0.904086	-0.105243	-0.084750
H60	H	-0.904124	-0.105245	0.085157
H61	H	-1.400062	-0.203459	0.345219
C62	C	-1.600618	-0.443315	0.365870
H63	H	-1.598244	-0.532223	0.365875
H64	H	-1.674520	-0.422632	0.316841
H65	H	-1.601406	-0.413696	0.463973
H66	H	-1.206180	0.345568	-0.618128
C67	C	-1.662865	0.007054	-0.660707
H68	H	-1.713290	-0.043321	-0.593066
H69	H	-1.617232	-0.045653	-0.720513
H70	H	-1.715541	0.052714	-0.720529
C71	C	-1.060118	0.502507	-0.137516
H72	H	-0.987509	0.528816	-0.194144
H73	H	-1.100902	0.574164	-0.109194
H74	H	-1.116381	0.447550	-0.194180
C75	C	-1.359638	-0.420714	0.350611
H76	H	-1.306947	-0.347845	0.379245
H77	H	-1.317679	-0.465773	0.278724
H78	H	-1.377958	-0.473162	0.433532
C79	C	-1.662889	0.007118	-0.338715
H80	H	-1.650777	0.019258	-0.236419
H81	H	-1.648533	-0.076836	-0.363817
H82	H	-1.746823	0.021549	-0.363845
H83	H	-1.333220	0.458282	-0.624105
