data_functionalizedCrystal
_audit_creation_method	'MofGen! by Chris Wilmer'
_symmetry_space_group_name_H-M	'P1'
_symmetry_Int_Tables_number	1
_symmetry_cell_setting	triclinic
loop_
_symmetry_equiv_pos_as_xyz
  x,y,z
_cell_length_a	21.295418
_cell_length_b	18.215405
_cell_length_c	18.215399
_cell_angle_alpha	90.030551
_cell_angle_beta	89.961117
_cell_angle_gamma	89.959302
loop_
_atom_site_label
_atom_site_type_symbol
_atom_site_fract_x
_atom_site_fract_y
_atom_site_fract_z
Zn1	Zn	0.962350	0.292681	-0.416477
Zn2	Zn	1.295684	0.626014	-0.083143
Zn3	Zn	1.629017	0.959348	0.250190
Zn4	Zn	0.962272	0.415752	-0.293405
Zn5	Zn	1.295605	0.749086	0.039928
Zn6	Zn	1.628939	1.082419	0.373262
Zn7	Zn	0.857082	0.292738	-0.293383
Zn8	Zn	1.190416	0.626072	0.039950
Zn9	Zn	1.523749	0.959405	0.373283
Zn10	Zn	0.857053	0.415744	-0.416389
Zn11	Zn	1.190386	0.749078	-0.083056
Zn12	Zn	1.523720	1.082411	0.250278
O13	O	0.909689	0.354229	-0.354913
O14	O	1.243023	0.687562	-0.021580
O15	O	1.576356	1.020896	0.311753
O16	O	1.050429	0.308986	-0.400197
O17	O	1.383763	0.642320	-0.066864
O18	O	1.717096	0.975653	0.266470
O19	O	0.948298	0.399462	-0.190418
O20	O	1.281631	0.732795	0.142916
O21	O	1.614964	1.066128	0.476249
O22	O	0.871091	0.189746	-0.309740
O23	O	1.204425	0.523080	0.023594
O24	O	1.537758	0.856413	0.356927
O25	O	1.050372	0.399406	-0.309776
O26	O	1.383705	0.732740	0.023557
O27	O	1.717038	1.066073	0.356890
O28	O	0.948431	0.189704	-0.400176
O29	O	1.281765	0.523038	-0.066843
O30	O	1.615098	0.856371	0.266491
O31	O	0.871015	0.309084	-0.190402
O32	O	1.204349	0.642417	0.142932
O33	O	1.537682	0.975750	0.476265
O34	O	0.768989	0.309076	-0.309654
O35	O	1.102322	0.642409	0.023679
O36	O	1.435656	0.975743	0.357012
O37	O	0.871042	0.399393	-0.519385
O38	O	1.204375	0.732726	-0.186052
O39	O	1.537708	1.066059	0.147282
O40	O	0.768968	0.399448	-0.400026
O41	O	1.102301	0.732781	-0.066693
O42	O	1.435634	1.066115	0.266641
O43	O	0.948403	0.308979	-0.519449
O44	O	1.281736	0.642312	-0.186116
O45	O	1.615070	0.975645	0.147217
O46	O	0.948269	0.518736	-0.309691
O47	O	1.281603	0.852069	0.023642
O48	O	1.614936	1.185402	0.356975
O49	O	0.870966	0.518730	-0.400047
O50	O	1.204299	0.852063	-0.066714
O51	O	1.537632	1.185396	0.266620
C52	C	0.909623	0.545435	-0.354878
C53	C	1.242956	0.878769	-0.021545
C54	C	1.576290	1.212102	0.311789
C55	C	0.909652	0.627234	-0.354887
C56	C	1.242985	0.960568	-0.021554
C57	C	1.576319	1.293901	0.311779
C58	C	0.746138	0.354268	-0.354829
C59	C	1.079471	0.687601	-0.021495
C60	C	1.412804	1.020934	0.311838
C61	C	0.676170	0.354302	-0.354810
C62	C	1.009503	0.687635	-0.021477
C63	C	1.342836	1.020969	0.311857
C64	C	0.909728	0.354178	-0.546866
C65	C	1.243061	0.687512	-0.213533
C66	C	1.576394	1.020845	0.119800
C67	C	0.909744	0.354157	-0.628665
C68	C	1.243077	0.687490	-0.295332
C69	C	1.576411	1.020823	0.038001
C70	C	0.643308	0.401421	-0.401796
C71	C	0.976642	0.734754	-0.068463
C72	C	1.309975	1.068088	0.264871
C73	C	0.577566	0.401403	-0.401829
C74	C	0.910899	0.734736	-0.068496
C75	C	1.244232	1.068070	0.264837
C76	C	0.544687	0.354274	-0.354863
C77	C	0.878020	0.687607	-0.021530
C78	C	1.211354	1.020940	0.311804
C79	C	0.577556	0.307145	-0.307873
C80	C	0.910890	0.640479	0.025460
C81	C	1.244223	0.973812	0.358793
C82	C	0.643298	0.307160	-0.307847
C83	C	0.976631	0.640493	0.025486
C84	C	1.309964	0.973826	0.358820
N85	N	0.441415	0.348525	-0.290496
N86	N	0.774749	0.681858	0.042838
N87	N	1.108082	1.015192	0.376171
N88	N	0.378964	0.348516	-0.290523
N89	N	0.712297	0.681849	0.042811
N90	N	1.045631	1.015183	0.376144
C91	C	0.346612	0.354227	-0.354941
C92	C	0.679946	0.687560	-0.021608
C93	C	1.013279	1.020893	0.311726
N94	N	0.379072	0.359961	-0.419332
N95	N	0.712405	0.693295	-0.085999
N96	N	1.045738	1.026628	0.247334
N97	N	0.441529	0.359974	-0.419304
N98	N	0.774862	0.693308	-0.085971
N99	N	1.108196	1.026641	0.247362
C100	C	0.473402	0.354252	-0.354887
C101	C	0.806735	0.687586	-0.021553
C102	C	1.140068	1.020919	0.311780
C103	C	0.242466	0.401329	-0.401967
C104	C	0.575799	0.734662	-0.068634
C105	C	0.909132	1.067995	0.264700
C106	C	0.176722	0.401305	-0.402001
C107	C	0.510055	0.734639	-0.068668
C108	C	0.843389	1.067972	0.264665
C109	C	0.176714	0.307051	-0.308039
C110	C	0.510047	0.640385	0.025294
C111	C	0.843380	0.973718	0.358628
C112	C	0.242456	0.307071	-0.308011
C113	C	0.575790	0.640404	0.025322
C114	C	0.909123	0.973737	0.358656
C115	C	0.275328	0.354213	-0.354974
C116	C	0.608662	0.687547	-0.021641
C117	C	0.941995	1.020880	0.311692
C118	C	1.073880	0.354191	-0.354999
C119	C	1.407213	0.687524	-0.021666
C120	C	1.740546	1.020857	0.311668
C121	C	1.143848	0.354174	-0.355035
C122	C	1.477181	0.687508	-0.021702
C123	C	1.810514	1.020841	0.311631
C124	C	0.909773	0.162276	-0.354965
C125	C	1.243107	0.495609	-0.021632
C126	C	1.576440	0.828943	0.311702
C127	C	0.909809	0.080477	-0.354987
C128	C	1.243142	0.413810	-0.021654
C129	C	1.576476	0.747144	0.311680
C130	C	0.949999	0.815407	-0.307926
C131	C	1.283332	1.148740	0.025407
C132	C	1.616665	1.482073	0.358741
C133	C	0.950027	0.892265	-0.307944
C134	C	1.283360	1.225599	0.025390
C135	C	1.616693	1.558932	0.358723
C136	C	0.869461	0.892299	-0.401954
C137	C	1.202794	1.225633	-0.068621
C138	C	1.536127	1.558966	0.264713
C139	C	0.869436	0.815442	-0.401939
C140	C	1.202769	1.148775	-0.068606
C141	C	1.536103	1.482109	0.264727
C142	C	0.909704	0.776998	-0.354921
C143	C	1.243038	1.110331	-0.021588
C144	C	1.576371	1.443664	0.311746
C145	C	0.909757	0.930714	-0.354954
C146	C	1.243090	1.264047	-0.021620
C147	C	1.576424	1.597380	0.311713
C148	C	0.909787	1.014047	-0.354973
C149	C	1.243120	1.347381	-0.021640
C150	C	1.576454	1.680714	0.311693
C151	C	0.909675	0.693659	-0.354902
C152	C	1.243008	1.026992	-0.021569
C153	C	1.576342	1.360325	0.311764
C154	C	0.950041	0.307034	-0.816894
C155	C	1.283374	0.640367	-0.483561
C156	C	1.616707	0.973701	-0.150228
C157	C	0.950048	0.307013	-0.893753
C158	C	1.283381	0.640346	-0.560420
C159	C	1.616715	0.973679	-0.227086
C160	C	0.869492	0.401165	-0.893675
C161	C	1.202825	0.734499	-0.560341
C162	C	1.536159	1.067832	-0.227008
C163	C	0.869482	0.401183	-0.816817
C164	C	1.202815	0.734516	-0.483484
C165	C	1.536149	1.067849	-0.150150
C166	C	0.909760	0.354118	-0.778429
C167	C	1.243093	0.687451	-0.445096
C168	C	1.576426	1.020785	-0.111762
C169	C	0.909777	0.354079	-0.932145
C170	C	1.243111	0.687413	-0.598812
C171	C	1.576444	1.020746	-0.265479
C172	C	0.909785	0.354057	-1.015479
C173	C	1.243119	0.687390	-0.682146
C174	C	1.576452	1.020723	-0.348812
C175	C	0.909751	0.354140	-0.695090
C176	C	1.243085	0.687473	-0.361757
C177	C	1.576418	1.020806	-0.028423
C178	C	0.909687	0.354226	-0.163707
C179	C	1.243021	0.687560	0.169626
C180	C	1.576354	1.020893	0.502959
C181	C	0.909793	0.354041	-0.081909
C182	C	1.243126	0.687374	0.251425
C183	C	1.576460	1.020707	0.584758
H184	H	0.670069	0.439807	-0.440038
H185	H	1.003402	0.773141	-0.106705
H186	H	1.336735	1.106474	0.226628
H187	H	0.836623	0.784167	-0.440212
H188	H	1.169957	1.117501	-0.106879
H189	H	1.503290	1.450834	0.226455
O190	O	0.826021	0.451965	-0.775336
O191	O	1.159355	0.785298	-0.442002
O192	O	1.492688	1.118632	-0.108669
H193	H	0.854164	0.489411	-0.740315
H194	H	1.187497	0.822744	-0.406982
H195	H	1.520830	1.156077	-0.073648
O196	O	0.993495	0.933689	-0.257261
O197	O	1.326828	1.267022	0.076072
O198	O	1.660162	1.600356	0.409405
H199	H	0.986757	0.993592	-0.265177
H200	H	1.320090	1.326925	0.068156
H201	H	1.653424	1.660259	0.401490
H202	H	0.550805	0.439773	-0.440094
H203	H	0.884138	0.773106	-0.106760
H204	H	1.217472	1.106439	0.226573
H205	H	0.982836	0.268709	-0.785641
H206	H	1.316169	0.602042	-0.452308
H207	H	1.649502	0.935376	-0.118974
O208	O	0.277932	0.452145	-0.452639
O209	O	0.611265	0.785478	-0.119306
O210	O	0.944598	1.118812	0.214028
H211	H	0.307829	0.489560	-0.419634
H212	H	0.641162	0.822893	-0.086300
H213	H	0.974495	1.156227	0.247033
O214	O	0.993491	0.256231	-0.935248
O215	O	1.326824	0.589564	-0.601915
O216	O	1.660158	0.922897	-0.268582
H217	H	1.042891	0.268847	-0.920534
H218	H	1.376224	0.602180	-0.587201
H219	H	1.709557	0.935513	-0.253867
O220	O	0.542100	0.256327	-0.257199
O221	O	0.875434	0.589660	0.076135
O222	O	1.208767	0.922994	0.409468
H223	H	0.490865	0.264244	-0.265099
H224	H	0.824198	0.597577	0.068234
H225	H	1.157531	0.930910	0.401567
O226	O	0.678749	0.256340	-0.257165
O227	O	1.012082	0.589673	0.076168
O228	O	1.345416	0.923007	0.409502
H229	H	0.708644	0.289243	-0.219657
H230	H	1.041977	0.622576	0.113676
H231	H	1.375310	0.955909	0.447010
O232	O	0.826051	0.451928	-0.935078
O233	O	1.159385	0.785262	-0.601744
O234	O	1.492718	1.118595	-0.268411
H235	H	0.832828	0.444011	-0.994984
H236	H	1.166161	0.777345	-0.661651
H237	H	1.499495	1.110678	-0.328317
H238	H	0.836675	0.923610	-0.440233
H239	H	1.170008	1.256943	-0.106900
H240	H	1.503342	1.590277	0.226433
H241	H	0.149967	0.439674	-0.440268
H242	H	0.483301	0.773007	-0.106934
H243	H	0.816634	1.106341	0.226399
O244	O	0.277901	0.256252	-0.257326
O245	O	0.611234	0.589585	0.076008
O246	O	0.944568	0.922918	0.409341
H247	H	0.329138	0.264175	-0.265201
H248	H	0.662472	0.597508	0.068132
H249	H	0.995805	0.930842	0.401465
H250	H	0.149945	0.268674	-0.269801
H251	H	0.483278	0.602007	0.063532
H252	H	0.816611	0.935341	0.396865
O253	O	0.993436	0.773938	-0.257225
O254	O	1.326769	1.107271	0.076108
O255	O	1.660102	1.440605	0.409441
H256	H	1.021464	0.813562	-0.224556
H257	H	1.354798	1.146895	0.108777
H258	H	1.688131	1.480229	0.442111
