data_functionalizedCrystal
_audit_creation_method	'MofGen! by Chris Wilmer'
_symmetry_space_group_name_H-M	'P1'
_symmetry_Int_Tables_number	1
_symmetry_cell_setting	triclinic
loop_
_symmetry_equiv_pos_as_xyz
  x,y,z
_cell_length_a	13.032721
_cell_length_b	12.759401
_cell_length_c	12.759393
_cell_angle_alpha	89.981504
_cell_angle_beta	82.851972
_cell_angle_gamma	82.795696
loop_
_atom_site_label
_atom_site_type_symbol
_atom_site_fract_x
_atom_site_fract_y
_atom_site_fract_z
Zn1	Zn	-0.415970	-1.553098	0.647064
Zn2	Zn	0.084030	-1.053098	1.147064
Zn3	Zn	-0.590752	-1.530656	0.493688
Zn4	Zn	-0.090752	-1.030656	0.993688
Zn5	Zn	-0.416025	-1.377393	0.471410
Zn6	Zn	0.083975	-0.877393	0.971410
Zn7	Zn	-0.590671	-1.355063	0.669319
Zn8	Zn	-0.090671	-0.855063	1.169319
O9	O	-0.503355	-1.454052	0.570370
O10	O	-0.003355	-0.954052	1.070370
O11	O	-0.439166	-1.697140	0.626728
O12	O	0.060834	-1.197140	1.126728
O13	O	-0.567631	-1.510279	0.343719
O14	O	-0.067631	-1.010279	0.843719
O15	O	-0.269780	-1.419437	0.476074
O16	O	0.230220	-0.919437	0.976074
O17	O	-0.567577	-1.680653	0.514043
O18	O	-0.067577	-1.180653	1.014043
O19	O	-0.269740	-1.548527	0.605126
O20	O	0.230260	-1.048527	1.105126
O21	O	-0.439259	-1.397677	0.327352
O22	O	0.060741	-0.897677	0.827352
O23	O	-0.439181	-1.227411	0.497654
O24	O	0.060819	-0.727411	0.997654
O25	O	-0.567440	-1.381379	0.813381
O26	O	-0.067440	-0.881379	1.313381
O27	O	-0.567493	-1.211005	0.643057
O28	O	-0.067493	-0.711005	1.143057
O29	O	-0.439088	-1.526875	0.797030
O30	O	0.060912	-1.026875	1.297030
O31	O	-0.736978	-1.488626	0.535623
O32	O	-0.236978	-0.988626	1.035623
O33	O	-0.736919	-1.359619	0.664659
O34	O	-0.236919	-0.859619	1.164659
C35	C	-0.503335	-1.181087	0.570354
C36	C	-0.003335	-0.681087	1.070354
C37	C	-0.503352	-1.064309	0.570375
C38	C	-0.003352	-0.564309	1.070375
C39	C	-0.774866	-1.419293	0.604997
C40	C	-0.274866	-0.919293	1.104997
C41	C	-0.891020	-1.404519	0.619845
C42	C	-0.391020	-0.904519	1.119845
C43	C	-0.503249	-1.454139	0.844390
C44	C	-0.003249	-0.954139	1.344390
C45	C	-0.503204	-1.454176	0.961161
C46	C	-0.003204	-0.954176	1.461161
C47	C	-0.942800	-1.461819	0.562668
C48	C	-0.442800	-0.961819	1.062668
C49	C	-1.062851	-1.446551	0.578013
C50	C	-0.562851	-0.946551	1.078013
C51	C	-0.230782	-1.488976	0.535632
C52	C	0.269218	-0.988976	1.035632
C53	C	-0.114628	-1.503859	0.520829
C54	C	0.385372	-1.003859	1.020829
C55	C	-0.503375	-1.728083	0.570388
C56	C	-0.003375	-1.228083	1.070388
C57	C	-0.503383	-1.844859	0.570395
C58	C	-0.003383	-1.344859	1.070395
C59	C	-0.570271	-1.000918	0.645989
C60	C	-0.070271	-0.500918	1.145989
C61	C	-0.570285	-0.891192	0.646002
C62	C	-0.070285	-0.391192	1.146002
C63	C	-0.436457	-0.908258	0.494778
C64	C	0.063543	-0.408258	0.994778
C65	C	-0.436439	-1.017982	0.494770
C66	C	0.063561	-0.517982	0.994770
C67	C	-0.647539	-0.991064	0.733294
C68	C	-0.147539	-0.491064	1.233294
C69	C	-0.647552	-0.881338	0.733307
C70	C	-0.147552	-0.381338	1.233307
C71	C	-0.503384	-1.454036	0.297407
C72	C	-0.003384	-0.954036	0.797407
C73	C	-0.503135	-1.454240	0.180599
C74	C	-0.003135	-0.954240	0.680599
C75	C	-0.436365	-1.529946	1.007510
C76	C	0.063635	-1.029946	1.507510
C77	C	-0.436327	-1.529976	1.117230
C78	C	0.063673	-1.029976	1.617230
C79	C	-0.569977	-1.378462	1.134243
C80	C	-0.069977	-0.878462	1.634243
C81	C	-0.570009	-1.378429	1.024525
C82	C	-0.070009	-0.878429	1.524525
C83	C	-0.359206	-1.617424	0.997689
C84	C	0.140794	-1.117424	1.497689
C85	C	-0.359168	-1.617454	1.107409
C86	C	0.140832	-1.117454	1.607409
H87	H	-0.898256	-1.522184	0.502360
H88	H	-0.398256	-1.022184	1.002360
H89	H	-0.935567	-1.344163	0.680160
H90	H	-0.435567	-0.844163	1.180160
O91	O	-1.055636	-1.583822	0.440933
O92	O	-0.555636	-1.083822	0.940933
H93	H	-1.076438	-1.663641	0.461673
H94	H	-0.576438	-1.163641	0.961673
O95	O	-0.618937	-1.034220	0.837466
O96	O	-0.118937	-0.534220	1.337466
H97	H	-0.604937	-0.968330	0.888470
H98	H	-0.104937	-0.468330	1.388470
H99	H	-0.724379	-1.015259	0.713815
H100	H	-0.224379	-0.515259	1.213815
O101	O	-0.364316	-0.858274	0.413221
O102	O	0.135684	-0.358274	0.913221
H103	H	-0.311216	-0.815080	0.453554
H104	H	0.188784	-0.315080	0.953554
O105	O	-0.642091	-1.296693	0.974536
O106	O	-0.142091	-0.796693	1.474536
H107	H	-0.630884	-1.309386	0.887596
H108	H	-0.130884	-0.809386	1.387596
O109	O	-0.257309	-1.591930	1.139527
O110	O	0.242691	-1.091930	1.639527
H111	H	-0.203333	-1.578379	1.067825
H112	H	0.296667	-1.078379	1.567825
H113	H	-0.380844	-1.696054	1.139953
H114	H	0.119156	-1.196054	1.639953
H115	H	-0.618663	-0.851032	0.806972
H116	H	-0.118663	-0.351032	1.306972
O117	O	-0.252007	-1.602292	0.944587
O118	O	0.247993	-1.102292	1.444587
H119	H	-0.257226	-1.529470	0.896919
H120	H	0.242774	-1.029470	1.396919
H121	H	-1.107394	-1.386190	0.638333
H122	H	-0.607394	-0.886190	1.138333
O123	O	-0.364275	-1.086357	0.413206
O124	O	0.135725	-0.586357	0.913206
H125	H	-0.317765	-1.035705	0.360626
H126	H	0.182235	-0.535705	0.860626
H127	H	-0.728468	-0.841202	0.721700
H128	H	-0.228468	-0.341202	1.221700
O129	O	-0.642030	-1.296765	1.202582
O130	O	-0.142030	-0.796765	1.702582
H131	H	-0.630782	-1.309517	1.286664
H132	H	-0.130782	-0.809517	1.786664
O133	O	-0.397616	-1.714871	0.957490
O134	O	0.102384	-1.214871	1.457490
H135	H	-0.417951	-1.766564	1.024908
H136	H	0.082049	-1.266564	1.524908
