data_functionalizedCrystal
_audit_creation_method	'MofGen! by Chris Wilmer'
_symmetry_space_group_name_H-M	'P1'
_symmetry_Int_Tables_number	1
_symmetry_cell_setting	triclinic
loop_
_symmetry_equiv_pos_as_xyz
  x,y,z
_cell_length_a	6.817900
_cell_length_b	11.102289
_cell_length_c	11.168136
_cell_angle_alpha	91.983379
_cell_angle_beta	108.508683
_cell_angle_gamma	108.605707
loop_
_atom_site_label
_atom_site_type_symbol
_atom_site_fract_x
_atom_site_fract_y
_atom_site_fract_z
V1	V	-4.110388	-0.175858	-0.393699
O2	O	-4.069442	0.008431	-0.386205
O3	O	-4.087173	-0.348678	-0.391006
O4	O	-4.086671	-0.173162	-0.565405
O5	O	-4.069948	-0.168301	-0.210599
V6	V	-4.587554	-0.153814	-0.371799
O7	O	-4.385590	-0.224214	-0.441739
O8	O	-4.762549	-0.105458	-0.323759
O9	O	-4.387563	0.019006	-0.374492
O10	O	-4.745897	-0.338103	-0.379293
O11	O	-4.745391	-0.161372	-0.554899
O12	O	-4.388065	-0.156510	-0.200093
C13	C	-3.937501	-0.390808	-0.384795
C14	C	-3.999972	-0.532091	-0.383738
C15	C	-4.213309	-0.604939	-0.389540
C16	C	-4.272000	-0.737691	-0.388558
C17	C	-3.903992	-0.724732	-0.375965
C18	C	-3.845309	-0.591984	-0.376957
C19	C	-4.425774	-0.612421	-0.396805
C20	C	-4.484465	-0.745172	-0.395823
C21	C	-3.936860	-0.166917	-0.607257
C22	C	-3.998918	-0.165856	-0.747627
C23	C	-4.201443	-0.171411	-0.816319
C24	C	-4.265587	-0.170314	-0.961399
C25	C	-4.200576	0.061129	-0.380699
C26	C	-4.117346	0.202410	-0.381764
C27	C	-4.201217	-0.162759	-0.158235
C28	C	-4.118396	-0.163814	-0.017863
H29	H	-4.537374	-0.593205	-0.488638
H30	H	-3.778080	-0.773514	-0.370446
O31	O	-4.545808	-0.774738	-0.292831
C32	C	-4.598891	-0.695257	-0.106261
C33	C	-4.529324	-0.661592	-0.222825
H34	H	-4.585634	-0.603803	-0.049643
H35	H	-4.486055	-0.742135	-0.042816
H36	H	-4.776658	-0.764787	-0.140087
H37	H	-4.351600	-0.592028	-0.189113
H38	H	-4.642311	-0.614783	-0.286245
H39	H	-4.327338	-0.176970	-0.767720
O40	O	-4.425748	-0.548814	-0.290520
C41	C	-4.213320	-0.386770	-0.104846
C42	C	-4.213043	-0.458732	-0.225156
H43	H	-4.041379	-0.313903	-0.051980
H44	H	-4.262129	-0.458484	-0.039652
H45	H	-4.336729	-0.334584	-0.133896
H46	H	-4.089631	-0.510920	-0.196223
H47	H	-4.164332	-0.386957	-0.290321
O48	O	-4.641464	-0.814027	-0.507478
C49	C	-4.876124	-0.807431	-0.718368
C50	C	-4.698380	-0.729293	-0.591978
H51	H	-4.922160	-0.738957	-0.786731
H52	H	-5.028671	-0.869357	-0.698870
H53	H	-4.809003	-0.871840	-0.763104
H54	H	-4.765295	-0.664812	-0.547177
H55	H	-4.545864	-0.667450	-0.611557
H56	H	-3.944901	-0.159066	-0.958822
H57	H	-4.439086	-0.175076	-1.020450
O58	O	-3.848509	-0.158984	-0.805497
C59	C	-3.494818	-0.037257	-0.817921
C60	C	-3.664996	-0.044865	-0.752303
H61	H	-3.346387	0.054988	-0.774922
H62	H	-3.573158	-0.037467	-0.924599
H63	H	-3.438864	-0.123722	-0.802763
H64	H	-3.721013	0.041581	-0.767362
H65	H	-3.586555	-0.044716	-0.645649
O66	O	-3.638222	-0.521196	-0.371553
C67	C	-3.415281	-0.380980	-0.475226
C68	C	-3.649931	-0.461123	-0.481525
H69	H	-3.424673	-0.332368	-0.564114
H70	H	-3.314755	-0.446540	-0.470283
H71	H	-3.332699	-0.304624	-0.386555
H72	H	-3.732705	-0.537485	-0.570188
H73	H	-3.750297	-0.395480	-0.486398
