data_functionalizedCrystal
_audit_creation_method	'MofGen! by Chris Wilmer'
_symmetry_space_group_name_H-M	'P1'
_symmetry_Int_Tables_number	1
_symmetry_cell_setting	triclinic
loop_
_symmetry_equiv_pos_as_xyz
  x,y,z
_cell_length_a	10.540539
_cell_length_b	17.699083
_cell_length_c	16.776229
_cell_angle_alpha	90.001114
_cell_angle_beta	89.995514
_cell_angle_gamma	96.095747
loop_
_atom_site_label
_atom_site_type_symbol
_atom_site_fract_x
_atom_site_fract_y
_atom_site_fract_z
O1	O	0.160520	-1.005122	-0.066173
O2	O	0.660520	-0.505122	0.433827
O3	O	0.181404	-0.784880	-0.066198
O4	O	0.681404	-0.284880	0.433802
O5	O	-0.013836	-0.900026	-0.066184
O6	O	0.486164	-0.400026	0.433816
O7	O	0.355761	-0.889976	-0.066187
O8	O	0.855761	-0.389976	0.433813
O9	O	-0.013848	-0.900010	0.066393
O10	O	0.486152	-0.400010	0.566393
O11	O	0.181392	-0.784864	0.066378
O12	O	0.681392	-0.284864	0.566378
O13	O	0.160508	-1.005107	0.066404
O14	O	0.660508	-0.505107	0.566404
Zn15	Zn	0.170948	-0.894983	0.087440
Zn16	Zn	0.670948	-0.394983	0.587440
Zn17	Zn	0.170964	-0.895003	-0.087235
Zn18	Zn	0.670964	-0.395003	0.412765
O19	O	0.355749	-0.889961	0.066389
O20	O	0.855749	-0.389961	0.566389
C21	C	-0.061131	-0.899264	0.000103
C22	C	0.438869	-0.399264	0.500103
C23	C	-0.202038	-0.897009	0.000098
C24	C	0.297962	-0.397009	0.500098
C25	C	0.180650	-0.756670	0.000087
C26	C	0.680650	-0.256670	0.500087
C27	C	0.178405	-0.672637	0.000077
C28	C	0.678405	-0.172637	0.500077
C29	C	0.161263	-1.033316	0.000117
C30	C	0.661263	-0.533316	0.500117
C31	C	0.163508	-1.117349	0.000122
C32	C	0.663508	-0.617349	0.500122
C33	C	-0.383885	-0.810610	-0.000209
C34	C	0.116115	-0.310610	0.499791
C35	C	-0.237308	-0.812896	0.000089
C36	C	0.262692	-0.312896	0.500089
C37	C	-0.264443	-0.937480	0.075811
C38	C	0.235557	-0.437480	0.575811
C39	C	-0.410935	-0.934609	0.075874
C40	C	0.089065	-0.434609	0.575874
C41	C	-0.411471	-0.936337	-0.074890
C42	C	0.088529	-0.436337	0.425110
C43	C	-0.264503	-0.937112	-0.075891
C44	C	0.235497	-0.437112	0.424109
C45	C	0.403044	-0.890722	0.000101
C46	C	0.903044	-0.390722	0.500101
C47	C	0.543951	-0.892977	0.000100
C48	C	1.043951	-0.392977	0.500100
N49	N	0.170937	-0.894974	0.206652
N50	N	0.670937	-0.394974	0.706652
C51	C	0.293007	-0.624761	0.000076
C52	C	0.793007	-0.124761	0.500076
C53	C	0.290890	-0.545804	0.000086
C54	C	0.790890	-0.045804	0.500086
C55	C	0.174170	-0.514725	0.000092
C56	C	0.674170	-0.014725	0.500092
C57	C	0.059559	-0.562607	0.000095
C58	C	0.559559	-0.062607	0.500095
C59	C	0.061677	-0.641562	0.000090
C60	C	0.561677	-0.141562	0.500090
C61	C	0.051014	-0.244188	0.000115
C62	C	0.551014	0.255812	0.500115
C63	C	0.048904	-0.165226	0.000117
C64	C	0.548904	0.334774	0.500117
C65	C	0.280227	-0.148430	0.000111
C66	C	0.780227	0.351570	0.500111
C67	C	0.282345	-0.227386	0.000106
C68	C	0.782345	0.272614	0.500106
C69	C	0.167735	-0.275261	0.000113
C70	C	0.667735	0.224739	0.500113
C71	C	0.170032	-0.360875	0.000104
C72	C	0.670032	0.139125	0.500104
C73	C	0.171872	-0.429112	0.000096
C74	C	0.671872	0.070888	0.500096
N75	N	0.170966	-0.895018	-0.206446
N76	N	0.670966	-0.395018	0.293554
C77	C	0.084520	-0.945977	0.248375
C78	C	0.584520	-0.445977	0.748375
C79	C	0.084519	-0.945981	0.331827
C80	C	0.584519	-0.445981	0.831827
C81	C	0.170942	-0.894986	0.373555
C82	C	0.670942	-0.394986	0.873555
C83	C	0.257363	-0.843978	0.331825
C84	C	0.757363	-0.343978	0.831825
C85	C	0.257357	-0.843971	0.248375
C86	C	0.757357	-0.343971	0.748375
C87	C	0.257388	-0.844005	0.668372
C88	C	0.757388	-0.344005	1.168372
C89	C	0.257390	-0.844018	0.751829
C90	C	0.757390	-0.344018	1.251829
C91	C	0.084550	-0.946016	0.751825
C92	C	0.584550	-0.446016	1.251825
C93	C	0.084544	-0.946009	0.668374
C94	C	0.584544	-0.446009	1.168374
C95	C	0.170960	-0.894998	0.626652
C96	C	0.670960	-0.394998	1.126652
C97	C	0.170958	-0.894993	0.536164
C98	C	0.670958	-0.394993	1.036164
C99	C	0.170950	-0.894994	0.464041
C100	C	0.670950	-0.394994	0.964041
H101	H	-0.194118	-0.781051	-0.054185
H102	H	0.305882	-0.281051	0.445815
H103	H	-0.042309	-0.283159	0.000121
H104	H	0.457691	0.216841	0.500121
H105	H	0.014181	-0.987549	0.785804
H106	H	0.514181	-0.487549	1.285804
H107	H	0.388054	-0.650060	0.000071
H108	H	0.888054	-0.150060	0.500071
H109	H	-0.031644	-0.680543	0.000090
H110	H	0.468356	-0.180543	0.500090
O111	O	0.414495	-0.494164	0.000086
O112	O	0.914495	0.005836	0.500086
H113	H	0.496013	-0.529040	0.000072
H114	H	0.996013	-0.029040	0.500072
O115	O	0.350609	-0.789010	0.796833
O116	O	0.850609	-0.289010	1.296833
H117	H	0.336102	-0.797594	0.861871
H118	H	0.836102	-0.297594	1.361871
O119	O	-0.076998	-0.131707	0.000130
O120	O	0.423002	0.368293	0.500130
H121	H	-0.059211	-0.068761	0.000123
H122	H	0.440789	0.431239	0.500123
H123	H	0.327753	-0.802472	0.634409
H124	H	0.827753	-0.302472	1.134409
O125	O	-0.236332	-1.019301	0.079559
O126	O	0.263668	-0.519301	0.579559
H127	H	-0.183591	-1.028781	0.135313
H128	H	0.316409	-0.528781	0.635313
O129	O	-0.008725	-1.000966	0.203377
O130	O	0.491275	-0.500966	0.703377
H131	H	0.005784	-0.992394	0.138338
H132	H	0.505784	-0.492394	0.638338
O133	O	0.408234	-0.260910	0.000112
O134	O	0.908234	0.239090	0.500112
H135	H	0.487571	-0.214353	0.000125
H136	H	0.987571	0.285647	0.500125
O137	O	-0.066332	-0.529084	0.000106
O138	O	0.433668	-0.029084	0.500106
H139	H	-0.145667	-0.575643	0.000114
H140	H	0.354333	-0.075643	0.500114
H141	H	-0.442521	-0.909121	-0.132275
H142	H	0.057479	-0.409121	0.367725
O143	O	-0.209553	-0.897945	-0.150087
O144	O	0.290447	-0.397945	0.349913
H145	H	-0.254188	-0.926620	-0.203526
H146	H	0.245812	-0.426620	0.296474
O147	O	-0.420973	-0.766590	-0.072115
O148	O	0.079027	-0.266590	0.427885
H149	H	-0.491241	-0.802941	-0.108402
H150	H	0.008759	-0.302941	0.391598
H151	H	0.373548	-0.109440	0.000109
H152	H	0.873548	0.390560	0.500109
H153	H	-0.241403	-0.998438	-0.080455
H154	H	0.258597	-0.498438	0.419545
O155	O	-0.008664	-1.001004	0.376832
O156	O	0.491336	-0.501004	0.876832
H157	H	-0.068741	-1.036474	0.333797
H158	H	0.431259	-0.536474	0.833797
O159	O	-0.008675	-1.001006	0.623366
O160	O	0.491325	-0.501006	1.123366
H161	H	-0.068779	-1.036467	0.666400
H162	H	0.431221	-0.536467	1.166400
O163	O	-0.423073	-0.766764	0.071302
O164	O	0.076927	-0.266764	0.571302
H165	H	-0.493723	-0.803381	0.107065
H166	H	0.006277	-0.303381	0.607065
H167	H	0.327725	-0.802438	0.214404
H168	H	0.827725	-0.302438	0.714404
O169	O	-0.181212	-0.770419	0.072100
O170	O	0.318788	-0.270419	0.572100
H171	H	-0.258794	-0.748169	0.106850
H172	H	0.241206	-0.248169	0.606850
O173	O	-0.447586	-0.894966	0.150826
O174	O	0.052414	-0.394966	0.650826
H175	H	-0.360718	-0.878019	0.186683
H176	H	0.139282	-0.378019	0.686683
O177	O	0.350590	-0.788979	0.376825
O178	O	0.850590	-0.288979	0.876825
H179	H	0.297247	-0.751915	0.414864
H180	H	0.797247	-0.251915	0.914864
H181	H	-0.460010	-0.995102	0.079316
H182	H	0.039990	-0.495102	0.579316
H183	H	-0.221334	-0.909354	0.132147
H184	H	0.278666	-0.409354	0.632147
H185	H	-0.459808	-0.997092	-0.075392
H186	H	0.040192	-0.497092	0.424608
