data_functionalizedCrystal
_audit_creation_method	'MofGen! by Chris Wilmer'
_symmetry_space_group_name_H-M	'P1'
_symmetry_Int_Tables_number	1
_symmetry_cell_setting	triclinic
loop_
_symmetry_equiv_pos_as_xyz
  x,y,z
_cell_length_a	14.971486
_cell_length_b	10.654541
_cell_length_c	14.048226
_cell_angle_alpha	89.993817
_cell_angle_beta	89.998499
_cell_angle_gamma	84.049029
loop_
_atom_site_label
_atom_site_type_symbol
_atom_site_fract_x
_atom_site_fract_y
_atom_site_fract_z
O1	O	1.187837	0.163659	-0.079051
O2	O	0.927543	0.183258	-0.079076
O3	O	1.063676	-0.009345	-0.079057
O4	O	1.051704	0.356262	-0.079070
O5	O	1.063659	-0.009357	0.079264
O6	O	0.927526	0.183246	0.079245
O7	O	1.187820	0.163648	0.079271
Zn8	Zn	1.057671	0.173445	0.104395
Zn9	Zn	1.057692	0.173460	-0.104200
O10	O	1.051687	0.356251	0.079251
C11	C	0.894205	0.182376	0.000081
C12	C	0.794894	0.179749	0.000071
C13	C	0.738284	0.292898	0.000069
C14	C	0.644971	0.290423	0.000083
C15	C	0.608270	0.174797	0.000093
C16	C	0.664887	0.061639	0.000098
C17	C	0.758199	0.064116	0.000091
C18	C	0.470397	0.056485	0.000112
C19	C	0.377079	0.054008	0.000117
C20	C	0.357169	0.282792	0.000104
C21	C	0.450480	0.285268	0.000096
C22	C	0.507091	0.172110	0.000100
C23	C	1.062789	-0.056140	0.000103
C24	C	1.060160	-0.195555	0.000101
C25	C	1.222944	-0.225272	0.000129
C26	C	1.303097	-0.305626	0.000145
C27	C	1.300621	-0.436618	0.000142
C28	C	1.217984	-0.487256	0.000120
C29	C	1.137831	-0.406902	0.000104
C30	C	1.140315	-0.275909	0.000110
C31	C	0.975050	-0.377185	0.000069
C32	C	0.977523	-0.246194	0.000079
C33	C	0.892412	-0.427824	0.000047
C34	C	0.812257	-0.347470	0.000038
C35	C	0.814736	-0.216471	0.000042
C36	C	0.897370	-0.165839	0.000063
C37	C	1.221158	0.164530	0.000111
C38	C	1.320469	0.167157	0.000115
C39	C	1.052574	0.403045	0.000089
C40	C	1.055203	0.542460	0.000085
N41	N	1.057662	0.173434	0.246755
N42	N	1.057708	0.173461	-0.246561
C43	C	1.117961	0.088185	0.296582
C44	C	1.117967	0.088184	0.396240
C45	C	1.057678	0.173440	0.446069
C46	C	0.997373	0.258693	0.396235
C47	C	0.997363	0.258687	0.296579
C48	C	0.997398	0.258702	0.603950
C49	C	0.997409	0.258711	0.703612
C50	C	1.118003	0.088200	0.703610
C51	C	1.117993	0.088193	0.603954
C52	C	1.057688	0.173449	0.554127
H53	H	0.311071	0.374929	0.000105
H54	H	1.224967	-0.118613	0.000145
H55	H	0.516488	-0.035661	0.000116
H56	H	0.347201	-0.040145	0.000127
H57	H	0.634998	-0.032506	0.000120
O58	O	0.589939	0.400299	0.000239
C59	C	0.472991	0.530249	0.082218
C60	C	0.535278	0.405778	0.082173
H61	H	0.428768	0.534708	0.148445
H62	H	0.515201	0.613369	0.082262
H63	H	0.428846	0.534781	0.015933
H64	H	0.579434	0.401123	0.148447
H65	H	0.493014	0.322717	0.082080
H66	H	0.899396	-0.059181	0.000072
H67	H	0.480359	0.379421	0.000079
O68	O	1.383388	-0.256492	-0.000003
C69	C	1.523316	-0.241854	-0.081970
C70	C	1.432411	-0.297554	-0.081926
H71	H	1.562984	-0.275052	-0.148187
H72	H	1.511372	-0.134424	-0.082031
H73	H	1.562917	-0.274922	-0.015676
H74	H	1.392762	-0.264582	-0.148209
H75	H	1.444418	-0.404978	-0.081816
O76	O	0.731971	-0.396600	-0.000155
C77	C	0.592075	-0.411211	-0.082181
C78	C	0.682978	-0.355505	-0.082092
H79	H	0.552431	-0.377986	-0.148410
H80	H	0.604023	-0.518641	-0.082250
H81	H	0.552448	-0.378175	-0.015898
H82	H	0.722652	-0.388444	-0.148363
H83	H	0.670967	-0.248081	-0.081973
H84	H	0.768157	0.387054	0.000060
O85	O	1.176560	0.005245	0.248330
C86	C	1.296205	-0.163832	0.258857
C87	C	1.229876	-0.069985	0.313617
H88	H	1.339341	-0.224663	0.311618
H89	H	1.257245	-0.226751	0.212240
H90	H	1.341177	-0.109488	0.212162
H91	H	1.184888	-0.124227	0.360364
H92	H	1.268892	-0.007068	0.360174
O93	O	1.176424	0.005251	0.444678
C94	C	1.194441	-0.166175	0.557241
C95	C	1.128136	-0.072339	0.502432
H96	H	1.155428	-0.228913	0.603963
H97	H	1.237519	-0.227190	0.504546
H98	H	1.239476	-0.111820	0.603843
H99	H	1.083044	-0.126592	0.455829
H100	H	1.085122	-0.011325	0.555178
O101	O	1.176546	0.005207	0.751898
C102	C	1.227600	-0.213036	0.782442
C103	C	1.161260	-0.119198	0.727676
H104	H	1.215252	-0.313638	0.762894
H105	H	1.299352	-0.196596	0.762814
H106	H	1.217267	-0.198334	0.862223
H107	H	1.171511	-0.133845	0.647882
H108	H	1.089531	-0.135662	0.747383
O109	O	0.938747	0.341556	0.751871
C110	C	0.819139	0.510688	0.741363
C111	C	0.885518	0.416922	0.686592
H112	H	0.776099	0.571664	0.688609
H113	H	0.774080	0.456402	0.788002
H114	H	0.858149	0.573474	0.788037
H115	H	0.846582	0.354113	0.639866
H116	H	0.930576	0.471286	0.640013
H117	H	0.804290	-0.028022	0.000092
O118	O	0.938943	0.341572	0.555441
C119	C	0.920956	0.513084	0.442950
C120	C	0.987248	0.419286	0.497811
H121	H	0.959985	0.575958	0.396358
H122	H	0.875948	0.458826	0.396242
H123	H	0.877851	0.573968	0.495697
H124	H	1.030413	0.358378	0.445132
H125	H	1.032194	0.473621	0.544533
H126	H	0.749465	-0.151052	0.000025
O127	O	0.938681	0.341382	0.444596
C128	C	0.783614	0.414648	0.475063
C129	C	0.849982	0.320912	0.420254
H130	H	0.711888	0.398148	0.455388
H131	H	0.793903	0.400010	0.554860
H132	H	0.795929	0.515253	0.455467
H133	H	0.837709	0.220270	0.439771
H134	H	0.839678	0.335660	0.340471
H135	H	1.365889	-0.502043	0.000147
O136	O	0.938881	0.341675	0.248217
C137	C	0.887772	0.559918	0.217746
C138	C	0.954073	0.466076	0.272556
H139	H	0.900019	0.660517	0.237419
H140	H	0.898118	0.545377	0.137949
H141	H	0.816043	0.543320	0.237342
H142	H	1.025828	0.482617	0.253040
H143	H	0.943648	0.480640	0.352340
H144	H	1.215976	-0.593918	0.000106
H145	H	0.890403	-0.534485	0.000038
H146	H	1.167089	0.018778	0.563383
