data_functionalizedCrystal
_audit_creation_method	'MofGen! by Chris Wilmer'
_symmetry_space_group_name_H-M	'P1'
_symmetry_Int_Tables_number	1
_symmetry_cell_setting	triclinic
loop_
_symmetry_equiv_pos_as_xyz
  x,y,z
_cell_length_a	19.288864
_cell_length_b	15.538191
_cell_length_c	17.766277
_cell_angle_alpha	89.995273
_cell_angle_beta	89.976791
_cell_angle_gamma	65.204172
loop_
_atom_site_label
_atom_site_type_symbol
_atom_site_fract_x
_atom_site_fract_y
_atom_site_fract_z
O1	O	0.891966	0.117639	-0.062821
O2	O	1.391966	0.617639	0.437179
O3	O	0.685741	0.133508	-0.062767
O4	O	1.185741	0.633508	0.437233
O5	O	0.828996	-0.011726	-0.062808
O6	O	1.328996	0.488274	0.437192
O7	O	0.748710	0.262873	-0.062780
O8	O	1.248710	0.762873	0.437220
O9	O	0.828980	-0.011734	0.062381
O10	O	1.328980	0.488266	0.562381
O11	O	0.685724	0.133501	0.062421
O12	O	1.185724	0.633501	0.562421
O13	O	0.891949	0.117631	0.062368
O14	O	1.391949	0.617631	0.562368
Cu15	Cu	0.788835	0.125565	0.073825
Cu16	Cu	1.288835	0.625565	0.573825
Cu17	Cu	0.788855	0.125574	-0.074225
Cu18	Cu	1.288855	0.625574	0.425775
O19	O	0.748693	0.262866	0.062409
O20	O	1.248693	0.762866	0.562409
C21	C	0.659983	0.132994	-0.000166
C22	C	1.159983	0.632994	0.499834
C23	C	0.583263	0.131461	-0.000147
C24	C	1.083263	0.631461	0.499853
C25	C	0.837388	-0.046861	-0.000218
C26	C	1.337388	0.453139	0.499782
C27	C	0.862409	-0.151541	-0.000232
C28	C	1.362409	0.348459	0.499768
C29	C	0.517278	0.216678	-0.000150
C30	C	1.017278	0.716678	0.499850
C31	C	0.445191	0.215238	-0.000158
C32	C	0.945191	0.715238	0.499842
C33	C	0.439092	0.128576	-0.000179
C34	C	0.939092	0.628576	0.499821
C35	C	0.505089	0.043348	-0.000171
C36	C	1.005089	0.543348	0.499829
C37	C	0.577175	0.044790	-0.000155
C38	C	1.077175	0.544790	0.499845
C39	C	0.347855	0.060453	-0.044070
C40	C	0.847855	0.560453	0.455930
C41	C	0.275770	0.059014	-0.044091
C42	C	0.775770	0.559014	0.455909
C43	C	0.216759	0.124123	-0.000225
C44	C	0.716759	0.624123	0.499775
C45	C	0.229837	0.190688	0.043652
C46	C	0.729837	0.690688	0.543652
C47	C	0.301922	0.192130	0.043668
C48	C	0.801922	0.692130	0.543668
C49	C	0.360931	0.127002	-0.000196
C50	C	0.860931	0.627002	0.499804
C51	C	0.072607	0.207785	-0.000236
C52	C	0.572607	0.707785	0.499764
C53	C	0.000520	0.206341	-0.000240
C54	C	0.500520	0.706341	0.499760
C55	C	0.060421	0.034449	-0.000261
C56	C	0.560421	0.534449	0.499739
C57	C	0.132506	0.035895	-0.000249
C58	C	0.632506	0.535895	0.499751
C59	C	0.138594	0.122565	-0.000241
C60	C	0.638594	0.622565	0.499759
C61	C	0.613831	-0.438277	-0.000152
C62	C	1.113831	0.061723	0.499848
C63	C	0.637359	-0.536642	-0.000156
C64	C	1.137359	-0.036642	0.499844
C65	C	0.769703	-0.559647	-0.000191
C66	C	1.269703	-0.059647	0.499809
C67	C	0.746185	-0.461281	-0.000190
C68	C	1.246185	0.038719	0.499810
C69	C	0.668248	-0.400603	-0.000170
C70	C	1.168248	0.099397	0.499830
C71	C	0.800603	-0.423608	-0.000208
C72	C	1.300603	0.076392	0.499792
C73	C	0.777087	-0.325251	-0.000203
C74	C	1.277087	0.174749	0.499797
C75	C	0.699153	-0.264567	-0.000181
C76	C	1.199153	0.235433	0.499819
C77	C	0.644732	-0.302246	-0.000165
C78	C	1.144732	0.197754	0.499835
C79	C	0.878540	-0.484287	-0.000223
C80	C	1.378540	0.015713	0.499777
C81	C	0.932957	-0.446614	-0.000241
C82	C	1.432957	0.053386	0.499759
C83	C	0.909441	-0.348255	-0.000242
C84	C	1.409441	0.151745	0.499758
C85	C	0.831508	-0.287571	-0.000219
C86	C	1.331508	0.212429	0.499781
C87	C	0.963863	-0.310576	-0.000257
C88	C	1.463863	0.189424	0.499743
C89	C	0.940346	-0.212219	-0.000253
C90	C	1.440346	0.287781	0.499747
C91	C	0.807992	-0.189214	-0.000214
C92	C	1.307992	0.310786	0.499786
C93	C	0.917706	0.118146	-0.000235
C94	C	1.417706	0.618146	0.499765
C95	C	0.994427	0.119679	-0.000259
C96	C	1.494427	0.619679	0.499741
C97	C	0.740301	0.298001	-0.000183
C98	C	1.240301	0.798001	0.499817
C99	C	0.715280	0.402681	-0.000174
C100	C	1.215280	0.902681	0.499826
N101	N	0.788826	0.125559	0.177956
N102	N	1.288826	0.625559	0.677956
N103	N	0.788871	0.125573	-0.178355
N104	N	1.288871	0.625573	0.321645
C105	C	0.852267	0.061280	0.217325
C106	C	1.352267	0.561280	0.717325
C107	C	0.852272	0.061276	0.296126
C108	C	1.352272	0.561276	0.796126
C109	C	0.788839	0.125566	0.335556
C110	C	1.288839	0.625566	0.835556
C111	C	0.725387	0.189850	0.296178
C112	C	1.225387	0.689850	0.796178
C113	C	0.725381	0.189846	0.217378
C114	C	1.225381	0.689846	0.717378
C115	C	0.758075	0.211489	0.460404
C116	C	1.258075	0.711489	0.960404
C117	C	0.758086	0.211494	0.539203
C118	C	1.258086	0.711494	1.039203
C119	C	0.788854	0.125578	0.578603
C120	C	1.288854	0.625578	1.078603
C121	C	0.819627	0.039653	0.539193
C122	C	1.319627	0.539653	1.039193
C123	C	0.819621	0.039649	0.460393
C124	C	1.319621	0.539649	0.960393
C125	C	0.788838	0.125577	0.421002
C126	C	1.288838	0.625577	0.921002
C127	C	0.852305	0.061289	0.703417
C128	C	1.352305	0.561289	1.203417
C129	C	0.852305	0.061283	0.782221
C130	C	1.352305	0.561283	1.282221
C131	C	0.725422	0.189865	0.782271
C132	C	1.225422	0.689865	1.282271
C133	C	0.725420	0.189863	0.703469
C134	C	1.225420	0.689863	1.203469
C135	C	0.788865	0.125576	0.664047
C136	C	1.288865	0.625576	1.164047
H137	H	0.522228	0.287252	-0.000144
H138	H	1.022228	0.787252	0.499856
O139	O	0.723929	-0.123762	-0.000191
O140	O	1.223929	0.376238	0.499809
H141	H	0.710057	-0.078403	-0.051214
H142	H	1.210057	0.421597	0.448786
H143	H	0.903935	0.008931	0.328186
H144	H	1.403935	0.508931	0.828186
O145	O	0.673778	-0.158479	-0.000173
O146	O	1.173778	0.341521	0.499827
H147	H	0.696143	-0.137503	-0.051207
H148	H	1.196143	0.362497	0.448793
H149	H	0.833159	-0.609064	-0.000204
H150	H	1.333159	-0.109064	0.499796
O151	O	0.560669	-0.236795	-0.000145
O152	O	1.060669	0.263205	0.499855
H153	H	0.553463	-0.162073	-0.000148
H154	H	1.053463	0.337927	0.499852
O155	O	0.852689	-0.053078	0.417960
O156	O	1.352689	0.446922	0.917960
H157	H	0.807702	-0.058885	0.382152
H158	H	1.307702	0.441115	0.882152
H159	H	0.673762	0.242208	0.671413
H160	H	1.173762	0.742208	1.171413
O161	O	0.411501	-0.009772	-0.091390
O162	O	0.911501	0.490228	0.408610
H163	H	0.390294	-0.056287	-0.121912
H164	H	0.890294	0.443713	0.378088
H165	H	0.593040	-0.567310	-0.000131
H166	H	1.093040	-0.067310	0.499869
H167	H	0.391456	0.284634	-0.000159
H168	H	0.891456	0.784634	0.499841
O169	O	0.203678	-0.056022	-0.000251
O170	O	0.703678	0.443978	0.499749
H171	H	0.254828	-0.040461	-0.000230
H172	H	0.754828	0.459539	0.499770
H173	H	0.996414	-0.496031	-0.000255
H174	H	1.496414	0.003969	0.499745
O175	O	-0.070656	0.298258	-0.000241
O176	O	0.429344	0.798258	0.499759
H177	H	-0.054308	0.358763	-0.000238
H178	H	0.445692	0.858763	0.499762
O179	O	0.657002	0.259212	0.824785
O180	O	1.157002	0.759212	1.324785
H181	H	0.667665	0.248421	0.886195
H182	H	1.167665	0.748421	1.386195
H183	H	0.903926	0.008932	0.185230
H184	H	1.403926	0.508932	0.685230
O185	O	1.047921	-0.376023	-0.000270
O186	O	1.547921	0.123977	0.499730
H187	H	1.055130	-0.450746	-0.000270
H188	H	1.555130	0.049254	0.499730
H189	H	0.733034	0.281459	0.571284
H190	H	1.233034	0.781459	1.071284
H191	H	0.077564	0.278357	-0.000218
H192	H	0.577564	0.778357	0.499782
O193	O	0.166197	0.260921	0.090969
O194	O	0.666197	0.760921	0.590969
H195	H	0.183400	0.251465	0.151091
H196	H	0.683400	0.751465	0.651091
H197	H	0.903964	0.008940	0.671319
H198	H	1.403964	0.508940	1.171319
H199	H	0.903966	0.008935	0.814275
H200	H	1.403966	0.508935	1.314275
O201	O	0.852811	-0.053026	0.581674
O202	O	1.352811	0.446974	1.081674
H203	H	0.847637	-0.038593	0.643089
H204	H	1.347637	0.461407	1.143089
O205	O	0.999035	-0.171574	-0.000280
O206	O	1.499035	0.328426	0.499720
H207	H	1.057179	-0.230290	-0.000304
H208	H	1.557179	0.269710	0.499696
H209	H	0.733007	0.281457	0.428332
H210	H	1.233007	0.781457	0.928332
O211	O	0.656970	0.259199	0.338699
O212	O	1.156970	0.759199	0.838699
H213	H	0.667636	0.248411	0.400108
H214	H	1.167636	0.748411	0.900108
H215	H	0.630903	-0.024606	-0.000153
H216	H	1.130903	0.475394	0.499847
H217	H	0.673719	0.242190	0.185323
H218	H	1.173719	0.742190	0.685323
H219	H	0.550366	-0.388869	-0.000141
H220	H	1.050366	0.111131	0.499859
O221	O	0.316045	0.263883	0.091020
O222	O	0.816045	0.763883	0.591020
H223	H	0.262910	0.308905	0.121535
H224	H	0.762910	0.808905	0.621535
H225	H	0.055457	-0.036113	-0.000324
H226	H	0.555457	0.463887	0.499676
O227	O	0.498520	-0.050127	-0.000194
O228	O	0.998520	0.449873	0.499806
H229	H	0.437308	-0.036814	-0.000213
H230	H	0.937308	0.463186	0.499787
H231	H	0.897684	-0.564375	-0.000234
H232	H	1.397684	-0.064375	0.499766
O233	O	0.261667	-0.012785	-0.091402
O234	O	0.761667	0.487215	0.408598
H235	H	0.314815	-0.057834	-0.121887
H236	H	0.814815	0.442166	0.378113
