data_functionalizedCrystal
_audit_creation_method	'MofGen! by Chris Wilmer'
_symmetry_space_group_name_H-M	'P1'
_symmetry_Int_Tables_number	1
_symmetry_cell_setting	triclinic
loop_
_symmetry_equiv_pos_as_xyz
  x,y,z
_cell_length_a	19.288840
_cell_length_b	17.019294
_cell_length_c	18.366186
_cell_angle_alpha	86.114787
_cell_angle_beta	89.983729
_cell_angle_gamma	83.259949
loop_
_atom_site_label
_atom_site_type_symbol
_atom_site_fract_x
_atom_site_fract_y
_atom_site_fract_z
O1	O	0.921538	0.098312	-0.066834
O2	O	0.719298	0.111608	-0.067643
O3	O	0.826059	-0.009894	-0.060034
O4	O	0.814777	0.219813	-0.074442
O5	O	0.826041	-0.009900	0.061065
O6	O	0.719280	0.111602	0.053457
O7	O	0.921520	0.098306	0.054265
Zn8	Zn	0.820397	0.104953	0.073089
Zn9	Zn	0.820421	0.104961	-0.086466
O10	O	0.814759	0.219808	0.046657
C11	C	0.693412	0.111180	-0.007063
C12	C	0.616305	0.109906	-0.006973
C13	C	0.580110	0.109297	-0.072948
C14	C	0.507661	0.108091	-0.072881
C15	C	0.471411	0.107478	-0.006835
C16	C	0.507614	0.108091	0.059148
C17	C	0.580061	0.109305	0.059079
C18	C	0.361991	0.059347	0.046745
C19	C	0.289546	0.058128	0.046812
C20	C	0.247961	0.103737	-0.006619
C21	C	0.278831	0.150554	-0.060129
C22	C	0.351278	0.151768	-0.060198
C23	C	0.392855	0.106162	-0.006753
C24	C	0.133209	0.101821	-0.072526
C25	C	0.060758	0.100620	-0.072457
C26	C	0.060713	0.100612	0.059575
C27	C	0.133162	0.101821	0.059503
C28	C	0.169406	0.102422	-0.006549
C29	C	0.825622	-0.039284	0.002357
C30	C	0.824338	-0.126850	0.007846
C31	C	0.823746	-0.167981	-0.055586
C32	C	0.822536	-0.250258	-0.050427
C33	C	0.821921	-0.291403	0.018165
C34	C	0.822511	-0.250266	0.081603
C35	C	0.823717	-0.167990	0.076443
C36	C	0.818275	-0.539823	0.037048
C37	C	0.817071	-0.622105	0.042203
C38	C	0.817095	-0.622091	-0.089827
C39	C	0.818305	-0.539814	-0.094981
C40	C	0.818891	-0.498684	-0.031544
C41	C	0.820686	-0.375503	0.023441
C42	C	0.820121	-0.414584	-0.036820
C43	C	0.947406	0.098734	-0.006316
C44	C	1.024513	0.100008	-0.006410
C45	C	0.815196	0.249198	-0.015736
C46	C	0.816480	0.336764	-0.021229
N47	N	0.820386	0.104947	0.181980
N48	N	0.820438	0.104960	-0.195357
C49	C	0.867675	0.051173	0.223448
C50	C	0.867679	0.051169	0.299676
C51	C	0.820401	0.104954	0.334432
C52	C	0.773103	0.158732	0.292955
C53	C	0.773095	0.158729	0.216729
C54	C	0.811230	0.176830	0.450685
C55	C	0.811243	0.176834	0.526910
C56	C	0.820421	0.104964	0.569539
C57	C	0.829601	0.033085	0.535935
C58	C	0.829594	0.033082	0.459709
C59	C	0.820404	0.104963	0.417087
C60	C	0.867718	0.051181	0.693662
C61	C	0.867717	0.051176	0.769892
C62	C	0.773144	0.158746	0.763170
C63	C	0.773141	0.158744	0.686942
C64	C	0.820432	0.104962	0.652193
H65	H	0.162633	0.102312	0.113228
N66	N	0.258002	0.010312	0.101459
N67	N	0.223734	-0.043263	0.083294
H68	H	0.201454	-0.077032	0.121889
N69	N	0.724818	0.213682	0.328453
N70	N	0.725692	0.286594	0.315357
H71	H	0.691587	0.325403	0.340426
N72	N	0.724848	0.213674	0.798675
N73	N	0.724856	0.213667	0.866734
H74	H	0.690743	0.252458	0.891814
H75	H	0.734586	0.202519	0.182965
H76	H	0.820188	-0.409013	0.079289
N77	N	0.916032	-0.003746	0.187999
N78	N	0.915224	-0.076666	0.201101
H79	H	0.949398	-0.115442	0.176077
N80	N	0.724831	0.213680	0.644590
N81	N	0.682618	0.261696	0.675629
H82	H	0.648495	0.300495	0.645719
H83	H	0.803772	0.235362	0.554264
H84	H	0.478095	0.107594	0.112924
N85	N	0.916015	-0.003757	0.812264
N86	N	0.959100	0.021132	0.853233
H87	H	0.993205	-0.017669	0.883164
N88	N	0.915989	-0.003770	0.342034
N89	N	0.958204	-0.051786	0.310999
H90	H	0.992324	-0.090588	0.340912
H91	H	0.162719	0.102318	-0.126311
H92	H	0.837067	-0.025444	0.432351
H93	H	0.837075	-0.025439	0.570643
N94	N	0.816424	-0.664136	0.112271
N95	N	0.766809	-0.702601	0.129405
H96	H	0.766352	-0.732287	0.178887
N97	N	0.023793	0.100009	-0.139860
N98	N	0.056165	0.100549	-0.198826
H99	H	0.030058	0.100119	-0.246432
H100	H	0.820616	-0.381080	-0.092668
N101	N	0.801861	0.250257	0.407155
N102	N	0.793681	0.314426	0.437164
H103	H	0.787068	0.366283	0.406422
H104	H	0.818766	-0.506347	0.088703
N105	N	0.915929	-0.003820	0.658127
N106	N	0.914951	-0.076716	0.671221
H107	H	0.948968	-0.115581	0.646108
N108	N	0.617125	0.109897	-0.140420
N109	N	0.615508	0.054164	-0.181118
H110	H	0.641649	0.054586	-0.228772
N111	N	0.470689	0.107468	-0.140283
N112	N	0.503058	0.108006	-0.199251
H113	H	0.476950	0.107564	-0.246853
N114	N	0.821887	-0.292280	0.151675
N115	N	0.822414	-0.255543	0.208305
H116	H	0.821974	-0.285214	0.257796
N117	N	0.382800	0.199591	-0.114857
N118	N	0.345671	0.240309	-0.162563
H119	H	0.367932	0.274087	-0.201167
H120	H	0.031199	0.100118	0.113351
N121	N	0.236373	0.197146	-0.114721
N122	N	0.199715	0.164209	-0.156764
H123	H	0.169730	0.197115	-0.195321
N124	N	0.404468	0.012775	0.101338
N125	N	0.394999	0.024289	0.167286
H126	H	0.424999	-0.008597	0.205843
N127	N	0.617025	0.109933	0.126481
N128	N	0.584655	0.109395	0.185447
H129	H	0.610761	0.109838	0.233051
H130	H	0.822057	-0.283743	-0.102081
N131	N	0.824390	-0.125958	-0.125653
N132	N	0.873202	-0.142594	-0.168814
H133	H	0.873656	-0.112917	-0.218300
N134	N	0.818942	-0.497793	-0.165049
N135	N	0.867754	-0.514431	-0.208210
H136	H	0.868208	-0.484755	-0.257697
N137	N	0.816498	-0.664118	-0.154615
N138	N	0.815423	-0.737578	-0.150003
H139	H	0.814999	-0.767260	-0.195762
H140	H	0.824189	-0.134501	0.128096
