data_functionalizedCrystal
_audit_creation_method	'MofGen! by Chris Wilmer'
_symmetry_space_group_name_H-M	'P1'
_symmetry_Int_Tables_number	1
_symmetry_cell_setting	triclinic
loop_
_symmetry_equiv_pos_as_xyz
  x,y,z
_cell_length_a	6.817900
_cell_length_b	12.000032
_cell_length_c	10.992410
_cell_angle_alpha	88.749610
_cell_angle_beta	108.764651
_cell_angle_gamma	119.142083
loop_
_atom_site_label
_atom_site_type_symbol
_atom_site_fract_x
_atom_site_fract_y
_atom_site_fract_z
V1	V	-4.174781	-0.176866	-0.402760
O2	O	-4.069467	0.008499	-0.392863
O3	O	-4.211853	-0.350695	-0.402149
O4	O	-4.151442	-0.174145	-0.577439
O5	O	-4.130296	-0.169273	-0.216360
V6	V	-4.644086	-0.154694	-0.380204
O7	O	-4.467226	-0.225501	-0.452236
O8	O	-4.801837	-0.106058	-0.330727
O9	O	-4.383807	0.019135	-0.380815
O10	O	-4.866796	-0.340059	-0.390100
O11	O	-4.805967	-0.162287	-0.566604
O12	O	-4.444218	-0.157414	-0.205525
C13	C	-4.076836	-0.393071	-0.396348
C14	C	-4.188600	-0.535178	-0.397014
C15	C	-4.061379	-0.592348	-0.391141
C16	C	-4.176890	-0.739224	-0.391828
C17	C	-3.999773	-0.167862	-0.619946
C18	C	-4.062540	-0.166788	-0.762761
C19	C	-3.926313	-0.157001	-0.957765
C20	C	-3.861327	-0.158648	-0.809302
C21	C	-4.303694	-0.292830	-0.841409
C22	C	-4.367626	-0.291716	-0.989962
C23	C	-4.161861	-0.047652	-0.948941
C24	C	-4.090948	-0.047055	-0.799921
C25	C	-4.182169	0.061504	-0.386612
C26	C	-4.049645	0.203611	-0.385955
C27	C	-4.259230	-0.163701	-0.163011
C28	C	-4.175698	-0.164769	-0.020194
H29	H	-3.855199	-0.736604	-0.380414
H30	H	-4.288357	-0.381727	-0.816893
H31	H	-3.866941	-0.532556	-0.385597
H32	H	-4.371325	-0.799008	-0.397352
H33	H	-4.383027	-0.594967	-0.402537
H34	H	-4.382414	-0.380394	-1.037319
C35	C	-3.725764	-0.033739	-0.981701
C36	C	-3.511394	0.066710	-0.865475
C37	C	-3.310840	0.189972	-0.889424
C38	C	-3.324656	0.212786	-1.029599
C39	C	-3.539035	0.112334	-1.145835
C40	C	-3.739589	-0.010929	-1.121886
H41	H	-3.501158	0.049825	-0.761701
H42	H	-3.152143	0.264333	-0.803378
H43	H	-3.176194	0.304032	-1.047328
H44	H	-3.549271	0.129219	-1.249609
H45	H	-3.898286	-0.085290	-1.207932
H46	H	-3.681853	-0.068018	-0.754851
C47	C	-3.931521	-0.270689	-1.023969
C48	C	-4.161068	-0.370414	-1.134361
C49	C	-4.166290	-0.484108	-1.200563
C50	C	-3.941964	-0.498077	-1.156372
C51	C	-3.712400	-0.398350	-1.045974
C52	C	-3.707179	-0.284655	-0.979772
H53	H	-4.327142	-0.360076	-1.167079
H54	H	-4.336229	-0.557933	-1.282287
H55	H	-3.945829	-0.582241	-1.205378
H56	H	-3.546326	-0.408688	-1.013256
H57	H	-3.537240	-0.210830	-0.898048
H58	H	-4.553379	-0.302676	-1.032728
H59	H	-3.833347	-0.243966	-0.785532
H60	H	-4.457666	-0.303339	-0.812735
H61	H	-4.026189	0.048061	-0.968127
H62	H	-3.915782	0.046186	-0.746421
H63	H	-4.232554	-0.045574	-0.767391
H64	H	-4.342413	-0.052233	-0.989838
