data_functionalizedCrystal
_audit_creation_method	'MofGen! by Chris Wilmer'
_symmetry_space_group_name_H-M	'P1'
_symmetry_Int_Tables_number	1
_symmetry_cell_setting	triclinic
loop_
_symmetry_equiv_pos_as_xyz
  x,y,z
_cell_length_a	16.992695
_cell_length_b	16.956993
_cell_length_c	16.053810
_cell_angle_alpha	92.379604
_cell_angle_beta	92.752725
_cell_angle_gamma	96.638539
loop_
_atom_site_label
_atom_site_type_symbol
_atom_site_fract_x
_atom_site_fract_y
_atom_site_fract_z
O1	O	0.028845	-1.063229	-0.069514
O2	O	0.528845	-0.563229	0.430486
O3	O	0.056259	-0.832818	-0.069498
O4	O	0.556259	-0.332818	0.430502
O5	O	-0.071531	-0.947100	-0.069499
O6	O	0.428469	-0.447100	0.430501
O7	O	0.156634	-0.948948	-0.069512
O8	O	0.656634	-0.448948	0.430488
O9	O	-0.064501	-0.940837	0.069360
O10	O	0.435499	-0.440837	0.569360
O11	O	0.063289	-0.826555	0.069361
O12	O	0.563289	-0.326555	0.569361
O13	O	0.035875	-1.056966	0.069345
O14	O	0.535875	-0.556966	0.569345
Zn15	Zn	0.050698	-0.940766	0.091400
Zn16	Zn	0.550698	-0.440766	0.591400
Zn17	Zn	0.041436	-0.949018	-0.091553
Zn18	Zn	0.541436	-0.449018	0.408447
O19	O	0.163664	-0.942685	0.069346
O20	O	0.663664	-0.442685	0.569346
C21	C	0.061177	-0.800068	-0.000066
C22	C	0.561177	-0.300068	0.499934
C23	C	0.065350	-0.711813	-0.000060
C24	C	0.565350	-0.211813	0.499940
C25	C	0.096567	-0.214503	-0.000080
C26	C	0.596567	0.285497	0.499920
C27	C	0.092640	-0.297428	-0.000081
C28	C	0.592640	0.202572	0.499919
C29	C	0.018928	-0.343819	-0.000072
C30	C	0.518928	0.156181	0.499928
C31	C	-0.050863	-0.307281	-0.000069
C32	C	0.449137	0.192719	0.499931
C33	C	-0.046935	-0.224357	-0.000074
C34	C	0.453065	0.275643	0.499926
C35	C	-0.000512	-0.592352	-0.000062
C36	C	0.499488	-0.092352	0.499938
C37	C	-0.004434	-0.675280	-0.000055
C38	C	0.495566	-0.175280	0.499945
C39	C	0.139069	-0.665422	-0.000068
C40	C	0.639069	-0.165422	0.499932
C41	C	0.142990	-0.582498	-0.000068
C42	C	0.642990	-0.082498	0.499932
C43	C	0.073199	-0.545967	-0.000070
C44	C	0.573199	-0.045967	0.499930
N45	N	0.014912	-0.428581	-0.000070
N46	N	0.514912	0.071419	0.499930
N47	N	0.077215	-0.461206	-0.000077
N48	N	0.577215	0.038794	0.499923
C49	C	-0.097074	-0.941592	-0.000070
C50	C	0.402926	-0.441592	0.499930
C51	C	-0.183659	-0.934501	-0.000069
C52	C	0.316341	-0.434501	0.499931
C53	C	-0.238333	-1.002916	-0.000073
C54	C	0.261667	-0.502916	0.499927
C55	C	-0.319688	-0.996249	-0.000081
C56	C	0.180312	-0.496249	0.499919
C57	C	-0.346367	-0.921166	-0.000078
C58	C	0.153633	-0.421166	0.499922
C59	C	-0.291686	-0.852746	-0.000077
C60	C	0.208314	-0.352746	0.499923
C61	C	-0.210333	-0.859414	-0.000075
C62	C	0.289667	-0.359414	0.499925
C63	C	-0.588174	-0.893531	-0.000088
C64	C	-0.088174	-0.393531	0.499912
C65	C	-0.669534	-0.886869	-0.000087
C66	C	-0.169534	-0.386869	0.499913
C67	C	-0.697531	-1.030372	-0.000092
C68	C	-0.197531	-0.530372	0.499908
C69	C	-0.616175	-1.037033	-0.000086
C70	C	-0.116175	-0.537033	0.499914
C71	C	-0.561501	-0.968613	-0.000089
C72	C	-0.061501	-0.468613	0.499911
N73	N	-0.429524	-0.914350	-0.000083
N74	N	0.070476	-0.414350	0.499917
N75	N	-0.478346	-0.975431	-0.000090
N76	N	0.021654	-0.475431	0.499910
C77	C	0.189208	-0.948193	-0.000085
C78	C	0.689208	-0.448193	0.499915
C79	C	0.275792	-0.955284	-0.000091
C80	C	0.775792	-0.455284	0.499909
C81	C	0.030956	-0.089716	-0.000082
C82	C	0.530956	0.410284	0.499918
C83	C	0.026782	-0.177970	-0.000075
C84	C	0.526782	0.322030	0.499925
N85	N	0.057018	-0.935140	0.216260
N86	N	0.557018	-0.435140	0.716260
N87	N	0.035109	-0.954650	-0.216413
N88	N	0.535109	-0.454650	0.283587
C89	C	0.089472	-0.906010	0.739893
C90	C	0.589472	-0.406010	1.239893
C91	C	0.085064	-0.909963	0.652486
C92	C	0.585064	-0.409963	1.152486
C93	C	0.026296	-0.962562	0.608775
C94	C	0.526296	-0.462562	1.108775
C95	C	-0.028072	-1.011204	0.652476
C96	C	0.471928	-0.511204	1.152476
C97	C	-0.023668	-1.007246	0.739881
C98	C	0.476332	-0.507246	1.239881
C99	C	0.007054	-0.979824	0.347366
C100	C	0.507054	-0.479824	0.847366
C101	C	0.002655	-0.983780	0.259955
C102	C	0.502655	-0.483780	0.759955
C103	C	0.115791	-0.882538	0.259971
C104	C	0.615791	-0.382538	0.759971
C105	C	0.120194	-0.878588	0.347377
C106	C	0.620194	-0.378588	0.847377
C107	C	0.065822	-0.927227	0.391070
C108	C	0.565822	-0.427227	0.891070
N109	N	0.021791	-0.966606	0.519432
N110	N	0.521791	-0.466606	1.019432
N111	N	0.070325	-0.923178	0.480413
N112	N	0.570325	-0.423178	0.980413
H113	H	-0.057340	-0.562619	-0.000062
H114	H	0.442660	-0.062619	0.499938
Cl115	Cl	-0.388419	-1.082261	-0.000083
Cl116	Cl	0.111581	-0.582261	0.499917
H117	H	-0.594460	-1.098173	-0.000088
H118	H	-0.094460	-0.598173	0.499912
H119	H	-0.110881	-0.345059	-0.000067
H120	H	0.389119	0.154941	0.499933
Cl121	Cl	0.180373	-0.343352	-0.000092
Cl122	Cl	0.680373	0.156648	0.499908
H123	H	0.195888	-0.695175	-0.000067
H124	H	0.695888	-0.195175	0.499933
Cl125	Cl	-0.071230	-1.049912	0.205010
Cl126	Cl	0.428770	-0.549912	0.705010
H127	H	0.203014	-0.544732	-0.000078
H128	H	0.703014	-0.044732	0.499922
H129	H	-0.691250	-0.825723	-0.000071
H130	H	-0.191250	-0.325723	0.499929
H131	H	-0.037216	-1.019430	0.382934
H132	H	0.462784	-0.519430	0.882934
H133	H	0.137329	-0.863182	0.775476
H134	H	0.637329	-0.363182	1.275476
Cl135	Cl	-0.134669	-0.178430	-0.000068
Cl136	Cl	0.365331	0.321570	0.499932
Cl137	Cl	-0.204803	-1.097310	-0.000068
Cl138	Cl	0.295197	-0.597310	0.499932
Cl139	Cl	0.189239	-0.156191	-0.000085
Cl140	Cl	0.689239	0.343809	0.499915
H141	H	-0.313414	-0.791613	-0.000080
H142	H	0.186586	-0.291613	0.499920
Cl143	Cl	-0.141598	-0.773403	-0.000073
Cl144	Cl	0.358402	-0.273403	0.499927
H145	H	0.160057	-0.842938	0.224388
H146	H	0.660057	-0.342938	0.724388
H147	H	-0.742054	-1.086075	-0.000091
H148	H	-0.242054	-0.586075	0.499909
Cl149	Cl	0.153407	-0.848814	0.597554
Cl150	Cl	0.653407	-0.348814	1.097554
Cl151	Cl	-0.519452	-0.807517	-0.000094
Cl152	Cl	-0.019452	-0.307517	0.499906
Cl153	Cl	-0.101956	-1.077325	0.597527
Cl154	Cl	0.398044	-0.577325	1.097527
H155	H	0.168047	-0.835758	0.382965
H156	H	0.668047	-0.335758	0.882965
H157	H	-0.064463	-0.713050	-0.000051
H158	H	0.435537	-0.213050	0.499949
Cl159	Cl	-0.092016	-1.068394	0.794811
Cl160	Cl	0.407984	-0.568394	1.294811
