data_functionalizedCrystal
_audit_creation_method	'MofGen! by Chris Wilmer'
_symmetry_space_group_name_H-M	'P1'
_symmetry_Int_Tables_number	1
_symmetry_cell_setting	triclinic
loop_
_symmetry_equiv_pos_as_xyz
  x,y,z
_cell_length_a	12.759401
_cell_length_b	18.050589
_cell_length_c	12.759393
_cell_angle_alpha	89.970705
_cell_angle_beta	89.981266
_cell_angle_gamma	90.028382
loop_
_atom_site_label
_atom_site_type_symbol
_atom_site_fract_x
_atom_site_fract_y
_atom_site_fract_z
Zn1	Zn	1.606159	-0.295622	-0.593988
Zn2	Zn	2.106159	0.204378	-0.093988
Zn3	Zn	1.606011	-0.419830	-0.418311
Zn4	Zn	2.106011	0.080170	0.081689
Zn5	Zn	1.430460	-0.295658	-0.418328
Zn6	Zn	1.930460	0.204342	0.081672
Zn7	Zn	1.430408	-0.419775	-0.593953
Zn8	Zn	1.930408	0.080225	-0.093953
O9	O	1.518260	-0.357721	-0.506145
O10	O	2.018260	0.142279	-0.006145
O11	O	1.753161	-0.312106	-0.570692
O12	O	2.253161	0.187894	-0.070692
O13	O	1.582684	-0.403396	-0.271292
O14	O	2.082684	0.096604	0.228708
O15	O	1.453851	-0.191729	-0.441651
O16	O	1.953851	0.308271	0.058349
O17	O	1.753052	-0.403361	-0.441623
O18	O	2.253052	0.096639	0.058377
O19	O	1.582936	-0.191702	-0.570708
O20	O	2.082936	0.308298	-0.070708
O21	O	1.453708	-0.312168	-0.271304
O22	O	1.953708	0.187832	0.228696
O23	O	1.283432	-0.312115	-0.441617
O24	O	1.783432	0.187885	0.058383
O25	O	1.453762	-0.403268	-0.740979
O26	O	1.953762	0.096732	-0.240979
O27	O	1.283394	-0.403303	-0.570648
O28	O	1.783394	0.096697	-0.070648
O29	O	1.582886	-0.312054	-0.741005
O30	O	2.082886	0.187946	-0.241005
O31	O	1.582634	-0.523747	-0.441589
O32	O	2.082634	-0.023747	0.058411
O33	O	1.453619	-0.523707	-0.570632
O34	O	1.953619	-0.023707	-0.070632
C35	C	1.245292	-0.357708	-0.506131
C36	C	1.745292	0.142292	-0.006131
C37	C	1.128516	-0.357720	-0.506149
C38	C	1.628516	0.142280	-0.006149
C39	C	1.073661	-0.405277	-0.573225
C40	C	1.573661	0.094723	-0.073225
C41	C	0.963937	-0.405287	-0.573236
C42	C	1.463937	0.094713	-0.073236
C43	C	0.963932	-0.310179	-0.439088
C44	C	1.463932	0.189821	0.060912
C45	C	1.073654	-0.310166	-0.439083
C46	C	1.573654	0.189834	0.060917
C47	C	1.128523	-0.452831	-0.640292
C48	C	1.628523	0.047169	-0.140292
C49	C	1.073669	-0.500393	-0.707372
C50	C	1.573669	-0.000393	-0.207372
C51	C	0.963945	-0.500403	-0.707383
C52	C	1.463945	-0.000403	-0.207383
C53	C	0.909075	-0.452850	-0.640314
C54	C	1.409075	0.047150	-0.140314
C55	C	1.518133	-0.550673	-0.506127
C56	C	2.018133	-0.050673	-0.006127
C57	C	1.518175	-0.633219	-0.506155
C58	C	2.018175	-0.133219	-0.006155
C59	C	1.448086	-0.832675	-0.576304
C60	C	1.948086	-0.332675	-0.076304
C61	C	1.422471	-0.882122	-0.480436
C62	C	1.922471	-0.382122	0.019564
C63	C	1.518278	-0.784350	-0.506169
C64	C	2.018278	-0.284350	-0.006169
C65	C	1.543944	-0.881984	-0.602048
C66	C	2.043944	-0.381984	-0.102048
C67	C	1.518376	-0.930335	-0.506191
C68	C	2.018376	-0.430335	-0.006191
C69	C	1.492613	-0.832709	-0.410250
C70	C	1.992613	-0.332709	0.089750
C71	C	1.614131	-0.832567	-0.531927
C72	C	2.114131	-0.332567	-0.031927
C73	C	1.588553	-0.881992	-0.435992
C74	C	2.088553	-0.381992	0.064008
C75	C	1.518219	-0.700251	-0.506158
C76	C	2.018219	-0.200251	-0.006158
C77	C	1.518435	-1.014431	-0.506191
C78	C	2.018435	-0.514431	-0.006191
C79	C	1.792293	-0.357736	-0.506160
C80	C	2.292293	0.142264	-0.006160
C81	C	1.909070	-0.357742	-0.506166
C82	C	2.409070	0.142258	-0.006166
C83	C	1.518335	-0.357651	-0.780178
C84	C	2.018335	0.142349	-0.280178
C85	C	1.518366	-0.357621	-0.896955
C86	C	2.018366	0.142379	-0.396955
C87	C	1.518416	-0.164016	-0.506185
C88	C	2.018416	0.335984	-0.006185
C89	C	1.518482	-0.081470	-0.506203
C90	C	2.018482	0.418530	-0.006203
C91	C	1.585629	-0.310083	-1.061557
C92	C	2.085629	0.189917	-0.561557
C93	C	1.585607	-0.310115	-0.951833
C94	C	2.085607	0.189885	-0.451833
C95	C	1.451152	-0.405102	-0.951807
C96	C	1.951152	0.094898	-0.451807
C97	C	1.451180	-0.405073	-1.061529
C98	C	1.951180	0.094927	-0.561529
C99	C	1.652867	-0.262569	-1.116430
C100	C	2.152867	0.237431	-0.616430
C101	C	1.720083	-0.215088	-1.061586
C102	C	2.220083	0.284912	-0.561586
C103	C	1.720061	-0.215121	-0.951862
C104	C	2.220061	0.284879	-0.451862
C105	C	1.652822	-0.262634	-0.896982
C106	C	2.152822	0.237366	-0.396982
C107	C	1.518246	-0.357738	-0.233178
C108	C	2.018246	0.142262	0.266822
C109	C	1.518418	-0.357559	-0.116401
C110	C	2.018418	0.142441	0.383599
H111	H	0.919248	-0.271464	-0.384483
H112	H	1.419248	0.228536	0.115517
Br113	Br	1.349011	-0.796580	-0.675024
Br114	Br	1.849011	-0.296580	-0.175024
H115	H	1.118351	-0.539104	-0.761983
H116	H	1.618351	-0.039104	-0.261983
Br117	Br	1.359902	-0.469578	-0.877327
Br118	Br	1.859902	0.030422	-0.377327
Br119	Br	1.749131	-0.796260	-0.568280
Br120	Br	2.249131	-0.296260	-0.068280
H121	H	1.652890	-0.262535	-1.205773
H122	H	2.152890	0.237465	-0.705773
Br123	Br	1.811292	-0.150693	-0.877432
Br124	Br	2.311292	0.349307	-0.377432
Br125	Br	1.652806	-0.262686	-0.748069
Br126	Br	2.152806	0.237314	-0.248069
Br127	Br	1.456344	-0.796789	-0.275078
Br128	Br	1.956344	-0.296789	0.224922
H129	H	1.118317	-0.271435	-0.384472
H130	H	1.618317	0.228565	0.115528
H131	H	1.396451	-0.443732	-1.106184
H132	H	1.896451	0.056268	-0.606184
H133	H	1.774832	-0.176409	-1.106276
H134	H	2.274832	0.323591	-0.606276
H135	H	0.919285	-0.539125	-0.762010
H136	H	1.419285	-0.039125	-0.262010
Br137	Br	0.760162	-0.452856	-0.640343
Br138	Br	1.260162	0.047144	-0.140343
Br139	Br	1.277434	-0.452825	-0.640273
Br140	Br	1.777434	0.047175	-0.140273
H141	H	1.647954	-0.903509	-0.376622
H142	H	2.147954	-0.403509	0.123378
Br143	Br	1.287436	-0.918399	-0.444123
Br144	Br	1.787436	-0.418399	0.055877
Br145	Br	1.580060	-0.918066	-0.737175
Br146	Br	2.080060	-0.418066	-0.237175
