data_functionalizedCrystal
_audit_creation_method	'MofGen! by Chris Wilmer'
_symmetry_space_group_name_H-M	'P1'
_symmetry_Int_Tables_number	1
_symmetry_cell_setting	triclinic
loop_
_symmetry_equiv_pos_as_xyz
  x,y,z
_cell_length_a	16.625546
_cell_length_b	16.625547
_cell_length_c	16.625539
_cell_angle_alpha	90.027058
_cell_angle_beta	89.969603
_cell_angle_gamma	89.978346
loop_
_atom_site_label
_atom_site_type_symbol
_atom_site_fract_x
_atom_site_fract_y
_atom_site_fract_z
Zn1	Zn	-0.321018	-1.232681	-0.456037
Zn2	Zn	-0.071018	-0.982681	-0.206037
Zn3	Zn	0.178982	-0.732681	0.043963
Zn4	Zn	0.428982	-0.482681	0.293963
Zn5	Zn	-0.455861	-1.232584	-0.321200
Zn6	Zn	-0.205861	-0.982584	-0.071200
Zn7	Zn	0.044139	-0.732584	0.178800
Zn8	Zn	0.294139	-0.482584	0.428800
Zn9	Zn	-0.321044	-1.097842	-0.321202
Zn10	Zn	-0.071044	-0.847842	-0.071202
Zn11	Zn	0.178956	-0.597842	0.178798
Zn12	Zn	0.428956	-0.347842	0.428798
Zn13	Zn	-0.455810	-1.097813	-0.455974
Zn14	Zn	-0.205810	-0.847813	-0.205974
Zn15	Zn	0.044190	-0.597813	0.044026
Zn16	Zn	0.294190	-0.347813	0.294026
O17	O	-0.388433	-1.165230	-0.388603
O18	O	-0.138433	-0.915230	-0.138603
O19	O	0.111567	-0.665230	0.111397
O20	O	0.361567	-0.415230	0.361397
O21	O	-0.338915	-1.345500	-0.438176
O22	O	-0.088915	-1.095500	-0.188176
O23	O	0.161085	-0.845500	0.061824
O24	O	0.411085	-0.595500	0.311824
O25	O	-0.438009	-1.214682	-0.208367
O26	O	-0.188009	-0.964682	0.041633
O27	O	0.061991	-0.714682	0.291633
O28	O	0.311991	-0.464682	0.541633
O29	O	-0.208208	-1.115782	-0.339116
O30	O	0.041792	-0.865782	-0.089116
O31	O	0.291792	-0.615782	0.160884
O32	O	0.541792	-0.365782	0.410884
O33	O	-0.437984	-1.345429	-0.339111
O34	O	-0.187984	-1.095429	-0.089111
O35	O	0.062016	-0.845429	0.160889
O36	O	0.312016	-0.595429	0.410889
O37	O	-0.208189	-1.214847	-0.438179
O38	O	0.041811	-0.964847	-0.188179
O39	O	0.291811	-0.714847	0.061821
O40	O	0.541811	-0.464847	0.311821
O41	O	-0.338960	-1.115688	-0.208370
O42	O	-0.088960	-0.865688	0.041630
O43	O	0.161040	-0.615688	0.291630
O44	O	0.411040	-0.365688	0.541630
O45	O	-0.338911	-0.985006	-0.339055
O46	O	-0.088911	-0.735006	-0.089055
O47	O	0.161089	-0.485006	0.160945
O48	O	0.411089	-0.235006	0.410945
O49	O	-0.437897	-1.115731	-0.568815
O50	O	-0.187897	-0.865731	-0.318815
O51	O	0.062103	-0.615731	-0.068815
O52	O	0.312103	-0.365731	0.181185
O53	O	-0.437923	-0.984984	-0.438071
O54	O	-0.187923	-0.734984	-0.188071
O55	O	0.062077	-0.484984	0.061929
O56	O	0.312077	-0.234984	0.311929
O57	O	-0.338866	-1.214818	-0.568861
O58	O	-0.088866	-0.964818	-0.318861
O59	O	0.161134	-0.714818	-0.068861
O60	O	0.411134	-0.464818	0.181139
O61	O	-0.568686	-1.214653	-0.339050
O62	O	-0.318686	-0.964653	-0.089050
O63	O	-0.068686	-0.714653	0.160950
O64	O	0.181314	-0.464653	0.410950
O65	O	-0.568649	-1.115638	-0.438068
O66	O	-0.318649	-0.865638	-0.188068
O67	O	-0.068649	-0.615638	0.061932
O68	O	0.181351	-0.365638	0.311932
C69	C	-0.388415	-0.955739	-0.388557
C70	C	-0.138415	-0.705739	-0.138557
C71	C	0.111585	-0.455739	0.111443
C72	C	0.361585	-0.205739	0.361443
C73	C	-0.388426	-0.866118	-0.388556
C74	C	-0.138426	-0.616118	-0.138556
C75	C	0.111574	-0.366118	0.111444
C76	C	0.361574	-0.116118	0.361444
C77	C	-0.388427	-0.793335	-0.388564
C78	C	-0.138427	-0.543335	-0.138564
C79	C	0.111573	-0.293335	0.111436
C80	C	0.361573	-0.043335	0.361436
C81	C	-0.388430	-0.702027	-0.388580
C82	C	-0.138430	-0.452027	-0.138580
C83	C	0.111570	-0.202027	0.111420
C84	C	0.361570	0.047973	0.361420
C85	C	-0.388436	-0.629251	-0.388598
C86	C	-0.138436	-0.379251	-0.138598
C87	C	0.111564	-0.129251	0.111402
C88	C	0.361564	0.120749	0.361402
C89	C	-0.388441	-0.537936	-0.388614
C90	C	-0.138441	-0.287936	-0.138614
C91	C	0.111559	-0.037936	0.111386
C92	C	0.361559	0.212064	0.361386
C93	C	-0.597924	-1.165154	-0.388570
C94	C	-0.347924	-0.915154	-0.138570
C95	C	-0.097924	-0.665154	0.111430
C96	C	0.152076	-0.415154	0.361430
C97	C	-0.687545	-1.165195	-0.388582
C98	C	-0.437545	-0.915195	-0.138582
C99	C	-0.187545	-0.665195	0.111418
C100	C	0.062455	-0.415195	0.361418
C101	C	-1.015721	-1.165335	-0.388666
C102	C	-0.765721	-0.915335	-0.138666
C103	C	-0.515721	-0.665335	0.111334
C104	C	-0.265721	-0.415335	0.361334
C105	C	-0.924412	-1.165294	-0.388645
C106	C	-0.674412	-0.915294	-0.138645
C107	C	-0.424412	-0.665294	0.111355
C108	C	-0.174412	-0.415294	0.361355
C109	C	-0.851636	-1.165264	-0.388624
C110	C	-0.601636	-0.915264	-0.138624
C111	C	-0.351636	-0.665264	0.111376
C112	C	-0.101636	-0.415264	0.361376
C113	C	-0.760321	-1.165224	-0.388603
C114	C	-0.510321	-0.915224	-0.138603
C115	C	-0.260321	-0.665224	0.111397
C116	C	-0.010321	-0.415224	0.361397
C117	C	-0.178124	-1.165328	-0.388655
C118	C	0.071876	-0.915328	-0.138655
C119	C	0.321876	-0.665328	0.111345
C120	C	0.571876	-0.415328	0.361345
C121	C	-0.088503	-1.165370	-0.388677
C122	C	0.161497	-0.915370	-0.138677
C123	C	0.411497	-0.665370	0.111323
C124	C	0.661497	-0.415370	0.361323
C125	C	-0.388373	-1.165282	-0.598912
C126	C	-0.138373	-0.915282	-0.348912
C127	C	0.111627	-0.665282	-0.098912
C128	C	0.361627	-0.415282	0.151088
C129	C	-0.388347	-1.165305	-0.688534
C130	C	-0.138347	-0.915305	-0.438534
C131	C	0.111653	-0.665305	-0.188534
C132	C	0.361653	-0.415305	0.061466
C133	C	-0.388449	-0.375539	-0.388640
C134	C	-0.138449	-0.125539	-0.138640
C135	C	0.111551	0.124461	0.111360
C136	C	0.361551	0.374461	0.361360
C137	C	-0.388447	-0.465160	-0.388631
C138	C	-0.138447	-0.215160	-0.138631
C139	C	0.111553	0.034840	0.111369
C140	C	0.361553	0.284840	0.361369
C141	C	-0.388257	-1.165342	-1.016709
C142	C	-0.138257	-0.915342	-0.766709
C143	C	0.111743	-0.665342	-0.516709
C144	C	0.361743	-0.415342	-0.266709
C145	C	-0.388285	-1.165329	-0.925401
C146	C	-0.138285	-0.915329	-0.675401
C147	C	0.111715	-0.665329	-0.425401
C148	C	0.361715	-0.415329	-0.175401
C149	C	-0.388303	-1.165324	-0.852624
C150	C	-0.138303	-0.915324	-0.602624
C151	C	0.111697	-0.665324	-0.352624
C152	C	0.361697	-0.415324	-0.102624
C153	C	-0.388329	-1.165310	-0.761310
C154	C	-0.138329	-0.915310	-0.511310
C155	C	0.111671	-0.665310	-0.261310
C156	C	0.361671	-0.415310	-0.011310
C157	C	-0.388435	-1.165224	-0.179113
C158	C	-0.138435	-0.915224	0.070887
C159	C	0.111565	-0.665224	0.320887
C160	C	0.361565	-0.415224	0.570887
C161	C	-0.388233	-1.165358	-0.089492
C162	C	-0.138233	-0.915358	0.160508
C163	C	0.111767	-0.665358	0.410508
C164	C	0.361767	-0.415358	0.660508
