data_functionalizedCrystal
_audit_creation_method	'MofGen! by Chris Wilmer'
_symmetry_space_group_name_H-M	'P1'
_symmetry_Int_Tables_number	1
_symmetry_cell_setting	triclinic
loop_
_symmetry_equiv_pos_as_xyz
  x,y,z
_cell_length_a	12.827893
_cell_length_b	12.759394
_cell_length_c	12.827893
_cell_angle_alpha	90.008891
_cell_angle_beta	90.003786
_cell_angle_gamma	90.014808
loop_
_atom_site_label
_atom_site_type_symbol
_atom_site_fract_x
_atom_site_fract_y
_atom_site_fract_z
Zn1	Zn	1.597514	-0.418448	0.590838
Zn2	Zn	1.597457	-0.594095	0.416094
Zn3	Zn	1.422803	-0.418431	0.416112
Zn4	Zn	1.422742	-0.594085	0.590794
O5	O	1.510129	-0.506265	0.503459
O6	O	1.743742	-0.441759	0.567669
O7	O	1.574290	-0.570790	0.269860
O8	O	1.446027	-0.271412	0.439315
O9	O	1.743700	-0.570807	0.439285
O10	O	1.574387	-0.271425	0.567686
O11	O	1.445972	-0.441730	0.269873
O12	O	1.276559	-0.441720	0.439272
O13	O	1.445925	-0.570790	0.737035
O14	O	1.276514	-0.570773	0.567611
O15	O	1.574329	-0.441750	0.737068
O16	O	1.574232	-0.741115	0.439242
O17	O	1.445869	-0.741108	0.567593
C18	C	1.238619	-0.506245	0.503439
C19	C	1.122466	-0.506261	0.503456
C20	C	1.070687	-0.570220	0.566863
C21	C	0.950637	-0.570239	0.566882
C22	C	1.510066	-0.779232	0.503434
C23	C	1.510135	-0.896009	0.503458
C24	C	1.643899	-0.895963	0.369906
C25	C	1.710808	-0.950801	0.303142
C26	C	1.710869	-1.060523	0.303171
C27	C	1.644016	-1.115409	0.369972
C28	C	1.577107	-1.060571	0.436736
C29	C	1.577051	-0.950847	0.436698
C30	C	1.443350	-1.060617	0.570292
C31	C	1.443282	-0.950895	0.570260
C32	C	1.376497	-1.115503	0.637093
C33	C	1.309581	-1.060665	0.703853
C34	C	1.309522	-0.950937	0.703821
C35	C	1.376373	-0.896057	0.637023
C36	C	1.782699	-0.506286	0.503480
C37	C	1.898852	-0.506295	0.503489
C38	C	1.510126	-0.506271	0.776029
C39	C	1.510125	-0.506273	0.892182
C40	C	1.510220	-0.232231	0.503507
C41	C	1.510259	-0.115455	0.503528
C42	C	1.573614	-0.570131	0.943961
C43	C	1.573614	-0.570135	1.064011
C44	C	1.510124	-0.506282	1.231949
C45	C	1.510125	-0.506280	1.115796
H46	H	1.643842	-0.806622	0.369863
O47	O	1.775689	-0.897598	0.238105
C48	C	1.752917	-0.924456	0.133943
H49	H	1.712793	-1.004157	0.131772
H50	H	1.828369	-0.928167	0.087139
H51	H	1.699177	-0.862765	0.098688
H52	H	1.627968	-0.624807	1.108539
H53	H	1.765357	-1.105171	0.248811
H54	H	1.644081	-1.204750	0.369998
H55	H	1.455764	-0.451610	1.071275
O56	O	1.376750	-1.222086	0.637127
C57	C	1.476898	-1.258652	0.664074
H58	H	1.537070	-1.195381	0.646249
H59	H	1.495545	-1.332063	0.616972
H60	H	1.479064	-1.278082	0.750790
H61	H	1.255160	-1.105362	0.758242
H62	H	1.255041	-0.906294	0.758192
H63	H	1.376324	-0.806716	0.636984
O64	O	1.638364	-0.635318	0.890665
C65	C	1.623962	-0.620789	0.782665
H66	H	1.543314	-0.586359	0.767864
H67	H	1.630987	-0.699445	0.741094
H68	H	1.685939	-0.564815	0.751705
H69	H	1.455775	-0.451601	0.936730
O70	O	0.897362	-0.635469	0.631615
C71	C	0.789359	-0.620979	0.617209
H72	H	0.774557	-0.539835	0.583111
H73	H	0.747819	-0.628198	0.695441
H74	H	0.758365	-0.683187	0.561429
H75	H	1.115234	-0.624960	0.621139
H76	H	1.077919	-0.451513	0.449188
O77	O	0.952075	-0.441110	0.438667
C78	C	1.015168	-0.500869	0.371099
H79	H	1.031410	-0.580560	0.407831
H80	H	1.091966	-0.458114	0.357225
H81	H	0.973148	-0.512257	0.293606
